data_functionalizedCrystal
_audit_creation_method	'MofGen! by Chris Wilmer'
_symmetry_space_group_name_H-M	'P1'
_symmetry_Int_Tables_number	1
_symmetry_cell_setting	triclinic
loop_
_symmetry_equiv_pos_as_xyz
  x,y,z
_cell_length_a	27.440280
_cell_length_b	14.446369
_cell_length_c	14.446369
_cell_angle_alpha	90.002030
_cell_angle_beta	60.004699
_cell_angle_gamma	59.997499
loop_
_atom_site_label
_atom_site_type_symbol
_atom_site_fract_x
_atom_site_fract_y
_atom_site_fract_z
Zr1	Zr	0.533367	-0.121435	0.891895
O2	O	0.635038	-0.269248	0.744103
O3	O	0.431703	-0.076124	0.937184
O4	O	0.533370	-0.269243	0.937198
O5	O	0.533366	0.076208	0.744096
O6	O	0.533366	-0.269237	1.089536
O7	O	0.533370	-0.076129	0.744088
O8	O	0.351502	0.076216	1.089510
O9	O	0.715230	-0.269246	0.744122
O10	O	0.473514	-0.056794	1.070207
O11	O	0.473514	0.056890	0.956526
O12	O	0.593214	-0.170483	0.956543
O13	O	0.593214	-0.056799	0.842862
Zr14	Zr	0.533353	0.121534	1.134868
Zr15	Zr	0.533360	-0.121426	1.134855
Zr16	Zr	0.533360	0.121525	0.891908
Zr17	Zr	0.661265	-0.121432	0.891926
Zr18	Zr	0.405456	0.121531	1.134837
O19	O	0.635018	0.076223	1.089579
O20	O	0.635028	-0.269235	1.089561
O21	O	0.635028	0.076210	0.744121
O22	O	0.431683	0.269346	1.282660
O23	O	0.431693	-0.076112	1.282642
O24	O	0.431693	0.269334	0.937202
O25	O	0.533355	-0.076109	1.282667
O26	O	0.533350	0.269341	1.089564
O27	O	0.533355	0.269336	0.937227
O28	O	0.533350	0.076228	1.282675
O29	O	0.715224	-0.269239	0.937243
O30	O	0.351496	0.269337	1.089520
O31	O	0.351491	0.269344	1.282641
O32	O	0.351496	0.076224	1.282630
O33	O	0.715224	-0.076125	0.744132
O34	O	0.715219	-0.076118	0.937253
O35	O	0.473507	0.170581	1.070220
O36	O	0.473507	0.056898	1.183901
O37	O	0.593207	-0.056791	1.070237
O38	O	0.593207	0.056892	0.956555
C39	C	0.373380	0.000046	1.013342
C40	C	0.319084	0.000044	1.013329
C41	C	0.533369	0.000038	0.709475
C42	C	0.533372	0.000034	0.606332
C43	C	0.533352	0.303955	1.013398
C44	C	0.533349	0.407098	1.013403
C45	C	-0.017658	-0.059282	1.072753
C46	C	-0.068682	-0.059279	1.072764
O47	O	-0.095088	-0.109712	1.123265
N48	N	-0.094198	0.000060	1.013422
C49	C	-0.068693	0.059409	0.954076
O50	O	-0.095082	0.109883	0.903603
C51	C	-0.017673	0.059412	0.954073
C52	C	0.007845	0.000060	1.013409
C53	C	0.007860	-0.118629	1.132086
C54	C	0.058881	-0.118634	1.132073
C55	C	0.084385	-0.059291	1.072729
C56	C	0.058867	0.000055	1.013397
C57	C	0.007828	0.118768	0.894734
C58	C	0.058851	0.118766	0.894737
C59	C	0.084369	0.059413	0.954073
C60	C	0.135391	0.059393	0.954040
N61	N	0.160907	0.000053	1.013381
C62	C	0.135404	-0.059289	1.072726
C63	C	-0.175838	0.059400	0.954088
C64	C	-0.226853	0.059392	0.954084
C65	C	-0.226839	-0.059296	1.072774
C66	C	-0.175820	-0.059293	1.072771
C67	C	-0.150322	0.000061	1.013430
C68	C	0.242553	-0.059295	1.072695
C69	C	0.293581	-0.059298	1.072673
C70	C	0.293560	0.059394	0.953989
C71	C	0.242540	0.059393	0.954005
C72	C	0.217035	0.000046	1.013366
O73	O	0.161828	0.109804	0.903568
O74	O	0.161793	-0.109742	1.123202
C75	C	0.693341	0.000053	1.013421
C76	C	0.747637	0.000054	1.013434
C77	C	0.533369	-0.303857	1.013365
C78	C	0.533372	-0.407000	1.013360
C79	C	0.457862	0.625468	1.084719
C80	C	0.457811	0.518236	1.085128
C81	C	0.570845	0.410432	1.065710
C82	C	0.570366	0.518201	1.066225
C83	C	0.571925	0.516815	0.889665
C84	C	0.570503	0.410846	0.889868
C85	C	0.608859	-0.071308	0.387978
C86	C	0.608910	-0.071709	0.495210
C87	C	0.495876	-0.052268	0.602997
C88	C	0.496355	-0.052791	0.495228
C89	C	0.494795	0.123769	0.496601
C90	C	0.496218	0.123575	0.602570
C91	C	0.533352	0.000060	1.317288
C92	C	0.533349	0.000064	1.420430
C93	C	0.373371	0.000057	1.317248
C94	C	0.319072	0.000059	1.420378
C95	C	0.373371	0.303952	1.013359
C96	C	0.319072	0.407093	1.013351
C97	C	0.373362	0.303963	1.317265
C98	C	0.319061	0.407108	1.420400
C99	C	0.693359	-0.303864	0.709498
C100	C	0.747660	-0.407010	0.606363
C101	C	0.693350	0.000042	0.709515
C102	C	0.747649	0.000039	0.606385
C103	C	0.693350	-0.303853	1.013404
C104	C	0.747649	-0.406995	1.013412
C105	C	0.293576	-0.059295	1.409462
C106	C	0.242564	-0.059316	1.506354
C107	C	0.217045	0.000026	1.614161
C108	C	0.242546	0.059383	1.625075
C109	C	0.293561	0.059396	1.528184
C110	C	0.293570	0.514886	1.072694
C111	C	0.242557	0.611808	1.072682
C112	C	0.217045	0.600935	1.013333
C113	C	0.242553	0.493131	0.953983
C114	C	0.293568	0.396211	0.953989
C115	C	0.293560	0.396205	1.528184
C116	C	0.242545	0.493112	1.625100
C117	C	0.217027	0.600921	1.614229
C118	C	0.242533	0.611822	1.506433
C119	C	0.293551	0.514916	1.409520
C120	C	0.773167	-0.396107	0.498579
C121	C	0.824198	-0.493014	0.401663
C122	C	0.849718	-0.600823	0.412534
C123	C	0.824209	-0.611724	0.520330
C124	C	0.773182	-0.514818	0.617243
C125	C	0.773150	0.059384	0.617301
C126	C	0.824176	0.059377	0.520409
C127	C	0.849697	0.000032	0.412602
C128	C	0.824194	-0.059320	0.401688
C129	C	0.773172	-0.059320	0.498579
C130	C	0.773145	-0.396086	1.072773
C131	C	0.824157	-0.492989	1.072802
C132	C	0.849677	-0.600801	1.013464
C133	C	0.824176	-0.611708	0.954102
C134	C	0.773160	-0.514806	0.954079
H135	H	0.314358	-0.107634	1.120991
H136	H	0.844959	-0.484116	0.313901
H137	H	-0.247614	-0.107613	1.121097
F138	F	0.746015	-0.281377	0.486984
F139	F	0.419104	0.521454	1.204399
H140	H	0.439171	0.177199	0.524029
H141	H	0.314307	0.523810	1.321761
H142	H	0.891217	-0.679695	1.013491
H143	H	0.175485	0.679819	1.693151
F144	F	0.644634	0.480934	0.819846
F145	F	0.424178	0.198925	0.706007
F146	F	0.851347	-0.726458	0.890945
H147	H	0.314325	0.308446	0.905668
H148	H	0.752415	-0.523709	0.705003
H149	H	0.844981	-0.107637	0.313899
F150	F	0.215393	0.481577	0.890824
F151	F	0.215431	-0.122490	1.494715
F152	F	0.320711	0.281476	1.539779
H153	H	0.221761	0.107696	1.712864
F154	F	0.215369	0.726570	1.494881
H155	H	0.891267	-0.679720	0.333612
F156	F	0.534763	0.411531	0.838795
H157	H	0.314313	0.107736	1.537088
F158	F	0.647613	-0.190985	0.492011
F159	F	0.531194	-0.171775	0.429419
F160	F	0.215406	0.481486	1.739812
F161	F	0.419124	0.695993	1.039094
H162	H	0.175504	0.000007	1.693046
H163	H	0.440954	-0.004168	0.521871
H164	H	0.543715	0.568555	1.157248
F165	F	0.851375	-0.726472	0.531882
H166	H	0.314336	0.523761	1.121023
H167	H	0.752375	0.107717	0.705074
F168	F	0.746033	-0.122479	0.486944
H169	H	0.844933	0.107713	0.529318
H170	H	0.428370	0.680455	1.175416
H171	H	0.752407	-0.523704	0.905736
F172	F	0.904000	0.000043	0.309491
F173	F	0.320728	-0.122463	1.294735
H174	H	0.221792	-0.107618	1.121034
F175	F	0.745994	-0.281353	1.135934
F176	F	0.215417	0.726530	1.135857
H177	H	0.079653	-0.166959	1.180394
H178	H	0.844915	-0.484086	1.121140
F179	F	-0.019273	-0.181799	1.195249
F180	F	-0.148667	-0.122461	1.135926
H181	H	-0.247618	0.107708	0.905752
F182	F	-0.019321	0.181942	0.831582
F183	F	0.085984	0.181942	0.831578
F184	F	0.215388	0.122546	0.890838
F185	F	-0.148700	0.122569	0.890917
F186	F	0.162749	0.704097	1.013338
H187	H	0.314336	0.107705	0.905668
H188	H	0.428391	0.519846	1.050046
F189	F	0.642776	0.483368	1.002705
H190	H	0.626386	0.332165	1.016241
H191	H	0.544797	0.408306	1.155873
H192	H	0.625613	0.331688	0.832230
F193	F	0.540345	0.582185	0.832550
H194	H	0.638479	-0.036899	0.493459
F195	F	0.526367	0.180884	0.431225
H196	H	0.638492	-0.036403	0.334031
F197	F	0.423280	0.012406	0.705282
F198	F	0.529921	-0.170123	0.605788
F199	F	0.647410	-0.189865	0.316115
H200	H	0.523558	0.162647	0.602061
