data_functionalizedCrystal
_audit_creation_method	'MofGen! by Chris Wilmer'
_symmetry_space_group_name_H-M	'P1'
_symmetry_Int_Tables_number	1
_symmetry_cell_setting	triclinic
loop_
_symmetry_equiv_pos_as_xyz
  x,y,z
_cell_length_a	11.792254
_cell_length_b	27.731996
_cell_length_c	10.268362
_cell_angle_alpha	90.011242
_cell_angle_beta	90.004525
_cell_angle_gamma	83.409992
loop_
_atom_site_label
_atom_site_type_symbol
_atom_site_fract_x
_atom_site_fract_y
_atom_site_fract_z
O1	O	1.504751	0.066279	0.108318
O2	O	2.004751	0.566279	0.608318
O3	O	1.174191	0.073100	0.108322
O4	O	1.674191	0.573100	0.608322
O5	O	1.349768	-0.000649	0.108292
O6	O	1.849768	0.499351	0.608292
O7	O	1.329174	0.140028	0.108348
O8	O	1.829174	0.640028	0.608348
O9	O	1.349753	-0.000652	-0.108309
O10	O	1.849753	0.499348	0.391691
O11	O	1.174176	0.073097	-0.108278
O12	O	1.674176	0.573097	0.391722
O13	O	1.504736	0.066276	-0.108283
O14	O	2.004736	0.566276	0.391717
Cu15	Cu	1.339454	0.069686	-0.128058
Cu16	Cu	1.839454	0.569686	0.371942
Cu17	Cu	1.339472	0.069690	0.128097
Cu18	Cu	1.839472	0.569690	0.628097
O19	O	1.329158	0.140025	-0.108252
O20	O	1.829158	0.640025	0.391748
C21	C	1.131906	0.072669	0.000022
C22	C	1.631906	0.572669	0.500022
C23	C	1.005935	0.071383	0.000023
C24	C	1.505935	0.571383	0.500023
C25	C	0.903632	0.070338	0.000028
C26	C	1.403632	0.570338	0.500028
C27	C	0.775288	0.069031	0.000028
C28	C	1.275288	0.569031	0.500028
C29	C	1.349337	-0.018660	-0.000013
C30	C	1.849337	0.481340	0.499987
C31	C	1.348063	-0.072324	-0.000026
C32	C	1.848063	0.427676	0.499974
C33	C	1.340054	-0.405085	0.118106
C34	C	1.840054	0.094915	0.618106
C35	C	1.335215	-0.606772	0.118129
C36	C	1.835215	-0.106772	0.618129
O37	O	1.334548	-0.632845	0.218543
O38	O	1.834548	-0.132845	0.718543
N39	N	1.334606	-0.631994	0.000062
N40	N	1.834606	-0.131994	0.500062
C41	C	1.335199	-0.606791	-0.118020
C42	C	1.835199	-0.106791	0.381980
O43	O	1.334558	-0.632872	-0.218444
O44	O	1.834558	-0.132872	0.281556
C45	C	1.340030	-0.405105	-0.118042
C46	C	1.840030	0.094895	0.381958
C47	C	1.340651	-0.379886	0.000034
C48	C	1.840651	0.120114	0.500034
C49	C	1.340674	-0.379866	0.236172
C50	C	1.840674	0.120134	0.736172
C51	C	1.341890	-0.329448	0.236166
C52	C	1.841890	0.170552	0.736166
C53	C	1.342486	-0.304249	0.118093
C54	C	1.842486	0.195751	0.618093
C55	C	1.341867	-0.329468	0.000027
C56	C	1.841867	0.170532	0.500027
C57	C	1.340615	-0.379903	-0.236123
C58	C	1.840615	0.120097	0.263877
C59	C	1.341820	-0.329478	-0.236118
C60	C	1.841820	0.170522	0.263882
C61	C	1.342440	-0.304259	-0.118042
C62	C	1.842440	0.195741	0.381958
C63	C	1.343679	-0.253851	-0.118053
C64	C	1.843679	0.246149	0.381947
N65	N	1.344288	-0.228628	0.000015
N66	N	1.844288	0.271372	0.500015
C67	C	1.343692	-0.253827	0.118088
C68	C	1.843692	0.246173	0.618088
C69	C	1.332665	-0.712679	-0.118001
C70	C	1.832665	-0.212679	0.381999
C71	C	1.331460	-0.763101	-0.117996
C72	C	1.831460	-0.263101	0.382004
C73	C	1.331474	-0.763078	0.118155
C74	C	1.831474	-0.263078	0.618155
C75	C	1.332688	-0.712656	0.118148
C76	C	1.832688	-0.212656	0.618148
C77	C	1.333275	-0.687457	0.000067
C78	C	1.833275	-0.187457	0.500067
C79	C	1.346246	-0.147946	0.118064
C80	C	1.846246	0.352054	0.618064
C81	C	1.347467	-0.097523	0.118047
C82	C	1.847467	0.402477	0.618047
C83	C	1.347447	-0.097550	-0.118103
C84	C	1.847447	0.402450	0.381897
C85	C	1.346232	-0.147969	-0.118086
C86	C	1.846232	0.352031	0.381914
C87	C	1.345628	-0.173165	0.000008
C88	C	1.845628	0.326835	0.500008
O89	O	1.344334	-0.227746	-0.218415
O90	O	1.844334	0.272254	0.281585
O91	O	1.344308	-0.227737	0.218496
O92	O	1.844308	0.272263	0.718496
C93	C	1.338838	-0.455504	0.118113
C94	C	1.838838	0.044496	0.618113
C95	C	1.338219	-0.480723	0.000047
C96	C	1.838219	0.019277	0.500047
C97	C	1.338815	-0.455524	-0.118025
C98	C	1.838815	0.044476	0.381975
C99	C	1.337013	-0.531144	0.000052
C100	C	1.837013	-0.031144	0.500052
C101	C	1.336417	-0.556343	0.118125
C102	C	1.836417	-0.056343	0.618125
C103	C	1.337026	-0.531121	0.236193
C104	C	1.837026	-0.031121	0.736193
C105	C	1.338242	-0.480703	0.236186
C106	C	1.838242	0.019297	0.736186
C107	C	1.338206	-0.480746	-0.236093
C108	C	1.838206	0.019254	0.263907
C109	C	1.336992	-0.531164	-0.236077
C110	C	1.836992	-0.031164	0.263923
C111	C	1.336395	-0.556363	-0.118004
C112	C	1.836395	-0.056363	0.381996
C113	C	1.547020	0.066707	0.000020
C114	C	2.047020	0.566707	0.500020
C115	C	1.672992	0.067993	0.000028
C116	C	2.172992	0.567993	0.500028
C117	C	1.329589	0.158037	0.000055
C118	C	1.829589	0.658037	0.500055
C119	C	1.330863	0.211700	0.000077
C120	C	1.830863	0.711700	0.500077
N121	N	1.339450	0.069683	-0.308224
N122	N	1.839450	0.569683	0.191776
C123	C	1.339466	0.069689	-0.573894
C124	C	1.839466	0.569689	-0.073894
C125	C	1.339454	0.069687	-0.426056
C126	C	1.839454	0.569687	0.073944
N127	N	1.339485	0.069689	0.308263
N128	N	1.839485	0.569689	0.808263
H129	H	1.347975	-0.076992	0.214202
H130	H	1.847975	0.423008	0.714202
Cl131	Cl	1.345473	-0.179675	-0.266526
Cl132	Cl	1.845473	0.320325	0.233474
H133	H	1.330989	-0.783603	0.214294
H134	H	1.830989	-0.283603	0.714294
Cl135	Cl	1.339827	-0.411594	-0.384571
Cl136	Cl	1.839827	0.088406	0.115429
H137	H	1.345749	-0.168454	0.214227
H138	H	1.845749	0.331546	0.714227
Cl139	Cl	1.342659	-0.297751	0.384612
Cl140	Cl	1.842659	0.202249	0.884612
Cl141	Cl	1.339926	-0.411536	0.384628
Cl142	Cl	1.839926	0.088464	0.884628
H143	H	1.342281	-0.308963	-0.332276
H144	H	1.842281	0.191037	0.167724
H145	H	1.333191	-0.692126	0.214296
H146	H	1.833191	-0.192126	0.714296
Cl147	Cl	1.348196	-0.065862	-0.266529
Cl148	Cl	1.848196	0.434138	0.233471
H149	H	1.333149	-0.692168	-0.214162
H150	H	1.833149	-0.192168	0.285838
Cl151	Cl	1.339020	-0.449006	0.384633
Cl152	Cl	1.839020	0.050994	0.884633
Cl153	Cl	1.336281	-0.562810	0.384626
Cl154	Cl	1.836281	-0.062810	0.884626
H155	H	1.330972	-0.783631	-0.214145
H156	H	1.830972	-0.283631	0.285855
Cl157	Cl	1.336217	-0.562862	-0.384531
Cl158	Cl	1.836217	-0.062862	0.115469
Cl159	Cl	1.338947	-0.449075	-0.384544
Cl160	Cl	1.838947	0.050925	0.115456
