data_functionalizedCrystal
_audit_creation_method	'MofGen! by Chris Wilmer'
_symmetry_space_group_name_H-M	'P1'
_symmetry_Int_Tables_number	1
_symmetry_cell_setting	triclinic
loop_
_symmetry_equiv_pos_as_xyz
  x,y,z
_cell_length_a	10.654550
_cell_length_b	15.538191
_cell_length_c	9.130313
_cell_angle_alpha	89.998786
_cell_angle_beta	89.999724
_cell_angle_gamma	65.878512
loop_
_atom_site_label
_atom_site_type_symbol
_atom_site_fract_x
_atom_site_fract_y
_atom_site_fract_z
O1	O	1.606172	0.131916	-0.121678
O2	O	1.234818	0.144484	-0.121704
O3	O	1.492782	0.001542	-0.121693
O4	O	1.348208	0.274857	-0.121689
O5	O	1.492771	0.001538	0.121906
O6	O	1.234807	0.144479	0.121895
O7	O	1.606161	0.131911	0.121921
Cu8	Cu	1.420483	0.138195	0.144150
Cu9	Cu	1.420496	0.138200	-0.143934
O10	O	1.348197	0.274853	0.121910
C11	C	1.188446	0.143559	0.000092
C12	C	1.050293	0.140798	0.000082
C13	C	0.931464	0.224959	0.000087
C14	C	0.801659	0.222359	0.000112
C15	C	0.909528	0.051429	0.000121
C16	C	1.039330	0.054030	0.000106
C17	C	1.507903	-0.033456	0.000102
C18	C	1.552959	-0.137736	0.000091
C19	C	1.105338	-0.428451	0.000091
C20	C	1.147707	-0.526440	0.000098
C21	C	1.386021	-0.547326	0.000114
C22	C	1.343672	-0.449336	0.000100
C23	C	1.203329	-0.389906	0.000091
C24	C	1.441663	-0.410792	0.000099
C25	C	1.399317	-0.312811	0.000094
C26	C	1.258980	-0.253375	0.000089
C27	C	1.160983	-0.291926	0.000085
C28	C	1.582005	-0.470224	0.000119
C29	C	1.679996	-0.431679	0.000119
C30	C	1.637651	-0.333697	0.000102
C31	C	1.497314	-0.274261	0.000097
C32	C	1.735648	-0.295147	0.000106
C33	C	1.693302	-0.197166	0.000100
C34	C	1.454968	-0.176280	0.000092
C35	C	1.652533	0.132836	0.000121
C36	C	1.790685	0.135597	0.000122
C37	C	1.333076	0.309851	0.000111
C38	C	1.288020	0.414131	0.000113
N39	N	1.420483	0.138191	0.346773
N40	N	1.420509	0.138197	-0.346556
C41	C	1.534726	0.074924	0.423429
C42	C	1.534738	0.074924	0.576766
C43	C	1.306256	0.201467	0.576776
C44	C	1.306242	0.201462	0.423442
H45	H	1.136092	-0.014509	0.000106
C46	C	1.660388	0.005317	0.339099
N47	N	1.755038	-0.047117	0.275585
C48	C	1.006598	-0.226546	0.000073
N49	N	0.890320	-0.177303	0.000070
C50	C	1.039897	-0.568834	0.000090
N51	N	0.958696	-0.600765	0.000084
C52	C	1.660407	0.005317	0.661082
N53	N	1.755064	-0.047118	0.724587
H54	H	0.900584	-0.019214	0.000150
C55	C	1.180596	0.271059	0.661127
N56	N	1.085946	0.323477	0.724658
H57	H	1.794264	-0.480080	0.000132
H58	H	1.213205	0.252982	0.361024
H59	H	0.704908	0.290892	0.000120
H60	H	0.940383	0.295611	0.000078
H61	H	1.340687	-0.127888	0.000073
H62	H	1.224505	-0.173593	0.000092
H63	H	0.991057	-0.380059	0.000073
H64	H	1.500288	-0.595727	0.000127
H65	H	1.849915	-0.343549	0.000128
H66	H	1.773096	-0.165783	0.000102
H67	H	1.616478	-0.550005	0.000111
