data_functionalizedCrystal
_audit_creation_method	'MofGen! by Chris Wilmer'
_symmetry_space_group_name_H-M	'P1'
_symmetry_Int_Tables_number	1
_symmetry_cell_setting	triclinic
loop_
_symmetry_equiv_pos_as_xyz
  x,y,z
_cell_length_a	23.204063
_cell_length_b	23.204065
_cell_length_c	23.204116
_cell_angle_alpha	59.997987
_cell_angle_beta	89.998953
_cell_angle_gamma	60.000253
loop_
_atom_site_label
_atom_site_type_symbol
_atom_site_fract_x
_atom_site_fract_y
_atom_site_fract_z
O1	O	-0.491197	-0.412484	0.017135
O2	O	-0.407392	-0.294473	-0.017070
O3	O	-0.407389	-0.412483	0.100940
O4	O	-0.491200	-0.294474	-0.100875
O5	O	-0.311538	-0.508333	0.100940
O6	O	-0.311541	-0.390323	-0.017071
O7	O	-0.395346	-0.508335	0.017135
Zn8	Zn	-0.338225	-0.464547	0.000032
Zn9	Zn	-0.464513	-0.338260	0.000033
O10	O	-0.395349	-0.390324	-0.100876
C11	C	-0.310652	-0.181456	-0.024838
C12	C	-0.346214	-0.110333	-0.019942
C13	C	-0.241294	-0.215971	-0.025323
C14	C	-0.310655	-0.285810	-0.024846
C15	C	-0.346219	-0.326263	-0.019957
C16	C	-0.241297	-0.320167	-0.025331
C17	C	-0.206293	-0.285815	-0.024838
C18	C	-0.130274	-0.326273	-0.019941
C19	C	-0.345497	-0.215967	-0.025331
C20	C	-0.658540	-0.590043	0.035860
C21	C	-0.734559	-0.549588	0.030967
C22	C	-0.623539	-0.659889	0.036349
C23	C	-0.554183	-0.590040	0.035855
C24	C	-0.518621	-0.549582	0.030958
C25	C	-0.519339	-0.659886	0.036344
C26	C	-0.554182	-0.694402	0.035859
C27	C	-0.518619	-0.765527	0.030967
C28	C	-0.623539	-0.555686	0.036345
C29	C	-0.489889	-0.822989	0.027012
C30	C	-0.795974	-0.516903	0.027013
C31	C	-0.489891	-0.516895	0.027000
C32	C	-0.453845	-0.895077	0.022052
C33	C	-0.873022	-0.475899	0.022054
C34	C	-0.453848	-0.475888	0.022036
C35	C	-0.554187	-0.212776	-0.445775
C36	C	-0.518624	-0.253233	-0.481336
C37	C	-0.623545	-0.142931	-0.480619
C38	C	-0.554188	-0.212775	-0.341416
C39	C	-0.518626	-0.253231	-0.265397
C40	C	-0.623546	-0.142930	-0.376419
C41	C	-0.658547	-0.108416	-0.445777
C42	C	-0.734566	-0.037291	-0.481340
C43	C	-0.519344	-0.247131	-0.376417
C44	C	-0.795982	0.020169	-0.510072
C45	C	-0.489893	-0.285920	-0.510065
C46	C	-0.489896	-0.285917	-0.203980
C47	C	-0.873032	0.092257	-0.546117
C48	C	-0.453848	-0.326925	-0.546108
C49	C	-0.453852	-0.326922	-0.126930
O50	O	0.100922	-0.508345	0.017151
O51	O	-0.100892	-0.390333	-0.017055
O52	O	0.017109	-0.508348	0.100956
O53	O	-0.017080	-0.390330	-0.100860
O54	O	0.017112	-0.412502	0.100963
O55	O	-0.100890	-0.294486	-0.017048
O56	O	0.100924	-0.412499	0.017158
Zn57	Zn	0.000018	-0.338275	0.000056
Zn58	Zn	0.000014	-0.464556	0.000047
O59	O	-0.017077	-0.294483	-0.100853
O60	O	-0.395342	0.083766	0.017156
O61	O	-0.311534	-0.083842	-0.017048
O62	O	-0.311538	-0.083852	0.100962
O63	O	-0.395338	0.083777	-0.100854
O64	O	-0.407391	-0.083849	0.100954
O65	O	-0.407387	-0.083839	-0.017056
O66	O	-0.491195	0.083770	0.017149
Zn67	Zn	-0.464510	-0.000034	0.000045
Zn68	Zn	-0.338219	-0.000039	0.000055
O69	O	-0.491191	0.083780	-0.100861
O70	O	-1.100901	0.281028	-0.592582
O71	O	-0.899087	0.113413	-0.508770
O72	O	-1.017091	0.113409	-0.508767
O73	O	-0.982897	0.281032	-0.592584
O74	O	-1.017088	0.113407	-0.604617
O75	O	-0.899085	0.113411	-0.604619
O76	O	-1.100898	0.281026	-0.688432
Zn77	Zn	-0.999991	0.197218	-0.661744
Zn78	Zn	-0.999994	0.197221	-0.535458
O79	O	-0.982895	0.281030	-0.688434
O80	O	-0.407389	-0.412483	-0.688416
O81	O	-0.491197	-0.294477	-0.604610
O82	O	-0.491195	-0.412486	-0.604605
O83	O	-0.407390	-0.294474	-0.688421
O84	O	-0.395343	-0.508338	-0.508754
O85	O	-0.395345	-0.390329	-0.508759
O86	O	-0.311537	-0.508334	-0.592565
Zn87	Zn	-0.338222	-0.464550	-0.535443
Zn88	Zn	-0.464511	-0.338262	-0.661732
O89	O	-0.311539	-0.390326	-0.592570
C90	C	-0.206294	-0.621360	0.310702
C91	C	-0.130275	-0.692485	0.346265
C92	C	-0.241296	-0.586846	0.345545
C93	C	-0.310654	-0.517001	0.206342
C94	C	-0.346216	-0.476544	0.130323
C95	C	-0.345497	-0.482645	0.241343
C96	C	-0.310653	-0.517001	0.310701
C97	C	-0.346216	-0.476544	0.346263
C98	C	-0.241296	-0.586846	0.241345
C99	C	0.024887	-0.517030	0.310724
C100	C	0.019993	-0.476577	0.346290
C101	C	0.025371	-0.586874	0.345565
C102	C	0.024889	-0.517022	0.206362
C103	C	0.019998	-0.476562	0.130342
C104	C	0.025374	-0.586867	0.241361
C105	C	0.024884	-0.621384	0.310718
C106	C	0.019987	-0.692509	0.346278
C107	C	0.025377	-0.482671	0.241366
C108	C	-0.310656	-0.285855	0.310709
C109	C	-0.346220	-0.326314	0.346266
C110	C	-0.241298	-0.320218	0.345555
C111	C	-0.310655	-0.181484	0.206357
C112	C	-0.346217	-0.110348	0.130340
C113	C	-0.241296	-0.216005	0.241362
C114	C	-0.206295	-0.285860	0.310717
C115	C	-0.130275	-0.326323	0.346282
C116	C	-0.345499	-0.216001	0.241354
C117	C	-0.035774	-0.108410	-0.445754
C118	C	-0.030877	-0.037285	-0.481314
C119	C	-0.036262	-0.142920	-0.480600
C120	C	-0.035780	-0.212771	-0.341397
C121	C	-0.030889	-0.253231	-0.265377
C122	C	-0.036268	-0.247124	-0.376401
C123	C	-0.035777	-0.212765	-0.445759
C124	C	-0.030883	-0.253218	-0.481324
C125	C	-0.036265	-0.142927	-0.376396
C126	C	-0.026928	-0.285901	-0.510056
C127	C	-0.026920	0.020175	-0.510042
C128	C	-0.026936	-0.285920	-0.203961
C129	C	-0.021967	-0.326903	-0.546103
C130	C	-0.021955	0.092262	-0.546083
C131	C	-0.021978	-0.326928	-0.126911
O132	O	-0.017120	-0.390358	0.491266
O133	O	0.017098	-0.508368	0.407461
O134	O	-0.100916	-0.390357	0.407446
O135	O	0.100893	-0.508369	0.491281
O136	O	-0.100904	-0.294507	0.311599
O137	O	0.017110	-0.412518	0.311614
O138	O	-0.017109	-0.294509	0.395420
Zn139	Zn	0.000002	-0.338295	0.338299
Zn140	Zn	-0.000013	-0.464581	0.464581
O141	O	0.100905	-0.412519	0.395435
C142	C	-0.658539	0.410016	-0.445751
C143	C	-0.734559	0.450479	-0.481316
C144	C	-0.623536	0.444375	-0.480590
C145	C	-0.554179	0.305641	-0.341392
C146	C	-0.518616	0.234505	-0.265374
C147	C	-0.519335	0.340158	-0.376388
C148	C	-0.554178	0.410013	-0.445743
C149	C	-0.518614	0.450471	-0.481300
C150	C	-0.623537	0.340162	-0.376396
C151	C	-0.489883	0.483159	-0.510025
C152	C	-0.795975	0.483170	-0.510049
C153	C	-0.489886	0.177036	-0.203959
C154	C	-0.453838	0.524167	-0.546063
C155	C	-0.873025	0.524182	-0.546095
C156	C	-0.453842	0.104937	-0.126912
H157	H	-0.462354	-0.688766	0.037124
C158	C	-0.660947	-0.104343	-0.338977
C159	C	-0.623414	-0.081163	-0.319596
C160	C	-0.657858	-0.045602	-0.285119
H161	H	-0.663377	-0.142586	-0.297943
H162	H	-0.707343	-0.057687	-0.369779
H163	H	-0.577031	-0.127814	-0.288796
H164	H	-0.620983	-0.042912	-0.360617
H165	H	-0.704254	0.001054	-0.315921
H166	H	-0.660286	-0.083850	-0.244087
H167	H	-0.632401	-0.029864	-0.271971
C168	C	-0.203742	-0.177567	-0.026280
C169	C	-0.143333	-0.234155	0.033769
C170	C	-0.108738	-0.198789	0.032895
H171	H	-0.234477	-0.130960	-0.026465
H172	H	-0.190505	-0.161808	-0.067422
H173	H	-0.156571	-0.249902	0.074900
H174	H	-0.112581	-0.280764	0.033966
H175	H	-0.095501	-0.183030	-0.008246
H176	H	-0.139479	-0.152183	0.032709
H177	H	-0.067744	-0.237181	0.073635
C178	C	-0.037178	-0.322156	-0.338917
C179	C	0.022895	-0.386008	-0.335453
C180	C	0.022083	-0.455138	-0.300919
H181	H	-0.078288	-0.310085	-0.364258
H182	H	-0.037355	-0.337819	-0.292490
H183	H	0.023067	-0.370347	-0.381872
H184	H	0.064015	-0.398104	-0.310107
H185	H	0.021906	-0.470801	-0.254492
H186	H	-0.019029	-0.443058	-0.326264
H187	H	0.062845	-0.498471	-0.298559
H188	H	-0.402486	-0.187075	-0.026121
H189	H	-0.651642	-0.688773	0.037135
C190	C	-0.203946	-0.395089	0.421575
C191	C	-0.241509	-0.376940	0.464120
C192	C	-0.207126	-0.445890	0.534149
H193	H	-0.157544	-0.410754	0.437500
H194	H	-0.201555	-0.438508	0.424295
H195	H	-0.243892	-0.333535	0.461403
H196	H	-0.287909	-0.361285	0.448218
H197	H	-0.204735	-0.489308	0.536869
H198	H	-0.160726	-0.461549	0.550066
H199	H	-0.232611	-0.433587	0.563023
C200	C	-0.661117	-0.480764	0.037415
C201	C	-0.729475	-0.457927	0.037740
C202	C	-0.764108	-0.388919	0.038731
H203	H	-0.663590	-0.437290	-0.003290
H204	H	-0.635769	-0.492925	0.078584
H205	H	-0.754818	-0.445761	-0.003425
H206	H	-0.727023	-0.501380	0.078443
H207	H	-0.738759	-0.401080	0.079900
H208	H	-0.766576	-0.345451	-0.001976
H209	H	-0.810490	-0.373419	0.038958
C210	C	-0.443359	0.301780	-0.339029
C211	C	-0.420211	0.346999	-0.384549
C212	C	-0.350232	0.311678	-0.350159
H213	H	-0.414309	0.247425	-0.325817
H214	H	-0.440645	0.301517	-0.298035
H215	H	-0.422920	0.347254	-0.425530
H216	H	-0.449241	0.401353	-0.397763
H217	H	-0.347518	0.311415	-0.309166
H218	H	-0.321188	0.257324	-0.336949
H219	H	-0.334519	0.342358	-0.381037
C220	C	-0.660869	0.519299	-0.556584
C221	C	-0.615332	0.542114	-0.579737
C222	C	-0.649692	0.611121	-0.649739
H223	H	-0.701864	0.562781	-0.559359
H224	H	-0.674062	0.507144	-0.585594
H225	H	-0.602149	0.554273	-0.550736
H226	H	-0.574336	0.498652	-0.576979
H227	H	-0.662884	0.598965	-0.678748
H228	H	-0.690686	0.654596	-0.652507
H229	H	-0.618798	0.626605	-0.665459
C230	C	-0.660886	-0.104512	-0.556615
C231	C	-0.615364	-0.149709	-0.579775
C232	C	-0.649732	-0.114329	-0.649782
H233	H	-0.674066	-0.050167	-0.585628
H234	H	-0.701896	-0.104211	-0.559376
H235	H	-0.574367	-0.150001	-0.577019
H236	H	-0.602182	-0.204053	-0.550782
H237	H	-0.690742	-0.114028	-0.652543
H238	H	-0.662911	-0.059984	-0.678788
H239	H	-0.618853	-0.144994	-0.665503
H240	H	-0.213198	-0.376369	-0.026116
H241	H	-0.402486	-0.187114	0.213252
H242	H	-0.462356	-0.303332	-0.348318
C243	C	-0.037118	-0.104514	-0.556525
C244	C	0.022988	-0.104262	-0.560251
C245	C	0.022248	-0.068924	-0.630171
H246	H	-0.078207	-0.050122	-0.585605
H247	H	-0.037290	-0.135120	-0.572343
H248	H	0.023154	-0.073656	-0.544442
H249	H	0.064086	-0.158644	-0.531187
H250	H	0.022075	-0.099529	-0.645989
H251	H	-0.018844	-0.014534	-0.659245
H252	H	0.063031	-0.068754	-0.632707
H253	H	-0.402481	-0.426435	0.213235
C254	C	-0.203758	-0.625292	0.421486
C255	C	-0.143381	-0.625588	0.425267
C256	C	-0.108798	-0.660982	0.495208
H257	H	-0.190479	-0.679677	0.450532
H258	H	-0.234535	-0.594703	0.437318
H259	H	-0.112610	-0.656178	0.409444
H260	H	-0.156640	-0.571213	0.396237
H261	H	-0.139574	-0.630393	0.511039
H262	H	-0.095523	-0.715364	0.524248
H263	H	-0.067831	-0.661180	0.497781
H264	H	-0.651648	0.311288	-0.348296
H265	H	-0.213184	-0.615720	0.213239
H266	H	-0.213195	-0.187119	0.213260
H267	H	0.026169	-0.615754	0.213258
H268	H	0.026144	-0.615754	0.402549
H269	H	0.026162	-0.426467	0.213269
H270	H	-0.036993	-0.114078	-0.348277
