data_functionalizedCrystal
_audit_creation_method	'MofGen! by Chris Wilmer'
_symmetry_space_group_name_H-M	'P1'
_symmetry_Int_Tables_number	1
_symmetry_cell_setting	triclinic
loop_
_symmetry_equiv_pos_as_xyz
  x,y,z
_cell_length_a	17.640112
_cell_length_b	16.625546
_cell_length_c	17.640968
_cell_angle_alpha	78.766516
_cell_angle_beta	92.139080
_cell_angle_gamma	101.247770
loop_
_atom_site_label
_atom_site_type_symbol
_atom_site_fract_x
_atom_site_fract_y
_atom_site_fract_z
Zn1	Zn	1.247778	-0.023167	-0.195079
Zn2	Zn	1.222008	-0.189521	-0.068091
Zn3	Zn	1.095110	-0.075617	-0.093723
Zn4	Zn	1.120749	-0.178908	-0.220673
O5	O	1.171411	-0.116803	-0.144392
O6	O	1.350629	-0.027726	-0.156795
O7	O	1.183660	-0.200804	0.034783
O8	O	1.115417	0.044187	-0.107184
O9	O	1.331696	-0.149946	-0.063498
O10	O	1.227581	0.082722	-0.181650
O11	O	1.090428	-0.117119	0.015951
O12	O	0.992242	-0.106828	-0.132002
O13	O	1.159114	-0.131856	-0.323552
O14	O	1.011078	-0.182715	-0.225272
O15	O	1.252442	-0.017434	-0.304748
O16	O	1.208521	-0.300961	-0.088315
O17	O	1.134126	-0.293163	-0.200417
C18	C	0.974106	-0.149311	-0.184196
C19	C	0.889701	-0.163234	-0.201243
C20	C	0.563039	-0.011024	-0.014898
C21	C	0.483730	-0.024119	-0.030926
C22	C	0.503365	-0.103324	-0.127880
C23	C	0.582678	-0.090232	-0.111863
C24	C	0.612508	-0.044082	-0.055370
C25	C	0.632147	-0.123289	-0.152335
C26	C	0.711452	-0.110201	-0.136316
C27	C	0.741288	-0.064056	-0.079824
C28	C	0.691813	-0.030994	-0.039351
C29	C	0.602314	-0.169444	-0.208823
C30	C	0.651783	-0.202502	-0.249296
C31	C	0.731091	-0.189409	-0.233281
C32	C	0.760927	-0.143264	-0.176789
C33	C	0.780566	-0.222471	-0.273754
C34	C	0.859871	-0.209383	-0.257735
C35	C	0.840232	-0.130176	-0.160770
C36	C	1.171333	-0.326314	-0.144374
C37	C	1.171374	-0.415926	-0.144378
C38	C	1.171522	-0.744060	-0.144431
C39	C	1.171479	-0.652763	-0.144419
C40	C	1.171448	-0.579996	-0.144404
C41	C	1.171406	-0.488693	-0.144393
C42	C	1.369487	-0.084169	-0.104432
C43	C	1.453895	-0.070262	-0.087404
C44	C	1.211513	-0.067611	-0.342476
C45	C	1.228602	-0.046647	-0.426888
C46	C	1.171514	0.093533	-0.144422
C47	C	1.171558	0.183166	-0.144434
C48	C	1.041880	-0.275571	-0.753453
C49	C	1.057954	-0.255860	-0.832768
C50	C	1.155128	-0.136723	-0.813179
C51	C	1.139059	-0.156422	-0.733861
C52	C	1.082435	-0.225847	-0.704005
C53	C	1.179615	-0.106698	-0.684413
C54	C	1.163551	-0.126397	-0.605102
C55	C	1.106931	-0.195821	-0.575239
C56	C	1.066371	-0.245547	-0.624694
C57	C	1.236243	-0.037276	-0.714270
C58	C	1.276798	0.012448	-0.664822
C59	C	1.260730	-0.007248	-0.585510
C60	C	1.204111	-0.076672	-0.555647
C61	C	1.301290	0.042478	-0.536055
C62	C	1.285226	0.022778	-0.456744
C63	C	1.188046	-0.096371	-0.476336
C64	C	1.131509	-0.165740	0.052931
C65	C	1.114568	-0.186451	0.137372
H66	H	0.756265	-0.260053	-0.319745
H67	H	0.995753	-0.332088	-0.729147
O68	O	1.091389	-0.215080	-0.498184
C69	C	1.087755	-0.317471	-0.380433
C70	C	1.105402	-0.295761	-0.467687
H71	H	1.099061	-0.382709	-0.355754
H72	H	1.126481	-0.270064	-0.350166
H73	H	1.024596	-0.315730	-0.370796
H74	H	1.168541	-0.297511	-0.477396
H75	H	1.066625	-0.343171	-0.497911
H76	H	1.020244	-0.302064	-0.600388
H77	H	0.900151	-0.236301	-0.290693
O78	O	1.018458	-0.304232	-0.880700
C79	C	0.920409	-0.424524	-0.891753
C80	C	0.965062	-0.369803	-0.837387
H81	H	0.877240	-0.477560	-0.856754
H82	H	0.888183	-0.384875	-0.936894
H83	H	0.962793	-0.451679	-0.921859
H84	H	0.922731	-0.342636	-0.807227
H85	H	0.997300	-0.409490	-0.792294
O86	O	0.435788	0.008087	0.008439
C87	C	0.424674	0.087987	0.106341
C88	C	0.479057	0.051581	0.061805
H89	H	0.459633	0.123145	0.149509
H90	H	0.394646	0.132692	0.063949
H91	H	0.379464	0.035016	0.138572
H92	H	0.524310	0.104496	0.029572
H93	H	0.509027	0.006854	0.104235
O94	O	1.132952	-0.163722	-0.447319
C95	C	1.012305	-0.213725	-0.378432
C96	C	1.074626	-0.137379	-0.411267
H97	H	0.965141	-0.192456	-0.349262
H98	H	0.986019	-0.245876	-0.427383
H99	H	1.039653	-0.259378	-0.334293
H100	H	1.047337	-0.091667	-0.455396
H101	H	1.100906	-0.105294	-0.362275
H102	H	0.479066	-0.140902	-0.173874
H103	H	1.318249	0.063269	-0.416482
O104	O	0.622681	-0.247278	-0.304171
C105	C	0.509205	-0.302587	-0.371791
C106	C	0.542060	-0.251848	-0.309636
H107	H	0.444017	-0.306313	-0.376219
H108	H	0.537162	-0.270737	-0.429927
H109	H	0.522112	-0.368330	-0.355203
H110	H	0.529163	-0.186099	-0.326152
H111	H	0.514103	-0.283764	-0.251518
O112	O	0.525292	-0.182020	-0.224456
C113	C	0.415460	-0.118671	-0.267050
C114	C	0.502695	-0.104307	-0.249391
H115	H	0.397161	-0.055852	-0.287199
H116	H	0.402607	-0.157294	-0.314406
H117	H	0.382018	-0.153511	-0.212560
H118	H	0.536195	-0.069445	-0.303837
H119	H	0.515489	-0.065720	-0.202005
H120	H	1.249322	-0.021240	-0.778850
H121	H	0.716104	0.006601	0.006640
O122	O	1.210082	-0.069294	-0.842316
C123	C	1.277933	0.013831	-0.955809
C124	C	1.215667	-0.062547	-0.922918
H125	H	1.282481	0.019301	-1.020976
H126	H	1.261477	0.072816	-0.942974
H127	H	1.335983	0.005884	-0.927808
H128	H	1.157594	-0.054681	-0.950899
H129	H	1.232189	-0.121503	-0.935743
O130	O	1.331752	0.079877	-0.693959
C131	C	1.399604	0.163002	-0.807452
C132	C	1.337338	0.086625	-0.774561
H133	H	1.404151	0.168472	-0.872619
H134	H	1.383148	0.221987	-0.794617
H135	H	1.457654	0.155055	-0.779451
H136	H	1.279265	0.094490	-0.802542
H137	H	1.353860	0.027668	-0.787386
O138	O	1.356194	0.109988	-0.565118
C139	C	1.384616	0.242757	-0.652657
C140	C	1.322358	0.166360	-0.619796
H141	H	1.357287	0.288346	-0.696882
H142	H	1.410838	0.274980	-0.603728
H143	H	1.431835	0.221469	-0.681728
H144	H	1.275093	0.187578	-0.590734
H145	H	1.296197	0.134153	-0.668756
O146	O	0.869164	-0.085466	-0.105790
C147	C	0.867244	-0.074160	0.028216
C148	C	0.834426	-0.124875	-0.033967
H149	H	0.839161	-0.105992	0.086296
H150	H	0.932418	-0.070511	0.032777
H151	H	0.854413	-0.008387	0.011591
H152	H	0.847201	-0.190671	-0.017388
H153	H	0.769261	-0.128454	-0.038516
O154	O	0.592103	0.033701	0.040031
C155	C	0.660835	0.034009	0.160644
C156	C	0.627971	-0.016725	0.098489
H157	H	0.689828	-0.006745	0.207931
H158	H	0.705098	0.090899	0.133257
H159	H	0.611854	0.055422	0.186785
H160	H	0.676900	-0.038197	0.072326
H161	H	0.583688	-0.073575	0.125918
O162	O	0.818326	-0.051193	-0.064265
C163	C	0.936134	0.049735	-0.060955
C164	C	0.848893	0.035289	-0.078587
H165	H	0.960877	0.119652	-0.072543
H166	H	0.945777	0.022097	0.002241
H167	H	0.966347	0.018139	-0.099566
H168	H	0.818624	0.066884	-0.040026
H169	H	0.839308	0.062907	-0.141799
