data_functionalizedCrystal
_audit_creation_method	'MofGen! by Chris Wilmer'
_symmetry_space_group_name_H-M	'P1'
_symmetry_Int_Tables_number	1
_symmetry_cell_setting	triclinic
loop_
_symmetry_equiv_pos_as_xyz
  x,y,z
_cell_length_a	16.974897
_cell_length_b	15.455313
_cell_length_c	16.109301
_cell_angle_alpha	87.337130
_cell_angle_beta	83.431140
_cell_angle_gamma	96.324780
loop_
_atom_site_label
_atom_site_type_symbol
_atom_site_fract_x
_atom_site_fract_y
_atom_site_fract_z
O1	O	1.056133	0.146192	0.098648
O2	O	0.825147	0.129997	0.112949
O3	O	0.946985	0.138531	-0.015260
O4	O	0.934295	0.137659	0.226856
O5	O	0.940018	-0.006219	-0.007958
O6	O	0.818180	-0.014753	0.120251
O7	O	1.049165	0.001442	0.105949
Cu8	Cu	0.933036	-0.019872	0.113767
Cu9	Cu	0.941276	0.151312	0.105132
O10	O	0.927328	-0.007091	0.234158
C11	C	0.792106	0.055550	0.116189
C12	C	0.704034	0.049374	0.114956
N13	N	0.927247	-0.140273	0.119839
C14	C	0.666448	0.125370	0.110399
C15	C	0.583693	0.119555	0.109255
C16	C	0.538526	0.037743	0.112661
C17	C	0.576117	-0.038258	0.117221
C18	C	0.658870	-0.032442	0.118371
C19	C	0.290623	0.011888	0.109652
C20	C	0.207865	0.006077	0.108499
C21	C	0.215446	0.163891	0.100534
C22	C	0.298201	0.169700	0.101680
C23	C	0.335785	0.093699	0.106244
N24	N	0.453937	0.031797	0.111488
N25	N	0.420371	0.099645	0.107423
C26	C	0.979026	-0.182041	0.065392
C27	C	0.974655	-0.273155	0.069992
C28	C	0.918508	-0.322499	0.129044
C29	C	0.866724	-0.280726	0.183494
C30	C	0.871092	-0.189614	0.178890
C31	C	0.899655	-0.595401	0.148898
C32	C	0.895293	-0.686519	0.153500
C33	C	1.003223	-0.678942	0.039996
C34	C	1.007590	-0.587828	0.035400
C35	C	0.955802	-0.546063	0.089847
N36	N	0.914041	-0.415632	0.133750
N37	N	0.960267	-0.452932	0.085137
C38	C	1.082207	0.075892	0.102709
C39	C	1.170279	0.082073	0.103942
C40	C	0.942987	0.066119	-0.042582
C41	C	0.941446	0.066010	-0.134870
N42	N	0.947072	0.271713	0.099052
C43	C	1.010159	0.070842	-0.357441
C44	C	1.008705	0.070747	-0.444156
C45	C	0.864148	0.060608	-0.423654
C46	C	0.865603	0.060709	-0.336942
C47	C	0.938611	0.065822	-0.303838
C48	C	0.935702	0.065626	-0.477264
C49	C	0.934125	0.065523	-0.571284
C50	C	0.940188	0.065926	-0.209812
C51	C	0.931325	0.065322	0.261480
C52	C	0.932867	0.065437	0.353768
H53	H	0.703217	0.191990	0.107623
H54	H	0.807337	0.056623	-0.293295
C55	C	0.331956	-0.071717	0.114663
N56	N	0.363090	-0.134692	0.118435
C57	C	1.060179	-0.724892	-0.019898
N58	N	1.103077	-0.759502	-0.065016
H59	H	0.821004	-0.320908	0.231574
C60	C	0.833522	-0.740797	0.218463
N61	N	0.786999	-0.781679	0.267390
H62	H	1.024750	-0.141869	0.017308
C63	C	0.526430	-0.128253	0.120969
N64	N	0.489008	-0.196038	0.123789
H65	H	0.553094	0.181439	0.105544
C66	C	0.347880	0.259699	0.097918
N67	N	0.385300	0.327488	0.095077
C68	C	1.031597	-0.319096	0.010075
N69	N	1.074482	-0.353698	-0.035065
H70	H	0.828927	-0.155608	0.223226
H71	H	0.184836	0.225767	0.096820
C72	C	1.087414	0.076261	-0.503116
N73	N	1.146701	0.080414	-0.547525
H74	H	0.689471	-0.094326	0.122086
H75	H	1.069607	0.075006	-0.330491
C76	C	0.783843	0.054967	-0.460076
N77	N	0.723356	0.050712	-0.487508
C78	C	1.069351	-0.533556	-0.029567
N79	N	1.115871	-0.492678	-0.078500
C80	C	0.158183	-0.083926	0.112244
N81	N	0.120763	-0.151713	0.115061
C82	C	0.842790	-0.549464	0.208899
N83	N	0.799993	-0.514859	0.254134
