data_functionalizedCrystal
_audit_creation_method	'MofGen! by Chris Wilmer'
_symmetry_space_group_name_H-M	'P1'
_symmetry_Int_Tables_number	1
_symmetry_cell_setting	triclinic
loop_
_symmetry_equiv_pos_as_xyz
  x,y,z
_cell_length_a	10.685980
_cell_length_b	12.594516
_cell_length_c	10.686551
_cell_angle_alpha	94.405296
_cell_angle_beta	98.408259
_cell_angle_gamma	94.378643
loop_
_atom_site_label
_atom_site_type_symbol
_atom_site_fract_x
_atom_site_fract_y
_atom_site_fract_z
Zn1	Zn	1.995804	-0.238567	0.866709
Zn2	Zn	2.495804	0.261433	1.366709
Zn3	Zn	1.979394	-0.431387	0.654450
Zn4	Zn	2.479394	0.068613	1.154450
Zn5	Zn	1.767233	-0.268191	0.638174
Zn6	Zn	2.267233	0.231809	1.138174
Zn7	Zn	1.783518	-0.431284	0.850360
Zn8	Zn	2.283518	0.068716	1.350360
O9	O	1.881487	-0.342357	0.752423
O10	O	2.381487	0.157643	1.252423
O11	O	2.171260	-0.251790	0.852206
O12	O	2.671260	0.248210	1.352206
O13	O	1.937568	-0.422180	0.474659
O14	O	2.437568	0.077820	0.974659
O15	O	1.797606	-0.115310	0.668521
O16	O	2.297606	0.384690	1.168521
O17	O	2.159204	-0.393455	0.696260
O18	O	2.659204	0.106545	1.196260
O19	O	1.965536	-0.093545	0.836424
O20	O	2.465536	0.406455	1.336424
O21	O	1.781694	-0.302280	0.462701
O22	O	2.281694	0.197720	0.962701
O23	O	1.591760	-0.302180	0.652668
O24	O	2.091760	0.197820	1.152668
O25	O	1.825361	-0.393278	1.030161
O26	O	2.325361	0.106722	1.530161
O27	O	1.603725	-0.422004	0.808560
O28	O	2.103725	0.077996	1.308560
O29	O	1.981327	-0.251690	1.042172
O30	O	2.481327	0.248310	1.542172
O31	O	1.953358	-0.580325	0.680407
O32	O	2.453358	-0.080325	1.180407
O33	O	1.809449	-0.580249	0.824342
O34	O	2.309449	-0.080249	1.324342
C35	C	1.551685	-0.365296	0.727074
C36	C	2.051685	0.134704	1.227074
C37	C	1.410596	-0.375133	0.716260
C38	C	1.910596	0.124867	1.216260
C39	C	1.881427	-0.618904	0.752397
C40	C	2.381427	-0.118904	1.252397
C41	C	1.881520	-0.737200	0.752437
C42	C	2.381520	-0.237200	1.252437
C43	C	1.959898	-0.806443	0.674249
C44	C	2.459898	-0.306443	1.174249
C45	C	1.999813	-0.866900	0.792487
C46	C	2.499813	-0.366900	1.292487
C47	C	1.841770	-0.887526	0.634285
C48	C	2.341770	-0.387526	1.134285
C49	C	1.921499	-0.796091	0.870740
C50	C	2.421499	-0.296091	1.370740
C51	C	1.763396	-0.816720	0.712455
C52	C	2.263396	-0.316720	1.212455
C53	C	1.803273	-0.877142	0.830770
C54	C	2.303273	-0.377142	1.330770
C55	C	2.212578	-0.319330	0.777872
C56	C	2.712578	0.180670	1.277872
C57	C	2.353669	-0.309517	0.788717
C58	C	2.853669	0.190483	1.288717
C59	C	1.906991	-0.319168	1.083512
C60	C	2.406991	0.180832	1.583512
C61	C	1.917859	-0.309286	1.224603
C62	C	2.417859	0.190714	1.724603
C63	C	1.881585	-0.064726	0.752480
C64	C	2.381585	0.435274	1.252480
C65	C	1.881626	0.053583	0.752505
C66	C	2.381626	0.553583	1.252505
C67	C	1.856156	-0.365374	0.422628
C68	C	2.356156	0.134626	0.922628
C69	C	1.845534	-0.374939	0.281557
C70	C	2.345534	0.125061	0.781557
H71	H	1.351389	-0.438839	0.645942
H72	H	1.851389	0.061161	1.145942
H73	H	1.412868	-0.245808	0.859022
H74	H	1.912868	0.254192	1.359022
H75	H	2.026196	-0.775386	0.608193
H76	H	2.526196	-0.275386	1.108193
H77	H	2.099754	-0.889282	0.826340
H78	H	2.599754	-0.389282	1.326340
H79	H	1.955072	-0.756403	0.970765
H80	H	2.455072	-0.256403	1.470765
H81	H	1.775302	-0.438709	1.222381
H82	H	2.275302	0.061291	1.722381
C83	C	1.713796	-0.918813	0.920244
C84	C	2.213796	-0.418813	1.420244
N85	N	1.646406	-0.950199	0.987639
N86	N	2.146406	-0.450199	1.487639
H87	H	1.663480	-0.794315	0.678570
H88	H	2.163480	-0.294315	1.178570
H89	H	1.988104	-0.245519	1.283786
H90	H	2.488104	0.254481	1.783786
H91	H	1.808106	-0.927346	0.534336
H92	H	2.308106	-0.427346	1.034336
