data_functionalizedCrystal
_audit_creation_method	'MofGen! by Chris Wilmer'
_symmetry_space_group_name_H-M	'P1'
_symmetry_Int_Tables_number	1
_symmetry_cell_setting	triclinic
loop_
_symmetry_equiv_pos_as_xyz
  x,y,z
_cell_length_a	16.992694
_cell_length_b	16.974813
_cell_length_c	16.776229
_cell_angle_alpha	86.338786
_cell_angle_beta	89.998654
_cell_angle_gamma	87.024634
loop_
_atom_site_label
_atom_site_type_symbol
_atom_site_fract_x
_atom_site_fract_y
_atom_site_fract_z
O1	O	1.040214	0.167652	-0.077001
O2	O	1.540214	0.667652	0.422999
O3	O	0.811931	0.165812	-0.076906
O4	O	1.311931	0.665812	0.423094
O5	O	0.932436	0.052030	-0.069550
O6	O	1.432436	0.552030	0.430450
O7	O	0.919709	0.281434	-0.084357
O8	O	1.419709	0.781434	0.415643
O9	O	0.932420	0.052022	0.063027
O10	O	1.432420	0.552022	0.563027
O11	O	0.811915	0.165804	0.055671
O12	O	1.311915	0.665804	0.555671
O13	O	1.040198	0.167643	0.055576
O14	O	1.540198	0.667643	0.555576
Zn15	Zn	0.926054	0.166722	0.076673
Zn16	Zn	1.426054	0.666722	0.576673
Zn17	Zn	0.926075	0.166733	-0.098003
Zn18	Zn	1.426075	0.666733	0.401997
O19	O	0.919693	0.281425	0.048220
O20	O	1.419693	0.781425	0.548220
C21	C	0.782713	0.163442	-0.010468
C22	C	1.282713	0.663442	0.489532
C23	C	0.695676	0.156382	-0.010022
C24	C	1.195676	0.656382	0.489978
C25	C	0.645362	0.224498	-0.014418
C26	C	1.145362	0.724498	0.485582
C27	C	0.563583	0.217860	-0.013978
C28	C	1.063583	0.717860	0.486022
C29	C	0.532119	0.143106	-0.009148
C30	C	1.032119	0.643106	0.490852
C31	C	0.582439	0.074985	-0.004750
C32	C	1.082439	0.574985	0.495250
C33	C	0.664217	0.081624	-0.005183
C34	C	1.164217	0.581624	0.494817
C35	C	0.288551	0.115591	-0.007351
C36	C	0.788551	0.615591	0.492649
C37	C	0.206766	0.108957	-0.006920
C38	C	0.706766	0.608957	0.493080
C39	C	0.187916	0.251834	-0.016147
C40	C	0.687916	0.751834	0.483853
C41	C	0.269696	0.258466	-0.016585
C42	C	0.769696	0.758466	0.483415
C43	C	0.320009	0.190345	-0.012182
C44	C	0.820009	0.690345	0.487818
N45	N	0.448527	0.136319	-0.008701
N46	N	0.948527	0.636319	0.491299
N47	N	0.403599	0.197132	-0.012623
N48	N	0.903599	0.697132	0.487377
C49	C	0.931944	0.022537	-0.001360
C50	C	1.431944	0.522537	0.498640
C51	C	0.930491	-0.065332	0.004306
C52	C	1.430491	0.434668	0.504306
C53	C	0.929819	-0.106603	-0.065300
C54	C	1.429819	0.393397	0.434700
C55	C	0.928450	-0.189165	-0.059973
C56	C	1.428450	0.310835	0.440027
C57	C	0.927757	-0.230454	0.014959
C58	C	1.427757	0.269546	0.514959
C59	C	0.928427	-0.189176	0.084570
C60	C	1.428427	0.310824	0.584570
C61	C	0.929791	-0.106616	0.079243
C62	C	1.429791	0.393384	0.579243
C63	C	0.923671	-0.477374	0.038640
C64	C	1.423671	0.022626	0.538640
C65	C	0.922309	-0.559941	0.043962
C66	C	1.422309	-0.059941	0.543962
C67	C	0.922331	-0.559924	-0.100582
C68	C	1.422331	-0.059924	0.399418
C69	C	0.923700	-0.477362	-0.105902
C70	C	1.423700	0.022638	0.394098
C71	C	0.924365	-0.436091	-0.036291
C72	C	1.424365	0.063909	0.463709
N73	N	0.926360	-0.314846	0.020405
N74	N	1.426360	0.185154	0.520405
N75	N	0.925757	-0.351701	-0.041738
N76	N	1.425757	0.148299	0.458262
C77	C	1.069416	0.170014	-0.010864
C78	C	1.569416	0.670014	0.489136
C79	C	1.156453	0.177073	-0.011316
C80	C	1.656453	0.677073	0.488684
C81	C	0.920185	0.310919	-0.019972
C82	C	1.420185	0.810919	0.480028
C83	C	0.921638	0.398787	-0.025643
C84	C	1.421638	0.898787	0.474357
N85	N	0.926045	0.166714	0.195884
N86	N	1.426045	0.666714	0.695884
N87	N	0.926090	0.166735	-0.217215
N88	N	1.426090	0.666735	0.282785
C89	C	0.979421	0.116355	0.240857
C90	C	1.479421	0.616355	0.740857
C91	C	0.979426	0.116355	0.324310
C92	C	1.479426	0.616355	0.824310
C93	C	0.926057	0.166718	0.362787
C94	C	1.426057	0.666718	0.862787
C95	C	0.872675	0.217080	0.317808
C96	C	1.372675	0.717080	0.817808
C97	C	0.872668	0.217076	0.234358
C98	C	1.372668	0.717076	0.734358
C99	C	0.872704	0.217097	0.654354
C100	C	1.372704	0.717097	1.154354
C101	C	0.872717	0.217099	0.737811
C102	C	1.372717	0.717099	1.237811
C103	C	0.979461	0.116376	0.744306
C104	C	1.479461	0.616376	1.244306
C105	C	0.979454	0.116372	0.660856
C106	C	1.479454	0.616372	1.160856
C107	C	0.926070	0.166730	0.615884
C108	C	1.426070	0.666730	1.115884
C109	C	0.926065	0.166729	0.525396
C110	C	1.426065	0.666729	1.025396
C111	C	0.926065	0.166724	0.453274
C112	C	1.426065	0.666724	0.953274
H113	H	0.295308	0.319339	-0.020527
H114	H	0.795308	0.819339	0.479473
Cl115	Cl	0.805579	0.280392	0.366178
Cl116	Cl	1.305579	0.780392	0.866178
H117	H	0.924229	-0.443783	0.095322
H118	H	1.424229	0.056217	0.595322
Cl119	Cl	0.805561	0.280385	0.177821
Cl120	Cl	1.305561	0.780385	0.677821
Cl121	Cl	1.046521	0.053040	0.192494
Cl122	Cl	1.546521	0.553040	0.692494
Cl123	Cl	0.930695	-0.054706	-0.159505
Cl124	Cl	1.430695	0.445294	0.340495
H125	H	0.927906	-0.222765	-0.116653
H126	H	1.427906	0.277235	0.383347
Cl127	Cl	0.921493	-0.611812	-0.188086
Cl128	Cl	1.421493	-0.111812	0.311914
H129	H	0.670974	0.285371	-0.018351
H130	H	1.170974	0.785371	0.481649
H131	H	0.829255	0.258113	0.769137
H132	H	1.329255	0.758113	1.269137
Cl133	Cl	0.500334	0.303496	-0.019510
Cl134	Cl	1.000334	0.803496	0.480490
Cl135	Cl	0.351790	0.029952	-0.001817
Cl136	Cl	0.851790	0.529952	0.498183
H137	H	0.556814	0.014118	-0.000806
H138	H	1.056814	0.514118	0.499194
H139	H	0.829238	0.258102	0.617745
H140	H	1.329238	0.758102	1.117745
H141	H	1.022914	0.075364	0.629530
H142	H	1.522914	0.575364	1.129530
Cl143	Cl	1.046571	0.053064	0.800846
Cl144	Cl	1.546571	0.553064	1.300846
Cl145	Cl	0.124662	0.337465	-0.021679
Cl146	Cl	0.624662	0.837465	0.478321
H147	H	0.181152	0.048080	-0.002987
H148	H	0.681152	0.548080	0.497013
H149	H	0.924264	-0.443750	-0.166920
H150	H	1.424264	0.056250	0.333080
Cl151	Cl	0.921444	-0.611846	0.138170
Cl152	Cl	1.421444	-0.111846	0.638170
Cl153	Cl	0.927547	-0.241082	0.178771
Cl154	Cl	1.427547	0.258918	0.678771
H155	H	0.705182	0.026156	-0.001604
H156	H	1.205182	0.526156	0.498396
H157	H	0.930327	-0.073013	0.135923
H158	H	1.430327	0.426987	0.635923
H159	H	1.022888	0.075348	0.360926
H160	H	1.522888	0.575348	0.860926
