data_functionalizedCrystal
_audit_creation_method	'MofGen! by Chris Wilmer'
_symmetry_space_group_name_H-M	'P1'
_symmetry_Int_Tables_number	1
_symmetry_cell_setting	triclinic
loop_
_symmetry_equiv_pos_as_xyz
  x,y,z
_cell_length_a	19.805407
_cell_length_b	19.077068
_cell_length_c	19.805399
_cell_angle_alpha	87.730571
_cell_angle_beta	90.019573
_cell_angle_gamma	92.327086
loop_
_atom_site_label
_atom_site_type_symbol
_atom_site_fract_x
_atom_site_fract_y
_atom_site_fract_z
Zn1	Zn	1.023904	-0.280218	0.393534
Zn2	Zn	1.357237	0.053115	0.726867
Zn3	Zn	1.690571	0.386449	1.060201
Zn4	Zn	1.019269	-0.397917	0.284888
Zn5	Zn	1.352603	-0.064584	0.618221
Zn6	Zn	1.685936	0.268750	0.951555
Zn7	Zn	0.910718	-0.280237	0.280359
Zn8	Zn	1.244051	0.053096	0.613693
Zn9	Zn	1.577385	0.386429	0.947026
Zn10	Zn	0.906134	-0.397880	0.398033
Zn11	Zn	1.239467	-0.064546	0.731367
Zn12	Zn	1.572801	0.268787	1.064700
O13	O	0.965006	-0.339063	0.339204
O14	O	1.298340	-0.005730	0.672537
O15	O	1.631673	0.327604	1.005870
O16	O	1.118005	-0.295839	0.379134
O17	O	1.451339	0.037495	0.712467
O18	O	1.784672	0.370828	1.045801
O19	O	1.004848	-0.382330	0.189571
O20	O	1.338182	-0.048997	0.522905
O21	O	1.671515	0.284336	0.856238
O22	O	0.929590	-0.181744	0.291594
O23	O	1.262924	0.151590	0.624927
O24	O	1.596257	0.484923	0.958260
O25	O	1.114600	-0.382312	0.299312
O26	O	1.447934	-0.048978	0.632646
O27	O	1.781267	0.284355	0.965979
O28	O	1.012748	-0.181729	0.374743
O29	O	1.346081	0.151604	0.708076
O30	O	1.679414	0.484937	1.041409
O31	O	0.925096	-0.295872	0.186244
O32	O	1.258429	0.037462	0.519578
O33	O	1.591763	0.370795	0.852911
O34	O	0.815394	-0.295835	0.295957
O35	O	1.148727	0.037498	0.629290
O36	O	1.482060	0.370831	0.962623
O37	O	0.921778	-0.382248	0.492152
O38	O	1.255111	-0.048915	0.825485
O39	O	1.588444	0.284419	1.158819
O40	O	0.812026	-0.382267	0.382411
O41	O	1.145359	-0.048933	0.715745
O42	O	1.478692	0.284400	1.049078
O43	O	1.008303	-0.295802	0.488846
O44	O	1.341636	0.037531	0.822180
O45	O	1.674970	0.370864	1.155513
O46	O	1.000404	-0.496403	0.303675
O47	O	1.333737	-0.163070	0.637008
O48	O	1.667070	0.170263	0.970342
O49	O	0.917284	-0.496376	0.386802
O50	O	1.250617	-0.163043	0.720136
O51	O	1.583950	0.170291	1.053469
C52	C	0.789151	-0.339050	0.339181
C53	C	1.122484	-0.005716	0.672514
C54	C	1.455817	0.327617	1.005848
C55	C	0.713918	-0.339061	0.339188
C56	C	1.047252	-0.005727	0.672522
C57	C	1.380585	0.327606	1.005855
C58	C	0.676836	-0.384133	0.384138
C59	C	1.010169	-0.050800	0.717471
C60	C	1.343502	0.282533	1.050804
C61	C	0.606147	-0.384135	0.384147
C62	C	0.939481	-0.050801	0.717481
C63	C	1.272814	0.282532	1.050814
C64	C	0.572543	-0.339066	0.339204
C65	C	0.905876	-0.005733	0.672537
C66	C	1.239209	0.327600	1.005870
C67	C	0.609630	-0.293989	0.294252
C68	C	0.942964	0.039345	0.627585
C69	C	1.276297	0.372678	0.960919
C70	C	0.680318	-0.293985	0.294246
C71	C	1.013651	0.039349	0.627580
C72	C	1.346984	0.372682	0.960913
C73	C	0.324556	-0.294004	0.294275
C74	C	0.657890	0.039329	0.627608
C75	C	0.991223	0.372662	0.960942
C76	C	0.253864	-0.294014	0.294283
C77	C	0.587197	0.039320	0.627616
C78	C	0.920531	0.372653	0.960950
C79	C	0.250386	-0.384154	0.384176
C80	C	0.583719	-0.050821	0.717509
C81	C	0.917053	0.282512	1.050843
C82	C	0.321073	-0.384150	0.384170
C83	C	0.654407	-0.050817	0.717504
C84	C	0.987740	0.282517	1.050837
C85	C	0.358155	-0.339070	0.339221
C86	C	0.691488	-0.005737	0.672555
C87	C	1.024822	0.327596	1.005888
C88	C	0.434804	-0.339069	0.339212
C89	C	0.768137	-0.005735	0.672546
C90	C	1.101470	0.327598	1.005879
C91	C	0.495895	-0.339071	0.339209
C92	C	0.829229	-0.005738	0.672542
C93	C	1.162562	0.327596	1.005875
C94	C	0.957862	-0.521927	0.346233
C95	C	1.291195	-0.188594	0.679567
C96	C	1.624528	0.144739	1.012900
C97	C	0.954867	-0.600157	0.349263
C98	C	1.288200	-0.266824	0.682596
C99	C	1.621534	0.066509	1.015930
C100	C	0.996770	-0.636901	0.307443
C101	C	1.330103	-0.303568	0.640776
C102	C	1.663437	0.029766	0.974109
C103	C	0.993957	-0.710406	0.310296
C104	C	1.327291	-0.377073	0.643630
C105	C	1.660624	-0.043740	0.976963
C106	C	0.949238	-0.747167	0.354968
C107	C	1.282571	-0.413834	0.688301
C108	C	1.615905	-0.080500	1.021634
C109	C	0.907333	-0.710418	0.396793
C110	C	1.240667	-0.377085	0.730126
C111	C	1.574000	-0.043752	1.063460
C112	C	0.910150	-0.636914	0.393942
C113	C	1.243483	-0.303581	0.727275
C114	C	1.576817	0.029753	1.060609
C115	C	0.936174	-0.967002	0.368135
C116	C	1.269507	-0.633668	0.701468
C117	C	1.602840	-0.300335	1.034801
C118	C	0.933359	-1.040511	0.370981
C119	C	1.266692	-0.707178	0.704314
C120	C	1.600025	-0.373844	1.037647
C121	C	1.019984	-1.040494	0.284485
C122	C	1.353317	-0.707161	0.617818
C123	C	1.686651	-0.373828	0.951151
C124	C	1.022794	-0.966989	0.281635
C125	C	1.356127	-0.633655	0.614968
C126	C	1.689460	-0.300322	0.948302
C127	C	0.980892	-0.930246	0.323463
C128	C	1.314225	-0.596913	0.656796
C129	C	1.647558	-0.263580	0.990129
N130	N	0.946361	-0.822301	0.357884
N131	N	1.279694	-0.488968	0.691218
N132	N	1.613027	-0.155635	1.024551
N133	N	0.983773	-0.855113	0.320549
N134	N	1.317106	-0.521780	0.653882
N135	N	1.650440	-0.188447	0.987216
C136	C	1.141548	-0.339077	0.339226
C137	C	1.474882	-0.005744	0.672560
C138	C	1.808215	0.327590	1.005893
C139	C	1.216780	-0.339083	0.339236
C140	C	1.550114	-0.005750	0.672570
C141	C	1.883447	0.327584	1.005903
C142	C	0.965046	-0.339019	0.515745
C143	C	1.298379	-0.005685	0.849078
C144	C	1.631713	0.327648	1.182411
C145	C	0.965063	-0.339000	0.590976
C146	C	1.298396	-0.005667	0.924309
C147	C	1.631730	0.327667	1.257643
C148	C	0.972197	-0.155485	0.332161
C149	C	1.305531	0.177849	0.665495
C150	C	1.638864	0.511182	0.998828
C151	C	0.975262	-0.077255	0.329160
C152	C	1.308595	0.256079	0.662494
C153	C	1.641928	0.589412	0.995827
C154	C	0.965008	-0.339056	0.163347
C155	C	1.298341	-0.005723	0.496681
C156	C	1.631674	0.327610	0.830014
C157	C	0.965130	-0.338877	0.088109
C158	C	1.298463	-0.005544	0.421442
C159	C	1.631796	0.327790	0.754775
C160	C	1.010118	-0.293985	0.624600
C161	C	1.343451	0.039348	0.957933
C162	C	1.676784	0.372681	1.291267
C163	C	1.010125	-0.293965	0.695288
C164	C	1.343459	0.039368	1.028621
C165	C	1.676792	0.372702	1.361954
C166	C	0.965081	-0.338963	0.732350
C167	C	1.298414	-0.005630	1.065683
C168	C	1.631748	0.327704	1.399017
C169	C	0.920022	-0.383980	0.698721
C170	C	1.253355	-0.050646	1.032055
C171	C	1.586688	0.282687	1.365388
C172	C	0.920011	-0.383996	0.628035
C173	C	1.253344	-0.050663	0.961368
C174	C	1.586678	0.282671	1.294701
C175	C	0.920062	-0.383914	0.983792
C176	C	1.253396	-0.050581	1.317126
C177	C	1.586729	0.282753	1.650459
C178	C	0.920078	-0.383896	1.054484
C179	C	1.253411	-0.050562	1.387817
C180	C	1.586744	0.282771	1.721150
C181	C	1.010177	-0.293883	1.051045
C182	C	1.343510	0.039450	1.384378
C183	C	1.676843	0.372784	1.717712
C184	C	1.010166	-0.293899	0.980358
C185	C	1.343499	0.039434	1.313692
C186	C	1.676833	0.372767	1.647025
C187	C	0.965104	-0.338913	0.946736
C188	C	1.298438	-0.005580	1.280069
C189	C	1.631771	0.327754	1.613402
C190	C	0.965096	-0.338934	0.870088
C191	C	1.298429	-0.005600	1.203421
C192	C	1.631762	0.327733	1.536755
C193	C	0.965093	-0.338947	0.808997
C194	C	1.298426	-0.005613	1.142330
C195	C	1.631759	0.327720	1.475663
H196	H	0.704191	-0.420836	0.420734
H197	H	1.037525	-0.087502	0.754067
H198	H	1.370858	0.245831	1.087401
H199	H	0.226505	-0.257309	0.257684
H200	H	0.559839	0.076024	0.591018
H201	H	0.893172	0.409357	0.924351
F202	F	1.058110	-0.246009	0.940917
F203	F	1.391444	0.087324	1.274251
F204	F	1.724777	0.420658	1.607584
H205	H	1.033182	-0.606975	0.271063
H206	H	1.366515	-0.273642	0.604397
H207	H	1.699849	0.059691	0.937730
F208	F	0.566684	-0.432107	0.431989
F209	F	0.900017	-0.098773	0.765322
F210	F	1.233351	0.234560	1.098656
F211	F	0.859743	-0.749543	0.444340
F212	F	1.193077	-0.416210	0.777673
F213	F	1.526410	-0.082877	1.111006
F214	F	0.356834	-0.432120	0.432003
F215	F	0.690167	-0.098787	0.765336
F216	F	1.023501	0.234546	1.098669
F217	F	0.719784	-0.246011	0.246406
F218	F	1.053117	0.087323	0.579740
F219	F	1.386450	0.420656	0.913073
F220	F	0.885753	-1.079633	0.418521
F221	F	1.219087	-0.746300	0.751855
F222	F	1.552420	-0.412966	1.085188
F223	F	1.058064	-0.246095	0.585161
F224	F	1.391397	0.087238	0.918495
F225	F	1.724731	0.420572	1.251828
H226	H	0.883380	-0.420577	0.956426
H227	H	1.216713	-0.087244	1.289759
H228	H	1.550047	0.246090	1.623092
F229	F	0.364013	-0.246025	0.246438
F230	F	0.697346	0.087309	0.579771
F231	F	1.030679	0.420642	0.913105
H232	H	0.883343	-0.420615	0.728903
H233	H	1.216677	-0.087282	1.062237
H234	H	1.550010	0.246051	1.395570
H235	H	0.876029	-0.606998	0.427998
H236	H	1.209362	-0.273665	0.761331
H237	H	1.542696	0.059669	1.094664
F238	F	1.070397	-0.927871	0.234097
F239	F	1.403731	-0.594537	0.567430
F240	F	1.737064	-0.261204	0.900764
F241	F	1.058134	-0.245973	1.086834
F242	F	1.391467	0.087360	1.420167
F243	F	1.724800	0.420694	1.753501
F244	F	0.210915	-0.432132	0.432016
F245	F	0.544249	-0.098799	0.765349
F246	F	0.877582	0.234534	1.098682
H247	H	0.582264	-0.257290	0.257661
H248	H	0.915597	0.076043	0.590994
H249	H	1.248931	0.409376	0.924328
H250	H	1.028079	-0.740320	0.276241
H251	H	1.361412	-0.406987	0.609574
H252	H	1.694745	-0.073653	0.942908
H253	H	1.054099	-1.070418	0.250432
H254	H	1.387432	-0.737084	0.583765
H255	H	1.720766	-0.403751	0.917099
F256	F	0.891577	-0.927907	0.412651
F257	F	1.224910	-0.594574	0.745984
F258	F	1.558243	-0.261241	1.079318
H259	H	1.046815	-0.257311	0.722661
H260	H	1.380148	0.076022	1.055994
H261	H	1.713482	0.409355	1.389328
F262	F	0.872133	-0.431791	1.093927
F263	F	1.205466	-0.098457	1.427261
F264	F	1.538799	0.234876	1.760594
F265	F	0.872056	-0.431905	0.592250
F266	F	1.205389	-0.098571	0.925583
F267	F	1.538723	0.234762	1.258917
