data_functionalizedCrystal
_audit_creation_method	'MofGen! by Chris Wilmer'
_symmetry_space_group_name_H-M	'P1'
_symmetry_Int_Tables_number	1
_symmetry_cell_setting	triclinic
loop_
_symmetry_equiv_pos_as_xyz
  x,y,z
_cell_length_a	8.497367
_cell_length_b	8.497374
_cell_length_c	18.101398
_cell_angle_alpha	90.008882
_cell_angle_beta	90.038203
_cell_angle_gamma	90.038609
loop_
_atom_site_label
_atom_site_type_symbol
_atom_site_fract_x
_atom_site_fract_y
_atom_site_fract_z
Zn1	Zn	0.628529	0.892774	1.132341
Zn2	Zn	0.892276	0.629193	1.132409
Zn3	Zn	0.628481	0.628968	1.008533
Zn4	Zn	0.892240	0.892892	1.008590
O5	O	0.760382	0.760957	1.070468
O6	O	0.663551	0.857854	1.235983
O7	O	0.857277	0.408401	1.115982
O8	O	0.407725	0.663819	1.024904
O9	O	0.857324	0.664202	1.236033
O10	O	0.407760	0.857636	1.115865
O11	O	0.663469	0.408236	1.024970
O12	O	0.663434	0.663933	0.904908
O13	O	0.857264	1.113638	1.025001
O14	O	0.857217	0.857837	0.904949
O15	O	0.663517	1.113552	1.115920
O16	O	1.113033	0.664317	1.116037
O17	O	1.113007	0.858055	1.025067
C18	C	0.760317	0.760874	0.878058
C19	C	0.760328	0.760876	0.795744
C20	C	1.348901	0.760811	1.070417
C21	C	1.170257	0.761099	1.070510
C22	C	0.760384	1.172437	1.070463
C23	C	0.760401	1.351081	1.070464
C24	C	0.760427	0.761009	0.496653
C25	C	0.637895	0.639604	0.527926
C26	C	0.638223	0.639087	0.613545
C27	C	0.760376	0.760943	0.645035
C28	C	0.926546	0.715662	0.614011
C29	C	0.925865	0.714818	0.528365
C30	C	0.718233	0.927981	0.528224
C31	C	0.714532	0.927067	0.613873
C32	C	0.760358	0.760909	0.728895
C33	C	0.760456	0.761040	0.412793
C34	C	0.760447	0.761040	1.263630
C35	C	0.760475	0.761076	1.345944
H36	H	0.515000	0.667453	0.634517
H37	H	0.666112	0.515359	0.634029
O38	O	0.970175	0.571767	0.639709
C39	C	1.111098	0.585956	0.680337
H40	H	1.124192	0.712052	0.700966
H41	H	1.107859	0.502219	0.729513
H42	H	1.215194	0.555069	0.643387
H43	H	0.514295	0.667657	0.507287
H44	H	0.599174	0.969178	0.506584
H45	H	0.797278	1.022357	0.635310
O46	O	0.968769	0.569201	0.504616
C47	C	1.120863	0.533849	0.530975
H48	H	1.146741	0.607810	0.582113
H49	H	1.127623	0.403668	0.545848
H50	H	1.211209	0.561479	0.486280
O51	O	1.038367	0.815910	0.503768
C52	C	1.005750	0.968771	0.529882
H53	H	0.929173	0.960930	0.581438
H54	H	1.120791	1.031022	0.543998
H55	H	0.940916	1.037969	0.485327
O56	O	0.671127	0.492920	0.502272
C57	C	0.804579	0.499546	0.456129
H58	H	0.877281	0.608164	0.470440
H59	H	0.878970	0.389437	0.464670
H60	H	0.765402	0.506393	0.395968
O61	O	1.038203	0.817947	0.638445
C62	C	0.967523	0.932334	0.684042
H63	H	0.852755	0.883872	0.707407
H64	H	1.050643	0.963033	0.731366
H65	H	0.942017	1.042591	0.650227
O66	O	0.568663	0.967603	0.638151
C67	C	0.508217	0.846302	0.683085
H68	H	0.609586	0.773781	0.706363
H69	H	0.438040	0.899827	0.730487
H70	H	0.428149	0.767214	0.648742
O71	O	0.824593	1.036094	0.504191
C72	C	0.785600	1.185375	0.532816
H73	H	0.711651	1.170393	0.584868
H74	H	0.898012	1.252316	0.546871
H75	H	0.715611	1.254126	0.489856
