data_functionalizedCrystal
_audit_creation_method	'MofGen! by Chris Wilmer'
_symmetry_space_group_name_H-M	'P1'
_symmetry_Int_Tables_number	1
_symmetry_cell_setting	triclinic
loop_
_symmetry_equiv_pos_as_xyz
  x,y,z
_cell_length_a	17.699097
_cell_length_b	14.044190
_cell_length_c	16.176319
_cell_angle_alpha	89.988653
_cell_angle_beta	89.988988
_cell_angle_gamma	88.240103
loop_
_atom_site_label
_atom_site_type_symbol
_atom_site_fract_x
_atom_site_fract_y
_atom_site_fract_z
O1	O	1.012347	0.119911	-0.068825
O2	O	0.793045	0.135491	-0.068813
O3	O	0.899401	-0.010277	-0.068803
O4	O	0.905990	0.265678	-0.068835
O5	O	0.899384	-0.010286	0.068691
O6	O	0.793028	0.135481	0.068680
O7	O	1.012330	0.119902	0.068668
Cu8	Cu	0.902677	0.127691	0.081228
Cu9	Cu	0.902697	0.127702	-0.081373
O10	O	0.905973	0.265669	0.068658
C11	C	0.764801	0.134926	-0.000065
C12	C	0.680667	0.133244	-0.000059
C13	C	0.896510	-0.045589	-0.000053
C14	C	0.887912	-0.150796	-0.000046
C15	C	0.164247	0.122945	-0.075039
C16	C	0.243300	0.124518	-0.075035
C17	C	0.282811	0.125301	-0.000084
C18	C	0.243266	0.124501	0.074868
C19	C	0.164215	0.122921	0.074863
C20	C	0.562069	0.130871	0.074889
C21	C	0.641126	0.132454	0.074888
C22	C	0.641154	0.132468	-0.075009
C23	C	0.562103	0.130888	-0.075014
C24	C	0.522565	0.130083	-0.000063
C25	C	0.436847	0.128376	-0.000068
C26	C	0.368527	0.127015	-0.000078
C27	C	0.933172	-0.401184	-0.000081
C28	C	0.872205	-0.343418	-0.000072
C29	C	0.880947	-0.236234	-0.000057
C30	C	0.924432	-0.508379	-0.000095
C31	C	1.040574	0.120467	-0.000082
C32	C	1.124707	0.122148	-0.000093
C33	C	0.908864	0.300981	-0.000093
C34	C	0.917462	0.406188	-0.000106
N35	N	0.902669	0.127682	0.195594
N36	N	0.902711	0.127702	-0.195738
C37	C	0.949781	0.063163	0.238862
C38	C	0.949785	0.063162	0.325409
C39	C	0.902680	0.127686	0.368686
C40	C	0.855563	0.192208	0.325411
C41	C	0.855556	0.192204	0.238866
C42	C	0.855590	0.192226	0.674440
C43	C	0.855602	0.192227	0.760991
C44	C	0.949819	0.063184	0.760983
C45	C	0.949812	0.063180	0.674438
C46	C	0.902692	0.127698	0.631170
C47	C	0.902688	0.127697	0.537326
C48	C	0.902688	0.127692	0.462529
H49	H	0.275490	0.125161	-0.136064
H50	H	0.529888	0.130202	0.135919
C51	C	0.364431	0.126928	0.141436
C52	C	0.286695	0.125365	0.157256
H53	H	0.391239	0.127470	0.192301
H54	H	0.379431	0.071947	0.110655
H55	H	0.375342	0.182438	0.110633
H56	H	0.275783	0.069852	0.188054
H57	H	0.271689	0.180352	0.188050
H58	H	0.673294	0.133092	0.135925
C59	C	0.784147	-0.441453	-0.070752
C60	C	0.792878	-0.385318	-0.000068
H61	H	0.735177	-0.467326	-0.070744
H62	H	0.790082	-0.403332	-0.118686
H63	H	0.821254	-0.491780	-0.070754
H64	H	0.755775	-0.334986	-0.000070
H65	H	0.786935	-0.423441	0.047878
C66	C	1.005907	-0.259672	-0.000047
C67	C	1.012494	-0.359283	-0.000066
H68	H	1.054877	-0.233798	-0.000029
H69	H	0.979211	-0.238809	-0.047991
H70	H	0.979177	-0.238855	0.047903
H71	H	1.039220	-0.380101	-0.048019
H72	H	1.039202	-0.380156	0.047884
C73	C	0.172121	0.123075	0.223035
C74	C	0.120750	0.122049	0.157246
H75	H	0.145287	0.122539	0.273895
H76	H	0.204994	0.068450	0.219925
H77	H	0.200915	0.178941	0.219908
H78	H	0.091960	0.066179	0.160370
H79	H	0.087864	0.176679	0.160358
C80	C	1.042908	-0.064401	0.247557
C81	C	1.001559	-0.007767	0.191297
H82	H	1.074869	-0.108196	0.218191
H83	H	1.072793	-0.024990	0.281292
H84	H	1.009101	-0.098438	0.281332
H85	H	1.035367	0.026276	0.157525
H86	H	0.971672	-0.047183	0.157547
C87	C	0.957526	-0.065855	0.422747
C88	C	1.001577	-0.007760	0.372964
H89	H	0.989504	-0.109645	0.452099
H90	H	0.929481	-0.027434	0.460908
H91	H	0.923726	-0.099897	0.388993
H92	H	1.035373	0.026289	0.406720
H93	H	1.029635	-0.046185	0.334799
C94	C	1.042939	-0.064387	0.683125
C95	C	1.001588	-0.007750	0.626869
H96	H	1.074898	-0.108181	0.653757
H97	H	1.072826	-0.024977	0.716860
H98	H	1.009132	-0.098424	0.716902
H99	H	1.035394	0.026293	0.593096
H100	H	0.971698	-0.047164	0.593120
C101	C	0.762347	0.134883	-0.141574
C102	C	0.684617	0.133339	-0.157400
H103	H	0.789177	0.135417	-0.192438
H104	H	0.773254	0.190380	-0.110789
H105	H	0.777328	0.079889	-0.110773
H106	H	0.669636	0.188337	-0.188196
H107	H	0.673706	0.077837	-0.188198
C108	C	0.728314	0.248047	0.352095
C109	C	0.803781	0.263128	0.372983
H110	H	0.696347	0.291828	0.381468
H111	H	0.721571	0.257284	0.294367
H112	H	0.715842	0.184802	0.366299
H113	H	0.816254	0.326371	0.358773
H114	H	0.810528	0.253899	0.430724
H115	H	0.988184	0.010646	0.796221
C116	C	0.822192	0.356342	0.212188
C117	C	0.803773	0.263129	0.191299
H118	H	0.790223	0.400126	0.182818
H119	H	0.815451	0.365575	0.269917
H120	H	0.873391	0.366546	0.197982
H121	H	0.752575	0.252922	0.205511
H122	H	0.810507	0.253892	0.133557
H123	H	0.132082	0.122314	-0.136073
C124	C	0.762466	0.319789	0.683153
C125	C	0.803803	0.263151	0.626888
H126	H	0.730498	0.363581	0.653792
H127	H	0.732589	0.280380	0.716925
H128	H	0.796281	0.353829	0.716891
H129	H	0.769988	0.229106	0.593153
H130	H	0.833683	0.302565	0.593101
H131	H	0.529937	0.130255	-0.136047
H132	H	0.817241	0.244772	0.796226
