data_functionalizedCrystal
_audit_creation_method	'MofGen! by Chris Wilmer'
_symmetry_space_group_name_H-M	'P1'
_symmetry_Int_Tables_number	1
_symmetry_cell_setting	triclinic
loop_
_symmetry_equiv_pos_as_xyz
  x,y,z
_cell_length_a	17.639115
_cell_length_b	14.908932
_cell_length_c	14.908694
_cell_angle_alpha	90.169261
_cell_angle_beta	81.399029
_cell_angle_gamma	97.296074
loop_
_atom_site_label
_atom_site_type_symbol
_atom_site_fract_x
_atom_site_fract_y
_atom_site_fract_z
Zn1	Zn	-1.185927	-0.644087	-0.198851
Zn2	Zn	-0.685927	-0.144087	0.301149
Zn3	Zn	-1.171021	-0.782561	-0.043468
Zn4	Zn	-0.671021	-0.282561	0.456532
Zn5	Zn	-1.049757	-0.605962	-0.081683
Zn6	Zn	-0.549757	-0.105962	0.418317
Zn7	Zn	-1.048913	-0.764735	-0.223534
Zn8	Zn	-0.548913	-0.264735	0.276466
O9	O	-1.113905	-0.699336	-0.136884
O10	O	-0.613905	-0.199336	0.363116
O11	O	-1.292039	-0.685872	-0.151916
O12	O	-0.792039	-0.185872	0.348084
O13	O	-1.149050	-0.750639	0.075856
O14	O	-0.649050	-0.250639	0.575856
O15	O	-1.074411	-0.486621	-0.102888
O16	O	-0.574411	0.013379	0.397112
O17	O	-1.281088	-0.787608	-0.037757
O18	O	-0.781088	-0.287608	0.462243
O19	O	-1.174455	-0.514631	-0.188971
O20	O	-0.674455	-0.014631	0.311029
O21	O	-1.059958	-0.620893	0.047780
O22	O	-0.559958	-0.120893	0.547780
O23	O	-0.941555	-0.603608	-0.126823
O24	O	-0.441555	-0.103608	0.373177
O25	O	-1.072973	-0.757225	-0.344653
O26	O	-0.572973	-0.257225	0.155347
O27	O	-0.940935	-0.720257	-0.231040
O28	O	-0.440935	-0.220257	0.268960
O29	O	-1.173636	-0.668586	-0.326518
O30	O	-0.673636	-0.168586	0.173482
O31	O	-1.148232	-0.904595	-0.061692
O32	O	-0.648232	-0.404595	0.438308
O33	O	-1.058520	-0.891498	-0.193986
O34	O	-0.558520	-0.391498	0.306014
C35	C	-0.913219	-0.655862	-0.185757
C36	C	-0.413219	-0.155862	0.314243
C37	C	-0.827364	-0.637286	-0.206686
C38	C	-0.327364	-0.137286	0.293314
C39	C	-1.101689	-0.930307	-0.126385
C40	C	-0.601689	-0.430307	0.373615
C41	C	-1.096535	-1.029135	-0.121906
C42	C	-0.596535	-0.529135	0.378094
C43	C	-1.124873	-0.715170	-0.368742
C44	C	-0.624873	-0.215170	0.131258
C45	C	-1.129548	-0.721918	-0.467545
C46	C	-0.629548	-0.221918	0.032455
C47	C	-0.712056	-0.558234	-0.295697
C48	C	-0.212056	-0.058234	0.204303
C49	C	-0.792728	-0.575695	-0.276025
C50	C	-0.292728	-0.075695	0.223975
C51	C	-0.781335	-0.681437	-0.156987
C52	C	-0.281335	-0.181437	0.343013
C53	C	-0.700659	-0.663981	-0.176646
C54	C	-0.200659	-0.163981	0.323354
C55	C	-0.666026	-0.602380	-0.246003
C56	C	-0.166026	-0.102380	0.253997
C57	C	-0.654630	-0.708127	-0.126952
C58	C	-0.154630	-0.208127	0.373048
C59	C	-0.573962	-0.690676	-0.146613
C60	C	-0.073962	-0.190676	0.353387
C61	C	-0.539323	-0.629080	-0.215968
C62	C	-0.039323	-0.129080	0.284032
C63	C	-0.585358	-0.584929	-0.265664
C64	C	-0.085358	-0.084929	0.234336
C65	C	-0.689265	-0.769733	-0.057600
C66	C	-0.189265	-0.269733	0.442400
C67	C	-0.643236	-0.813878	-0.007905
C68	C	-0.143236	-0.313878	0.492095
C69	C	-0.562566	-0.796423	-0.027561
C70	C	-0.062566	-0.296423	0.472439
C71	C	-0.527927	-0.734827	-0.096917
C72	C	-0.027927	-0.234827	0.403083
C73	C	-0.516531	-0.840574	0.022134
C74	C	-0.016531	-0.340574	0.522134
C75	C	-0.435863	-0.823123	0.002473
C76	C	0.064137	-0.323123	0.502473
C77	C	-0.447259	-0.717376	-0.116578
C78	C	0.052741	-0.217376	0.383422
C79	C	-0.315374	-0.742966	-0.087813
C80	C	0.184626	-0.242966	0.412187
C81	C	-0.401230	-0.761522	-0.066883
C82	C	0.098770	-0.261522	0.433117
C83	C	-1.126190	-0.467469	-0.147439
C84	C	-0.626190	0.032531	0.352561
C85	C	-1.131425	-0.368661	-0.151936
C86	C	-0.631425	0.131339	0.348064
C87	C	-1.037070	-0.153818	-0.070757
C88	C	-0.537070	0.346182	0.429243
C89	C	-1.041986	-0.060978	-0.074980
C90	C	-0.541986	0.439022	0.425020
C91	C	-1.146170	-0.090139	-0.164613
C92	C	-0.646170	0.409861	0.335387
C93	C	-1.141253	-0.182979	-0.160389
C94	C	-0.641253	0.317021	0.339611
C95	C	-1.086703	-0.214814	-0.113458
C96	C	-0.586703	0.285186	0.386542
C97	C	-1.081791	-0.307656	-0.109229
C98	C	-0.581791	0.192344	0.390771
C99	C	-1.185970	-0.336816	-0.198866
C100	C	-0.685970	0.163184	0.301134
C101	C	-1.190886	-0.243976	-0.203090
C102	C	-0.690886	0.256024	0.296910
C103	C	-1.045541	-0.599491	-0.682450
C104	C	-0.545541	-0.099491	-0.182450
C105	C	-1.049931	-0.605827	-0.775285
C106	C	-0.549931	-0.105827	-0.275285
C107	C	-1.142711	-0.740930	-0.746056
C108	C	-0.642711	-0.240930	-0.246056
C109	C	-1.138322	-0.734593	-0.653220
C110	C	-0.638322	-0.234593	-0.153220
C111	C	-1.089736	-0.663871	-0.621420
C112	C	-0.589736	-0.163871	-0.121420
C113	C	-1.085351	-0.657531	-0.528582
C114	C	-0.585351	-0.157531	-0.028582
C115	C	-1.178127	-0.792637	-0.499355
C116	C	-0.678127	-0.292637	0.000645
C117	C	-1.182517	-0.798974	-0.592190
C118	C	-0.682517	-0.298974	-0.092190
C119	C	-1.103026	-0.683509	0.094079
C120	C	-0.603026	-0.183509	0.594079
C121	C	-1.098515	-0.676543	0.192908
C122	C	-0.598515	-0.176543	0.692908
H123	H	-0.419059	-0.667203	-0.173046
H124	H	0.080941	-0.167203	0.326954
H125	H	-0.544741	-0.890736	0.078599
H126	H	-0.044741	-0.390736	0.578599
H127	H	-1.214117	-0.845058	-0.449653
H128	H	-0.714117	-0.345058	0.050347
F129	F	-0.841714	-0.528704	-0.328923
F130	F	-0.341714	-0.028704	0.171077
F131	F	-0.989159	0.003938	-0.029534
F132	F	-0.489159	0.503938	0.470466
H133	H	-1.190578	-0.064205	-0.202830
H134	H	-0.690578	0.435795	0.297170
F135	F	-0.386872	-0.870119	0.055353
F136	F	0.113128	-0.370119	0.555353
H137	H	-0.557158	-0.534756	-0.322132
H138	H	-0.057158	-0.034756	0.177868
F139	F	-1.238800	-0.401741	-0.244309
F140	F	-0.738800	0.098259	0.255691
F141	F	-1.248935	-0.210083	-0.253041
F142	F	-0.748935	0.289917	0.246959
F143	F	-1.023736	-0.341537	-0.059279
F144	F	-0.523736	0.158463	0.440721
F145	F	-1.033645	-0.582261	-0.494740
F146	F	-0.533645	-0.082261	0.005260
H147	H	-1.005988	-0.541899	-0.656557
H148	H	-0.505988	-0.041899	-0.156557
F149	F	-0.675192	-0.492660	-0.369505
F150	F	-0.175192	0.007340	0.130495
F151	F	-0.979021	-0.187703	-0.020800
F152	F	-0.479021	0.312297	0.479200
F153	F	-1.194405	-0.816200	-0.779917
F154	F	-0.694405	-0.316200	-0.279917
F155	F	-0.453468	-0.610508	-0.236895
F156	F	0.046532	-0.110508	0.263105
F157	F	-0.818202	-0.746998	-0.083177
F158	F	-0.318202	-0.246998	0.416823
H159	H	-0.754950	-0.783925	-0.041581
H160	H	-0.254950	-0.283925	0.458419
H161	H	-0.671445	-0.864036	0.048563
H162	H	-0.171445	-0.364036	0.548563
F163	F	-1.002890	-0.537307	-0.840236
F164	F	-0.502890	-0.037307	-0.340236
F165	F	-1.234219	-0.874240	-0.626045
F166	F	-0.734219	-0.374240	-0.126045
