data_functionalizedCrystal
_audit_creation_method	'MofGen! by Chris Wilmer'
_symmetry_space_group_name_H-M	'P1'
_symmetry_Int_Tables_number	1
_symmetry_cell_setting	triclinic
loop_
_symmetry_equiv_pos_as_xyz
  x,y,z
_cell_length_a	18.050591
_cell_length_b	13.897448
_cell_length_c	13.897441
_cell_angle_alpha	90.030599
_cell_angle_beta	90.026738
_cell_angle_gamma	90.014140
loop_
_atom_site_label
_atom_site_type_symbol
_atom_site_fract_x
_atom_site_fract_y
_atom_site_fract_z
Zn1	Zn	1.135398	-0.384075	0.545536
Zn2	Zn	1.635398	0.115925	1.045536
Zn3	Zn	1.135316	-0.545397	0.384237
Zn4	Zn	1.635316	-0.045397	0.884237
Zn5	Zn	1.011202	-0.384108	0.384237
Zn6	Zn	1.511202	0.115892	0.884237
Zn7	Zn	1.011188	-0.545320	0.545473
Zn8	Zn	1.511188	-0.045320	1.045473
O9	O	1.073276	-0.464725	0.464871
O10	O	1.573276	0.035275	0.964871
O11	O	1.239312	-0.405494	0.524165
O12	O	1.739312	0.094506	1.024165
O13	O	1.118824	-0.524048	0.249255
O14	O	1.618824	-0.024048	0.749255
O15	O	1.027717	-0.249122	0.405660
O16	O	1.527717	0.250878	0.905660
O17	O	1.239252	-0.524016	0.405660
O18	O	1.739252	-0.024016	0.905660
O19	O	1.118963	-0.249098	0.524165
O20	O	1.618963	0.250902	1.024165
O21	O	1.027638	-0.405549	0.249255
O22	O	1.527638	0.094451	0.749255
O23	O	0.907276	-0.405474	0.405599
O24	O	1.407276	0.094526	0.905599
O25	O	1.027693	-0.523885	0.680463
O26	O	1.527693	-0.023885	1.180463
O27	O	0.907265	-0.523916	0.524058
O28	O	1.407265	-0.023916	1.024058
O29	O	1.118950	-0.405419	0.680509
O30	O	1.618950	0.094581	1.180509
O31	O	1.118810	-0.680369	0.405599
O32	O	1.618810	-0.180369	0.905599
O33	O	1.027614	-0.680312	0.524058
O34	O	1.527614	-0.180312	1.024058
C35	C	0.880324	-0.464691	0.464822
C36	C	1.380324	0.035309	0.964822
C37	C	0.797778	-0.464700	0.464825
C38	C	1.297778	0.035300	0.964825
C39	C	1.073222	-0.715340	0.464843
C40	C	1.573222	-0.215340	0.964843
C41	C	1.073267	-0.822553	0.464863
C42	C	1.573267	-0.322553	0.964863
C43	C	1.073345	-1.018848	0.464924
C44	C	1.573345	-0.518848	0.964924
C45	C	1.073299	-0.909616	0.464893
C46	C	1.573299	-0.409616	0.964893
C47	C	0.548937	-0.400224	0.400559
C48	C	1.048937	0.099776	0.900559
C49	C	0.598374	-0.376725	0.488589
C50	C	1.098374	0.123275	0.988589
C51	C	0.500658	-0.464749	0.464904
C52	C	1.000658	0.035251	0.964904
C53	C	0.598303	-0.488179	0.376840
C54	C	1.098303	0.011821	0.876840
C55	C	0.646643	-0.464723	0.464860
C56	C	1.146643	0.035277	0.964860
C57	C	0.549008	-0.441204	0.552980
C58	C	1.049008	0.058796	1.052980
C59	C	0.548932	-0.552699	0.441172
C60	C	1.048932	-0.052699	0.941172
C61	C	0.598347	-0.529233	0.529263
C62	C	1.098347	-0.029233	1.029263
C63	C	0.416560	-0.464762	0.464927
C64	C	0.916560	0.035238	0.964927
C65	C	0.730739	-0.464710	0.464846
C66	C	1.230739	0.035290	0.964846
C67	C	1.266982	-0.464760	0.464920
C68	C	1.766982	0.035240	0.964920
C69	C	1.349528	-0.464775	0.464941
C70	C	1.849528	0.035225	0.964941
C71	C	1.073329	-0.464640	0.716464
C72	C	1.573329	0.035360	1.216464
C73	C	1.073351	-0.464604	0.823678
C74	C	1.573351	0.035396	1.323678
C75	C	1.073351	-0.213132	0.464920
C76	C	1.573351	0.286868	0.964920
C77	C	1.073383	-0.105918	0.464941
C78	C	1.573383	0.394082	0.964941
C79	C	1.073266	-0.464740	0.214256
C80	C	1.573266	0.035260	0.714256
C81	C	1.073388	-0.464505	0.107043
C82	C	1.573388	0.035495	0.607043
C83	C	1.073371	-0.464538	1.019973
C84	C	1.573371	0.035462	1.519973
C85	C	1.073358	-0.464577	0.910740
C86	C	1.573358	0.035423	1.410740
H87	H	0.527244	-0.345628	0.346230
H88	H	1.027244	0.154372	0.846230
H89	H	0.619904	-0.583789	0.583721
H90	H	1.119904	-0.083789	1.083721
Br91	Br	0.513072	-0.408012	0.677116
Br92	Br	1.013072	0.091988	1.177116
Br93	Br	0.634400	-0.521227	0.252744
Br94	Br	1.134400	-0.021227	0.752744
H95	H	0.620077	-0.302333	0.508660
H96	H	1.120077	0.197667	1.008660
Br97	Br	0.512704	-0.676650	0.407694
Br98	Br	1.012704	-0.176650	0.907694
