data_functionalizedCrystal
_audit_creation_method	'MofGen! by Chris Wilmer'
_symmetry_space_group_name_H-M	'P1'
_symmetry_Int_Tables_number	1
_symmetry_cell_setting	triclinic
loop_
_symmetry_equiv_pos_as_xyz
  x,y,z
_cell_length_a	21.395364
_cell_length_b	12.759400
_cell_length_c	21.395063
_cell_angle_alpha	89.644615
_cell_angle_beta	89.932770
_cell_angle_gamma	90.029636
loop_
_atom_site_label
_atom_site_type_symbol
_atom_site_fract_x
_atom_site_fract_y
_atom_site_fract_z
Zn1	Zn	0.958194	-0.414427	-0.354294
Zn2	Zn	0.958047	-0.591139	-0.249521
Zn3	Zn	0.853331	-0.415521	-0.249527
Zn4	Zn	0.853407	-0.590111	-0.354265
O5	O	0.905745	-0.502800	-0.301902
O6	O	1.045852	-0.437841	-0.340405
O7	O	0.944063	-0.568731	-0.161841
O8	O	0.867270	-0.268354	-0.263439
O9	O	1.045745	-0.567671	-0.263429
O10	O	0.944313	-0.267551	-0.340411
O11	O	0.867128	-0.439705	-0.161845
O12	O	0.765663	-0.438708	-0.263411
O13	O	0.867401	-0.565918	-0.441950
O14	O	0.765719	-0.566978	-0.340362
O15	O	0.944387	-0.436844	-0.441971
O16	O	0.944137	-0.738024	-0.263401
O17	O	0.867259	-0.737269	-0.340356
C18	C	0.742957	-0.502851	-0.301884
C19	C	0.673316	-0.502898	-0.301891
C20	C	0.640681	-0.435405	-0.342035
C21	C	0.575246	-0.435377	-0.342037
C22	C	0.542448	-0.502861	-0.301903
C23	C	0.575090	-0.570358	-0.261752
C24	C	0.640524	-0.570377	-0.261746
C25	C	0.438735	-0.597526	-0.296870
C26	C	0.373302	-0.597509	-0.296880
C27	C	0.340627	-0.502803	-0.301917
C28	C	0.373392	-0.408111	-0.306957
C29	C	0.438827	-0.408129	-0.306951
C30	C	0.471495	-0.502848	-0.301904
C31	C	0.237040	-0.435274	-0.342065
C32	C	0.171603	-0.435244	-0.342063
C33	C	0.171449	-0.570235	-0.261781
C34	C	0.236884	-0.570255	-0.261779
C35	C	0.269676	-0.502776	-0.301925
C36	C	0.905708	-0.775767	-0.301889
C37	C	0.905749	-0.892543	-0.301904
C38	C	0.945824	-0.947764	-0.261878
C39	C	0.945863	-1.057487	-0.261897
C40	C	0.865745	-1.056761	-0.341970
C41	C	0.865711	-0.947040	-0.341954
C42	C	0.985863	-0.893267	-0.221828
C43	C	1.025940	-0.948488	-0.181798
C44	C	1.025979	-1.058211	-0.181818
C45	C	0.985940	-1.112715	-0.221867
C46	C	1.069168	-0.502749	-0.301920
C47	C	1.138809	-0.502727	-0.301927
C48	C	0.905919	-0.501145	-0.465330
C49	C	0.905993	-0.500439	-0.534974
C50	C	0.905799	-0.228766	-0.301929
C51	C	0.905822	-0.111989	-0.301940
C52	C	0.905607	-0.504372	-0.139109
C53	C	0.905654	-0.504781	-0.069465
C54	C	0.945459	-0.436823	-0.037271
C55	C	0.945505	-0.436294	0.028162
C56	C	0.905735	-0.503714	0.061399
C57	C	0.865927	-0.571686	0.029197
C58	C	0.865887	-0.572220	-0.036235
C59	C	0.849384	-0.511868	0.165223
C60	C	0.849423	-0.511327	0.230654
C61	C	0.905859	-0.502074	0.263214
C62	C	0.962257	-0.493340	0.230335
C63	C	0.962217	-0.493874	0.164902
C64	C	0.905774	-0.503143	0.132350
C65	C	0.945717	-0.433539	0.366359
C66	C	0.945763	-0.433018	0.431794
C67	C	0.866180	-0.568404	0.432827
C68	C	0.866138	-0.568930	0.367394
C69	C	0.905906	-0.501492	0.334163
H70	H	0.145033	-0.380277	-0.374751
H71	H	0.985979	-1.202060	-0.221884
O72	O	0.988703	-0.359718	0.466517
H73	H	0.982058	-0.370685	0.517600
O74	O	0.337968	-0.699639	-0.291448
H75	H	0.286979	-0.683719	-0.292307
O76	O	0.822949	-0.645517	-0.070963
H77	H	0.790862	-0.599131	-0.101024
O78	O	0.823272	-0.641088	0.468680
H79	H	0.774022	-0.623762	0.456088
H80	H	1.058543	-0.904105	-0.149195
O81	O	0.988439	-0.362986	0.062892
H82	H	1.020535	-0.409361	0.092950
H83	H	0.548382	-0.625303	-0.229074
H84	H	0.548670	-0.380411	-0.374726
H85	H	0.985834	-0.803925	-0.221806
H86	H	1.008138	-0.486765	0.138134
O87	O	0.823026	-0.644400	0.065040
H88	H	0.829736	-0.632603	0.115948
H89	H	1.058617	-1.103169	-0.149228
H90	H	0.465502	-0.331028	-0.311053
H91	H	0.803501	-0.518438	0.257420
O92	O	0.676051	-0.362609	-0.385321
H93	H	0.642360	-0.315661	-0.413229
H94	H	0.346790	-0.330992	-0.311059
H95	H	1.008212	-0.485802	0.256843
O96	O	0.822488	-0.887471	-0.385124
H97	H	0.790592	-0.837834	-0.357042
O98	O	0.823196	-0.642213	0.332663
H99	H	0.795543	-0.688999	0.366765
O100	O	0.988614	-0.360821	0.330510
H101	H	1.016310	-0.313487	0.363893
O102	O	0.788511	-0.521841	0.130106
H103	H	0.749302	-0.527804	0.163960
H104	H	0.263740	-0.380322	-0.374750
O105	O	0.822553	-1.115549	-0.385152
H106	H	0.850616	-1.165157	-0.417060
O107	O	0.136084	-0.643024	-0.218491
H108	H	0.085100	-0.631678	-0.225240
O109	O	0.272090	-0.643055	-0.218484
H110	H	0.238292	-0.689981	-0.190578
H111	H	0.465334	-0.674652	-0.292767
H112	H	0.667095	-0.625339	-0.229056
O113	O	0.988357	-0.364101	-0.073114
H114	H	1.016048	-0.316763	-0.039730
