data_functionalizedCrystal
_audit_creation_method	'MofGen! by Chris Wilmer'
_symmetry_space_group_name_H-M	'P1'
_symmetry_Int_Tables_number	1
_symmetry_cell_setting	triclinic
loop_
_symmetry_equiv_pos_as_xyz
  x,y,z
_cell_length_a	19.121112
_cell_length_b	19.121725
_cell_length_c	17.077396
_cell_angle_alpha	92.410951
_cell_angle_beta	87.542323
_cell_angle_gamma	85.251919
loop_
_atom_site_label
_atom_site_type_symbol
_atom_site_fract_x
_atom_site_fract_y
_atom_site_fract_z
Zn1	Zn	1.087614	-0.326061	-0.511168
Zn2	Zn	1.587614	0.173939	-0.011168
Zn3	Zn	1.092538	-0.443720	-0.385745
Zn4	Zn	1.592538	0.056280	0.114255
Zn5	Zn	0.969950	-0.321058	-0.374075
Zn6	Zn	1.469950	0.178942	0.125925
Zn7	Zn	0.974926	-0.438653	-0.511128
Zn8	Zn	1.474926	0.061347	-0.011128
O9	O	1.031257	-0.382373	-0.445529
O10	O	1.531257	0.117627	0.054471
O11	O	1.186731	-0.345883	-0.499431
O12	O	1.686731	0.154117	0.000569
O13	O	1.076255	-0.427475	-0.274351
O14	O	1.576255	0.072525	0.225649
O15	O	0.981415	-0.223268	-0.387393
O16	O	1.481415	0.276732	0.112607
O17	O	1.190349	-0.432327	-0.407284
O18	O	1.690349	0.067673	0.092716
O19	O	1.067862	-0.226943	-0.488115
O20	O	1.567862	0.273057	0.011885
O21	O	0.986190	-0.337356	-0.265777
O22	O	1.486190	0.162644	0.234223
O23	O	0.872146	-0.332443	-0.387355
O24	O	1.372146	0.167557	0.112645
O25	O	0.989896	-0.423690	-0.620980
O26	O	1.489896	0.076310	-0.120980
O27	O	0.875802	-0.418839	-0.488047
O28	O	1.375802	0.081161	0.011953
O29	O	1.072687	-0.340970	-0.621009
O30	O	1.572687	0.159030	-0.121009
O31	O	1.081080	-0.541502	-0.407245
O32	O	1.581080	-0.041502	0.092755
O33	O	0.994671	-0.537779	-0.499363
O34	O	1.494671	-0.037779	0.000637
C35	C	0.848444	-0.374549	-0.436431
C36	C	1.348444	0.125451	0.063569
C37	C	0.770236	-0.371219	-0.432558
C38	C	1.270236	0.128781	0.067442
C39	C	0.327811	-0.350090	-0.408027
C40	C	0.827811	0.149910	0.091973
C41	C	0.401296	-0.353224	-0.411670
C42	C	0.901296	0.146776	0.088330
C43	C	0.439960	-0.399846	-0.465839
C44	C	0.939960	0.100154	0.034161
C45	C	0.405137	-0.443333	-0.516373
C46	C	0.905137	0.056667	-0.016373
C47	C	0.331653	-0.440196	-0.512733
C48	C	0.831653	0.059804	-0.012733
C49	C	0.661929	-0.411569	-0.479452
C50	C	1.161929	0.088431	0.020548
C51	C	0.735417	-0.414704	-0.483087
C52	C	1.235417	0.085296	0.016913
C53	C	0.731571	-0.324593	-0.378384
C54	C	1.231571	0.175407	0.121616
C55	C	0.658087	-0.321463	-0.374746
C56	C	1.158087	0.178537	0.125254
C57	C	0.623269	-0.364948	-0.425283
C58	C	1.123269	0.135052	0.074717
C59	C	0.515074	-0.403051	-0.469563
C60	C	1.015074	0.096949	0.030437
C61	C	0.548157	-0.361738	-0.421562
C62	C	1.048157	0.138262	0.078438
C63	C	1.038969	-0.565169	-0.454584
C64	C	1.538969	-0.065169	0.045416
C65	C	1.042332	-0.643373	-0.458487
C66	C	1.542332	-0.143373	0.041513
C67	C	0.998945	-0.678264	-0.407851
C68	C	1.498945	-0.178264	0.092149
C69	C	1.002112	-0.751745	-0.411522
C70	C	1.502112	-0.251745	0.088478
C71	C	1.048664	-0.790334	-0.465834
C72	C	1.548664	-0.290334	0.034166
C73	C	1.092056	-0.755438	-0.516473
C74	C	1.592056	-0.255438	-0.016473
C75	C	1.088891	-0.681958	-0.512798
C76	C	1.588891	-0.181958	-0.012798
C77	C	1.060471	-1.012287	-0.479554
C78	C	1.560471	-0.512287	0.020446
C79	C	1.063631	-1.085772	-0.483228
C80	C	1.563631	-0.585772	0.016772
C81	C	0.973688	-1.082074	-0.378274
C82	C	1.473688	-0.582074	0.121726
C83	C	0.970524	-1.008593	-0.374607
C84	C	1.470524	-0.508593	0.125393
C85	C	1.013919	-0.973704	-0.425243
C86	C	1.513919	-0.473704	0.074757
C87	C	1.051901	-0.865443	-0.469590
C88	C	1.551901	-0.365443	0.030410
C89	C	1.010685	-0.898596	-0.421483
C90	C	1.510685	-0.398596	0.078517
C91	C	1.214784	-0.390228	-0.454663
C92	C	1.714784	0.109772	0.045337
C93	C	1.292992	-0.393576	-0.458556
C94	C	1.792992	0.106424	0.041444
C95	C	1.031297	-0.382323	-0.650273
C96	C	1.531297	0.117677	-0.150273
C97	C	1.031314	-0.382302	-0.737523
C98	C	1.531314	0.117698	-0.237523
C99	C	1.023534	-0.198864	-0.436457
C100	C	1.523534	0.301136	0.063543
C101	C	1.020243	-0.120663	-0.432591
C102	C	1.520243	0.379337	0.067409
C103	C	1.074425	-0.339226	-0.778529
C104	C	1.574425	0.160774	-0.278529
C105	C	1.074433	-0.339202	-0.860509
C106	C	1.574433	0.160798	-0.360509
C107	C	1.031333	-0.382260	-0.901481
C108	C	1.531333	0.117740	-0.401481
C109	C	0.988217	-0.425338	-0.860469
C110	C	1.488217	0.074662	-0.360469
C111	C	0.988206	-0.425357	-0.778490
C112	C	1.488206	0.074643	-0.278490
C113	C	0.988243	-0.425297	-1.031338
C114	C	1.488243	0.074703	-0.531338
C115	C	0.988255	-0.425279	-1.113322
C116	C	1.488255	0.074721	-0.613322
C117	C	1.074470	-0.339143	-1.113357
C118	C	1.574470	0.160857	-0.613357
C119	C	1.074459	-0.339161	-1.031378
C120	C	1.574459	0.160839	-0.531378
C121	C	1.031344	-0.382241	-0.990372
C122	C	1.531344	0.117759	-0.490372
C123	C	1.031255	-0.382374	-0.241581
C124	C	1.531255	0.117626	0.258419
C125	C	1.031366	-0.382203	-0.154329
C126	C	1.531366	0.117797	0.345671
H127	H	0.436623	-0.481291	-0.560482
H128	H	0.936623	0.018709	-0.060482
O129	O	0.959924	-0.785709	-0.362450
O130	O	1.459924	-0.285709	0.137550
C131	C	0.868465	-0.864657	-0.351247
C132	C	1.368465	-0.364657	0.148753
C133	C	0.916218	-0.826252	-0.406910
C134	C	1.416218	-0.326252	0.093090
H135	H	0.833106	-0.897433	-0.387170
H136	H	1.333106	-0.397433	0.112830
H137	H	0.902222	-0.900485	-0.313562
H138	H	1.402222	-0.400485	0.186438
H139	H	0.834679	-0.824437	-0.311791
H140	H	1.334679	-0.324437	0.188209
H141	H	0.950012	-0.866421	-0.446416
H142	H	1.450012	-0.366421	0.053584
H143	H	0.882420	-0.790411	-0.444541
H144	H	1.382420	-0.290411	0.055459
H145	H	1.129962	-0.786863	-0.560693
H146	H	1.629962	-0.286863	-0.060693
H147	H	1.089802	-0.896870	-0.513813
H148	H	1.589802	-0.396870	-0.013813
O149	O	1.116311	-0.297190	-1.153089
O150	O	1.616311	0.202810	-0.653089
C151	C	1.145410	-0.178964	-1.173976
C152	C	1.645410	0.321036	-0.673976
C153	C	1.097988	-0.226391	-1.128911
C154	C	1.597988	0.273609	-0.628911
H155	H	1.130602	-0.121712	-1.154457
H156	H	1.630602	0.378288	-0.654457
H157	H	1.202672	-0.193697	-1.161279
H158	H	1.702672	0.306303	-0.661279
H159	H	1.138029	-0.186374	-1.239606
H160	H	1.638029	0.313626	-0.739606
H161	H	1.105306	-0.219005	-1.063269
H162	H	1.605306	0.280995	-0.563269
H163	H	1.040743	-0.211646	-1.141673
H164	H	1.540743	0.288354	-0.641673
O165	O	0.435087	-0.311053	-0.362475
O166	O	0.935087	0.188947	0.137525
C167	C	0.456030	-0.277666	-0.228425
C168	C	0.956030	0.222334	0.271575
C169	C	0.417736	-0.325482	-0.284050
C170	C	0.917736	0.174518	0.215950
H171	H	0.442005	-0.289304	-0.165006
H172	H	0.942005	0.210696	0.334994
H173	H	0.515201	-0.287910	-0.240262
H174	H	1.015201	0.212090	0.259738
H175	H	0.439196	-0.220341	-0.238834
H176	H	0.939196	0.279659	0.261166
H177	H	0.434513	-0.382824	-0.273674
H178	H	0.934513	0.117176	0.226326
H179	H	0.358573	-0.315177	-0.272201
H180	H	0.858573	0.184823	0.227799
O181	O	1.116379	-0.297342	-0.900223
O182	O	1.616379	0.202658	-0.400223
C183	C	1.201867	-0.211884	-0.891604
C184	C	1.701867	0.288116	-0.391604
C185	C	1.154407	-0.259271	-0.846532
C186	C	1.654407	0.240729	-0.346532
H187	H	1.232614	-0.181080	-0.848213
H188	H	1.732614	0.318920	-0.348213
H189	H	1.240066	-0.245721	-0.933395
H190	H	1.740066	0.254279	-0.433395
H191	H	1.168012	-0.173730	-0.926577
H192	H	1.668012	0.326270	-0.426577
H193	H	1.188206	-0.297433	-0.811515
H194	H	1.688206	0.202567	-0.311515
H195	H	1.116205	-0.225390	-0.804788
H196	H	1.616205	0.274610	-0.304788
O197	O	0.946350	-0.467138	-0.738530
O198	O	1.446350	0.032862	-0.238530
C199	C	0.908153	-0.505371	-0.612223
C200	C	1.408153	-0.005371	-0.112223
C201	C	0.955582	-0.458010	-0.657377
C202	C	1.455582	0.041990	-0.157377
H203	H	0.915612	-0.498018	-0.546603
H204	H	1.415612	0.001982	-0.046603
H205	H	0.850884	-0.490581	-0.624844
H206	H	1.350884	0.009419	-0.124844
H207	H	0.922890	-0.562619	-0.631806
H208	H	1.422890	-0.062619	-0.131806
H209	H	0.940908	-0.400747	-0.637821
H210	H	1.440908	0.099253	-0.137821
H211	H	1.012839	-0.472860	-0.644754
H212	H	1.512839	0.027140	-0.144754
O213	O	0.620636	-0.276109	-0.322106
O214	O	1.120636	0.223891	0.177894
C215	C	0.624579	-0.187091	-0.218610
C216	C	1.124579	0.312909	0.281390
C217	C	0.667077	-0.238408	-0.278202
C218	C	1.167077	0.261592	0.221798
H219	H	0.662109	-0.156606	-0.183087
H220	H	1.162109	0.343394	0.316913
H221	H	0.588657	-0.148832	-0.251157
H222	H	1.088657	0.351168	0.248843
H223	H	0.591502	-0.217886	-0.177431
H224	H	1.091502	0.282114	0.322569
H225	H	0.700195	-0.207671	-0.319397
H226	H	1.200195	0.292329	0.180603
H227	H	0.702955	-0.276667	-0.245605
H228	H	1.202955	0.223333	0.254395
H229	H	1.124223	-0.653551	-0.554031
H230	H	1.624223	-0.153551	-0.054031
O231	O	0.946320	-0.467120	-1.153000
O232	O	1.446320	0.032880	-0.653000
C233	C	0.860828	-0.552582	-1.144322
C234	C	1.360828	-0.052582	-0.644322
C235	C	0.908273	-0.505218	-1.099289
C236	C	1.408273	-0.005218	-0.599289
H237	H	0.830065	-0.583407	-1.100917
H238	H	1.330065	-0.083407	-0.600917
H239	H	0.822642	-0.518724	-1.179252
H240	H	1.322642	-0.018724	-0.679252
H241	H	0.894695	-0.590716	-1.186150
H242	H	1.394695	-0.090716	-0.686150
H243	H	0.874462	-0.467077	-1.057421
H244	H	1.374462	0.032923	-0.557421
H245	H	0.946462	-0.539120	-1.064410
H246	H	1.446462	-0.039120	-0.564410
H247	H	0.953123	-0.460365	-0.997952
H248	H	1.453123	0.039635	-0.497952
O249	O	0.946388	-0.467263	-0.900188
O250	O	1.446388	0.032737	-0.400188
C251	C	0.917300	-0.585475	-0.929520
C252	C	1.417300	-0.085475	-0.429520
C253	C	0.964706	-0.538073	-0.884483
C254	C	1.464706	-0.038073	-0.384483
H255	H	0.932103	-0.642736	-0.916852
H256	H	1.432103	-0.142736	-0.416852
H257	H	0.860032	-0.570753	-0.909951
H258	H	1.360032	-0.070753	-0.409951
H259	H	0.924701	-0.578027	-0.995150
H260	H	1.424701	-0.078027	-0.495150
H261	H	0.957367	-0.545496	-0.818844
H262	H	1.457367	-0.045496	-0.318844
H263	H	1.021957	-0.552807	-0.904116
H264	H	1.521957	-0.052807	-0.404116
O265	O	0.772870	-0.460009	-0.535784
O266	O	1.272870	0.039991	-0.035784
C267	C	0.768935	-0.549076	-0.639229
C268	C	1.268935	-0.049076	-0.139229
C269	C	0.726435	-0.497793	-0.579605
C270	C	1.226435	0.002207	-0.079605
H271	H	0.731411	-0.579649	-0.674663
H272	H	1.231411	-0.079649	-0.174663
H273	H	0.801977	-0.518320	-0.680488
H274	H	1.301977	-0.018320	-0.180488
H275	H	0.804892	-0.587263	-0.606633
H276	H	1.304892	-0.087263	-0.106633
H277	H	0.690440	-0.459595	-0.612135
H278	H	1.190440	0.040405	-0.112135
H279	H	0.693439	-0.528595	-0.538348
H280	H	1.193439	-0.028595	-0.038348
H281	H	0.759927	-0.289190	-0.337241
H282	H	1.259927	0.210810	0.162759
H283	H	0.303305	-0.475605	-0.553881
H284	H	0.803305	0.024395	-0.053881
O285	O	0.290230	-0.304902	-0.355322
O286	O	0.790230	0.195098	0.144678
C287	C	0.206796	-0.291768	-0.244794
C288	C	0.706796	0.208232	0.255206
C289	C	0.249324	-0.343024	-0.304425
C290	C	0.749324	0.156976	0.195575
H291	H	0.173701	-0.322568	-0.203639
H292	H	0.673701	0.177432	0.296361
H293	H	0.244279	-0.261239	-0.209249
H294	H	0.744279	0.238761	0.290751
H295	H	0.170885	-0.253539	-0.277390
H296	H	0.670885	0.246461	0.222610
H297	H	0.285237	-0.381295	-0.271891
H298	H	0.785237	0.118705	0.228109
H299	H	0.211801	-0.373502	-0.339968
H300	H	0.711801	0.126498	0.160032
H301	H	0.633590	-0.446979	-0.520600
H302	H	1.133590	0.053021	-0.020600
H303	H	1.109560	-0.304104	-0.998021
H304	H	1.609560	0.195896	-0.498021
H305	H	0.932618	-0.977176	-0.330381
H306	H	1.432618	-0.477176	0.169619
H307	H	0.516673	-0.323776	-0.377461
H308	H	1.016673	0.176224	0.122539
H309	H	0.961034	-0.646850	-0.363627
H310	H	1.461034	-0.146850	0.136373
O311	O	0.552601	-0.448266	-0.522284
O312	O	1.052601	0.051734	-0.022284
C313	C	0.576569	-0.483570	-0.658555
C314	C	1.076569	0.016430	-0.158555
C315	C	0.534033	-0.432312	-0.598933
C316	C	1.034033	0.067688	-0.098933
H317	H	0.561562	-0.470699	-0.720538
H318	H	1.061562	0.029301	-0.220538
H319	H	0.635077	-0.478333	-0.652540
H320	H	1.135077	0.021667	-0.152540
H321	H	0.564524	-0.539666	-0.646714
H322	H	1.064524	-0.039666	-0.146714
H323	H	0.546019	-0.376195	-0.610736
H324	H	1.046019	0.123805	-0.110736
H325	H	0.475537	-0.437610	-0.604961
H326	H	0.975537	0.062390	-0.104961
H327	H	0.938359	-1.110489	-0.337049
H328	H	1.438359	-0.610489	0.162951
O329	O	1.108902	-1.123152	-0.536027
O330	O	1.608902	-0.623152	-0.036027
C331	C	1.197717	-1.119067	-0.639805
C332	C	1.697717	-0.619067	-0.139805
C333	C	1.146508	-1.076650	-0.580027
C334	C	1.646508	-0.576650	-0.080027
H335	H	1.228125	-1.081488	-0.675406
H336	H	1.728125	-0.581488	-0.175406
H337	H	1.236058	-1.155030	-0.607413
H338	H	1.736058	-0.655030	-0.107413
H339	H	1.166839	-1.152092	-0.680891
H340	H	1.666839	-0.652092	-0.180891
H341	H	1.177328	-1.043585	-0.538926
H342	H	1.677328	-0.543585	-0.038926
H343	H	1.108167	-1.040731	-0.612470
H344	H	1.608167	-0.540731	-0.112470
O345	O	1.102518	-0.978323	-0.528777
O346	O	1.602518	-0.478323	-0.028777
C347	C	1.108359	-0.895727	-0.631124
C348	C	1.608359	-0.395727	-0.131124
C349	C	1.060658	-0.934133	-0.575405
C350	C	1.560658	-0.434133	-0.075405
H351	H	1.074535	-0.860002	-0.668849
H352	H	1.574535	-0.360002	-0.168849
H353	H	1.143681	-0.862844	-0.595275
H354	H	1.643681	-0.362844	-0.095275
H355	H	1.142185	-0.935949	-0.670538
H356	H	1.642185	-0.435949	-0.170538
H357	H	1.026789	-0.893960	-0.535980
H358	H	1.526789	-0.393960	-0.035980
H359	H	1.025384	-0.967029	-0.611302
H360	H	1.525384	-0.467029	-0.111302
O361	O	1.116271	-0.297461	-0.738613
O362	O	1.616271	0.202539	-0.238613
C363	C	1.154427	-0.259273	-0.612336
C364	C	1.654427	0.240727	-0.112336
C365	C	1.107017	-0.306623	-0.657442
C366	C	1.607017	0.193377	-0.157442
H367	H	1.146950	-0.266653	-0.546700
H368	H	1.646950	0.233347	-0.046700
H369	H	1.211702	-0.274050	-0.631834
H370	H	1.711702	0.225950	-0.131834
H371	H	1.139688	-0.202019	-0.625086
H372	H	1.639688	0.297981	-0.125086
H373	H	1.121693	-0.363890	-0.644714
H374	H	1.621693	0.136110	-0.144714
H375	H	1.049754	-0.291786	-0.637937
H376	H	1.549754	0.208214	-0.137937
O377	O	0.965540	-0.861150	-0.368621
O378	O	1.465540	-0.361150	0.131379
C379	C	0.930447	-0.837353	-0.232258
C380	C	1.430447	-0.337353	0.267742
C381	C	0.981634	-0.879801	-0.292035
C382	C	1.481634	-0.379801	0.207965
H383	H	0.943432	-0.852426	-0.170326
H384	H	1.443432	-0.352426	0.329674
H385	H	0.935644	-0.778834	-0.238264
H386	H	1.435644	-0.278834	0.261736
H387	H	0.874333	-0.849408	-0.243940
H388	H	1.374333	-0.349408	0.256060
H389	H	1.037770	-0.867805	-0.280391
H390	H	1.537770	-0.367805	0.219609
H391	H	0.976377	-0.938307	-0.286014
H392	H	1.476377	-0.438307	0.213986
