data_functionalizedCrystal
_audit_creation_method	'MofGen! by Chris Wilmer'
_symmetry_space_group_name_H-M	'P1'
_symmetry_Int_Tables_number	1
_symmetry_cell_setting	triclinic
loop_
_symmetry_equiv_pos_as_xyz
  x,y,z
_cell_length_a	11.792241
_cell_length_b	10.723024
_cell_length_c	9.198806
_cell_angle_alpha	89.997255
_cell_angle_beta	89.996670
_cell_angle_gamma	84.330643
loop_
_atom_site_label
_atom_site_type_symbol
_atom_site_fract_x
_atom_site_fract_y
_atom_site_fract_z
O1	O	0.159192	1.656767	-0.120853
O2	O	0.174430	1.293574	-0.120865
O3	O	0.001660	1.483984	-0.120849
O4	O	0.331962	1.466357	-0.120870
O5	O	0.001659	1.483969	0.120936
O6	O	0.174430	1.293559	0.120920
O7	O	0.159192	1.656751	0.120932
Cu8	Cu	0.166811	1.475154	0.143003
Cu9	Cu	0.166811	1.475172	-0.142936
O10	O	0.331962	1.466341	0.120915
C11	C	-0.040634	1.482869	0.000043
C12	C	-0.166655	1.479555	0.000042
C13	C	0.173321	1.247070	0.000026
C14	C	0.170003	1.108524	0.000022
N15	N	0.166810	1.475150	0.344117
C16	C	-0.397380	1.473461	0.000017
C17	C	-0.268988	1.476847	0.000031
C18	C	0.374255	1.467456	0.000020
C19	C	0.500276	1.470770	0.000012
C20	C	0.160301	1.703256	0.000038
C21	C	0.163619	1.841801	0.000032
C22	C	0.066945	1.917040	0.000036
C23	C	0.070372	2.060234	0.000031
N24	N	0.166803	1.475185	-0.344050
C25	C	0.093948	1.555099	0.416321
C26	C	0.093944	1.555118	0.583733
H27	H	-0.012387	2.124885	0.000025
H28	H	-0.018357	1.875443	0.000066
C29	C	0.009670	1.647589	0.667598
H30	H	-0.036035	1.697741	0.600572
H31	H	-0.037780	1.602185	0.726990
H32	H	0.050838	1.699913	0.726957
C33	C	0.281817	2.021207	0.000011
H34	H	0.344768	2.070080	-0.000007
H35	H	0.284839	1.969832	0.084324
H36	H	0.284832	1.969847	-0.084318
C37	C	0.009679	1.647547	0.332411
H38	H	0.020741	1.635410	0.230899
H39	H	-0.066149	1.633275	0.357293
H40	H	0.022471	1.731000	0.357263
C41	C	0.251083	1.382712	0.572095
H42	H	0.296798	1.332572	0.639121
H43	H	0.209925	1.330396	0.512725
H44	H	0.298539	1.428127	0.512712
H45	H	0.248921	1.883398	0.000033
H46	H	0.229182	1.406713	0.406239
