data_functionalizedCrystal
_audit_creation_method	'MofGen! by Chris Wilmer'
_symmetry_space_group_name_H-M	'P1'
_symmetry_Int_Tables_number	1
_symmetry_cell_setting	triclinic
loop_
_symmetry_equiv_pos_as_xyz
  x,y,z
_cell_length_a	12.645331
_cell_length_b	16.625546
_cell_length_c	16.625539
_cell_angle_alpha	89.971468
_cell_angle_beta	89.982734
_cell_angle_gamma	90.021447
loop_
_atom_site_label
_atom_site_type_symbol
_atom_site_fract_x
_atom_site_fract_y
_atom_site_fract_z
Zn1	Zn	1.620639	-0.321037	-0.455902
Zn2	Zn	1.953973	0.012296	-0.122569
Zn3	Zn	2.287306	0.345630	0.210765
Zn4	Zn	1.620523	-0.455876	-0.321064
Zn5	Zn	1.953856	-0.122542	0.012269
Zn6	Zn	2.287190	0.210791	0.345602
Zn7	Zn	1.443371	-0.321058	-0.321082
Zn8	Zn	1.776704	0.012275	0.012251
Zn9	Zn	2.110037	0.345608	0.345585
Zn10	Zn	1.443321	-0.455829	-0.455854
Zn11	Zn	1.776654	-0.122496	-0.122520
Zn12	Zn	2.109988	0.210838	0.210813
O13	O	1.531964	-0.388450	-0.388476
O14	O	1.865297	-0.055117	-0.055142
O15	O	2.198630	0.278217	0.278191
O16	O	1.768971	-0.338934	-0.438028
O17	O	2.102305	-0.005601	-0.104695
O18	O	2.435638	0.327732	0.228638
O19	O	1.596996	-0.438020	-0.208234
O20	O	1.930329	-0.104687	0.125099
O21	O	2.263662	0.228646	0.458432
O22	O	1.466955	-0.208223	-0.338994
O23	O	1.800289	0.125110	-0.005661
O24	O	2.133622	0.458444	0.327673
O25	O	1.768886	-0.438000	-0.338964
O26	O	2.102219	-0.104666	-0.005630
O27	O	2.435552	0.228667	0.327703
O28	O	1.597194	-0.208207	-0.438046
O29	O	1.930527	0.125126	-0.104712
O30	O	2.263861	0.458459	0.228621
O31	O	1.466843	-0.338971	-0.208247
O32	O	1.800176	-0.005637	0.125086
O33	O	2.133509	0.327696	0.458419
O34	O	1.295017	-0.338925	-0.338947
O35	O	1.628350	-0.005592	-0.005614
O36	O	1.961684	0.327741	0.327720
O37	O	1.466871	-0.437920	-0.568693
O38	O	1.800204	-0.104587	-0.235359
O39	O	2.133537	0.228747	0.097974
O40	O	1.294980	-0.437941	-0.437963
O41	O	1.628314	-0.104607	-0.104630
O42	O	1.961647	0.228726	0.228703
O43	O	1.597146	-0.338889	-0.568728
O44	O	1.930479	-0.005556	-0.235395
O45	O	2.263812	0.327778	0.097939
O46	O	1.596947	-0.568702	-0.338917
O47	O	1.930281	-0.235369	-0.005584
O48	O	2.263614	0.097965	0.327750
O49	O	1.466758	-0.568668	-0.437946
O50	O	1.800091	-0.235334	-0.104613
O51	O	2.133424	0.097999	0.228721
C52	C	1.531863	-0.597941	-0.388442
C53	C	1.865197	-0.264608	-0.055109
C54	C	2.198530	0.068726	0.278225
C55	C	1.531917	-0.687562	-0.388454
C56	C	1.865251	-0.354229	-0.055121
C57	C	2.198584	-0.020895	0.278212
C58	C	1.256534	-0.388431	-0.388452
C59	C	1.589867	-0.055098	-0.055119
C60	C	1.923201	0.278236	0.278214
C61	C	1.138704	-0.388442	-0.388461
C62	C	1.472037	-0.055109	-0.055128
C63	C	1.805370	0.278225	0.278205
C64	C	1.532102	-1.015738	-0.388538
C65	C	1.865436	-0.682404	-0.055205
C66	C	2.198769	-0.349071	0.278128
C67	C	1.532047	-0.924429	-0.388517
C68	C	1.865381	-0.591096	-0.055184
C69	C	2.198714	-0.257762	0.278149
C70	C	1.532009	-0.851653	-0.388496
C71	C	1.865342	-0.518319	-0.055163
C72	C	2.198676	-0.184986	0.278171
C73	C	1.531956	-0.760338	-0.388476
C74	C	1.865289	-0.427005	-0.055142
C75	C	2.198622	-0.093672	0.278191
C76	C	0.971127	-0.325865	-0.326514
C77	C	1.304461	0.007468	0.006819
C78	C	1.637794	0.340802	0.340153
C79	C	1.093687	-0.326027	-0.326241
C80	C	1.427020	0.007306	0.007092
C81	C	1.760354	0.340640	0.340426
C82	C	1.094177	-0.473380	-0.365243
C83	C	1.427510	-0.140047	-0.031910
C84	C	1.760844	0.193287	0.301424
C85	C	0.971579	-0.473038	-0.364820
C86	C	1.304912	-0.139705	-0.031487
C87	C	1.638245	0.193629	0.301846
C88	C	0.971546	-0.366890	-0.473867
C89	C	1.304880	-0.033556	-0.140533
C90	C	1.638213	0.299777	0.192800
C91	C	1.094152	-0.364992	-0.473392
C92	C	1.427486	-0.031659	-0.140059
C93	C	1.760819	0.301675	0.193274
C94	C	1.808469	-0.388470	-0.388499
C95	C	2.141802	-0.055136	-0.055166
C96	C	2.475135	0.278197	0.278167
C97	C	1.926299	-0.388478	-0.388510
C98	C	2.259632	-0.055145	-0.055176
C99	C	2.592965	0.278188	0.278157
C100	C	1.532016	-0.388397	-0.598785
C101	C	1.865349	-0.055063	-0.265451
C102	C	2.198682	0.278270	0.067882
C103	C	1.532038	-0.388374	-0.688406
C104	C	1.865371	-0.055041	-0.355072
C105	C	2.198704	0.278293	-0.021739
C106	C	1.532093	-0.178141	-0.388527
C107	C	1.865427	0.155192	-0.055194
C108	C	2.198760	0.488526	0.278140
C109	C	1.532148	-0.088520	-0.388549
C110	C	1.865482	0.244813	-0.055216
C111	C	2.198815	0.578147	0.278118
C112	C	1.532055	-0.388356	-0.761188
C113	C	1.865388	-0.055023	-0.427855
C114	C	2.198722	0.278310	-0.094522
C115	C	1.532080	-0.388326	-0.852497
C116	C	1.865413	-0.054993	-0.519163
C117	C	2.198746	0.278340	-0.185830
C118	C	1.532105	-0.388298	-0.925273
C119	C	1.865438	-0.054965	-0.591940
C120	C	2.198771	0.278369	-0.258607
C121	C	1.532131	-0.388269	-1.016588
C122	C	1.865464	-0.054935	-0.683254
C123	C	2.198798	0.278398	-0.349921
C124	C	1.531973	-0.388445	-0.178985
C125	C	1.865306	-0.055112	0.154349
C126	C	2.198639	0.278222	0.487682
C127	C	1.532156	-0.388240	-0.089364
C128	C	1.865489	-0.054907	0.243969
C129	C	2.198823	0.278426	0.577303
H130	H	0.941668	-0.262691	-0.340912
H131	H	1.275002	0.070643	-0.007579
H132	H	1.608335	0.403976	0.325755
N133	N	1.134733	-0.420998	-0.537854
N134	N	1.468066	-0.087665	-0.204520
N135	N	1.801399	0.245669	0.128813
H136	H	1.104805	-0.404464	-0.591695
H137	H	1.438138	-0.071131	-0.258362
H138	H	1.771472	0.262202	0.074972
H139	H	1.214475	-0.418150	-0.539774
H140	H	1.547808	-0.084816	-0.206441
H141	H	1.881142	0.248517	0.126892
H142	H	0.942557	-0.412495	-0.520059
H143	H	1.275890	-0.079161	-0.186726
H144	H	1.609223	0.254172	0.146608
H145	H	0.940286	-0.339975	-0.263633
H146	H	1.273619	-0.006642	0.069700
H147	H	1.606952	0.326691	0.403033
N148	N	1.134762	-0.498054	-0.283468
N149	N	1.468095	-0.164720	0.049865
N150	N	1.801428	0.168613	0.383199
H151	H	1.176396	-0.549643	-0.288450
H152	H	1.509729	-0.216310	0.044883
H153	H	1.843063	0.117023	0.378216
H154	H	1.181940	-0.454295	-0.261387
H155	H	1.515273	-0.120962	0.071947
H156	H	1.848606	0.212371	0.405280
N157	N	0.932302	-0.536935	-0.422012
N158	N	1.265635	-0.203601	-0.088679
N159	N	1.598969	0.129732	0.244654
H160	H	0.888014	-0.577305	-0.391535
H161	H	1.221347	-0.243972	-0.058201
H162	H	1.554680	0.089361	0.275132
H163	H	0.887997	-0.511054	-0.465423
H164	H	1.221331	-0.177721	-0.132090
H165	H	1.554664	0.155613	0.201244
N166	N	1.132757	-0.536827	-0.423192
N167	N	1.466091	-0.203494	-0.089859
N168	N	1.799424	0.129839	0.243475
H169	H	1.179589	-0.511061	-0.465151
H170	H	1.512922	-0.177728	-0.131817
H171	H	1.846255	0.155606	0.201516
H172	H	1.174292	-0.578893	-0.392820
H173	H	1.507625	-0.245560	-0.059487
H174	H	1.840959	0.087774	0.273846
H175	H	1.123793	-0.263042	-0.340795
H176	H	1.457126	0.070291	-0.007462
H177	H	1.790460	0.403625	0.325871
H178	H	0.942939	-0.491346	-0.302420
H179	H	1.276272	-0.158013	0.030914
H180	H	1.609605	0.175320	0.364247
H181	H	1.122971	-0.340295	-0.262988
H182	H	1.456305	-0.006962	0.070345
H183	H	1.789638	0.326371	0.403678
N184	N	0.930626	-0.286284	-0.501843
N185	N	1.263960	0.047050	-0.168510
N186	N	1.597293	0.380383	0.164824
H187	H	0.882335	-0.262943	-0.459464
H188	H	1.215669	0.070390	-0.126131
H189	H	1.549002	0.403723	0.207203
H190	H	0.992134	-0.248635	-0.511127
H191	H	1.325467	0.084698	-0.177794
H192	H	1.658800	0.418032	0.155540
N193	N	1.132692	-0.282194	-0.496587
N194	N	1.466025	0.051139	-0.163253
N195	N	1.799358	0.384473	0.170080
H196	H	1.178821	-0.259961	-0.452271
H197	H	1.512154	0.073372	-0.118938
H198	H	1.845488	0.406706	0.214395
H199	H	1.174954	-0.285758	-0.548016
H200	H	1.508288	0.047575	-0.214683
H201	H	1.841621	0.380908	0.118650
