data_functionalizedCrystal
_audit_creation_method	'MofGen! by Chris Wilmer'
_symmetry_space_group_name_H-M	'P1'
_symmetry_Int_Tables_number	1
_symmetry_cell_setting	triclinic
loop_
_symmetry_equiv_pos_as_xyz
  x,y,z
_cell_length_a	12.594517
_cell_length_b	16.959454
_cell_length_c	16.959447
_cell_angle_alpha	90.026736
_cell_angle_beta	89.984240
_cell_angle_gamma	89.980125
loop_
_atom_site_label
_atom_site_type_symbol
_atom_site_fract_x
_atom_site_fract_y
_atom_site_fract_z
Zn1	Zn	1.627179	0.314670	-0.446959
Zn2	Zn	1.627074	0.446863	-0.314788
Zn3	Zn	1.449200	0.314702	-0.314793
Zn4	Zn	1.449152	0.446810	-0.446924
O5	O	1.538151	0.380761	-0.380866
O6	O	1.776111	0.332215	-0.429439
O7	O	1.603455	0.429366	-0.204178
O8	O	1.472873	0.204086	-0.332342
O9	O	1.776034	0.429336	-0.332334
O10	O	1.603633	0.204063	-0.429443
O11	O	1.472772	0.332268	-0.204181
O12	O	1.300248	0.332217	-0.332308
O13	O	1.472792	0.429246	-0.557539
O14	O	1.300213	0.429277	-0.429383
O15	O	1.603587	0.332164	-0.557565
O16	O	1.603409	0.557467	-0.332300
O17	O	1.472690	0.557428	-0.429379
C18	C	1.261610	0.380745	-0.380843
C19	C	1.143305	0.380758	-0.380851
C20	C	1.538062	0.586127	-0.380852
C21	C	1.538121	0.673984	-0.380873
C22	C	1.538196	0.380696	-0.587034
C23	C	1.538215	0.380668	-0.674891
C24	C	1.074040	0.327895	-0.328153
C25	C	1.003225	0.399995	-0.308711
C26	C	1.003321	0.308693	-0.400306
C27	C	1.074048	0.452896	-0.361372
C28	C	1.074151	0.361545	-0.453001
C29	C	1.003367	0.433695	-0.433587
C30	C	1.815772	0.380778	-0.380890
C31	C	1.934078	0.380785	-0.380900
C32	C	1.538270	0.174593	-0.380897
C33	C	1.538320	0.086736	-0.380910
C34	C	1.470185	1.045469	-0.431410
C35	C	1.606414	1.045450	-0.330403
C36	C	1.606377	0.962904	-0.330395
C37	C	1.538242	0.921637	-0.380895
C38	C	1.470143	0.962916	-0.431402
C39	C	1.674466	0.921619	-0.279884
C40	C	1.674431	0.839068	-0.279874
C41	C	1.606300	0.797799	-0.330378
C42	C	1.538200	0.839083	-0.380888
C43	C	1.470065	0.797816	-0.431388
C44	C	1.401969	0.839099	-0.481902
C45	C	1.402013	0.921647	-0.481907
C46	C	1.606257	0.715251	-0.330373
C47	C	1.470023	0.715263	-0.431380
C48	C	1.470243	0.431131	-1.046356
C49	C	1.606441	0.330038	-1.046378
C50	C	1.606413	0.330055	-0.963832
C51	C	1.538299	0.380611	-0.922544
C52	C	1.470214	0.431151	-0.963802
C53	C	1.674504	0.279522	-0.922567
C54	C	1.674479	0.279537	-0.840016
C55	C	1.606360	0.330090	-0.798727
C56	C	1.538271	0.380631	-0.839990
C57	C	1.470158	0.431188	-0.798703
C58	C	1.402063	0.481725	-0.839964
C59	C	1.402095	0.481704	-0.922513
C60	C	1.606328	0.330111	-0.716179
C61	C	1.470130	0.431207	-0.716149
C62	C	1.538168	0.380769	-0.175500
C63	C	1.538356	0.380574	-0.087644
H64	H	1.105071	0.283234	-0.283532
C65	C	1.395334	0.486714	-1.091744
N66	N	1.338911	0.528578	-1.125931
C67	C	1.327192	0.537286	-0.967907
N68	N	1.270775	0.579150	-1.002101
C69	C	0.961130	0.421968	-0.226312
N70	N	0.929425	0.438512	-0.164247
H71	H	1.661901	0.288882	-1.079999
C72	C	1.749412	0.223905	-0.967988
N73	N	1.805828	0.182008	-1.002204
C74	C	1.681228	0.274524	-0.670795
N75	N	1.737645	0.232651	-0.636612
C76	C	0.961354	0.226344	-0.422513
N77	N	0.929749	0.164317	-0.439233
C78	C	1.749373	0.223937	-0.794636
N79	N	1.805779	0.182055	-0.760455
H80	H	1.104986	0.513869	-0.344870
C81	C	1.327141	0.537336	-0.794537
N82	N	1.270710	0.579219	-0.760318
C83	C	1.749330	0.793664	-0.224303
N84	N	1.805744	0.759466	-0.182445
H85	H	0.972532	0.478462	-0.478174
H86	H	1.105329	0.345255	-0.513977
C87	C	1.681159	0.669844	-0.274812
N88	N	1.737582	0.635644	-0.232963
C89	C	1.327022	0.793695	-0.537449
N90	N	1.270574	0.759493	-0.579287
C91	C	1.395080	0.669876	-0.486945
N92	N	1.338635	0.635691	-0.528799
H93	H	1.414746	1.079085	-0.472539
C94	C	1.327102	0.967064	-0.537458
N95	N	1.270675	1.001276	-0.579295
C96	C	1.681348	1.090846	-0.274848
N97	N	1.737791	1.125042	-0.233002
H98	H	1.729931	0.955224	-0.238764
C99	C	1.395196	0.486823	-0.670739
N100	N	1.338756	0.528714	-0.636537
