data_functionalizedCrystal
_audit_creation_method	'MofGen! by Chris Wilmer'
_symmetry_space_group_name_H-M	'P1'
_symmetry_Int_Tables_number	1
_symmetry_cell_setting	triclinic
loop_
_symmetry_equiv_pos_as_xyz
  x,y,z
_cell_length_a	18.215407
_cell_length_b	12.759400
_cell_length_c	18.215399
_cell_angle_alpha	89.973045
_cell_angle_beta	89.983176
_cell_angle_gamma	90.015132
loop_
_atom_site_label
_atom_site_type_symbol
_atom_site_fract_x
_atom_site_fract_y
_atom_site_fract_z
Zn1	Zn	1.125102	-0.418240	-0.416133
Zn2	Zn	1.125039	-0.593944	-0.293074
Zn3	Zn	1.002041	-0.418281	-0.293081
Zn4	Zn	1.002023	-0.593878	-0.416099
O5	O	1.063551	-0.506086	-0.354597
O6	O	1.228078	-0.441557	-0.399821
O7	O	1.108704	-0.570687	-0.190091
O8	O	1.018400	-0.271255	-0.309421
O9	O	1.228032	-0.570647	-0.309410
O10	O	1.108812	-0.271224	-0.399827
O11	O	1.018339	-0.441628	-0.190096
O12	O	0.899055	-0.441565	-0.309388
O13	O	1.018368	-0.570534	-0.519088
O14	O	0.899041	-0.570575	-0.399769
O15	O	1.108794	-0.441493	-0.519113
O16	O	1.108686	-0.740957	-0.309377
O17	O	1.018307	-0.740908	-0.399763
C18	C	0.872345	-0.506068	-0.354576
C19	C	0.790546	-0.506086	-0.354584
C20	C	0.602364	-0.573367	-0.401587
C21	C	0.525506	-0.573370	-0.401596
C22	C	0.525490	-0.438824	-0.307623
C23	C	0.602348	-0.438816	-0.307618
C24	C	0.640783	-0.506094	-0.354599
C25	C	0.487067	-0.506105	-0.354613
C26	C	0.403733	-0.506108	-0.354623
C27	C	0.724122	-0.506089	-0.354590
C28	C	1.063508	-0.779053	-0.354582
C29	C	1.063556	-0.895830	-0.354600
C30	C	1.110669	-0.950682	-0.307588
C31	C	1.110714	-1.060406	-0.307610
C32	C	1.016527	-1.060416	-0.401659
C33	C	1.016487	-0.950694	-0.401639
C34	C	1.157739	-0.895818	-0.260548
C35	C	1.204855	-0.950671	-0.213532
C36	C	1.204900	-1.060395	-0.213554
C37	C	1.157829	-1.115266	-0.260593
C38	C	1.255504	-0.506105	-0.354618
C39	C	1.337303	-0.506113	-0.354628
C40	C	1.063586	-0.506002	-0.546550
C41	C	1.063601	-0.505966	-0.628349
C42	C	1.063615	-0.232053	-0.354628
C43	C	1.063642	-0.115276	-0.354642
C44	C	1.016587	-0.438720	-0.816546
C45	C	1.016600	-0.438699	-0.893405
C46	C	1.110703	-0.573087	-0.893389
C47	C	1.110686	-0.573113	-0.816532
C48	C	1.063629	-0.505923	-0.778112
C49	C	1.063659	-0.505876	-0.931829
C50	C	1.063673	-0.505854	-1.015162
C51	C	1.063614	-0.505947	-0.694773
C52	C	1.063559	-0.506094	-0.163391
C53	C	1.063687	-0.505833	-0.081592
H54	H	0.494187	-0.384051	-0.269372
Cl55	Cl	1.169858	-0.657546	-0.941694
H56	H	0.978204	-1.105101	-0.439955
Cl57	Cl	0.957449	-0.354224	-0.941719
H58	H	0.978124	-0.906033	-0.439921
H59	H	0.633656	-0.628146	-0.439843
Cl60	Cl	1.169826	-0.657609	-0.768211
Cl61	Cl	0.477211	-0.657944	-0.460670
Cl62	Cl	0.650649	-0.354230	-0.248548
H63	H	1.243183	-0.905988	-0.175238
Cl64	Cl	1.157891	-0.757880	-0.260722
H65	H	0.978270	-0.384010	-0.785267
H66	H	1.243270	-1.105053	-0.175277
H67	H	1.157876	-1.204611	-0.260614
