data_functionalizedCrystal
_audit_creation_method	'MofGen! by Chris Wilmer'
_symmetry_space_group_name_H-M	'P1'
_symmetry_Int_Tables_number	1
_symmetry_cell_setting	triclinic
loop_
_symmetry_equiv_pos_as_xyz
  x,y,z
_cell_length_a	15.944551
_cell_length_b	11.792241
_cell_length_c	10.268362
_cell_angle_alpha	89.999703
_cell_angle_beta	90.000094
_cell_angle_gamma	96.153923
loop_
_atom_site_label
_atom_site_type_symbol
_atom_site_fract_x
_atom_site_fract_y
_atom_site_fract_z
O1	O	-1.115185	0.146381	-0.108150
O2	O	-0.870717	0.164428	-0.108180
O3	O	-0.998883	-0.009815	-0.108172
O4	O	-0.987018	0.320624	-0.108158
O5	O	-0.998872	-0.009822	0.108428
O6	O	-0.870705	0.164421	0.108420
O7	O	-1.115173	0.146373	0.108451
Cu8	Cu	-0.992938	0.155396	0.128213
Cu9	Cu	-0.992952	0.155405	-0.127942
O10	O	-0.987007	0.320616	0.108443
C11	C	-0.839414	0.163675	0.000116
C12	C	-0.746157	0.161429	0.000103
C13	C	-1.146476	0.147126	0.000152
C14	C	-1.239733	0.149372	0.000156
C15	C	-0.987758	0.362905	0.000144
C16	C	-0.989989	0.488900	0.000150
C17	C	-0.530789	0.048056	0.000124
C18	C	-0.470012	0.100706	-0.106670
C19	C	-0.575413	0.157365	0.000119
C20	C	-0.470023	0.100725	0.106882
C21	C	-0.410483	0.153432	0.000139
C22	C	-0.515864	0.210045	-0.106763
C23	C	-0.515882	0.210049	0.106884
C24	C	-0.455123	0.262778	0.000065
C25	C	-0.670426	0.159628	0.000106
C26	C	-0.315471	0.151178	0.000142
C27	C	-0.998132	-0.052104	0.000123
C28	C	-0.995901	-0.178099	0.000109
N29	N	-0.992935	0.155390	0.308379
C30	C	-0.994091	0.719579	0.000118
C31	C	-0.991811	0.591212	0.000136
N32	N	-0.992961	0.155402	-0.308108
C33	C	-0.992947	0.155403	0.574049
C34	C	-0.992938	0.155399	0.426211
H35	H	-0.563713	-0.042662	-0.000012
H36	H	-0.449698	0.054476	-0.196960
F37	F	-0.542464	0.270426	0.224906
F38	F	-0.542265	0.270435	-0.224902
F39	F	-0.412315	0.381473	-0.000005
F40	F	-0.443492	0.040268	0.224889
