data_functionalizedCrystal
_audit_creation_method	'MofGen! by Chris Wilmer'
_symmetry_space_group_name_H-M	'P1'
_symmetry_Int_Tables_number	1
_symmetry_cell_setting	triclinic
loop_
_symmetry_equiv_pos_as_xyz
  x,y,z
_cell_length_a	16.109301
_cell_length_b	9.730223
_cell_length_c	16.109301
_cell_angle_alpha	90.002753
_cell_angle_beta	83.461481
_cell_angle_gamma	89.997484
loop_
_atom_site_label
_atom_site_type_symbol
_atom_site_fract_x
_atom_site_fract_y
_atom_site_fract_z
O1	O	1.103127	0.114207	0.106864
O2	O	1.603127	0.614207	0.606864
O3	O	0.861065	0.114230	0.120163
O4	O	1.361065	0.614230	0.620163
O5	O	0.988746	0.114204	-0.007518
O6	O	1.488746	0.614204	0.492482
O7	O	0.975446	0.114233	0.234544
O8	O	1.475446	0.614233	0.734544
O9	O	0.988744	-0.114376	-0.007515
O10	O	1.488744	0.385624	0.492485
O11	O	0.861064	-0.114350	0.120166
O12	O	1.361064	0.385650	0.620166
O13	O	1.103126	-0.114373	0.106867
O14	O	1.603126	0.385627	0.606867
Zn15	Zn	0.982094	-0.150653	0.113517
Zn16	Zn	1.482094	0.349347	0.613517
Zn17	Zn	0.982096	0.150511	0.113513
Zn18	Zn	1.482096	0.650511	0.613513
O19	O	0.975445	-0.114347	0.234547
O20	O	1.475445	0.385653	0.734547
C21	C	0.830090	-0.000057	0.119626
C22	C	1.330090	0.499943	0.619626
C23	C	0.737794	-0.000049	0.118011
C24	C	1.237794	0.499951	0.618011
N25	N	0.982099	-0.356190	0.113519
N26	N	1.482099	0.143810	0.613519
C27	C	0.515522	-0.000057	0.190018
C28	C	1.015522	0.499943	0.690018
C29	C	0.428801	-0.000066	0.188494
C30	C	0.928801	0.499934	0.688494
C31	C	0.448676	-0.000078	0.037006
C32	C	0.948676	0.499922	0.537006
C33	C	0.535394	-0.000079	0.038530
C34	C	1.035394	0.499921	0.538530
C35	C	0.568815	-0.000061	0.115039
C36	C	1.068815	0.499939	0.615039
C37	C	0.395376	-0.000069	0.111990
C38	C	0.895376	0.499931	0.611990
C39	C	0.301350	-0.000079	0.110337
C40	C	0.801350	0.499921	0.610337
C41	C	0.662847	-0.000054	0.116693
C42	C	1.162847	0.499946	0.616693
C43	C	1.038650	-0.428127	0.057001
C44	C	1.538650	0.071873	0.557001
C45	C	1.038648	-0.572010	0.056991
C46	C	1.538648	-0.072010	0.556991
C47	C	0.925541	-0.572006	0.170024
C48	C	1.425541	-0.072006	0.670024
C49	C	0.925540	-0.428125	0.170030
C50	C	1.425540	0.071875	0.670030
C51	C	1.095210	-0.356192	0.000491
C52	C	1.595210	0.143808	0.500491
C53	C	1.151767	-0.428129	-0.056031
C54	C	1.651767	0.071871	0.443969
C55	C	1.151764	-0.572012	-0.056041
C56	C	1.651764	-0.072012	0.443959
C57	C	1.095206	-0.643958	0.000471
C58	C	1.595206	-0.143958	0.500471
C59	C	1.134101	-0.000082	0.107404
C60	C	1.634101	0.499918	0.607404
C61	C	1.226397	-0.000081	0.109019
C62	C	1.726397	0.499919	0.609019
C63	C	0.988206	-0.000087	-0.038491
C64	C	1.488206	0.499913	0.461509
C65	C	0.986591	-0.000088	-0.130786
C66	C	1.486591	0.499912	0.369214
N67	N	0.982098	0.356047	0.113504
N68	N	1.482098	0.856047	0.613504
C69	C	1.058599	-0.000073	-0.353059
C70	C	1.558599	0.499927	0.146941
C71	C	1.057075	-0.000062	-0.439779
C72	C	1.557075	0.499938	0.060221
C73	C	0.905586	-0.000053	-0.419905
C74	C	1.405586	0.499947	0.080095
C75	C	0.907111	-0.000055	-0.333186
C76	C	1.407111	0.499945	0.166814
C77	C	0.983620	-0.000072	-0.299766
C78	C	1.483620	0.499928	0.200234
C79	C	0.980571	-0.000059	-0.473205
C80	C	1.480571	0.499941	0.026795
C81	C	0.978918	-0.000046	-0.567231
C82	C	1.478918	0.499954	-0.067231
C83	C	0.985273	-0.000082	-0.205734
C84	C	1.485273	0.499918	0.294266
C85	C	0.975984	-0.000053	0.265521
C86	C	1.475984	0.499947	0.765521
C87	C	0.977600	-0.000042	0.357816
C88	C	1.477600	0.499958	0.857816
H89	H	0.542730	-0.000053	0.252317
H90	H	1.042730	0.499947	0.752317
H91	H	0.578788	-0.000087	-0.022530
H92	H	1.078788	0.499913	0.477470
H93	H	0.385413	-0.000065	0.249550
H94	H	0.885413	0.499935	0.749550
O95	O	0.416071	-0.000023	-0.037239
O96	O	0.916071	0.499977	0.462761
C97	C	0.328102	-0.000052	-0.022509
C98	C	0.828102	0.499948	0.477491
H99	H	0.307718	0.043227	0.042378
H100	H	0.807718	0.543227	0.542378
H101	H	0.301491	0.066310	-0.071461
H102	H	0.801491	0.566310	0.428539
H103	H	0.303965	-0.109713	-0.026533
H104	H	0.803965	0.390287	0.473467
H105	H	1.120897	-0.000084	-0.325851
H106	H	1.620897	0.499916	0.174149
H107	H	1.095218	-0.239035	0.000495
H108	H	1.595218	0.260965	0.500495
H109	H	1.118130	-0.000060	-0.483168
H110	H	1.618130	0.499940	0.016832
O111	O	1.206642	-0.358036	-0.110874
O112	O	1.706642	0.141964	0.389126
C113	C	1.194491	-0.215616	-0.098778
C114	C	1.694491	0.284384	0.401222
H115	H	1.163436	-0.195949	-0.032672
H116	H	1.663436	0.304051	0.467328
H117	H	1.257443	-0.160916	-0.108055
H118	H	1.757443	0.339084	0.391945
H119	H	1.152768	-0.174819	-0.145823
H120	H	1.652768	0.325181	0.354177
O121	O	1.206777	-0.641681	-0.110977
O122	O	1.706777	-0.141681	0.389023
C123	C	1.256679	-0.547330	-0.160865
C124	C	1.756679	-0.047330	0.339135
H125	H	1.257604	-0.444771	-0.126770
H126	H	1.757604	0.055229	0.373230
H127	H	1.323076	-0.588907	-0.173527
H128	H	1.823076	-0.088907	0.326473
H129	H	1.229709	-0.532019	-0.222638
H130	H	1.729709	-0.032019	0.277362
H131	H	1.095203	-0.761117	0.000452
H132	H	1.595203	-0.261117	0.500452
O133	O	0.870688	-0.642102	0.224889
O134	O	1.370688	-0.142102	0.724889
C135	C	0.882804	-0.784521	0.212752
C136	C	1.382804	-0.284521	0.712752
H137	H	0.948911	-0.804171	0.181697
H138	H	1.448911	-0.304171	0.681697
H139	H	0.873536	-0.839204	0.275710
H140	H	1.373536	-0.339204	0.775710
H141	H	0.835762	-0.825350	0.171035
H142	H	1.335762	-0.325350	0.671035
O143	O	0.870578	-0.358449	0.225014
O144	O	1.370578	0.141551	0.725014
C145	C	0.820650	-0.452790	0.274882
C146	C	1.320650	0.047210	0.774882
H147	H	0.854732	-0.555358	0.275832
H148	H	1.354732	-0.055358	0.775832
H149	H	0.807944	-0.411214	0.341276
H150	H	1.307944	0.088786	0.841276
H151	H	0.758900	-0.468085	0.247865
H152	H	1.258900	0.031915	0.747865
H153	H	0.843295	-0.000042	-0.447127
H154	H	1.343295	0.499958	0.052873
O155	O	0.834195	-0.000115	-0.281530
O156	O	1.334195	0.499885	0.218470
C157	C	0.766339	-0.000077	-0.329621
C158	C	1.266339	0.499923	0.170379
H159	H	0.787453	-0.043356	-0.394352
H160	H	1.287453	0.456644	0.105648
H161	H	0.713807	-0.066435	-0.297613
H162	H	1.213807	0.433565	0.202387
H163	H	0.742887	0.109586	-0.335784
H164	H	1.242887	0.609586	0.164216
