data_functionalizedCrystal
_audit_creation_method	'MofGen! by Chris Wilmer'
_symmetry_space_group_name_H-M	'P1'
_symmetry_Int_Tables_number	1
_symmetry_cell_setting	triclinic
loop_
_symmetry_equiv_pos_as_xyz
  x,y,z
_cell_length_a	17.639044
_cell_length_b	17.638516
_cell_length_c	21.395355
_cell_angle_alpha	78.812630
_cell_angle_beta	78.795160
_cell_angle_gamma	87.880837
loop_
_atom_site_label
_atom_site_type_symbol
_atom_site_fract_x
_atom_site_fract_y
_atom_site_fract_z
Zn1	Zn	1.099674	-0.536874	0.263635
Zn2	Zn	1.599674	-0.036874	0.763635
Zn3	Zn	1.073889	-0.663835	0.183330
Zn4	Zn	1.573889	-0.163835	0.683330
Zn5	Zn	0.972688	-0.511229	0.175158
Zn6	Zn	1.472688	-0.011229	0.675158
Zn7	Zn	0.946987	-0.638187	0.304342
Zn8	Zn	1.446987	-0.138187	0.804342
O9	O	1.023310	-0.587531	0.231616
O10	O	1.523310	-0.087531	0.731616
O11	O	1.202507	-0.575182	0.239366
O12	O	1.702507	-0.075182	0.739366
O13	O	1.060429	-0.643593	0.094574
O14	O	1.560429	-0.143593	0.594574
O15	O	1.011080	-0.408365	0.166439
O16	O	1.511080	0.091635	0.666439
O17	O	1.183563	-0.668460	0.180366
O18	O	1.683563	-0.168460	0.680366
O19	O	1.104376	-0.427206	0.231442
O20	O	1.604376	0.072794	0.731442
O21	O	0.986077	-0.531474	0.088570
O22	O	1.486077	-0.031474	0.588570
O23	O	0.863025	-0.506603	0.205911
O24	O	1.363025	-0.006603	0.705911
O25	O	0.967277	-0.624746	0.386614
O26	O	1.467277	-0.124746	0.886614
O27	O	0.844143	-0.599879	0.300822
O28	O	1.344143	-0.099879	0.800822
O29	O	1.079456	-0.550312	0.356707
O30	O	1.579456	-0.050312	0.856707
O31	O	1.035508	-0.766699	0.219838
O32	O	1.535508	-0.266699	0.719838
O33	O	0.942274	-0.747855	0.308746
O34	O	1.442274	-0.247855	0.808746
C35	C	0.826034	-0.547676	0.256897
C36	C	1.326034	-0.047676	0.756897
C37	C	0.741635	-0.530644	0.267731
C38	C	1.241635	-0.030644	0.767731
C39	C	0.632524	-0.458152	0.313792
C40	C	1.132524	0.041848	0.813792
C41	C	0.711829	-0.474162	0.303609
C42	C	1.211829	0.025838	0.803609
C43	C	0.692142	-0.571135	0.242020
C44	C	1.192142	-0.071135	0.742020
C45	C	0.612835	-0.555130	0.252195
C46	C	1.112835	-0.055130	0.752195
C47	C	0.583032	-0.498639	0.288083
C48	C	1.083032	0.001361	0.788083
C49	C	0.563343	-0.595617	0.226486
C50	C	1.063343	-0.095617	0.726486
C51	C	0.484042	-0.579616	0.236663
C52	C	0.984042	-0.079616	0.736663
C53	C	0.454233	-0.523129	0.272551
C54	C	0.954233	-0.023129	0.772551
C55	C	0.503731	-0.482638	0.298260
C56	C	1.003731	0.017362	0.798260
C57	C	0.593146	-0.652112	0.190602
C58	C	1.093146	-0.152112	0.690602
C59	C	0.543654	-0.692599	0.164893
C60	C	1.043654	-0.192599	0.664893
C61	C	0.464353	-0.676594	0.175066
C62	C	0.964353	-0.176594	0.675066
C63	C	0.434544	-0.620107	0.210954
C64	C	0.934544	-0.120107	0.710954
C65	C	0.414854	-0.717085	0.149357
C66	C	0.914854	-0.217085	0.649357
C67	C	0.335553	-0.701085	0.159534
C68	C	0.835553	-0.201085	0.659534
C69	C	0.355243	-0.604106	0.221131
C70	C	0.855243	-0.104106	0.721131
C71	C	0.983325	-0.784835	0.269607
C72	C	1.483325	-0.284835	0.769607
C73	C	0.966289	-0.869256	0.285872
C74	C	1.466289	-0.369256	0.785872
C75	C	1.153188	-1.195869	0.108045
C76	C	1.653188	-0.695869	0.608045
C77	C	1.137167	-1.275193	0.123340
C78	C	1.637167	-0.775193	0.623340
C79	C	1.040000	-1.255599	0.215866
C80	C	1.540000	-0.755599	0.715866
C81	C	1.056011	-1.176271	0.200577
C82	C	1.556011	-0.676271	0.700577
C83	C	1.112606	-1.146413	0.146666
C84	C	1.612606	-0.646413	0.646666
C85	C	1.015429	-1.126815	0.239198
C86	C	1.515429	-0.626815	0.739198
C87	C	1.031441	-1.047494	0.223912
C88	C	1.531441	-0.547494	0.723912
C89	C	1.088035	-1.017630	0.170004
C90	C	1.588035	-0.517630	0.670004
C91	C	1.128618	-1.067092	0.131380
C92	C	1.628618	-0.567092	0.631380
C93	C	0.958838	-1.156675	0.293111
C94	C	1.458838	-0.656675	0.793111
C95	C	0.918256	-1.107219	0.331732
C96	C	1.418256	-0.607219	0.831732
C97	C	0.934264	-1.027897	0.316444
C98	C	1.434264	-0.527897	0.816444
C99	C	0.990858	-0.998032	0.262537
C100	C	1.490858	-0.498032	0.762537
C101	C	0.893681	-0.978435	0.355069
C102	C	1.393681	-0.478435	0.855069
C103	C	0.909693	-0.899114	0.339783
C104	C	1.409693	-0.399114	0.839783
C105	C	1.006871	-0.918712	0.247250
C106	C	1.506871	-0.418712	0.747250
C107	C	1.221355	-0.627543	0.206237
C108	C	1.721355	-0.127543	0.706237
C109	C	1.305751	-0.644593	0.195422
C110	C	1.805751	-0.144593	0.695422
C111	C	1.023376	-0.587528	0.395029
C112	C	1.523376	-0.087528	0.895029
C113	C	1.023404	-0.587527	0.464665
C114	C	1.523404	-0.087527	0.964665
C115	C	1.063471	-0.389461	0.193488
C116	C	1.563471	0.110539	0.693488
C117	C	1.080586	-0.305056	0.177241
C118	C	1.580586	0.194944	0.677241
C119	C	1.023299	-0.587488	0.068824
C120	C	1.523299	-0.087488	0.568824
C121	C	1.023461	-0.587305	-0.000873
C122	C	1.523461	-0.087305	0.499127
C123	C	1.081814	-0.548767	0.481806
C124	C	1.581814	-0.048767	0.981806
C125	C	1.081819	-0.548734	0.547236
C126	C	1.581819	-0.048734	1.047236
C127	C	1.023420	-0.587477	0.595523
C128	C	1.523420	-0.087477	1.095523
C129	C	0.965001	-0.626238	0.578376
C130	C	1.465001	-0.126238	1.078376
C131	C	0.964992	-0.626264	0.512947
C132	C	1.464992	-0.126264	1.012947
C133	C	1.003568	-0.654643	0.713132
C134	C	1.503568	-0.154643	1.213132
C135	C	1.003581	-0.654620	0.778560
C136	C	1.503581	-0.154620	1.278560
C137	C	1.023441	-0.587397	0.797328
C138	C	1.523441	-0.087397	1.297328
C139	C	1.043305	-0.520199	0.750658
C140	C	1.543305	-0.020199	1.250658
C141	C	1.043296	-0.520224	0.685229
C142	C	1.543296	-0.020224	1.185229
C143	C	1.023422	-0.587453	0.666471
C144	C	1.523422	-0.087453	1.166471
C145	C	1.081860	-0.548598	0.885414
C146	C	1.581860	-0.048598	1.385414
C147	C	1.081861	-0.548563	0.950845
C148	C	1.581861	-0.048563	1.450845
C149	C	0.965045	-0.626075	0.981984
C150	C	1.465045	-0.126075	1.481984
C151	C	0.965042	-0.626102	0.916554
C152	C	1.465042	-0.126102	1.416554
C153	C	1.023453	-0.587366	0.868272
C154	C	1.523453	-0.087366	1.368272
H155	H	0.389660	-0.510105	0.280839
H156	H	0.889660	-0.010105	0.780839
H157	H	0.330978	-0.558097	0.250346
H158	H	0.830978	-0.058097	0.750346
H159	H	0.608260	-0.412142	0.343007
H160	H	1.108260	0.087858	0.843007
C161	C	0.900805	-0.668693	1.035096
C162	C	1.400805	-0.168693	1.535096
N163	N	0.852418	-0.700794	1.075104
N164	N	1.352418	-0.200794	1.575104
C165	C	0.855999	-1.140072	0.391030
C166	C	1.355999	-0.640072	0.891030
N167	N	0.809102	-1.164815	0.435692
N168	N	1.309102	-0.664815	0.935692
C169	C	1.065151	-0.446247	0.771297
C170	C	1.565151	0.053753	1.271297
N171	N	1.081606	-0.390549	0.786845
N172	N	1.581606	0.109451	1.286845
H173	H	1.129376	-0.517224	0.442498
H174	H	1.629376	-0.017224	0.942498
H175	H	0.847607	-1.002759	0.398966
H176	H	1.347607	-0.502759	0.898966
H177	H	0.917425	-0.657825	0.498993
H178	H	1.417425	-0.157825	0.998993
C179	C	0.470945	-0.420491	0.337735
C180	C	0.970945	0.079509	0.837735
N181	N	0.446250	-0.373685	0.367468
N182	N	0.946250	0.126315	0.867468
H183	H	0.945806	-1.221264	0.305558
H184	H	1.445806	-0.721264	0.805558
H185	H	0.752124	-0.441186	0.324545
H186	H	1.252124	0.058814	0.824545
C187	C	0.865040	-0.844707	0.382260
C188	C	1.365040	-0.344707	0.882260
N189	N	0.831403	-0.803727	0.414254
N190	N	1.331403	-0.303727	0.914254
C191	C	1.146081	-0.506099	0.566097
C192	C	1.646081	-0.006099	1.066097
N193	N	1.194484	-0.473988	0.580301
N194	N	1.694484	0.026012	1.080301
C195	C	1.105648	-0.930375	0.153189
C196	C	1.605648	-0.430375	0.653189
N197	N	1.118913	-0.864653	0.140522
N198	N	1.618913	-0.364653	0.640522
C199	C	0.724935	-0.633269	0.202540
C200	C	1.224935	-0.133269	0.702540
N201	N	0.749635	-0.680066	0.172799
N202	N	1.249635	-0.180066	0.672799
H203	H	0.987195	-0.709328	0.697882
H204	H	1.487195	-0.209328	1.197882
H205	H	1.174699	-1.042780	0.087476
H206	H	1.674699	-0.542780	0.587476
H207	H	0.295255	-0.734055	0.138601
H208	H	0.795255	-0.234055	0.638601
C209	C	1.146119	-0.505919	0.969698
C210	C	1.646119	-0.005919	1.469698
N211	N	1.194519	-0.473800	0.983898
N212	N	1.694519	0.026200	1.483898
H213	H	0.657721	-0.665126	0.182305
H214	H	1.157721	-0.165126	0.682305
C215	C	0.576448	-0.754733	0.125413
C216	C	1.076448	-0.254733	0.625413
N217	N	0.601147	-0.801530	0.095672
N218	N	1.101147	-0.301530	0.595672
C219	C	1.065135	-0.446304	0.633897
C220	C	1.565135	0.053696	1.133897
N221	N	1.081580	-0.390625	0.595233
N222	N	1.581580	0.109375	1.095233
C223	C	0.977743	-1.288452	0.275163
C224	C	1.477743	-0.788452	0.775163
N225	N	0.930847	-1.313195	0.319825
N226	N	1.430847	-0.813195	0.819825
C227	C	1.146108	-0.505979	0.832301
C228	C	1.646108	-0.005979	1.332301
N229	N	1.194500	-0.473877	0.792298
N230	N	1.694500	0.026123	1.292298
C231	C	1.215449	-1.163021	0.048741
C232	C	1.715449	-0.663021	0.548741
N233	N	1.262344	-1.138280	0.004078
N234	N	1.762344	-0.638280	0.504078
C235	C	0.900788	-0.668746	0.897698
C236	C	1.400788	-0.168746	1.397698
N237	N	0.852388	-0.700865	0.883498
N238	N	1.352388	-0.200865	1.383498
H239	H	0.439131	-0.763086	0.120143
H240	H	0.939131	-0.263086	0.620143
H241	H	1.170220	-1.315459	0.091887
H242	H	1.670220	-0.815459	0.591887
C243	C	0.981731	-0.728539	0.829890
C244	C	1.481731	-0.228539	1.329890
N245	N	0.965271	-0.784217	0.868551
N246	N	1.465271	-0.284217	1.368551
C247	C	0.900759	-0.668851	0.631493
C248	C	1.400759	-0.168851	1.131493
N249	N	0.852368	-0.700945	0.671501
N250	N	1.352368	-0.200945	1.171501
H251	H	1.052951	-0.894400	0.203347
H252	H	1.552951	-0.394400	0.703347
