data_functionalizedCrystal
_audit_creation_method	'MofGen! by Chris Wilmer'
_symmetry_space_group_name_H-M	'P1'
_symmetry_Int_Tables_number	1
_symmetry_cell_setting	triclinic
loop_
_symmetry_equiv_pos_as_xyz
  x,y,z
_cell_length_a	21.295417
_cell_length_b	16.959455
_cell_length_c	16.959447
_cell_angle_alpha	90.018875
_cell_angle_beta	89.966081
_cell_angle_gamma	89.974724
loop_
_atom_site_label
_atom_site_type_symbol
_atom_site_fract_x
_atom_site_fract_y
_atom_site_fract_z
Zn1	Zn	-0.250693	-1.208355	-0.446901
Zn2	Zn	-0.355967	-1.208245	-0.314711
Zn3	Zn	-0.250706	-1.076175	-0.314736
Zn4	Zn	-0.355918	-1.076124	-0.446848
O5	O	-0.303321	-1.142225	-0.380799
O6	O	-0.264672	-1.318951	-0.429377
O7	O	-0.342030	-1.190701	-0.204104
O8	O	-0.162615	-1.093776	-0.332301
O9	O	-0.342017	-1.318870	-0.332258
O10	O	-0.162605	-1.190888	-0.429402
O11	O	-0.264695	-1.093670	-0.204122
O12	O	-0.264648	-0.965557	-0.332249
O13	O	-0.341934	-1.093689	-0.557466
O14	O	-0.341947	-0.965520	-0.429311
O15	O	-0.264625	-1.190839	-0.557505
O16	O	-0.444050	-1.190651	-0.332207
O17	O	-0.444014	-1.093583	-0.429287
C18	C	-0.303294	-0.936858	-0.380778
C19	C	-0.303298	-0.849002	-0.380787
C20	C	-0.263018	-0.477521	-0.330354
C21	C	-0.343635	-0.477531	-0.431268
C22	C	-0.343629	-0.560077	-0.431265
C23	C	-0.303317	-0.601349	-0.380804
C24	C	-0.263012	-0.560075	-0.330347
C25	C	-0.383938	-0.601357	-0.481715
C26	C	-0.383933	-0.683908	-0.481713
C27	C	-0.343618	-0.725181	-0.431256
C28	C	-0.303311	-0.683902	-0.380798
C29	C	-0.262999	-0.725174	-0.330337
C30	C	-0.222688	-0.683897	-0.279882
C31	C	-0.222696	-0.601348	-0.279890
C32	C	-0.343609	-0.807730	-0.431248
C33	C	-0.262992	-0.807728	-0.330330
C34	C	-0.466873	-1.142121	-0.380755
C35	C	-0.536841	-1.142149	-0.380763
C36	C	-0.569705	-1.192738	-0.330265
C37	C	-0.635448	-1.192775	-0.330283
C38	C	-0.668323	-1.142209	-0.380790
C39	C	-0.635451	-1.091617	-0.431298
C40	C	-0.569710	-1.091587	-0.431284
N41	N	-0.771584	-1.073063	-0.386809
N42	N	-0.834035	-1.073093	-0.386817
C43	C	-0.866398	-1.142298	-0.380836
N44	N	-0.833950	-1.211471	-0.374830
N45	N	-0.771493	-1.211440	-0.374817
C46	C	-0.739608	-1.142236	-0.380811
C47	C	-0.970548	-1.192931	-0.330354
C48	C	-1.036291	-1.192969	-0.330378
C49	C	-1.036293	-1.091804	-0.431388
C50	C	-0.970551	-1.091773	-0.431369
C51	C	-0.937682	-1.142335	-0.380848
C52	C	-0.139131	-1.142350	-0.380860
C53	C	-0.069162	-1.142404	-0.380886
C54	C	-0.303272	-1.142271	-0.586967
C55	C	-0.303252	-1.142290	-0.674824
C56	C	-0.303341	-0.348393	-0.380817
C57	C	-0.303330	-0.436249	-0.380815
C58	C	-0.343506	-1.192820	-0.716090
C59	C	-0.262982	-1.091774	-0.716112
C60	C	-0.262963	-1.091788	-0.798658
C61	C	-0.303217	-1.142317	-0.839924
C62	C	-0.343490	-1.192834	-0.798644
C63	C	-0.222696	-1.041267	-0.839944
C64	C	-0.222676	-1.041278	-0.922495
C65	C	-0.262928	-1.091812	-0.963762
C66	C	-0.303201	-1.142331	-0.922477
C67	C	-0.343456	-1.192861	-0.963743
C68	C	-0.383727	-1.243384	-0.922460
C69	C	-0.383741	-1.243368	-0.839911
C70	C	-0.262913	-1.091828	-1.046311
C71	C	-0.343440	-1.192874	-1.046297
C72	C	-0.303324	-1.142224	-0.175433
C73	C	-0.303167	-1.142358	-0.087577
H74	H	-0.376459	-0.443923	-0.472346
C75	C	-0.428281	-0.555963	-0.537218
C76	C	-0.423238	-0.567357	-0.627086
C77	C	-0.467583	-0.521960	-0.682593
C78	C	-0.516971	-0.465170	-0.648231
C79	C	-0.522016	-0.453773	-0.558358
C80	C	-0.477671	-0.499170	-0.502852
H81	H	-0.386677	-0.609399	-0.652527
H82	H	-0.463849	-0.530397	-0.749123
H83	H	-0.549798	-0.431564	-0.689320
H84	H	-0.558578	-0.411731	-0.532917
H85	H	-0.481405	-0.490733	-0.436322
H86	H	-1.063060	-1.050636	-0.472516
C87	C	-0.178347	-0.729302	-0.224377
C88	C	-0.128963	-0.786095	-0.258743
C89	C	-0.084623	-0.831505	-0.203240
C90	C	-0.089667	-0.820122	-0.113371
C91	C	-0.139053	-0.763326	-0.079000
C92	C	-0.183393	-0.717916	-0.134503
H93	H	-0.125227	-0.794524	-0.325274
H94	H	-0.048064	-0.873549	-0.228684
H95	H	-0.056845	-0.853737	-0.072284
H96	H	-0.142789	-0.754897	-0.012469
H97	H	-0.219952	-0.675872	-0.109059
H98	H	-0.662211	-1.233973	-0.289162
H99	H	-0.230212	-1.050631	-0.682508
C100	C	-0.387946	-0.853136	-0.486740
C101	C	-0.459502	-0.841756	-0.480118
C102	C	-0.503841	-0.887162	-0.535614
C103	C	-0.476625	-0.943949	-0.597732
C104	C	-0.405065	-0.955333	-0.604356
C105	C	-0.360726	-0.909926	-0.548860
H106	H	-0.479653	-0.799716	-0.434133
H107	H	-0.556815	-0.878735	-0.530710
H108	H	-0.509447	-0.977562	-0.638814
H109	H	-0.384914	-0.997372	-0.650342
H110	H	-0.307753	-0.918353	-0.553764
H111	H	-0.542951	-1.050391	-0.472407
H112	H	-1.063048	-1.234169	-0.289258
C113	C	-0.934396	-1.036119	-0.486914
C114	C	-0.970553	-0.980499	-0.542475
C115	C	-0.934398	-0.924846	-0.598026
C116	C	-0.862085	-0.924813	-0.598016
C117	C	-0.825924	-0.980435	-0.542453
C118	C	-0.862079	-1.036088	-0.486902
H119	H	-1.024087	-0.980521	-0.542485
H120	H	-0.961168	-0.883671	-0.639158
H121	H	-0.835321	-0.883615	-0.639139
H122	H	-0.772390	-0.980413	-0.542444
H123	H	-0.835309	-1.077264	-0.445770
C124	C	-0.178424	-0.985684	-0.794548
C125	C	-0.129016	-1.019959	-0.737825
C126	C	-0.084743	-0.964375	-0.692423
C127	C	-0.089878	-0.874515	-0.703744
C128	C	-0.139288	-0.840235	-0.760470
C129	C	-0.183560	-0.895820	-0.805872
H130	H	-0.125214	-1.086483	-0.729442
H131	H	-0.048167	-0.989751	-0.650431
H132	H	-0.057104	-0.833368	-0.670135
H133	H	-0.143090	-0.773711	-0.768853
H134	H	-0.220137	-0.870443	-0.847864
H135	H	-0.230196	-0.443909	-0.289277
C136	C	-0.387721	-1.248459	-1.091686
C137	C	-0.459284	-1.241961	-1.080300
C138	C	-0.503565	-1.297546	-1.125690
C139	C	-0.476283	-1.359630	-1.182465
C140	C	-0.404716	-1.366130	-1.193853
C141	C	-0.360435	-1.310545	-1.148464
H142	H	-0.479483	-1.196001	-1.038270
H143	H	-0.556543	-1.292734	-1.117259
H144	H	-0.509062	-1.400777	-1.216064
H145	H	-0.384517	-1.412090	-1.235883
H146	H	-0.307456	-1.315358	-1.156895
H147	H	-0.230126	-1.050692	-1.079920
C148	C	-0.428008	-1.298960	-0.967860
C149	C	-0.499572	-1.292455	-0.956481
C150	C	-0.543854	-1.348026	-1.001886
C151	C	-0.516572	-1.410101	-1.058671
C152	C	-0.445005	-1.416608	-1.070052
C153	C	-0.400723	-1.361037	-1.024647
H154	H	-0.519771	-1.246501	-0.914444
H155	H	-0.596832	-1.343209	-0.993461
H156	H	-0.549352	-1.451238	-1.092283
H157	H	-0.424806	-1.462562	-1.112090
H158	H	-0.347744	-1.365854	-1.033073
H159	H	-0.416756	-0.717509	-0.522797
H160	H	-0.230161	-0.841326	-0.289244
H161	H	-0.189878	-0.567733	-0.238812
C162	C	-0.671611	-1.035994	-0.486856
C163	C	-0.716865	-0.973975	-0.452558
C164	C	-0.753025	-0.918353	-0.508122
C165	C	-0.743931	-0.924750	-0.597984
C166	C	-0.698676	-0.986772	-0.632286
C167	C	-0.662516	-1.042393	-0.576723
H168	H	-0.723598	-0.969237	-0.386033
H169	H	-0.786526	-0.872440	-0.482728
H170	H	-0.770699	-0.883575	-0.639115
H171	H	-0.691942	-0.991509	-0.698812
H172	H	-0.629015	-1.088306	-0.602116
H173	H	-0.542945	-1.233910	-0.289130
H174	H	-0.943785	-1.234104	-0.289219
H175	H	-0.376292	-1.233957	-0.682473
H176	H	-0.416529	-1.284500	-0.806291
H177	H	-0.189885	-1.000139	-0.956101
