data_functionalizedCrystal
_audit_creation_method	'MofGen! by Chris Wilmer'
_symmetry_space_group_name_H-M	'P1'
_symmetry_Int_Tables_number	1
_symmetry_cell_setting	triclinic
loop_
_symmetry_equiv_pos_as_xyz
  x,y,z
_cell_length_a	17.640112
_cell_length_b	25.639239
_cell_length_c	25.639243
_cell_angle_alpha	90.014050
_cell_angle_beta	78.818730
_cell_angle_gamma	101.263838
loop_
_atom_site_label
_atom_site_type_symbol
_atom_site_fract_x
_atom_site_fract_y
_atom_site_fract_z
Zn1	Zn	1.208282	-0.046440	0.134304
Zn2	Zn	1.208171	-0.133866	0.046883
Zn3	Zn	1.076117	-0.064130	0.064526
Zn4	Zn	1.076028	-0.151556	0.151928
O5	O	1.142149	-0.098998	0.099410
O6	O	1.318881	-0.043231	0.107947
O7	O	1.190645	-0.124616	-0.023941
O8	O	1.093732	0.011393	0.073790
O9	O	1.318800	-0.107462	0.043719
O10	O	1.190833	0.024390	0.125055
O11	O	1.093625	-0.073381	-0.010978
O12	O	0.965491	-0.090534	0.090880
O13	O	1.093581	-0.137612	0.222754
O14	O	0.965426	-0.154765	0.155094
O15	O	1.190747	-0.060384	0.209806
O16	O	1.190559	-0.209389	0.060809
O17	O	1.093474	-0.222386	0.137986
C18	C	0.936777	-0.126489	0.126815
C19	C	0.848918	-0.138262	0.138551
C20	C	0.560020	-0.009548	0.010257
C21	C	0.477463	-0.020621	0.021292
C22	C	0.477450	-0.087598	0.088042
C23	C	0.560008	-0.076528	0.077015
C24	C	0.601287	-0.037503	0.038121
C25	C	0.601275	-0.104483	0.104879
C26	C	0.683827	-0.093416	0.093850
C27	C	0.725111	-0.054394	0.054957
C28	C	0.683839	-0.026436	0.027092
C29	C	0.559995	-0.143511	0.143770
C30	C	0.601262	-0.171466	0.171634
C31	C	0.683815	-0.160396	0.160608
C32	C	0.725100	-0.121374	0.121715
C33	C	0.725088	-0.188354	0.188473
C34	C	0.807639	-0.177287	0.177444
C35	C	0.807651	-0.110307	0.110686
C36	C	1.142016	-0.234858	0.099404
C37	C	1.142032	-0.292970	0.099409
C38	C	1.192834	-0.646520	0.059264
C39	C	1.192864	-0.701120	0.059267
O40	O	1.235920	-0.723583	0.025126
N41	N	1.142288	-0.735218	0.099426
C42	C	1.091684	-0.714713	0.139589
O43	O	1.048669	-0.748730	0.173748
C44	C	1.091658	-0.660113	0.139587
C45	C	1.142232	-0.626018	0.099422
C46	C	1.243404	-0.612426	0.019102
C47	C	1.243372	-0.557829	0.019099
C48	C	1.192770	-0.537328	0.059257
C49	C	1.142200	-0.571422	0.099419
C50	C	1.041058	-0.639609	0.179751
C51	C	1.041037	-0.585004	0.179747
C52	C	1.091611	-0.550909	0.139582
C53	C	1.091566	-0.496324	0.139574
N54	N	1.142142	-0.462226	0.099414
C55	C	1.192744	-0.482728	0.059256
C56	C	1.091744	-0.829376	0.139589
C57	C	1.091765	-0.883975	0.139588
C58	C	1.192946	-0.870378	0.059267
C59	C	1.192920	-0.815779	0.059266
C60	C	1.142320	-0.795278	0.099429
C61	C	1.192673	-0.368072	0.059252
C62	C	1.192634	-0.313472	0.059251
C63	C	1.091456	-0.327073	0.139574
C64	C	1.091491	-0.381669	0.139573
C65	C	1.142106	-0.402166	0.099410
O66	O	1.048535	-0.473824	0.173699
O67	O	1.235759	-0.448704	0.025106
C68	C	1.348324	-0.071400	0.071899
C69	C	1.436183	-0.059639	0.060176
C70	C	1.142166	-0.098998	0.235781
C71	C	1.142173	-0.098998	0.293894
C72	C	1.142304	0.037396	0.099425
C73	C	1.142370	0.095519	0.099431
C74	C	1.192664	-0.125683	0.538334
C75	C	1.192666	-0.125683	0.483729
O76	O	1.235605	-0.148384	0.449749
N77	N	1.142158	-0.099005	0.463170
C78	C	1.091638	-0.072330	0.497219
O79	O	1.048677	-0.049639	0.474718
C80	C	1.091633	-0.072333	0.551823
C81	C	1.142150	-0.099008	0.572379
C82	C	1.243177	-0.152356	0.558890
C83	C	1.243176	-0.152354	0.613491
C84	C	1.192662	-0.125680	0.647535
C85	C	1.142149	-0.099006	0.626979
C86	C	1.041110	-0.045661	0.585872
C87	C	1.041108	-0.045666	0.640479
C88	C	1.091626	-0.072341	0.661035
C89	C	1.091634	-0.072330	0.715625
N90	N	1.142142	-0.099008	0.736184
C91	C	1.192656	-0.125682	0.702139
C92	C	1.091653	-0.072327	0.382547
C93	C	1.091662	-0.072320	0.327943
C94	C	1.192689	-0.125675	0.314457
C95	C	1.192684	-0.125677	0.369061
C96	C	1.142161	-0.099004	0.403106
C97	C	1.192650	-0.125677	0.816805
C98	C	1.192647	-0.125671	0.871411
C99	C	1.091617	-0.072319	0.884893
C100	C	1.091623	-0.072323	0.830291
C101	C	1.142142	-0.099005	0.796249
O102	O	1.048714	-0.049643	0.749637
O103	O	1.235603	-0.148376	0.724649
C104	C	1.142130	-0.099007	0.963570
C105	C	1.142133	-0.098996	0.905456
H106	H	0.792330	-0.045385	0.045977
N107	N	1.037182	-0.043548	0.305771
H108	H	1.069334	-0.015014	0.278834
H109	H	1.005193	-0.026682	0.335657
H110	H	0.841263	-0.078521	0.079023
H111	H	0.567642	-0.203241	0.203300
H112	H	0.593632	0.022238	-0.021407
H113	H	1.284614	-0.629111	-0.013600
N114	N	1.247469	-0.779006	0.015947
H115	H	1.279526	-0.800285	-0.009491
H116	H	1.284019	-0.751428	0.032370
N117	N	1.036943	-0.418448	0.182891
H118	H	1.000349	-0.446038	0.166511
H119	H	1.004933	-0.397133	0.208315
H120	H	0.841240	-0.200051	0.200135
N121	N	1.247526	-0.892496	0.015951
H122	H	1.239866	-0.932258	0.022051
H123	H	1.303966	-0.875355	0.016587
H124	H	1.233817	-0.285713	0.026542
H125	H	0.999833	-0.568316	0.212455
N126	N	1.247173	-0.154446	0.277730
H127	H	1.239421	-0.150460	0.240033
H128	H	1.234903	-0.193427	0.288955
H129	H	0.443867	0.002150	-0.001398
H130	H	1.233890	-0.384754	0.026548
H131	H	0.492776	-0.152520	0.152748
N132	N	1.037205	-0.920748	0.182902
H133	H	1.005145	-0.899470	0.208338
H134	H	1.069360	-0.939067	0.202831
N135	N	0.680566	-0.230445	0.230421
H136	H	0.694907	-0.265865	0.220317
H137	H	0.622021	-0.233170	0.233160
N138	N	1.036875	-0.304956	0.182883
H139	H	1.044535	-0.265194	0.176784
H140	H	1.049142	-0.312833	0.218595
H141	H	0.999972	-0.023940	0.569146
H142	H	1.284555	-0.530071	-0.013606
N143	N	1.247133	-0.154449	0.893576
H144	H	1.214981	-0.182981	0.920514
H145	H	1.283783	-0.128262	0.911318
H146	H	1.050532	-0.812688	0.172294
H147	H	0.717450	0.005350	-0.004571
N148	N	1.037162	-0.043553	0.419265
H149	H	1.005171	-0.026654	0.397950
H150	H	1.069362	-0.015046	0.437633
H151	H	0.443829	-0.119373	0.119708
N152	N	0.986521	-0.676370	0.223080
H153	H	0.994209	-0.714073	0.216996
H154	H	0.930070	-0.674425	0.222449
H155	H	1.233793	-0.147400	0.789093
H156	H	1.284310	-0.174078	0.630222
N157	N	1.297663	-0.181131	0.522175
H158	H	1.329655	-0.198026	0.543492
H159	H	1.334274	-0.154948	0.494646
H160	H	1.233819	-0.147399	0.385793
H161	H	0.999966	-0.023945	0.668197
H162	H	1.050498	-0.050593	0.813553
H163	H	1.050492	-0.050600	0.912621
