data_functionalizedCrystal
_audit_creation_method	'MofGen! by Chris Wilmer'
_symmetry_space_group_name_H-M	'P1'
_symmetry_Int_Tables_number	1
_symmetry_cell_setting	triclinic
loop_
_symmetry_equiv_pos_as_xyz
  x,y,z
_cell_length_a	10.654552
_cell_length_b	16.109298
_cell_length_c	15.186229
_cell_angle_alpha	90.001652
_cell_angle_beta	89.996278
_cell_angle_gamma	83.973119
loop_
_atom_site_label
_atom_site_type_symbol
_atom_site_fract_x
_atom_site_fract_y
_atom_site_fract_z
O1	O	1.666251	0.116784	-0.073225
O2	O	1.300622	0.127907	-0.073224
O3	O	1.493483	0.001374	-0.073231
O4	O	1.473390	0.243317	-0.073218
O5	O	1.493470	0.001372	0.073227
O6	O	1.300609	0.127905	0.073234
O7	O	1.666238	0.116782	0.073232
Zn8	Zn	1.483421	0.122343	0.096486
Zn9	Zn	1.483438	0.122346	-0.096478
O10	O	1.473377	0.243315	0.073239
C11	C	1.253829	0.127089	0.000005
C12	C	1.114419	0.124644	0.000005
C13	C	0.917919	0.121193	0.079833
C14	C	1.048908	0.123496	0.079838
C15	C	1.048931	0.123498	-0.079838
C16	C	0.917943	0.121202	-0.079842
C17	C	1.218266	0.175257	0.175759
C18	C	1.283751	0.176391	0.255600
C19	C	1.250871	0.127013	0.326085
C20	C	1.152511	0.076481	0.316732
C21	C	1.087034	0.075340	0.236890
C22	C	1.119909	0.124737	0.166408
C23	C	0.748584	0.069433	-0.175758
C24	C	0.683106	0.068286	-0.255601
C25	C	0.715985	0.117659	-0.326093
C26	C	0.814352	0.168179	-0.316749
C27	C	0.879830	0.169326	-0.236906
C28	C	0.846941	0.119954	-0.166414
C29	C	1.492663	-0.029607	-0.000005
C30	C	1.490225	-0.121916	-0.000016
C31	C	1.713031	0.117600	0.000002
C32	C	1.852441	0.120045	-0.000004
C33	C	1.482276	-0.421032	-0.079831
C34	C	1.484584	-0.334298	-0.079837
C35	C	1.484588	-0.334286	0.079838
C36	C	1.482289	-0.421018	0.079844
C37	C	1.481127	-0.464389	0.000006
C38	C	1.485733	-0.290922	-0.000005
C39	C	1.488236	-0.196882	-0.000012
C40	C	1.478627	-0.558435	0.000012
C41	C	1.474197	0.274296	0.000012
C42	C	1.476635	0.366606	0.000017
N43	N	1.483419	0.122341	0.228179
N44	N	1.483451	0.122341	-0.228170
C45	C	1.568847	0.066332	0.453899
C46	C	1.568851	0.066330	0.546088
C47	C	1.398014	0.178354	0.546103
C48	C	1.398005	0.178351	0.453916
C49	C	1.483428	0.122341	0.407816
C50	C	1.483441	0.122342	0.592193
C51	C	1.483445	0.122340	0.692149
C52	C	1.483424	0.122341	0.307853
H53	H	0.864589	0.120262	0.144842
H54	H	1.485521	-0.299001	-0.144849
H55	H	1.638402	0.020724	0.416366
H56	H	0.959923	0.210466	-0.229301
H57	H	1.481357	-0.456321	0.144861
H58	H	1.481328	-0.456341	-0.144840
H59	H	1.485532	-0.298963	0.144839
H60	H	0.841125	0.208381	-0.374150
H61	H	1.638405	0.020721	0.583607
H62	H	1.328466	0.223957	0.583647
H63	H	1.006952	0.034197	0.229275
H64	H	1.125758	0.036267	0.374128
H65	H	1.304197	0.127938	0.391093
H66	H	1.328441	0.223961	0.416392
H67	H	1.245037	0.215477	0.118374
H68	H	1.102279	0.124439	-0.144840
H69	H	0.662667	0.116716	-0.391107
H70	H	1.363835	0.217540	0.263210
H71	H	0.721794	0.029234	-0.118357
H72	H	0.603012	0.027146	-0.263206
