data_functionalizedCrystal
_audit_creation_method	'MofGen! by Chris Wilmer'
_symmetry_space_group_name_H-M	'P1'
_symmetry_Int_Tables_number	1
_symmetry_cell_setting	triclinic
loop_
_symmetry_equiv_pos_as_xyz
  x,y,z
_cell_length_a	19.188905
_cell_length_b	27.732025
_cell_length_c	18.266242
_cell_angle_alpha	90.008162
_cell_angle_beta	89.983837
_cell_angle_gamma	82.884015
loop_
_atom_site_label
_atom_site_type_symbol
_atom_site_fract_x
_atom_site_fract_y
_atom_site_fract_z
O1	O	0.925769	0.060291	-0.060978
O2	O	1.425769	0.560291	0.439022
O3	O	0.722402	0.068427	-0.060950
O4	O	1.222402	0.568427	0.439050
O5	O	0.830410	-0.006019	-0.060987
O6	O	1.330410	0.493981	0.439013
O7	O	0.817761	0.134738	-0.060941
O8	O	1.317761	0.634738	0.439059
O9	O	0.830392	-0.006023	0.060775
O10	O	1.330392	0.493977	0.560775
O11	O	0.722384	0.068424	0.060812
O12	O	1.222384	0.568424	0.560812
O13	O	0.925751	0.060287	0.060784
O14	O	1.425751	0.560287	0.560784
Zn15	Zn	0.824064	0.064355	0.080130
Zn16	Zn	1.324064	0.564355	0.580130
Zn17	Zn	0.824088	0.064360	-0.080297
Zn18	Zn	1.324088	0.564360	0.419703
O19	O	0.817743	0.134734	0.060821
O20	O	1.317743	0.634734	0.560821
C21	C	0.696384	0.068164	-0.000066
C22	C	1.196384	0.568164	0.499934
C23	C	0.618883	0.067379	-0.000057
C24	C	1.118883	0.567379	0.499943
C25	C	0.582504	0.067004	-0.066431
C26	C	1.082504	0.567004	0.433569
C27	C	0.509685	0.066261	-0.066440
C28	C	1.009685	0.566261	0.433560
C29	C	0.473250	0.065884	-0.000072
C30	C	0.973250	0.565884	0.499928
C31	C	0.509638	0.066262	0.066312
C32	C	1.009638	0.566262	0.566312
C33	C	0.582454	0.067009	0.066319
C34	C	1.082454	0.567009	0.566319
N35	N	0.364409	0.037200	0.049311
N36	N	0.864409	0.537200	0.549311
N37	N	0.295237	0.036489	0.049299
N38	N	0.795237	0.536489	0.549299
C39	C	0.253858	0.063632	-0.000090
C40	C	0.753858	0.563632	0.499910
N41	N	0.284267	0.091507	-0.049479
N42	N	0.784267	0.591507	0.450521
N43	N	0.353446	0.092216	-0.049469
N44	N	0.853446	0.592216	0.450531
C45	C	0.394293	0.065073	-0.000072
C46	C	0.894293	0.565073	0.499928
C47	C	0.138520	0.062452	-0.066479
C48	C	0.638520	0.562452	0.433521
C49	C	0.065699	0.061712	-0.066486
C50	C	0.565699	0.561712	0.433514
C51	C	0.065655	0.061707	0.066268
C52	C	0.565655	0.561707	0.566268
C53	C	0.138473	0.062452	0.066273
C54	C	0.638473	0.562452	0.566273
C55	C	0.174902	0.062822	-0.000103
C56	C	0.674902	0.562822	0.499897
C57	C	0.830138	-0.024029	-0.000114
C58	C	1.330138	0.475971	0.499886
C59	C	0.829346	-0.077687	-0.000135
C60	C	1.329346	0.422313	0.499865
C61	C	0.823727	-0.460867	-0.066464
C62	C	1.323727	0.039133	0.433536
C63	C	0.826692	-0.259199	-0.066488
C64	C	1.326692	0.240801	0.433512
O65	O	0.827111	-0.233129	-0.122937
O66	O	1.327111	0.266871	0.377063
N67	N	0.827052	-0.233979	-0.000118
N68	N	1.327052	0.266021	0.499882
C69	C	0.826676	-0.259179	0.066263
C70	C	1.326676	0.240821	0.566263
O71	O	0.827059	-0.233101	0.122715
O72	O	1.327059	0.266899	0.622715
C73	C	0.823717	-0.460847	0.066287
C74	C	1.323717	0.039153	0.566287
C75	C	0.823349	-0.486064	-0.000088
C76	C	1.323349	0.013936	0.499912
C77	C	0.823360	-0.486084	-0.132834
C78	C	1.323360	0.013916	0.367166
C79	C	0.822615	-0.536498	-0.132827
C80	C	1.322615	-0.036498	0.367173
C81	C	0.822237	-0.561695	-0.066451
C82	C	1.322237	-0.061695	0.433549
C83	C	0.822604	-0.536478	-0.000082
C84	C	1.322604	-0.036478	0.499918
C85	C	0.823346	-0.486047	0.132667
C86	C	1.323346	0.013953	0.632667
C87	C	0.822608	-0.536467	0.132667
C88	C	1.322608	-0.036467	0.632667
C89	C	0.822240	-0.561684	0.066292
C90	C	1.322240	-0.061684	0.566292
C91	C	0.821481	-0.612088	0.066301
C92	C	1.321481	-0.112088	0.566301
N93	N	0.821120	-0.637308	-0.000069
N94	N	1.321120	-0.137308	0.499931
C95	C	0.821498	-0.612112	-0.066445
C96	C	1.321498	-0.112112	0.433555
C97	C	0.828229	-0.153300	0.066247
C98	C	1.328229	0.346700	0.566247
C99	C	0.828968	-0.102884	0.066241
C100	C	1.328968	0.397116	0.566241
C101	C	0.828984	-0.102907	-0.066511
C102	C	1.328984	0.397093	0.433489
C103	C	0.828240	-0.153324	-0.066505
C104	C	1.328240	0.346676	0.433495
C105	C	0.827868	-0.178521	-0.000124
C106	C	1.327868	0.321479	0.499876
C107	C	0.819933	-0.717984	-0.066426
C108	C	1.319933	-0.217984	0.433574
C109	C	0.819185	-0.768402	-0.066414
C110	C	1.319185	-0.268402	0.433586
C111	C	0.819173	-0.768374	0.066338
C112	C	1.319173	-0.268374	0.566338
C113	C	0.819917	-0.717960	0.066326
C114	C	1.319917	-0.217960	0.566326
C115	C	0.820299	-0.692767	-0.000062
C116	C	1.320299	-0.192767	0.499938
O117	O	0.821069	-0.638190	0.122721
O118	O	1.321069	-0.138190	0.622721
O119	O	0.821132	-0.638200	-0.122888
O120	O	1.321132	-0.138200	0.377112
C121	C	0.824472	-0.410454	-0.066471
C122	C	1.324472	0.089546	0.433529
C123	C	0.824839	-0.385236	-0.000102
C124	C	1.324839	0.114764	0.499898
C125	C	0.824461	-0.410433	0.066275
C126	C	1.324461	0.089567	0.566275
C127	C	0.825578	-0.334820	-0.000107
C128	C	1.325578	0.165180	0.499893
C129	C	0.825955	-0.309623	-0.066483
C130	C	1.325955	0.190377	0.433517
C131	C	0.825595	-0.334843	-0.132854
C132	C	1.325595	0.165157	0.367146
C133	C	0.824850	-0.385257	-0.132847
C134	C	1.324850	0.114743	0.367153
C135	C	0.824822	-0.385213	0.132645
C136	C	1.324822	0.114787	0.632645
C137	C	0.825566	-0.334799	0.132633
C138	C	1.325566	0.165201	0.632633
C139	C	0.825944	-0.309602	0.066257
C140	C	1.325944	0.190398	0.566257
C141	C	0.951769	0.060551	-0.000102
C142	C	1.451769	0.560551	0.499898
C143	C	1.029270	0.061335	-0.000116
C144	C	1.529270	0.561335	0.499884
C145	C	0.818015	0.152744	-0.000054
C146	C	1.318015	0.652744	0.499946
C147	C	0.818807	0.206402	-0.000038
C148	C	1.318807	0.706402	0.499962
N149	N	0.824053	0.064351	0.189617
N150	N	1.324053	0.564351	0.689617
N151	N	0.824105	0.064360	-0.189783
N152	N	1.324105	0.564360	0.310217
C153	C	0.871894	0.031402	0.227909
C154	C	1.371894	0.531402	0.727909
C155	C	0.871899	0.031400	0.304554
C156	C	1.371899	0.531400	0.804554
C157	C	0.824069	0.064355	0.342904
C158	C	1.324069	0.564355	0.842904
C159	C	0.776219	0.097306	0.304602
C160	C	1.276219	0.597306	0.804602
C161	C	0.776211	0.097305	0.227959
C162	C	1.276211	0.597305	0.727959
N163	N	0.814715	0.107146	0.463251
N164	N	1.314715	0.607146	0.963251
N165	N	0.814727	0.107146	0.536059
N166	N	1.314727	0.607146	1.036059
C167	C	0.824088	0.064362	0.573826
C168	C	1.324088	0.564362	1.073826
N169	N	0.833452	0.021576	0.536035
N170	N	1.333452	0.521576	1.036035
N171	N	0.833444	0.021576	0.463220
N172	N	1.333444	0.521576	0.963220
C173	C	0.824072	0.064360	0.426011
C174	C	1.324072	0.564360	0.926011
C175	C	0.871937	0.031408	0.695226
C176	C	1.371937	0.531408	1.195226
C177	C	0.871937	0.031405	0.771872
C178	C	1.371937	0.531405	1.271872
C179	C	0.776260	0.097316	0.771919
C180	C	1.276260	0.597316	1.271919
C181	C	0.776257	0.097314	0.695274
C182	C	1.276257	0.597314	1.195274
C183	C	0.824099	0.064361	0.656932
C184	C	1.324099	0.564361	1.156932
H185	H	0.168181	0.062759	-0.120526
H186	H	0.668181	0.562759	0.379474
H187	H	0.829287	-0.082383	-0.120557
H188	H	1.329287	0.417617	0.379443
C189	C	0.025581	0.061293	0.139275
C190	C	0.525581	0.561293	0.639275
N191	N	-0.004607	0.060981	0.194266
N192	N	0.495393	0.560981	0.694266
H193	H	0.737273	0.124138	0.335830
H194	H	1.237273	0.624138	0.835830
C195	C	0.924557	-0.004852	0.813994
C196	C	1.424557	0.495148	1.313994
N197	N	0.964188	-0.032163	0.845720
N198	N	1.464188	0.467837	1.345720
H199	H	0.827926	-0.173811	0.120305
H200	H	1.327926	0.326189	0.620305
C201	C	0.178494	0.062858	0.139291
C202	C	0.678494	0.562858	0.639291
N203	N	0.208637	0.063164	0.194292
N204	N	0.708637	0.563164	0.694292
H205	H	0.910858	0.004568	0.335738
H206	H	1.410858	0.504568	0.835738
H207	H	0.479968	0.065955	0.120350
H208	H	0.979968	0.565955	0.620350
H209	H	0.818883	-0.788931	-0.120466
H210	H	1.318883	-0.288931	0.379534
C211	C	0.823754	-0.458320	0.205686
C212	C	1.323754	0.041680	0.705686
N213	N	0.824062	-0.437436	0.260688
N214	N	1.324062	0.062564	0.760688
H215	H	0.480059	0.065957	-0.120492
H216	H	0.980059	0.565957	0.379508
C217	C	0.822195	-0.564179	0.205693
C218	C	1.322195	-0.064179	0.705693
N219	N	0.821881	-0.585051	0.260696
N220	N	1.321881	-0.085051	0.760696
H221	H	0.820245	-0.697477	-0.120486
H222	H	1.320245	-0.197477	0.379514
H223	H	0.036080	0.061410	-0.120538
H224	H	0.536080	0.561410	0.379462
C225	C	0.723610	0.133574	0.185836
C226	C	1.223610	0.633574	0.685836
N227	N	0.684001	0.160900	0.154108
N228	N	1.184001	0.660900	0.654108
C229	C	0.820318	-0.690221	0.139341
C230	C	1.320318	-0.190221	0.639341
N231	N	0.820627	-0.669331	0.194337
N232	N	1.320627	-0.169331	0.694337
H233	H	0.818862	-0.788898	0.120379
H234	H	1.318862	-0.288898	0.620379
C235	C	0.822266	-0.564235	-0.205845
C236	C	1.322266	-0.064235	0.294155
N237	N	0.822024	-0.585126	-0.260846
N238	N	1.322024	-0.085126	0.239154
C239	C	0.824475	-0.412992	-0.205865
C240	C	1.324475	0.087008	0.294135
N241	N	0.824204	-0.433880	-0.260866
N242	N	1.324204	0.066120	0.239134
H243	H	0.825897	-0.314319	-0.186899
H244	H	1.325897	0.185681	0.313101
C245	C	0.622474	0.067418	0.139340
C246	C	1.122474	0.567418	0.639340
N247	N	0.652618	0.067724	0.194340
N248	N	1.152618	0.567724	0.694340
H249	H	0.823670	-0.465575	-0.186888
H250	H	1.323670	0.034425	0.313112
H251	H	0.829254	-0.082355	0.120290
H252	H	1.329254	0.417645	0.620290
H253	H	0.612160	0.067306	-0.120480
H254	H	1.112160	0.567306	0.379520
H255	H	0.827939	-0.173853	-0.120553
H256	H	1.327939	0.326147	0.379447
C257	C	0.825969	-0.307066	0.205656
C258	C	1.325969	0.192934	0.705656
N259	N	0.826279	-0.286180	0.260655
N260	N	1.326279	0.213820	0.760655
C261	C	0.924516	-0.004852	0.185738
C262	C	1.424516	0.495148	0.685738
N263	N	0.964149	-0.032161	0.153973
N264	N	1.464149	0.467839	0.653973
C265	C	0.924558	-0.004846	0.653047
C266	C	1.424558	0.495154	1.153047
N267	N	0.964191	-0.032153	0.621280
N268	N	1.464191	0.467847	1.121280
H269	H	0.824516	-0.405723	0.186698
H270	H	1.324516	0.094277	0.686698
H271	H	0.737313	0.124146	0.803142
H272	H	1.237313	0.624146	1.303142
H273	H	0.737303	0.124146	0.664094
H274	H	1.237303	0.624146	1.164094
