data_functionalizedCrystal
_audit_creation_method	'MofGen! by Chris Wilmer'
_symmetry_space_group_name_H-M	'P1'
_symmetry_Int_Tables_number	1
_symmetry_cell_setting	triclinic
loop_
_symmetry_equiv_pos_as_xyz
  x,y,z
_cell_length_a	11.026607
_cell_length_b	16.109301
_cell_length_c	14.586319
_cell_angle_alpha	89.986216
_cell_angle_beta	90.005843
_cell_angle_gamma	83.976251
loop_
_atom_site_label
_atom_site_type_symbol
_atom_site_fract_x
_atom_site_fract_y
_atom_site_fract_z
O1	O	1.610031	-0.348141	0.076256
O2	O	1.256740	-0.308499	0.076255
O3	O	1.443091	-0.208743	0.076246
O4	O	1.423680	-0.447896	0.076265
O5	O	1.443064	-0.208718	-0.076235
O6	O	1.256714	-0.308474	-0.076225
O7	O	1.610004	-0.348115	-0.076225
Cu8	Cu	1.433357	-0.328292	-0.090148
Cu9	Cu	1.433388	-0.328322	0.090178
O10	O	1.423654	-0.447871	-0.076216
C11	C	1.211519	-0.301173	0.000015
C12	C	1.076814	-0.279372	0.000014
C13	C	1.442291	-0.177638	0.000005
C14	C	1.439934	-0.084989	0.000004
N15	N	1.433344	-0.328272	-0.216980
C16	C	1.002984	-0.339568	0.000020
C17	C	0.863759	-0.317037	0.000019
C18	C	1.655225	-0.355441	0.000018
C19	C	1.789931	-0.377242	0.000024
C20	C	1.424453	-0.478976	0.000027
C21	C	1.426811	-0.571625	0.000034
C22	C	1.545030	0.121535	0.000019
C23	C	1.542805	0.208588	0.000026
C24	C	1.321707	0.221846	0.000022
C25	C	1.323932	0.134794	0.000021
C26	C	1.435597	0.084640	0.000015
C27	C	1.431147	0.258746	0.000023
C28	C	1.428735	0.353133	0.000032
C29	C	1.438011	-0.009754	0.000009
C30	C	1.359810	-0.266848	-0.548013
C31	C	1.359801	-0.266835	-0.452032
C32	C	1.506952	-0.389764	-0.451963
C33	C	1.506968	-0.389773	-0.547943
C34	C	1.433390	-0.328315	-0.595965
C35	C	1.433365	-0.328294	-0.404004
C36	C	1.433355	-0.328280	-0.299937
C37	C	1.433401	-0.328328	-0.700039
N38	N	1.433411	-0.328337	0.217010
H39	H	1.042849	-0.407784	0.000020
C40	C	1.278882	-0.199238	-0.600834
N41	N	1.217928	-0.148309	-0.640616
H42	H	0.823900	-0.248817	0.000037
C43	C	1.667864	0.066369	0.000022
N44	N	1.760387	0.024820	0.000028
H45	H	1.230793	0.262691	0.000026
C46	C	1.278853	-0.199218	-0.399288
N47	N	1.217879	-0.148286	-0.359563
C48	C	1.587884	-0.457364	-0.399130
N49	N	1.648843	-0.508282	-0.359337
H50	H	1.566891	-0.439829	-0.586987
H51	H	0.829788	-0.445463	0.000023
H52	H	1.036949	-0.211156	0.000032
H53	H	1.631916	0.238623	0.000031
C54	C	1.203542	0.094208	0.000022
N55	N	1.112868	0.063638	0.000025
