data_functionalizedCrystal
_audit_creation_method	'MofGen! by Chris Wilmer'
_symmetry_space_group_name_H-M	'P1'
_symmetry_Int_Tables_number	1
_symmetry_cell_setting	triclinic
loop_
_symmetry_equiv_pos_as_xyz
  x,y,z
_cell_length_a	10.686220
_cell_length_b	12.827892
_cell_length_c	10.685880
_cell_angle_alpha	94.339956
_cell_angle_beta	89.641569
_cell_angle_gamma	94.396976
loop_
_atom_site_label
_atom_site_type_symbol
_atom_site_fract_x
_atom_site_fract_y
_atom_site_fract_z
Zn1	Zn	1.972253	-0.326209	-0.562376
Zn2	Zn	2.472253	0.173791	-0.062376
Zn3	Zn	1.956034	-0.488709	-0.352625
Zn4	Zn	2.456034	0.011291	0.147375
Zn5	Zn	1.746382	-0.328338	-0.368698
Zn6	Zn	2.246382	0.171662	0.131302
Zn7	Zn	1.762451	-0.515271	-0.578397
Zn8	Zn	2.262451	-0.015271	-0.078397
O9	O	1.859280	-0.414632	-0.465524
O10	O	2.359280	0.085368	0.034476
O11	O	2.145644	-0.335757	-0.521120
O12	O	2.645644	0.164243	-0.021120
O13	O	1.914711	-0.457210	-0.179216
O14	O	2.414711	0.042790	0.320784
O15	O	1.776407	-0.181817	-0.394412
O16	O	2.276407	0.318183	0.105588
O17	O	2.133729	-0.455145	-0.367017
O18	O	2.633729	0.044855	0.132983
O19	O	1.942353	-0.180253	-0.536706
O20	O	2.442353	0.319747	-0.036706
O21	O	1.760681	-0.339387	-0.191025
O22	O	2.260681	0.160613	0.308975
O23	O	1.572971	-0.365143	-0.409947
O24	O	2.072971	0.134857	0.090053
O25	O	1.803795	-0.500416	-0.751813
O26	O	2.303795	-0.000416	-0.251813
O27	O	1.584777	-0.502481	-0.564012
O28	O	2.084777	-0.002481	-0.064012
O29	O	1.957935	-0.361513	-0.740042
O30	O	2.457935	0.138487	-0.240042
O31	O	1.930293	-0.638471	-0.382552
O32	O	2.430293	-0.138471	0.117448
O33	O	1.788068	-0.657986	-0.548426
O34	O	2.288068	-0.157986	-0.048426
C35	C	1.533358	-0.436926	-0.490463
C36	C	2.033358	0.063074	0.009537
C37	C	1.393929	-0.446491	-0.501161
C38	C	1.893929	0.053509	-0.001161
C39	C	1.859200	-0.686146	-0.465508
C40	C	2.359200	-0.186146	0.034492
C41	C	1.859284	-0.802295	-0.465534
C42	C	2.359284	-0.302295	0.034466
C43	C	1.929758	-0.844387	-0.383532
C44	C	2.429758	-0.344387	0.116468
C45	C	1.929846	-0.964434	-0.383557
C46	C	2.429846	-0.464434	0.116443
C47	C	2.186475	-0.392251	-0.440488
C48	C	2.686475	0.107749	0.059512
C49	C	2.325906	-0.382713	-0.429820
C50	C	2.825906	0.117287	0.070180
C51	C	1.884466	-0.433690	-0.792716
C52	C	2.384466	0.066310	-0.292716
C53	C	1.895199	-0.441812	-0.932146
C54	C	2.395199	0.058188	-0.432146
C55	C	1.859397	-0.142057	-0.465565
C56	C	2.359397	0.357943	0.034435
C57	C	1.859447	-0.025901	-0.465582
C58	C	2.359447	0.474099	0.034418
C59	C	1.834264	-0.395567	-0.139599
C60	C	2.334264	0.104433	0.360401
C61	C	1.823775	-0.387135	-0.000151
C62	C	2.323775	0.112865	0.499849
H63	H	1.374336	-0.320794	-0.360555
H64	H	1.874336	0.179206	0.139445
Br65	Br	1.708143	-0.298761	-0.919413
Br66	Br	2.208143	0.201239	-0.419413
Br67	Br	2.010815	-0.530208	-1.012890
Br68	Br	2.510815	-0.030208	-0.512890
H69	H	1.799102	-0.989674	-0.535787
H70	H	2.299102	-0.489674	-0.035787
H71	H	1.799019	-0.855132	-0.535762
H72	H	2.299019	-0.355132	-0.035762
Br73	Br	1.313210	-0.549717	-0.616599
Br74	Br	1.813210	-0.049717	-0.116599
Br75	Br	2.030232	-0.756332	-0.266492
Br76	Br	2.530232	-0.256332	0.233508
H77	H	1.990178	-1.000669	-0.313349
H78	H	2.490178	-0.500669	0.186651
