data_functionalizedCrystal
_audit_creation_method	'MofGen! by Chris Wilmer'
_symmetry_space_group_name_H-M	'P1'
_symmetry_Int_Tables_number	1
_symmetry_cell_setting	triclinic
loop_
_symmetry_equiv_pos_as_xyz
  x,y,z
_cell_length_a	29.839135
_cell_length_b	14.908520
_cell_length_c	14.908308
_cell_angle_alpha	96.360765
_cell_angle_beta	93.274633
_cell_angle_gamma	93.323431
loop_
_atom_site_label
_atom_site_type_symbol
_atom_site_fract_x
_atom_site_fract_y
_atom_site_fract_z
Zn1	Zn	0.660296	-0.389822	-0.532645
Zn2	Zn	0.660245	-0.532467	-0.390016
Zn3	Zn	0.589770	-0.381130	-0.381295
Zn4	Zn	0.580553	-0.541146	-0.541315
O5	O	0.622716	-0.461141	-0.461318
O6	O	0.723155	-0.408749	-0.513747
O7	O	0.654732	-0.505122	-0.262199
O8	O	0.603004	-0.255618	-0.394094
O9	O	0.723118	-0.513550	-0.408957
O10	O	0.654819	-0.262004	-0.505290
O11	O	0.602954	-0.393935	-0.255792
O12	O	0.525681	-0.402351	-0.402501
O13	O	0.587295	-0.528343	-0.666825
O14	O	0.518910	-0.519914	-0.520067
O15	O	0.645882	-0.417165	-0.660456
O16	O	0.645795	-0.660283	-0.417364
O17	O	0.587246	-0.666660	-0.528523
C18	C	0.615526	-0.696316	-0.474851
C19	C	0.612491	-0.796926	-0.480670
C20	C	0.505995	-0.461132	-0.461279
C21	C	0.456060	-0.461151	-0.461285
C22	C	0.667810	-0.979288	-0.375949
C23	C	0.664959	-1.073820	-0.381414
C24	C	0.603942	-1.080524	-0.497069
C25	C	0.606792	-0.985992	-0.491604
C26	C	0.638727	-0.935377	-0.431041
C27	C	0.641575	-0.840843	-0.425572
C28	C	0.580560	-0.847549	-0.541231
C29	C	0.577709	-0.942082	-0.546696
C30	C	0.146427	-0.406664	-0.515972
C31	C	-0.041247	-0.406672	-0.515998
O32	O	-0.065501	-0.360322	-0.562451
N33	N	-0.064727	-0.461144	-0.461351
C34	C	-0.041286	-0.515614	-0.406689
O35	O	-0.065563	-0.561939	-0.360202
C36	C	0.146388	-0.515601	-0.406659
C37	C	0.169865	-0.461132	-0.461316
C38	C	0.169904	-0.352199	-0.570624
C39	C	0.216820	-0.352201	-0.570621
C40	C	0.240258	-0.406669	-0.515965
C41	C	0.216781	-0.461134	-0.461313
C42	C	0.169829	-0.570065	-0.351993
C43	C	0.216750	-0.570055	-0.351988
C44	C	0.240228	-0.515586	-0.406646
C45	C	0.287134	-0.515604	-0.406654
N46	N	0.310614	-0.461132	-0.461301
C47	C	0.287176	-0.406664	-0.515957
C48	C	-0.139817	-0.515618	-0.406710
C49	C	-0.186735	-0.515623	-0.406719
C50	C	-0.186693	-0.406679	-0.516027
C51	C	-0.139775	-0.406680	-0.516022
C52	C	-0.116337	-0.461146	-0.461357
C53	C	0.385702	-0.406673	-0.515946
C54	C	0.432621	-0.406683	-0.515941
C55	C	0.432576	-0.515623	-0.406629
C56	C	0.385660	-0.515617	-0.406638
C57	C	0.362225	-0.461135	-0.461299
O58	O	0.311417	-0.561922	-0.360218
O59	O	0.311462	-0.360331	-0.562422
C60	C	0.099511	-0.406662	-0.515975
C61	C	0.076034	-0.461127	-0.461323
C62	C	0.099472	-0.515595	-0.406668
C63	C	0.029116	-0.461132	-0.461332
C64	C	0.005678	-0.406664	-0.515988
C65	C	0.029158	-0.352192	-0.570635
C66	C	0.076073	-0.352194	-0.570631
C67	C	0.075992	-0.570067	-0.352021
C68	C	0.029077	-0.570061	-0.352029
C69	C	0.005639	-0.515593	-0.406685
C70	C	0.739893	-0.461151	-0.461358
C71	C	0.789827	-0.461155	-0.461375
C72	C	0.615566	-0.474692	-0.697400
C73	C	0.612519	-0.480466	-0.798005
C74	C	0.629945	-0.225050	-0.447752
C75	C	0.633026	-0.124441	-0.441971
C76	C	0.667800	-0.375527	-0.980418
C77	C	0.664938	-0.380949	-1.074945
C78	C	0.603934	-0.496728	-1.081586
C79	C	0.606795	-0.491306	-0.987059
C80	C	0.638730	-0.430704	-0.936479
C81	C	0.641593	-0.425287	-0.841951
C82	C	0.580586	-0.541061	-0.848593
C83	C	0.577725	-0.546483	-0.943119
C84	C	0.629866	-0.447578	-0.226150
C85	C	0.633007	-0.441549	-0.125532
H86	H	0.693810	-0.938076	-0.326630
H87	H	0.551710	-0.983305	-0.596007
H88	H	0.551725	-0.595821	-0.984314
H89	H	0.235831	-0.614407	-0.307471
O90	O	0.672655	-0.366544	-0.792780
C91	C	0.701745	-0.414930	-0.741053
H92	H	0.701482	-0.487854	-0.773637
H93	H	0.737351	-0.382121	-0.738105
H94	H	0.689927	-0.413941	-0.669589
O95	O	0.698833	-0.316588	-0.931415
C96	C	0.723888	-0.269070	-0.990469
H97	H	0.703544	-0.269797	-1.057667
H98	H	0.731692	-0.196187	-0.959057
H99	H	0.756688	-0.302798	-1.002437
H100	H	0.667577	-0.799632	-0.376256
O101	O	0.552368	-0.804861	-0.594847
C102	C	0.577796	-0.753447	-0.650181
H103	H	0.612149	-0.782186	-0.657492
H104	H	0.559440	-0.756378	-0.719740
H105	H	0.582361	-0.680204	-0.618057
H106	H	0.150826	-0.307840	-0.615132
H107	H	-0.120662	-0.362325	-0.560527
H108	H	0.095184	-0.307839	-0.615138
H109	H	0.095071	-0.614421	-0.307511
H110	H	0.688609	-0.336015	-1.110717
H111	H	0.688643	-1.109568	-0.336554
H112	H	0.577945	-1.121752	-0.546383
O113	O	0.455359	-0.353684	-0.569060
C114	C	0.424606	-0.305627	-0.617314
H115	H	0.392379	-0.300309	-0.580061
H116	H	0.440048	-0.234885	-0.622983
H117	H	0.416524	-0.342823	-0.687915
H118	H	0.010066	-0.307845	-0.615140
H119	H	0.009965	-0.614425	-0.307523
O120	O	0.362886	-0.353884	-0.569099
C121	C	0.332414	-0.408861	-0.630465
H122	H	0.324248	-0.475564	-0.602371
H123	H	0.300184	-0.372705	-0.640551
H124	H	0.348169	-0.422769	-0.698095
O125	O	0.239555	-0.299195	-0.623730
C126	C	0.208798	-0.251141	-0.671977
H127	H	0.176570	-0.245840	-0.634726
H128	H	0.224235	-0.180393	-0.677636
H129	H	0.200719	-0.288330	-0.742583
H130	H	0.577935	-0.546067	-1.122784
H131	H	0.556916	-0.585993	-0.812808
O132	O	-0.209520	-0.353894	-0.569170
C133	C	-0.239992	-0.408869	-0.630536
H134	H	-0.248147	-0.475583	-0.602455
H135	H	-0.272227	-0.372724	-0.640599
H136	H	-0.224243	-0.422754	-0.698176
O137	O	-0.209467	-0.568566	-0.353549
C138	C	-0.178714	-0.616651	-0.305327
H139	H	-0.144044	-0.579387	-0.300120
H140	H	-0.190407	-0.622104	-0.234546
H141	H	-0.176824	-0.687343	-0.342318
O142	O	-0.117010	-0.568589	-0.353739
C143	C	-0.093223	-0.630101	-0.408540
H144	H	-0.087284	-0.602218	-0.475348
H145	H	-0.059490	-0.640068	-0.372335
H146	H	-0.113659	-0.697754	-0.422249
O147	O	0.147102	-0.622995	-0.298808
C148	C	0.177859	-0.671071	-0.250584
H149	H	0.212529	-0.633807	-0.245393
H150	H	0.166171	-0.676512	-0.179798
H151	H	0.179747	-0.741768	-0.287565
H152	H	0.451668	-0.559971	-0.362132
O153	O	0.362922	-0.568560	-0.353471
C154	C	0.393672	-0.616657	-0.305253
H155	H	0.428345	-0.579404	-0.300047
H156	H	0.381979	-0.622110	-0.234473
H157	H	0.395556	-0.687349	-0.342248
