data_functionalizedCrystal
_audit_creation_method	'MofGen! by Chris Wilmer'
_symmetry_space_group_name_H-M	'P1'
_symmetry_Int_Tables_number	1
_symmetry_cell_setting	triclinic
loop_
_symmetry_equiv_pos_as_xyz
  x,y,z
_cell_length_a	12.759401
_cell_length_b	17.637651
_cell_length_c	12.759393
_cell_angle_alpha	78.751097
_cell_angle_beta	89.980324
_cell_angle_gamma	101.219778
loop_
_atom_site_label
_atom_site_type_symbol
_atom_site_fract_x
_atom_site_fract_y
_atom_site_fract_z
Zn1	Zn	1.521699	-0.314722	-0.509313
Zn2	Zn	1.486058	-0.446957	-0.298057
Zn3	Zn	1.345987	-0.314761	-0.333641
Zn4	Zn	1.310473	-0.446900	-0.473713
O5	O	1.416054	-0.380835	-0.403681
O6	O	1.663990	-0.332271	-0.481295
O7	O	1.467424	-0.429462	-0.155745
O8	O	1.399075	-0.204114	-0.386735
O9	O	1.637805	-0.429424	-0.326086
O10	O	1.528169	-0.204085	-0.515800
O11	O	1.364515	-0.332338	-0.181889
O12	O	1.194257	-0.332282	-0.352216
O13	O	1.338546	-0.429325	-0.625468
O14	O	1.168165	-0.429363	-0.455126
O15	O	1.493733	-0.332214	-0.651623
O16	O	1.432987	-0.557591	-0.291567
O17	O	1.303986	-0.557549	-0.420621
C18	C	1.143091	-0.380821	-0.403670
C19	C	1.026310	-0.380834	-0.403685
C20	C	0.985059	-0.330338	-0.484581
C21	C	0.875333	-0.330346	-0.484586
C22	C	0.848117	-0.431354	-0.322793
C23	C	0.957842	-0.431341	-0.322785
C24	C	1.360794	-0.586258	-0.348392
C25	C	1.337249	-0.674139	-0.324775
C26	C	1.595603	-0.962798	-0.583432
C27	C	1.573446	-1.045376	-0.561221
C28	C	1.439109	-1.045513	-0.426696
C29	C	1.461258	-0.962934	-0.448891
C30	C	1.539506	-0.921583	-0.527261
C31	C	1.405161	-0.921719	-0.392721
C32	C	1.427305	-0.839147	-0.414919
C33	C	1.505547	-0.797790	-0.493288
C34	C	1.561650	-0.839011	-0.549459
C35	C	1.326909	-0.963072	-0.314357
C36	C	1.270812	-0.921856	-0.258186
C37	C	1.292961	-0.839283	-0.280379
C38	C	1.371202	-0.797926	-0.358747
C39	C	1.236858	-0.798062	-0.224207
C40	C	1.259002	-0.715490	-0.246405
C41	C	1.393346	-0.715354	-0.380945
C42	C	1.690084	-0.380849	-0.403693
C43	C	1.806859	-0.380855	-0.403698
C44	C	1.416153	-0.380759	-0.677735
C45	C	1.416195	-0.380727	-0.794520
C46	C	1.471559	-0.174609	-0.459208
C47	C	1.495212	-0.086729	-0.482871
C48	C	1.497009	-0.330153	-0.863005
C49	C	1.497035	-0.330119	-0.972738
C50	C	1.335432	-0.431239	-0.945491
C51	C	1.335401	-0.431268	-0.835761
C52	C	1.416031	-0.380853	-0.130709
C53	C	1.416253	-0.380663	-0.013984
H54	H	1.457071	-0.681685	-0.444754
Br55	Br	1.013835	-0.499865	-0.212977
Br56	Br	1.606721	-0.261486	-1.065677
H57	H	1.269586	-0.472451	-0.779998
Br58	Br	1.535233	-0.685728	-0.523786
H59	H	1.562794	-0.288997	-0.829432
Br60	Br	1.297028	-1.075135	-0.284057
H61	H	1.040804	-0.289210	-0.550452
H62	H	0.841753	-0.289226	-0.550459
Br63	Br	0.755190	-0.499896	-0.213008
H64	H	1.625375	-0.805341	-0.613268
Br65	Br	1.701814	-0.906671	-0.689776
H66	H	1.619118	-1.078930	-0.606983
Br67	Br	1.225791	-0.499831	-1.001466
H68	H	1.375397	-1.079193	-0.362890
H69	H	1.207100	-0.955536	-0.194380
Br70	Br	1.182871	-0.659550	-0.170173
Br71	Br	1.130649	-0.854191	-0.117872
