data_functionalizedCrystal
_audit_creation_method	'MofGen! by Chris Wilmer'
_symmetry_space_group_name_H-M	'P1'
_symmetry_Int_Tables_number	1
_symmetry_cell_setting	triclinic
loop_
_symmetry_equiv_pos_as_xyz
  x,y,z
_cell_length_a	12.759401
_cell_length_b	19.805405
_cell_length_c	12.759393
_cell_angle_alpha	89.962372
_cell_angle_beta	89.980596
_cell_angle_gamma	90.026332
loop_
_atom_site_label
_atom_site_type_symbol
_atom_site_fract_x
_atom_site_fract_y
_atom_site_fract_z
Zn1	Zn	1.606170	-0.269425	-0.593963
Zn2	Zn	2.106170	0.230575	-0.093963
Zn3	Zn	1.606028	-0.382630	-0.418264
Zn4	Zn	2.106028	0.117370	0.081736
Zn5	Zn	1.430472	-0.269460	-0.418299
Zn6	Zn	1.930472	0.230540	0.081701
Zn7	Zn	1.430425	-0.382577	-0.593903
Zn8	Zn	1.930425	0.117423	-0.093903
O9	O	1.518274	-0.326023	-0.506107
O10	O	2.018274	0.173977	-0.006107
O11	O	1.753172	-0.284449	-0.570666
O12	O	2.253172	0.215551	-0.070666
O13	O	1.582701	-0.367654	-0.271248
O14	O	2.082701	0.132346	0.228752
O15	O	1.453858	-0.174738	-0.441641
O16	O	1.953858	0.325262	0.058359
O17	O	1.753068	-0.367620	-0.441581
O18	O	2.253068	0.132380	0.058419
O19	O	1.582942	-0.174713	-0.570700
O20	O	2.082942	0.325287	-0.070700
O21	O	1.453720	-0.284509	-0.271273
O22	O	1.953720	0.215491	0.228727
O23	O	1.283445	-0.284458	-0.441583
O24	O	1.783445	0.215542	0.058417
O25	O	1.453777	-0.367530	-0.740932
O26	O	1.953777	0.132470	-0.240932
O27	O	1.283410	-0.367564	-0.570598
O28	O	1.783410	0.132436	-0.070598
O29	O	1.582896	-0.284398	-0.740976
O30	O	2.082896	0.215602	-0.240976
O31	O	1.582655	-0.477339	-0.441523
O32	O	2.082655	0.022661	0.058477
O33	O	1.453640	-0.477301	-0.570564
O34	O	1.953640	0.022699	-0.070564
C35	C	1.245306	-0.326010	-0.506089
C36	C	1.745306	0.173990	-0.006089
C37	C	1.128530	-0.326020	-0.506105
C38	C	1.628530	0.173980	-0.006105
C39	C	0.963930	-0.282702	-0.439059
C40	C	1.463930	0.217298	0.060941
C41	C	1.073654	-0.282689	-0.439047
C42	C	1.573654	0.217311	0.060953
C43	C	1.073676	-0.369362	-0.573189
C44	C	1.573676	0.130638	-0.073189
C45	C	0.963953	-0.369371	-0.573205
C46	C	1.463953	0.130629	-0.073205
C47	C	0.963919	-0.232665	-0.361610
C48	C	1.463919	0.267335	0.138390
C49	C	1.073643	-0.232652	-0.361597
C50	C	1.573643	0.267348	0.138403
C51	C	1.518155	-0.501879	-0.506056
C52	C	2.018155	-0.001879	-0.006056
C53	C	1.518201	-0.577111	-0.506070
C54	C	2.018201	-0.077111	-0.006070
C55	C	1.585445	-0.612453	-0.438948
C56	C	2.085445	-0.112453	0.061052
C57	C	1.585489	-0.683141	-0.438972
C58	C	2.085489	-0.183141	0.061028
C59	C	1.518284	-0.718486	-0.506112
C60	C	2.018284	-0.218486	-0.006112
C61	C	1.451038	-0.683140	-0.573240
C62	C	1.951038	-0.183140	-0.073240
C63	C	1.450999	-0.612452	-0.573222
C64	C	1.950999	-0.112452	-0.073222
C65	C	1.451193	-0.968213	-0.573318
C66	C	1.951193	-0.468213	-0.073318
C67	C	1.451234	-1.038905	-0.573329
C68	C	1.951234	-0.538905	-0.073329
C69	C	1.585683	-1.038901	-0.439068
C70	C	2.085683	-0.538901	0.060932
C71	C	1.585644	-0.968214	-0.439049
C72	C	2.085644	-0.468214	0.060951
C73	C	1.518402	-0.932874	-0.506182
C74	C	2.018402	-0.432874	-0.006182
C75	C	1.518356	-0.856225	-0.506157
C76	C	2.018356	-0.356225	-0.006157
C77	C	1.518324	-0.795133	-0.506132
C78	C	2.018324	-0.295133	-0.006132
C79	C	1.792307	-0.326036	-0.506126
C80	C	2.292307	0.173964	-0.006126
C81	C	1.909084	-0.326042	-0.506135
C82	C	2.409084	0.173958	-0.006135
C83	C	1.518347	-0.325954	-0.780141
C84	C	2.018347	0.174046	-0.280141
C85	C	1.518379	-0.325925	-0.896917
C86	C	2.018379	0.174075	-0.396917
C87	C	1.518421	-0.149480	-0.506181
C88	C	2.018421	0.350520	-0.006181
C89	C	1.518484	-0.074248	-0.506213
C90	C	2.018484	0.425752	-0.006213
C91	C	1.585620	-0.282634	-0.951804
C92	C	2.085620	0.217366	-0.451804
C93	C	1.585645	-0.282610	-1.061528
C94	C	2.085645	0.217390	-0.561528
C95	C	1.451184	-0.369173	-1.061469
C96	C	1.951184	0.130827	-0.561469
C97	C	1.451154	-0.369194	-0.951747
C98	C	1.951154	0.130806	-0.451747
C99	C	1.663254	-0.232659	-0.951839
C100	C	2.163254	0.267341	-0.451839
C101	C	1.663279	-0.232635	-1.061563
C102	C	2.163279	0.267365	-0.561563
C103	C	1.518261	-0.326042	-0.233140
C104	C	2.018261	0.173958	0.266860
C105	C	1.518433	-0.325880	-0.116364
C106	C	2.018433	0.174120	0.383636
H107	H	0.934180	-0.180261	-0.383550
H108	H	1.434180	0.319739	0.116450
Cl109	Cl	1.366602	-0.423608	-0.882750
Cl110	Cl	1.866602	0.076392	-0.382750
H111	H	1.396450	-0.404400	-1.106125
H112	H	1.896450	0.095600	-0.606125
H113	H	1.744645	-0.246674	-1.091340
H114	H	2.244645	0.253326	-0.591340
H115	H	1.641502	-0.180241	-0.922091
H116	H	2.141502	0.319759	-0.422091
Cl117	Cl	1.366464	-0.568023	-0.657610
Cl118	Cl	1.866464	-0.068023	-0.157610
Cl119	Cl	0.911293	-0.261567	-0.242203
Cl120	Cl	1.411293	0.238433	0.257797
Cl121	Cl	1.119555	-0.254237	-0.235908
Cl122	Cl	1.619555	0.245763	0.264092
H123	H	1.107712	-0.182872	-0.390879
H124	H	1.607712	0.317128	0.109121
H125	H	1.640365	-0.939438	-0.384374
H126	H	2.140365	-0.439438	0.115626
Cl127	Cl	1.669929	-0.568025	-0.354532
Cl128	Cl	2.169929	-0.068025	0.145468
H129	H	1.740520	-0.251451	-0.917801
H130	H	2.240520	0.248549	-0.417801
H131	H	1.118364	-0.404638	-0.627797
H132	H	1.618364	0.095362	-0.127797
Cl133	Cl	1.670031	-0.727568	-0.354590
Cl134	Cl	2.170031	-0.227568	0.145410
Cl135	Cl	1.366658	-0.923794	-0.657711
Cl136	Cl	1.866658	-0.423794	-0.157711
H137	H	1.640438	-1.067684	-0.384410
H138	H	2.140438	-0.567684	0.115590
H139	H	1.396509	-1.067681	-0.628011
H140	H	1.896509	-0.567681	-0.128011
H141	H	1.396323	-0.711923	-0.627911
H142	H	1.896323	-0.211923	-0.127911
H143	H	0.919302	-0.404657	-0.627834
H144	H	1.419302	0.095343	-0.127834
Cl145	Cl	1.618204	-0.155779	-1.114151
Cl146	Cl	2.118204	0.344221	-0.614151
