data_functionalizedCrystal
_audit_creation_method	'MofGen! by Chris Wilmer'
_symmetry_space_group_name_H-M	'P1'
_symmetry_Int_Tables_number	1
_symmetry_cell_setting	triclinic
loop_
_symmetry_equiv_pos_as_xyz
  x,y,z
_cell_length_a	14.908571
_cell_length_b	12.594516
_cell_length_c	14.908308
_cell_angle_alpha	93.270069
_cell_angle_beta	90.175053
_cell_angle_gamma	86.708170
loop_
_atom_site_label
_atom_site_type_symbol
_atom_site_fract_x
_atom_site_fract_y
_atom_site_fract_z
Zn1	Zn	1.345365	-0.555462	-0.587606
Zn2	Zn	1.353966	-0.723818	-0.437253
Zn3	Zn	1.203678	-0.535018	-0.428603
Zn4	Zn	1.194994	-0.722554	-0.578905
O5	O	1.274501	-0.634213	-0.508092
O6	O	1.472333	-0.586880	-0.574923
O7	O	1.341264	-0.690747	-0.310281
O8	O	1.222507	-0.388788	-0.449716
O9	O	1.478652	-0.710570	-0.464460
O10	O	1.326604	-0.403808	-0.566535
O11	O	1.230848	-0.552036	-0.303925
O12	O	1.076699	-0.550810	-0.441279
O13	O	1.207707	-0.708415	-0.705884
O14	O	1.070319	-0.688591	-0.551705
O15	O	1.318184	-0.585654	-0.712277
O16	O	1.332844	-0.872592	-0.456023
O17	O	1.216047	-0.871663	-0.560094
C18	C	1.040883	-0.617346	-0.494610
C19	C	0.940939	-0.610157	-0.488864
C20	C	1.274460	-0.910750	-0.508074
C21	C	1.274523	-1.029061	-0.508101
C22	C	0.746548	-0.740322	-0.592898
C23	C	0.652641	-0.733570	-0.587502
C24	C	0.659218	-0.589899	-0.472681
C25	C	0.753124	-0.596650	-0.478077
C26	C	0.796786	-0.671865	-0.538187
C27	C	0.890694	-0.678620	-0.543577
C28	C	0.897269	-0.534945	-0.428761
C29	C	0.803362	-0.528194	-0.423365
C30	C	1.338115	-1.098790	-0.451565
C31	C	1.355349	-1.176338	-0.534898
C32	C	1.257398	-1.162324	-0.424826
C33	C	1.291797	-1.105056	-0.591480
C34	C	1.193811	-1.091030	-0.481350
C35	C	1.211011	-1.168547	-0.564738
C36	C	1.509030	-0.651147	-0.521627
C37	C	1.608973	-0.658363	-0.527395
C38	C	1.261017	-0.649174	-0.742618
C39	C	1.255272	-0.655549	-0.842559
C40	C	1.274565	-0.356599	-0.508131
C41	C	1.274592	-0.238297	-0.508148
C42	C	1.359512	-0.539673	-1.037016
C43	C	1.354116	-0.545660	-1.130920
C44	C	1.239080	-0.673504	-1.124271
C45	C	1.244476	-0.667517	-1.030367
C46	C	1.304695	-0.600600	-0.986744
C47	C	1.310095	-0.594620	-0.892838
C48	C	1.195055	-0.722457	-0.886191
C49	C	1.189659	-0.728444	-0.980095
C50	C	1.287983	-0.619237	-0.274481
C51	C	1.293903	-0.612574	-0.174551
H52	H	0.926242	-0.739866	-0.592520
C53	C	1.323629	-1.161576	-0.745193
C54	C	1.311501	-1.070990	-0.686612
H55	H	1.335790	-1.140541	-0.803922
H56	H	1.372685	-1.205564	-0.725143
H57	H	1.270629	-1.200049	-0.746254
H58	H	1.364504	-1.032521	-0.685546
H59	H	1.262441	-1.026985	-0.706667
H60	H	1.190053	-0.727983	-1.159806
H61	H	1.125547	-1.053774	-0.458676
H62	H	0.782098	-0.801570	-0.641837
H63	H	1.242885	-1.187707	-0.354382
C64	C	1.446324	-1.337719	-0.565994
C65	C	1.447523	-1.226600	-0.565502
H66	H	1.503229	-1.368740	-0.584895
H67	H	1.433723	-1.358202	-0.507213
H68	H	1.401216	-1.361576	-0.606222
H69	H	1.492628	-1.202742	-0.525269
H70	H	1.460135	-1.206108	-0.624292
C71	C	1.188597	-0.858000	-0.779858
C72	C	1.134791	-0.789434	-0.830931
H73	H	1.151393	-0.899344	-0.745741
H74	H	1.225652	-0.903867	-0.818748
H75	H	1.225225	-0.817283	-0.740436
H76	H	1.098167	-0.830151	-0.870358
H77	H	1.097721	-0.743561	-0.792037
H78	H	0.623652	-0.528657	-0.423748
C79	C	1.423251	-0.468843	-0.908846
C80	C	1.376281	-0.521062	-0.844884
H81	H	1.464106	-0.423425	-0.879240
H82	H	1.455533	-0.520030	-0.947447
H83	H	1.381964	-0.427646	-0.943218
H84	H	1.417567	-0.562266	-0.810516
H85	H	1.343997	-0.469868	-0.806267
C86	C	1.138588	-1.320778	-0.628340
C87	C	1.138449	-1.209668	-0.629380
H88	H	1.093790	-1.346163	-0.668245
H89	H	1.195794	-1.351192	-0.646856
H90	H	1.126259	-1.340331	-0.569213
H91	H	1.150785	-1.190115	-0.688506
H92	H	1.081229	-1.179243	-0.610869
C93	C	0.655578	-0.876261	-0.701538
C94	C	0.597419	-0.808821	-0.647642
H95	H	0.621483	-0.922721	-0.738664
H96	H	0.690232	-0.834777	-0.738097
H97	H	0.694451	-0.917034	-0.664401
H98	H	0.558550	-0.768042	-0.684779
H99	H	0.562750	-0.850309	-0.611079
C100	C	1.468370	-0.418699	-1.128056
C101	C	1.414376	-0.478692	-1.186181
H102	H	1.505576	-0.377359	-1.162174
H103	H	1.431305	-0.372826	-1.089179
H104	H	1.504857	-0.465229	-1.093406
H105	H	1.377884	-0.432161	-1.220827
H106	H	1.451445	-0.524569	-1.225074
C107	C	1.370234	-0.988988	-0.319724
C108	C	1.410712	-1.057423	-0.387081
H109	H	1.415053	-0.963457	-0.279915
H110	H	1.339481	-0.930547	-0.346286
H111	H	1.328724	-1.026558	-0.287279
H112	H	1.452217	-1.019851	-0.419530
H113	H	1.441479	-1.115874	-0.360516
H114	H	0.767800	-0.466954	-0.374428
C115	C	0.894333	-0.392250	-0.314719
C116	C	0.952492	-0.459689	-0.368617
H117	H	0.928428	-0.345799	-0.277586
H118	H	0.855466	-0.351477	-0.351849
H119	H	0.859673	-0.433743	-0.278160
H120	H	0.987148	-0.418197	-0.405182
H121	H	0.991374	-0.500466	-0.331483
C122	C	1.130309	-0.794389	-1.121091
C123	C	1.123471	-0.801998	-1.028051
H124	H	1.089451	-0.839806	-1.150694
H125	H	1.116273	-0.722916	-1.135722
H126	H	1.189841	-0.815302	-1.139955
H127	H	1.063941	-0.781077	-1.009186
H128	H	1.137501	-0.873487	-1.013414
H129	H	1.408549	-0.485193	-1.001498
