data_functionalizedCrystal
_audit_creation_method	'MofGen! by Chris Wilmer'
_symmetry_space_group_name_H-M	'P1'
_symmetry_Int_Tables_number	1
_symmetry_cell_setting	triclinic
loop_
_symmetry_equiv_pos_as_xyz
  x,y,z
_cell_length_a	23.196402
_cell_length_b	23.096457
_cell_length_c	23.096457
_cell_angle_alpha	89.998020
_cell_angle_beta	59.999849
_cell_angle_gamma	59.998263
loop_
_atom_site_label
_atom_site_type_symbol
_atom_site_fract_x
_atom_site_fract_y
_atom_site_fract_z
Zr1	Zr	0.631032	0.557751	-0.075990
O2	O	0.751304	0.465298	-0.168435
O3	O	0.510762	0.586094	-0.047652
O4	O	0.631036	0.586090	-0.168442
O5	O	0.631026	0.465304	0.047638
O6	O	0.631038	0.681370	-0.168446
O7	O	0.631030	0.465303	-0.047645
O8	O	0.415889	0.681378	0.047625
O9	O	0.846174	0.465296	-0.168433
O10	O	0.560232	0.669287	-0.035567
O11	O	0.560228	0.598181	0.035544
O12	O	0.701835	0.598176	-0.106670
O13	O	0.701831	0.527070	-0.035559
Zr14	Zr	0.631029	0.709714	0.075970
Zr15	Zr	0.631035	0.709712	-0.075996
Zr16	Zr	0.631026	0.557753	0.075976
Zr17	Zr	0.782340	0.557748	-0.075987
Zr18	Zr	0.479721	0.709717	0.075967
O19	O	0.751299	0.681371	0.047632
O20	O	0.751307	0.681368	-0.168443
O21	O	0.751295	0.465301	0.047640
O22	O	0.510757	0.802166	0.168415
O23	O	0.510766	0.802163	-0.047660
O24	O	0.510754	0.586097	0.168423
O25	O	0.631035	0.802161	-0.047658
O26	O	0.631025	0.681375	0.168422
O27	O	0.631023	0.586094	0.168426
O28	O	0.631031	0.802162	0.047625
O29	O	0.846176	0.586085	-0.168438
O30	O	0.415885	0.681379	0.168418
O31	O	0.415887	0.802168	0.168413
O32	O	0.415891	0.802166	0.047621
O33	O	0.846170	0.465298	-0.047641
O34	O	0.846172	0.586087	-0.047645
O35	O	0.560226	0.669288	0.106650
O36	O	0.560230	0.740394	0.035539
O37	O	0.701833	0.669284	-0.035564
O38	O	0.701829	0.598178	0.035547
C39	C	0.441768	0.633736	-0.000014
C40	C	0.377534	0.633737	-0.000015
C41	C	0.631027	0.443652	-0.000003
C42	C	0.631026	0.379140	-0.000001
C43	C	-0.085307	0.670850	-0.037117
C44	C	-0.024949	0.670848	-0.037123
C45	C	0.005231	0.633733	-0.000004
C46	C	-0.024938	0.596602	0.037110
C47	C	-0.085290	0.596599	0.037110
C48	C	0.067256	0.639037	0.062170
C49	C	0.127603	0.639045	0.062172
C50	C	0.191379	0.633738	-0.000003
C51	C	0.194793	0.628437	-0.062181
C52	C	0.134441	0.628434	-0.062181
C53	C	0.070673	0.633732	0.000001
C54	C	0.286993	0.670861	-0.037126
C55	C	0.347357	0.670854	-0.037134
C56	C	0.347361	0.596612	0.037106
C57	C	0.287004	0.596614	0.037108
C58	C	0.256821	0.633743	-0.000007
C59	C	0.557113	0.385954	0.037108
C60	C	0.557112	0.325338	0.037111
C61	C	0.631028	0.257910	-0.000008
C62	C	0.704951	0.251099	-0.037118
C63	C	0.704950	0.311714	-0.037114
N64	N	0.686049	0.135112	-0.060419
N65	N	0.686045	0.077533	-0.060421
C66	C	0.631035	0.075277	-0.000021
N67	N	0.576017	0.132782	0.060381
N68	N	0.576019	0.190368	0.060382
C69	C	0.631037	0.192179	-0.000016
C70	C	0.557116	0.016367	0.037094
C71	C	0.557118	-0.044251	0.037099
C72	C	0.704959	-0.118490	-0.037137
C73	C	0.704955	-0.057872	-0.037135
C74	C	0.631031	0.009554	-0.000021
C75	C	0.820293	0.633728	-0.000006
C76	C	0.884527	0.633727	-0.000005
C77	C	0.631038	0.633730	-0.190096
C78	C	0.631041	0.633729	-0.254609
C79	C	0.631034	0.823813	-0.000017
C80	C	0.631035	0.888324	-0.000019
C81	C	0.704935	0.596624	-0.752225
C82	C	0.704940	0.596618	-0.691612
C83	C	0.631026	0.633737	-0.624184
C84	C	0.557101	0.670850	-0.617372
C85	C	0.557098	0.670850	-0.677985
N86	N	0.576010	0.694144	-0.501388
N87	N	0.576017	0.694144	-0.443810
C88	C	0.631029	0.633740	-0.441557
N89	N	0.686045	0.573338	-0.499062
N90	N	0.686040	0.573340	-0.556646
C91	C	0.631020	0.633742	-0.558455
C92	C	0.704954	0.596618	-0.382649
C93	C	0.704956	0.596610	-0.322033
C94	C	0.557114	0.670850	-0.247793
C95	C	0.557115	0.670851	-0.308409
C96	C	0.631037	0.633737	-0.375835
C97	C	0.631023	0.633735	0.190076
C98	C	0.631020	0.633736	0.254589
C99	C	0.441771	0.823816	-0.000021
C100	C	0.377538	0.888329	-0.000025
C101	C	0.441760	0.633739	0.190072
C102	C	0.377523	0.633741	0.254584
C103	C	0.441763	0.823819	0.190065
C104	C	0.377528	0.888333	0.254574
C105	C	0.820298	0.443645	-0.190085
C106	C	0.884533	0.379132	-0.254594
C107	C	0.820290	0.443648	0.000001
C108	C	0.884523	0.379135	0.000005
C109	C	0.820301	0.633726	-0.190092
C110	C	0.884538	0.633724	-0.254604
C111	C	0.347374	0.881508	-0.037149
C112	C	0.287029	0.942119	-0.037167
C113	C	0.256844	1.009550	-0.000055
C114	C	0.287014	1.016370	0.037070
C115	C	0.347362	0.955760	0.037084
C116	C	0.347356	0.670859	0.322002
C117	C	0.287008	0.670859	0.382624
C118	C	0.256823	0.633743	0.375826
C119	C	0.286996	0.596620	0.308400
C120	C	0.347348	0.596617	0.247780
C121	C	0.347364	0.955752	0.247749
C122	C	0.287016	1.016375	0.308357
C123	C	0.256829	1.009578	0.375789
C124	C	0.286999	0.942152	0.382613
C125	C	0.347350	0.881530	0.322006
C126	C	0.914704	0.311713	-0.247769
C127	C	0.975071	0.251089	-0.308377
C128	C	1.005261	0.257887	-0.375809
C129	C	0.975088	0.325313	-0.382633
C130	C	0.914726	0.385935	-0.322026
C131	C	0.914693	0.385957	0.037123
C132	C	0.975055	0.325346	0.037124
C133	C	1.005242	0.257914	0.000010
C134	C	0.975070	0.251094	-0.037113
C135	C	0.914713	0.311704	-0.037117
C136	C	0.914703	0.670846	-0.247783
C137	C	0.975052	0.670858	-0.308393
C138	C	1.005239	0.633743	-0.375823
C139	C	0.975067	0.596619	-0.382643
C140	C	0.914715	0.596612	-0.322034
H141	H	-0.109879	0.701080	-0.067340
H142	H	0.262440	0.566388	0.067332
H143	H	0.262472	0.936552	-0.067399
H144	H	0.371914	0.961324	0.067319
C145	C	0.881511	0.304218	-0.173599
N146	N	0.856519	0.298567	-0.117736
H147	H	0.999628	0.196194	-0.302808
C148	C	0.475799	0.090538	0.077928
N149	N	0.414550	0.146402	0.108687
C150	C	0.881535	0.460095	-0.329545
N151	N	0.856537	0.515951	-0.335214
H152	H	0.262412	0.936627	0.437524
C153	C	1.008298	0.332778	-0.456815
N154	N	1.033309	0.338399	-0.512691
H155	H	0.496925	0.701075	-0.302857
H156	H	0.890120	0.440858	0.067350
H157	H	0.999655	0.566400	-0.437553
C158	C	0.380521	0.807370	0.329525
N159	N	0.405504	0.751513	0.335194
H160	H	0.999612	0.701087	-0.302826
C161	C	0.380570	0.807338	-0.077983
N162	N	0.405574	0.751475	-0.108745
H163	H	0.262420	0.701091	-0.067349
H164	H	0.371936	0.566388	0.067326
C165	C	0.138209	0.622587	-0.130579
N166	N	0.141051	0.618176	-0.182100
H167	H	0.890161	0.566379	-0.327597
H168	H	0.999611	0.330913	0.067357
H169	H	0.999657	0.196183	-0.067330
C170	C	1.071654	0.191194	-0.442473
N171	N	1.121658	0.140958	-0.492681
C172	C	1.071630	0.633756	-0.442489
N173	N	1.121637	0.633768	-0.492699
C174	C	0.123838	0.644882	0.130570
N175	N	0.120999	0.649279	0.182089
C176	C	0.253780	0.555800	0.300933
N177	N	0.228755	0.525058	0.295312
H178	H	0.765141	0.306161	-0.067331
C179	C	0.786252	0.555767	-0.826391
N180	N	0.847501	0.524983	-0.882254
C181	C	0.786256	0.555795	-0.699106
N182	N	0.847503	0.525049	-0.704752
C183	C	0.190453	1.076217	-0.000071
N184	N	0.140445	1.126428	-0.000083
C185	C	0.253796	1.090552	0.077896
N186	N	0.228769	1.146428	0.108651
H187	H	0.371921	0.701081	-0.067360
H188	H	0.496919	0.701071	-0.562468
C189	C	0.881505	0.711684	-0.173614
N190	N	0.856499	0.742449	-0.117752
H191	H	0.496932	0.701068	-0.192893
C192	C	0.475803	-0.036751	0.077918
N193	N	0.414555	-0.031102	0.108661
H194	H	-0.000384	0.701079	-0.067346
C195	C	0.380516	0.555790	0.173621
N196	N	0.405494	0.525038	0.117765
H197	H	0.371926	0.701083	0.327551
H198	H	0.246723	0.624114	-0.112811
H199	H	-0.109849	0.566367	0.067332
H200	H	0.015331	0.643355	0.112804
C201	C	0.475798	0.332831	0.077931
N202	N	0.414553	0.338476	0.108676
H203	H	-0.000360	0.566381	0.067332
C204	C	0.786259	0.176927	-0.077952
N205	N	0.847503	0.121058	-0.108709
H206	H	1.054388	0.208567	0.000020
C207	C	0.786269	0.555790	-0.456820
N208	N	0.847517	0.525038	-0.512684
C209	C	0.786267	-0.065369	-0.077969
N210	N	0.847515	-0.071018	-0.108728
C211	C	0.253834	1.090537	0.300835
N212	N	0.228840	1.146394	0.295168
H213	H	0.262448	0.701091	0.437519
H214	H	0.207688	1.058946	0.425134
H215	H	0.496918	0.440851	0.067324
H216	H	0.765143	-0.173391	-0.067360
H217	H	0.496906	0.701071	-0.672431
H218	H	0.765149	0.566385	-0.327588
H219	H	0.207681	0.633752	0.425192
H220	H	0.371934	0.961300	0.192848
H221	H	0.890150	0.306140	-0.067342
