data_functionalizedCrystal
_audit_creation_method	'MofGen! by Chris Wilmer'
_symmetry_space_group_name_H-M	'P1'
_symmetry_Int_Tables_number	1
_symmetry_cell_setting	triclinic
loop_
_symmetry_equiv_pos_as_xyz
  x,y,z
_cell_length_a	16.959455
_cell_length_b	19.805405
_cell_length_c	19.805399
_cell_angle_alpha	89.970699
_cell_angle_beta	90.017502
_cell_angle_gamma	89.976642
loop_
_atom_site_label
_atom_site_type_symbol
_atom_site_fract_x
_atom_site_fract_y
_atom_site_fract_z
Zn1	Zn	1.208374	0.269534	0.382674
Zn2	Zn	1.708374	0.769534	0.882674
Zn3	Zn	1.208274	0.382722	0.269482
Zn4	Zn	1.708274	0.882722	0.769482
Zn5	Zn	1.076195	0.269547	0.269503
Zn6	Zn	1.576195	0.769547	0.769503
Zn7	Zn	1.076152	0.382680	0.382633
Zn8	Zn	1.576152	0.882680	0.882633
O9	O	1.142249	0.326121	0.326073
O10	O	1.642249	0.826121	0.826073
O11	O	1.318971	0.284561	0.367668
O12	O	1.818971	0.784561	0.867668
O13	O	1.190730	0.367732	0.174769
O14	O	1.690730	0.867732	0.674769
O15	O	1.093788	0.174828	0.284541
O16	O	1.593788	0.674828	0.784541
O17	O	1.318898	0.367720	0.284506
O18	O	1.818898	0.867720	0.784506
O19	O	1.190899	0.174819	0.367687
O20	O	1.690899	0.674819	0.867687
O21	O	1.093692	0.284583	0.174783
O22	O	1.593692	0.784583	0.674783
O23	O	0.965578	0.284542	0.284501
O24	O	1.465578	0.784542	0.784501
O25	O	1.093716	0.367648	0.477355
O26	O	1.593716	0.867648	0.977355
O27	O	0.965547	0.367661	0.367618
O28	O	1.465547	0.867661	0.867618
O29	O	1.190858	0.284520	0.477385
O30	O	1.690858	0.784520	0.977385
O31	O	1.190689	0.477433	0.284467
O32	O	1.690689	0.977433	0.784467
O33	O	1.093619	0.477403	0.367598
O34	O	1.593619	0.977403	0.867598
C35	C	0.936883	0.326099	0.326058
C36	C	1.436883	0.826099	0.826058
C37	C	0.849026	0.326105	0.326067
C38	C	1.349026	0.826105	0.826067
C39	C	1.142160	0.501977	0.326040
C40	C	1.642160	1.001977	0.826040
C41	C	1.142194	0.577209	0.326049
C42	C	1.642194	1.077209	0.826049
C43	C	1.142293	0.326078	0.502616
C44	C	1.642293	0.826078	1.002616
C45	C	1.142312	0.326060	0.577848
C46	C	1.642312	0.826060	1.077848
C47	C	0.477542	0.282805	0.282885
C48	C	0.977542	0.782805	0.782885
C49	C	0.477558	0.369492	0.369300
C50	C	0.977558	0.869492	0.869300
C51	C	0.560104	0.369482	0.369296
C52	C	1.060104	0.869482	0.869296
C53	C	0.601373	0.326134	0.326085
C54	C	1.101373	0.826134	0.826085
C55	C	0.560096	0.282796	0.282878
C56	C	1.060096	0.782796	0.782878
C57	C	0.601388	0.412825	0.412498
C58	C	1.101388	0.912825	0.912498
C59	C	0.683939	0.412817	0.412495
C60	C	1.183939	0.912817	0.912495
C61	C	0.725209	0.369465	0.369286
C62	C	1.225209	0.869465	0.869286
C63	C	0.683927	0.326125	0.326078
C64	C	1.183927	0.826125	0.826078
C65	C	0.725195	0.282776	0.282867
C66	C	1.225195	0.782776	0.782867
C67	C	0.683914	0.239432	0.239662
C68	C	1.183914	0.739432	0.739662
C69	C	0.601366	0.239444	0.239670
C70	C	1.101366	0.739444	0.739670
C71	C	0.807757	0.369453	0.369278
C72	C	1.307757	0.869453	0.869278
C73	C	0.807749	0.282767	0.282860
C74	C	1.307749	0.782767	0.782860
C75	C	1.348417	0.326144	0.326089
C76	C	1.848417	0.826144	0.826089
C77	C	1.436274	0.326154	0.326096
C78	C	1.936274	0.826154	0.826096
C79	C	1.142360	0.149578	0.326121
C80	C	1.642360	0.649578	0.826121
C81	C	1.142407	0.074346	0.326141
C82	C	1.642407	0.574346	0.826141
C83	C	1.192787	0.612547	0.282808
C84	C	1.692787	1.112547	0.782808
C85	C	1.192821	0.683235	0.282823
C86	C	1.692821	1.183235	0.782823
C87	C	1.142257	0.718584	0.326076
C88	C	1.642257	1.218584	0.826076
C89	C	1.091661	0.683242	0.369322
C90	C	1.591661	1.183242	0.869322
C91	C	1.091632	0.612555	0.369310
C92	C	1.591632	1.112555	0.869310
C93	C	1.091778	0.968315	0.369372
C94	C	1.591778	1.468315	0.869372
C95	C	1.091809	1.039007	0.369379
C96	C	1.591809	1.539007	0.869379
C97	C	1.192966	1.038995	0.282885
C98	C	1.692966	1.538995	0.782885
C99	C	1.192937	0.968308	0.282873
C100	C	1.692937	1.468308	0.782873
C101	C	1.142345	0.932972	0.326121
C102	C	1.642345	1.432972	0.826121
C103	C	1.142311	0.856323	0.326105
C104	C	1.642311	1.356323	0.826105
C105	C	1.142287	0.795232	0.326089
C106	C	1.642287	1.295232	0.826089
C107	C	1.142250	0.326114	0.150217
C108	C	1.642250	0.826114	0.650217
C109	C	1.142384	0.325942	0.074986
C110	C	1.642384	0.825942	0.574986
C111	C	1.192895	0.282773	0.613209
C112	C	1.692895	0.782773	1.113209
C113	C	1.192903	0.282753	0.683897
C114	C	1.692903	0.782753	1.183897
C115	C	1.142332	0.326025	0.719224
C116	C	1.642332	0.826025	1.219224
C117	C	1.091743	0.369314	0.683858
C118	C	1.591743	0.869314	1.183858
C119	C	1.091731	0.369329	0.613171
C120	C	1.591731	0.869329	1.113171
C121	C	1.091787	0.369251	0.968931
C122	C	1.591787	0.869251	1.468931
C123	C	1.091805	0.369233	1.039623
C124	C	1.591805	0.869233	1.539623
C125	C	1.192960	0.282675	1.039658
C126	C	1.692960	0.782675	1.539658
C127	C	1.192948	0.282690	0.968971
C128	C	1.692948	0.782690	1.468971
C129	C	1.142357	0.325976	0.933611
C130	C	1.642357	0.825976	1.433611
C131	C	1.142347	0.325996	0.856963
C132	C	1.642347	0.825996	1.356963
C133	C	1.142344	0.326009	0.795871
C134	C	1.642344	0.826009	1.295871
H135	H	0.841344	0.247463	0.247676
H136	H	1.341344	0.747463	0.747676
H137	H	0.841364	0.404746	0.404453
H138	H	1.341364	0.904746	0.904453
C139	C	1.080715	0.460342	0.763320
C140	C	1.580715	0.960342	1.263320
C141	C	1.036153	0.416879	0.722687
C142	C	1.536153	0.916879	1.222687
H143	H	1.046395	0.489710	0.787287
H144	H	1.546395	0.989710	1.287287
H145	H	1.110835	0.434559	0.794495
H146	H	1.610835	0.934559	1.294495
H147	H	1.115129	0.486240	0.735733
H148	H	1.615129	0.986240	1.235733
H149	H	1.001743	0.390978	0.750274
H150	H	1.501743	0.890978	1.250274
H151	H	1.006019	0.442664	0.691508
H152	H	1.506019	0.942664	1.191508
C153	C	1.299215	0.273394	0.533734
C154	C	1.799215	0.773394	1.033734
C155	C	1.248484	0.235206	0.574381
C156	C	1.748484	0.735206	1.074381
H157	H	1.333535	0.244024	0.509768
H158	H	1.833535	0.744024	1.009768
H159	H	1.269090	0.299171	0.502559
H160	H	1.769090	0.799171	1.002559
H161	H	1.329436	0.302877	0.561312
H162	H	1.829436	0.802877	1.061312
H163	H	1.218259	0.205726	0.546802
H164	H	1.718259	0.705726	1.046802
H165	H	1.278613	0.209417	0.605559
H166	H	1.778613	0.709417	1.105559
C167	C	1.080774	0.460265	1.119085
C168	C	1.580774	0.960265	1.619085
C169	C	1.036210	0.416801	1.078453
C170	C	1.536210	0.916801	1.578453
H171	H	1.046454	0.489633	1.143052
H172	H	1.546454	0.989633	1.643052
H173	H	1.110897	0.434484	1.150258
H174	H	1.610897	0.934484	1.650258
H175	H	1.115185	0.486164	1.091496
H176	H	1.615185	0.986164	1.591496
H177	H	1.001803	0.390899	1.106043
H178	H	1.501803	0.890899	1.606043
H179	H	1.006074	0.442585	1.047276
H180	H	1.506074	0.942585	1.547276
C181	C	0.776803	0.422323	0.503519
C182	C	1.276803	0.922323	1.003519
C183	C	0.729311	0.460453	0.459991
C184	C	1.229311	0.960453	0.959991
H185	H	0.804817	0.451731	0.532840
H186	H	1.304817	0.951731	1.032840
H187	H	0.744616	0.392877	0.529459
H188	H	1.244616	0.892877	1.029459
H189	H	0.813193	0.396509	0.477777
H190	H	1.313193	0.896509	0.977777
H191	H	0.692917	0.486263	0.485733
H192	H	1.192917	0.986263	0.985733
H193	H	0.761501	0.489911	0.434048
H194	H	1.261501	0.989911	0.934048
C195	C	1.053095	0.704960	0.483910
C196	C	1.553095	1.204960	0.983910
C197	C	1.036083	0.722098	0.416869
C198	C	1.536083	1.222098	0.916869
H199	H	1.018784	0.728951	0.513262
H200	H	1.518784	1.228951	1.013262
H201	H	1.045833	0.657810	0.490088
H202	H	1.545833	1.157810	0.990088
H203	H	1.106204	0.716507	0.493848
H204	H	1.606204	1.216507	0.993848
H205	H	0.982975	0.710547	0.406929
H206	H	1.482975	1.210547	0.906929
H207	H	1.043338	0.769259	0.410688
H208	H	1.543338	1.269259	0.910688
H209	H	1.050435	0.583783	0.404522
H210	H	1.550435	1.083783	0.904522
H211	H	0.567781	0.448121	0.447673
H212	H	1.067781	0.948121	0.947673
C213	C	0.985383	0.378747	0.533667
C214	C	1.485383	0.878747	1.033667
C215	C	1.036129	0.416917	0.574305
C216	C	1.536129	0.916917	1.074305
H217	H	0.951051	0.408127	0.509679
H218	H	1.451051	0.908127	1.009679
H219	H	1.015496	0.352987	0.502512
H220	H	1.515496	0.852987	1.002512
H221	H	0.955175	0.349248	0.561255
H222	H	1.455175	0.849248	1.061255
H223	H	1.066341	0.446412	0.546717
H224	H	1.566341	0.946412	1.046717
H225	H	1.006012	0.442688	0.605464
H226	H	1.506012	0.942688	1.105464
C227	C	1.326720	0.704792	0.250008
C228	C	1.826720	1.204792	0.750008
C229	C	1.248494	0.722016	0.235291
C230	C	1.748494	1.222016	0.735291
H231	H	1.361110	0.728712	0.220660
H232	H	1.861110	1.228712	0.720660
H233	H	1.338242	0.716360	0.295488
H234	H	1.838242	1.216360	0.795488
H235	H	1.333863	0.657621	0.243845
H236	H	1.833863	1.157621	0.743845
H237	H	1.241350	0.769186	0.241459
H238	H	1.741350	1.269186	0.741459
H239	H	1.236969	0.710452	0.189800
H240	H	1.736969	1.210452	0.689800
H241	H	1.233959	0.583770	0.247583
H242	H	1.733959	1.083770	0.747583
H243	H	1.234109	0.939529	0.247650
H244	H	1.734109	1.439529	0.747650
C245	C	1.231492	0.168143	0.705679
C246	C	1.731492	0.668143	1.205679
C247	C	1.248511	0.235169	0.722759
C248	C	1.748511	0.735169	1.222759
H249	H	1.265827	0.138765	0.729666
H250	H	1.765827	0.638765	1.229666
H251	H	1.178400	0.158229	0.717264
H252	H	1.678400	0.658229	1.217264
H253	H	1.238720	0.161976	0.658522
H254	H	1.738720	0.661976	1.158522
H255	H	1.241277	0.241337	0.769915
H256	H	1.741277	0.741337	1.269915
H257	H	1.301615	0.245085	0.711178
H258	H	1.801615	0.745085	1.211178
C259	C	0.810454	0.200935	0.201285
C260	C	1.310454	0.700935	0.701285
C261	C	0.729283	0.191784	0.192165
C262	C	1.229283	0.691784	0.692165
H263	H	0.838463	0.171517	0.171966
H264	H	1.338463	0.671517	0.671966
H265	H	0.823952	0.246394	0.191292
H266	H	1.323952	0.746394	0.691292
H267	H	0.823999	0.191090	0.246782
H268	H	1.323999	0.691090	0.746782
H269	H	0.715738	0.201634	0.146669
H270	H	1.215738	0.701634	0.646669
H271	H	0.715780	0.146315	0.202153
H272	H	1.215780	0.646315	0.702153
H273	H	0.567748	0.204156	0.204493
H274	H	1.067748	0.704156	0.704493
C275	C	1.237968	1.147349	0.244516
C276	C	1.737968	1.647349	0.744516
C277	C	1.248604	1.077840	0.235365
C278	C	1.748604	1.577840	0.735365
H279	H	1.272322	1.171327	0.215185
H280	H	1.772322	1.671327	0.715185
H281	H	1.184883	1.158981	0.234558
H282	H	1.684883	1.658981	0.734558
H283	H	1.249498	1.158880	0.290010
H284	H	1.749498	1.658880	0.790010
H285	H	1.237068	1.066307	0.189871
H286	H	1.737068	1.566307	0.689871
H287	H	1.301701	1.066203	0.245318
H288	H	1.801701	1.566203	0.745318
H289	H	1.234131	0.247457	0.940212
H290	H	1.734131	0.747457	1.440212
H291	H	1.234151	0.247427	1.068456
H292	H	1.734151	0.747427	1.568456
H293	H	1.050583	0.939550	0.404585
H294	H	1.550583	1.439550	0.904585
C295	C	0.985509	1.118564	0.378725
C296	C	1.485509	1.618564	0.878725
C297	C	1.036229	1.077864	0.416931
C298	C	1.536229	1.577864	0.916931
H299	H	0.951196	1.142549	0.408080
H300	H	1.451196	1.642549	0.908080
H301	H	1.015643	1.149722	0.352975
H302	H	1.515643	1.649722	0.852975
H303	H	0.955281	1.091019	0.349214
H304	H	1.455281	1.591019	0.849214
H305	H	1.066462	1.105410	0.446438
H306	H	1.566462	1.605410	0.946438
H307	H	1.006092	1.046703	0.442692
H308	H	1.506092	1.546703	0.942692
H309	H	1.050604	0.404507	0.940150
H310	H	1.550604	0.904507	1.440150
C311	C	0.350999	0.244321	0.244522
C312	C	0.850999	0.744321	0.744522
C313	C	0.432171	0.235163	0.235394
C314	C	0.932171	0.735163	0.735394
H315	H	0.322991	0.214910	0.215200
H316	H	0.822991	0.714910	0.715200
H317	H	0.337501	0.234474	0.290013
H318	H	0.837501	0.734474	0.790013
H319	H	0.337456	0.289787	0.234533
H320	H	0.837456	0.789787	0.734533
H321	H	0.445716	0.189698	0.245388
H322	H	0.945716	0.689698	0.745388
H323	H	0.445675	0.245005	0.189892
H324	H	0.945675	0.745005	0.689892
H325	H	0.443953	0.404788	0.404477
H326	H	0.943953	0.904788	0.904477
