data_functionalizedCrystal
_audit_creation_method	'MofGen! by Chris Wilmer'
_symmetry_space_group_name_H-M	'P1'
_symmetry_Int_Tables_number	1
_symmetry_cell_setting	triclinic
loop_
_symmetry_equiv_pos_as_xyz
  x,y,z
_cell_length_a	23.096457
_cell_length_b	14.395555
_cell_length_c	14.395555
_cell_angle_alpha	60.000749
_cell_angle_beta	89.999254
_cell_angle_gamma	60.001365
loop_
_atom_site_label
_atom_site_type_symbol
_atom_site_fract_x
_atom_site_fract_y
_atom_site_fract_z
Zr1	Zr	0.557784	1.016801	-0.121951
O2	O	0.465340	1.210588	-0.270272
O3	O	0.586121	0.823008	-0.076480
O4	O	0.586125	1.016796	-0.270276
O5	O	0.465335	1.016808	0.076391
O6	O	0.681406	1.016798	-0.270282
O7	O	0.465336	1.016801	-0.076476
O8	O	0.681398	0.670148	0.076383
O9	O	0.465343	1.363458	-0.270274
O10	O	0.669316	0.902723	-0.057094
O11	O	0.598209	0.902726	0.056993
O12	O	0.598214	1.130885	-0.171177
O13	O	0.527107	1.130888	-0.057090
Zr14	Zr	0.709744	1.016817	0.121846
Zr15	Zr	0.709745	1.016806	-0.121960
Zr16	Zr	0.557783	1.016813	0.121855
Zr17	Zr	0.557789	1.260611	-0.121955
Zr18	Zr	0.709740	0.773007	0.121849
O19	O	0.681408	1.210610	0.076375
O20	O	0.681409	1.210594	-0.270285
O21	O	0.465338	1.210604	0.076388
O22	O	0.802188	0.823030	0.270167
O23	O	0.802190	0.823014	-0.076493
O24	O	0.586119	0.823024	0.270180
O25	O	0.802194	1.016810	-0.076496
O26	O	0.681403	1.016823	0.270171
O27	O	0.586123	1.016820	0.270177
O28	O	0.802193	1.016817	0.076371
O29	O	0.586132	1.363461	-0.270282
O30	O	0.681397	0.670157	0.270176
O31	O	0.802186	0.670160	0.270169
O32	O	0.802187	0.670152	0.076376
O33	O	0.465342	1.363466	-0.076482
O34	O	0.586131	1.363470	-0.076489
O35	O	0.669315	0.902733	0.171072
O36	O	0.740422	0.902730	0.056984
O37	O	0.669320	1.130892	-0.057098
O38	O	0.598213	1.130895	0.056989
C39	C	0.633759	0.711841	-0.000048
C40	C	0.633757	0.608337	-0.000046
C41	C	0.594988	0.547747	0.062163
C42	C	0.566891	0.561998	-0.045111
C43	C	0.661837	0.409691	0.107194
C44	C	0.605620	0.624015	-0.107383
C45	C	0.700604	0.471645	0.044999
C46	C	0.672523	0.485942	-0.062338
C47	C	0.443684	1.016804	-0.000041
C48	C	0.379172	1.016802	-0.000038
C49	C	0.385981	0.897707	0.059501
C50	C	0.325366	0.897705	0.059506
C51	C	0.257942	1.016805	-0.000050
C52	C	0.251136	1.135916	-0.059592
C53	C	0.311751	1.135914	-0.059585
N54	N	0.135148	1.105455	-0.096973
N55	N	0.077569	1.105449	-0.096977
C56	C	0.075309	1.016817	-0.000070
N57	N	0.132810	0.928172	0.096839
N58	N	0.190396	0.928175	0.096840
C59	C	0.192211	1.016820	-0.000063
C60	C	0.016394	0.897712	0.059480
C61	C	-0.044224	0.897715	0.059488
C62	C	-0.118454	1.135929	-0.059621
C63	C	-0.057836	1.135922	-0.059618
C64	C	0.009586	1.016810	-0.000070
C65	C	0.823845	1.016814	-0.000064
C66	C	0.888356	1.016816	-0.000068
C67	C	0.633766	1.016795	-0.305016
C68	C	0.633766	1.016791	-0.408518
C69	C	0.633770	1.321777	-0.000057
C70	C	0.633772	1.425281	-0.000059
C71	C	0.672538	0.892386	-0.406904
C72	C	0.605678	0.954575	-0.499923
C73	C	0.700610	0.954607	-0.499928
C74	C	0.566867	1.078980	-0.500174
C75	C	0.661847	1.078994	-0.500164
C76	C	0.594947	1.141274	-0.593200
C77	C	0.633763	1.016823	0.304911
C78	C	0.633762	1.016827	0.408413
C79	C	0.823839	0.711846	-0.000059
C80	C	0.888348	0.608344	-0.000061
C81	C	0.633757	0.711855	0.304916
C82	C	0.633755	0.608356	0.408419
C83	C	0.823837	0.711860	0.304904
C84	C	0.888347	0.608363	0.408404
C85	C	0.443691	1.321758	-0.305010
C86	C	0.379182	1.425255	-0.408509
C87	C	0.443690	1.321772	-0.000046
C88	C	0.379180	1.425274	-0.000044
C89	C	0.633771	1.321763	-0.305021
C90	C	0.633774	1.425262	-0.408524
C91	C	0.881526	0.559735	-0.059621
C92	C	0.942134	0.462498	-0.059646
C93	C	1.009563	0.413865	-0.000104
C94	C	1.016384	0.462484	0.059457
C95	C	0.955777	0.559726	0.059475
C96	C	0.955764	0.559758	0.397456
C97	C	1.016383	0.462525	0.494696
C98	C	1.009583	0.413892	0.602882
C99	C	0.942158	0.462507	0.613828
C100	C	0.881541	0.559744	0.516589
C101	C	0.311764	1.473872	-0.397561
C102	C	0.251145	1.571135	-0.494801
C103	C	0.257946	1.619773	-0.602987
C104	C	0.325370	1.571152	-0.613933
C105	C	0.385988	1.473898	-0.516694
C106	C	0.386002	1.473893	0.059505
C107	C	0.325395	1.571157	0.059503
C108	C	0.257965	1.619794	-0.000042
C109	C	0.251144	1.571170	-0.059598
C110	C	0.311751	1.473915	-0.059602
C111	C	0.594982	0.547770	0.406808
C112	C	0.661842	0.409675	0.499824
C113	C	0.566913	0.562005	0.499834
C114	C	0.700655	0.471561	0.500072
C115	C	0.605677	0.623965	0.500068
C116	C	0.672578	0.485879	0.593101
H117	H	0.581812	0.715576	-0.198123
H118	H	0.510365	0.599180	-0.083222
H119	H	0.936566	0.422924	-0.108147
O120	O	1.089091	0.410148	0.482842
H121	H	1.118470	0.428864	0.524260
O122	O	0.963146	0.612127	0.123738
H123	H	0.909678	0.687920	0.113754
H124	H	0.306214	1.434276	-0.309479
O125	O	0.715950	0.450228	-0.132117
H126	H	0.692494	0.538459	-0.221067
H127	H	0.208621	1.698986	-0.000029
O128	O	0.178432	1.623539	-0.482967
H129	H	0.149038	1.730809	-0.524389
H130	H	1.058908	0.334683	-0.000126
H131	H	1.071293	0.422872	0.107934
H132	H	0.936632	0.422896	0.701926
H133	H	0.757211	0.434188	0.499245
H134	H	0.757117	0.434481	0.083137
O135	O	0.491949	1.148549	-0.499083
H136	H	0.492542	1.147934	-0.421676
H137	H	0.757142	0.902010	-0.500829
O138	O	0.492041	0.611230	0.501077
H139	H	0.468461	0.700274	0.500551
O140	O	-0.036874	0.769248	0.123709
H141	H	-0.062706	0.763533	0.189542
H142	H	1.058947	0.334715	0.682051
O143	O	0.458697	0.769237	0.123735
H144	H	0.499705	0.789238	0.113732
O145	O	0.693292	0.288343	0.227328
H146	H	0.661008	0.313293	0.278787
O147	O	0.808825	0.612139	0.528403
H148	H	0.814288	0.561963	0.619970
O149	O	0.192563	1.724684	-0.707864
H150	H	0.144543	1.750309	-0.682064
O151	O	0.332702	1.623607	-0.730622
H152	H	0.279220	1.699388	-0.796389
O153	O	0.332699	0.769250	0.123712
H154	H	0.389764	0.686425	0.165112
O155	O	0.458726	1.421464	0.123714
H156	H	0.453276	1.471642	0.165100
O157	O	0.458703	1.421445	-0.528508
H158	H	0.453241	1.471601	-0.620075
O159	O	0.332759	1.623575	0.123758
H160	H	0.389830	1.573389	0.165179
O161	O	0.716068	0.450067	0.698589
H162	H	0.771509	0.411717	0.699302
H163	H	0.196235	1.610785	-0.108078
O164	O	0.808802	0.612192	-0.123857
H165	H	0.814252	0.562056	-0.165284
O166	O	0.963108	0.612217	0.280775
H167	H	1.020176	0.562085	0.289517
O168	O	0.304390	1.421465	-0.123821
H169	H	0.247318	1.471622	-0.165211
H170	H	0.562246	0.574850	0.327051
H171	H	0.685598	0.318055	0.500750
O172	O	0.574195	0.745367	0.498768
H173	H	0.518680	0.783747	0.497606
H174	H	0.562158	0.574974	0.114692
H175	H	0.196235	1.232888	-0.108082
H176	H	0.071292	0.800724	0.107991
O177	O	0.304430	1.264354	-0.123827
H178	H	0.274999	1.321506	-0.089442
O179	O	-0.191169	1.264390	-0.123866
H180	H	-0.220568	1.270091	-0.063751
O181	O	-0.065166	1.264368	-0.123861
H182	H	-0.094603	1.321508	-0.089469
O183	O	0.715900	0.753053	-0.301248
H184	H	0.692424	0.701714	-0.300398
O185	O	0.574213	0.884935	-0.501181
H186	H	0.606490	0.781674	-0.424792
O187	O	0.551463	1.280728	-0.698679
H188	H	0.496023	1.332044	-0.699392
O189	O	0.693331	1.148583	-0.498862
H190	H	0.748848	1.096730	-0.497696
