data_functionalizedCrystal
_audit_creation_method	'MofGen! by Chris Wilmer'
_symmetry_space_group_name_H-M	'P1'
_symmetry_Int_Tables_number	1
_symmetry_cell_setting	triclinic
loop_
_symmetry_equiv_pos_as_xyz
  x,y,z
_cell_length_a	12.759401
_cell_length_b	12.827892
_cell_length_c	12.759393
_cell_angle_alpha	89.969144
_cell_angle_beta	89.981433
_cell_angle_gamma	90.014436
loop_
_atom_site_label
_atom_site_type_symbol
_atom_site_fract_x
_atom_site_fract_y
_atom_site_fract_z
Zn1	Zn	1.606250	-0.415998	-0.593988
Zn2	Zn	1.939584	-0.082665	-0.260655
Zn3	Zn	2.272917	0.250669	0.072678
Zn4	Zn	1.606143	-0.590779	-0.418311
Zn5	Zn	1.939476	-0.257445	-0.084977
Zn6	Zn	2.272809	0.075888	0.248356
Zn7	Zn	1.430552	-0.416049	-0.418328
Zn8	Zn	1.763886	-0.082716	-0.084994
Zn9	Zn	2.097219	0.250617	0.248339
Zn10	Zn	1.430539	-0.590695	-0.593952
Zn11	Zn	1.763872	-0.257362	-0.260619
Zn12	Zn	2.097205	0.075972	0.072715
O13	O	1.518371	-0.503380	-0.506145
O14	O	1.851704	-0.170047	-0.172811
O15	O	2.185038	0.163286	0.160522
O16	O	1.753257	-0.439197	-0.570693
O17	O	2.086590	-0.105863	-0.237359
O18	O	2.419924	0.227470	0.095974
O19	O	1.582811	-0.567657	-0.271292
O20	O	1.916144	-0.234324	0.062041
O21	O	2.249477	0.099010	0.395375
O22	O	1.453910	-0.269807	-0.441652
O23	O	1.787243	0.063527	-0.108318
O24	O	2.120576	0.396860	0.225015
O25	O	1.753178	-0.567607	-0.441623
O26	O	2.086511	-0.234274	-0.108290
O27	O	2.419845	0.099059	0.225044
O28	O	1.582994	-0.269769	-0.570709
O29	O	1.916328	0.063565	-0.237376
O30	O	2.249661	0.396898	0.095958
O31	O	1.453805	-0.439284	-0.271304
O32	O	1.787139	-0.105951	0.062029
O33	O	2.120472	0.227383	0.395362
O34	O	1.283530	-0.439203	-0.441616
O35	O	1.616863	-0.105870	-0.108283
O36	O	1.950196	0.227464	0.225050
O37	O	1.453887	-0.567464	-0.740978
O38	O	1.787220	-0.234131	-0.407645
O39	O	2.120553	0.099202	-0.074311
O40	O	1.283520	-0.567514	-0.570647
O41	O	1.616853	-0.234181	-0.237314
O42	O	1.950186	0.099153	0.096020
O43	O	1.582981	-0.439115	-0.741005
O44	O	1.916315	-0.105782	-0.407671
O45	O	2.249648	0.227551	-0.074338
O46	O	1.582798	-0.737004	-0.441588
O47	O	1.916131	-0.403670	-0.108254
O48	O	2.249464	-0.070337	0.225079
O49	O	1.453782	-0.736942	-0.570631
O50	O	1.787116	-0.403609	-0.237297
O51	O	2.120449	-0.070275	0.096036
C52	C	1.245404	-0.503356	-0.506130
C53	C	1.578737	-0.170022	-0.172797
C54	C	1.912070	0.163311	0.160537
C55	C	1.128627	-0.503370	-0.506149
C56	C	1.461960	-0.170037	-0.172816
C57	C	1.795294	0.163296	0.160518
C58	C	1.073799	-0.436633	-0.573460
C59	C	1.407133	-0.103300	-0.240126
C60	C	1.740466	0.230034	0.093207
C61	C	0.964075	-0.436653	-0.573466
C62	C	1.297409	-0.103320	-0.240133
C63	C	1.630742	0.230013	0.093201
C64	C	0.964016	-0.570157	-0.438848
C65	C	1.297350	-0.236823	-0.105515
C66	C	1.630683	0.096510	0.227818
C67	C	1.073738	-0.570131	-0.438837
C68	C	1.407072	-0.236797	-0.105504
C69	C	1.740405	0.096536	0.227829
C70	C	1.073832	-0.359559	-0.651183
C71	C	1.407166	-0.026226	-0.317850
C72	C	1.740499	0.307108	0.015483
C73	C	0.964108	-0.359579	-0.651190
C74	C	1.297442	-0.026246	-0.317857
C75	C	1.630775	0.307088	0.015477
C76	C	1.518305	-0.774890	-0.506126
C77	C	1.851639	-0.441557	-0.172793
C78	C	2.184972	-0.108224	0.160540
C79	C	1.518373	-0.891043	-0.506153
C80	C	1.851707	-0.557710	-0.172820
C81	C	2.185040	-0.224377	0.160513
C82	C	1.582290	-0.942824	-0.442370
C83	C	1.915623	-0.609491	-0.109036
C84	C	2.248957	-0.276157	0.224297
C85	C	1.582362	-1.062874	-0.442396
C86	C	1.915695	-0.729541	-0.109063
C87	C	2.249028	-0.396208	0.224270
C88	C	1.792404	-0.503406	-0.506160
C89	C	2.125738	-0.170072	-0.172827
C90	C	2.459071	0.163261	0.160507
C91	C	1.909181	-0.503416	-0.506167
C92	C	2.242514	-0.170083	-0.172833
C93	C	2.575848	0.163250	0.160500
C94	C	1.518445	-0.503275	-0.780178
C95	C	1.851778	-0.169941	-0.446845
C96	C	2.185111	0.163392	-0.113512
C97	C	1.518476	-0.503230	-0.896955
C98	C	1.851809	-0.169897	-0.563622
C99	C	2.185143	0.163437	-0.230288
C100	C	1.518466	-0.230810	-0.506186
C101	C	1.851799	0.102523	-0.172853
C102	C	2.185132	0.435857	0.160480
C103	C	1.518506	-0.114657	-0.506204
C104	C	1.851839	0.218676	-0.172871
C105	C	2.185173	0.552010	0.160463
C106	C	1.585705	-0.436392	-0.951833
C107	C	1.919038	-0.103059	-0.618499
C108	C	2.252371	0.230274	-0.285166
C109	C	1.585730	-0.436354	-1.061557
C110	C	1.919063	-0.103021	-0.728223
C111	C	2.252396	0.230312	-0.394890
C112	C	1.451294	-0.570001	-1.061516
C113	C	1.784628	-0.236668	-0.728183
C114	C	2.117961	0.096666	-0.394849
C115	C	1.451265	-0.570033	-0.951794
C116	C	1.784598	-0.236699	-0.618460
C117	C	2.117931	0.096634	-0.285127
C118	C	1.663323	-0.359235	-0.951857
C119	C	1.996657	-0.025902	-0.618524
C120	C	2.329990	0.307431	-0.285190
C121	C	1.663348	-0.359198	-1.061581
C122	C	1.996682	-0.025864	-0.728248
C123	C	2.330015	0.307469	-0.394915
C124	C	1.518358	-0.503410	-0.233177
C125	C	1.851692	-0.170077	0.100156
C126	C	2.185025	0.163257	0.433489
C127	C	1.518530	-0.503160	-0.116401
C128	C	1.851864	-0.169827	0.216932
C129	C	2.185197	0.163506	0.550265
H130	H	0.934363	-0.381357	-0.732526
H131	H	1.267696	-0.048024	-0.399193
H132	H	1.601030	0.285309	-0.065859
F133	F	1.653754	-0.884605	-0.370971
F134	F	1.987087	-0.551272	-0.037638
F135	F	2.320421	-0.217939	0.295695
H136	H	1.107897	-0.388635	-0.728422
H137	H	1.441231	-0.055302	-0.395088
H138	H	1.774564	0.278031	-0.061755
H139	H	1.637080	-1.107404	-0.387786
H140	H	1.970414	-0.774071	-0.054453
H141	H	2.303747	-0.440738	0.278881
F142	F	1.446970	-1.056463	-0.577580
F143	F	1.780303	-0.723130	-0.244247
F144	F	2.113637	-0.389797	0.089086
F145	F	1.112746	-0.253729	-0.622883
F146	F	1.446080	0.079604	-0.289549
F147	F	1.779413	0.412937	0.043784
F148	F	0.919609	-0.259050	-0.613281
F149	F	1.252942	0.074283	-0.279947
F150	F	1.586276	0.407616	0.053386
F151	F	1.446921	-0.949262	-0.577563
F152	F	1.780254	-0.615929	-0.244230
F153	F	2.113587	-0.282595	0.089104
H154	H	1.118375	-0.624465	-0.384017
H155	H	1.451708	-0.291131	-0.050683
H156	H	1.785042	0.042202	0.282650
F157	F	1.379696	-0.641156	-0.893392
F158	F	1.713030	-0.307822	-0.560059
F159	F	2.046363	0.025511	-0.226726
H160	H	0.919313	-0.624511	-0.384046
H161	H	1.252646	-0.291177	-0.050713
H162	H	1.585979	0.042156	0.282621
H163	H	1.396571	-0.624387	-1.106179
H164	H	1.729904	-0.291054	-0.772846
H165	H	2.063238	0.042279	-0.439512
H166	H	1.641556	-0.278305	-0.922100
H167	H	1.974889	0.055028	-0.588767
H168	H	2.308222	0.388361	-0.255434
F169	F	1.764322	-0.397154	-0.907365
F170	F	2.097656	-0.063821	-0.574032
F171	F	2.430989	0.269512	-0.240698
H172	H	1.634235	-0.282301	-1.095628
H173	H	1.967569	0.051032	-0.762295
H174	H	2.300902	0.384366	-0.428961
H175	H	1.744719	-0.380875	-1.091360
H176	H	2.078052	-0.047542	-0.758027
H177	H	2.411385	0.285791	-0.424693
