data_functionalizedCrystal
_audit_creation_method	'MofGen! by Chris Wilmer'
_symmetry_space_group_name_H-M	'P1'
_symmetry_Int_Tables_number	1
_symmetry_cell_setting	triclinic
loop_
_symmetry_equiv_pos_as_xyz
  x,y,z
_cell_length_a	19.288840
_cell_length_b	10.654541
_cell_length_c	17.766277
_cell_angle_alpha	89.993913
_cell_angle_beta	89.983415
_cell_angle_gamma	83.804972
loop_
_atom_site_label
_atom_site_type_symbol
_atom_site_fract_x
_atom_site_fract_y
_atom_site_fract_z
O1	O	0.922388	0.156507	-0.062720
O2	O	0.720264	0.177673	-0.062694
O3	O	0.825974	-0.015750	-0.062703
O4	O	0.816678	0.349930	-0.062711
O5	O	0.825955	-0.015760	0.062486
O6	O	0.720245	0.177663	0.062495
O7	O	0.922369	0.156497	0.062469
Cu8	Cu	0.821305	0.167079	0.073913
Cu9	Cu	0.821328	0.167091	-0.074137
O10	O	0.816659	0.349920	0.062478
C11	C	0.694373	0.176992	-0.000096
C12	C	0.617255	0.174963	-0.000086
C13	C	0.581056	0.173994	-0.068328
C14	C	0.508596	0.172074	-0.068337
C15	C	0.472341	0.171098	-0.000100
C16	C	0.508549	0.172074	0.068151
C17	C	0.581006	0.174007	0.068158
C18	C	0.362504	0.094477	0.052170
C19	C	0.290049	0.092536	0.052160
C20	C	0.248858	0.165142	-0.000120
C21	C	0.280133	0.239673	-0.052402
C22	C	0.352590	0.241606	-0.052395
C23	C	0.393773	0.169003	-0.000101
C24	C	0.134090	0.162093	-0.068377
C25	C	0.061628	0.160180	-0.068383
C26	C	0.061583	0.160168	0.068107
C27	C	0.134042	0.162093	0.068111
C28	C	0.170291	0.163049	-0.000133
C29	C	0.825282	-0.062538	-0.000109
C30	C	0.823241	-0.201938	-0.000110
C31	C	0.949647	-0.232635	-0.000117
C32	C	1.011888	-0.313472	-0.000118
C33	C	1.009966	-0.444448	-0.000120
C34	C	0.945796	-0.494589	-0.000123
C35	C	0.883555	-0.413753	-0.000121
C36	C	0.885484	-0.282775	-0.000117
C37	C	0.757151	-0.383056	-0.000120
C38	C	0.759071	-0.252079	-0.000112
C39	C	0.692981	-0.433197	-0.000123
C40	C	0.630738	-0.352360	-0.000115
C41	C	0.632663	-0.221376	-0.000112
C42	C	0.696830	-0.171242	-0.000111
C43	C	0.948260	0.157178	-0.000131
C44	C	1.025378	0.159207	-0.000146
C45	C	0.817351	0.396708	-0.000118
C46	C	0.819392	0.536108	-0.000122
N47	N	0.821295	0.167070	0.178043
N48	N	0.821344	0.167090	-0.178268
C49	C	0.868119	0.081465	0.217426
C50	C	0.868123	0.081459	0.296228
C51	C	0.821309	0.167080	0.335643
C52	C	0.774477	0.252692	0.296251
C53	C	0.774469	0.252687	0.217451
C54	C	0.812759	0.281503	0.460480
C55	C	0.812771	0.281509	0.539278
C56	C	0.821328	0.167095	0.578690
C57	C	0.829887	0.052670	0.539293
C58	C	0.829880	0.052665	0.460492
C59	C	0.821312	0.167095	0.421089
C60	C	0.868159	0.081476	0.703519
C61	C	0.868158	0.081469	0.782322
C62	C	0.774515	0.252713	0.782344
C63	C	0.774513	0.252710	0.703542
C64	C	0.821338	0.167093	0.664134
H65	H	0.396036	0.035349	0.094746
H66	H	0.906254	0.011746	0.328299
H67	H	0.698404	-0.064596	-0.000104
C68	C	0.255651	0.010535	0.109652
H69	H	0.206600	0.019761	0.102151
H70	H	0.265752	0.036695	0.159198
H71	H	0.273374	-0.075462	0.103062
C72	C	0.021714	0.159100	0.143168
H73	H	0.053654	0.159959	0.183814
H74	H	-0.001604	0.085135	0.146007
H75	H	-0.011502	0.231575	0.145999
H76	H	0.610479	0.174797	0.123731
H77	H	0.610565	0.174773	-0.123898
C78	C	0.690862	-0.577266	-0.000131
H79	H	0.643732	-0.595548	-0.000140
H80	H	0.713757	-0.612580	0.043523
H81	H	0.713779	-0.612550	-0.043795
C82	C	0.021805	0.159120	-0.143451
H83	H	-0.026541	0.157848	-0.133684
H84	H	0.038638	0.086220	-0.171487
H85	H	0.028740	0.232660	-0.171492
C86	C	0.803351	0.407367	0.417135
H87	H	0.798267	0.475512	0.451882
H88	H	0.762920	0.410108	0.386409
H89	H	0.843075	0.414134	0.386381
C90	C	0.560162	-0.407517	-0.000118
H91	H	0.567931	-0.497099	-0.000119
H92	H	0.534515	-0.379734	-0.043769
H93	H	0.534500	-0.379764	0.043548
C94	C	0.722985	0.346877	0.339605
H95	H	0.729701	0.334629	0.392177
H96	H	0.676565	0.333460	0.326715
H97	H	0.730932	0.430656	0.326677
H98	H	0.479116	0.171287	-0.123910
H99	H	0.951218	-0.125988	-0.000105
C100	C	0.468665	0.171095	0.143209
H101	H	0.420325	0.169822	0.133432
H102	H	0.475593	0.244656	0.171212
H103	H	0.485462	0.098215	0.171288
C104	C	0.919617	-0.012723	0.174081
H105	H	0.947500	-0.063716	0.208827
H106	H	0.948742	0.032305	0.143321
H107	H	0.894374	-0.064889	0.143361
H108	H	1.064134	-0.272632	-0.000110
H109	H	0.836847	-0.040505	0.428418
C110	C	1.078428	-0.533371	-0.000122
H111	H	1.116921	-0.484756	-0.000116
H112	H	1.080314	-0.585098	-0.043778
H113	H	1.080291	-0.585106	0.043540
C114	C	0.722966	0.346866	0.174128
H115	H	0.695087	0.397865	0.208885
H116	H	0.693837	0.301832	0.143400
H117	H	0.748205	0.399027	0.143377
H118	H	0.944236	-0.601239	-0.000134
C119	C	0.564197	-0.132465	-0.000111
H120	H	0.525709	-0.181091	-0.000108
H121	H	0.562330	-0.080720	-0.043764
H122	H	0.562307	-0.080746	0.043554
C123	C	0.839305	-0.073196	0.582630
H124	H	0.844407	-0.141338	0.547882
H125	H	0.799590	-0.079983	0.613388
H126	H	0.879742	-0.075920	0.613352
H127	H	0.163517	0.162874	0.123682
C128	C	0.919653	-0.012710	0.660163
H129	H	0.912949	-0.000443	0.607592
H130	H	0.911707	-0.096484	0.673088
H131	H	0.966077	0.000709	0.673057
C132	C	0.386990	0.323596	-0.109892
H133	H	0.352085	0.366571	-0.141028
H134	H	0.418856	0.271328	-0.140123
H135	H	0.411243	0.383495	-0.083992
C136	C	0.919669	-0.012700	0.825643
H137	H	0.947558	-0.063679	0.790884
H138	H	0.894442	-0.064864	0.856398
H139	H	0.948797	0.032355	0.856367
C140	C	0.803358	0.407367	0.582612
H141	H	0.804596	0.390986	0.635186
H142	H	0.759764	0.452349	0.569714
H143	H	0.839917	0.456406	0.569676
C144	C	0.723021	0.346895	0.825692
H145	H	0.729733	0.334643	0.878263
H146	H	0.676602	0.333480	0.812797
H147	H	0.730969	0.430675	0.812767
C148	C	0.723013	0.346891	0.660219
H149	H	0.695137	0.397892	0.694977
H150	H	0.693883	0.301856	0.629493
H151	H	0.748252	0.399050	0.629466
C152	C	0.173965	0.163168	-0.143440
H153	H	0.142024	0.162337	-0.184086
H154	H	0.207184	0.090707	-0.146278
H155	H	0.197278	0.237147	-0.146270
C156	C	0.234833	0.319549	-0.109911
H157	H	0.187200	0.307739	-0.102423
H158	H	0.248471	0.294010	-0.159451
H159	H	0.240872	0.406183	-0.103324
