data_functionalizedCrystal
_audit_creation_method	'MofGen! by Chris Wilmer'
_symmetry_space_group_name_H-M	'P1'
_symmetry_Int_Tables_number	1
_symmetry_cell_setting	triclinic
loop_
_symmetry_equiv_pos_as_xyz
  x,y,z
_cell_length_a	6.817900
_cell_length_b	17.982865
_cell_length_c	9.514088
_cell_angle_alpha	91.869512
_cell_angle_beta	118.843545
_cell_angle_gamma	102.450232
loop_
_atom_site_label
_atom_site_type_symbol
_atom_site_fract_x
_atom_site_fract_y
_atom_site_fract_z
V1	V	-4.212578	-0.106766	-0.501441
O2	O	-4.201534	0.003741	-0.491186
O3	O	-4.158034	-0.210363	-0.498693
O4	O	-4.247403	-0.105734	-0.719826
O5	O	-4.111546	-0.101613	-0.268524
V6	V	-4.686217	-0.093476	-0.473499
O7	O	-4.495515	-0.135919	-0.562733
O8	O	-4.853477	-0.064324	-0.412207
O9	O	-4.517554	0.010120	-0.476247
O10	O	-4.814658	-0.203983	-0.483754
O11	O	-4.904645	-0.098630	-0.706417
O12	O	-4.428186	-0.094509	-0.255115
C13	C	-3.998848	-0.235599	-0.490959
C14	C	-4.036094	-0.320294	-0.490168
C15	C	-4.168846	-0.828881	-0.338011
C16	C	-4.133859	-0.749303	-0.338775
C17	C	-4.212118	-0.720798	-0.486309
C18	C	-4.325352	-0.771876	-0.633087
C19	C	-4.360324	-0.851453	-0.632320
C20	C	-4.184316	-0.450951	-0.636182
C21	C	-4.149341	-0.371368	-0.636938
C22	C	-3.957851	-0.348801	-0.342637
C23	C	-3.992822	-0.428378	-0.341870
C24	C	-4.106042	-0.479449	-0.488647
C25	C	-4.143975	-0.565737	-0.487816
C26	C	-4.174202	-0.634511	-0.487142
C27	C	-4.112844	-0.102133	-0.773033
C28	C	-4.222561	-0.101974	-0.951568
C29	C	-4.340081	0.035352	-0.483977
C30	C	-4.282077	0.120046	-0.484778
C31	C	-4.226083	-0.098112	-0.201899
C32	C	-4.095605	-0.098267	-0.023362
H33	H	-4.041665	-0.707722	-0.219263
C34	C	-3.808324	-0.159894	-0.847128
C35	C	-3.835571	-0.094169	-0.921990
H36	H	-3.647786	-0.157365	-0.784539
H37	H	-3.885427	-0.204653	-0.927897
H38	H	-3.873253	-0.162228	-0.778156
H39	H	-3.770657	-0.091838	-0.990973
H40	H	-3.758437	-0.049398	-0.841211
C41	C	-4.336291	-0.950352	-0.794618
C42	C	-4.484796	-0.907594	-0.793654
H43	H	-4.413130	-0.985006	-0.894227
H44	H	-4.294708	-0.978715	-0.706657
H45	H	-4.200333	-0.916332	-0.783652
H46	H	-4.620747	-0.941614	-0.804608
H47	H	-4.526412	-0.879229	-0.881640
C48	C	-4.596169	-0.172093	-1.172004
C49	C	-4.482620	-0.106092	-1.052978
H50	H	-4.756712	-0.174632	-1.234616
H51	H	-4.577624	-0.216663	-1.121183
H52	H	-4.531197	-0.169738	-1.240951
H53	H	-4.547580	-0.108451	-0.984023
H54	H	-4.501180	-0.061511	-1.103801
H55	H	-3.929102	-0.451582	-0.221734
C56	C	-4.190829	-0.837815	-0.094496
C57	C	-4.082815	-0.860207	-0.175831
H58	H	-4.137696	-0.857148	0.005635
H59	H	-4.354225	-0.857996	-0.159971
H60	H	-4.153783	-0.783111	-0.073966
H61	H	-4.119875	-0.914911	-0.196371
H62	H	-3.919382	-0.840029	-0.110342
C63	C	-3.958344	-0.308740	-0.099611
C64	C	-3.833386	-0.292657	-0.181296
H65	H	-3.881520	-0.274077	-0.000016
H66	H	-3.967956	-0.360205	-0.078043
H67	H	-4.110292	-0.302831	-0.165372
H68	H	-3.681442	-0.298571	-0.115540
H69	H	-3.823747	-0.241179	-0.202859
H70	H	-4.213083	-0.348164	-0.757085
C71	C	-4.322964	-0.582952	-0.765705
C72	C	-4.308793	-0.507083	-0.797516
H73	H	-4.399809	-0.617607	-0.865313
H74	H	-4.407686	-0.593851	-0.710265
H75	H	-4.170997	-0.588853	-0.699981
H76	H	-4.460761	-0.501181	-0.863231
H77	H	-4.224073	-0.496181	-0.852981
C78	C	-4.571588	-0.699168	-0.812275
C79	C	-4.411383	-0.740547	-0.795262
H80	H	-4.624713	-0.679832	-0.912403
H81	H	-4.499141	-0.657364	-0.724986
H82	H	-4.699580	-0.732250	-0.811001
H83	H	-4.283382	-0.707463	-0.796524
H84	H	-4.483829	-0.782355	-0.882574
