data_functionalizedCrystal
_audit_creation_method	'MofGen! by Chris Wilmer'
_symmetry_space_group_name_H-M	'P1'
_symmetry_Int_Tables_number	1
_symmetry_cell_setting	triclinic
loop_
_symmetry_equiv_pos_as_xyz
  x,y,z
_cell_length_a	18.215405
_cell_length_b	18.215407
_cell_length_c	18.215399
_cell_angle_alpha	90.017813
_cell_angle_beta	90.030551
_cell_angle_gamma	90.019398
loop_
_atom_site_label
_atom_site_type_symbol
_atom_site_fract_x
_atom_site_fract_y
_atom_site_fract_z
Zn1	Zn	-0.293100	1.125072	0.416063
Zn2	Zn	-0.416171	1.124980	0.292991
Zn3	Zn	-0.293111	1.002004	0.293015
Zn4	Zn	-0.416117	1.001970	0.416020
O5	O	-0.354625	1.063507	0.354522
O6	O	-0.309443	1.228044	0.399745
O7	O	-0.399874	1.108643	0.190010
O8	O	-0.190125	1.018382	0.309365
O9	O	-0.399863	1.227977	0.309325
O10	O	-0.190117	1.108799	0.399768
O11	O	-0.309462	1.018293	0.190027
O12	O	-0.309410	0.899016	0.309324
O13	O	-0.399771	1.018324	0.519010
O14	O	-0.399782	0.898991	0.399695
O15	O	-0.309391	1.108766	0.519042
O16	O	-0.519148	1.108610	0.309283
O17	O	-0.519109	1.018235	0.399672
C18	C	-0.354592	0.872300	0.354508
C19	C	-0.354596	0.790502	0.354519
C20	C	-0.307634	0.525473	0.401679
C21	C	-0.307622	0.602332	0.401677
C22	C	-0.401639	0.602281	0.307381
C23	C	-0.401654	0.525424	0.307388
C24	C	-0.354647	0.487022	0.354536
C25	C	-0.354620	0.640738	0.354527
C26	C	-0.354608	0.724072	0.354524
C27	C	-0.354661	0.403683	0.354540
C28	C	-0.545831	1.063429	0.354487
C29	C	-0.627630	1.063463	0.354496
C30	C	-0.815820	1.110632	0.307517
C31	C	-0.892679	1.110665	0.307535
C32	C	-0.892677	1.016476	0.401580
C33	C	-0.815820	1.016447	0.401565
C34	C	-0.777393	1.063524	0.354530
C35	C	-0.931109	1.063586	0.354562
C36	C	-1.014443	1.063621	0.354582
C37	C	-0.694054	1.063490	0.354511
C38	C	-0.162672	1.063605	0.354574
C39	C	-0.080873	1.063647	0.354596
C40	C	-0.354574	1.063552	0.546475
C41	C	-0.354552	1.063571	0.628274
C42	C	-0.354658	1.255460	0.354537
C43	C	-0.354672	1.337259	0.354543
C44	C	-0.354622	1.063504	0.163316
C45	C	-0.354436	1.063628	0.081517
C46	C	-0.307447	1.110681	0.816486
C47	C	-0.307426	1.110690	0.893344
C48	C	-0.401544	1.016513	0.893301
C49	C	-0.401561	1.016501	0.816443
C50	C	-0.354514	1.063589	0.778038
C51	C	-0.354475	1.063610	0.931754
C52	C	-0.354452	1.063619	1.015088
C53	C	-0.354535	1.063579	0.694699
H54	H	-0.269357	0.494209	0.440070
O55	O	-0.452360	0.483947	0.256530
H56	H	-0.510132	0.498698	0.269042
O57	O	-0.452285	0.965726	0.934725
H58	H	-0.489729	0.998649	0.969731
H59	H	-0.923962	1.149026	0.269254
H60	H	-0.923974	0.978146	0.439873
H61	H	-0.784535	1.148966	0.269219
H62	H	-0.439887	0.978148	0.785138
O63	O	-0.256704	1.161463	0.775058
H64	H	-0.198940	1.148866	0.789819
O65	O	-0.256666	1.161485	0.934816
H66	H	-0.223961	1.194228	0.895196
H67	H	-0.269339	0.633636	0.440066
H68	H	-0.439909	0.633558	0.268994
O69	O	-0.774365	0.965625	0.452263
H70	H	-0.813997	0.932883	0.484961
