data_functionalizedCrystal
_audit_creation_method	'MofGen! by Chris Wilmer'
_symmetry_space_group_name_H-M	'P1'
_symmetry_Int_Tables_number	1
_symmetry_cell_setting	triclinic
loop_
_symmetry_equiv_pos_as_xyz
  x,y,z
_cell_length_a	12.837943
_cell_length_b	11.892095
_cell_length_c	14.519709
_cell_angle_alpha	93.895429
_cell_angle_beta	90.745458
_cell_angle_gamma	94.310562
loop_
_atom_site_label
_atom_site_type_symbol
_atom_site_fract_x
_atom_site_fract_y
_atom_site_fract_z
O1	O	-1.382515	-0.093988	0.234472
O2	O	-1.080688	-0.093995	0.222627
O3	O	-1.239604	-0.093981	0.095003
O4	O	-1.223600	-0.094002	0.362096
O5	O	-1.226354	0.094025	0.105626
O6	O	-1.067438	0.094012	0.233250
O7	O	-1.369265	0.094018	0.245095
Zn8	Zn	-1.216248	0.123865	0.240859
Zn9	Zn	-1.233706	-0.123842	0.226863
O10	O	-1.210350	0.094005	0.372719
C11	C	-1.035435	0.000008	0.223937
C12	C	-0.920336	0.000006	0.212002
C13	C	-1.232233	0.000022	0.065890
C14	C	-1.229998	0.000023	-0.036684
C15	C	-1.414519	0.000013	0.243785
C16	C	-1.529618	0.000008	0.255719
N17	N	-1.204341	0.292918	0.250411
C18	C	-0.679644	0.000011	0.355473
C19	C	-0.571497	0.000010	0.344264
C20	C	-0.595894	0.000010	0.178377
C21	C	-0.704041	0.000012	0.189586
C22	C	-0.745911	0.000010	0.278137
C23	C	-0.854060	0.000003	0.289344
C24	C	-0.878455	0.000012	0.123458
C25	C	-0.770308	0.000011	0.112249
N26	N	-1.245621	-0.292895	0.217304
C27	C	-1.328473	0.529576	0.150784
C28	C	-1.320158	0.647918	0.157468
C29	C	-1.179391	0.647944	0.270458
C30	C	-1.187707	0.529603	0.263774
C31	C	-1.262251	0.470423	0.203936
C32	C	-1.270570	0.352080	0.197257
C33	C	-1.129800	0.352108	0.310242
C34	C	-1.121484	0.470449	0.316926
C35	C	-1.221771	-0.000007	-0.412293
C36	C	-1.224055	0.000002	-0.307787
C37	C	-1.225884	0.000009	-0.224492
C38	C	-1.228169	0.000016	-0.119979
C39	C	-1.217721	-0.000001	0.401831
C40	C	-1.219957	-0.000009	0.504405
H41	H	-0.713735	0.000008	0.427575
H42	H	-0.517545	0.000013	0.407240
C43	C	-1.352568	0.286978	0.131446
H44	H	-1.348047	0.208025	0.135084
H45	H	-1.339837	0.306374	0.069985
H46	H	-1.420417	0.306362	0.148682
C47	C	-1.393005	0.712983	0.099004
H48	H	-1.438593	0.660785	0.062416
H49	H	-1.352396	0.759160	0.059921
H50	H	-1.432985	0.759133	0.138610
H51	H	-1.075880	0.303932	0.353524
H52	H	-0.888149	0.000004	0.361447
H53	H	-1.060789	0.518647	0.365642
H54	H	-1.118692	0.696143	0.319170
H55	H	-1.389177	0.481392	0.102068
H56	H	-0.736201	0.000025	0.040154
C57	C	-0.549822	0.000024	0.080982
H58	H	-0.475923	0.000022	0.085387
H59	H	-0.567941	0.065587	0.052443
H60	H	-0.577168	-0.065546	0.045034
H61	H	-0.932423	0.000004	0.060485
