data_functionalizedCrystal
_audit_creation_method	'MofGen! by Chris Wilmer'
_symmetry_space_group_name_H-M	'P1'
_symmetry_Int_Tables_number	1
_symmetry_cell_setting	triclinic
loop_
_symmetry_equiv_pos_as_xyz
  x,y,z
_cell_length_a	19.188933
_cell_length_b	23.532357
_cell_length_c	18.266242
_cell_angle_alpha	89.988103
_cell_angle_beta	89.992377
_cell_angle_gamma	82.986930
loop_
_atom_site_label
_atom_site_type_symbol
_atom_site_fract_x
_atom_site_fract_y
_atom_site_fract_z
O1	O	0.925906	0.071109	-0.060865
O2	O	1.425906	0.571109	0.439135
O3	O	0.722562	0.080679	-0.060873
O4	O	1.222562	0.580679	0.439127
O5	O	0.830384	-0.007027	-0.060854
O6	O	1.330384	0.492973	0.439146
O7	O	0.818084	0.158815	-0.060885
O8	O	1.318084	0.658815	0.439115
O9	O	0.830366	-0.007031	0.060908
O10	O	1.330366	0.492969	0.560908
O11	O	0.722544	0.080675	0.060889
O12	O	1.222544	0.580675	0.560889
O13	O	0.925888	0.071104	0.060897
O14	O	1.425888	0.571104	0.560897
Zn15	Zn	0.824213	0.075889	0.080225
Zn16	Zn	1.324213	0.575889	0.580225
Zn17	Zn	0.824237	0.075895	-0.080202
Zn18	Zn	1.324237	0.575895	0.419798
O19	O	0.818066	0.158810	0.060877
O20	O	1.318066	0.658810	0.560877
C21	C	0.696543	0.080367	0.000007
C22	C	1.196543	0.580367	0.500007
C23	C	0.619042	0.079436	0.000004
C24	C	1.119042	0.579436	0.500004
C25	C	0.065819	0.072794	-0.066359
C26	C	0.565819	0.572794	0.433641
C27	C	0.138640	0.073666	-0.066362
C28	C	0.638640	0.573666	0.433638
C29	C	0.175046	0.074102	0.000010
C30	C	0.675046	0.574102	0.500010
C31	C	0.138627	0.073651	0.066390
C32	C	0.638627	0.573651	0.566390
C33	C	0.065808	0.072774	0.066391
C34	C	0.565808	0.572774	0.566391
N35	N	0.283943	0.107885	0.049408
N36	N	0.783943	0.607885	0.549408
N37	N	0.353118	0.108719	0.049402
N38	N	0.853118	0.608719	0.549402
C39	C	0.394445	0.076743	0.000011
C40	C	0.894445	0.576743	0.500011
N41	N	0.363984	0.043908	-0.049386
N42	N	0.863984	0.543908	0.450614
N43	N	0.294802	0.043076	-0.049382
N44	N	0.794802	0.543076	0.450618
C45	C	0.254006	0.075052	0.000016
C46	C	0.754006	0.575052	0.500016
C47	C	0.509818	0.078133	-0.066368
C48	C	1.009818	0.578133	0.433632
C49	C	0.582641	0.079001	-0.066368
C50	C	1.082641	0.579001	0.433632
C51	C	0.582625	0.078993	0.066386
C52	C	1.082625	0.578993	0.566386
C53	C	0.509804	0.078119	0.066384
C54	C	1.009804	0.578119	0.566384
C55	C	0.473404	0.077692	0.000005
C56	C	0.973404	0.577692	0.500005
C57	C	0.830067	-0.028246	0.000029
C58	C	1.330067	0.471754	0.500029
C59	C	0.829142	-0.091467	0.000036
C60	C	1.329142	0.408533	0.500036
C61	C	0.823345	-0.483488	-0.066376
C62	C	1.323345	0.016512	0.433624
C63	C	0.822466	-0.542889	-0.066380
C64	C	1.322466	-0.042889	0.433620
O65	O	0.821996	-0.573604	-0.122828
O66	O	1.321996	-0.073604	0.377172
N67	N	0.822020	-0.572604	-0.000009
N68	N	1.322020	-0.072604	0.499991
C69	C	0.822446	-0.542913	0.066371
C70	C	1.322446	-0.042913	0.566371
O71	O	0.821985	-0.573642	0.122825
O72	O	1.321985	-0.073642	0.622825
C73	C	0.823320	-0.483512	0.066375
C74	C	1.323320	0.016488	0.566375
C75	C	0.823773	-0.453802	-0.000001
C76	C	1.323773	0.046198	0.499999
C77	C	0.823797	-0.453777	-0.132747
C78	C	1.323797	0.046223	0.367253
C79	C	0.824678	-0.394380	-0.132742
C80	C	1.324678	0.105620	0.367258
C81	C	0.825106	-0.364694	-0.066367
C82	C	1.325106	0.135306	0.433633
C83	C	0.824654	-0.394404	0.000003
C84	C	1.324654	0.105596	0.500003
C85	C	0.823742	-0.453822	0.132754
C86	C	1.323742	0.046178	0.632754
C87	C	0.824615	-0.394417	0.132752
C88	C	1.324615	0.105583	0.632752
C89	C	0.825068	-0.364707	0.066376
C90	C	1.325068	0.135293	0.566376
C91	C	0.825963	-0.305321	0.066383
C92	C	1.325963	0.194679	0.566383
N93	N	0.826409	-0.275607	0.000011
N94	N	1.326409	0.224393	0.500011
C95	C	0.825980	-0.305293	-0.066364
C96	C	1.325980	0.194707	0.433636
C97	C	0.820609	-0.667658	0.066359
C98	C	1.320609	-0.167658	0.566359
C99	C	0.819740	-0.727059	0.066356
C100	C	1.319740	-0.227059	0.566356
C101	C	0.819758	-0.727031	-0.066396
C102	C	1.319758	-0.227031	0.433604
C103	C	0.820632	-0.667630	-0.066392
C104	C	1.320632	-0.167630	0.433608
C105	C	0.821055	-0.637944	-0.000013
C106	C	1.321055	-0.137944	0.499987
C107	C	0.827830	-0.180555	-0.066349
C108	C	1.327830	0.319445	0.433651
C109	C	0.828714	-0.121153	-0.066339
C110	C	1.328714	0.378847	0.433661
C111	C	0.828692	-0.121186	0.066412
C112	C	1.328692	0.378814	0.566412
C113	C	0.827812	-0.180583	0.066403
C114	C	1.327812	0.319417	0.566403
C115	C	0.827379	-0.210266	0.000016
C116	C	1.327379	0.289734	0.500016
O117	O	0.826431	-0.274568	0.122801
O118	O	1.326431	0.225432	0.622801
O119	O	0.826432	-0.274556	-0.122808
O120	O	1.326432	0.225444	0.377192
C121	C	0.951907	0.071417	0.000015
C122	C	1.451907	0.571417	0.500015
C123	C	1.029408	0.072348	0.000012
C124	C	1.529408	0.572348	0.500012
C125	C	0.818382	0.180030	-0.000008
C126	C	1.318382	0.680030	0.499992
C127	C	0.819307	0.243250	-0.000019
C128	C	1.319307	0.743250	0.499981
N129	N	0.824202	0.075885	0.189712
N130	N	1.324202	0.575885	0.689712
N131	N	0.824254	0.075895	-0.189689
N132	N	1.324254	0.575895	0.310311
C133	C	0.871961	0.037067	0.228029
C134	C	1.371961	0.537067	0.728029
C135	C	0.871965	0.037065	0.304674
C136	C	1.371965	0.537065	0.804674
C137	C	0.824217	0.075889	0.342999
C138	C	1.324217	0.575889	0.842999
C139	C	0.776449	0.114709	0.304672
C140	C	1.276449	0.614709	0.804672
C141	C	0.776441	0.114707	0.228029
C142	C	1.276441	0.614707	0.728029
N143	N	0.814970	0.126305	0.463322
N144	N	1.314970	0.626305	0.963322
N145	N	0.814981	0.126306	0.536130
N146	N	1.314981	0.626306	1.036130
C147	C	0.824237	0.075897	0.573921
C148	C	1.324237	0.575897	1.073921
N149	N	0.833494	0.025487	0.536154
N150	N	1.333494	0.525487	1.036154
N151	N	0.833486	0.025487	0.463339
N152	N	1.333486	0.525487	0.963339
C153	C	0.824220	0.075896	0.426106
C154	C	1.324220	0.575896	0.926106
C155	C	0.872003	0.037074	0.695346
C156	C	1.372003	0.537074	1.195346
C157	C	0.872003	0.037071	0.771992
C158	C	1.372003	0.537071	1.271992
C159	C	0.776490	0.114720	0.771989
C160	C	1.276490	0.614720	1.271989
C161	C	0.776487	0.114719	0.695344
C162	C	1.276487	0.614719	1.195344
C163	C	0.824247	0.075896	0.657027
C164	C	1.324247	0.575896	1.157027
H165	H	0.168291	0.074033	-0.120411
H166	H	0.668291	0.574033	0.379589
O167	O	0.829218	-0.092385	0.130909
O168	O	1.329218	0.407615	0.630909
C169	C	0.889455	-0.113514	0.171320
C170	C	1.389455	0.386486	0.671320
H171	H	0.931507	-0.134448	0.132500
H172	H	1.431507	0.365552	0.632500
H173	H	0.910310	-0.076668	0.201439
H174	H	1.410310	0.423332	0.701439
H175	H	0.875260	-0.146508	0.212698
H176	H	1.375260	0.353492	0.712698
H177	H	0.910857	0.005454	0.335878
H178	H	1.410857	0.505454	0.835878
O179	O	0.825120	-0.365532	0.197191
O180	O	1.325120	0.134468	0.697191
C181	C	0.886113	-0.337791	0.201189
C182	C	1.386113	0.162209	0.701189
H183	H	0.906421	-0.331077	0.143566
H184	H	1.406421	0.168923	0.643566
H185	H	0.873122	-0.294543	0.229291
H186	H	1.373122	0.205457	0.729291
H187	H	0.928116	-0.365319	0.233944
H188	H	1.428116	0.134681	0.733944
H189	H	0.168273	0.074005	0.120431
H190	H	0.668273	0.574005	0.620431
H191	H	0.480180	0.077784	-0.120418
H192	H	0.980180	0.577784	0.379582
O193	O	0.618069	0.079339	0.130815
O194	O	1.118069	0.579339	0.630815
C195	C	0.668437	0.030523	0.134800
C196	C	1.168437	0.530523	0.634800
H197	H	0.682108	0.014219	0.077173
H198	H	1.182108	0.514219	0.577173
H199	H	0.717783	0.042225	0.162892
H200	H	1.217783	0.542225	0.662892
H201	H	0.646152	-0.004348	0.167557
H202	H	1.146152	0.495652	0.667557
O203	O	0.918498	-0.000545	0.658111
O204	O	1.418498	0.499455	1.158111
C205	C	0.961333	0.029899	0.613781
C206	C	1.461333	0.529899	1.113781
H207	H	0.962124	0.074819	0.636865
H208	H	1.462124	0.574819	1.136865
H209	H	1.017013	0.006587	0.612952
H210	H	1.517013	0.506587	1.112952
H211	H	0.939500	0.032908	0.555680
H212	H	1.439500	0.532908	1.055680
H213	H	0.480158	0.077757	0.120431
H214	H	0.980158	0.577757	0.620431
O215	O	0.827430	-0.209297	-0.130902
O216	O	1.327430	0.290703	0.369098
C217	C	0.827993	-0.170324	-0.189473
C218	C	1.327993	0.329676	0.310527
H219	H	0.850736	-0.130406	-0.170006
H220	H	1.350736	0.369594	0.329994
H221	H	0.861636	-0.191177	-0.235907
H222	H	1.361636	0.308823	0.264093
H223	H	0.772065	-0.157873	-0.209870
H224	H	1.272065	0.342127	0.290130
O225	O	0.823416	-0.482524	-0.197294
O226	O	1.323416	0.017476	0.302706
C227	C	0.823984	-0.443549	-0.255864
C228	C	1.323984	0.056451	0.244136
H229	H	0.846707	-0.403626	-0.236387
H230	H	1.346707	0.096374	0.263613
H231	H	0.857646	-0.464396	-0.302287
H232	H	1.357646	0.035604	0.197713
H233	H	0.768060	-0.431110	-0.276279
H234	H	1.268060	0.068890	0.223721
H235	H	0.737571	0.146320	0.335880
H236	H	1.237571	0.646320	0.835880
H237	H	0.036162	0.072413	0.120441
H238	H	0.536162	0.572413	0.620441
O239	O	0.820933	-0.638876	0.130891
O240	O	1.320933	-0.138876	0.630891
C241	C	0.760228	-0.646787	0.171258
C242	C	1.260228	-0.146787	0.671258
H243	H	0.739432	-0.687709	0.152375
H244	H	1.239432	-0.187709	0.652375
H245	H	0.773793	-0.650321	0.231979
H246	H	1.273793	-0.150321	0.731979
H247	H	0.718373	-0.608728	0.162063
H248	H	1.218373	-0.108728	0.662063
H249	H	0.612286	0.079361	-0.120418
H250	H	1.112286	0.579361	0.379582
H251	H	0.829084	-0.096965	-0.120393
H252	H	1.329084	0.403035	0.379607
O253	O	0.730023	0.152473	0.190917
O254	O	1.230023	0.652473	0.690917
C255	C	0.687863	0.186730	0.241174
C256	C	1.187863	0.686730	0.741174
H257	H	0.716485	0.187317	0.295803
H258	H	1.216485	0.687317	0.795803
H259	H	0.676882	0.232235	0.219018
H260	H	1.176882	0.732235	0.719018
H261	H	0.636133	0.168341	0.249340
H262	H	1.136133	0.668341	0.749340
O263	O	0.730135	0.152512	0.809128
O264	O	1.230135	0.652512	1.309128
C265	C	0.741086	0.208869	0.790394
C266	C	1.241086	0.708869	1.290394
H267	H	0.767994	0.208744	0.734740
H268	H	1.267994	0.708744	1.234740
H269	H	0.688404	0.237021	0.787776
H270	H	1.188404	0.737021	1.287776
H271	H	0.775715	0.226412	0.833517
H272	H	1.275715	0.726412	1.333517
H273	H	0.825044	-0.370194	-0.186792
H274	H	1.325044	0.129806	0.313208
O275	O	0.821035	-0.638855	-0.130934
O276	O	1.321035	-0.138855	0.369066
C277	C	0.820490	-0.677804	-0.189514
C278	C	1.320490	-0.177804	0.310486
H279	H	0.797758	-0.717736	-0.170053
H280	H	1.297758	-0.217736	0.329947
H281	H	0.786847	-0.656937	-0.235940
H282	H	1.286847	-0.156937	0.264060
H283	H	0.876422	-0.690235	-0.209919
H284	H	1.376422	-0.190235	0.290081
O285	O	0.827257	-0.209413	0.130894
O286	O	1.327257	0.290587	0.630894
C287	C	0.767000	-0.188289	0.171284
C288	C	1.267000	0.311711	0.671284
H289	H	0.724977	-0.167330	0.132450
H290	H	1.224977	0.332670	0.632450
H291	H	0.746115	-0.225141	0.201384
H292	H	1.246115	0.274859	0.701384
H293	H	0.781182	-0.155315	0.212677
H294	H	1.281182	0.344685	0.712677
H295	H	0.910848	0.005455	0.196834
H296	H	1.410848	0.505455	0.696834
H297	H	0.823374	-0.478003	0.186804
H298	H	1.323374	0.021997	0.686804
H299	H	0.819407	-0.751212	-0.120442
H300	H	1.319407	-0.251212	0.379558
O301	O	0.030575	0.072347	-0.130903
O302	O	0.530575	0.572347	0.369097
C303	C	0.078332	0.072941	-0.189485
C304	C	0.578332	0.572941	0.310515
H305	H	0.133259	0.055542	-0.170022
H306	H	0.633259	0.555542	0.329978
H307	H	0.061933	0.045044	-0.235902
H308	H	0.561933	0.545044	0.264098
H309	H	0.078422	0.118715	-0.209903
H310	H	0.578422	0.618715	0.290097
H311	H	0.819381	-0.751245	0.120406
H312	H	1.319381	-0.251245	0.620406
H313	H	0.910892	0.005458	0.803191
H314	H	1.410892	0.505458	1.303191
H315	H	0.737600	0.146329	0.664144
H316	H	1.237600	0.646329	1.164144
