data_functionalizedCrystal
_audit_creation_method	'MofGen! by Chris Wilmer'
_symmetry_space_group_name_H-M	'P1'
_symmetry_Int_Tables_number	1
_symmetry_cell_setting	triclinic
loop_
_symmetry_equiv_pos_as_xyz
  x,y,z
_cell_length_a	15.944551
_cell_length_b	16.992697
_cell_length_c	15.021413
_cell_angle_alpha	90.000840
_cell_angle_beta	89.995971
_cell_angle_gamma	87.083594
loop_
_atom_site_label
_atom_site_type_symbol
_atom_site_fract_x
_atom_site_fract_y
_atom_site_fract_z
O1	O	-0.178115	-1.040401	0.073887
O2	O	0.071885	-0.790401	0.323887
O3	O	0.321885	-0.540401	0.573887
O4	O	0.571885	-0.290401	0.823887
O5	O	-0.176160	-0.812116	0.073918
O6	O	0.073840	-0.562116	0.323918
O7	O	0.323840	-0.312116	0.573918
O8	O	0.573840	-0.062116	0.823918
O9	O	-0.055281	-0.932493	0.073907
O10	O	0.194719	-0.682493	0.323907
O11	O	0.444719	-0.432493	0.573907
O12	O	0.694719	-0.182493	0.823907
O13	O	-0.298994	-0.920025	0.073898
O14	O	-0.048994	-0.670025	0.323898
O15	O	0.201006	-0.420025	0.573898
O16	O	0.451006	-0.170025	0.823898
O17	O	-0.055266	-0.932480	-0.074157
O18	O	0.194734	-0.682480	0.175843
O19	O	0.444734	-0.432480	0.425843
O20	O	0.694734	-0.182480	0.675843
O21	O	-0.176146	-0.812103	-0.074147
O22	O	0.073854	-0.562103	0.175853
O23	O	0.323854	-0.312103	0.425853
O24	O	0.573854	-0.062103	0.675853
O25	O	-0.178100	-1.040389	-0.074177
O26	O	0.071900	-0.790389	0.175823
O27	O	0.321900	-0.540389	0.425823
O28	O	0.571900	-0.290389	0.675823
Zn29	Zn	-0.177121	-0.926244	-0.097670
Zn30	Zn	0.072879	-0.676244	0.152330
Zn31	Zn	0.322879	-0.426244	0.402330
Zn32	Zn	0.572879	-0.176244	0.652330
Zn33	Zn	-0.177140	-0.926261	0.097411
Zn34	Zn	0.072860	-0.676261	0.347411
Zn35	Zn	0.322860	-0.426261	0.597411
Zn36	Zn	0.572860	-0.176261	0.847411
O37	O	-0.298980	-0.920012	-0.074166
O38	O	-0.048980	-0.670012	0.175834
O39	O	0.201020	-0.420012	0.425834
O40	O	0.451020	-0.170012	0.675834
C41	C	-0.173639	-0.782897	-0.000111
C42	C	0.076361	-0.532897	0.249889
C43	C	0.326361	-0.282897	0.499889
C44	C	0.576361	-0.032897	0.749889
C45	C	-0.166139	-0.695853	-0.000099
C46	C	0.083861	-0.445853	0.249901
C47	C	0.333861	-0.195853	0.499901
C48	C	0.583861	0.054147	0.749901
C49	C	-0.238504	-0.645616	-0.000101
C50	C	0.011496	-0.395616	0.249899
C51	C	0.261496	-0.145616	0.499899
C52	C	0.511496	0.104384	0.749899
C53	C	-0.231452	-0.563829	-0.000112
C54	C	0.018548	-0.313829	0.249888
C55	C	0.268548	-0.063829	0.499888
C56	C	0.518548	0.186171	0.749888
C57	C	-0.152034	-0.532280	-0.000114
C58	C	0.097966	-0.282280	0.249886
C59	C	0.347966	-0.032280	0.499886
C60	C	0.597966	0.217720	0.749886
C61	C	-0.079664	-0.582523	-0.000114
C62	C	0.170336	-0.332523	0.249886
C63	C	0.420336	-0.082523	0.499886
C64	C	0.670336	0.167477	0.749886
C65	C	-0.086717	-0.664309	-0.000109
C66	C	0.163283	-0.414309	0.249891
C67	C	0.413283	-0.164309	0.499891
C68	C	0.663283	0.085691	0.749891
C69	C	-0.122802	-0.288681	-0.000132
C70	C	0.127198	-0.038681	0.249868
C71	C	0.377198	0.211319	0.499868
C72	C	0.627198	0.461319	0.749868
C73	C	-0.115755	-0.206889	-0.000134
C74	C	0.134245	0.043111	0.249866
C75	C	0.384245	0.293111	0.499866
C76	C	0.634245	0.543111	0.749866
C77	C	-0.267543	-0.188200	-0.000134
C78	C	-0.017543	0.061800	0.249866
C79	C	0.232457	0.311800	0.499866
C80	C	0.482457	0.561800	0.749866
C81	C	-0.274589	-0.269988	-0.000124
C82	C	-0.024589	-0.019988	0.249876
C83	C	0.225411	0.230012	0.499876
C84	C	0.475411	0.480012	0.749876
C85	C	-0.202219	-0.320224	-0.000129
C86	C	0.047781	-0.070224	0.249871
C87	C	0.297781	0.179776	0.499871
C88	C	0.547781	0.429776	0.749871
N89	N	-0.144824	-0.448681	-0.000122
N90	N	0.105176	-0.198681	0.249878
N91	N	0.355176	0.051319	0.499878
N92	N	0.605176	0.301319	0.749878
N93	N	-0.209430	-0.403822	-0.000127
N94	N	0.040570	-0.153822	0.249873
N95	N	0.290570	0.096178	0.499873
N96	N	0.540570	0.346178	0.749873
C97	C	-0.330316	-0.920536	-0.000135
C98	C	-0.080316	-0.670536	0.249865
C99	C	0.169684	-0.420536	0.499865
C100	C	0.419684	-0.170536	0.749865
C101	C	-0.423666	-0.922088	-0.000139
C102	C	-0.173666	-0.672088	0.249861
C103	C	0.076334	-0.422088	0.499861
C104	C	0.326334	-0.172088	0.749861
C105	C	-0.643776	-1.000412	-0.000136
C106	C	-0.393776	-0.750412	0.249864
C107	C	-0.143776	-0.500412	0.499864
C108	C	0.106224	-0.250412	0.749864
C109	C	-0.702345	-0.964035	-0.073136
C110	C	-0.452345	-0.714035	0.176864
C111	C	-0.202345	-0.464035	0.426864
C112	C	0.047655	-0.214035	0.676864
C113	C	-0.594580	-0.924895	-0.000132
C114	C	-0.344580	-0.674895	0.249868
C115	C	-0.094580	-0.424895	0.499868
C116	C	0.155420	-0.174895	0.749868
C117	C	-0.702344	-0.964029	0.072844
C118	C	-0.452344	-0.714029	0.322844
C119	C	-0.202344	-0.464029	0.572844
C120	C	0.047656	-0.214029	0.822844
C121	C	-0.759675	-0.927612	-0.000121
C122	C	-0.509675	-0.677612	0.249879
C123	C	-0.259675	-0.427612	0.499879
C124	C	-0.009675	-0.177612	0.749879
C125	C	-0.651920	-0.888497	-0.073192
C126	C	-0.401920	-0.638497	0.176808
C127	C	-0.151920	-0.388497	0.426808
C128	C	0.098080	-0.138497	0.676808
C129	C	-0.651913	-0.888502	0.072854
C130	C	-0.401913	-0.638502	0.322854
C131	C	-0.151913	-0.388502	0.572854
C132	C	0.098087	-0.138502	0.822854
C133	C	-0.710462	-0.852070	-0.000163
C134	C	-0.460462	-0.602070	0.249837
C135	C	-0.210462	-0.352070	0.499837
C136	C	0.039538	-0.102070	0.749837
C137	C	-0.499473	-0.923332	-0.000139
C138	C	-0.249473	-0.673332	0.249861
C139	C	0.000527	-0.423332	0.499861
C140	C	0.250527	-0.173332	0.749861
C141	C	-0.854781	-0.929170	-0.000120
C142	C	-0.604781	-0.679170	0.249880
C143	C	-0.354781	-0.429170	0.499880
C144	C	-0.104781	-0.179170	0.749880
C145	C	-0.023945	-0.931969	-0.000122
C146	C	0.226055	-0.681969	0.249878
C147	C	0.476055	-0.431969	0.499878
C148	C	0.726055	-0.181969	0.749878
C149	C	0.069405	-0.930417	-0.000112
C150	C	0.319405	-0.680417	0.249888
C151	C	0.569405	-0.430417	0.499888
C152	C	0.819405	-0.180417	0.749888
C153	C	-0.180621	-0.069608	-0.000143
C154	C	0.069379	0.180392	0.249857
C155	C	0.319379	0.430392	0.499857
C156	C	0.569379	0.680392	0.749857
C157	C	-0.188119	-0.156653	-0.000136
C158	C	0.061881	0.093347	0.249864
C159	C	0.311881	0.343347	0.499864
C160	C	0.561881	0.593347	0.749864
N161	N	-0.177147	-0.926273	0.230548
N162	N	0.072853	-0.676273	0.480548
N163	N	0.322853	-0.426273	0.730548
N164	N	0.572853	-0.176273	0.980548
C165	C	-0.121343	-0.982045	0.470197
C166	C	0.128657	-0.732045	0.720197
C167	C	0.378657	-0.482045	0.970197
C168	C	0.628657	-0.232045	1.220197
C169	C	-0.198304	-0.997086	0.529560
C170	C	0.051696	-0.747086	0.779560
C171	C	0.301696	-0.497086	1.029560
C172	C	0.551696	-0.247086	1.279560
C173	C	-0.177136	-0.926262	0.412155
C174	C	0.072864	-0.676262	0.662155
C175	C	0.322864	-0.426262	0.912155
C176	C	0.572864	-0.176262	1.162155
C177	C	-0.100165	-0.911247	0.529534
C178	C	0.149835	-0.661247	0.779534
C179	C	0.399835	-0.411247	1.029534
C180	C	0.649835	-0.161247	1.279534
C181	C	-0.177118	-0.926253	0.587579
C182	C	0.072882	-0.676253	0.837579
C183	C	0.322882	-0.426253	1.087579
C184	C	0.572882	-0.176253	1.337579
C185	C	-0.254138	-0.941338	0.470212
C186	C	-0.004138	-0.691338	0.720212
C187	C	0.245862	-0.441338	0.970212
C188	C	0.495862	-0.191338	1.220212
C189	C	-0.155947	-0.855467	0.470181
C190	C	0.094053	-0.605467	0.720181
C191	C	0.344053	-0.355467	0.970181
C192	C	0.594053	-0.105467	1.220181
C193	C	-0.232961	-0.870478	0.529517
C194	C	0.017039	-0.620478	0.779517
C195	C	0.267039	-0.370478	1.029517
C196	C	0.517039	-0.120478	1.279517
C197	C	-0.177145	-0.926269	0.311098
C198	C	0.072855	-0.676269	0.561098
C199	C	0.322855	-0.426269	0.811098
C200	C	0.572855	-0.176269	1.061098
C201	C	-0.177117	-0.926245	0.688635
C202	C	0.072883	-0.676245	0.938635
C203	C	0.322883	-0.426245	1.188635
C204	C	0.572883	-0.176245	1.438635
N205	N	-0.177108	-0.926239	0.769192
N206	N	0.072892	-0.676239	1.019192
N207	N	0.322892	-0.426239	1.269192
N208	N	0.572892	-0.176239	1.519192
H209	H	-0.303174	-0.671296	-0.000099
H210	H	-0.053174	-0.421296	0.249901
H211	H	0.196826	-0.171296	0.499901
H212	H	0.446826	0.078704	0.749901
Cl213	Cl	-0.598840	-1.097187	-0.000257
Cl214	Cl	-0.348840	-0.847187	0.249743
Cl215	Cl	-0.098840	-0.597187	0.499743
Cl216	Cl	0.151160	-0.347187	0.749743
Cl217	Cl	-0.354655	-0.961053	0.430154
Cl218	Cl	-0.104655	-0.711053	0.680154
Cl219	Cl	0.145345	-0.461053	0.930154
Cl220	Cl	0.395345	-0.211053	1.180154
H221	H	-0.724583	-0.995989	0.134556
H222	H	-0.474583	-0.745989	0.384556
H223	H	-0.224583	-0.495989	0.634556
H224	H	0.025417	-0.245989	0.884556
H225	H	-0.216224	-1.056951	0.555643
H226	H	0.033776	-0.806951	0.805643
H227	H	0.283776	-0.556951	1.055643
H228	H	0.533776	-0.306951	1.305643
H229	H	-0.280191	-0.823297	0.555398
H230	H	-0.030191	-0.573297	0.805398
H231	H	0.219809	-0.323297	1.055398
H232	H	0.469809	-0.073297	1.305398
H233	H	-0.074227	-1.029254	0.444153
H234	H	0.175773	-0.779254	0.694153
H235	H	0.425773	-0.529254	0.944153
H236	H	0.675773	-0.279254	1.194153
H237	H	-0.138005	-0.795621	0.444079
H238	H	0.111995	-0.545621	0.694079
H239	H	0.361995	-0.295621	0.944079
H240	H	0.611995	-0.045621	1.194079
H241	H	-0.290379	-0.522929	-0.000113
H242	H	-0.040379	-0.272929	0.249887
H243	H	0.209621	-0.022929	0.499887
H244	H	0.459621	0.227071	0.749887
H245	H	-0.339260	-0.295669	-0.000112
H246	H	-0.089260	-0.045669	0.249888
H247	H	0.160740	0.204331	0.499888
H248	H	0.410740	0.454331	0.749888
Cl249	Cl	-0.358517	-0.125043	-0.000131
Cl250	Cl	-0.108517	0.124957	0.249869
Cl251	Cl	0.141483	0.374957	0.499869
Cl252	Cl	0.391483	0.624957	0.749869
Cl253	Cl	-0.617536	-0.839238	0.168156
Cl254	Cl	-0.367536	-0.589238	0.418156
Cl255	Cl	-0.117536	-0.339238	0.668156
Cl256	Cl	0.132464	-0.089238	0.918156
H257	H	-0.027789	-0.705211	-0.000107
H258	H	0.222211	-0.455211	0.249893
H259	H	0.472211	-0.205211	0.499893
H260	H	0.722211	0.044789	0.749893
H261	H	-0.035080	-0.898550	0.555593
H262	H	0.214920	-0.648550	0.805593
H263	H	0.464920	-0.398550	1.055593
H264	H	0.714920	-0.148550	1.305593
H265	H	-0.051080	-0.181206	-0.000134
H266	H	0.198920	0.068794	0.249866
H267	H	0.448920	0.318794	0.499866
H268	H	0.698920	0.568794	0.749866
H269	H	-0.629782	-0.856576	-0.134973
H270	H	-0.379782	-0.606576	0.115027
H271	H	-0.129782	-0.356576	0.365027
H272	H	0.120218	-0.106576	0.615027
H273	H	-0.724588	-0.995970	-0.134860
H274	H	-0.474588	-0.745970	0.115140
H275	H	-0.224588	-0.495970	0.365140
H276	H	0.025412	-0.245970	0.615140
Cl277	Cl	-0.031821	-0.351824	-0.000137
Cl278	Cl	0.218179	-0.101824	0.249863
Cl279	Cl	0.468179	0.148176	0.499863
Cl280	Cl	0.718179	0.398176	0.749863
Cl281	Cl	-0.755154	-0.755207	-0.000204
Cl282	Cl	-0.505154	-0.505207	0.249796
Cl283	Cl	-0.255154	-0.255207	0.499796
Cl284	Cl	-0.005154	-0.005207	0.749796
H285	H	-0.015000	-0.556830	-0.000128
H286	H	0.235000	-0.306830	0.249872
H287	H	0.485000	-0.056830	0.499872
H288	H	0.735000	0.193170	0.749872
