data_functionalizedCrystal
_audit_creation_method	'MofGen! by Chris Wilmer'
_symmetry_space_group_name_H-M	'P1'
_symmetry_Int_Tables_number	1
_symmetry_cell_setting	triclinic
loop_
_symmetry_equiv_pos_as_xyz
  x,y,z
_cell_length_a	21.295418
_cell_length_b	19.076915
_cell_length_c	19.077174
_cell_angle_alpha	89.935824
_cell_angle_beta	87.664690
_cell_angle_gamma	87.653381
loop_
_atom_site_label
_atom_site_type_symbol
_atom_site_fract_x
_atom_site_fract_y
_atom_site_fract_z
Zn1	Zn	0.965555	0.295455	-0.386433
Zn2	Zn	0.957024	0.408254	-0.264197
Zn3	Zn	0.856240	0.290788	-0.268897
Zn4	Zn	0.855847	0.412964	-0.381626
O5	O	0.908666	0.351865	-0.325288
O6	O	1.052515	0.310400	-0.370262
O7	O	0.940248	0.388747	-0.166487
O8	O	0.874475	0.193069	-0.288467
O9	O	1.046247	0.393273	-0.280457
O10	O	0.954789	0.196498	-0.374820
O11	O	0.866203	0.302445	-0.169940
O12	O	0.768096	0.307012	-0.283806
O13	O	0.873807	0.401300	-0.480597
O14	O	0.767808	0.396775	-0.366628
O15	O	0.954409	0.314967	-0.484129
O16	O	0.939868	0.507216	-0.275796
O17	O	0.865534	0.510677	-0.362071
C18	C	0.901750	0.534445	-0.317917
C19	C	0.898850	0.612554	-0.314787
C20	C	0.745111	0.351899	-0.325206
C21	C	0.675141	0.351931	-0.325187
C22	C	0.878022	1.052043	-0.292361
C23	C	0.880749	0.978651	-0.295302
C24	C	0.923901	0.943683	-0.341767
C25	C	0.964324	0.982110	-0.385299
C26	C	0.961594	1.055501	-0.382361
C27	C	0.936544	0.724373	-0.355381
C28	C	0.939272	0.650976	-0.358314
C29	C	0.855695	0.647523	-0.268318
C30	C	0.852971	0.720915	-0.265381
C31	C	0.893393	0.759336	-0.308916
N32	N	0.926690	0.868664	-0.344773
N33	N	0.890600	0.834354	-0.305913
C34	C	0.642136	0.398727	-0.368242
C35	C	0.576395	0.398711	-0.368275
C36	C	0.543661	0.351905	-0.325238
C37	C	0.576674	0.305101	-0.282180
C38	C	0.642414	0.305113	-0.282154
N39	N	0.438479	0.343947	-0.263999
N40	N	0.376029	0.343939	-0.264025
C41	C	0.345591	0.351864	-0.325315
N42	N	0.379961	0.359810	-0.386577
N43	N	0.442417	0.359821	-0.386550
C44	C	0.472377	0.351886	-0.325262
C45	C	0.241302	0.398645	-0.368409
C46	C	0.175560	0.398624	-0.368443
C47	C	0.175840	0.305017	-0.282342
C48	C	0.241581	0.305035	-0.282314
C49	C	0.274308	0.351852	-0.325347
C50	C	1.072861	0.351832	-0.325371
C51	C	1.142831	0.351817	-0.325407
C52	C	0.915015	0.359180	-0.508573
C53	C	0.917721	0.362297	-0.586677
C54	C	0.915590	1.168573	-0.332710
C55	C	0.918444	1.090466	-0.335888
C56	C	0.880442	0.318830	-0.625169
C57	C	0.882982	0.321764	-0.698556
C58	C	0.922804	0.368164	-0.733451
C59	C	0.960084	0.411636	-0.694955
C60	C	0.957541	0.408704	-0.621569
C61	C	0.934541	0.381753	-0.952740
C62	C	0.937083	0.384680	-1.026132
C63	C	0.859979	0.294809	-1.029728
C64	C	0.857442	0.291879	-0.956340
C65	C	0.894720	0.335353	-0.917850
N66	N	0.925402	0.371163	-0.808465
N67	N	0.892118	0.332357	-0.842837
C68	C	0.902380	0.344528	-0.142719
C69	C	0.899804	0.341213	-0.064623
H70	H	0.842885	1.080509	-0.254522
H71	H	0.992505	0.449418	-0.723372
H72	H	0.549518	0.436817	-0.403338
H73	H	0.268453	0.266932	-0.247250
H74	H	0.848018	0.281042	-0.596762
Br75	Br	0.832351	0.262808	-0.750790
Br76	Br	0.803399	0.228903	-0.908987
H77	H	0.829629	0.259415	-1.061074
H78	H	0.969514	0.422465	-1.054541
Br79	Br	0.131423	0.241488	-0.223941
H80	H	0.987902	0.444095	-0.590230
H81	H	0.974414	0.622509	-0.396154
H82	H	0.964888	0.417161	-0.921410
Br83	Br	1.016452	1.107647	-0.441439
Br84	Br	0.825877	0.926510	-0.236239
Br85	Br	1.022881	0.934654	-0.448369
Br86	Br	0.794406	0.768368	-0.202319
Br87	Br	0.532251	0.241573	-0.223779
Br88	Br	0.800839	0.595377	-0.209241
Br89	Br	0.991394	0.776507	-0.414473
Br90	Br	0.686548	0.462263	-0.426645
H91	H	0.669286	0.267004	-0.247093
H92	H	0.267950	0.436763	-0.403452
H93	H	0.148689	0.436730	-0.403508
