data_functionalizedCrystal
_audit_creation_method	'MofGen! by Chris Wilmer'
_symmetry_space_group_name_H-M	'P1'
_symmetry_Int_Tables_number	1
_symmetry_cell_setting	triclinic
loop_
_symmetry_equiv_pos_as_xyz
  x,y,z
_cell_length_a	10.654562
_cell_length_b	9.730223
_cell_length_c	10.654550
_cell_angle_alpha	90.000193
_cell_angle_beta	95.512497
_cell_angle_gamma	89.996961
loop_
_atom_site_label
_atom_site_type_symbol
_atom_site_fract_x
_atom_site_fract_y
_atom_site_fract_z
O1	O	1.667825	-0.114377	-0.176469
O2	O	1.302348	-0.114359	-0.193259
O3	O	1.493489	-0.114363	-0.002125
O4	O	1.476683	-0.114373	-0.367603
O5	O	1.493487	0.114217	-0.002130
O6	O	1.302346	0.114221	-0.193264
O7	O	1.667822	0.114203	-0.176474
Zn8	Zn	1.485084	0.150504	-0.184870
Zn9	Zn	1.485087	-0.150660	-0.184863
O10	O	1.476681	0.114207	-0.367608
C11	C	1.255549	-0.000067	-0.192025
C12	C	1.116107	-0.000060	-0.188327
N13	N	1.485091	0.356040	-0.184873
N14	N	1.485089	-0.356196	-0.184850
C15	C	1.050575	0.124528	-0.186604
C16	C	0.919553	0.124505	-0.183139
C17	C	0.919605	-0.124705	-0.183125
C18	C	1.050626	-0.124681	-0.186581
C19	C	1.116056	0.249149	-0.188351
C20	C	1.050524	0.373747	-0.186630
C21	C	0.919501	0.373724	-0.183165
C22	C	0.854011	0.249103	-0.181421
C23	C	1.714621	-0.000092	-0.177708
C24	C	1.854064	-0.000108	-0.181406
C25	C	1.492254	-0.000075	0.044671
C26	C	1.488563	-0.000079	0.184114
C27	C	1.569750	0.427965	-0.100268
C28	C	1.569747	0.571848	-0.100253
C29	C	1.400421	0.571869	-0.269459
C30	C	1.400419	0.427989	-0.269467
C31	C	1.654422	0.356016	-0.015674
C32	C	1.739089	0.427940	0.068937
C33	C	1.739086	0.571823	0.068952
C34	C	1.654415	0.643782	-0.015644
C35	C	1.477916	-0.000084	-0.414403
C36	C	1.481608	-0.000088	-0.553847
C37	C	1.601103	-0.000081	0.263595
C38	C	1.597627	-0.000090	0.394615
C39	C	1.369059	-0.000091	0.366662
C40	C	1.372537	-0.000092	0.235644
C41	C	1.717129	-0.000068	0.212064
C42	C	1.829680	-0.000068	0.291546
C43	C	1.826203	-0.000077	0.422567
C44	C	1.710176	-0.000087	0.474106
H45	H	1.103855	0.475209	-0.188040
H46	H	1.222740	0.249181	-0.191176
O47	O	1.821204	0.358135	0.151307
C48	C	1.799709	0.393343	0.275813
H49	H	1.699147	0.432879	0.277344
H50	H	1.868977	0.476879	0.312043
C51	C	1.942013	0.216993	0.358924
C52	C	1.818498	0.265541	0.360807
H53	H	1.953609	0.138162	0.411355
H54	H	1.956500	0.193275	0.275043
H55	H	1.999723	0.286618	0.389114
H56	H	1.760792	0.195923	0.330603
H57	H	1.804002	0.289244	0.444686
H58	H	0.866272	-0.226166	-0.181708
O59	O	0.855681	0.494661	-0.181645
C60	C	0.766645	0.502115	-0.288234
H61	H	0.742616	0.393925	-0.323912
H62	H	0.807833	0.563613	-0.365602
C63	C	0.675716	0.706209	-0.208140
C64	C	0.646196	0.573328	-0.251954
H65	H	0.601420	0.750142	-0.185764
H66	H	0.735705	0.701192	-0.136331
H67	H	0.710042	0.757440	-0.272621
H68	H	0.611886	0.522094	-0.187468
H69	H	0.586199	0.578338	-0.323751
O70	O	1.821148	0.641754	0.151267
C71	C	1.753229	0.725000	0.229373
H72	H	1.654171	0.681645	0.232422
H73	H	1.746985	0.834050	0.190139
C74	C	1.942949	0.780440	0.359825
C75	C	1.821287	0.727184	0.363579
H76	H	1.984932	0.781794	0.442609
H77	H	1.988709	0.724360	0.307202
H78	H	1.937728	0.871310	0.327125
H79	H	1.826509	0.636311	0.396264
H80	H	1.775529	0.783249	0.416211
H81	H	1.280896	-0.000089	0.170928
H82	H	1.654411	0.760941	-0.015616
O83	O	1.256466	-0.000029	0.416932
C84	C	1.277530	-0.000061	0.549616
H85	H	1.375271	0.043210	0.579519
H86	H	1.271128	-0.109721	0.586137
C87	C	1.057108	0.036439	0.568101
C88	C	1.177151	0.089597	0.604827
H89	H	0.995187	0.091739	0.602159
H90	H	1.042914	0.036456	0.478709
H91	H	1.051791	-0.054943	0.598537
H92	H	1.182471	0.180971	0.574378
H93	H	1.191343	0.089598	0.694215
O94	O	1.942274	-0.000004	0.241279
C95	C	1.921214	-0.000030	0.108595
H96	H	1.823473	0.043249	0.078691
H97	H	1.927621	-0.109689	0.072071
C98	C	2.141637	0.036456	0.090120
C99	C	2.021593	0.089623	0.053391
H100	H	2.203557	0.091752	0.056065
H101	H	2.155827	0.036468	0.179511
H102	H	2.146958	-0.054926	0.059681
H103	H	2.016268	0.180996	0.083843
H104	H	2.007404	0.089628	-0.035998
H105	H	0.747324	0.249094	-0.178596
H106	H	1.103983	-0.226132	-0.187989
H107	H	1.331481	0.369428	-0.338359
H108	H	1.654435	0.238859	-0.015682
O109	O	1.318010	0.641706	-0.351507
C110	C	1.193514	0.606534	-0.329950
H111	H	1.192030	0.566972	-0.229393
H112	H	1.157224	0.523029	-0.399226
C113	C	1.110371	0.782950	-0.472162
C114	C	1.108547	0.734370	-0.348653
H115	H	1.057956	0.861802	-0.483705
H116	H	1.194245	0.806643	-0.486691
H117	H	1.080132	0.713350	-0.529878
H118	H	1.138800	0.803963	-0.290941
H119	H	1.024675	0.710691	-0.334116
H120	H	1.719973	-0.000056	0.105382
H121	H	1.917847	-0.000091	0.487279
H122	H	1.707355	-0.000110	0.580794
