data_functionalizedCrystal
_audit_creation_method	'MofGen! by Chris Wilmer'
_symmetry_space_group_name_H-M	'P1'
_symmetry_Int_Tables_number	1
_symmetry_cell_setting	triclinic
loop_
_symmetry_equiv_pos_as_xyz
  x,y,z
_cell_length_a	19.077105
_cell_length_b	13.032721
_cell_length_c	19.076919
_cell_angle_alpha	99.138159
_cell_angle_beta	90.076224
_cell_angle_gamma	95.201395
loop_
_atom_site_label
_atom_site_type_symbol
_atom_site_fract_x
_atom_site_fract_y
_atom_site_fract_z
Zn1	Zn	1.013397	-0.505360	-0.481832
Zn2	Zn	1.003124	-0.673317	-0.378090
Zn3	Zn	0.901858	-0.491366	-0.358479
Zn4	Zn	0.881001	-0.672687	-0.490791
O5	O	0.949845	-0.585683	-0.427298
O6	O	1.109823	-0.533760	-0.472529
O7	O	0.994119	-0.643588	-0.276699
O8	O	0.929682	-0.347048	-0.362886
O9	O	1.102275	-0.657157	-0.396309
O10	O	1.011630	-0.357329	-0.453513
O11	O	0.919720	-0.509909	-0.262291
O12	O	0.801303	-0.509299	-0.371572
O13	O	0.894135	-0.656084	-0.588392
O14	O	0.785980	-0.642515	-0.468781
O15	O	0.991406	-0.533149	-0.581810
O16	O	0.973896	-0.819408	-0.404996
O17	O	0.884173	-0.818945	-0.487797
C18	C	0.768286	-0.574321	-0.419021
C19	C	0.690611	-0.569486	-0.415499
C20	C	0.925675	-0.857080	-0.449513
C21	C	0.915397	-0.973191	-0.459043
C22	C	0.646154	-0.636670	-0.464393
C23	C	0.573171	-0.632114	-0.461086
C24	C	0.544646	-0.560378	-0.408881
C25	C	0.589109	-0.493187	-0.359985
C26	C	0.662091	-0.497739	-0.363296
C27	C	0.327230	-0.539312	-0.393562
C28	C	0.254242	-0.534767	-0.390254
C29	C	0.238309	-0.673693	-0.491357
C30	C	0.311292	-0.678243	-0.494660
C31	C	0.355749	-0.611048	-0.445766
N32	N	0.470046	-0.555721	-0.405499
N33	N	0.430348	-0.615700	-0.449153
C34	C	0.955245	-1.025155	-0.422357
C35	C	0.944623	-1.145161	-0.432206
C36	C	1.132113	-0.597090	-0.435607
C37	C	1.209785	-0.601951	-0.439148
C38	C	0.941590	-0.596107	-0.611432
C39	C	0.938072	-0.600549	-0.689899
C40	C	0.974128	-0.313227	-0.405012
C41	C	0.984476	-0.197123	-0.395516
C42	C	0.987061	-0.538633	-0.723338
C43	C	0.983747	-0.542803	-0.797065
C44	C	0.931448	-0.608894	-0.837354
C45	C	0.882454	-0.670812	-0.803910
C46	C	0.885765	-0.666637	-0.730183
C47	C	0.916112	-0.628240	-1.058220
C48	C	0.912806	-0.632414	-1.131952
C49	C	1.014098	-0.504402	-1.125102
C50	C	1.017407	-0.500237	-1.051375
C51	C	0.968412	-0.562151	-1.017937
N52	N	0.928061	-0.613160	-0.912715
N53	N	0.971796	-0.557879	-0.942576
C54	C	0.958115	-0.575226	-0.243875
C55	C	0.961794	-0.570498	-0.165391
H56	H	0.669372	-0.695088	-0.506902
H57	H	0.873422	-1.017547	-0.497745
C58	C	1.040408	-1.138123	-0.343803
C59	C	1.026059	-1.159766	-0.275416
C60	C	1.077572	-1.105447	-0.227764
H61	H	1.040160	-1.065305	-0.343945
H62	H	1.085338	-1.159431	-0.357722
H63	H	0.981141	-1.138452	-0.261502
H64	H	1.026313	-1.232573	-0.275252
H65	H	1.122502	-1.126754	-0.241682
H66	H	1.077320	-1.032632	-0.227912
H67	H	1.067847	-1.120131	-0.181359
H68	H	0.231022	-0.476339	-0.347746
C69	C	0.888632	-1.204103	-0.483874
C70	C	0.853940	-1.132907	-0.515823
C71	C	0.802366	-1.187168	-0.563429
H72	H	0.855608	-1.243297	-0.459007
H73	H	0.910210	-1.250003	-0.519373
H74	H	0.832363	-1.087026	-0.480330
H75	H	0.886946	-1.093711	-0.540703
H76	H	0.823943	-1.233068	-0.598928
H77	H	0.769346	-1.226360	-0.538556
H78	H	0.778825	-1.138871	-0.585117
C79	C	0.524809	-0.705108	-0.514053
C80	C	0.478732	-0.767058	-0.477571
C81	C	0.434163	-0.834304	-0.526341
H82	H	0.552156	-0.748586	-0.545638
H83	H	0.498474	-0.665215	-0.540292
H84	H	0.505064	-0.806947	-0.451344
H85	H	0.451370	-0.723608	-0.445989
H86	H	0.407828	-0.794411	-0.552580
H87	H	0.461516	-0.877774	-0.557923
H88	H	0.402890	-0.876338	-0.501594
C89	C	1.011170	-0.966145	-0.370647
C90	C	0.996819	-0.987785	-0.302259
C91	C	1.048327	-0.933456	-0.254605
H92	H	1.010918	-0.893328	-0.370791
H93	H	1.056102	-0.987447	-0.384561
H94	H	0.951899	-0.966477	-0.288348
H95	H	0.997077	-1.060591	-0.302092
H96	H	1.093259	-0.954758	-0.268520
H97	H	1.048071	-0.860642	-0.254756
H98	H	1.038600	-0.948139	-0.208200
H99	H	1.029650	-0.484818	-0.690541
H100	H	1.059997	-0.446421	-1.018577
C101	C	0.189927	-0.746512	-0.544402
C102	C	0.119908	-0.727158	-0.530344
C103	C	0.075320	-0.794210	-0.579205
H104	H	0.196015	-0.816870	-0.540325
H105	H	0.201084	-0.734751	-0.591164
H106	H	0.108755	-0.738928	-0.483594
H107	H	0.113798	-0.656813	-0.534427
H108	H	0.086477	-0.782448	-0.625967
H109	H	0.081415	-0.864564	-0.575124
H110	H	0.027808	-0.781081	-0.569678
C111	C	1.036918	-0.475399	-0.833258
C112	C	1.031733	-0.370084	-0.806154
C113	C	1.080711	-0.307955	-0.839468
H114	H	1.027517	-0.487200	-0.882938
H115	H	1.083066	-0.492884	-0.824549
H116	H	0.985595	-0.352605	-0.814870
H117	H	1.041140	-0.358251	-0.756478
H118	H	1.126860	-0.325440	-0.830758
H119	H	1.071306	-0.319765	-0.889147
H120	H	1.077204	-0.236493	-0.821078
H121	H	0.334511	-0.736660	-0.537169
H122	H	1.053987	-0.453994	-1.152335
H123	H	0.870215	-0.686236	-1.164753
C124	C	0.862867	-0.695564	-1.022056
C125	C	0.816367	-0.754348	-1.073123
C126	C	0.767306	-0.816382	-1.039833
H127	H	0.837204	-0.652166	-0.988649
H128	H	0.886796	-0.741185	-0.998249
H129	H	0.792439	-0.708733	-1.096919
H130	H	0.842009	-0.797767	-1.106533
H131	H	0.791236	-0.862003	-1.016025
H132	H	0.741649	-0.772976	-1.006426
H133	H	0.735754	-0.856282	-1.074477
H134	H	0.839869	-0.724621	-0.836718
H135	H	0.363418	-0.484604	-0.353745
C136	C	0.558092	-0.415465	-0.303233
C137	C	0.512973	-0.469325	-0.260838
C138	C	0.484395	-0.397763	-0.208544
H139	H	0.532409	-0.369744	-0.325193
H140	H	0.595000	-0.376114	-0.274547
H141	H	0.476070	-0.508658	-0.289520
H142	H	0.538639	-0.515041	-0.238861
H143	H	0.521303	-0.358412	-0.179858
H144	H	0.458716	-0.352046	-0.230511
H145	H	0.453783	-0.434297	-0.179769
C146	C	0.710242	-0.424750	-0.310120
C147	C	0.669642	-0.360974	-0.263678
C148	C	0.713973	-0.293730	-0.214677
H149	H	0.741568	-0.382508	-0.334658
H150	H	0.736523	-0.464647	-0.283833
H151	H	0.643373	-0.321080	-0.289962
H152	H	0.638318	-0.403187	-0.239123
H153	H	0.740254	-0.333627	-0.188390
H154	H	0.745296	-0.251495	-0.239222
H155	H	0.686432	-0.250457	-0.183157
C156	C	0.832544	-0.733996	-0.694013
C157	C	0.786048	-0.792798	-0.745077
C158	C	0.737017	-0.854876	-0.711785
H159	H	0.806873	-0.690627	-0.660594
H160	H	0.856497	-0.779606	-0.670218
H161	H	0.762097	-0.747194	-0.768860
H162	H	0.811698	-0.836188	-0.778497
H163	H	0.760970	-0.900486	-0.687991
H164	H	0.711352	-0.811499	-0.678368
H165	H	0.705468	-0.894788	-0.746427
