data_functionalizedCrystal
_audit_creation_method	'MofGen! by Chris Wilmer'
_symmetry_space_group_name_H-M	'P1'
_symmetry_Int_Tables_number	1
_symmetry_cell_setting	triclinic
loop_
_symmetry_equiv_pos_as_xyz
  x,y,z
_cell_length_a	9.065215
_cell_length_b	10.540510
_cell_length_c	7.540329
_cell_angle_alpha	89.998880
_cell_angle_beta	89.997574
_cell_angle_gamma	84.764004
loop_
_atom_site_label
_atom_site_type_symbol
_atom_site_fract_x
_atom_site_fract_y
_atom_site_fract_z
O1	O	1.959448	0.186128	-0.147451
O2	O	1.530085	0.201401	-0.147458
O3	O	1.754585	0.009092	-0.147454
O4	O	1.734948	0.378437	-0.147455
O5	O	1.754571	0.009089	0.147511
O6	O	1.530071	0.201398	0.147507
O7	O	1.959435	0.186126	0.147514
Cu8	Cu	1.744752	0.193762	0.174443
Cu9	Cu	1.744768	0.193765	-0.174387
O10	O	1.734934	0.378435	0.147510
C11	C	1.475099	0.199933	0.000023
C12	C	1.311278	0.195546	0.000020
C13	C	1.753115	-0.038218	0.000025
C14	C	1.748737	-0.179185	0.000014
C15	C	1.904696	-0.396065	0.000693
C16	C	1.909366	-0.249452	0.000019
C17	C	1.666518	-0.224245	-0.168423
C18	C	1.662985	-0.371019	-0.168555
C19	C	1.659625	-0.370843	0.166876
C20	C	1.667243	-0.224474	0.169093
C21	C	2.014421	0.187594	0.000029
C22	C	2.178241	0.191980	0.000020
C23	C	1.736404	0.425745	0.000027
C24	C	1.740782	0.566711	0.000026
N25	N	1.744751	0.193759	0.419792
N26	N	1.744780	0.193758	-0.419736
H27	H	1.973698	-0.219872	0.120759
H28	H	1.723627	-0.193177	-0.293772
H29	H	1.966921	-0.439340	-0.119417
H30	H	1.967270	-0.437790	0.121488
H31	H	1.710665	-0.412837	0.294552
C32	C	1.500702	-0.402719	-0.178972
C33	C	1.435104	-0.480024	-0.029783
C34	C	1.272831	-0.511730	-0.040243
C35	C	1.176157	-0.466131	-0.199893
C36	C	1.241754	-0.388822	-0.349093
C37	C	1.404026	-0.357116	-0.338633
H38	H	1.506670	-0.513783	0.088410
H39	H	1.224273	-0.568959	0.070206
H40	H	1.056033	-0.489602	-0.207636
H41	H	1.170188	-0.355064	-0.467286
H42	H	1.452585	-0.299887	-0.449082
C43	C	1.748057	-0.185494	0.337421
C44	C	1.764723	-0.043859	0.374606
C45	C	1.845544	-0.004858	0.542921
C46	C	1.909698	-0.107492	0.674052
C47	C	1.893034	-0.249136	0.636871
C48	C	1.812213	-0.288137	0.468556
H49	H	1.717230	0.032125	0.277532
H50	H	1.857880	0.099997	0.570444
H51	H	1.969527	-0.078621	0.798649
H52	H	1.940526	-0.325120	0.733945
H53	H	1.799877	-0.392991	0.441032
C54	C	1.508811	-0.158779	0.182832
C55	C	1.396136	-0.175764	0.033816
C56	C	1.237697	-0.110067	0.047537
C57	C	1.191932	-0.027386	0.210274
C58	C	1.304610	-0.010397	0.359302
C59	C	1.463049	-0.076093	0.345581
H60	H	1.430011	-0.236973	-0.086662
H61	H	1.154285	-0.122644	-0.062784
H62	H	1.074646	0.021247	0.220431
H63	H	1.270735	0.050812	0.479780
H64	H	1.546460	-0.063517	0.455902
H65	H	1.974083	-0.220807	-0.120930
H66	H	1.539023	-0.393438	0.168008
H67	H	1.548265	-0.177292	-0.174688
H68	H	1.719185	-0.411026	-0.294462
