data_functionalizedCrystal
_audit_creation_method	'MofGen! by Chris Wilmer'
_symmetry_space_group_name_H-M	'P1'
_symmetry_Int_Tables_number	1
_symmetry_cell_setting	triclinic
loop_
_symmetry_equiv_pos_as_xyz
  x,y,z
_cell_length_a	18.215407
_cell_length_b	16.625546
_cell_length_c	18.215399
_cell_angle_alpha	89.970405
_cell_angle_beta	89.980650
_cell_angle_gamma	90.022916
loop_
_atom_site_label
_atom_site_type_symbol
_atom_site_fract_x
_atom_site_fract_y
_atom_site_fract_z
Zn1	Zn	1.125081	-0.320997	-0.416110
Zn2	Zn	1.625081	0.179003	0.083890
Zn3	Zn	1.124995	-0.455838	-0.293041
Zn4	Zn	1.624995	0.044162	0.206959
Zn5	Zn	1.002014	-0.321024	-0.293057
Zn6	Zn	1.502014	0.178976	0.206943
Zn7	Zn	1.001984	-0.455792	-0.416066
Zn8	Zn	1.501984	0.044208	0.083934
O9	O	1.063519	-0.388413	-0.354568
O10	O	1.563519	0.111587	0.145432
O11	O	1.228054	-0.338892	-0.399796
O12	O	1.728054	0.161108	0.100204
O13	O	1.108659	-0.437985	-0.190059
O14	O	1.608659	0.062015	0.309941
O15	O	1.018388	-0.208188	-0.309405
O16	O	1.518388	0.291812	0.190595
O17	O	1.227991	-0.437959	-0.309378
O18	O	1.727991	0.062041	0.190622
O19	O	1.108804	-0.208168	-0.399812
O20	O	1.608804	0.291832	0.100188
O21	O	1.018305	-0.338938	-0.190070
O22	O	1.518305	0.161062	0.309930
O23	O	0.899026	-0.338894	-0.309363
O24	O	1.399026	0.161106	0.190637
O25	O	1.018337	-0.437881	-0.519056
O26	O	1.518337	0.062119	-0.019056
O27	O	0.899004	-0.437907	-0.399737
O28	O	1.399004	0.062093	0.100263
O29	O	1.108775	-0.338847	-0.519088
O30	O	1.608775	0.161153	-0.019088
O31	O	1.108629	-0.568664	-0.309335
O32	O	1.608629	-0.068664	0.190665
O33	O	1.018254	-0.568631	-0.399721
O34	O	1.518254	-0.068631	0.100279
C35	C	0.872313	-0.388399	-0.354547
C36	C	1.372313	0.111601	0.145453
C37	C	0.790514	-0.388413	-0.354556
C38	C	1.290514	0.111587	0.145444
C39	C	0.602327	-0.440050	-0.401554
C40	C	1.102327	0.059950	0.098446
C41	C	0.525469	-0.440053	-0.401563
C42	C	1.025469	0.059947	0.098437
C43	C	0.525462	-0.336790	-0.307598
C44	C	1.025462	0.163210	0.192402
C45	C	0.602319	-0.336784	-0.307593
C46	C	1.102319	0.163216	0.192407
C47	C	0.640750	-0.388419	-0.354570
C48	C	1.140750	0.111581	0.145430
C49	C	0.487034	-0.388427	-0.354584
C50	C	0.987034	0.111573	0.145416
C51	C	0.403700	-0.388430	-0.354594
C52	C	0.903700	0.111570	0.145406
C53	C	0.724089	-0.388416	-0.354562
C54	C	1.224089	0.111584	0.145438
C55	C	1.063449	-0.597904	-0.354537
C56	C	1.563449	-0.097904	0.145463
C57	C	1.063487	-0.687525	-0.354549
C58	C	1.563487	-0.187525	0.145451
C59	C	1.063615	-1.015700	-0.354625
C60	C	1.563615	-0.515700	0.145375
C61	C	1.063577	-0.924392	-0.354606
C62	C	1.563577	-0.424392	0.145394
C63	C	1.063550	-0.851616	-0.354587
C64	C	1.563550	-0.351616	0.145413
C65	C	1.063513	-0.760301	-0.354568
C66	C	1.563513	-0.260301	0.145432
C67	C	1.255472	-0.388427	-0.354590
C68	C	1.755472	0.111573	0.145410
C69	C	1.337271	-0.388433	-0.354599
C70	C	1.837271	0.111567	0.145401
C71	C	1.063562	-0.388356	-0.546521
C72	C	1.563562	0.111644	-0.046521
C73	C	1.063580	-0.388331	-0.628320
C74	C	1.563580	0.111669	-0.128320
C75	C	1.063609	-0.178104	-0.354615
C76	C	1.563609	0.321896	0.145385
C77	C	1.063647	-0.088483	-0.354635
C78	C	1.563647	0.411517	0.145365
C79	C	1.110699	-0.336695	-0.893396
C80	C	1.610699	0.163305	-0.393396
C81	C	1.110690	-0.336717	-0.816537
C82	C	1.610690	0.163283	-0.316537
C83	C	1.016522	-0.439851	-0.816493
C84	C	1.516522	0.060149	-0.316493
C85	C	1.016535	-0.439833	-0.893351
C86	C	1.516535	0.060167	-0.393351
C87	C	1.063622	-0.388250	-0.931800
C88	C	1.563622	0.111750	-0.431800
C89	C	1.063601	-0.388290	-0.778084
C90	C	1.563601	0.111710	-0.278084
C91	C	1.063591	-0.388314	-0.694750
C92	C	1.563591	0.111686	-0.194750
C93	C	1.063633	-0.388227	-1.015139
C94	C	1.563633	0.111773	-0.515139
C95	C	1.063518	-0.388412	-0.163362
C96	C	1.563518	0.111588	0.336638
C97	C	1.063642	-0.388209	-0.081563
C98	C	1.563642	0.111791	0.418437
H99	H	0.633616	-0.482092	-0.439808
H100	H	1.133616	0.017908	0.060192
Br101	Br	0.473326	-0.510123	-0.465334
Br102	Br	0.973326	-0.010123	0.034666
H103	H	1.149025	-0.294736	-0.785272
H104	H	1.649025	0.205264	-0.285272
H105	H	0.978199	-0.481819	-0.924620
H106	H	1.478199	0.018181	-0.424620
H107	H	0.494162	-0.294753	-0.269350
H108	H	0.994162	0.205247	0.230650
Br109	Br	0.654469	-0.266700	-0.243832
Br110	Br	1.154469	0.233300	0.256168
Br111	Br	1.174600	-0.266688	-0.945575
Br112	Br	1.674600	0.233312	-0.445575
Br113	Br	0.952616	-0.509848	-0.764307
Br114	Br	1.452616	-0.009848	-0.264307
