data_functionalizedCrystal
_audit_creation_method	'MofGen! by Chris Wilmer'
_symmetry_space_group_name_H-M	'P1'
_symmetry_Int_Tables_number	1
_symmetry_cell_setting	triclinic
loop_
_symmetry_equiv_pos_as_xyz
  x,y,z
_cell_length_a	14.044220
_cell_length_b	9.016244
_cell_length_c	10.540514
_cell_angle_alpha	89.999048
_cell_angle_beta	88.852019
_cell_angle_gamma	90.002597
loop_
_atom_site_label
_atom_site_type_symbol
_atom_site_fract_x
_atom_site_fract_y
_atom_site_fract_z
O1	O	1.259763	0.123163	0.306258
O2	O	0.983720	0.123201	0.295206
O3	O	1.128052	0.123183	0.116661
O4	O	1.115432	0.123181	0.484803
O5	O	1.128031	-0.123497	0.116664
O6	O	0.983699	-0.123479	0.295208
O7	O	1.259742	-0.123518	0.306260
Cu8	Cu	1.121719	-0.146022	0.300734
Cu9	Cu	1.121744	0.145706	0.300732
O10	O	1.115410	-0.123500	0.484805
C11	C	0.948363	-0.000134	0.290370
C12	C	0.843040	-0.000119	0.275940
N13	N	1.121708	-0.351209	0.300736
C14	C	0.650202	-0.000148	0.249559
C15	C	0.593255	-0.000155	0.351902
C16	C	0.485953	-0.000171	0.337223
C17	C	0.757514	-0.000132	0.264236
C18	C	1.044263	-0.586232	0.395875
C19	C	1.044434	-0.414340	0.396278
C20	C	1.220883	-0.413561	0.340896
C21	C	1.220460	-0.585506	0.341583
C22	C	1.100963	-0.585748	0.165199
C23	C	1.098687	-0.413793	0.165834
C24	C	1.295100	-0.000179	0.311097
C25	C	1.400422	-0.000184	0.325526
C26	C	1.127100	-0.000153	0.069264
C27	C	1.124284	-0.000142	-0.071970
N28	N	1.121762	0.350892	0.300721
C29	C	1.227508	-0.000160	-0.132240
C30	C	1.224613	-0.000729	-0.279146
C31	C	1.068133	-0.140739	-0.269980
C32	C	1.071760	-0.140847	-0.123074
C33	C	1.070257	0.139685	-0.122833
C34	C	1.069261	0.141523	-0.269912
C35	C	1.116362	-0.000160	0.532202
C36	C	1.119179	-0.000161	0.673437
H37	H	0.618372	-0.000156	0.150924
H38	H	1.030173	-0.629185	0.129362
C39	C	0.944884	-0.357385	0.361745
H40	H	0.903972	-0.439334	0.347348
H41	H	0.949582	-0.298646	0.287065
H42	H	0.919671	-0.299059	0.429542
C43	C	0.636246	-0.000136	0.485163
H44	H	0.586403	-0.000148	0.547445
H45	H	0.674422	0.085894	0.495122
H46	H	0.674427	-0.086163	0.495137
C47	C	1.062103	-0.644522	0.530654
H48	H	1.014971	-0.605994	0.587548
H49	H	1.123348	-0.613755	0.556825
H50	H	1.058986	-0.749776	0.530742
H51	H	0.970343	-0.627614	0.370549
H52	H	1.103138	-0.245767	-0.308996
C53	C	1.062499	-0.358748	0.531820
H54	H	1.069770	-0.441251	0.586848
H55	H	1.010046	-0.300268	0.560368
H56	H	1.118843	-0.300444	0.531867
H57	H	1.238652	-0.625598	0.440761
C58	C	1.300761	-0.641700	0.252307
H59	H	1.333502	-0.559439	0.215789
H60	H	1.274265	-0.700254	0.186927
H61	H	1.344068	-0.700052	0.299143
C62	C	1.300697	-0.358308	0.250411
H63	H	1.274183	-0.296568	0.187189
H64	H	1.331259	-0.440848	0.211135
H65	H	1.345884	-0.303389	0.297090
C66	C	1.246009	-0.355388	0.473448
H67	H	1.196197	-0.293120	0.504496
H68	H	1.303659	-0.300438	0.468017
H69	H	1.253652	-0.436731	0.529620
H70	H	1.104625	0.246273	-0.087864
H71	H	0.992413	0.150448	-0.301876
H72	H	1.025729	-0.373041	0.135617
C73	C	1.283243	-0.136158	-0.085785
H74	H	1.345529	-0.135313	-0.122643
H75	H	1.251229	-0.224200	-0.110063
H76	H	1.287370	-0.132845	0.004021
C77	C	0.967406	0.141553	-0.069379
H78	H	0.957401	0.057582	-0.016319
H79	H	0.924102	0.138686	-0.137419
H80	H	0.957275	0.229534	-0.021391
C81	C	1.169894	-0.355767	0.064522
H82	H	1.214799	-0.292337	0.103345
H83	H	1.136582	-0.302084	0.001820
H84	H	1.202254	-0.437099	0.025916
C85	C	1.177287	-0.640684	0.069356
H86	H	1.221618	-0.701937	0.111656
H87	H	1.209623	-0.557997	0.032938
H88	H	1.147704	-0.696045	0.004361
C89	C	1.278906	0.135312	-0.331313
H90	H	1.302932	0.191427	-0.262706
H91	H	1.236980	0.195176	-0.378983
H92	H	1.330337	0.103237	-0.384417
C93	C	1.284096	0.135998	-0.087970
H94	H	1.245282	0.194074	-0.032326
H95	H	1.302787	0.193887	-0.159533
H96	H	1.339127	0.104027	-0.044707
H97	H	1.264572	-0.102106	-0.316835
C98	C	0.969331	-0.148934	-0.068571
H99	H	0.925690	-0.152151	-0.136227
H100	H	0.956804	-0.063915	-0.017696
H101	H	0.962306	-0.235757	-0.018183
H102	H	1.109023	-0.246344	-0.091079
H103	H	0.990694	-0.145559	-0.300123
C104	C	1.119643	0.282024	-0.320211
H105	H	1.170883	0.254469	-0.375512
H106	H	1.143534	0.337224	-0.250995
H107	H	1.075592	0.341048	-0.365191
