data_functionalizedCrystal
_audit_creation_method	'MofGen! by Chris Wilmer'
_symmetry_space_group_name_H-M	'P1'
_symmetry_Int_Tables_number	1
_symmetry_cell_setting	triclinic
loop_
_symmetry_equiv_pos_as_xyz
  x,y,z
_cell_length_a	16.992695
_cell_length_b	10.654550
_cell_length_c	9.130313
_cell_angle_alpha	90.003780
_cell_angle_beta	89.998255
_cell_angle_gamma	92.423437
loop_
_atom_site_label
_atom_site_type_symbol
_atom_site_fract_x
_atom_site_fract_y
_atom_site_fract_z
O1	O	0.110186	-1.677356	-0.121922
O2	O	0.120685	-1.312785	-0.121899
O3	O	0.001285	-1.493609	-0.121899
O4	O	0.229586	-1.496532	-0.121922
O5	O	0.001288	-1.493607	0.121700
O6	O	0.120688	-1.312783	0.121700
O7	O	0.110190	-1.677354	0.121676
Cu8	Cu	0.115439	-1.495068	0.143931
Cu9	Cu	0.115435	-1.495071	-0.144153
O10	O	0.229589	-1.496530	0.121676
C11	C	0.119915	-1.265919	-0.000097
C12	C	0.117609	-1.126277	-0.000087
C13	C	-0.027947	-1.489848	-0.000100
C14	C	-0.115052	-1.478628	-0.000099
N15	N	0.115441	-1.495076	0.346553
C16	C	-0.164704	-1.586879	-0.000105
C17	C	-0.246548	-1.576330	-0.000118
C18	C	-0.278738	-1.457529	-0.000115
C19	C	-0.229080	-1.349270	-0.000114
C20	C	-0.147237	-1.359820	-0.000112
C21	C	-0.522574	-1.413802	-0.000133
C22	C	-0.604422	-1.403260	-0.000131
C23	C	-0.621884	-1.630321	-0.000137
C24	C	-0.540040	-1.640861	-0.000126
C25	C	-0.490389	-1.532602	-0.000132
N26	N	-0.362396	-1.446743	-0.000124
N27	N	-0.406733	-1.543389	-0.000134
C28	C	0.258821	-1.500291	-0.000126
C29	C	0.345926	-1.511510	-0.000136
C30	C	0.110959	-1.724220	-0.000129
C31	C	0.113265	-1.863862	-0.000148
C32	C	0.187910	-1.052866	-0.000116
C33	C	0.185738	-0.921658	-0.000141
C34	C	0.042959	-0.937282	-0.000115
C35	C	0.045131	-1.068488	-0.000080
C36	C	0.270342	-1.043844	-0.000137
C37	C	0.268171	-0.912636	-0.000162
N38	N	0.115427	-1.495073	-0.346776
C39	C	0.062589	-1.575168	0.423205
C40	C	0.062580	-1.575164	0.576542
C41	C	0.168281	-1.414971	0.576561
C42	C	0.168286	-1.414970	0.423227
C43	C	0.001565	-1.667658	0.423195
C44	C	0.001556	-1.667654	0.576532
H45	H	-0.138501	-1.683620	-0.000098
H46	H	-0.286971	-1.664480	-0.000119
H47	H	-0.016050	-0.890215	-0.000131
Cl48	Cl	0.320121	-1.093439	0.157253
Cl49	Cl	-0.499578	-1.790217	-0.000176
H50	H	0.296589	-1.081769	-0.105312
H51	H	0.211316	-1.349741	0.360819
H52	H	0.014998	-1.765327	0.618141
Cl53	Cl	-0.684307	-1.766408	-0.000133
Cl54	Cl	-0.644889	-1.253898	-0.000119
Cl55	Cl	-0.460166	-1.277703	-0.000145
H56	H	0.020673	-1.760493	0.375629
Cl57	Cl	0.306636	-0.845434	0.162197
H58	H	-0.055428	-1.632216	0.624087
Cl59	Cl	0.316118	-0.852339	-0.157570
Cl60	Cl	-0.091530	-1.626506	0.358937
Cl61	Cl	-0.269548	-1.199919	-0.000129
Cl62	Cl	-0.043250	-1.160773	-0.000010
H63	H	-0.106811	-1.271671	-0.000107
Cl64	Cl	0.234712	-1.314272	0.672961
