data_functionalizedCrystal
_audit_creation_method	'MofGen! by Chris Wilmer'
_symmetry_space_group_name_H-M	'P1'
_symmetry_Int_Tables_number	1
_symmetry_cell_setting	triclinic
loop_
_symmetry_equiv_pos_as_xyz
  x,y,z
_cell_length_a	10.540491
_cell_length_b	9.130307
_cell_length_c	10.540535
_cell_angle_alpha	90.004273
_cell_angle_beta	95.485345
_cell_angle_gamma	89.996958
loop_
_atom_site_label
_atom_site_type_symbol
_atom_site_fract_x
_atom_site_fract_y
_atom_site_fract_z
O1	O	-1.685919	0.121790	0.178605
O2	O	-1.316497	0.121797	0.195525
O3	O	-1.509639	0.121779	0.002356
O4	O	-1.492777	0.121809	0.371773
O5	O	-1.509625	-0.121820	0.002357
O6	O	-1.316484	-0.121802	0.195525
O7	O	-1.685905	-0.121809	0.178605
Cu8	Cu	-1.501193	-0.144048	0.187065
Cu9	Cu	-1.501209	0.144036	0.187065
O10	O	-1.492763	-0.121790	0.371773
C11	C	-1.269187	-0.000002	0.194269
C12	C	-1.128236	0.000000	0.190512
N13	N	-1.501191	-0.346671	0.187064
C14	C	-0.910776	0.000573	0.324711
C15	C	-1.057373	0.000014	0.328719
C16	C	-1.083469	-0.139109	0.119768
C17	C	-0.936707	-0.139214	0.116739
C18	C	-0.936916	0.137803	0.113861
C19	C	-1.083258	0.139631	0.120406
C20	C	-0.733214	-0.000003	0.179877
C21	C	-0.874158	0.000015	0.183685
C22	C	-1.672319	-0.653316	0.016055
C23	C	-1.757856	-0.576637	-0.069449
C24	C	-1.757840	-0.423304	-0.069452
C25	C	-1.672280	-0.346646	0.016060
C26	C	-1.586744	-0.423325	0.101564
C27	C	-1.586766	-0.576662	0.101555
C28	C	-1.415654	-0.423350	0.272568
C29	C	-1.415662	-0.576683	0.272568
C30	C	-1.330095	-0.346692	0.358081
C31	C	-1.244550	-0.423371	0.443580
C32	C	-1.244568	-0.576714	0.443579
C33	C	-1.330125	-0.653362	0.358071
C34	C	-1.508369	-0.000021	-0.044946
C35	C	-1.504589	-0.000023	-0.185894
N36	N	-1.501221	0.346659	0.187055
C37	C	-1.363572	-0.000010	-0.222540
C38	C	-1.359595	0.000569	-0.369140
C39	C	-1.568969	0.138845	-0.395230
C40	C	-1.571970	0.138936	-0.248465
C41	C	-1.574005	-0.138092	-0.248604
C42	C	-1.567483	-0.139890	-0.394949
C43	C	-1.494033	0.000013	0.419076
C44	C	-1.497813	0.000025	0.560024
H45	H	-0.868827	0.100338	0.378555
H46	H	-1.310333	0.099397	-0.179066
O47	O	-1.672277	-0.181264	0.016064
H48	H	-1.598420	-0.140842	0.089891
H49	H	-1.174899	-0.360947	0.513204
H50	H	-1.303935	-0.098915	-0.398474
H51	H	-1.330091	-0.221840	0.358080
H52	H	-1.114317	-0.242626	0.168898
H53	H	-1.672330	-0.778168	0.016038
O54	O	-1.096265	0.132071	0.402070
H55	H	-1.162642	0.200776	0.339324
H56	H	-0.867262	-0.098615	0.378246
O57	O	-1.504351	0.276258	-0.436126
H58	H	-1.404131	0.278051	-0.392871
O59	O	-1.152332	-0.659419	0.535824
H60	H	-1.092845	-0.580348	0.595281
O61	O	-1.850082	-0.340610	-0.161699
H62	H	-1.796059	-0.270781	-0.223895
H63	H	-1.677755	-0.139447	-0.226426
H64	H	-1.309414	-0.099552	-0.180569
O65	O	-0.880718	0.277486	0.171709
H66	H	-0.897747	0.282404	0.273923
H67	H	-1.515703	-0.242592	-0.423554
O68	O	-1.330156	-0.818744	0.358068
H69	H	-1.256303	-0.859191	0.431886
O70	O	-1.095027	-0.132395	0.402315
H71	H	-1.008478	-0.196274	0.435184
H72	H	-1.668365	-0.148693	-0.444002
H73	H	-1.304236	0.100680	-0.397576
O74	O	-1.850140	-0.659310	-0.161677
H75	H	-1.796162	-0.729177	-0.223896
O76	O	-1.508316	0.276905	-0.195213
H77	H	-1.475680	0.342929	-0.274322
H78	H	-1.670737	0.143617	-0.442604
O79	O	-0.883408	-0.276930	0.180798
H80	H	-0.962492	-0.342821	0.213648
O81	O	-1.515706	-0.277529	-0.192372
H82	H	-1.589422	-0.341203	-0.147830
O83	O	-0.906230	-0.147617	-0.020171
H84	H	-0.996285	-0.151598	-0.083925
H85	H	-1.132329	0.148023	0.019505
O86	O	-1.708901	0.146767	-0.217976
H87	H	-1.712068	0.146880	-0.113023
O88	O	-1.146258	-0.146011	-0.014998
H89	H	-1.210193	-0.050138	-0.033026
H90	H	-1.111882	0.242543	0.171878
H91	H	-0.914764	0.138735	0.010100
