data_functionalizedCrystal
_audit_creation_method	'MofGen! by Chris Wilmer'
_symmetry_space_group_name_H-M	'P1'
_symmetry_Int_Tables_number	1
_symmetry_cell_setting	triclinic
loop_
_symmetry_equiv_pos_as_xyz
  x,y,z
_cell_length_a	14.853558
_cell_length_b	17.000371
_cell_length_c	13.930277
_cell_angle_alpha	89.994777
_cell_angle_beta	89.993309
_cell_angle_gamma	79.615191
loop_
_atom_site_label
_atom_site_type_symbol
_atom_site_fract_x
_atom_site_fract_y
_atom_site_fract_z
O1	O	1.187992	0.103873	-0.079820
O2	O	1.687992	0.603873	0.420180
O3	O	0.924532	0.116258	-0.079824
O4	O	1.424532	0.616258	0.420176
O5	O	1.072621	-0.005783	-0.079815
O6	O	1.572621	0.494217	0.420185
O7	O	1.039903	0.225914	-0.079829
O8	O	1.539903	0.725914	0.420171
O9	O	1.072602	-0.005786	0.079847
O10	O	1.572602	0.494214	0.579847
O11	O	0.924513	0.116256	0.079838
O12	O	1.424513	0.616256	0.579838
O13	O	1.187973	0.103870	0.079842
O14	O	1.687973	0.603870	0.579842
Zn15	Zn	1.056240	0.110062	0.105190
Zn16	Zn	1.556240	0.610062	0.605190
Zn17	Zn	1.056265	0.110066	-0.105172
Zn18	Zn	1.556265	0.610066	0.394828
O19	O	1.039884	0.225911	0.079833
O20	O	1.539884	0.725911	0.579833
C21	C	0.890979	0.115697	0.000006
C22	C	1.390979	0.615697	0.500006
C23	C	0.791030	0.114019	0.000005
C24	C	1.291030	0.614019	0.500005
C25	C	0.744084	0.113234	-0.087031
C26	C	1.244084	0.613234	0.412969
C27	C	0.744062	0.113222	0.087039
C28	C	1.244062	0.613222	0.587039
C29	C	0.650156	0.111641	0.087040
C30	C	1.150156	0.611641	0.587040
C31	C	0.603210	0.110856	0.000005
C32	C	1.103210	0.610856	0.500005
C33	C	0.650169	0.111651	-0.087032
C34	C	1.150169	0.611651	0.412968
C35	C	0.603191	0.110838	0.174076
C36	C	1.103191	0.610838	0.674076
C37	C	0.509279	0.109256	0.174081
C38	C	1.009279	0.609256	0.674081
C39	C	0.462330	0.108476	0.087045
C40	C	0.962330	0.608476	0.587045
C41	C	0.509295	0.109272	0.000004
C42	C	1.009295	0.609272	0.500004
C43	C	0.462349	0.108487	-0.087031
C44	C	0.962349	0.608487	0.412969
C45	C	0.509311	0.109289	-0.174073
C46	C	1.009311	0.609289	0.325927
C47	C	0.603220	0.110871	-0.174068
C48	C	1.103220	0.610871	0.325932
C49	C	0.368421	0.106894	0.087040
C50	C	0.868421	0.606894	0.587040
C51	C	0.368435	0.106904	-0.087032
C52	C	0.868435	0.606904	0.412968
C53	C	1.074368	-0.035437	0.000016
C54	C	1.574368	0.464563	0.500016
C55	C	1.079594	-0.123790	0.000015
C56	C	1.579594	0.376210	0.500015
C57	C	0.999179	-0.155902	0.000009
C58	C	1.499179	0.344098	0.500009
C59	C	1.004094	-0.238919	0.000012
C60	C	1.504094	0.261081	0.500012
C61	C	1.089426	-0.289823	0.000013
C62	C	1.589426	0.210177	0.500013
C63	C	1.169847	-0.257706	0.000022
C64	C	1.669847	0.242294	0.500022
C65	C	1.164930	-0.174690	0.000026
C66	C	1.664930	0.325310	0.500026
C67	C	1.108415	-0.540949	0.000007
C68	C	1.608415	-0.040949	0.500007
C69	C	1.113326	-0.623970	0.000000
C70	C	1.613326	-0.123970	0.500000
C71	C	0.947573	-0.605178	-0.000008
C72	C	1.447573	-0.105178	0.499992
C73	C	0.942664	-0.522161	-0.000010
C74	C	1.442664	-0.022161	0.499990
C75	C	1.023085	-0.490051	0.000004
C76	C	1.523085	0.009949	0.500004
C77	C	1.094452	-0.374681	0.000013
C78	C	1.594452	0.125319	0.500013
C79	C	1.018058	-0.405194	0.000011
C80	C	1.518058	0.094806	0.500011
C81	C	1.221526	0.104431	0.000010
C82	C	1.721526	0.604431	0.500010
C83	C	1.321475	0.106109	0.000005
C84	C	1.821475	0.606109	0.500005
C85	C	1.038136	0.255565	0.000000
C86	C	1.538136	0.755565	0.500000
C87	C	1.032911	0.343918	-0.000005
C88	C	1.532911	0.843918	0.499995
N89	N	1.056229	0.110059	0.248756
N90	N	1.556229	0.610059	0.748756
N91	N	1.056283	0.110062	-0.248738
N92	N	1.556283	0.610062	0.251262
C93	C	0.990691	0.164085	0.701021
C94	C	1.490691	0.664085	1.201021
C95	C	1.121865	0.056041	0.700999
C96	C	1.621865	0.556041	1.200999
C97	C	1.121854	0.056038	0.600503
C98	C	1.621854	0.556038	1.100503
C99	C	1.056262	0.110061	0.550261
C100	C	1.556262	0.610061	1.050261
C101	C	0.990680	0.164085	0.600516
C102	C	1.490680	0.664085	1.100516
C103	C	1.187441	0.002020	0.550241
C104	C	1.687441	0.502020	1.050241
C105	C	1.187433	0.002016	0.449739
C106	C	1.687433	0.502016	0.949739
C107	C	1.121836	0.056035	0.399496
C108	C	1.621836	0.556035	0.899496
C109	C	1.056251	0.110061	0.449756
C110	C	1.556251	0.610061	0.949756
C111	C	0.990658	0.164083	0.399515
C112	C	1.490658	0.664083	0.899515
C113	C	0.925068	0.218107	0.449774
C114	C	1.425068	0.718107	0.949774
C115	C	0.925082	0.218104	0.550273
C116	C	1.425082	0.718104	1.050273
C117	C	1.121822	0.056037	0.298997
C118	C	1.621822	0.556037	0.798997
C119	C	0.990647	0.164084	0.299010
C120	C	1.490647	0.664084	0.799010
H121	H	0.641465	0.111523	-0.244932
H122	H	1.141465	0.611523	0.255068
H123	H	0.882099	-0.631331	-0.000017
H124	H	1.382099	-0.131331	0.499983
O125	O	1.258165	-0.056260	0.395540
O126	O	1.758165	0.443740	0.895540
H127	H	1.247140	-0.047187	0.317216
H128	H	1.747140	0.452813	0.817216
H129	H	0.948582	-0.363745	0.000016
H130	H	1.448582	0.136255	0.500016
H131	H	0.330187	0.106249	0.157908
H132	H	0.830187	0.606249	0.657908
H133	H	0.782324	0.113890	-0.157898
H134	H	1.282324	0.613890	0.342102
H135	H	0.782293	0.113855	0.157899
H136	H	1.282293	0.613855	0.657899
O137	O	0.653831	0.111672	0.267942
O138	O	1.153831	0.611672	0.767942
H139	H	0.605404	0.110837	0.328465
H140	H	1.105404	0.610837	0.828465
H141	H	0.873178	-0.480719	-0.000014
H142	H	1.373178	0.019281	0.499986
H143	H	1.240848	-0.041960	0.591151
H144	H	1.740848	0.458040	1.091151
O145	O	1.192541	-0.002227	0.244775
O146	O	1.692541	0.497773	0.744775
H147	H	1.262013	0.008015	0.264034
H148	H	1.762013	0.508015	0.764034
O149	O	0.907141	-0.101001	0.000006
O150	O	1.407141	0.398999	0.500006
H151	H	0.900935	-0.062732	0.065081
H152	H	1.400935	0.437268	0.565081
O153	O	1.251665	-0.140053	0.000019
O154	O	1.751665	0.359947	0.500019
H155	H	1.292347	-0.160502	0.065089
H156	H	1.792347	0.339498	0.565089
H157	H	0.471076	0.108645	-0.244937
H158	H	0.971076	0.608645	0.255063
H159	H	1.173900	-0.514816	0.000016
H160	H	1.673900	-0.014816	0.500016
H161	H	0.938612	-0.265060	0.000000
H162	H	1.438612	0.234940	0.500000
O163	O	1.205365	-0.678880	0.000011
O164	O	1.705365	-0.178880	0.500011
H165	H	1.260462	-0.642606	0.000031
H166	H	1.760462	-0.142606	0.500031
O167	O	0.919957	0.222354	0.755227
O168	O	1.419957	0.722354	1.255227
H169	H	0.926523	0.284414	0.735921
H170	H	1.426523	0.784414	1.235921
H171	H	0.871666	0.262096	0.408856
H172	H	1.371666	0.762096	0.908856
H173	H	1.163929	-0.416136	0.000013
H174	H	1.663929	0.083864	0.500013
H175	H	0.937231	0.208073	0.258110
H176	H	1.437231	0.708073	0.758110
O177	O	0.317804	0.106037	-0.180907
O178	O	0.817804	0.606037	0.319093
H179	H	0.366241	0.106849	-0.241426
H180	H	0.866241	0.606849	0.258574
H181	H	1.239325	-0.299159	0.000029
H182	H	1.739325	0.200841	0.500029
H183	H	0.471051	0.108602	0.244955
H184	H	0.971051	0.608602	0.744955
H185	H	0.871682	0.262089	0.591200
H186	H	1.371682	0.762089	1.091200
O187	O	1.192610	-0.002224	0.755180
O188	O	1.692610	0.497776	1.255180
H189	H	1.181597	0.006850	0.833507
H190	H	1.681597	0.506850	1.333507
