data_functionalizedCrystal
_audit_creation_method	'MofGen! by Chris Wilmer'
_symmetry_space_group_name_H-M	'P1'
_symmetry_Int_Tables_number	1
_symmetry_cell_setting	triclinic
loop_
_symmetry_equiv_pos_as_xyz
  x,y,z
_cell_length_a	18.215405
_cell_length_b	17.077404
_cell_length_c	17.077396
_cell_angle_alpha	90.019501
_cell_angle_beta	90.031591
_cell_angle_gamma	90.025110
loop_
_atom_site_label
_atom_site_type_symbol
_atom_site_fract_x
_atom_site_fract_y
_atom_site_fract_z
Zn1	Zn	-0.292980	1.200044	0.443826
Zn2	Zn	0.207020	1.700044	0.943826
Zn3	Zn	-0.416053	1.199946	0.312553
Zn4	Zn	0.083947	1.699946	0.812553
Zn5	Zn	-0.293006	1.068776	0.312574
Zn6	Zn	0.206994	1.568776	0.812574
Zn7	Zn	-0.416010	1.068739	0.443776
Zn8	Zn	0.083990	1.568739	0.943776
O9	O	-0.354512	1.134376	0.378182
O10	O	0.145488	1.634376	0.878182
O11	O	-0.309313	1.309878	0.426424
O12	O	0.190687	1.809878	0.926424
O13	O	-0.399760	1.182521	0.202708
O14	O	0.100240	1.682521	0.702708
O15	O	-0.190018	1.086245	0.330014
O16	O	0.309982	1.586245	0.830014
O17	O	-0.399735	1.309806	0.329978
O18	O	0.100265	1.809806	0.829978
O19	O	-0.189999	1.182687	0.426444
O20	O	0.310001	1.682687	0.926444
O21	O	-0.309357	1.086150	0.202724
O22	O	0.190643	1.586150	0.702724
O23	O	-0.309315	0.958924	0.329966
O24	O	0.190685	1.458924	0.829966
O25	O	-0.399660	1.086182	0.553630
O26	O	0.100340	1.586182	1.053630
O27	O	-0.399685	0.958897	0.426360
O28	O	0.100315	1.458897	0.926360
O29	O	-0.309271	1.182651	0.553666
O30	O	0.190729	1.682651	1.053666
O31	O	-0.519032	1.182485	0.329930
O32	O	-0.019032	1.682485	0.829930
O33	O	-0.519000	1.086088	0.426340
O34	O	-0.019000	1.586088	0.926340
C35	C	-0.354499	0.930428	0.378160
C36	C	0.145501	1.430428	0.878160
C37	C	-0.354511	0.843178	0.378170
C38	C	0.145489	1.343178	0.878170
C39	C	-0.545718	1.134293	0.378144
C40	C	-0.045718	1.634293	0.878144
C41	C	-0.627517	1.134330	0.378154
C42	C	-0.127517	1.634330	0.878154
C43	C	-0.401638	0.802195	0.428282
C44	C	0.098362	1.302195	0.928282
C45	C	-0.401639	0.720214	0.428294
C46	C	0.098361	1.220214	0.928294
C47	C	-0.354517	0.679219	0.378190
C48	C	0.145483	1.179219	0.878190
C49	C	-0.307385	0.720208	0.328076
C50	C	0.192615	1.220208	0.828076
C51	C	-0.307380	0.802187	0.328068
C52	C	0.192620	1.302187	0.828068
C53	C	-0.307400	0.549338	0.328095
C54	C	0.192600	1.049338	0.828095
C55	C	-0.307405	0.467354	0.328102
C56	C	0.192595	0.967354	0.828102
C57	C	-0.401659	0.467365	0.428321
C58	C	0.098341	0.967365	0.928321
C59	C	-0.401654	0.549344	0.428313
C60	C	0.098346	1.049344	0.928313
C61	C	-0.354522	0.590328	0.378198
C62	C	0.145478	1.090328	0.878198
C63	C	-0.815703	1.184642	0.328046
C64	C	-0.315703	1.684642	0.828046
C65	C	-0.892562	1.184677	0.328065
C66	C	-0.392562	1.684677	0.828065
C67	C	-0.892569	1.084211	0.428374
C68	C	-0.392569	1.584211	0.928374
C69	C	-0.815711	1.084180	0.428359
C70	C	-0.315711	1.584180	0.928359
C71	C	-0.777281	1.134395	0.378190
C72	C	-0.277281	1.634395	0.878190
C73	C	-0.930997	1.134460	0.378225
C74	C	-0.430997	1.634460	0.878225
C75	C	-1.014330	1.134498	0.378246
C76	C	-0.514330	1.634498	0.878246
C77	C	-0.693942	1.134358	0.378170
C78	C	-0.193942	1.634358	0.878170
C79	C	-0.162559	1.134481	0.378237
C80	C	0.337441	1.634481	0.878237
C81	C	-0.080760	1.134525	0.378261
C82	C	0.419240	1.634525	0.878261
C83	C	-0.354458	1.134424	0.582926
C84	C	0.145542	1.634424	1.082926
C85	C	-0.354435	1.134444	0.670176
C86	C	0.145565	1.634444	1.170176
C87	C	-0.354526	1.339120	0.378204
C88	C	0.145474	1.839120	0.878204
C89	C	-0.354532	1.426370	0.378214
C90	C	0.145468	1.926370	0.878214
C91	C	-0.354513	1.134374	0.174234
C92	C	0.145487	1.634374	0.674234
C93	C	-0.354329	1.134506	0.086985
C94	C	0.145671	1.634506	0.586985
C95	C	-0.307365	1.184677	0.711187
C96	C	0.192635	1.684677	1.211187
C97	C	-0.307341	1.184687	0.793167
C98	C	0.192659	1.684687	1.293167
C99	C	-0.354390	1.134466	0.834136
C100	C	0.145610	1.634466	1.334136
C101	C	-0.401462	1.084227	0.793120
C102	C	0.098538	1.584227	1.293120
C103	C	-0.401482	1.084214	0.711141
C104	C	0.098518	1.584214	1.211141
C105	C	-0.401418	1.084259	0.963990
C106	C	0.098582	1.584259	1.463990
C107	C	-0.401399	1.084273	1.045974
C108	C	0.098601	1.584273	1.545974
C109	C	-0.307276	1.184731	1.046016
C110	C	0.192724	1.684731	1.546016
C111	C	-0.307296	1.184718	0.964037
C112	C	0.192704	1.684718	1.464037
C113	C	-0.354369	1.134480	0.923027
C114	C	0.145631	1.634480	1.423027
H115	H	-0.440013	0.835567	0.469079
H116	H	0.059987	1.335567	0.969079
Cl117	Cl	-0.460608	1.021090	0.844623
Cl118	Cl	0.039392	1.521090	1.344623
Cl119	Cl	-0.248197	1.247875	0.844720
Cl120	Cl	0.251803	1.747875	1.344720
H121	H	-0.440032	0.433993	0.469129
H122	H	0.059968	0.933993	0.969129
H123	H	-0.269001	0.835555	0.287266
H124	H	0.230999	1.335555	0.787266
H125	H	-0.784426	1.043263	0.469195
H126	H	-0.284426	1.543263	0.969195
Cl127	Cl	-0.248217	1.247819	0.659691
Cl128	Cl	0.251783	1.747819	1.159691
Cl129	Cl	-0.940862	1.247849	0.265027
Cl130	Cl	-0.440862	1.747849	0.765027
Cl131	Cl	-0.248152	1.247858	0.912535
Cl132	Cl	0.251848	1.747858	1.412535
H133	H	-0.268946	1.225635	1.079411
H134	H	0.231054	1.725635	1.579411
H135	H	-0.784415	1.225530	0.287197
H136	H	-0.284415	1.725530	0.787197
H137	H	-0.440029	0.582721	0.469108
H138	H	0.059971	1.082721	0.969108
H139	H	-0.269014	0.686823	0.287284
H140	H	0.230986	1.186823	0.787284
Cl141	Cl	-0.460656	1.021059	0.659584
Cl142	Cl	0.039344	1.521059	1.159584
H143	H	-0.439709	1.043377	1.079329
H144	H	0.060291	1.543377	1.579329
H145	H	-0.440016	0.686849	0.469099
H146	H	0.059984	1.186849	0.969099
H147	H	-0.269025	0.433978	0.287312
H148	H	0.230975	0.933978	0.787312
H149	H	-0.923868	1.043327	0.469218
H150	H	-0.423868	1.543327	0.969218
H151	H	-0.439738	1.043338	0.930602
H152	H	0.060262	1.543338	1.430602
H153	H	-0.269014	0.582705	0.287293
H154	H	0.230986	1.082705	0.787293
