data_functionalizedCrystal
_audit_creation_method	'MofGen! by Chris Wilmer'
_symmetry_space_group_name_H-M	'P1'
_symmetry_Int_Tables_number	1
_symmetry_cell_setting	triclinic
loop_
_symmetry_equiv_pos_as_xyz
  x,y,z
_cell_length_a	14.519709
_cell_length_b	11.026607
_cell_length_c	10.065875
_cell_angle_alpha	79.268236
_cell_angle_beta	98.757930
_cell_angle_gamma	96.133081
loop_
_atom_site_label
_atom_site_type_symbol
_atom_site_fract_x
_atom_site_fract_y
_atom_site_fract_z
O1	O	-1.260605	-0.141346	-0.113307
O2	O	-0.927272	0.191987	0.220027
O3	O	-0.593938	0.525320	0.553360
O4	O	-0.995219	-0.160080	-0.113348
O5	O	-0.661886	0.173254	0.219986
O6	O	-0.328553	0.506587	0.553319
O7	O	-1.105917	0.025988	-0.113326
O8	O	-0.772583	0.359321	0.220008
O9	O	-0.439250	0.692654	0.553341
O10	O	-1.149907	-0.327413	-0.113329
O11	O	-0.816574	0.005920	0.220005
O12	O	-0.483241	0.339253	0.553338
O13	O	-1.084832	-0.009635	0.113659
O14	O	-0.751499	0.323698	0.446992
O15	O	-0.418165	0.657031	0.780326
O16	O	-0.974135	-0.195703	0.113637
O17	O	-0.640801	0.137631	0.446970
O18	O	-0.307468	0.470964	0.780304
O19	O	-1.239520	-0.176969	0.113678
O20	O	-0.906187	0.156364	0.447011
O21	O	-0.572853	0.489697	0.780344
Zn22	Zn	-1.103480	-0.191992	0.149696
Zn23	Zn	-0.770146	0.141341	0.483029
Zn24	Zn	-0.436813	0.474675	0.816363
Zn25	Zn	-1.131260	-0.145057	-0.149366
Zn26	Zn	-0.797926	0.188276	0.183967
Zn27	Zn	-0.464593	0.521610	0.517301
O28	O	-1.128823	-0.363037	0.113656
O29	O	-0.795489	-0.029703	0.446989
O30	O	-0.462156	0.303630	0.780322
C31	C	-0.950174	-0.177017	0.000139
C32	C	-0.616840	0.156316	0.333473
C33	C	-0.283507	0.489650	0.666806
C34	C	-0.847363	-0.174397	0.000123
C35	C	-0.514029	0.158936	0.333457
C36	C	-0.180696	0.492269	0.666790
C37	C	-1.087259	0.053405	0.000164
C38	C	-0.753926	0.386738	0.333497
C39	C	-0.420592	0.720072	0.666830
C40	C	-1.063067	0.188173	0.000155
C41	C	-0.729734	0.521506	0.333488
C42	C	-0.396401	0.854840	0.666822
C43	C	-1.284566	-0.160032	0.000188
C44	C	-0.951233	0.173302	0.333521
C45	C	-0.617899	0.506635	0.666854
C46	C	-1.387378	-0.162650	0.000195
C47	C	-1.054044	0.170684	0.333528
C48	C	-0.720711	0.504017	0.666861
C49	C	-0.470874	-0.164772	0.000186
C50	C	-0.137540	0.168561	0.333519
C51	C	0.195793	0.501894	0.666852
C52	C	-0.575624	-0.167445	0.000168
C53	C	-0.242291	0.165888	0.333501
C54	C	0.091043	0.499222	0.666835
C55	C	-0.659115	-0.169584	0.000153
C56	C	-0.325782	0.163749	0.333487
C57	C	0.007552	0.497082	0.666820
C58	C	-0.763872	-0.172258	0.000138
C59	C	-0.430539	0.161075	0.333471
C60	C	-0.097205	0.494408	0.666805
C61	C	-1.147480	-0.390453	0.000163
C62	C	-0.814147	-0.057120	0.333497
C63	C	-0.480814	0.276213	0.666830
C64	C	-1.171673	-0.525220	0.000163
C65	C	-0.838340	-0.191887	0.333496
C66	C	-0.505006	0.141447	0.666830
N67	N	-1.084527	-0.224023	0.353798
N68	N	-0.751194	0.109310	0.687131
N69	N	-0.417860	0.442644	1.020465
C70	C	-1.129866	0.261832	0.000163
C71	C	-0.796533	0.595166	0.333497
C72	C	-0.463199	0.928499	0.666830
C73	C	-1.104865	0.401122	0.000155
C74	C	-0.771531	0.734456	0.333488
C75	C	-0.438198	1.067789	0.666821
N76	N	-1.150218	-0.113016	-0.353468
N77	N	-0.816885	0.220317	-0.020134
N78	N	-0.483551	0.553650	0.313199
C79	C	-1.124658	-0.156194	0.421585
C80	C	-0.791325	0.177139	0.754918
C81	C	-0.457992	0.510473	1.088251
C82	C	-1.110081	-0.180855	0.578749
C83	C	-0.776747	0.152478	0.912082
C84	C	-0.443414	0.485811	1.245416
H85	H	-1.205564	0.221773	0.000184
H86	H	-0.872230	0.555107	0.333517
H87	H	-0.538897	0.888440	0.666850
H88	H	-1.169805	-0.079860	0.363269
H89	H	-0.836472	0.253473	0.696603
H90	H	-0.503138	0.586806	1.029936
H91	H	-1.029162	0.441175	0.000134
H92	H	-0.695829	0.774509	0.333467
H93	H	-0.362495	1.107842	0.666801
H94	H	-0.987370	0.228232	0.000135
H95	H	-0.654037	0.561565	0.333468
H96	H	-0.320703	0.894898	0.666801
H97	H	-1.247386	0.434746	0.000072
H98	H	-0.914053	0.768079	0.333405
H99	H	-0.580719	1.101413	0.666739
H100	H	-1.064923	-0.257185	0.637061
H101	H	-0.731590	0.076149	0.970394
H102	H	-0.398257	0.409482	1.303728
H103	H	-1.195367	-0.036678	0.588220
H104	H	-0.862034	0.296655	0.921554
H105	H	-0.528701	0.629989	1.254887
H106	H	-1.039372	-0.300348	0.412115
H107	H	-0.706039	0.032986	0.745448
H108	H	-0.372706	0.366319	1.078782
