data_functionalizedCrystal
_audit_creation_method	'MofGen! by Chris Wilmer'
_symmetry_space_group_name_H-M	'P1'
_symmetry_Int_Tables_number	1
_symmetry_cell_setting	triclinic
loop_
_symmetry_equiv_pos_as_xyz
  x,y,z
_cell_length_a	10.654550
_cell_length_b	14.519709
_cell_length_c	9.130313
_cell_angle_alpha	89.997798
_cell_angle_beta	89.996220
_cell_angle_gamma	84.082524
loop_
_atom_site_label
_atom_site_type_symbol
_atom_site_fract_x
_atom_site_fract_y
_atom_site_fract_z
O1	O	1.666589	0.129528	-0.121923
O2	O	1.300991	0.141869	-0.121900
O3	O	1.493483	0.001510	-0.121899
O4	O	1.474097	0.269887	-0.121924
O5	O	1.493481	0.001514	0.121700
O6	O	1.300989	0.141873	0.121699
O7	O	1.666586	0.129532	0.121676
Cu8	Cu	1.483787	0.135703	0.143930
Cu9	Cu	1.483790	0.135698	-0.144154
O10	O	1.474094	0.269891	0.121675
C11	C	1.254201	0.140965	-0.000098
C12	C	1.114784	0.138254	-0.000088
C13	C	1.034504	0.220895	-0.000117
C14	C	0.903507	0.218342	-0.000143
C15	C	0.933085	0.050500	-0.000116
C16	C	1.064078	0.053054	-0.000080
C17	C	1.017426	0.317797	-0.000139
C18	C	0.886430	0.315244	-0.000164
C19	C	1.492579	-0.032852	-0.000099
C20	C	1.489871	-0.135247	-0.000098
C21	C	1.479904	-0.510195	-0.000136
C22	C	1.482672	-0.405873	-0.000125
C23	C	1.484887	-0.322725	-0.000116
C24	C	1.487656	-0.218396	-0.000108
C25	C	1.713377	0.130436	-0.000130
C26	C	1.852794	0.133147	-0.000149
C27	C	1.474999	0.304253	-0.000128
C28	C	1.477707	0.406648	-0.000139
N29	N	1.483795	0.135705	0.346552
N30	N	1.483793	0.135688	-0.346777
C31	C	1.569052	0.073576	0.423205
C32	C	1.569048	0.073565	0.576542
C33	C	1.398527	0.197821	0.576560
C34	C	1.398525	0.197827	0.423226
C35	C	1.667505	0.001840	0.423195
C36	C	1.667502	0.001829	0.576532
H37	H	0.840476	0.344531	0.105001
C38	C	1.304752	0.266171	0.338906
H39	H	1.316957	0.257278	0.236604
H40	H	1.318524	0.327813	0.364045
H41	H	1.220914	0.255578	0.364034
C42	C	1.627154	-0.088656	0.640795
H43	H	1.628517	-0.085573	0.744712
H44	H	1.683825	-0.139431	0.608665
H45	H	1.544205	-0.096774	0.608672
C46	C	1.065206	0.359505	-0.142190
H47	H	1.154225	0.359853	-0.137320
H48	H	1.026804	0.421103	-0.153414
H49	H	1.044082	0.323281	-0.223471
C50	C	0.877309	-0.043215	-0.000115
H51	H	0.943886	-0.092067	-0.000084
H52	H	0.826841	-0.047704	-0.085072
H53	H	0.826808	-0.047696	0.084835
C54	C	1.304716	0.266136	0.660899
H55	H	1.253927	0.303130	0.593282
H56	H	1.349943	0.304840	0.720734
H57	H	1.252376	0.232573	0.720694
C58	C	1.056565	0.369004	0.137566
H59	H	0.983770	0.388322	0.194186
H60	H	1.096843	0.421625	0.109242
H61	H	1.113216	0.328648	0.194239
C62	C	1.639422	-0.093904	0.366962
H63	H	1.639426	-0.093895	0.262910
H64	H	1.559129	-0.107069	0.401648
H65	H	1.702399	-0.139814	0.401621
H66	H	0.844347	0.351754	-0.102121
C67	C	1.797666	0.023177	0.632753
H68	H	1.851195	0.031974	0.551822
H69	H	1.833888	-0.027108	0.690546
H70	H	1.788210	0.077854	0.690560
H71	H	1.758473	0.024302	0.375629
H72	H	1.129439	-0.014241	-0.000035
