data_functionalizedCrystal
_audit_creation_method	'MofGen! by Chris Wilmer'
_symmetry_space_group_name_H-M	'P1'
_symmetry_Int_Tables_number	1
_symmetry_cell_setting	triclinic
loop_
_symmetry_equiv_pos_as_xyz
  x,y,z
_cell_length_a	12.759401
_cell_length_b	16.625545
_cell_length_c	12.759393
_cell_angle_alpha	90.033904
_cell_angle_beta	90.018567
_cell_angle_gamma	90.024602
loop_
_atom_site_label
_atom_site_type_symbol
_atom_site_fract_x
_atom_site_fract_y
_atom_site_fract_z
Zn1	Zn	1.606176	-0.320975	0.593966
Zn2	Zn	2.106176	0.179025	1.093966
Zn3	Zn	1.606037	-0.455831	0.418279
Zn4	Zn	2.106037	0.044169	0.918279
Zn5	Zn	1.430478	-0.321014	0.418305
Zn6	Zn	1.930478	0.178986	0.918305
Zn7	Zn	1.430433	-0.455767	0.593920
Zn8	Zn	1.930433	0.044233	1.093920
O9	O	1.518281	-0.388397	0.506118
O10	O	2.018281	0.111603	1.006118
O11	O	1.753179	-0.338874	0.570669
O12	O	2.253179	0.161126	1.070669
O13	O	1.582709	-0.437991	0.271262
O14	O	2.082709	0.062009	0.771262
O15	O	1.453862	-0.208177	0.441637
O16	O	1.953862	0.291823	0.941637
O17	O	1.753077	-0.437953	0.441593
O18	O	2.253077	0.062047	0.941593
O19	O	1.582946	-0.208147	0.570695
O20	O	2.082946	0.291853	1.070695
O21	O	1.453727	-0.338942	0.271281
O22	O	1.953727	0.161058	0.771281
O23	O	1.283451	-0.338879	0.441593
O24	O	1.783451	0.161121	0.941593
O25	O	1.453786	-0.437843	0.740948
O26	O	1.953786	0.062157	1.240948
O27	O	1.283418	-0.437881	0.570617
O28	O	1.783418	0.062119	1.070617
O29	O	1.582903	-0.338811	0.740981
O30	O	2.082903	0.161189	1.240981
O31	O	1.582666	-0.568655	0.441548
O32	O	2.082666	-0.068655	0.941548
O33	O	1.453651	-0.568608	0.570591
O34	O	1.953651	-0.068608	1.070591
C35	C	1.245314	-0.388378	0.506103
C36	C	1.745314	0.111622	1.006103
C37	C	1.128537	-0.388389	0.506122
C38	C	1.628537	0.111611	1.006122
C39	C	1.073721	-0.336896	0.573436
C40	C	1.573721	0.163104	1.073436
C41	C	0.963997	-0.336912	0.573443
C42	C	1.463997	0.163088	1.073443
C43	C	0.963915	-0.439920	0.438818
C44	C	1.463915	0.060080	0.938818
C45	C	1.073637	-0.439900	0.438807
C46	C	1.573637	0.060100	0.938807
C47	C	1.073768	-0.277428	0.651164
C48	C	1.573768	0.222572	1.151164
C49	C	0.964044	-0.277443	0.651171
C50	C	1.464044	0.222557	1.151171
C51	C	1.518167	-0.597888	0.506085
C52	C	2.018167	-0.097888	1.006085
C53	C	1.518214	-0.687509	0.506106
C54	C	2.018214	-0.187509	1.006106
C55	C	1.518255	-0.760291	0.506127
C56	C	2.018255	-0.260291	1.006127
C57	C	1.518316	-0.851600	0.506150
C58	C	2.018316	-0.351600	1.006150
C59	C	1.518371	-0.924376	0.506163
C60	C	2.018371	-0.424376	1.006163
C61	C	1.518431	-1.015690	0.506185
C62	C	2.018431	-0.515690	1.006185
C63	C	1.792314	-0.388416	0.506133
C64	C	2.292314	0.111584	1.006133
C65	C	1.909091	-0.388425	0.506140
C66	C	2.409091	0.111575	1.006140
C67	C	1.518355	-0.388315	0.780151
C68	C	2.018355	0.111685	1.280151
C69	C	1.518386	-0.388281	0.896928
C70	C	2.018386	0.111719	1.396928
C71	C	1.518424	-0.178088	0.506174
C72	C	2.018424	0.321912	1.006174
C73	C	1.518485	-0.088467	0.506198
C74	C	2.018485	0.411533	1.006198
C75	C	1.518268	-0.388420	0.233150
C76	C	2.018268	0.111580	0.733150
C77	C	1.518441	-0.388227	0.116374
C78	C	2.018441	0.111773	0.616374
C79	C	1.585627	-0.336710	0.951809
C80	C	2.085627	0.163290	1.451809
C81	C	1.585652	-0.336681	1.061533
C82	C	2.085652	0.163319	1.561533
C83	C	1.451192	-0.439800	1.061485
C84	C	1.951192	0.060200	1.561485
C85	C	1.451163	-0.439824	0.951763
C86	C	1.951163	0.060176	1.451763
C87	C	1.663259	-0.277178	0.951838
C88	C	2.163259	0.222822	1.451838
C89	C	1.663284	-0.277149	1.061562
C90	C	2.163284	0.222851	1.561562
H91	H	1.396405	-0.481815	0.907083
H92	H	1.896405	0.018185	1.407083
H93	H	1.744651	-0.293875	1.091340
H94	H	2.244651	0.206125	1.591340
H95	H	1.118264	-0.481823	0.383983
H96	H	1.618264	0.018177	0.883983
H97	H	1.396460	-0.481763	1.106146
H98	H	1.896460	0.018237	1.606146
C99	C	1.623933	-0.197016	1.107576
C100	C	2.123933	0.302984	1.607576
H101	H	1.625266	-0.199738	1.181935
H102	H	2.125266	0.300262	1.681935
H103	H	1.667990	-0.154459	1.084625
H104	H	2.167990	0.345541	1.584625
H105	H	1.554233	-0.187429	1.084568
H106	H	2.054233	0.312571	1.584568
H107	H	0.919201	-0.481858	0.384013
H108	H	1.419201	0.018142	0.884013
C109	C	0.923847	-0.300170	0.761031
C110	C	1.423847	0.199830	1.261031
H111	H	0.981774	-0.309513	0.806205
H112	H	1.481774	0.190487	1.306205
H113	H	0.882505	-0.257473	0.788187
H114	H	1.382505	0.242527	1.288187
H115	H	0.882476	-0.347565	0.756471
H116	H	1.382476	0.152435	1.256471
H117	H	1.107828	-0.299862	0.728401
H118	H	1.607828	0.200138	1.228401
C119	C	1.114010	-0.193037	0.621913
C120	C	1.614010	0.306963	1.121913
H121	H	1.056102	-0.158345	0.609880
H122	H	1.556102	0.341655	1.109880
H123	H	1.155399	-0.172333	0.677645
H124	H	1.655399	0.327667	1.177645
H125	H	1.155343	-0.196373	0.560150
H126	H	1.655343	0.303627	1.060150
H127	H	0.930017	-0.218097	0.622174
H128	H	1.430017	0.281903	1.122174
C129	C	1.633868	-0.192829	0.911631
C130	C	2.133868	0.307171	1.411631
H131	H	1.633860	-0.192849	0.837173
H132	H	2.133860	0.307151	1.337173
H133	H	1.566085	-0.178866	0.936442
H134	H	2.066085	0.321134	1.436442
H135	H	1.683544	-0.154736	0.936461
H136	H	2.183544	0.345264	1.436461
C137	C	1.767639	-0.307409	0.905848
C138	C	2.267639	0.192591	1.405848
H139	H	1.814144	-0.320851	0.961295
H140	H	2.314144	0.179149	1.461295
H141	H	1.755113	-0.353661	0.863923
H142	H	2.255113	0.146339	1.363923
H143	H	1.798066	-0.266355	0.863966
H144	H	2.298066	0.233645	1.363966
