data_functionalizedCrystal
_audit_creation_method	'MofGen! by Chris Wilmer'
_symmetry_space_group_name_H-M	'P1'
_symmetry_Int_Tables_number	1
_symmetry_cell_setting	triclinic
loop_
_symmetry_equiv_pos_as_xyz
  x,y,z
_cell_length_a	14.908520
_cell_length_b	12.827893
_cell_length_c	12.827885
_cell_angle_alpha	89.980538
_cell_angle_beta	93.263527
_cell_angle_gamma	93.320765
loop_
_atom_site_label
_atom_site_type_symbol
_atom_site_fract_x
_atom_site_fract_y
_atom_site_fract_z
Zn1	Zn	-0.359110	1.573617	-0.614816
Zn2	Zn	-0.509994	1.563404	-0.450147
Zn3	Zn	-0.359155	1.398855	-0.440093
Zn4	Zn	-0.509927	1.388741	-0.624842
O5	O	-0.434546	1.481154	-0.532475
O6	O	-0.379134	1.718497	-0.592984
O7	O	-0.490031	1.541534	-0.302580
O8	O	-0.232904	1.430544	-0.454867
O9	O	-0.489988	1.710994	-0.472002
O10	O	-0.232872	1.558941	-0.583235
O11	O	-0.379210	1.420641	-0.295193
O12	O	-0.379146	1.251278	-0.464589
O13	O	-0.489875	1.413307	-0.769745
O14	O	-0.489918	1.243847	-0.600323
O15	O	-0.379070	1.549135	-0.762379
O16	O	-0.636229	1.531727	-0.481724
O17	O	-0.636180	1.403404	-0.610072
C18	C	-0.434530	1.209645	-0.532454
C19	C	-0.434544	1.093491	-0.532471
C20	C	-0.379788	1.045413	-0.592442
C21	C	-0.379802	0.925362	-0.592461
C22	C	-0.668939	1.465388	-0.548100
C23	C	-0.769212	1.458739	-0.554819
C24	C	-0.957628	1.580006	-0.433905
C25	C	-1.051844	1.573762	-0.440215
C26	C	-1.051863	1.440013	-0.573754
C27	C	-0.957647	1.446257	-0.567444
C28	C	-0.910532	1.516255	-0.497516
C29	C	-0.816314	1.522493	-0.491201
C30	C	-0.816335	1.388750	-0.624745
C31	C	-0.910551	1.382506	-0.631055
C32	C	-0.199239	1.497010	-0.516811
C33	C	-0.098965	1.503767	-0.510136
C34	C	-0.434460	1.481232	-0.805039
C35	C	-0.434423	1.481265	-0.921190
C36	C	-0.434564	1.753723	-0.532496
C37	C	-0.434571	1.869876	-0.532506
C38	C	-0.379574	1.421464	-0.969319
C39	C	-0.379535	1.421497	-1.089367
C40	C	-0.434568	1.481141	-0.260966
C41	C	-0.434350	1.481327	-0.144799
H42	H	-0.332925	0.884001	-0.643808
C43	C	-0.497906	0.925742	-0.463135
N44	N	-0.545609	0.967828	-0.410884
H45	H	-0.919267	1.636993	-0.376959
C46	C	-0.497794	1.550498	-1.088875
N47	N	-0.545580	1.602597	-1.046745
H48	H	-0.481352	1.532486	-0.968860
H49	H	-1.090240	1.383032	-0.630693
C50	C	-0.764490	1.599491	-0.414279
N51	N	-0.725458	1.657490	-0.356342
C52	C	-0.316437	1.109870	-0.661784
N53	N	-0.268718	1.158418	-0.714015
C54	C	-0.764523	1.318619	-0.694722
N55	N	-0.725497	1.265796	-0.747425
H56	H	-1.090186	1.625676	-0.388418
C57	C	-0.962388	1.305507	-0.707966
N58	N	-1.001430	1.247506	-0.765893
C59	C	-0.316166	1.352272	-0.904923
N60	N	-0.268401	1.300160	-0.856421
H61	H	-0.481432	1.045776	-0.481139
C62	C	-0.316094	1.352329	-1.145298
N63	N	-0.268309	1.300229	-1.187428
