data_functionalizedCrystal
_audit_creation_method	'MofGen! by Chris Wilmer'
_symmetry_space_group_name_H-M	'P1'
_symmetry_Int_Tables_number	1
_symmetry_cell_setting	triclinic
loop_
_symmetry_equiv_pos_as_xyz
  x,y,z
_cell_length_a	19.188925
_cell_length_b	19.188924
_cell_length_c	15.455313
_cell_angle_alpha	92.653849
_cell_angle_beta	87.326905
_cell_angle_gamma	83.142256
loop_
_atom_site_label
_atom_site_type_symbol
_atom_site_fract_x
_atom_site_fract_y
_atom_site_fract_z
O1	O	0.929216	0.084085	-0.072153
O2	O	1.262549	0.417419	0.261180
O3	O	1.595882	0.750752	0.594513
O4	O	0.725904	0.095824	-0.072151
O5	O	1.059237	0.429157	0.261182
O6	O	1.392570	0.762490	0.594515
O7	O	0.833429	-0.011701	-0.072142
O8	O	1.166762	0.321632	0.261191
O9	O	1.500096	0.654966	0.594524
O10	O	0.821690	0.191610	-0.072163
O11	O	1.155024	0.524944	0.261171
O12	O	1.488357	0.858277	0.594504
O13	O	0.827280	-0.005578	0.072119
O14	O	1.160613	0.327756	0.405453
O15	O	1.493947	0.661089	0.738786
O16	O	0.719755	0.101947	0.072110
O17	O	1.053088	0.435281	0.405443
O18	O	1.386421	0.768614	0.738777
O19	O	0.923067	0.090209	0.072108
O20	O	1.256400	0.423542	0.405442
O21	O	1.589734	0.756876	0.738775
Cu22	Cu	0.820850	0.096637	0.085281
Cu23	Cu	1.154183	0.429971	0.418615
Cu24	Cu	1.487516	0.763304	0.751948
Cu25	Cu	0.828121	0.089395	-0.085325
Cu26	Cu	1.161454	0.422729	0.248009
Cu27	Cu	1.494788	0.756062	0.581342
O28	O	0.815542	0.197734	0.072099
O29	O	1.148875	0.531067	0.405432
O30	O	1.482208	0.864400	0.738766
C31	C	0.696818	0.098506	-0.000020
C32	C	1.030151	0.431839	0.333313
C33	C	1.363485	0.765173	0.666646
C34	C	0.619313	0.097367	-0.000019
C35	C	0.952647	0.430700	0.333314
C36	C	1.285980	0.764034	0.666647
C37	C	0.057542	0.152831	-0.000027
C38	C	0.390875	0.486164	0.333306
C39	C	0.724209	0.819497	0.666640
C40	C	0.130365	0.153907	-0.000032
C41	C	0.463699	0.487240	0.333302
C42	C	0.797032	0.820574	0.666635
C43	C	0.175301	0.090815	-0.000024
C44	C	0.508635	0.424148	0.333310
C45	C	0.841968	0.757482	0.666643
C46	C	0.147409	0.026641	-0.000033
C47	C	0.480742	0.359974	0.333300
C48	C	0.814076	0.693308	0.666633
C49	C	0.074587	0.025566	-0.000037
C50	C	0.407921	0.358900	0.333296
C51	C	0.741254	0.692233	0.666629
N52	N	0.293886	0.047223	0.049088
N53	N	0.627220	0.380557	0.382422
N54	N	0.960553	0.713890	0.715755
N55	N	0.363063	0.048249	0.049094
N56	N	0.696397	0.381582	0.382427
N57	N	1.029730	0.714915	0.715761
C58	C	0.394710	0.094050	-0.000014
C59	C	0.728043	0.427383	0.333319
C60	C	1.061376	0.760716	0.666653
N61	N	0.354564	0.138797	-0.049117
N62	N	0.687898	0.472130	0.284217
N63	N	1.021231	0.805464	0.617550
N64	N	0.285380	0.137774	-0.049118
N65	N	0.618714	0.471107	0.284215
N66	N	0.952047	0.804440	0.617548
C67	C	0.254265	0.091973	-0.000020
C68	C	0.587599	0.425307	0.333313
C69	C	0.920932	0.758640	0.666647
C70	C	0.501557	0.159386	-0.000016
C71	C	0.834891	0.492720	0.333318
C72	C	1.168224	0.826053	0.666651
C73	C	0.574383	0.160460	-0.000026
C74	C	0.907716	0.493793	0.333308
C75	C	1.241049	0.827126	0.666641
C76	C	0.591425	0.033192	-0.000019
C77	C	0.924758	0.366525	0.333315
C78	C	1.258091	0.699859	0.666648
C79	C	0.518601	0.032120	-0.000017
C80	C	0.851934	0.365453	0.333316
C81	C	1.185268	0.698787	0.666649
C82	C	0.473671	0.095219	-0.000012
C83	C	0.807004	0.428553	0.333322
C84	C	1.140338	0.761886	0.666655
C85	C	0.829975	-0.034650	-0.000011
C86	C	1.163308	0.298683	0.333323
C87	C	1.496642	0.632016	0.666656
C88	C	0.828836	-0.112155	-0.000008
C89	C	1.162170	0.221178	0.333325
C90	C	1.495503	0.554512	0.666658
C91	C	0.831656	-0.151892	-0.078645
C92	C	1.164990	0.181441	0.254688
C93	C	1.498323	0.514775	0.588021
C94	C	0.830577	-0.224715	-0.078652
C95	C	1.163910	0.108618	0.254681
C96	C	1.497243	0.441952	0.588015
C97	C	0.826691	-0.257800	-0.000017
C98	C	1.160024	0.075533	0.333316
C99	C	1.493358	0.408867	0.666650
C100	C	0.823866	-0.218053	0.078631
C101	C	1.157200	0.115280	0.411964
C102	C	1.490533	0.448613	0.745297
C103	C	0.824939	-0.145231	0.078635
C104	C	1.158272	0.188102	0.411968
C105	C	1.491606	0.521436	0.745302
N106	N	0.862244	-0.374980	0.058509
N107	N	1.195578	-0.041646	0.391842
N108	N	1.528911	0.291687	0.725176
N109	N	0.861227	-0.444158	0.058499
N110	N	1.194560	-0.110825	0.391833
N111	N	1.527894	0.222508	0.725166
C112	C	0.823457	-0.477209	-0.000025
C113	C	1.156790	-0.143876	0.333308
C114	C	1.490124	0.189457	0.666641
N115	N	0.786752	-0.438470	-0.058553
N116	N	1.120086	-0.105137	0.274780
N117	N	1.453419	0.228197	0.608113
N118	N	0.787773	-0.369286	-0.058546
N119	N	1.121106	-0.035952	0.274787
N120	N	1.454440	0.297381	0.608120
C121	C	0.825527	-0.336763	-0.000013
C122	C	1.158860	-0.003430	0.333320
C123	C	1.492194	0.329904	0.666654
C124	C	0.825106	-0.595909	-0.078675
C125	C	1.158439	-0.262576	0.254658
C126	C	1.491773	0.070757	0.587992
C127	C	0.824022	-0.668733	-0.078678
C128	C	1.157355	-0.335399	0.254655
C129	C	1.490688	-0.002066	0.587988
C130	C	0.817318	-0.662071	0.078607
C131	C	1.150652	-0.328737	0.411940
C132	C	1.483985	0.004596	0.745273
C133	C	0.818395	-0.589248	0.078608
C134	C	1.151729	-0.255914	0.411941
C135	C	1.485062	0.077419	0.745274
C136	C	0.822293	-0.556172	-0.000036
C137	C	1.155626	-0.222839	0.333298
C138	C	1.488959	0.110495	0.666631
C139	C	0.952153	0.087527	-0.000025
C140	C	1.285486	0.420860	0.333309
C141	C	1.618819	0.754193	0.666642
C142	C	1.029658	0.088665	-0.000032
C143	C	1.362991	0.421999	0.333302
C144	C	1.696324	0.755332	0.666635
C145	C	0.818996	0.220683	-0.000034
C146	C	1.152329	0.554016	0.333299
C147	C	1.485662	0.887350	0.666632
C148	C	0.820135	0.298187	-0.000043
C149	C	1.153468	0.631521	0.333291
C150	C	1.486801	0.964854	0.666624
N151	N	0.815740	0.101730	0.205276
N152	N	1.149074	0.435064	0.538610
N153	N	1.482407	0.768397	0.871943
N154	N	0.833236	0.084297	-0.205320
N155	N	1.166569	0.417630	0.128014
N156	N	1.499903	0.750964	0.461347
C157	C	0.861436	0.056067	0.250675
C158	C	1.194770	0.389400	0.584008
C159	C	1.528103	0.722733	0.917341
C160	C	0.857579	0.059925	0.341482
C161	C	1.190912	0.393258	0.674815
C162	C	1.524246	0.726591	1.008149
C163	C	0.808028	0.109450	0.386890
C164	C	1.141361	0.442783	0.720223
C165	C	1.474695	0.776117	1.053557
C166	C	0.762327	0.155116	0.341486
C167	C	1.095660	0.488449	0.674819
C168	C	1.428993	0.821782	1.008152
C169	C	0.766181	0.151254	0.250680
C170	C	1.099515	0.484587	0.584013
C171	C	1.432848	0.817921	0.917346
C172	C	0.791390	0.126101	0.658470
C173	C	1.124723	0.459434	0.991803
C174	C	1.458056	0.792767	1.325137
C175	C	0.787540	0.129961	0.749282
C176	C	1.120873	0.463294	1.082616
C177	C	1.454206	0.796627	1.415949
C178	C	0.882791	0.034768	0.749273
C179	C	1.216125	0.368101	1.082606
C180	C	1.549458	0.701435	1.415939
C181	C	0.886645	0.030913	0.658465
C182	C	1.219978	0.364247	0.991798
C183	C	1.553311	0.697580	1.325132
C184	C	0.840941	0.076576	0.613068
C185	C	1.174274	0.409910	0.946402
C186	C	1.507608	0.743243	1.279735
N187	N	0.804085	0.113396	0.479710
N188	N	1.137418	0.446730	0.813043
N189	N	1.470752	0.780063	1.146377
N190	N	0.844881	0.072626	0.520250
N191	N	1.178214	0.405960	0.853583
N192	N	1.511548	0.739293	1.186917
H193	H	0.597084	0.212712	-0.000029
H194	H	0.930417	0.546046	0.333304
H195	H	1.263751	0.879379	0.666638
H196	H	0.901789	0.015741	0.213709
H197	H	1.235122	0.349074	0.547043
H198	H	1.568456	0.682407	0.880376
H199	H	0.820700	-0.244996	0.142656
H200	H	1.154034	0.088338	0.475989
H201	H	1.487367	0.421671	0.809322
H202	H	0.153073	0.206160	-0.000020
H203	H	0.486407	0.539493	0.333314
H204	H	0.819740	0.872827	0.666647
H205	H	0.834828	-0.124966	-0.142683
H206	H	1.168161	0.208367	0.190650
H207	H	1.501494	0.541701	0.523984
Br208	Br	0.834402	-0.278655	-0.185382
Br209	Br	1.167735	0.054679	0.147952
Br210	Br	1.501068	0.388012	0.481285
H211	H	0.628011	-0.018179	-0.000019
H212	H	0.961344	0.315154	0.333314
H213	H	1.294678	0.648488	0.666648
H214	H	0.747187	0.170293	0.786249
H215	H	1.080520	0.503626	1.119582
H216	H	1.413854	0.836960	1.452916
H217	H	0.020964	0.204211	-0.000026
H218	H	0.354298	0.537544	0.333307
H219	H	0.687631	0.870878	0.666640
Br220	Br	0.944813	-0.027202	0.810885
Br221	Br	1.278147	0.306132	1.144218
Br222	Br	1.611480	0.639465	1.477552
H223	H	0.894788	0.022741	0.378445
H224	H	1.228121	0.356075	0.711778
H225	H	1.561455	0.689408	1.045111
H226	H	0.926993	-0.009414	0.621496
H227	H	1.260326	0.323919	0.954829
H228	H	1.593660	0.657252	1.288162
Br229	Br	0.821108	-0.091298	0.185365
Br230	Br	1.154441	0.242035	0.518699
Br231	Br	1.487775	0.575369	0.852032
Br232	Br	0.729367	0.188071	0.596865
Br233	Br	1.062700	0.521405	0.930199
Br234	Br	1.396033	0.854738	1.263532
H235	H	0.828275	-0.568977	-0.142711
H236	H	1.161608	-0.235644	0.190622
H237	H	1.494942	0.097690	0.523956
H238	H	0.826315	-0.701085	-0.142717
H239	H	1.159648	-0.367752	0.190616
H240	H	1.492982	-0.034419	0.523950
Br241	Br	0.812037	-0.706963	0.185328
Br242	Br	1.145371	-0.373629	0.518661
Br243	Br	1.478704	-0.040296	0.851995
H244	H	0.184001	-0.024729	-0.000029
H245	H	0.517334	0.308604	0.333304
H246	H	0.850667	0.641938	0.666637
Br247	Br	0.695072	0.222326	0.403107
Br248	Br	1.028405	0.555659	0.736440
Br249	Br	1.361739	0.888992	1.069774
Br250	Br	0.440577	0.245018	-0.000008
Br251	Br	0.773911	0.578352	0.333325
Br252	Br	1.107244	0.911685	0.666658
H253	H	0.728970	0.188437	0.213717
H254	H	1.062303	0.521771	0.547051
H255	H	1.395637	0.855104	0.880384
H256	H	0.051885	-0.026687	-0.000041
H257	H	0.385219	0.306647	0.333292
H258	H	0.718552	0.639980	0.666625
Br259	Br	0.480755	-0.054967	-0.000031
Br260	Br	0.814088	0.278367	0.333303
Br261	Br	1.147421	0.611700	0.666636
H262	H	0.816105	-0.556894	0.142643
H263	H	1.149438	-0.223561	0.475976
H264	H	1.482771	0.109773	0.809309
