data_functionalizedCrystal
_audit_creation_method	'MofGen! by Chris Wilmer'
_symmetry_space_group_name_H-M	'P1'
_symmetry_Int_Tables_number	1
_symmetry_cell_setting	triclinic
loop_
_symmetry_equiv_pos_as_xyz
  x,y,z
_cell_length_a	8.559649
_cell_length_b	15.995350
_cell_length_c	7.681481
_cell_angle_alpha	84.260013
_cell_angle_beta	94.913240
_cell_angle_gamma	76.635520
loop_
_atom_site_label
_atom_site_type_symbol
_atom_site_fract_x
_atom_site_fract_y
_atom_site_fract_z
O1	O	2.105023	-0.019508	-0.146402
O2	O	1.639818	0.023734	-0.146408
O3	O	1.885137	-0.120592	-0.146403
O4	O	1.859704	0.124818	-0.146407
O5	O	1.915332	-0.138392	0.146455
O6	O	1.670013	0.005934	0.146450
O7	O	2.135218	-0.037308	0.146457
Zn8	Zn	1.907409	-0.018513	0.192951
Zn9	Zn	1.867627	0.004939	-0.192902
O10	O	1.889898	0.107018	0.146452
C11	C	1.595386	0.018111	0.000020
C12	C	1.418005	0.027866	0.000017
C13	C	1.899183	-0.160619	0.000023
C14	C	1.896030	-0.253366	0.000013
C15	C	1.884710	-0.590386	0.000019
C16	C	1.709930	-0.531678	-0.000641
C17	C	1.713151	-0.435230	0.000019
C18	C	1.890325	-0.423187	0.000015
C19	C	1.993741	-0.479970	0.167249
C20	C	1.989366	-0.576332	0.167389
C21	C	1.958639	-0.556680	-0.165646
C22	C	1.958369	-0.459598	-0.167856
C23	C	1.893508	-0.328694	0.000018
C24	C	1.881533	-0.684880	0.000027
C25	C	2.179650	-0.031685	0.000025
C26	C	2.357029	-0.041439	0.000016
C27	C	1.875853	0.147046	0.000022
C28	C	1.879005	0.239793	0.000020
N29	N	1.934572	-0.034520	0.456286
N30	N	1.840477	0.020939	-0.456237
H31	H	1.627735	-0.538430	-0.120568
O32	O	1.713216	0.095909	0.444151
H33	H	1.771972	0.137300	0.360120
O34	O	2.129111	-0.609634	-0.167135
H35	H	2.213799	-0.566583	-0.162824
O36	O	1.634125	-0.561307	0.157330
H37	H	1.510798	-0.519440	0.155585
O38	O	1.467622	-0.129925	0.000039
H39	H	1.532171	-0.130505	-0.119313
O40	O	1.307400	0.116352	0.000024
H41	H	1.317845	0.159039	-0.119344
H42	H	1.633053	-0.395166	-0.119861
O43	O	2.061823	-0.109508	0.555885
H44	H	2.058297	-0.107429	0.699522
O45	O	1.639261	-0.402173	0.159101
H46	H	1.601098	-0.455095	0.235869
H47	H	2.118419	-0.617289	0.174974
O48	O	1.923187	-0.605295	0.332967
H49	H	1.894596	-0.550478	0.412180
O50	O	2.167008	-0.472845	0.175520
H51	H	2.181283	-0.428648	0.060249
O52	O	1.858135	-0.408115	-0.331741
H53	H	1.906993	-0.434251	-0.449795
O54	O	1.931477	-0.447305	0.332116
H55	H	1.826933	-0.390668	0.295370
H56	H	1.888448	-0.565843	-0.292399
H57	H	2.086530	-0.451930	-0.177957
