data_functionalizedCrystal
_audit_creation_method	'MofGen! by Chris Wilmer'
_symmetry_space_group_name_H-M	'P1'
_symmetry_Int_Tables_number	1
_symmetry_cell_setting	triclinic
loop_
_symmetry_equiv_pos_as_xyz
  x,y,z
_cell_length_a	12.759401
_cell_length_b	11.169416
_cell_length_c	11.169409
_cell_angle_alpha	89.969184
_cell_angle_beta	89.977895
_cell_angle_gamma	90.011865
loop_
_atom_site_label
_atom_site_type_symbol
_atom_site_fract_x
_atom_site_fract_y
_atom_site_fract_z
Zn1	Zn	1.606310	-0.477662	-0.678604
Zn2	Zn	1.606211	-0.678402	-0.477926
Zn3	Zn	1.430605	-0.477737	-0.477933
Zn4	Zn	1.430614	-0.678307	-0.678566
O5	O	1.518435	-0.578027	-0.578257
O6	O	1.753318	-0.504299	-0.651997
O7	O	1.582872	-0.651855	-0.309977
O8	O	1.453951	-0.309777	-0.504572
O9	O	1.753245	-0.651782	-0.504560
O10	O	1.583040	-0.309722	-0.652004
O11	O	1.453855	-0.504427	-0.309983
O12	O	1.283586	-0.504335	-0.504534
O13	O	1.453966	-0.651620	-0.846521
O14	O	1.283592	-0.651692	-0.651938
O15	O	1.583049	-0.504206	-0.846549
O16	O	1.582880	-0.846339	-0.504523
O17	O	1.453870	-0.846269	-0.651932
C18	C	1.245468	-0.578012	-0.578234
C19	C	1.128691	-0.578035	-0.578252
C20	C	1.518394	-0.889852	-0.578248
C21	C	1.518472	-1.023252	-0.578285
C22	C	1.518520	-0.577894	-0.891300
C23	C	1.518555	-0.577837	-1.024700
C24	C	1.073860	-0.654881	-0.654884
C25	C	0.964136	-0.654885	-0.654908
C26	C	0.964084	-0.501195	-0.501657
C27	C	1.073806	-0.501185	-0.501640
C28	C	0.814246	-0.697942	-0.796403
C29	C	0.759411	-0.774807	-0.873024
C30	C	0.795017	-0.891932	-0.891248
C31	C	0.885456	-0.932217	-0.832833
C32	C	0.940285	-0.855358	-0.756202
C33	C	0.904680	-0.738216	-0.738001
C34	C	1.223699	-0.458140	-0.360144
C35	C	1.278530	-0.381287	-0.283506
C36	C	1.242926	-0.264160	-0.265270
C37	C	1.152484	-0.223880	-0.323664
C38	C	1.097652	-0.300733	-0.400302
C39	C	1.133264	-0.417859	-0.418540
C40	C	1.792469	-0.578043	-0.578282
C41	C	1.909245	-0.578049	-0.578293
C42	C	1.518506	-0.264985	-0.578293
C43	C	1.518536	-0.131585	-0.578308
C44	C	1.518412	-0.578073	-0.266433
C45	C	1.518580	-0.577791	-0.133033
H46	H	1.118545	-0.717454	-0.717270
C47	C	0.924608	-1.061071	-0.852873
N48	N	0.954101	-1.158125	-0.867970
C49	C	1.378029	-0.425595	-0.219286
N50	N	1.452977	-0.458964	-0.170924
H51	H	1.123482	-0.128513	-0.308797
H52	H	1.024014	-0.267924	-0.447858
H53	H	0.750363	-0.954516	-0.953637
H54	H	1.013918	-0.888157	-0.708641
C55	C	0.659935	-0.730487	-0.937287
N56	N	0.585010	-0.697110	-0.985688
H57	H	1.287575	-0.201591	-0.202854
H58	H	0.785254	-0.602566	-0.781584
C59	C	0.903700	-0.416671	-0.417382
N60	N	0.858220	-0.353008	-0.353901
H61	H	1.252703	-0.553512	-0.374996
