data_functionalizedCrystal
_audit_creation_method	'MofGen! by Chris Wilmer'
_symmetry_space_group_name_H-M	'P1'
_symmetry_Int_Tables_number	1
_symmetry_cell_setting	triclinic
loop_
_symmetry_equiv_pos_as_xyz
  x,y,z
_cell_length_a	19.121241
_cell_length_b	19.121073
_cell_length_c	13.032268
_cell_angle_alpha	99.245087
_cell_angle_beta	94.426444
_cell_angle_gamma	95.004588
loop_
_atom_site_label
_atom_site_type_symbol
_atom_site_fract_x
_atom_site_fract_y
_atom_site_fract_z
Zn1	Zn	1.003677	-0.294324	-0.673298
Zn2	Zn	1.503677	0.205676	-0.173298
Zn3	Zn	1.013513	-0.397063	-0.505685
Zn4	Zn	1.513513	0.102937	-0.005685
Zn5	Zn	0.902233	-0.283151	-0.491416
Zn6	Zn	1.402233	0.216849	0.008584
Zn7	Zn	0.880957	-0.416955	-0.673202
Zn8	Zn	1.380957	0.083045	-0.173202
O9	O	0.950095	-0.347873	-0.585900
O10	O	1.450095	0.152127	-0.085900
O11	O	1.102911	-0.304304	-0.657075
O12	O	1.602911	0.195696	-0.157075
O13	O	1.011772	-0.368951	-0.357567
O14	O	1.511772	0.131049	0.142433
O15	O	0.920477	-0.185638	-0.509612
O16	O	1.420477	0.314362	-0.009612
O17	O	1.110138	-0.379786	-0.533931
O18	O	1.610138	0.120214	-0.033931
O19	O	0.995008	-0.193848	-0.643240
O20	O	1.495008	0.306152	-0.143240
O21	O	0.930015	-0.285260	-0.347084
O22	O	1.430015	0.214740	0.152916
O23	O	0.801481	-0.304549	-0.509519
O24	O	1.301481	0.195451	-0.009519
O25	O	0.884216	-0.413689	-0.819440
O26	O	1.384216	0.086311	-0.319440
O27	O	0.785850	-0.402854	-0.643076
O28	O	1.285850	0.097146	-0.143076
O29	O	0.974377	-0.323593	-0.819510
O30	O	1.474377	0.176407	-0.319510
O31	O	0.991142	-0.498696	-0.533837
O32	O	1.491142	0.001304	-0.033837
O33	O	0.893754	-0.513311	-0.656912
O34	O	1.393754	-0.013311	-0.156912
C35	C	0.941224	-0.531673	-0.596936
C36	C	1.441224	-0.031673	-0.096936
C37	C	0.937489	-0.610304	-0.601696
C38	C	1.437489	-0.110304	-0.101696
C39	C	0.768274	-0.354648	-0.574740
C40	C	1.268274	0.145352	-0.074740
C41	C	0.690487	-0.357566	-0.569991
C42	C	1.190487	0.142434	-0.069991
C43	C	0.913839	-1.055414	-0.631915
C44	C	1.413839	-0.555414	-0.131915
C45	C	0.917349	-0.981531	-0.627430
C46	C	1.417349	-0.481531	-0.127430
C47	C	0.969838	-0.936962	-0.561160
C48	C	1.469838	-0.436962	-0.061160
C49	C	1.018825	-0.966281	-0.499378
C50	C	1.518825	-0.466281	0.000622
C51	C	1.015318	-1.040163	-0.503868
C52	C	1.515318	-0.540163	-0.003868
C53	C	0.982969	-0.713504	-0.544404
C54	C	1.482969	-0.213504	-0.044404
C55	C	0.986471	-0.639617	-0.539916
C56	C	1.486471	-0.139617	-0.039916
C57	C	0.884996	-0.654873	-0.667971
C58	C	1.384996	-0.154873	-0.167971
C59	C	0.881490	-0.728755	-0.672451
C60	C	1.381490	-0.228755	-0.172451
C61	C	0.930479	-0.758068	-0.610673
C62	C	1.430479	-0.258068	-0.110673
C63	C	0.973426	-0.861441	-0.556573
C64	C	1.473426	-0.361441	-0.056573
C65	C	0.926894	-0.833588	-0.615266
C66	C	1.426894	-0.333588	-0.115266
C67	C	0.650167	-0.319718	-0.631981
C68	C	1.150167	0.180282	-0.131981
C69	C	0.577079	-0.322455	-0.627510
C70	C	1.077079	0.177545	-0.127510
C71	C	0.544311	-0.363045	-0.561053
C72	C	1.044311	0.136955	-0.061053
C73	C	0.584635	-0.400894	-0.499056
C74	C	1.084635	0.099106	0.000944
C75	C	0.657723	-0.398152	-0.503522
C76	C	1.157723	0.101848	-0.003522
C77	C	0.323823	-0.373281	-0.544349
C78	C	0.823823	0.126719	-0.044349
C79	C	0.250730	-0.376022	-0.539890
C80	C	0.750730	0.123978	-0.039890
C81	C	0.243179	-0.297582	-0.668343
C82	C	0.743179	0.202418	-0.168343
C83	C	0.316267	-0.294847	-0.672808
C84	C	0.816267	0.205153	-0.172808
C85	C	0.356586	-0.332693	-0.610807
C86	C	0.856586	0.167307	-0.110807
C87	C	0.469603	-0.365845	-0.556484
C88	C	0.969603	0.134155	-0.056484
C89	C	0.431294	-0.329888	-0.615372
C90	C	0.931294	0.170112	-0.115372
C91	C	1.132627	-0.341072	-0.597105
C92	C	1.632627	0.158928	-0.097105
C93	C	1.210411	-0.338174	-0.601880
C94	C	1.710411	0.161826	-0.101880
C95	C	0.925826	-0.372106	-0.858450
C96	C	1.425826	0.127894	-0.358450
C97	C	0.915484	-0.382433	-0.974594
C98	C	1.415484	0.117567	-0.474594
C99	C	0.959018	-0.163357	-0.574845
C100	C	1.459018	0.336643	-0.074845
C101	C	0.962821	-0.084728	-0.570134
C102	C	1.462821	0.415272	-0.070134
C103	C	0.955483	-0.342459	-1.026409
C104	C	1.455483	0.157541	-0.526409
C105	C	0.944795	-0.353131	-1.146451
C106	C	1.444795	0.146869	-0.646451
C107	C	0.974313	-0.323682	-0.314411
C108	C	1.474313	0.176318	0.185589
C109	C	0.984800	-0.313151	-0.198264
C110	C	1.484800	0.186849	0.301736
H111	H	0.871098	-1.091697	-0.685880
H112	H	1.371098	-0.591697	-0.185880
Br113	Br	1.025732	-0.272226	-0.952234
Br114	Br	1.525732	0.227774	-0.452234
H115	H	0.342942	-0.261798	-0.726928
H116	H	0.842942	0.238202	-0.226928
H117	H	0.877465	-0.957665	-0.677737
H118	H	1.377465	-0.457665	-0.177737
H119	H	0.544254	-0.291637	-0.677991
H120	H	1.044254	0.208363	-0.177991
Br121	Br	1.057701	-0.579129	-0.449953
Br122	Br	1.557701	-0.079129	0.050047
H123	H	0.690550	-0.428971	-0.453042
H124	H	1.190550	0.071029	0.046958
Br125	Br	0.810261	-0.789238	-0.762407
Br126	Br	1.310261	-0.289238	-0.262407
Br127	Br	0.206255	-0.431134	-0.449723
Br128	Br	0.706255	0.068866	0.050277
H129	H	0.845112	-0.631000	-0.718269
H130	H	1.345112	-0.131000	-0.218269
Br131	Br	1.049454	-0.753276	-0.460562
Br132	Br	1.549454	-0.253276	0.039438
Br133	Br	1.090066	-0.905796	-0.409447
Br134	Br	1.590066	-0.405796	0.090553
H135	H	0.902630	-0.395253	-1.190955
H136	H	1.402630	0.104747	-0.690955
Br137	Br	1.055081	-0.242944	-1.124099
Br138	Br	1.555081	0.257056	-0.624099
H139	H	0.210344	-0.266769	-0.718820
H140	H	0.710344	0.233231	-0.218820
H141	H	0.873322	-0.424552	-1.019102
H142	H	1.373322	0.075448	-0.519102
Br143	Br	1.081799	-1.079947	-0.420027
Br144	Br	1.581799	-0.579947	0.079973
H145	H	0.457977	-0.296837	-0.669476
H146	H	0.957977	0.203163	-0.169476
Br147	Br	0.855665	-0.894074	-0.705209
Br148	Br	1.355665	-0.394074	-0.205209
H149	H	1.016162	-0.825147	-0.502612
H150	H	1.516162	-0.325147	-0.002612
Br151	Br	0.540166	-0.455974	-0.408854
Br152	Br	1.040166	0.044026	0.091146
H153	H	0.676842	-0.286668	-0.686100
H154	H	1.176842	0.213332	-0.186100
Br155	Br	0.378536	-0.424623	-0.460176
Br156	Br	0.878536	0.075377	0.039824
H157	H	0.442914	-0.398894	-0.502374
H158	H	0.942914	0.101106	-0.002374
