data_functionalizedCrystal
_audit_creation_method	'MofGen! by Chris Wilmer'
_symmetry_space_group_name_H-M	'P1'
_symmetry_Int_Tables_number	1
_symmetry_cell_setting	triclinic
loop_
_symmetry_equiv_pos_as_xyz
  x,y,z
_cell_length_a	10.654553
_cell_length_b	14.044190
_cell_length_c	9.730223
_cell_angle_alpha	89.993542
_cell_angle_beta	89.999314
_cell_angle_gamma	88.838977
loop_
_atom_site_label
_atom_site_type_symbol
_atom_site_fract_x
_atom_site_fract_y
_atom_site_fract_z
O1	O	1.681226	0.133242	-0.114323
O2	O	2.181226	0.633242	0.385677
O3	O	1.317023	0.145932	-0.114324
O4	O	1.817023	0.645932	0.385676
O5	O	1.493653	0.001566	-0.114296
O6	O	1.993653	0.501566	0.385704
O7	O	1.504596	0.277608	-0.114350
O8	O	2.004596	0.777608	0.385650
O9	O	1.493651	0.001570	0.114284
O10	O	1.993651	0.501570	0.614284
O11	O	1.317021	0.145936	0.114256
O12	O	1.817021	0.645936	0.614256
O13	O	1.681224	0.133245	0.114257
O14	O	2.181224	0.633245	0.614257
Zn15	Zn	1.499122	0.139591	0.150549
Zn16	Zn	1.999122	0.639591	0.650549
Zn17	Zn	1.499125	0.139586	-0.150615
Zn18	Zn	1.999125	0.639586	0.349385
O19	O	1.504594	0.277612	0.114230
O20	O	2.004594	0.777612	0.614230
C21	C	1.270131	0.145002	-0.000034
C22	C	1.770131	0.645002	0.499966
C23	C	1.130407	0.142212	-0.000033
C24	C	1.630407	0.642212	0.499967
C25	C	0.933470	0.138276	0.124557
C26	C	1.433470	0.638276	0.624557
C27	C	1.064755	0.140903	0.124565
C28	C	1.564755	0.640903	0.624565
C29	C	1.064767	0.140904	-0.124646
C30	C	1.564767	0.640904	0.375354
C31	C	0.933485	0.138284	-0.124652
C32	C	1.433485	0.638284	0.375348
C33	C	0.933464	0.138271	0.268437
C34	C	1.433464	0.638271	0.768437
C35	C	1.064749	0.140898	0.268445
C36	C	1.564749	0.640898	0.768445
C37	C	1.488865	-0.033778	-0.000002
C38	C	1.988865	0.466222	0.499998
C39	C	1.474586	-0.139098	0.000010
C40	C	1.974586	0.360902	0.500010
C41	C	1.549751	-0.388890	-0.000044
C42	C	2.049751	0.111110	0.499956
C43	C	1.448501	-0.331927	-0.000035
C44	C	1.948501	0.168073	0.499965
C45	C	1.463018	-0.224627	-0.000010
C46	C	1.963018	0.275373	0.499990
C47	C	1.535236	-0.496200	-0.000069
C48	C	2.035236	0.003800	0.499931
C49	C	1.728116	0.134176	-0.000036
C50	C	2.228116	0.634176	0.499964
C51	C	1.867840	0.136966	-0.000046
C52	C	2.367840	0.636966	0.499954
C53	C	1.509382	0.312956	-0.000067
C54	C	2.009382	0.812956	0.499933
C55	C	1.523661	0.418276	-0.000088
C56	C	2.023661	0.918276	0.499912
N57	N	1.499130	0.139594	0.356085
N58	N	1.999130	0.639594	0.856085
N59	N	1.499126	0.139576	-0.356152
N60	N	1.999126	0.639576	0.143848
C61	C	1.577366	0.075691	0.428023
C62	C	2.077366	0.575691	0.928023
C63	C	1.577361	0.075679	0.571906
C64	C	2.077361	0.575679	1.071906
C65	C	1.420882	0.203483	0.571900
C66	C	1.920882	0.703483	1.071900
C67	C	1.420881	0.203489	0.428020
C68	C	1.920881	0.703489	0.928020
C69	C	1.667712	0.001907	0.428028
C70	C	2.167712	0.501907	0.928028
C71	C	1.667707	0.001895	0.571911
C72	C	2.167707	0.501895	1.071911
H73	H	1.101268	0.210084	0.313078
H74	H	1.601268	0.710084	0.813078
Br75	Br	1.712393	-0.335861	-0.000025
Br76	Br	2.212393	0.164139	0.499975
Br77	Br	1.831285	0.028973	0.637006
Br78	Br	2.331285	0.528973	1.137006
Br79	Br	0.867291	0.247525	0.360491
Br80	Br	1.367291	0.747525	0.860491
H81	H	0.896936	0.069089	0.313090
H82	H	1.396936	0.569089	0.813090
H83	H	1.630268	-0.067004	0.616540
H84	H	2.130268	0.432996	1.116540
H85	H	0.880053	0.137229	-0.226116
H86	H	1.380053	0.637229	0.273884
H87	H	1.350915	-0.363745	-0.000043
H88	H	1.850915	0.136255	0.499957
Br89	Br	1.314679	0.290200	0.330386
Br90	Br	1.814679	0.790200	0.830386
H91	H	1.104443	0.075342	0.323694
H92	H	1.604443	0.575342	0.823694
H93	H	1.761218	0.025011	0.383397
H94	H	2.261218	0.525011	0.883397
Br95	Br	1.153865	0.142695	-0.293745
Br96	Br	1.653865	0.642695	0.206255
Br97	Br	1.314688	0.290191	0.669533
Br98	Br	1.814688	0.790191	1.169533
Br99	Br	1.619761	-0.119611	0.362945
Br100	Br	2.119761	0.380389	0.862945
