data_functionalizedCrystal
_audit_creation_method	'MofGen! by Chris Wilmer'
_symmetry_space_group_name_H-M	'P1'
_symmetry_Int_Tables_number	1
_symmetry_cell_setting	triclinic
loop_
_symmetry_equiv_pos_as_xyz
  x,y,z
_cell_length_a	14.971486
_cell_length_b	12.376897
_cell_length_c	14.971486
_cell_angle_alpha	77.344972
_cell_angle_beta	83.614129
_cell_angle_gamma	77.350729
loop_
_atom_site_label
_atom_site_type_symbol
_atom_site_fract_x
_atom_site_fract_y
_atom_site_fract_z
O1	O	1.171654	0.093871	0.101256
O2	O	1.671654	0.593871	0.601256
O3	O	0.911249	0.093901	0.115209
O4	O	1.411249	0.593901	0.615209
O5	O	1.048432	0.093877	-0.021966
O6	O	1.548432	0.593877	0.478034
O7	O	1.034471	0.093895	0.238431
O8	O	1.534471	0.593895	0.738431
O9	O	1.079044	-0.094123	0.008686
O10	O	1.579044	0.405877	0.508686
O11	O	0.941860	-0.094099	0.145861
O12	O	1.441860	0.405901	0.645861
O13	O	1.202266	-0.094130	0.131908
O14	O	1.702266	0.405870	0.631908
Zn15	Zn	1.076923	-0.123963	0.143751
Zn16	Zn	1.576923	0.376037	0.643751
Zn17	Zn	1.036591	0.123735	0.103366
Zn18	Zn	1.536591	0.623735	0.603366
O19	O	1.065082	-0.094105	0.269083
O20	O	1.565082	0.405895	0.769083
C21	C	0.893229	-0.000095	0.129911
C22	C	1.393229	0.499905	0.629911
C23	C	0.793930	-0.000083	0.128038
C24	C	1.293930	0.499917	0.628038
N25	N	1.104455	-0.293011	0.171312
N26	N	1.604455	0.206989	0.671312
C27	C	0.736704	-0.000079	0.208627
C28	C	1.236704	0.499921	0.708627
C29	C	0.643408	-0.000096	0.206866
C30	C	1.143408	0.499904	0.706866
C31	C	0.607337	-0.000109	0.124515
C32	C	1.107337	0.499891	0.624515
C33	C	0.664571	-0.000116	0.043921
C34	C	1.164571	0.499884	0.543921
C35	C	0.757868	-0.000107	0.045683
C36	C	1.257868	0.499893	0.545683
C37	C	0.470111	-0.000132	0.040252
C38	C	0.970111	0.499868	0.540252
C39	C	0.376808	-0.000139	0.038489
C40	C	0.876808	0.499861	0.538489
C41	C	0.355652	-0.000121	0.201435
C42	C	0.855652	0.499879	0.701435
C43	C	0.448948	-0.000112	0.203198
C44	C	0.948948	0.499888	0.703198
C45	C	0.506175	-0.000117	0.122603
C46	C	1.006175	0.499883	0.622603
C47	C	0.945123	-0.648058	0.011812
C48	C	1.445123	-0.148058	0.511812
C49	C	0.925839	-0.529726	-0.007481
C50	C	1.425839	-0.029726	0.492519
C51	C	0.970491	-0.470541	0.037216
C52	C	1.470491	0.029459	0.537216
C53	C	1.034431	-0.529701	0.101208
C54	C	1.534431	-0.029701	0.601208
C55	C	1.053722	-0.648044	0.120497
C56	C	1.553722	-0.148044	0.620497
C57	C	1.079090	-0.470528	0.145902
C58	C	1.579090	0.029472	0.645902
C59	C	1.143030	-0.529687	0.209894
C60	C	1.643030	-0.029687	0.709894
C61	C	1.162318	-0.648019	0.229180
C62	C	1.662318	-0.148019	0.729180
C63	C	1.117666	-0.707204	0.184483
C64	C	1.617666	-0.207204	0.684483
C65	C	1.059799	-0.352184	0.126613
C66	C	1.559799	0.147816	0.626613
C67	C	1.168398	-0.352170	0.235298
C68	C	1.668398	0.147830	0.735298
C69	C	1.187682	-0.470502	0.254591
C70	C	1.687682	0.029498	0.754591
C71	C	1.220285	-0.000131	0.117206
C72	C	1.720285	0.499869	0.617206
C73	C	1.319583	-0.000135	0.119078
C74	C	1.819583	0.499865	0.619078
C75	C	1.063114	-0.000123	-0.039965
C76	C	1.563114	0.499877	0.460035
C77	C	1.061243	-0.000121	-0.139262
C78	C	1.561243	0.499879	0.360738
N79	N	1.009067	0.292783	0.075798
N80	N	1.509067	0.792783	0.575798
C81	C	1.141834	-0.000132	-0.196486
C82	C	1.641834	0.499868	0.303514
C83	C	1.140069	-0.000120	-0.289787
C84	C	1.640069	0.499880	0.210213
C85	C	1.057713	-0.000106	-0.325862
C86	C	1.557713	0.499894	0.174138
C87	C	0.977116	-0.000092	-0.268631
C88	C	1.477116	0.499908	0.231369
C89	C	0.978880	-0.000096	-0.175333
C90	C	1.478880	0.499904	0.324667
C91	C	0.973444	-0.000088	-0.463095
C92	C	1.473444	0.499912	0.036905
C93	C	0.971679	-0.000087	-0.556399
C94	C	1.471679	0.499913	-0.056399
C95	C	1.134632	-0.000112	-0.577549
C96	C	1.634632	0.499888	-0.077549
C97	C	1.136397	-0.000116	-0.484250
C98	C	1.636397	0.499884	0.015750
C99	C	1.055799	-0.000104	-0.427026
C100	C	1.555799	0.499896	0.072974
C101	C	1.050400	-0.000103	0.287082
C102	C	1.550400	0.499897	0.787082
C103	C	1.052270	-0.000097	0.386378
C104	C	1.552270	0.499903	0.886378
H105	H	0.766065	-0.000068	0.275686
H106	H	1.266065	0.499932	0.775686
H107	H	1.204759	-0.303982	0.271694
H108	H	1.704759	0.196018	0.771694
C109	C	0.881082	-0.000057	-0.596081
C110	C	1.381082	0.499943	-0.096081
N111	N	0.812842	-0.000031	-0.625970
N112	N	1.312842	0.499969	-0.125970
C113	C	1.232433	-0.000147	-0.156813
C114	C	1.732433	0.499853	0.343187
N115	N	1.300674	-0.000153	-0.126936
N116	N	1.800674	0.499847	0.373064
H117	H	0.954786	-0.374190	0.021505
H118	H	1.454786	0.125810	0.521505
C119	C	1.226993	-0.000136	-0.444570
C120	C	1.726993	0.499864	0.055430
N121	N	1.295231	-0.000148	-0.414683
N122	N	1.795231	0.499852	0.085317
H123	H	0.907812	-0.000076	-0.416505
H124	H	1.407812	0.499924	0.083495
H125	H	1.205695	-0.000131	-0.336375
H126	H	1.705695	0.499869	0.163625
H127	H	0.913255	-0.000087	-0.128742
H128	H	1.413255	0.499913	0.371258
H129	H	0.478311	-0.000091	0.270253
H130	H	0.978311	0.499909	0.770253
H131	H	0.309053	-0.000122	0.267059
H132	H	0.809053	0.499878	0.767059
C133	C	0.580466	-0.000112	0.295524
C134	C	1.080466	0.499888	0.795524
N135	N	0.533059	-0.000132	0.362306
N136	N	1.033059	0.499868	0.862306
C137	C	1.258020	-0.535593	0.324976
C138	C	1.758020	-0.035593	0.824976
N139	N	1.311000	-0.584621	0.377989
N140	N	1.811000	-0.084621	0.877989
H141	H	0.347444	-0.000151	-0.028568
H142	H	0.847444	0.499849	0.471432
H143	H	0.516704	-0.000138	-0.025377
H144	H	1.016704	0.499862	0.474623
C145	C	0.886525	-0.000087	-0.308315
C146	C	1.386525	0.499913	0.191685
N147	N	0.818292	-0.000091	-0.338202
N148	N	1.318292	0.499909	0.161798
H149	H	0.908781	-0.696257	-0.024579
H150	H	1.408781	-0.196257	0.475421
H151	H	1.200257	-0.000118	-0.624146
H152	H	1.700257	0.499882	-0.124146
H153	H	0.804461	-0.000110	-0.019940
H154	H	1.304461	0.499890	0.480060
C155	C	0.989462	-0.287122	0.056229
C156	C	1.489462	0.212878	0.556229
N157	N	0.936477	-0.238119	0.003214
N158	N	1.436477	0.261881	0.503214
C159	C	0.624891	-0.000132	-0.046666
C160	C	1.124891	0.499868	0.453334
N161	N	0.595004	-0.000140	-0.114899
N162	N	1.095004	0.499860	0.385101
C163	C	0.855504	-0.464659	-0.077865
C164	C	1.355504	0.035341	0.422135
N165	N	0.802521	-0.415650	-0.130881
N166	N	1.302521	0.084350	0.369119
H167	H	1.133360	-0.803560	0.200192
H168	H	1.633360	-0.303560	0.700192
H169	H	1.214390	-0.696184	0.281279
H170	H	1.714390	-0.196184	0.781279
