data_functionalizedCrystal
_audit_creation_method	'MofGen! by Chris Wilmer'
_symmetry_space_group_name_H-M	'P1'
_symmetry_Int_Tables_number	1
_symmetry_cell_setting	triclinic
loop_
_symmetry_equiv_pos_as_xyz
  x,y,z
_cell_length_a	18.215407
_cell_length_b	12.827892
_cell_length_c	18.215399
_cell_angle_alpha	89.974036
_cell_angle_beta	90.017368
_cell_angle_gamma	89.977439
loop_
_atom_site_label
_atom_site_type_symbol
_atom_site_fract_x
_atom_site_fract_y
_atom_site_fract_z
Zn1	Zn	1.125071	0.416115	0.416078
Zn2	Zn	1.625071	0.916115	0.916078
Zn3	Zn	1.124979	0.590874	0.293016
Zn4	Zn	1.624979	1.090874	0.793016
Zn5	Zn	1.002003	0.416140	0.293030
Zn6	Zn	1.502003	0.916140	0.793030
Zn7	Zn	1.001969	0.590807	0.416046
Zn8	Zn	1.501969	1.090807	0.916046
O9	O	1.063505	0.503484	0.354542
O10	O	1.563505	1.003484	0.854542
O11	O	1.228043	0.439315	0.399760
O12	O	1.728043	0.939315	0.899760
O13	O	1.108642	0.567734	0.190033
O14	O	1.608642	1.067734	0.690033
O15	O	1.018381	0.269901	0.309372
O16	O	1.518381	0.769901	0.809372
O17	O	1.227975	0.567710	0.309347
O18	O	1.727975	1.067710	0.809347
O19	O	1.108799	0.269882	0.399775
O20	O	1.608799	0.769882	0.899775
O21	O	1.018292	0.439358	0.190044
O22	O	1.518292	0.939358	0.690044
O23	O	0.899014	0.439292	0.309341
O24	O	1.399014	0.939292	0.809341
O25	O	1.018322	0.567595	0.519034
O26	O	1.518322	1.067595	1.019034
O27	O	0.898989	0.567619	0.399720
O28	O	1.398989	1.067619	0.899720
O29	O	1.108765	0.439250	0.519058
O30	O	1.608765	0.939250	1.019058
O31	O	1.108608	0.737101	0.309316
O32	O	1.608608	1.237101	0.809316
O33	O	1.018233	0.737052	0.399706
O34	O	1.518233	1.237052	0.899706
C35	C	0.872299	0.503452	0.354529
C36	C	1.372299	1.003452	0.854529
C37	C	0.790500	0.503463	0.354541
C38	C	1.290500	1.003463	0.854541
C39	C	0.602340	0.436746	0.401694
C40	C	1.102340	0.936746	0.901694
C41	C	0.525482	0.436755	0.401696
C42	C	1.025482	0.936755	0.901696
C43	C	0.525422	0.570252	0.307404
C44	C	1.025422	1.070252	0.807404
C45	C	0.602280	0.570237	0.307398
C46	C	1.102280	1.070237	0.807398
C47	C	0.640737	0.503485	0.354547
C48	C	1.140737	1.003485	0.854547
C49	C	0.487021	0.503509	0.354555
C50	C	0.987021	1.003509	0.854555
C51	C	0.403687	0.503520	0.354558
C52	C	0.903687	1.003520	0.854558
C53	C	0.724076	0.503473	0.354544
C54	C	1.224076	1.003473	0.854544
C55	C	1.063427	0.774994	0.354522
C56	C	1.563427	1.274994	0.854522
C57	C	1.063461	0.891147	0.354538
C58	C	1.563461	1.391147	0.854538
C59	C	1.108176	0.942839	0.399311
C60	C	1.608176	1.442839	0.899311
C61	C	1.108212	1.062890	0.399329
C62	C	1.608212	1.562890	0.899329
C63	C	1.255458	0.503517	0.354556
C64	C	1.755458	1.003517	0.854556
C65	C	1.337257	0.503531	0.354561
C66	C	1.837257	1.003531	0.854561
C67	C	1.063550	0.503412	0.546495
C68	C	1.563550	1.003412	1.046495
C69	C	1.063569	0.503381	0.628294
C70	C	1.563569	1.003381	1.128294
C71	C	1.063574	1.230914	0.354573
C72	C	1.563574	1.730914	0.854573
C73	C	1.063527	1.114761	0.354570
C74	C	1.563527	1.614761	0.854570
C75	C	1.063503	0.503481	0.163336
C76	C	1.563503	1.003481	0.663336
C77	C	1.063627	0.503217	0.081538
C78	C	1.563627	1.003217	0.581538
C79	C	1.110680	0.436489	0.816502
C80	C	1.610680	0.936489	1.316502
C81	C	1.110688	0.436459	0.893360
C82	C	1.610688	0.936459	1.393360
C83	C	1.016511	0.570112	0.893325
C84	C	1.516511	1.070112	1.393325
C85	C	1.016499	0.570136	0.816467
C86	C	1.516499	1.070136	1.316467
C87	C	1.063588	0.503327	0.778058
C88	C	1.563588	1.003327	1.278058
C89	C	1.063608	0.503272	0.931774
C90	C	1.563608	1.003272	1.431774
C91	C	1.063617	0.503239	1.015108
C92	C	1.563617	1.003239	1.515108
C93	C	1.063578	0.503357	0.694719
C94	C	1.563578	1.003357	1.194719
H95	H	0.494223	0.382407	0.440087
H96	H	0.994223	0.882407	0.940087
H97	H	1.146429	0.898221	0.437633
H98	H	1.646429	1.398221	0.937633
F99	F	1.158255	1.120991	0.449429
F100	F	1.658255	1.620991	0.949429
H101	H	1.025245	1.070314	0.316233
H102	H	1.525245	1.570314	0.816233
F103	F	1.013452	0.949465	0.304455
F104	F	1.513452	1.449465	0.804455
F105	F	1.160793	0.365382	0.775626
F106	F	1.660793	0.865382	1.275626
F107	F	0.966402	0.641215	0.934209
F108	F	1.466402	1.141215	1.434209
H109	H	0.494101	0.624599	0.269017
H110	H	0.994101	1.124599	0.769017
H111	H	1.149034	0.382032	0.924658
H112	H	1.649034	0.882032	1.424658
H113	H	0.633650	0.382389	0.440083
H114	H	1.133650	0.882389	0.940083
F115	F	0.643146	0.641265	0.257209
F116	F	1.143146	1.141265	0.757209
H117	H	0.978146	0.624562	0.785166
H118	H	1.478146	1.124562	1.285166
