data_functionalizedCrystal
_audit_creation_method	'MofGen! by Chris Wilmer'
_symmetry_space_group_name_H-M	'P1'
_symmetry_Int_Tables_number	1
_symmetry_cell_setting	triclinic
loop_
_symmetry_equiv_pos_as_xyz
  x,y,z
_cell_length_a	14.519731
_cell_length_b	12.996460
_cell_length_c	14.519731
_cell_angle_alpha	90.007128
_cell_angle_beta	96.311147
_cell_angle_gamma	89.993310
loop_
_atom_site_label
_atom_site_type_symbol
_atom_site_fract_x
_atom_site_fract_y
_atom_site_fract_z
O1	O	-1.223866	0.085596	0.120985
O2	O	-0.723866	0.585596	0.620985
O3	O	-0.955393	0.085592	0.135201
O4	O	-0.455393	0.585592	0.635201
O5	O	-1.096737	0.085585	-0.006143
O6	O	-0.596737	0.585585	0.493857
O7	O	-1.082521	0.085603	0.262330
O8	O	-0.582521	0.585603	0.762330
O9	O	-1.096723	-0.085549	-0.006151
O10	O	-0.596723	0.414451	0.493849
O11	O	-0.955378	-0.085542	0.135193
O12	O	-0.455378	0.414458	0.635193
O13	O	-1.223851	-0.085538	0.120977
O14	O	-0.723851	0.414462	0.620977
Cu15	Cu	-1.089613	-0.101166	0.128085
Cu16	Cu	-0.589613	0.398834	0.628085
Cu17	Cu	-1.089631	0.101220	0.128094
Cu18	Cu	-0.589631	0.601220	0.628094
O19	O	-1.082507	-0.085531	0.262322
O20	O	-0.582507	0.414469	0.762322
C21	C	-0.921026	0.000025	0.134531
C22	C	-0.421026	0.500025	0.634531
C23	C	-0.818645	0.000023	0.132535
C24	C	-0.318645	0.500023	0.632535
N25	N	-1.089608	-0.243513	0.128078
N26	N	-0.589608	0.256487	0.628078
C27	C	-0.735501	0.000026	0.130913
C28	C	-0.235501	0.500026	0.630913
C29	C	-0.631192	0.000024	0.128887
C30	C	-0.131192	0.500024	0.628887
C31	C	-0.548053	0.000022	0.127278
C32	C	-0.048053	0.500022	0.627278
C33	C	-0.443738	0.000022	0.125252
C34	C	0.056262	0.500022	0.625252
C35	C	-1.089629	-0.663327	0.128095
C36	C	-0.589629	-0.163327	0.628095
C37	C	-1.089621	-0.546522	0.128093
C38	C	-0.589621	-0.046522	0.628093
C39	C	-1.089619	-0.453424	0.128087
C40	C	-0.589619	0.046576	0.628087
C41	C	-1.089609	-0.336611	0.128084
C42	C	-0.589609	0.163389	0.628084
C43	C	-0.258218	0.000027	0.121648
C44	C	0.241782	0.500027	0.621648
C45	C	-0.360598	0.000020	0.123644
C46	C	0.139402	0.500020	0.623644
C47	C	-1.096064	0.000018	-0.040507
C48	C	-0.596064	0.500018	0.459493
C49	C	-1.094068	0.000017	-0.142887
C50	C	-0.594068	0.500017	0.357113
N51	N	-1.089644	0.243567	0.128094
N52	N	-0.589644	0.743567	0.628094
C53	C	-1.092446	0.000019	-0.226031
C54	C	-0.592446	0.500019	0.273969
C55	C	-1.090419	0.000027	-0.330340
C56	C	-0.590419	0.500027	0.169660
C57	C	-1.088811	0.000034	-0.413479
C58	C	-0.588811	0.500034	0.086521
C59	C	-1.086785	0.000040	-0.517795
C60	C	-0.586785	0.500040	-0.017795
C61	C	-1.083180	0.000039	0.296685
C62	C	-0.583180	0.500039	0.796685
C63	C	-1.085176	0.000046	0.399066
C64	C	-0.585176	0.500046	0.899066
