data_functionalizedCrystal
_audit_creation_method	'MofGen! by Chris Wilmer'
_symmetry_space_group_name_H-M	'P1'
_symmetry_Int_Tables_number	1
_symmetry_cell_setting	triclinic
loop_
_symmetry_equiv_pos_as_xyz
  x,y,z
_cell_length_a	19.188933
_cell_length_b	19.188930
_cell_length_c	9.130313
_cell_angle_alpha	89.993647
_cell_angle_beta	90.001191
_cell_angle_gamma	83.145175
loop_
_atom_site_label
_atom_site_type_symbol
_atom_site_fract_x
_atom_site_fract_y
_atom_site_fract_z
O1	O	0.926140	0.087171	-0.121767
O2	O	0.722829	0.098904	-0.121783
O3	O	0.830352	-0.008618	-0.121746
O4	O	0.818617	0.194693	-0.121804
O5	O	0.830350	-0.008615	0.121853
O6	O	0.722828	0.098907	0.121816
O7	O	0.926139	0.087174	0.121832
Cu8	Cu	0.824483	0.093041	0.144067
Cu9	Cu	0.824485	0.093037	-0.144017
O10	O	0.818616	0.194696	0.121795
C11	C	0.696817	0.098525	0.000015
C12	C	0.619313	0.097384	0.000010
C13	C	0.066058	0.089237	-0.132757
C14	C	0.138882	0.090305	-0.132763
C15	C	0.175299	0.090844	0.000022
C16	C	0.138887	0.090297	0.132823
C17	C	0.066065	0.089222	0.132825
N18	N	0.284318	0.132264	0.098848
N19	N	0.353496	0.133287	0.098837
C20	C	0.394707	0.094082	0.000023
N21	N	0.364127	0.053825	-0.098801
N22	N	0.294942	0.052805	-0.098794
C23	C	0.254262	0.092009	0.000034
C24	C	0.510075	0.095782	-0.132776
C25	C	0.582901	0.096846	-0.132776
C26	C	0.582904	0.096845	0.132814
C27	C	0.510080	0.095774	0.132810
C28	C	0.473669	0.095246	0.000012
C29	C	0.829971	-0.034628	0.000058
C30	C	0.828830	-0.112132	0.000070
C31	C	0.891921	-0.157056	0.000082
C32	C	0.890849	-0.229880	0.000059
C33	C	0.826683	-0.257777	0.000053
C34	C	0.763584	-0.212843	0.000032
C35	C	0.764658	-0.140021	0.000041
N36	N	0.777635	-0.365781	0.082950
N37	N	0.776620	-0.434960	0.082945
C38	C	0.823445	-0.477185	0.000023
N39	N	0.871335	-0.447620	-0.082875
N40	N	0.872352	-0.378436	-0.082864
C41	C	0.825512	-0.336739	0.000042
C42	C	0.885378	-0.601073	0.000007
C43	C	0.884304	-0.673898	-0.000026
C44	C	0.757037	-0.656860	-0.000037
C45	C	0.758113	-0.584037	-0.000019
C46	C	0.822286	-0.556148	0.000010
C47	C	0.952150	0.087553	0.000031
C48	C	1.029655	0.088694	0.000026
C49	C	0.818997	0.220705	-0.000012
C50	C	0.820137	0.298210	-0.000034
N51	N	0.824487	0.093042	0.346689
N52	N	0.824486	0.093030	-0.346640
C53	C	0.872110	0.045448	0.423357
C54	C	0.872108	0.045439	0.576694
C55	C	0.776858	0.140627	0.576681
C56	C	0.776857	0.140631	0.423347
C57	C	0.927104	-0.009506	0.423366
C58	C	0.927102	-0.009514	0.576703
H59	H	0.480439	0.095334	0.240937
H60	H	0.738073	0.179380	0.360925
H61	H	0.944175	-0.134354	0.000101
H62	H	0.910734	-0.060034	0.624263
H63	H	0.915813	-0.063037	0.381761
C64	C	0.960252	-0.279304	0.000082
H65	H	0.998623	-0.252265	0.000110
H66	H	0.962483	-0.308063	-0.084864
H67	H	0.962469	-0.308069	0.085043
C68	C	0.724474	0.192974	0.661009
H69	H	0.731296	0.186158	0.763310
H70	H	0.677902	0.185507	0.635876
H71	H	0.731915	0.239557	0.635878
C72	C	0.693004	-0.243527	0.000031
H73	H	0.701400	-0.293332	0.000043
H74	H	0.667034	-0.228088	-0.084918
H75	H	0.667036	-0.228098	0.084989
C76	C	0.995321	0.012655	0.359106
H77	H	1.025701	0.022518	0.436594
H78	H	0.984550	0.053437	0.300536
H79	H	1.017803	-0.024327	0.300557
C80	C	0.999396	0.005797	0.632935
H81	H	1.029126	0.012107	0.552008
H82	H	1.019714	-0.032510	0.690738
H83	H	0.993944	0.047254	0.690735
H84	H	0.036418	0.088804	-0.240893
C85	C	0.470020	0.095205	-0.278845
H86	H	0.502135	0.095674	-0.357930
H87	H	0.436168	0.135496	-0.284361
H88	H	0.447057	0.054079	-0.284367
C89	C	0.178937	0.090906	-0.278826
H90	H	0.227523	0.091617	-0.259805
H91	H	0.161553	0.131437	-0.333391
H92	H	0.172455	0.050020	-0.333385
C93	C	0.178941	0.090893	0.278882
H94	H	0.227525	0.091618	0.259864
H95	H	0.172460	0.050010	0.333455
H96	H	0.161555	0.131427	0.333431
H97	H	0.713280	-0.103444	0.000032
C98	C	0.622945	0.097444	-0.278846
H99	H	0.590827	0.096983	-0.357929
H100	H	0.656802	0.057157	-0.284371
H101	H	0.645903	0.138574	-0.284363
H102	H	0.937631	-0.578365	0.000024
H103	H	0.935682	-0.710475	-0.000024
C104	C	0.686455	-0.687538	-0.000048
H105	H	0.694851	-0.737343	-0.000046
H106	H	0.660487	-0.672095	-0.084997
H107	H	0.660487	-0.672112	0.084910
H108	H	0.612553	0.097281	0.240930
H109	H	0.706738	-0.547459	-0.000021
H110	H	0.036425	0.088782	0.240957
