data_functionalizedCrystal
_audit_creation_method	'MofGen! by Chris Wilmer'
_symmetry_space_group_name_H-M	'P1'
_symmetry_Int_Tables_number	1
_symmetry_cell_setting	triclinic
loop_
_symmetry_equiv_pos_as_xyz
  x,y,z
_cell_length_a	13.262390
_cell_length_b	19.188930
_cell_length_c	12.376457
_cell_angle_alpha	101.232575
_cell_angle_beta	63.168449
_cell_angle_gamma	83.812523
loop_
_atom_site_label
_atom_site_type_symbol
_atom_site_fract_x
_atom_site_fract_y
_atom_site_fract_z
O1	O	1.512329	0.014815	-0.558987
O2	O	1.185083	0.039300	-0.458378
O3	O	1.358145	-0.074963	-0.511562
O4	O	1.339268	0.129078	-0.505803
O5	O	1.314895	-0.046434	-0.310259
O6	O	1.141833	0.067828	-0.257075
O7	O	1.469079	0.043344	-0.357684
Zn8	Zn	1.298590	0.060116	-0.275418
Zn9	Zn	1.355573	0.022528	-0.540644
O10	O	1.296018	0.157606	-0.304499
C11	C	1.121592	0.054816	-0.344854
C12	C	0.996842	0.058536	-0.306500
C13	C	0.739506	0.006806	-0.637326
C14	C	0.856716	0.003307	-0.673364
C15	C	0.891754	0.017114	-0.581651
C16	C	0.809569	0.034420	-0.453894
C17	C	0.692349	0.037914	-0.417853
C18	C	0.844596	0.048222	-0.362178
C19	C	0.762411	0.065528	-0.234421
C20	C	0.645203	0.069022	-0.198386
C21	C	0.610166	0.055215	-0.290099
C22	C	0.961816	0.044728	-0.398219
C23	C	0.914659	0.075836	-0.178746
C24	C	0.797449	0.079335	-0.142708
C25	C	1.335907	-0.086685	-0.410719
C26	C	1.334069	-0.164117	-0.410144
C27	C	1.435618	-0.212996	-0.441359
C28	C	1.433897	-0.285756	-0.440848
C29	C	1.330617	-0.309628	-0.409096
C30	C	1.229056	-0.260739	-0.377884
C31	C	1.230783	-0.187983	-0.378408
N32	N	1.236952	-0.404849	-0.316318
N33	N	1.235319	-0.473964	-0.315819
C34	C	1.325410	-0.528837	-0.407518
N35	N	1.417210	-0.511984	-0.499724
N36	N	1.418846	-0.442862	-0.500218
C37	C	1.328734	-0.388519	-0.408525
C38	C	1.425100	-0.656612	-0.438183
C39	C	1.423377	-0.729373	-0.437678
C40	C	1.218530	-0.704353	-0.374701
C41	C	1.220259	-0.631596	-0.375219
C42	C	1.323546	-0.607729	-0.406955
C43	C	1.532572	0.027828	-0.471210
C44	C	1.657323	0.024107	-0.509572
C45	C	1.318256	0.169328	-0.405345
C46	C	1.320096	0.246759	-0.405928
N47	N	1.259708	0.085767	-0.094411
N48	N	1.394464	-0.003130	-0.721654
C49	C	1.484720	-0.062689	0.191425
C50	C	1.511927	-0.080643	0.064724
C51	C	1.448874	-0.039042	0.024934
C52	C	1.358611	0.020516	0.111858
C53	C	1.331407	0.038475	0.238569
C54	C	1.295561	0.062122	0.072078
C55	C	1.205297	0.121680	0.159002
C56	C	1.178098	0.139635	0.285700
C57	C	1.241150	0.098034	0.325491
C58	C	1.322765	0.044163	-0.054633
C59	C	1.169451	0.145327	-0.007489
C60	C	1.142245	0.163281	0.119212
H61	H	0.514725	0.058065	-0.260763
O62	O	0.565512	0.085869	-0.074229
C63	C	0.531121	0.116313	0.139652
C64	C	0.621484	0.097258	-0.000908
H65	H	0.576342	0.125512	0.198970
H66	H	0.464553	0.168007	0.165306
H67	H	0.485570	0.069470	0.158732
H68	H	0.667120	0.144055	-0.020090
H69	H	0.687977	0.045541	-0.026492
H70	H	1.028720	0.030639	-0.502240
H71	H	1.536055	-0.096552	0.223830
H72	H	1.585420	-0.129133	-0.006045
H73	H	1.471030	-0.053662	-0.078233
H74	H	1.516594	-0.325562	-0.466273
H75	H	1.118110	0.179204	-0.039884
O76	O	1.132172	-0.140406	-0.347940
C77	C	0.992795	-0.028998	-0.207645
C78	C	1.104495	-0.082813	-0.242032
H79	H	0.970370	0.017570	-0.122000
H80	H	1.006558	-0.006181	-0.290498
H81	H	0.918710	-0.058579	-0.184932
H82	H	1.178633	-0.053284	-0.264721
H83	H	1.090634	-0.105630	-0.159156
H84	H	1.396258	-0.004329	-0.125396
H85	H	0.710968	-0.004440	-0.711985
O86	O	1.090280	0.197422	0.370128
C87	C	0.886360	0.251774	0.469005
C88	C	0.985698	0.186278	0.373380
H89	H	0.801786	0.242794	0.471646
H90	H	0.877647	0.257473	0.566443
H91	H	0.906132	0.303575	0.439651
H92	H	0.965999	0.134441	0.402617
H93	H	0.994387	0.180644	0.275966
O94	O	1.118115	-0.727422	-0.343880
C95	C	0.915107	-0.694917	-0.281400
C96	C	1.028754	-0.668695	-0.316303
H97	H	0.842823	-0.647447	-0.259068
H98	H	0.927204	-0.740257	-0.363823
H99	H	0.891143	-0.716455	-0.195375
H100	H	1.052782	-0.647120	-0.402294
H101	H	1.016596	-0.623386	-0.233809
H102	H	1.218996	0.112650	0.428661
O103	O	0.936388	-0.013482	-0.797509
C104	C	0.970796	-0.044019	-1.011395
C105	C	0.880441	-0.024995	-0.870836
H106	H	0.925601	-0.053347	-1.070720
H107	H	1.016320	0.002824	-1.030613
H108	H	1.037383	-0.095673	-1.036910
H109	H	0.813783	0.026639	-0.845223
H110	H	0.835006	-0.071880	-0.851693
O111	O	0.717738	0.096053	-0.018576
C112	C	0.654544	0.062704	0.176025
C113	C	0.744910	0.043697	0.035473
H114	H	0.676467	0.020377	0.219759
H115	H	0.655449	0.118924	0.226355
H116	H	0.564759	0.062859	0.185993
H117	H	0.834739	0.043501	0.025389
H118	H	0.743904	-0.012510	-0.014791
O119	O	1.121686	-0.584112	-0.345106
C120	C	1.027181	-0.502185	-0.413411
C121	C	1.138884	-0.555955	-0.447683
H122	H	1.041055	-0.479393	-0.496314
H123	H	0.953040	-0.531718	-0.390694
H124	H	1.004773	-0.455595	-0.327803
H125	H	1.161399	-0.602558	-0.533311
H126	H	1.212959	-0.526368	-0.470321
H127	H	1.068750	0.211774	0.190000
O128	O	1.128624	-0.283817	-0.346857
C129	C	0.930630	-0.269956	-0.188562
C130	C	1.044291	-0.243741	-0.223540
H131	H	0.862423	-0.237578	-0.088849
H132	H	0.898478	-0.261383	-0.257306
H133	H	0.946878	-0.330362	-0.193613
H134	H	1.028137	-0.183333	-0.218477
H135	H	1.076408	-0.252368	-0.154792
H136	H	0.943184	0.087078	-0.104065
H137	H	0.987193	0.014265	-0.611001
H138	H	1.519723	-0.193570	-0.467205
H139	H	1.509203	-0.637180	-0.464030
H140	H	1.506075	-0.769173	-0.463105
