data_functionalizedCrystal
_audit_creation_method	'MofGen! by Chris Wilmer'
_symmetry_space_group_name_H-M	'P1'
_symmetry_Int_Tables_number	1
_symmetry_cell_setting	triclinic
loop_
_symmetry_equiv_pos_as_xyz
  x,y,z
_cell_length_a	17.638686
_cell_length_b	17.637651
_cell_length_c	21.395355
_cell_angle_alpha	101.232233
_cell_angle_beta	101.215298
_cell_angle_gamma	87.823829
loop_
_atom_site_label
_atom_site_type_symbol
_atom_site_fract_x
_atom_site_fract_y
_atom_site_fract_z
Zn1	Zn	1.099862	-0.537652	0.443956
Zn2	Zn	1.074105	-0.664623	0.314694
Zn3	Zn	0.972862	-0.511924	0.323005
Zn4	Zn	0.947190	-0.638893	0.403261
O5	O	1.023505	-0.588273	0.371229
O6	O	1.202709	-0.576030	0.440362
O7	O	1.060639	-0.644369	0.228113
O8	O	1.011232	-0.409063	0.359559
O9	O	1.183786	-0.669316	0.345394
O10	O	1.104539	-0.427964	0.448421
O11	O	0.986257	-0.532182	0.234219
O12	O	0.863193	-0.507232	0.320098
O13	O	0.967478	-0.625461	0.496343
O14	O	0.844331	-0.600514	0.379061
O15	O	1.079645	-0.551080	0.526242
O16	O	1.035746	-0.767485	0.305933
O17	O	0.942502	-0.748581	0.371003
C18	C	0.826209	-0.548290	0.346066
C19	C	0.741801	-0.531203	0.335312
C20	C	0.415123	-0.718245	0.453048
C21	C	0.335810	-0.702183	0.442929
C22	C	0.355447	-0.604897	0.381684
C23	C	0.434763	-0.620953	0.391795
C24	C	0.464594	-0.677628	0.427478
C25	C	0.484234	-0.580336	0.366225
C26	C	0.563543	-0.596389	0.376339
C27	C	0.593381	-0.653059	0.412022
C28	C	0.543903	-0.693681	0.437592
C29	C	0.454402	-0.523658	0.330546
C30	C	0.503873	-0.483041	0.304976
C31	C	0.583183	-0.499097	0.315086
C32	C	0.613021	-0.555767	0.350769
C33	C	0.632661	-0.458475	0.289516
C34	C	0.711970	-0.474528	0.299629
C35	C	0.692330	-0.571820	0.360882
C36	C	0.983564	-0.785593	0.333166
C37	C	0.966547	-0.870021	0.316913
C38	C	1.153278	-1.196566	0.494966
C39	C	1.137263	-1.275894	0.479679
C40	C	1.040168	-1.256332	0.387078
C41	C	1.056177	-1.177001	0.402355
C42	C	1.112732	-1.147125	0.456300
C43	C	1.015631	-1.127560	0.363689
C44	C	1.031637	-1.048235	0.378967
C45	C	1.088187	-1.018352	0.432911
C46	C	1.128737	-1.067800	0.471578
C47	C	0.959073	-1.157437	0.309747
C48	C	0.918527	-1.107996	0.271081
C49	C	0.934536	-1.028670	0.286356
C50	C	0.991087	-0.998787	0.340300
C51	C	0.893986	-0.979222	0.247689
C52	C	0.909992	-0.899897	0.262967
C53	C	1.007092	-0.919462	0.355578
C54	C	1.221571	-0.628413	0.396491
C55	C	1.305975	-0.645519	0.407256
C56	C	1.023571	-0.588270	0.534663
C57	C	1.023599	-0.588269	0.604309
C58	C	1.063622	-0.390187	0.409457
C59	C	1.080718	-0.305775	0.425747
C60	C	1.023494	-0.588230	0.208447
C61	C	1.023656	-0.588047	0.138861
C62	C	1.082003	-0.549537	0.652592
C63	C	1.082009	-0.549504	0.718034
C64	C	1.023615	-0.588219	0.735188
C65	C	0.965201	-0.626953	0.686896
C66	C	0.965193	-0.626978	0.621457
C67	C	1.003778	-0.655387	0.824908
C68	C	1.003791	-0.655364	0.890347
C69	C	1.023636	-0.588140	0.937025
C70	C	1.043485	-0.520939	0.918260
C71	C	1.043477	-0.520965	0.852820
C72	C	1.023618	-0.588195	0.806145
C73	C	1.082050	-0.549368	1.056268
C74	C	1.082050	-0.549332	1.121711
C75	C	0.965246	-0.626789	1.090571
C76	C	0.965243	-0.626817	1.025131
C77	C	1.023648	-0.588108	1.007984
H78	H	0.389824	-0.510586	0.322317
H79	H	1.129609	-0.517787	1.161024
C80	C	0.576727	-0.756020	0.476844
H81	H	0.631045	-0.759762	0.479202
H82	H	0.565981	-0.742354	0.519430
H83	H	0.553411	-0.804407	0.456106
C84	C	0.725153	-0.634159	0.400134
H85	H	0.779472	-0.637901	0.402492
H86	H	0.714408	-0.620493	0.442721
H87	H	0.701838	-0.682546	0.379396
H88	H	0.847934	-1.003559	0.203771
H89	H	0.946036	-1.222028	0.297315
H90	H	0.987633	-0.710083	0.905620
C91	C	0.856325	-1.140866	0.211743
H92	H	0.852602	-1.195190	0.208178
H93	H	0.807913	-1.117557	0.216861
H94	H	0.870096	-1.130137	0.173576
H95	H	0.876974	-0.859641	0.231482
H96	H	1.129561	-0.518016	0.638636
C97	C	0.981947	-0.729336	0.773564
H98	H	0.984777	-0.719726	0.731902
H99	H	1.016787	-0.769649	0.783408
H100	H	0.930796	-0.744245	0.773700
H101	H	0.917630	-0.658517	0.582143
C102	C	1.146260	-0.506903	0.771152
H103	H	1.181045	-0.483859	0.751567
H104	H	1.123924	-0.467916	0.799353
H105	H	1.173461	-0.542664	0.795301
H106	H	1.101218	-0.953760	0.445349
C107	C	1.190932	-1.034927	0.530928
H108	H	1.212783	-1.075732	0.551775
H109	H	1.230284	-1.010667	0.517182
H110	H	1.168084	-0.998108	0.560452
H111	H	0.439412	-0.764399	0.482101
H112	H	0.994119	-1.280669	0.343157
C113	C	1.065299	-0.447051	0.832174
H114	H	1.062455	-0.456699	0.786516
H115	H	1.030461	-0.406730	0.843778
H116	H	1.116452	-0.432131	0.853485
H117	H	0.917656	-0.658472	0.700868
H118	H	0.295532	-0.735260	0.463757
C119	C	1.065801	-0.447134	0.969651
H120	H	1.063103	-0.456782	1.011328
H121	H	1.117000	-0.432580	0.969315
H122	H	1.031198	-0.406552	0.960038
C123	C	1.146282	-0.506775	1.037404
H124	H	1.181059	-0.483690	1.075535
H125	H	1.173487	-0.542536	1.010503
H126	H	1.123921	-0.467807	1.014543
C127	C	0.322627	-0.542563	0.342431
H128	H	0.268307	-0.538823	0.340065
H129	H	0.345948	-0.494181	0.363160
H130	H	0.333370	-0.556243	0.299841
C131	C	0.901018	-0.669381	1.109434
H132	H	0.909390	-0.663824	1.155322
H133	H	0.852243	-0.647937	1.094332
H134	H	0.901807	-0.722667	1.090292
C135	C	0.901002	-0.669430	0.972018
H136	H	0.866228	-0.692488	0.991605
H137	H	0.873797	-0.633684	0.947862
H138	H	0.923350	-0.708421	0.943823
H139	H	0.479574	-0.436894	0.275925
C140	C	0.599840	-0.396136	0.250269
H141	H	0.545521	-0.392395	0.247907
H142	H	0.623163	-0.347756	0.271002
H143	H	0.610579	-0.409809	0.207677
C144	C	0.766394	-0.429854	0.271504
H145	H	0.817901	-0.447528	0.282644
H146	H	0.751146	-0.438259	0.225602
H147	H	0.763721	-0.376209	0.288928
C148	C	1.069306	-0.886590	0.414913
H149	H	1.073032	-0.832267	0.418470
H150	H	1.055554	-0.897319	0.453084
H151	H	1.117720	-0.909897	0.409782
H152	H	1.199336	-1.172241	0.538890
C153	C	1.181874	-1.330280	0.522211
H154	H	1.217851	-1.301123	0.556522
H155	H	1.146567	-1.355346	0.539823
H156	H	1.208738	-1.367917	0.496525
H157	H	0.657960	-0.666124	0.420260
