data_functionalizedCrystal
_audit_creation_method	'MofGen! by Chris Wilmer'
_symmetry_space_group_name_H-M	'P1'
_symmetry_Int_Tables_number	1
_symmetry_cell_setting	triclinic
loop_
_symmetry_equiv_pos_as_xyz
  x,y,z
_cell_length_a	25.639243
_cell_length_b	25.639239
_cell_length_c	25.639233
_cell_angle_alpha	89.981253
_cell_angle_beta	90.001040
_cell_angle_gamma	89.958085
loop_
_atom_site_label
_atom_site_type_symbol
_atom_site_fract_x
_atom_site_fract_y
_atom_site_fract_z
Zn1	Zn	0.799225	0.208169	0.295448
Zn2	Zn	1.299225	0.708169	0.795448
Zn3	Zn	0.799149	0.295588	0.208012
Zn4	Zn	1.299149	0.795588	0.708012
Zn5	Zn	0.711801	0.208174	0.208044
Zn6	Zn	1.211801	0.708174	0.708044
Zn7	Zn	0.711746	0.295581	0.295434
Zn8	Zn	1.211746	0.795581	0.795434
O9	O	0.755480	0.251878	0.251734
O10	O	1.255480	0.751878	0.751734
O11	O	0.872380	0.219767	0.283841
O12	O	1.372380	0.719767	0.783841
O13	O	0.787553	0.283997	0.134851
O14	O	1.287553	0.783997	0.634851
O15	O	0.723453	0.135008	0.219657
O16	O	1.223453	0.635008	0.719657
O17	O	0.872324	0.283993	0.219603
O18	O	1.372324	0.783993	0.719603
O19	O	0.787683	0.135005	0.283872
O20	O	1.287683	0.635005	0.783872
O21	O	0.723379	0.219774	0.134874
O22	O	1.223379	0.719774	0.634874
O23	O	0.638629	0.219767	0.219644
O24	O	1.138629	0.719767	0.719644
O25	O	0.723360	0.283980	0.368601
O26	O	1.223360	0.783980	0.868601
O27	O	0.638589	0.283984	0.283849
O28	O	1.138589	0.783984	0.783849
O29	O	0.787630	0.219760	0.368611
O30	O	1.287630	0.719760	0.868611
O31	O	0.787499	0.368752	0.219590
O32	O	1.287499	0.868752	0.719590
O33	O	0.723286	0.368747	0.283818
O34	O	1.223286	0.868747	0.783818
C35	C	0.755392	0.387721	0.251710
C36	C	1.255392	0.887721	0.751710
C37	C	0.755403	0.445835	0.251718
C38	C	1.255403	0.945835	0.751718
C39	C	0.619638	0.251876	0.251749
C40	C	1.119638	0.751876	0.751749
C41	C	0.561524	0.251887	0.251768
C42	C	1.061524	0.751887	0.751768
C43	C	0.891853	0.251881	0.251720
C44	C	1.391853	0.751881	0.751720
C45	C	0.949967	0.251882	0.251714
C46	C	1.449967	0.751882	0.751714
C47	C	1.310365	0.218449	0.285200
C48	C	1.810365	0.718449	0.785200
C49	C	1.364970	0.218451	0.285205
C50	C	1.864970	0.718451	0.785205
O51	O	1.393236	0.190027	0.313663
O52	O	1.893236	0.690027	0.813663
N53	N	1.392250	0.251888	0.251760
N54	N	1.892250	0.751888	0.751760
C55	C	1.364923	0.285331	0.218312
C56	C	1.864923	0.785331	0.718312
O57	O	1.393141	0.313773	0.189865
O58	O	1.893141	0.813773	0.689865
C59	C	1.310320	0.285331	0.218310
C60	C	1.810320	0.785331	0.718310
C61	C	1.283042	0.251888	0.251753
C62	C	1.783042	0.751888	0.751753
C63	C	1.283088	0.185009	0.318641
C64	C	1.783088	0.685009	0.818641
C65	C	1.228487	0.185007	0.318635
C66	C	1.728487	0.685007	0.818635
C67	C	1.201164	0.218445	0.285189
C68	C	1.701164	0.718445	0.785189
C69	C	1.228442	0.251886	0.251747
C70	C	1.728442	0.751886	0.751747
C71	C	1.282994	0.318776	0.184865
C72	C	1.782994	0.818776	0.684865
C73	C	1.228387	0.318774	0.184866
C74	C	1.728387	0.818774	0.684866
C75	C	1.201109	0.285330	0.218309
C76	C	1.701109	0.785330	0.718309
C77	C	1.146518	0.285322	0.218295
C78	C	1.646518	0.785322	0.718295
N79	N	1.119238	0.251884	0.251739
N80	N	1.619238	0.751884	0.751739
C81	C	1.146561	0.218446	0.285186
C82	C	1.646561	0.718446	0.785186
C83	C	1.479594	0.285327	0.218319
C84	C	1.979594	0.785327	0.718319
C85	C	1.534196	0.285324	0.218318
C86	C	2.034196	0.785324	0.718318
C87	C	1.534239	0.218445	0.285213
C88	C	2.034239	0.718445	0.785213
C89	C	1.479636	0.218445	0.285211
C90	C	1.979636	0.718445	0.785211
C91	C	1.452313	0.251889	0.251764
C92	C	1.952313	0.751889	0.751764
C93	C	1.031896	0.218444	0.285171
C94	C	1.531896	0.718444	0.785171
C95	C	0.977290	0.218443	0.285161
C96	C	1.477290	0.718443	0.785161
C97	C	0.977252	0.285324	0.218269
C98	C	1.477252	0.785324	0.718269
C99	C	1.031853	0.285323	0.218277
C100	C	1.531853	0.785323	0.718277
C101	C	1.059173	0.251881	0.251732
C102	C	1.559173	0.751881	0.751732
O103	O	1.118217	0.313733	0.189853
O104	O	1.618217	0.813733	0.689853
O105	O	1.118336	0.190014	0.313633
O106	O	1.618336	0.690014	0.813633
C107	C	0.755497	0.251869	0.388107
C108	C	1.255497	0.751869	0.888107
C109	C	0.755504	0.251865	0.446221
C110	C	1.255504	0.751865	0.946221
C111	C	0.755583	0.115505	0.251770
C112	C	1.255583	0.615505	0.751770
C113	C	0.755627	0.057391	0.251785
C114	C	1.255627	0.557391	0.751785
C115	C	0.789004	0.806188	0.218347
C116	C	1.289004	1.306188	0.718347
C117	C	0.789024	0.860792	0.218354
C118	C	1.289024	1.360792	0.718354
O119	O	0.817502	0.889021	0.189956
O120	O	1.317502	1.389021	0.689956
N121	N	0.755572	0.888117	0.251769
N122	N	1.255572	1.388117	0.751769
C123	C	0.722102	0.860835	0.285182
C124	C	1.222102	1.360835	0.785182
O125	O	0.693651	0.889090	0.313605
O126	O	1.193651	1.389090	0.813605
C127	C	0.722085	0.806231	0.285178
C128	C	1.222085	1.306231	0.785178
C129	C	0.755535	0.778909	0.251757
C130	C	1.255535	1.278909	0.751757
C131	C	0.822452	0.778866	0.184930
C132	C	1.322452	1.278866	0.684930
C133	C	0.822431	0.724265	0.184923
C134	C	1.322431	1.224265	0.684923
C135	C	0.788962	0.696987	0.218332
C136	C	1.288962	1.196987	0.718332
C137	C	0.755514	0.724309	0.251750
C138	C	1.255514	1.224309	0.751750
C139	C	0.688617	0.778950	0.318593
C140	C	1.188617	1.278950	0.818593
C141	C	0.688603	0.724343	0.318586
C142	C	1.188603	1.224343	0.818586
C143	C	0.722053	0.697021	0.285166
C144	C	1.222053	1.197021	0.785166
C145	C	0.722024	0.642430	0.285152
C146	C	1.222024	1.142430	0.785152
N147	N	0.755475	0.615105	0.251737
N148	N	1.255475	1.115105	0.751737
C149	C	0.788944	0.642384	0.218328
C150	C	1.288944	1.142384	0.718328
C151	C	0.722141	0.975505	0.285191
C152	C	1.222141	1.475505	0.785191
C153	C	0.722155	1.030107	0.285193
C154	C	1.222155	1.530107	0.785193
C155	C	0.789078	1.030061	0.218366
C156	C	1.289078	1.530061	0.718366
C157	C	0.789061	0.975458	0.218361
C158	C	1.289061	1.475458	0.718361
C159	C	0.755593	0.948180	0.251776
C160	C	1.255593	1.448180	0.751776
C161	C	0.788897	0.527719	0.218314
C162	C	1.288897	1.027719	0.718314
C163	C	0.788872	0.473113	0.218308
C164	C	1.288872	0.973113	0.718308
C165	C	0.721951	0.473164	0.285137
C166	C	1.221951	0.973164	0.785137
C167	C	0.721974	0.527765	0.285141
C168	C	1.221974	1.027765	0.785141
C169	C	0.755452	0.555041	0.251728
C170	C	1.255452	1.055041	0.751728
O171	O	0.693562	0.614167	0.313538
O172	O	1.193562	1.114167	0.813538
O173	O	0.817396	0.614121	0.189915
O174	O	1.317396	1.114121	0.689915
C175	C	0.755494	0.251849	0.115892
C176	C	1.255494	0.751849	0.615892
C177	C	0.755588	0.251706	0.057778
C178	C	1.255588	0.751706	0.557778
C179	C	0.789012	0.218326	0.806595
C180	C	1.289012	0.718326	1.306595
C181	C	0.789019	0.218311	0.861200
C182	C	1.289019	0.718311	1.361200
O183	O	0.817466	0.189857	0.889446
O184	O	1.317466	0.689857	1.389446
N185	N	0.755562	0.251742	0.888504
N186	N	1.255562	0.751742	1.388504
C187	C	0.722093	0.285186	0.861201
C188	C	1.222093	0.785186	1.361201
O189	O	0.693636	0.313620	0.889440
O190	O	1.193636	0.813620	1.389440
C191	C	0.722084	0.285197	0.806598
C192	C	1.222084	0.785197	1.306598
C193	C	0.755547	0.251768	0.779296
C194	C	1.255547	0.751768	1.279296
C195	C	0.822472	0.184899	0.779294
C196	C	1.322472	0.684899	1.279294
C197	C	0.822466	0.184914	0.724693
C198	C	1.322466	0.684914	1.224693
C199	C	0.789000	0.218356	0.697394
C200	C	1.289000	0.718356	1.197394
C201	C	0.755541	0.251783	0.724696
C202	C	1.255541	0.751783	1.224696
C203	C	0.688613	0.318638	0.779296
C204	C	1.188613	0.818638	1.279296
C205	C	0.688607	0.318647	0.724689
C206	C	1.188607	0.818647	1.224689
C207	C	0.722069	0.285217	0.697388
C208	C	1.222069	0.785217	1.197388
C209	C	0.722070	0.285241	0.642796
C210	C	1.222070	0.785241	1.142796
N211	N	0.755526	0.251810	0.615492
N212	N	1.255526	0.751810	1.115492
C213	C	0.788992	0.218368	0.642791
C214	C	1.288992	0.718368	1.142791
C215	C	0.722113	0.285159	0.975872
C216	C	1.222113	0.785159	1.475872
C217	C	0.722124	0.285150	1.030474
C218	C	1.222124	0.785150	1.530474
C219	C	0.789049	0.218275	1.030469
C220	C	1.289049	0.718275	1.530469
C221	C	0.789041	0.218286	0.975866
C222	C	1.289041	0.718286	1.475866
C223	C	0.755570	0.251728	0.948568
C224	C	1.255570	0.751728	1.448568
C225	C	0.788977	0.218403	0.528126
C226	C	1.288977	0.718403	1.028126
C227	C	0.788970	0.218423	0.473520
C228	C	1.288970	0.718423	0.973520
C229	C	0.722043	0.285296	0.473531
C230	C	1.222043	0.785296	0.973531
C231	C	0.722052	0.285278	0.528131
C232	C	1.222052	0.785278	1.028131
C233	C	0.755521	0.251827	0.555427
C234	C	1.255521	0.751827	1.055427
O235	O	0.693635	0.313679	0.614516
O236	O	1.193635	0.813679	1.114516
O237	O	0.817439	0.189934	0.614546
O238	O	1.317439	0.689934	1.114546
H239	H	0.955084	0.191207	0.312394
H240	H	1.455084	0.691207	0.812394
Cl241	Cl	0.942893	0.327359	0.176223
Cl242	Cl	1.442893	0.827359	0.676223
Cl243	Cl	1.445251	0.327369	0.176262
Cl244	Cl	1.945251	0.827369	0.676262
Cl245	Cl	1.317272	0.360814	0.142811
Cl246	Cl	1.817272	0.860814	0.642811
H247	H	1.457430	0.191212	0.312443
H248	H	1.957430	0.691212	0.812443
H249	H	1.556495	0.191217	0.312447
H250	H	2.056495	0.691217	0.812447
Cl251	Cl	0.679973	0.327334	0.439202
Cl252	Cl	1.179973	0.827334	0.939202
Cl253	Cl	1.194042	0.360824	0.142819
Cl254	Cl	1.694042	0.860824	0.642819
H255	H	1.054134	0.191212	0.312414
H256	H	1.554134	0.691212	0.812414
H257	H	1.305329	0.157778	0.345881
H258	H	1.805329	0.657778	0.845881
H259	H	1.556401	0.312552	0.191080
H260	H	2.056401	0.812552	0.691080
H261	H	0.694699	0.450945	0.312337
H262	H	1.194699	0.950945	0.812337
H263	H	0.816221	0.191200	0.451294
H264	H	1.316221	0.691200	0.951294
H265	H	1.206283	0.157775	0.345871
H266	H	1.706283	0.657775	0.845871
H267	H	0.849714	0.157691	0.702469
H268	H	1.349714	0.657691	1.202469
H269	H	1.054063	0.312551	0.191040
H270	H	1.554063	0.812551	0.691040
H271	H	0.816159	0.549920	0.191107
H272	H	1.316159	1.049920	0.691107
H273	H	0.816111	0.450869	0.191091
H274	H	1.316111	0.950869	0.691091
Cl275	Cl	0.831108	0.176258	0.941550
Cl276	Cl	1.331108	0.676258	1.441550
Cl277	Cl	0.864555	0.142858	0.813603
Cl278	Cl	1.364555	0.642858	1.313603
Cl279	Cl	0.864493	0.689926	0.142914
Cl280	Cl	1.364493	1.189926	0.642914
H281	H	0.849709	0.801070	0.157724
H282	H	1.349709	1.301070	0.657724
H283	H	0.816300	0.953216	0.191147
H284	H	1.316300	1.453216	0.691147
H285	H	0.816298	0.191043	1.052706
H286	H	1.316298	0.691043	1.552706
Cl287	Cl	0.831153	1.064365	0.176363
Cl288	Cl	1.331153	1.564365	0.676363
Cl289	Cl	0.680096	1.064448	0.327203
Cl290	Cl	1.180096	1.564448	0.827203
H291	H	0.694857	0.312394	0.953649
H292	H	1.194857	0.812394	1.453649
H293	H	0.694883	0.953298	0.312400
H294	H	1.194883	1.453298	0.812400
Cl295	Cl	0.680063	0.327186	1.064789
Cl296	Cl	1.180063	0.827186	1.564789
H297	H	0.661376	0.801186	0.345806
H298	H	1.161376	1.301186	0.845806
H299	H	0.661350	0.702136	0.345799
H300	H	1.161350	1.202136	0.845799
Cl301	Cl	0.679911	0.562113	0.327145
Cl302	Cl	1.179911	1.062113	0.827145
Cl303	Cl	0.831051	0.176348	0.562433
Cl304	Cl	1.331051	0.676348	1.062433
Cl305	Cl	0.646544	0.360668	0.813605
Cl306	Cl	1.146544	0.860668	1.313605
Cl307	Cl	0.679987	0.327307	0.562454
Cl308	Cl	1.179987	0.827307	1.062454
Cl309	Cl	0.646526	0.360690	0.690375
Cl310	Cl	1.146526	0.860690	1.190375
