data_functionalizedCrystal
_audit_creation_method	'MofGen! by Chris Wilmer'
_symmetry_space_group_name_H-M	'P1'
_symmetry_Int_Tables_number	1
_symmetry_cell_setting	triclinic
loop_
_symmetry_equiv_pos_as_xyz
  x,y,z
_cell_length_a	27.732048
_cell_length_b	19.288864
_cell_length_c	18.366186
_cell_angle_alpha	89.977071
_cell_angle_beta	90.010100
_cell_angle_gamma	97.110551
loop_
_atom_site_label
_atom_site_type_symbol
_atom_site_fract_x
_atom_site_fract_y
_atom_site_fract_z
O1	O	0.060299	-0.920977	0.060791
O2	O	0.560299	-0.420977	0.560791
O3	O	0.068433	-0.718665	0.060742
O4	O	0.568433	-0.218665	0.560742
O5	O	-0.006012	-0.826104	0.060754
O6	O	0.493988	-0.326104	0.560754
O7	O	0.134744	-0.813538	0.060779
O8	O	0.634744	-0.313538	0.560779
O9	O	-0.006014	-0.826086	-0.060345
O10	O	0.493986	-0.326086	0.439655
O11	O	0.068431	-0.718647	-0.060357
O12	O	0.568431	-0.218647	0.439643
O13	O	0.060297	-0.920958	-0.060309
O14	O	0.560297	-0.420958	0.439691
Zn15	Zn	0.064364	-0.819800	-0.079560
Zn16	Zn	0.564364	-0.319800	0.420440
Zn17	Zn	0.064366	-0.819824	0.079994
Zn18	Zn	0.564366	-0.319824	0.579994
O19	O	0.134742	-0.813519	-0.060321
O20	O	0.634742	-0.313519	0.439679
C21	C	0.068171	-0.692781	0.000186
C22	C	0.568171	-0.192781	0.500186
C23	C	0.067385	-0.615683	0.000167
C24	C	0.567385	-0.115683	0.500167
C25	C	-0.024020	-0.825831	0.000202
C26	C	0.475980	-0.325831	0.500202
C27	C	-0.077678	-0.825037	0.000196
C28	C	0.422322	-0.325037	0.500196
C29	C	-0.416316	-0.883526	0.000248
C30	C	0.083684	-0.383526	0.500248
C31	C	-0.617985	-0.880579	0.000257
C32	C	-0.117985	-0.380579	0.500257
O33	O	-0.649079	-0.934063	0.000302
O34	O	-0.149079	-0.434063	0.500302
N35	N	-0.637301	-0.816872	0.000241
N36	N	-0.137301	-0.316872	0.500241
C37	C	-0.606196	-0.753897	0.000227
C38	C	-0.106196	-0.253897	0.500227
O39	O	-0.627253	-0.699643	0.000222
O40	O	-0.127253	-0.199643	0.500222
C41	C	-0.404529	-0.756845	0.000223
C42	C	0.095471	-0.256845	0.500223
C43	C	-0.385216	-0.820556	0.000232
C44	C	0.114784	-0.320556	0.500232
C45	C	-0.397002	-0.947232	0.000257
C46	C	0.102998	-0.447232	0.500257
C47	C	-0.346588	-0.947968	0.000251
C48	C	0.153412	-0.447968	0.500251
C49	C	-0.315488	-0.884998	0.000235
C50	C	0.184512	-0.384998	0.500235
C51	C	-0.334801	-0.821292	0.000226
C52	C	0.165199	-0.321292	0.500226
C53	C	-0.373425	-0.693871	0.000215
C54	C	0.126575	-0.193871	0.500215
C55	C	-0.323006	-0.694614	0.000216
C56	C	0.176994	-0.194614	0.500216
C57	C	-0.303693	-0.758325	0.000224
C58	C	0.196307	-0.258325	0.500224
C59	C	-0.253287	-0.759059	0.000203
C60	C	0.246713	-0.259059	0.500203
N61	N	-0.233971	-0.822766	0.000219
N62	N	0.266029	-0.322766	0.500219
C63	C	-0.265071	-0.885735	0.000235
C64	C	0.234929	-0.385735	0.500235
C65	C	-0.712075	-0.752354	0.000228
C66	C	-0.212075	-0.252354	0.500228
C67	C	-0.762492	-0.751617	0.000228
C68	C	-0.262492	-0.251617	0.500228
C69	C	-0.774276	-0.878299	0.000259
C70	C	-0.274276	-0.378299	0.500259
C71	C	-0.723859	-0.879035	0.000254
C72	C	-0.223859	-0.379035	0.500254
C73	C	-0.692759	-0.816061	0.000244
C74	C	-0.192759	-0.316061	0.500244
C75	C	-0.159197	-0.887276	0.000221
C76	C	0.340803	-0.387276	0.500221
C77	C	-0.108778	-0.888007	0.000212
C78	C	0.391222	-0.388007	0.500212
C79	C	-0.096998	-0.761325	0.000185
C80	C	0.403002	-0.261325	0.500185
C81	C	-0.147412	-0.760595	0.000190
C82	C	0.352588	-0.260595	0.500190
C83	C	-0.178511	-0.823576	0.000211
C84	C	0.321489	-0.323576	0.500211
O85	O	-0.222164	-0.705603	0.000167
O86	O	0.277836	-0.205603	0.500167
O87	O	-0.244005	-0.939982	0.000257
O88	O	0.255995	-0.439982	0.500257
C89	C	-0.466730	-0.882790	0.000254
C90	C	0.033270	-0.382790	0.500254
C91	C	-0.486044	-0.819084	0.000245
C92	C	0.013956	-0.319084	0.500245
C93	C	-0.454943	-0.756114	0.000229
C94	C	0.045057	-0.256114	0.500229
C95	C	-0.536461	-0.818347	0.000244
C96	C	-0.036461	-0.318347	0.500244
C97	C	-0.567561	-0.881317	0.000260
C98	C	-0.067561	-0.381317	0.500260
C99	C	-0.548245	-0.945023	0.000276
C100	C	-0.048245	-0.445023	0.500276
C101	C	-0.497831	-0.945760	0.000270
C102	C	0.002169	-0.445760	0.500270
C103	C	-0.474260	-0.692407	0.000213
C104	C	0.025740	-0.192407	0.500213
C105	C	-0.524674	-0.691676	0.000218
C106	C	-0.024674	-0.191676	0.500218
C107	C	-0.555775	-0.754646	0.000234
C108	C	-0.055775	-0.254646	0.500234
C109	C	0.060560	-0.946842	0.000249
C110	C	0.560560	-0.446842	0.500249
C111	C	0.061345	-1.023941	0.000273
C112	C	0.561345	-0.523941	0.500273
C113	C	0.152751	-0.813792	0.000233
C114	C	0.652751	-0.313792	0.500233
C115	C	0.206408	-0.814587	0.000244
C116	C	0.706408	-0.314587	0.500244
N117	N	0.064362	-0.819788	-0.188451
N118	N	0.564362	-0.319788	0.311549
C119	C	0.111066	-0.570714	0.000186
C120	C	0.611066	-0.070714	0.500186
C121	C	0.110328	-0.498271	0.000194
C122	C	0.610328	0.001729	0.500194
C123	C	0.065906	-0.470801	0.000197
C124	C	0.565906	0.029199	0.500197
C125	C	0.022219	-0.515780	0.000174
C126	C	0.522219	-0.015780	0.500174
C127	C	0.022959	-0.588220	0.000159
C128	C	0.522959	-0.088220	0.500159
C129	C	0.030987	-0.362763	0.042642
C130	C	0.530987	0.137237	0.542642
C131	C	0.030249	-0.290323	0.042662
C132	C	0.530249	0.209677	0.542662
C133	C	0.063624	-0.247370	0.000241
C134	C	0.563624	0.252630	0.500241
C135	C	0.097744	-0.276863	-0.042190
C136	C	0.597744	0.223137	0.457810
C137	C	0.098484	-0.349304	-0.042206
C138	C	0.598484	0.150696	0.457794
C139	C	0.065099	-0.392252	0.000213
C140	C	0.565099	0.107748	0.500213
C141	C	0.106507	-0.123850	0.000268
C142	C	0.606507	0.376150	0.500268
C143	C	0.105767	-0.051406	0.000271
C144	C	0.605767	0.448594	0.500271
C145	C	0.017658	-0.068916	0.000258
C146	C	0.517658	0.431084	0.500258
C147	C	0.018399	-0.141358	0.000248
C148	C	0.518399	0.358642	0.500248
C149	C	0.062825	-0.168820	0.000256
C150	C	0.562825	0.331180	0.500256
C151	C	0.093607	-0.861593	-0.226529
C152	C	0.593607	-0.361593	0.273471
C153	C	0.093605	-0.861605	-0.302757
C154	C	0.593605	-0.361605	0.197243
C155	C	0.064365	-0.819798	-0.340904
C156	C	0.564365	-0.319798	0.159096
C157	C	0.035114	-0.777990	-0.302817
C158	C	0.535114	-0.277990	0.197183
C159	C	0.035112	-0.777985	-0.226590
C160	C	0.535112	-0.277985	0.273410
C161	C	0.063142	-0.757194	-0.461701
C162	C	0.563142	-0.257194	0.038299
C163	C	0.063147	-0.757197	-0.537926
C164	C	0.563147	-0.257197	-0.037926
C165	C	0.064366	-0.819814	-0.576011
C166	C	0.564366	-0.319814	-0.076011
C167	C	0.065591	-0.882428	-0.537863
C168	C	0.565591	-0.382428	-0.037863
C169	C	0.065589	-0.882423	-0.461637
C170	C	0.565589	-0.382423	0.038363
C171	C	0.064363	-0.819799	-0.423559
C172	C	0.564363	-0.319799	0.076441
C173	C	0.093611	-0.861635	-0.696744
C174	C	0.593611	-0.361635	-0.196744
C175	C	0.093606	-0.861647	-0.772974
C176	C	0.593606	-0.361647	-0.272974
C177	C	0.035118	-0.778026	-0.773032
C178	C	0.535118	-0.278026	-0.273032
C179	C	0.035120	-0.778020	-0.696804
C180	C	0.535120	-0.278020	-0.196804
C181	C	0.064369	-0.819823	-0.658665
C182	C	0.564369	-0.319823	-0.158665
N183	N	0.064365	-0.819841	0.188885
N184	N	0.564365	-0.319841	0.688885
H185	H	-0.093056	-0.939890	0.000217
H186	H	0.406944	-0.439890	0.500217
F187	F	0.066892	-0.949059	-0.421039
F188	F	0.566892	-0.449059	0.078961
F189	F	0.061848	-0.690558	-0.578519
F190	F	0.561848	-0.190558	-0.078519
H191	H	0.117427	-0.895674	-0.665690
H192	H	0.617427	-0.395674	-0.165690
H193	H	-0.708138	-0.930914	0.000262
H194	H	-0.208138	-0.430914	0.500262
F195	F	0.124732	-0.906148	-0.813499
F196	F	0.624732	-0.406148	-0.313499
F197	F	-0.025057	-0.486543	0.000174
F198	F	0.474943	0.013457	0.500174
H199	H	0.011309	-0.743987	-0.804090
H200	H	0.511309	-0.243987	-0.304090
H201	H	0.066586	-0.933415	-0.568871
H202	H	0.566586	-0.433415	-0.068871
F203	F	-0.192288	-0.954308	0.000244
F204	F	0.307712	-0.454308	0.500244
F205	F	-0.006061	-0.258940	0.087827
F206	F	0.493939	0.241060	0.587827
H207	H	-0.018511	-0.046551	0.000306
H208	H	0.481489	0.453449	0.500306
H209	H	0.147241	-0.593069	0.000194
H210	H	0.647241	-0.093069	0.500194
F211	F	0.133267	-0.231154	-0.087341
F212	F	0.633267	0.268846	0.412659
H213	H	-0.017171	-0.177973	0.000236
H214	H	0.482829	0.322027	0.500236
F215	F	0.156821	-0.450404	0.000212
F216	F	0.656821	0.049596	0.500212
H217	H	-0.799607	-0.929571	0.000271
H218	H	-0.299607	-0.429571	0.500271
H219	H	0.117421	-0.895648	-0.333766
H220	H	0.617421	-0.395648	0.166234
H221	H	-0.686757	-0.701070	0.000220
H222	H	-0.186757	-0.201070	0.500220
F223	F	-0.004538	-0.408472	0.087795
F224	F	0.495462	0.091528	0.587795
F225	F	0.004001	-0.733513	-0.656277
F226	F	0.504001	-0.233513	-0.156277
H227	H	0.141339	-0.014793	0.000282
H228	H	0.641339	0.485207	0.500282
F229	F	0.134795	-0.380691	-0.087365
F230	F	0.634795	0.119309	0.412635
F231	F	-0.326040	-1.015778	0.000276
F232	F	0.173960	-0.515778	0.500276
H233	H	0.062152	-0.706200	-0.430697
H234	H	0.562152	-0.206200	0.069303
F235	F	-0.430095	-1.014259	0.000274
F236	F	0.069905	-0.514259	0.500274
F237	F	-0.167968	-0.692787	0.000168
F238	F	0.332032	-0.192787	0.500168
F239	F	0.003993	-0.733498	-0.343416
F240	F	0.503993	-0.233498	0.156584
H241	H	-0.012613	-0.624835	0.000144
H242	H	0.487387	-0.124835	0.500144
F243	F	0.153789	-0.153080	0.000271
F244	F	0.653789	0.346920	0.500271
H245	H	-0.778212	-0.699737	0.000208
H246	H	-0.278212	-0.199737	0.500208
H247	H	0.011297	-0.743941	-0.195587
H248	H	0.511297	-0.243941	0.304413
H249	H	-0.482111	-0.997640	0.000277
H250	H	0.017889	-0.497640	0.500277
H251	H	-0.389141	-0.641991	0.000212
H252	H	0.110859	-0.141991	0.500212
F253	F	-0.289909	-0.627586	0.000207
F254	F	0.210091	-0.127586	0.500207
F255	F	-0.063890	-0.694312	0.000168
F256	F	0.436110	-0.194312	0.500168
H257	H	-0.540394	-0.639791	0.000205
H258	H	-0.040394	-0.139791	0.500205
F259	F	-0.581353	-1.012041	0.000289
F260	F	-0.081353	-0.512041	0.500289
F261	F	0.124744	-0.906073	-0.185943
F262	F	0.624744	-0.406073	0.314057
F263	F	-0.441166	-0.625382	0.000198
F264	F	0.058834	-0.125382	0.500198
