data_functionalizedCrystal
_audit_creation_method	'MofGen! by Chris Wilmer'
_symmetry_space_group_name_H-M	'P1'
_symmetry_Int_Tables_number	1
_symmetry_cell_setting	triclinic
loop_
_symmetry_equiv_pos_as_xyz
  x,y,z
_cell_length_a	12.594516
_cell_length_b	16.625547
_cell_length_c	16.625539
_cell_angle_alpha	89.975178
_cell_angle_beta	89.976673
_cell_angle_gamma	90.015990
loop_
_atom_site_label
_atom_site_type_symbol
_atom_site_fract_x
_atom_site_fract_y
_atom_site_fract_z
Zn1	Zn	-0.423742	1.232716	-0.456029
Zn2	Zn	0.076258	1.732716	0.043971
Zn3	Zn	-0.601743	1.232635	-0.321208
Zn4	Zn	-0.101743	1.732635	0.178792
Zn5	Zn	-0.423779	1.097878	-0.321199
Zn6	Zn	0.076221	1.597878	0.178801
Zn7	Zn	-0.601679	1.097864	-0.455988
Zn8	Zn	-0.101679	1.597864	0.044012
O9	O	-0.512736	1.165273	-0.388606
O10	O	-0.012736	1.665273	0.111394
O11	O	-0.447366	1.345538	-0.438165
O12	O	0.052634	1.845538	0.061835
O13	O	-0.578178	1.214731	-0.208374
O14	O	-0.078178	1.714731	0.291626
O15	O	-0.274828	1.115805	-0.339098
O16	O	0.225172	1.615805	0.160902
O17	O	-0.578143	1.345478	-0.339113
O18	O	-0.078143	1.845478	0.160887
O19	O	-0.274801	1.214870	-0.438157
O20	O	0.225199	1.714870	0.061843
O21	O	-0.447429	1.115726	-0.208368
O22	O	0.052571	1.615726	0.291632
O23	O	-0.447366	0.985044	-0.339058
O24	O	0.052634	1.485044	0.160942
O25	O	-0.578032	1.115780	-0.568825
O26	O	-0.078032	1.615780	-0.068825
O27	O	-0.578068	0.985033	-0.438087
O28	O	-0.078068	1.485033	0.061913
O29	O	-0.447303	1.214856	-0.568856
O30	O	0.052697	1.714856	-0.068856
O31	O	-0.750680	1.214717	-0.339073
O32	O	-0.250680	1.714717	0.160927
O33	O	-0.750633	1.115701	-0.438095
O34	O	-0.250633	1.615701	0.061905
C35	C	-0.512715	0.955782	-0.388568
C36	C	-0.012715	1.455782	0.111432
C37	C	-0.512732	0.866161	-0.388571
C38	C	-0.012732	1.366161	0.111429
C39	C	-0.512734	0.793379	-0.388581
C40	C	-0.012734	1.293379	0.111419
C41	C	-0.512739	0.702070	-0.388601
C42	C	-0.012739	1.202070	0.111399
C43	C	-0.512749	0.629294	-0.388621
C44	C	-0.012749	1.129294	0.111379
C45	C	-0.512757	0.537980	-0.388641
C46	C	-0.012757	1.037980	0.111359
C47	C	-0.789277	1.165220	-0.388598
C48	C	-0.289277	1.665220	0.111402
C49	C	-0.907582	1.165272	-0.388622
C50	C	-0.407582	1.665272	0.111378
C51	C	-0.976848	1.111412	-0.442442
C52	C	-0.476848	1.611412	0.057558
C53	C	-1.047709	1.091767	-0.368866
C54	C	-0.547709	1.591767	0.131134
C55	C	-1.047521	1.184990	-0.462210
C56	C	-0.547521	1.684990	0.037790
C57	C	-0.976884	1.145588	-0.315007
C58	C	-0.476884	1.645588	0.184993
C59	C	-0.976690	1.238845	-0.408400
C60	C	-0.476690	1.738845	0.091600
C61	C	-1.047519	1.219228	-0.334774
C62	C	-0.547519	1.719228	0.165226
C63	C	-0.235115	1.165348	-0.388631
C64	C	0.264885	1.665348	0.111369
C65	C	-0.116809	1.165380	-0.388642
C66	C	0.383191	1.665380	0.111358
C67	C	-0.512656	1.165326	-0.598915
C68	C	-0.012656	1.665326	-0.098915
C69	C	-0.512623	1.165348	-0.688536
C70	C	-0.012623	1.665348	-0.188536
C71	C	-0.512757	1.375582	-0.388645
C72	C	-0.012757	1.875582	0.111355
C73	C	-0.512766	1.465203	-0.388661
C74	C	-0.012766	1.965203	0.111339
C75	C	-0.512503	1.165385	-1.016712
C76	C	-0.012503	1.665385	-0.516712
C77	C	-0.512540	1.165373	-0.925403
C78	C	-0.012540	1.665373	-0.425403
C79	C	-0.512564	1.165367	-0.852627
C80	C	-0.012564	1.665367	-0.352627
C81	C	-0.512599	1.165354	-0.761312
C82	C	-0.012599	1.665354	-0.261312
C83	C	-0.512738	1.165268	-0.179115
C84	C	-0.012738	1.665268	0.320885
C85	C	-0.512472	1.165401	-0.089494
C86	C	-0.012472	1.665401	0.410506
H87	H	-0.945816	1.065783	-0.487890
H88	H	-0.445816	1.565783	0.012110
O89	O	-1.084265	1.273531	-0.280319
O90	O	-0.584265	1.773531	0.219681
C91	C	-1.048058	1.252511	-0.202877
C92	C	-0.548058	1.752511	0.297123
H93	H	-1.028382	1.185605	-0.201275
H94	H	-0.528382	1.685605	0.298725
H95	H	-0.973854	1.288827	-0.187931
H96	H	-0.473854	1.788827	0.312069
C97	C	-1.159490	1.353047	-0.142605
C98	C	-0.659490	1.853047	0.357395
C99	C	-1.135332	1.270871	-0.140636
C100	C	-0.635332	1.770871	0.359364
H101	H	-1.213322	1.364376	-0.104211
H102	H	-0.713322	1.864376	0.395789
H103	H	-1.183881	1.367211	-0.194779
H104	H	-0.683881	1.867211	0.305221
H105	H	-1.097646	1.383301	-0.130152
H106	H	-0.597646	1.883301	0.369848
H107	H	-1.197172	1.240620	-0.153099
H108	H	-0.697172	1.740620	0.346901
H109	H	-1.110953	1.256702	-0.088463
H110	H	-0.610953	1.756702	0.411537
O111	O	-1.084803	1.017593	-0.348797
O112	O	-0.584803	1.517593	0.151203
C113	C	-1.047291	0.996449	-0.271748
C114	C	-0.547291	1.496449	0.228252
H115	H	-0.972190	1.032105	-0.257832
H116	H	-0.472190	1.532105	0.242168
H117	H	-1.110672	1.010775	-0.224925
H118	H	-0.610672	1.510775	0.275075
C119	C	-1.114385	0.862040	-0.286722
C120	C	-0.614385	1.362040	0.213278
C121	C	-1.022140	0.905828	-0.269634
C122	C	-0.522140	1.405828	0.230366
H123	H	-1.098874	0.806140	-0.285416
H124	H	-0.598874	1.306140	0.214584
H125	H	-1.139661	0.876285	-0.338631
H126	H	-0.639661	1.376285	0.161369
H127	H	-1.167193	0.873988	-0.247700
H128	H	-0.667193	1.373988	0.252300
H129	H	-0.969338	0.893888	-0.308660
H130	H	-0.469338	1.393888	0.191340
H131	H	-0.996853	0.891579	-0.217731
H132	H	-0.496853	1.391579	0.282269
H133	H	-0.945475	1.301000	-0.425148
H134	H	-0.445475	1.801000	0.074852
H135	H	-0.945985	1.128882	-0.252765
H136	H	-0.445985	1.628882	0.247235
H137	H	-1.078549	1.201624	-0.524435
H138	H	-0.578549	1.701624	-0.024435
