data_functionalizedCrystal
_audit_creation_method	'MofGen! by Chris Wilmer'
_symmetry_space_group_name_H-M	'P1'
_symmetry_Int_Tables_number	1
_symmetry_cell_setting	triclinic
loop_
_symmetry_equiv_pos_as_xyz
  x,y,z
_cell_length_a	19.077142
_cell_length_b	19.077114
_cell_length_c	19.076919
_cell_angle_alpha	85.527261
_cell_angle_beta	89.925643
_cell_angle_gamma	90.115975
loop_
_atom_site_label
_atom_site_type_symbol
_atom_site_fract_x
_atom_site_fract_y
_atom_site_fract_z
Zn1	Zn	-1.044038	0.340467	-0.453547
Zn2	Zn	-1.043948	0.453617	-0.340392
Zn3	Zn	-0.931650	0.331038	-0.330974
Zn4	Zn	-0.921788	0.453191	-0.453124
O5	O	-0.985356	0.394578	-0.394509
O6	O	-1.142185	0.359601	-0.442655
O7	O	-1.033141	0.433589	-0.240666
O8	O	-0.950723	0.233814	-0.343469
O9	O	-1.142119	0.442732	-0.359520
O10	O	-1.033294	0.240742	-0.433523
O11	O	-0.950636	0.343531	-0.233747
O12	O	-0.832182	0.343118	-0.343059
O13	O	-0.933915	0.442005	-0.551656
O14	O	-0.824937	0.432862	-0.432802
O15	O	-1.023731	0.359188	-0.551967
O16	O	-1.023579	0.552035	-0.359110
O17	O	-0.933828	0.551722	-0.441934
C18	C	-0.803108	0.386921	-0.386863
C19	C	-0.725140	0.383663	-0.383609
C20	C	-0.977642	0.577413	-0.401514
C21	C	-0.974405	0.655635	-0.404537
C22	C	-0.684757	0.428923	-0.428737
C23	C	-0.611498	0.425852	-0.425683
C24	C	-0.578624	0.377525	-0.377497
C25	C	-0.619013	0.332260	-0.332367
C26	C	-0.692270	0.335328	-0.335425
C27	C	-0.359930	0.363329	-0.363351
C28	C	-0.286667	0.360266	-0.360295
C29	C	-0.279158	0.453858	-0.453612
C30	C	-0.352417	0.456924	-0.456663
C31	C	-0.392799	0.411657	-0.411536
N32	N	-0.503742	0.374386	-0.374372
N33	N	-0.467680	0.414792	-0.414664
C34	C	-0.168316	0.402262	-0.402177
C35	C	-0.246284	0.405526	-0.405423
C36	C	-1.019646	0.692526	-0.362875
C37	C	-1.016605	0.766023	-0.365722
C38	C	-0.968320	0.802628	-0.410230
C39	C	-0.923077	0.765732	-0.451897
C40	C	-0.926121	0.692236	-0.449053
C41	C	-0.954203	1.022422	-0.423360
C42	C	-0.951161	1.095923	-0.426200
C43	C	-1.044690	1.096209	-0.340026
C44	C	-1.047728	1.022712	-0.337182
C45	C	-1.002487	0.985822	-0.378852
N46	N	-0.965209	0.877754	-0.413140
N47	N	-1.005602	0.910698	-0.375945
C48	C	-0.977733	0.401601	-0.578059
C49	C	-0.974485	0.404593	-0.656277
C50	C	-0.993112	1.211031	-0.387501
C51	C	-0.996402	1.132814	-0.384537
C52	C	-1.019719	0.362883	-0.693187
C53	C	-1.016658	0.365692	-0.766681
C54	C	-0.968366	0.410215	-0.803263
C55	C	-0.923127	0.451928	-0.766348
C56	C	-0.926185	0.449115	-0.692856
C57	C	-0.954203	0.423248	-1.023045
C58	C	-0.951150	0.426060	-1.096543
C59	C	-1.044681	0.339822	-1.096871
C60	C	-1.047737	0.337016	-1.023377
C61	C	-1.002496	0.378726	-0.986468
N62	N	-0.965238	0.413089	-0.878386
N63	N	-1.005621	0.375848	-0.911346
C64	C	-0.992992	0.387534	-0.211673
C65	C	-0.996384	0.384349	-0.133453
H66	H	-0.578621	0.462708	-0.462430
H67	H	-1.058962	0.662727	-0.326629
O68	O	-0.731530	0.291294	-0.291684
C69	C	-0.774172	0.249227	-0.331853
H70	H	-0.749984	0.246163	-0.386201
H71	H	-0.778334	0.194095	-0.304448
H72	H	-0.828677	0.273403	-0.337392
O73	O	-1.060697	0.801736	-0.325287
C74	C	-1.130671	0.787171	-0.343020
H75	H	-1.133105	0.734905	-0.368101
H76	H	-1.164406	0.783959	-0.293500
H77	H	-1.151084	0.830870	-0.381795
O78	O	-1.094701	0.987267	-0.293938
C79	C	-1.133971	1.035589	-0.257764
H80	H	-1.133006	1.089170	-0.288715
H81	H	-1.190436	1.016345	-0.251804
H82	H	-1.110227	1.040325	-0.203523
H83	H	-0.392801	0.326475	-0.326600
O84	O	-0.910228	0.986507	-0.463728
C85	C	-0.868370	0.940628	-0.420080
H86	H	-0.895825	0.928621	-0.367386
H87	H	-0.859897	0.889641	-0.446341
H88	H	-0.815541	0.966520	-0.411221
O89	O	-1.088613	1.132155	-0.299629
C90	C	-1.075565	1.204873	-0.311670
H91	H	-1.049870	1.216018	-0.365378
H92	H	-1.127155	1.234784	-0.310233
H93	H	-1.039122	1.222620	-0.269137
O94	O	-0.904238	1.131375	-0.469503
C95	C	-0.864950	1.083056	-0.505662
H96	H	-0.895746	1.031938	-0.507299
H97	H	-0.854249	1.106083	-0.561607
H98	H	-0.813086	1.072074	-0.477322
O99	O	-0.904173	0.469327	-1.131970
C100	C	-0.864908	0.505551	-1.083636
H101	H	-0.865874	0.474620	-1.030044
H102	H	-0.808443	0.511545	-1.102841
H103	H	-0.888657	0.559777	-1.078939
O104	O	-0.876266	0.801371	-0.495174
C105	C	-0.912517	0.847235	-0.543985
H106	H	-0.966270	0.859495	-0.521864
H107	H	-0.881405	0.898097	-0.554192
H108	H	-0.919190	0.821200	-0.595366
O109	O	-0.876154	0.495194	-0.801772
C110	C	-0.836896	0.531419	-0.753433
H111	H	-0.837864	0.500487	-0.699842
H112	H	-0.780429	0.537418	-0.772632
H113	H	-0.860649	0.585644	-0.748736
O114	O	-1.066558	0.319528	-0.657679
C115	C	-1.053455	0.249438	-0.672330
H116	H	-0.996727	0.244307	-0.690040
H117	H	-1.062979	0.213074	-0.622926
H118	H	-1.090063	0.234258	-0.715870
O119	O	-0.882105	0.656505	-0.489550
C120	C	-0.838847	0.704572	-0.529458
H121	H	-0.835461	0.755771	-0.502557
H122	H	-0.784144	0.681343	-0.533789
H123	H	-0.861954	0.715470	-0.584298
H124	H	-0.889344	0.483073	-0.662804
H125	H	-0.592241	0.292908	-0.293136
H126	H	-1.053494	0.331728	-0.796730
H127	H	-0.917374	0.457222	-0.993004
H128	H	-1.081513	0.305864	-1.126930
O129	O	-0.716575	0.475889	-0.475608
C130	C	-0.665219	0.515188	-0.514773
H131	H	-0.614111	0.484275	-0.513970
H132	H	-0.683773	0.525787	-0.571381
H133	H	-0.656245	0.567279	-0.490638
O134	O	-0.384237	0.503890	-0.503534
C135	C	-0.332883	0.543193	-0.542698
H136	H	-0.281775	0.512281	-0.541902
H137	H	-0.351441	0.553797	-0.599305
H138	H	-0.323908	0.595281	-0.518559
H139	H	-0.259904	0.320904	-0.321060
O140	O	-0.239825	0.497751	-0.497420
C141	C	-0.168117	0.484696	-0.484380
H142	H	-0.161349	0.429056	-0.458919
H143	H	-0.137894	0.490401	-0.536108
H144	H	-0.147121	0.524073	-0.447568
O145	O	-1.094667	0.293702	-0.987949
C146	C	-1.133949	0.257502	-1.036288
H147	H	-1.103142	0.255861	-1.087376
H148	H	-1.144661	0.201560	-1.013249
H149	H	-1.185807	0.285810	-1.047328
