data_functionalizedCrystal
_audit_creation_method	'MofGen! by Chris Wilmer'
_symmetry_space_group_name_H-M	'P1'
_symmetry_Int_Tables_number	1
_symmetry_cell_setting	triclinic
loop_
_symmetry_equiv_pos_as_xyz
  x,y,z
_cell_length_a	19.188930
_cell_length_b	19.188930
_cell_length_c	17.666332
_cell_angle_alpha	90.011603
_cell_angle_beta	90.023234
_cell_angle_gamma	83.144779
loop_
_atom_site_label
_atom_site_type_symbol
_atom_site_fract_x
_atom_site_fract_y
_atom_site_fract_z
O1	O	-0.926150	-0.087169	-0.063200
O2	O	-0.426150	0.412831	0.436800
O3	O	-0.722838	-0.098903	-0.063149
O4	O	-0.222838	0.401097	0.436851
O5	O	-0.830361	0.008620	-0.063161
O6	O	-0.330361	0.508620	0.436839
O7	O	-0.818627	-0.194692	-0.063188
O8	O	-0.318627	0.305308	0.436812
O9	O	-0.830342	0.008625	0.062735
O10	O	-0.330342	0.508625	0.562735
O11	O	-0.722820	-0.098897	0.062747
O12	O	-0.222820	0.401103	0.562747
O13	O	-0.926131	-0.087163	0.062697
O14	O	-0.426131	0.412837	0.562697
Cu15	Cu	-0.824473	-0.093030	0.074217
Cu16	Cu	-0.324473	0.406970	0.574217
Cu17	Cu	-0.824496	-0.093036	-0.074670
Cu18	Cu	-0.324496	0.406964	0.425330
O19	O	-0.818608	-0.194686	0.062709
O20	O	-0.318608	0.305314	0.562709
C21	C	-0.696818	-0.098520	-0.000194
C22	C	-0.196818	0.401480	0.499806
C23	C	-0.619313	-0.097380	-0.000174
C24	C	-0.119313	0.402620	0.499826
C25	C	-0.829972	0.034634	-0.000211
C26	C	-0.329972	0.534634	0.499789
C27	C	-0.828831	0.112138	-0.000204
C28	C	-0.328831	0.612138	0.499796
C29	C	-0.952151	-0.087546	-0.000260
C30	C	-0.452151	0.412454	0.499740
C31	C	-1.029656	-0.088687	-0.000285
C32	C	-0.529656	0.411313	0.499715
C33	C	-0.574389	-0.160470	-0.000194
C34	C	-0.074389	0.339530	0.499806
C35	C	-0.501566	-0.159399	-0.000203
C36	C	-0.001566	0.340601	0.499797
C37	C	-0.473669	-0.095233	-0.000206
C38	C	0.026331	0.404767	0.499794
C39	C	-0.518603	-0.032133	-0.000181
C40	C	-0.018603	0.467867	0.499819
C41	C	-0.591425	-0.033207	-0.000166
C42	C	-0.091425	0.466793	0.499834
N43	N	-0.365695	-0.046188	-0.043078
N44	N	0.134305	0.453812	0.456922
N45	N	-0.296517	-0.045172	-0.043095
N46	N	0.203483	0.454828	0.456905
C47	C	-0.254260	-0.091994	-0.000252
C48	C	0.245740	0.408006	0.499748
N49	N	-0.283795	-0.139881	0.042599
N50	N	0.216205	0.360119	0.542599
N51	N	-0.352979	-0.140899	0.042612
N52	N	0.147021	0.359101	0.542612
C53	C	-0.394707	-0.094062	-0.000222
C54	C	0.105293	0.405938	0.499778
C55	C	-0.130372	-0.153928	-0.000280
C56	C	0.369628	0.346072	0.499720
C57	C	-0.057547	-0.152853	-0.000283
C58	C	0.442453	0.347147	0.499717
C59	C	-0.074586	-0.025586	-0.000270
C60	C	0.425414	0.474414	0.499730
C61	C	-0.147409	-0.026662	-0.000258
C62	C	0.352591	0.473338	0.499742
C63	C	-0.175298	-0.090835	-0.000267
C64	C	0.324702	0.409165	0.499733
C65	C	-0.818997	-0.220700	-0.000244
C66	C	-0.318997	0.279300	0.499756
C67	C	-0.820138	-0.298204	-0.000255
C68	C	-0.320138	0.201796	0.499745
N69	N	-0.824463	-0.093025	0.178937
N70	N	-0.324463	0.406975	0.678937
C71	C	-0.891922	0.157062	-0.000216
C72	C	-0.391922	0.657062	0.499784
C73	C	-0.890850	0.229886	-0.000228
C74	C	-0.390850	0.729886	0.499772
C75	C	-0.826684	0.257782	-0.000212
C76	C	-0.326684	0.757782	0.499788
C77	C	-0.763585	0.212849	-0.000205
C78	C	-0.263585	0.712849	0.499795
C79	C	-0.764658	0.140026	-0.000200
C80	C	-0.264658	0.640026	0.499800
N81	N	-0.777630	0.365789	0.042645
N82	N	-0.277630	0.865789	0.542645
N83	N	-0.776615	0.434968	0.042642
N84	N	-0.276615	0.934968	0.542642
C85	C	-0.823446	0.477191	-0.000227
C86	C	-0.323446	0.977191	0.499773
N87	N	-0.871341	0.447624	-0.043084
N88	N	-0.371341	0.947624	0.456916
N89	N	-0.872359	0.378439	-0.043079
N90	N	-0.372359	0.878439	0.456921
C91	C	-0.825513	0.336745	-0.000218
C92	C	-0.325513	0.836745	0.499782
C93	C	-0.885379	0.601079	-0.000253
C94	C	-0.385379	1.101079	0.499747
C95	C	-0.884305	0.673904	-0.000270
C96	C	-0.384305	1.173904	0.499730
C97	C	-0.757038	0.656865	-0.000239
C98	C	-0.257038	1.156865	0.499761
C99	C	-0.758114	0.584042	-0.000230
C100	C	-0.258114	1.084042	0.499770
C101	C	-0.822287	0.556154	-0.000233
C102	C	-0.322287	1.056154	0.499767
N103	N	-0.824512	-0.093036	-0.179390
N104	N	-0.324512	0.406964	0.320610
C105	C	-0.872089	-0.045437	0.218541
C106	C	-0.372089	0.454563	0.718541
C107	C	-0.872093	-0.045433	0.297789
C108	C	-0.372093	0.454567	0.797789
C109	C	-0.824478	-0.093030	0.337429
C110	C	-0.324478	0.406970	0.837429
C111	C	-0.776842	-0.140621	0.297815
C112	C	-0.276842	0.359379	0.797815
C113	C	-0.776835	-0.140619	0.218569
C114	C	-0.276835	0.359381	0.718569
N115	N	-0.815401	-0.154837	0.461841
N116	N	-0.315401	0.345163	0.961841
N117	N	-0.815413	-0.154837	0.537121
N118	N	-0.315413	0.345163	1.037121
C119	C	-0.824496	-0.093040	0.576193
C120	C	-0.324496	0.406960	1.076193
N121	N	-0.833582	-0.031239	0.537140
N122	N	-0.333582	0.468761	1.037140
N123	N	-0.833574	-0.031240	0.461853
N124	N	-0.333574	0.468760	0.961853
C125	C	-0.824480	-0.093038	0.423358
C126	C	-0.324480	0.406962	0.923358
C127	C	-0.872130	-0.045444	0.701727
C128	C	-0.372130	0.454556	1.201727
C129	C	-0.872129	-0.045440	0.780976
C130	C	-0.372129	0.454560	1.280976
C131	C	-0.776881	-0.140634	0.781000
C132	C	-0.276881	0.359366	1.281000
C133	C	-0.776878	-0.140632	0.701753
C134	C	-0.276878	0.359368	1.201753
C135	C	-0.824506	-0.093038	0.662121
C136	C	-0.324506	0.406962	1.162121
H137	H	-0.464982	-0.210776	-0.000217
H138	H	0.035018	0.289224	0.499783
H139	H	-0.944176	0.134360	-0.000222
H140	H	-0.444176	0.634360	0.499778
O141	O	-0.047613	0.036807	-0.000238
O142	O	0.452387	0.536807	0.499762
C143	C	-0.072198	0.162922	-0.000266
C144	C	0.427802	0.662922	0.499734
C145	C	-0.102842	0.092310	-0.000289
C146	C	0.397158	0.592310	0.499711
H147	H	-0.116836	0.207815	-0.000323
H148	H	0.383164	0.707815	0.499677
H149	H	-0.038529	0.166657	0.052428
H150	H	0.461471	0.666657	0.552428
H151	H	-0.038533	0.166566	-0.052947
H152	H	0.461467	0.666566	0.447053
H153	H	-0.136538	0.088618	0.052357
H154	H	0.363462	0.588618	0.552357
H155	H	-0.136472	0.088606	-0.053018
H156	H	0.363528	0.588606	0.446982
H157	H	-0.628003	0.018171	-0.000150
H158	H	-0.128003	0.518171	0.499850
O159	O	-0.730655	-0.186965	0.819415
O160	O	-0.230655	0.313035	1.319415
C161	C	-0.689395	-0.308472	0.843690
C162	C	-0.189395	0.191528	1.343690
C163	C	-0.741778	-0.256081	0.800121
C164	C	-0.241778	0.243919	1.300121
H165	H	-0.698380	-0.364364	0.828120
H166	H	-0.198380	0.135636	1.328120
H167	H	-0.633488	-0.299569	0.828126
H168	H	-0.133488	0.200431	1.328126
H169	H	-0.697570	-0.300262	0.907129
H170	H	-0.197570	0.199738	1.407129
H171	H	-0.733667	-0.264259	0.736672
H172	H	-0.233667	0.235741	1.236672
H173	H	-0.797666	-0.264997	0.815748
H174	H	-0.297666	0.235003	1.315748
H175	H	-0.495885	0.020111	-0.000194
H176	H	0.004115	0.520111	0.499806
O177	O	-0.157549	-0.216219	-0.000175
O178	O	0.342451	0.283781	0.499825
C179	C	-0.229808	-0.291303	0.065086
C180	C	0.270192	0.208697	0.565086
C181	C	-0.199094	-0.220727	0.065050
C182	C	0.300906	0.279273	0.565050
H183	H	-0.263392	-0.294977	0.117823
H184	H	0.236608	0.205023	0.617823
H185	H	-0.263548	-0.295007	0.012441
H186	H	0.236452	0.204993	0.512441
H187	H	-0.185173	-0.336199	0.065042
H188	H	0.314827	0.163801	0.565042
H189	H	-0.243684	-0.175789	0.065121
H190	H	0.256316	0.324211	0.565121
H191	H	-0.165335	-0.217084	0.117691
H192	H	0.334665	0.282916	0.617691
H193	H	-0.910869	-0.006681	0.186275
H194	H	-0.410869	0.493319	0.686275
O195	O	-0.191122	0.034580	-0.000351
O196	O	0.308878	0.534580	0.499649
C197	C	-0.283231	0.107241	-0.065577
C198	C	0.216769	0.607241	0.434423
C199	C	-0.233778	0.037848	-0.065560
C200	C	0.266222	0.537848	0.434440
H201	H	-0.317721	0.109913	-0.118301
H202	H	0.182279	0.609913	0.381699
H203	H	-0.317772	0.109935	-0.012919
H204	H	0.182228	0.609935	0.487081
H205	H	-0.250770	0.153276	-0.065545
H206	H	0.249230	0.653276	0.434455
H207	H	-0.266184	-0.008225	-0.065619
H208	H	0.233816	0.491775	0.434381
H209	H	-0.199235	0.035216	-0.118214
H210	H	0.300765	0.535216	0.381786
H211	H	-0.738051	-0.179371	0.186322
H212	H	-0.238051	0.320629	0.686322
H213	H	-0.020970	-0.204232	-0.000295
H214	H	0.479030	0.295768	0.499705
O215	O	-0.918313	0.000779	0.663114
O216	O	-0.418313	0.500779	1.163114
C217	C	-0.933538	0.096131	0.573611
C218	C	-0.433538	0.596131	1.073611
C219	C	-0.881147	0.043839	0.617292
C220	C	-0.381147	0.543839	1.117292
H221	H	-0.903510	0.130968	0.536565
H222	H	-0.403510	0.630968	1.036565
H223	H	-0.968277	0.066049	0.536459
H224	H	-0.468277	0.566049	1.036459
H225	H	-0.967620	0.130122	0.615518
H226	H	-0.467620	0.630122	1.115518
H227	H	-0.847018	0.009835	0.575439
H228	H	-0.347018	0.509835	1.075439
H229	H	-0.846456	0.073964	0.654455
H230	H	-0.346456	0.573964	1.154455
O231	O	-0.952094	0.273605	-0.000134
O232	O	-0.452094	0.773605	0.499866
C233	C	-1.024738	0.365694	0.065106
C234	C	-0.524738	0.865694	0.565106
C235	C	-0.955348	0.316237	0.065083
C236	C	-0.455348	0.816237	0.565083
H237	H	-1.027398	0.400164	0.117837
H238	H	-0.527398	0.900164	0.617837
H239	H	-1.027441	0.400253	0.012454
H240	H	-0.527441	0.900253	0.512454
H241	H	-1.070775	0.333236	0.065067
H242	H	-0.570775	0.833236	0.565067
H243	H	-0.909272	0.348640	0.065150
H244	H	-0.409272	0.848640	0.565150
H245	H	-0.952707	0.281675	0.117731
H246	H	-0.452707	0.781675	0.617731
H247	H	-0.711340	0.235567	-0.000194
H248	H	-0.211340	0.735567	0.499806
O249	O	-0.696873	0.540327	-0.000109
O250	O	-0.196873	1.040327	0.499891
C251	C	-0.624199	0.448264	0.065159
C252	C	-0.124199	0.948264	0.565159
C253	C	-0.693590	0.497720	0.065112
C254	C	-0.193590	0.997720	0.565112
H255	H	-0.621515	0.413813	0.117892
H256	H	-0.121515	0.913813	0.617892
H257	H	-0.621520	0.413684	0.012510
H258	H	-0.121520	0.913684	0.512510
H259	H	-0.578163	0.480722	0.065131
H260	H	-0.078163	0.980722	0.565131
H261	H	-0.739665	0.465317	0.065166
H262	H	-0.239665	0.965317	0.565166
H263	H	-0.696208	0.532301	0.117756
H264	H	-0.196208	1.032301	0.617756
O265	O	-0.703305	0.096483	-0.000151
O266	O	-0.203305	0.596483	0.499849
C267	C	-0.576962	0.087268	-0.000170
C268	C	-0.076962	0.587268	0.499830
C269	C	-0.646393	0.136662	-0.000210
C270	C	-0.146393	0.636662	0.499790
H271	H	-0.530931	0.119732	-0.000234
H272	H	-0.030931	0.619732	0.499766
H273	H	-0.574226	0.052775	0.052534
H274	H	-0.074226	0.552775	0.552534
H275	H	-0.574332	0.052720	-0.052841
H276	H	-0.074332	0.552720	0.447159
H277	H	-0.649069	0.171253	0.052424
H278	H	-0.149069	0.671253	0.552424
H279	H	-0.649100	0.171106	-0.052950
H280	H	-0.149100	0.671106	0.447050
H281	H	-0.597091	-0.212725	-0.000203
H282	H	-0.097091	0.287275	0.499797
O283	O	-0.918368	0.000885	0.819365
O284	O	-0.418368	0.500885	1.319365
C285	C	-0.959647	0.122389	0.843652
C286	C	-0.459647	0.622389	1.343652
C287	C	-0.907251	0.070004	0.800115
C288	C	-0.407251	0.570004	1.300115
H289	H	-0.950667	0.178283	0.828116
H290	H	-0.450667	0.678283	1.328116
H291	H	-1.015550	0.113479	0.828023
H292	H	-0.515550	0.613479	1.328023
H293	H	-0.951482	0.114181	0.907096
H294	H	-0.451482	0.614181	1.407096
H295	H	-0.915352	0.078180	0.736661
H296	H	-0.415352	0.578180	1.236661
H297	H	-0.851367	0.078927	0.815807
H298	H	-0.351367	0.578927	1.315807
O299	O	-0.947774	0.574099	-0.000304
O300	O	-0.447774	1.074099	0.499696
C301	C	-1.073890	0.598683	-0.000305
C302	C	-0.573890	1.098683	0.499695
C303	C	-1.003278	0.629329	-0.000262
C304	C	-0.503278	1.129329	0.499738
H305	H	-1.118783	0.643321	-0.000255
H306	H	-0.618783	1.143321	0.499745
H307	H	-1.077624	0.565029	-0.053004
H308	H	-0.577624	1.065029	0.446996
H309	H	-1.077533	0.565004	0.052371
H310	H	-0.577533	1.065004	0.552371
H311	H	-0.999587	0.663039	-0.052903
H312	H	-0.499587	1.163039	0.447097
H313	H	-0.999574	0.662943	0.052472
H314	H	-0.499574	1.162943	0.552472
O315	O	-0.694645	0.683839	-0.000257
O316	O	-0.194645	1.183839	0.499743
C317	C	-0.568529	0.659254	-0.000181
C318	C	-0.068529	1.159254	0.499819
C319	C	-0.639141	0.628609	-0.000173
C320	C	-0.139141	1.128609	0.499827
H321	H	-0.523636	0.614615	-0.000097
H322	H	-0.023636	1.114615	0.499903
H323	H	-0.564804	0.692882	-0.052883
H324	H	-0.064804	1.192882	0.447117
H325	H	-0.564875	0.692958	0.052492
H326	H	-0.064875	1.192958	0.552492
H327	H	-0.642843	0.594873	-0.052811
H328	H	-0.142843	1.094873	0.447189
H329	H	-0.642836	0.595020	0.052564
H330	H	-0.142836	1.095020	0.552564
O331	O	-0.730493	-0.186787	0.336285
O332	O	-0.230493	0.313213	0.836285
C333	C	-0.608970	-0.228022	0.360558
C334	C	-0.108970	0.271978	0.860558
C335	C	-0.661389	-0.175692	0.316958
C336	C	-0.161389	0.324308	0.816958
H337	H	-0.553088	-0.219079	0.344936
H338	H	-0.053088	0.280921	0.844936
H339	H	-0.617097	-0.219851	0.424010
H340	H	-0.117097	0.280149	0.924010
H341	H	-0.617925	-0.283917	0.344965
H342	H	-0.117925	0.216083	0.844965
H343	H	-0.652466	-0.119776	0.332487
H344	H	-0.152466	0.380224	0.832487
H345	H	-0.653249	-0.183924	0.253517
H346	H	-0.153249	0.316076	0.753517
H347	H	-0.738099	-0.179386	0.669505
H348	H	-0.238099	0.320614	1.169505
H349	H	-0.935683	0.710481	-0.000284
H350	H	-0.435683	1.210481	0.499716
H351	H	-0.910878	-0.006680	0.330041
H352	H	-0.410878	0.493320	0.830041
