data_functionalizedCrystal
_audit_creation_method	'MofGen! by Chris Wilmer'
_symmetry_space_group_name_H-M	'P1'
_symmetry_Int_Tables_number	1
_symmetry_cell_setting	triclinic
loop_
_symmetry_equiv_pos_as_xyz
  x,y,z
_cell_length_a	18.215407
_cell_length_b	13.897448
_cell_length_c	18.215399
_cell_angle_alpha	89.973672
_cell_angle_beta	89.980167
_cell_angle_gamma	90.018140
loop_
_atom_site_label
_atom_site_type_symbol
_atom_site_fract_x
_atom_site_fract_y
_atom_site_fract_z
Zn1	Zn	1.125109	-0.384013	-0.416124
Zn2	Zn	1.625109	0.115987	0.083876
Zn3	Zn	1.125033	-0.545323	-0.293061
Zn4	Zn	1.625033	-0.045323	0.206939
Zn5	Zn	1.002041	-0.384045	-0.293072
Zn6	Zn	1.502041	0.115955	0.206928
Zn7	Zn	1.002023	-0.545269	-0.416086
Zn8	Zn	1.502023	-0.045269	0.083914
O9	O	1.063551	-0.464663	-0.354586
O10	O	1.563551	0.035337	0.145414
O11	O	1.228083	-0.405421	-0.399811
O12	O	1.728083	0.094579	0.100189
O13	O	1.108693	-0.523965	-0.190078
O14	O	1.608693	-0.023965	0.309922
O15	O	1.018406	-0.249059	-0.309415
O16	O	1.518406	0.250941	0.190585
O17	O	1.228027	-0.523934	-0.309398
O18	O	1.728027	-0.023934	0.190602
O19	O	1.108823	-0.249036	-0.399821
O20	O	1.608823	0.250964	0.100179
O21	O	1.018332	-0.405474	-0.190086
O22	O	1.518332	0.094526	0.309914
O23	O	0.899055	-0.405422	-0.309378
O24	O	1.399055	0.094578	0.190622
O25	O	1.018374	-0.523843	-0.519076
O26	O	1.518374	-0.023843	-0.019076
O27	O	0.899041	-0.523873	-0.399757
O28	O	1.399041	-0.023873	0.100243
O29	O	1.108805	-0.405369	-0.519103
O30	O	1.608805	0.094631	-0.019103
O31	O	1.108675	-0.680297	-0.309361
O32	O	1.608675	-0.180297	0.190639
O33	O	1.018300	-0.680258	-0.399747
O34	O	1.518300	-0.180258	0.100253
C35	C	0.872345	-0.464646	-0.354565
C36	C	1.372345	0.035354	0.145435
C37	C	0.790546	-0.464662	-0.354573
C38	C	1.290546	0.035338	0.145427
C39	C	0.602364	-0.526437	-0.401574
C40	C	1.102364	-0.026437	0.098426
C41	C	0.525506	-0.526440	-0.401583
C42	C	1.025506	-0.026440	0.098417
C43	C	0.525490	-0.402906	-0.307614
C44	C	1.025490	0.097094	0.192386
C45	C	0.602348	-0.402899	-0.307609
C46	C	1.102348	0.097101	0.192391
C47	C	0.640783	-0.464670	-0.354588
C48	C	1.140783	0.035330	0.145412
C49	C	0.487067	-0.464680	-0.354602
C50	C	0.987067	0.035320	0.145398
C51	C	0.403733	-0.464683	-0.354612
C52	C	0.903733	0.035317	0.145388
C53	C	0.724122	-0.464666	-0.354579
C54	C	1.224122	0.035334	0.145421
C55	C	1.063498	-0.715277	-0.354565
C56	C	1.563498	-0.215277	0.145435
C57	C	1.063542	-0.822491	-0.354580
C58	C	1.563542	-0.322491	0.145420
C59	C	1.063619	-1.018786	-0.354626
C60	C	1.563619	-0.518786	0.145374
C61	C	1.063574	-0.909553	-0.354603
C62	C	1.563574	-0.409553	0.145397
C63	C	1.255504	-0.464680	-0.354607
C64	C	1.755504	0.035320	0.145393
C65	C	1.337303	-0.464687	-0.354617
C66	C	1.837303	0.035313	0.145383
C67	C	1.063596	-0.464596	-0.546539
C68	C	1.563596	0.035404	-0.046539
C69	C	1.063615	-0.464568	-0.628338
C70	C	1.563615	0.035432	-0.128338
C71	C	1.063625	-0.213070	-0.354623
C72	C	1.563625	0.286930	0.145377
C73	C	1.063657	-0.105856	-0.354639
C74	C	1.563657	0.394144	0.145361
C75	C	1.110720	-0.402821	-0.816547
C76	C	1.610720	0.097179	-0.316547
C77	C	1.110728	-0.402792	-0.893406
C78	C	1.610728	0.097208	-0.393406
C79	C	1.016563	-0.526166	-0.893366
C80	C	1.516563	-0.026166	-0.393366
C81	C	1.016551	-0.526188	-0.816509
C82	C	1.516551	-0.026188	-0.316509
C83	C	1.063634	-0.464517	-0.778101
C84	C	1.563634	0.035483	-0.278101
C85	C	1.063654	-0.464466	-0.931818
C86	C	1.563654	0.035534	-0.431818
C87	C	1.063663	-0.464436	-1.015151
C88	C	1.563663	0.035564	-0.515151
C89	C	1.063624	-0.464546	-0.694762
C90	C	1.563624	0.035454	-0.194762
C91	C	1.063549	-0.464659	-0.163380
C92	C	1.563549	0.035341	0.336620
C93	C	1.063672	-0.464416	-0.081581
C94	C	1.563672	0.035584	0.418419
H95	H	0.494187	-0.352616	-0.269364
H96	H	0.994187	0.147384	0.230636
C97	C	1.162503	-0.334977	-0.774299
C98	C	1.662503	0.165023	-0.274299
C99	C	1.162496	-0.334999	-0.689759
C100	C	1.662496	0.165001	-0.189759
C101	C	1.214280	-0.267151	-0.647512
C102	C	1.714280	0.232849	-0.147512
C103	C	1.266071	-0.199283	-0.689806
C104	C	1.766071	0.300717	-0.189806
C105	C	1.266079	-0.199259	-0.774351
C106	C	1.766079	0.300741	-0.274351
C107	C	1.214296	-0.267106	-0.816597
C108	C	1.714296	0.232894	-0.316597
H109	H	1.124156	-0.385242	-0.658446
H110	H	1.624156	0.114758	-0.158446
H111	H	1.214273	-0.267170	-0.584926
H112	H	1.714273	0.232830	-0.084926
H113	H	1.304404	-0.149058	-0.658533
H114	H	1.804404	0.350942	-0.158533
H115	H	1.304420	-0.149016	-0.805663
H116	H	1.804420	0.350984	-0.305663
H117	H	1.214303	-0.267088	-0.879183
H118	H	1.714303	0.232912	-0.379183
C119	C	1.162526	-0.334926	-0.935696
C120	C	1.662526	0.165074	-0.435696
C121	C	1.246184	-0.342810	-0.925146
C122	C	1.746184	0.157190	-0.425146
C123	C	1.297983	-0.274939	-0.967435
C124	C	1.797983	0.225061	-0.467435
C125	C	1.266123	-0.199185	-1.020275
C126	C	1.766123	0.300815	-0.520275
C127	C	1.182461	-0.191298	-1.030828
C128	C	1.682461	0.308702	-0.530828
C129	C	1.130662	-0.259169	-0.988538
C130	C	1.630662	0.240831	-0.488538
H131	H	1.269772	-0.398890	-0.886028
H132	H	1.769772	0.101110	-0.386028
H133	H	1.359915	-0.280777	-0.959622
H134	H	1.859915	0.219223	-0.459622
H135	H	1.304468	-0.148942	-1.051580
H136	H	1.804468	0.351058	-0.551580
H137	H	1.158873	-0.135218	-1.069945
H138	H	1.658873	0.364782	-0.569945
H139	H	1.068730	-0.253331	-0.996351
H140	H	1.568730	0.246669	-0.496351
H141	H	0.494229	-0.576735	-0.439845
H142	H	0.994229	-0.076735	0.060155
H143	H	0.633629	-0.352595	-0.269347
H144	H	1.133629	0.147405	0.230653
C145	C	0.964780	-0.594009	-0.935616
C146	C	1.464780	-0.094009	-0.435616
C147	C	0.964794	-0.593992	-1.020156
C148	C	1.464794	-0.093992	-0.520156
C149	C	0.913011	-0.661840	-1.062404
C150	C	1.413011	-0.161840	-0.562404
C151	C	0.861216	-0.729704	-1.020112
C152	C	1.361216	-0.229704	-0.520112
C153	C	0.861200	-0.729723	-0.935567
C154	C	1.361200	-0.229723	-0.435567
C155	C	0.912983	-0.661875	-0.893319
C156	C	1.412983	-0.161875	-0.393319
H157	H	1.003137	-0.543753	-1.051467
H158	H	1.503137	-0.043753	-0.551467
H159	H	0.913023	-0.661825	-1.124990
H160	H	1.413023	-0.161825	-0.624990
H161	H	0.822883	-0.779928	-1.051386
H162	H	1.322883	-0.279928	-0.551386
H163	H	0.822856	-0.779962	-0.904256
H164	H	1.322856	-0.279962	-0.404256
H165	H	0.912971	-0.661890	-0.830733
H166	H	1.412971	-0.161890	-0.330733
H167	H	0.978203	-0.576428	-0.785205
H168	H	1.478203	-0.076428	-0.285205
H169	H	0.633656	-0.576732	-0.439829
H170	H	1.133656	-0.076732	0.060171
