data_functionalizedCrystal
_audit_creation_method	'MofGen! by Chris Wilmer'
_symmetry_space_group_name_H-M	'P1'
_symmetry_Int_Tables_number	1
_symmetry_cell_setting	triclinic
loop_
_symmetry_equiv_pos_as_xyz
  x,y,z
_cell_length_a	10.489711
_cell_length_b	10.489741
_cell_length_c	16.176319
_cell_angle_alpha	89.993511
_cell_angle_beta	89.991071
_cell_angle_gamma	84.533091
loop_
_atom_site_label
_atom_site_type_symbol
_atom_site_fract_x
_atom_site_fract_y
_atom_site_fract_z
O1	O	1.694081	0.179791	-0.068776
O2	O	1.322880	0.196723	-0.068771
O3	O	1.516927	0.002658	-0.068769
O4	O	1.500034	0.373856	-0.068778
O5	O	1.516900	0.002645	0.068724
O6	O	1.322853	0.196710	0.068722
O7	O	1.694054	0.179778	0.068717
Cu8	Cu	1.508451	0.188243	0.081274
Cu9	Cu	1.508483	0.188258	-0.081328
O10	O	1.500007	0.373843	0.068715
C11	C	1.275334	0.195446	-0.000024
C12	C	1.133703	0.191644	-0.000022
C13	C	0.951317	0.308348	-0.000034
C14	C	1.043476	0.250059	-0.067823
C15	C	1.043422	0.250015	0.067735
C16	C	0.973524	0.126516	-0.067884
C17	C	0.973461	0.126490	0.067735
C18	C	1.065593	0.068111	-0.000071
C19	C	1.515638	-0.044880	-0.000023
C20	C	1.511820	-0.186509	-0.000024
C21	C	1.388354	-0.254636	-0.000028
C22	C	1.446665	-0.346771	0.067762
C23	C	1.446721	-0.346733	-0.067795
C24	C	1.570182	-0.276779	0.067822
C25	C	1.570221	-0.276731	-0.067796
C26	C	1.628622	-0.368839	0.000011
C27	C	1.741600	0.181055	-0.000032
C28	C	1.883231	0.184857	-0.000039
C29	C	1.501296	0.421381	-0.000033
C30	C	1.505114	0.563010	-0.000037
N31	N	1.508438	0.188232	0.195639
N32	N	1.508506	0.188259	-0.195693
C33	C	1.594388	0.102335	0.238904
C34	C	1.594395	0.102334	0.325451
C35	C	1.508456	0.188236	0.368732
C36	C	1.422496	0.274136	0.325460
C37	C	1.422485	0.274131	0.238915
C38	C	1.422540	0.274161	0.674489
C39	C	1.422561	0.274163	0.761040
C40	C	1.594450	0.102364	0.761025
C41	C	1.594439	0.102358	0.674480
C42	C	1.508475	0.188253	0.631216
C43	C	1.508467	0.188252	0.537372
C44	C	1.508469	0.188245	0.462574
H45	H	0.942727	0.074318	-0.125261
H46	H	1.622429	-0.245687	-0.125112
H47	H	1.664443	0.032419	0.796260
N48	N	1.639282	-0.235943	0.143829
H49	H	1.592975	-0.262009	0.194965
H50	H	1.729764	-0.278582	0.143999
H51	H	1.664422	0.032413	0.639244
N52	N	1.329813	0.366796	0.372140
H53	H	1.275361	0.421210	0.331596
H54	H	1.272982	0.317421	0.408065
H55	H	1.664381	0.032390	0.360678
H56	H	0.901626	0.409850	-0.000104
H57	H	1.115050	-0.033484	-0.000102
N58	N	0.932350	0.057316	0.143652
H59	H	0.957500	0.104035	0.194835
H60	H	0.836388	0.054505	0.142717
H61	H	1.074366	0.302283	0.125045
N62	N	1.253892	-0.188851	0.000053
H63	H	1.207413	-0.214145	0.051311
H64	H	1.257525	-0.092988	-0.000502
N65	N	1.377469	-0.387841	0.143688
H66	H	1.286713	-0.345894	0.143643
H67	H	1.376221	-0.483993	0.143361
N68	N	1.329789	0.366779	0.192243
H69	H	1.272864	0.317479	0.156352
H70	H	1.275435	0.421181	0.232842
N71	N	1.329858	0.366811	0.807724
H72	H	1.275393	0.421220	0.767185
H73	H	1.273041	0.317416	0.843647
H74	H	1.074482	0.302320	-0.125134
N75	N	1.763203	-0.434328	0.000051
H76	H	1.809646	-0.408900	0.051277
H77	H	1.759789	-0.530220	-0.000468
N78	N	1.377517	-0.387768	-0.143708
H79	H	1.286763	-0.345818	-0.143642
H80	H	1.423344	-0.361061	-0.194870
H81	H	1.664375	0.032389	0.203671
N82	N	1.329820	0.366794	0.627832
H83	H	1.275385	0.421211	0.668385
H84	H	1.379150	0.423662	0.591904
