data_functionalizedCrystal
_audit_creation_method	'MofGen! by Chris Wilmer'
_symmetry_space_group_name_H-M	'P1'
_symmetry_Int_Tables_number	1
_symmetry_cell_setting	triclinic
loop_
_symmetry_equiv_pos_as_xyz
  x,y,z
_cell_length_a	8.497374
_cell_length_b	8.497374
_cell_length_c	18.101398
_cell_angle_alpha	90.003639
_cell_angle_beta	90.008882
_cell_angle_gamma	90.005237
loop_
_atom_site_label
_atom_site_type_symbol
_atom_site_fract_x
_atom_site_fract_y
_atom_site_fract_z
Zn1	Zn	0.892408	0.628529	1.132163
Zn2	Zn	0.628673	0.892274	1.132157
Zn3	Zn	0.628602	0.628480	1.008355
Zn4	Zn	0.892372	0.892239	1.008337
O5	O	0.760514	0.760381	1.070253
O6	O	0.857467	0.663550	1.235795
O7	O	0.407901	0.857276	1.115739
O8	O	0.663581	0.407724	1.024788
O9	O	0.663703	0.857323	1.235790
O10	O	0.857398	0.407760	1.115749
O11	O	0.407849	0.663468	1.024782
O12	O	0.663547	0.663433	0.904720
O13	O	1.113139	0.857262	1.024758
O14	O	0.857337	0.857216	0.904707
O15	O	1.113165	0.663516	1.115732
O16	O	0.663668	1.113032	1.115722
O17	O	0.857406	1.113006	1.024752
C18	C	0.760431	0.760317	0.877842
C19	C	0.760434	0.760327	0.795528
C20	C	1.171994	0.760383	1.070247
C21	C	1.350638	0.760400	1.070249
C22	C	0.760536	1.170260	1.070244
C23	C	0.760511	1.348904	1.070263
C24	C	0.760566	0.760426	0.496437
C25	C	0.639233	0.637894	0.527746
C26	C	0.638715	0.638222	0.613364
C27	C	0.760500	0.760375	0.644820
C28	C	0.715123	0.926545	0.613748
C29	C	0.714279	0.925864	0.528103
C30	C	0.927563	0.718232	0.528020
C31	C	0.926650	0.714531	0.613670
C32	C	0.760466	0.760357	0.728679
C33	C	0.760597	0.760455	0.412578
C34	C	0.760597	0.760446	1.263415
C35	C	0.760633	0.760474	1.345729
H36	H	0.667153	0.514999	0.634371
N37	N	0.484892	0.672469	0.500748
N38	N	0.376360	0.703074	0.545083
H39	H	0.267356	0.727492	0.526015
N40	N	0.563627	0.972209	0.640646
N41	N	0.488818	0.882660	0.682690
H42	H	0.381820	0.914901	0.701686
H43	H	0.514971	0.666112	0.633840
N44	N	0.561127	0.970766	0.503035
N45	N	0.455607	1.002384	0.548792
H46	H	0.347438	1.034096	0.531092
N47	N	0.674467	0.482837	0.501885
N48	N	0.575249	0.408639	0.464643
H49	H	0.600129	0.299124	0.446373
H50	H	0.798802	1.020248	0.507394
H51	H	0.800732	1.020284	0.634125
N52	N	0.979321	0.568857	0.500932
N53	N	1.008658	0.459765	0.545159
H54	H	1.045194	0.354261	0.526028
N55	N	0.969559	0.561124	0.639147
N56	N	0.878199	0.485749	0.680095
H57	H	0.908498	0.377404	0.698093
N58	N	1.046102	0.818427	0.640485
N59	N	1.010563	0.928444	0.683179
H60	H	1.094913	1.001867	0.702097
N61	N	1.040953	0.830224	0.502635
N62	N	0.999173	0.940678	0.461463
H63	H	1.079240	1.019787	0.443537
