data_functionalizedCrystal
_audit_creation_method	'MofGen! by Chris Wilmer'
_symmetry_space_group_name_H-M	'P1'
_symmetry_Int_Tables_number	1
_symmetry_cell_setting	triclinic
loop_
_symmetry_equiv_pos_as_xyz
  x,y,z
_cell_length_a	19.121241
_cell_length_b	17.640280
_cell_length_c	19.121605
_cell_angle_alpha	75.907989
_cell_angle_beta	94.790231
_cell_angle_gamma	99.283334
loop_
_atom_site_label
_atom_site_type_symbol
_atom_site_fract_x
_atom_site_fract_y
_atom_site_fract_z
Zn1	Zn	1.134239	0.241022	0.402355
Zn2	Zn	1.152959	0.379090	0.260933
Zn3	Zn	1.013594	0.252812	0.277646
Zn4	Zn	1.040346	0.379036	0.373542
O5	O	1.085284	0.312990	0.328619
O6	O	1.234342	0.254426	0.388659
O7	O	1.131110	0.367295	0.163832
O8	O	1.010568	0.140641	0.313242
O9	O	1.248095	0.355864	0.284757
O10	O	1.099205	0.131979	0.404865
O11	O	1.028719	0.274519	0.176111
O12	O	0.919523	0.274467	0.285303
O13	O	1.056163	0.355771	0.476682
O14	O	0.939178	0.367203	0.355757
O15	O	1.125146	0.254374	0.497851
O16	O	1.157050	0.489690	0.256818
O17	O	1.074314	0.489650	0.339551
C18	C	0.904039	0.322109	0.319218
C19	C	0.826505	0.326029	0.315209
C20	C	0.782936	0.275134	0.367478
C21	C	0.710084	0.278813	0.363706
C22	C	0.680803	0.333391	0.307668
C23	C	0.724377	0.384289	0.255394
C24	C	0.797227	0.380605	0.259164
C25	C	0.461200	0.347148	0.293575
C26	C	0.388345	0.350830	0.289811
C27	C	0.374056	0.245352	0.398122
C28	C	0.446908	0.241677	0.401889
C29	C	0.490476	0.292571	0.349613
C30	C	0.606337	0.337155	0.303813
C31	C	0.564940	0.288803	0.353466
C32	C	1.120636	0.518347	0.293261
C33	C	1.135824	0.606195	0.278161
C34	C	1.091550	0.303751	0.513738
C35	C	1.094220	0.299814	0.592625
C36	C	1.267238	0.303836	0.338057
C37	C	1.344775	0.299935	0.342079
C38	C	1.049814	0.106829	0.364132
C39	C	1.034699	0.018976	0.379265
C40	C	0.970196	0.895174	0.443601
C41	C	0.984468	0.977722	0.429390
C42	C	1.070680	0.977691	0.343335
C43	C	1.056417	0.895141	0.357541
C44	C	1.006174	0.853889	0.407674
C45	C	1.092396	0.853856	0.321614
C46	C	1.078131	0.771313	0.335816
C47	C	1.027889	0.730056	0.385946
C48	C	0.991910	0.771347	0.421876
C49	C	1.142635	0.895109	0.271477
C50	C	1.178613	0.853824	0.235550
C51	C	1.164353	0.771280	0.249756
C52	C	1.114110	0.730023	0.299885
C53	C	1.200332	0.729989	0.213825
C54	C	1.186067	0.647447	0.228028
C55	C	1.099846	0.647480	0.314088
C56	C	1.079073	0.322134	0.144232
C57	C	1.076500	0.325841	0.065390
C58	C	1.111159	0.274901	1.039348
C59	C	1.108647	0.278604	0.965224
C60	C	1.071470	0.333244	0.917145
C61	C	1.036810	0.384189	0.943192
C62	C	1.039327	0.380489	1.017314
C63	C	1.062077	0.347060	0.692794
C64	C	1.059561	0.350754	0.618668
C65	C	1.131399	0.245170	0.640705
C66	C	1.133909	0.241472	0.714828
C67	C	1.099252	0.292420	0.740868
C68	C	1.068899	0.337029	0.841379
C69	C	1.101828	0.288638	0.816632
H70	H	0.364508	0.395278	0.244177
O71	O	0.695922	0.437387	0.201044
C72	C	0.663948	0.488612	0.230397
H73	H	0.688662	0.489691	0.286567
H74	H	0.672715	0.550722	0.194130
H75	H	0.604612	0.466847	0.234230
O76	O	1.156624	0.975284	0.257688
C77	C	1.228839	0.998512	0.274717
H78	H	1.260389	0.949486	0.272899
H79	H	1.249724	1.054698	0.233856
H80	H	1.234797	1.010135	0.331163
O81	O	0.331839	0.195879	0.448973
C82	C	0.373302	0.146903	0.499230
H83	H	0.430891	0.176537	0.498751
H84	H	0.352722	0.136839	0.555509
H85	H	0.369821	0.087731	0.484071
H86	H	1.016271	0.662845	0.397503
O87	O	1.227333	0.893867	0.186752
C88	C	1.206278	0.877996	0.118688
H89	H	1.146516	0.858347	0.116062
H90	H	1.220513	0.933721	0.074596
H91	H	1.234779	0.829088	0.110365
O92	O	1.000804	0.437381	0.896499
C93	C	1.030214	0.514484	0.901845
H94	H	1.087318	0.514644	0.924428
H95	H	1.029282	0.556267	0.846060
H96	H	0.997827	0.534887	0.939366
H97	H	1.141427	0.230403	1.078490
H98	H	1.159615	0.203692	0.619495
O99	O	1.032692	0.390078	0.794760
C100	C	0.960802	0.375396	0.812227
H101	H	0.955945	0.342386	0.871199
H102	H	0.939433	0.433892	0.803325
H103	H	0.928897	0.338038	0.776282
H104	H	0.496664	0.388591	0.251009
H105	H	0.582488	0.381593	0.258186
H106	H	1.011105	0.421971	1.038515
H107	H	1.136872	0.237126	0.944025
O108	O	1.137883	0.235457	0.863271
C109	C	1.108456	0.158349	0.857958
H110	H	1.079533	0.160742	0.803033
H111	H	1.152617	0.120498	0.864139
H112	H	1.069424	0.131455	0.902402
H113	H	1.241235	0.763590	0.173002
H114	H	0.832701	0.422049	0.216601
H115	H	0.588782	0.244362	0.399090
O116	O	1.051100	0.607477	0.362881
C117	C	1.072182	0.623303	0.430956
H118	H	1.109393	0.681790	0.423532
H119	H	1.023385	0.627103	0.459645
H120	H	1.100815	0.573814	0.464740
O121	O	0.667813	0.229452	0.414571
C122	C	0.691029	0.242411	0.483208
H123	H	0.722047	0.304376	0.476858
H124	H	0.643152	0.236332	0.516968
H125	H	0.726660	0.197006	0.511301
H126	H	0.951002	0.737758	0.462705
O127	O	1.023466	0.403928	0.572054
C128	C	0.993415	0.448102	0.610931
H129	H	1.024238	0.446740	0.664786
H130	H	0.995996	0.511826	0.578408
H131	H	0.935711	0.421462	0.621036
H132	H	1.215364	0.613833	0.198772
H133	H	0.806770	0.230692	0.413112
O134	O	1.028531	0.396635	0.718097
C135	C	1.078489	0.443541	0.754237
H136	H	1.133512	0.446758	0.733908
H137	H	1.063760	0.505601	0.743276
H138	H	1.078591	0.416196	0.814750
H139	H	1.164185	0.196981	0.753970
O140	O	0.921355	0.855219	0.492309
C141	C	0.892676	0.909353	0.520999
H142	H	0.899456	0.969772	0.481677
H143	H	0.833853	0.887936	0.529783
H144	H	0.921527	0.914126	0.574735
H145	H	0.955175	1.011332	0.458659
H146	H	1.111586	1.011289	0.302514
O147	O	0.475398	0.188763	0.456382
C148	C	0.526872	0.229424	0.496566
H149	H	0.515790	0.292580	0.489002
H150	H	0.524647	0.198163	0.556177
H151	H	0.581800	0.230410	0.477015
