data_functionalizedCrystal
_audit_creation_method	'MofGen! by Chris Wilmer'
_symmetry_space_group_name_H-M	'P1'
_symmetry_Int_Tables_number	1
_symmetry_cell_setting	triclinic
loop_
_symmetry_equiv_pos_as_xyz
  x,y,z
_cell_length_a	16.109301
_cell_length_b	10.540539
_cell_length_c	14.586319
_cell_angle_alpha	89.998343
_cell_angle_beta	89.999213
_cell_angle_gamma	83.993486
loop_
_atom_site_label
_atom_site_type_symbol
_atom_site_fract_x
_atom_site_fract_y
_atom_site_fract_z
O1	O	1.104129	0.163159	-0.076178
O2	O	0.862191	0.183464	-0.076192
O3	O	0.988679	-0.011474	-0.076184
O4	O	0.977640	0.358096	-0.076186
O5	O	0.988670	-0.011477	0.076297
O6	O	0.862182	0.183461	0.076289
O7	O	1.104120	0.163156	0.076303
Cu8	Cu	0.983150	0.173308	0.090219
Cu9	Cu	0.983160	0.173312	-0.090108
O10	O	0.977631	0.358094	0.076294
C11	C	0.831206	0.182640	0.000047
C12	C	0.738896	0.180174	0.000041
C13	C	0.987847	-0.058767	0.000055
C14	C	0.985370	-0.199679	0.000050
C15	C	0.517296	0.290112	0.000051
C16	C	0.430561	0.287785	0.000057
C17	C	0.449021	0.056499	0.000055
C18	C	0.535754	0.058827	0.000055
C19	C	0.569889	0.175637	0.000049
C20	C	0.396421	0.170982	0.000054
C21	C	0.302380	0.168459	0.000060
C22	C	0.663936	0.178162	0.000044
C23	C	0.890460	-0.381753	-0.000298
C24	C	0.892971	-0.235171	0.000046
C25	C	1.029832	-0.261973	0.087127
C26	C	1.026678	-0.408472	0.087200
C27	C	1.028567	-0.409014	-0.086199
C28	C	1.029419	-0.262044	-0.087350
C29	C	1.135104	0.163980	0.000062
C30	C	1.227414	0.166446	0.000062
C31	C	0.978463	0.405386	0.000054
C32	C	0.980940	0.546299	0.000053
N33	N	0.983149	0.173305	0.217050
N34	N	0.983168	0.173305	-0.216939
C35	C	1.039177	0.087015	0.452060
C36	C	1.039179	0.087012	0.548042
C37	C	0.927134	0.259598	0.548044
C38	C	0.927129	0.259594	0.452064
C39	C	0.983154	0.173304	0.404075
C40	C	0.983163	0.173305	0.596036
C41	C	0.983165	0.173303	0.700103
C42	C	0.983151	0.173305	0.300001
H43	H	0.545085	0.385227	0.000052
H44	H	1.097687	-0.240586	0.090368
H45	H	0.881520	0.329855	0.587126
H46	H	0.387743	0.381003	0.000060
H47	H	0.853964	-0.409832	-0.062742
C48	C	0.324262	-0.049768	0.000043
C49	C	0.411497	-0.071895	0.000050
H50	H	0.301099	-0.129036	0.000033
H51	H	0.306258	-0.002650	0.053215
H52	H	0.306266	-0.002627	-0.053133
H53	H	0.429493	-0.119029	0.053230
H54	H	0.429508	-0.119033	-0.053127
C55	C	0.816379	0.430205	0.461699
C56	C	0.865546	0.354454	0.399311
H57	H	0.778366	0.488766	0.429129
H58	H	0.786163	0.377359	0.499138
H59	H	0.851266	0.475881	0.499131
H60	H	0.830660	0.308771	0.361884
H61	H	0.895764	0.407308	0.361856
C62	C	0.545297	-0.170034	0.000043
C63	C	0.593572	-0.067014	0.000049
H64	H	0.580993	-0.247717	0.000036
H65	H	0.511085	-0.166140	0.053213
H66	H	0.511083	-0.166121	-0.053135
H67	H	0.627782	-0.070922	0.053231
H68	H	0.627798	-0.070910	-0.053126
C69	C	1.152121	0.059426	0.344066
C70	C	1.100714	-0.007872	0.399286
H71	H	1.190103	0.000831	0.311485
H72	H	1.118756	0.110835	0.301771
H73	H	1.182380	0.112239	0.381496
H74	H	1.070450	-0.060678	0.361854
H75	H	1.134084	-0.059303	0.441585
H76	H	0.998666	-0.440139	-0.152197
C77	C	1.042649	-0.147252	-0.227877
C78	C	0.985569	-0.206149	-0.174317
H79	H	1.015577	-0.112745	-0.281567
H80	H	1.063456	-0.080716	-0.193685
H81	H	1.087620	-0.208362	-0.244715
H82	H	0.940601	-0.145037	-0.157474
H83	H	0.964750	-0.272693	-0.208516
C84	C	0.814911	-0.274136	-0.135455
C85	C	0.845733	-0.176971	-0.084210
H86	H	0.785740	-0.238206	-0.187467
H87	H	0.860060	-0.333085	-0.155047
H88	H	0.778019	-0.317001	-0.098607
H89	H	0.882630	-0.134112	-0.121057
H90	H	0.800577	-0.118000	-0.064620
H91	H	0.857734	-0.192914	0.062566
C92	C	1.149936	-0.083567	0.538393
C93	C	1.100764	-0.007834	0.600787
H94	H	1.187960	-0.142118	0.570957
H95	H	1.115059	-0.129242	0.500963
H96	H	1.180147	-0.030698	0.500952
H97	H	1.070548	-0.060703	0.638224
H98	H	1.135645	0.037845	0.638232
H99	H	0.854105	-0.411444	0.061793
C100	C	1.172724	-0.382063	0.095686
C101	C	1.116381	-0.474516	0.092555
H102	H	1.228100	-0.422835	0.099001
H103	H	1.166733	-0.330929	0.041998
H104	H	1.161555	-0.329738	0.148193
H105	H	1.127546	-0.526836	0.040043
H106	H	1.122375	-0.525672	0.146248
H107	H	0.993812	-0.436204	0.152288
H108	H	0.998939	-0.218934	0.151923
C109	C	1.138604	-0.154326	-0.020054
C110	C	1.120365	-0.230657	-0.094446
H111	H	1.194755	-0.134960	-0.024428
H112	H	1.102149	-0.077441	-0.020796
H113	H	1.131292	-0.198824	0.035516
H114	H	1.127672	-0.186156	-0.150015
H115	H	1.156831	-0.307555	-0.093712
H116	H	1.095307	-0.457191	-0.086781
