data_functionalizedCrystal
_audit_creation_method	'MofGen! by Chris Wilmer'
_symmetry_space_group_name_H-M	'P1'
_symmetry_Int_Tables_number	1
_symmetry_cell_setting	triclinic
loop_
_symmetry_equiv_pos_as_xyz
  x,y,z
_cell_length_a	13.032831
_cell_length_b	21.295417
_cell_length_c	13.032268
_cell_angle_alpha	97.140648
_cell_angle_beta	90.886977
_cell_angle_gamma	82.834379
loop_
_atom_site_label
_atom_site_type_symbol
_atom_site_fract_x
_atom_site_fract_y
_atom_site_fract_z
Zn1	Zn	1.498336	-0.425102	-0.780728
Zn2	Zn	1.998336	0.074898	-0.280728
Zn3	Zn	1.520047	-0.518887	-0.608724
Zn4	Zn	2.020047	-0.018887	-0.108724
Zn5	Zn	1.348204	-0.398806	-0.586976
Zn6	Zn	1.848204	0.101194	-0.086976
Zn7	Zn	1.326296	-0.515483	-0.758850
Zn8	Zn	1.826296	-0.015483	-0.258850
O9	O	1.423221	-0.464570	-0.683820
O10	O	1.923221	0.035430	-0.183820
O11	O	1.645133	-0.449972	-0.776169
O12	O	2.145133	0.050028	-0.276169
O13	O	1.515506	-0.493377	-0.461925
O14	O	2.015506	0.006623	0.038075
O15	O	1.368201	-0.314216	-0.612731
O16	O	1.868201	0.185784	-0.112731
O17	O	1.661084	-0.518875	-0.649799
O18	O	2.161084	-0.018875	-0.149799
O19	O	1.478503	-0.333535	-0.755080
O20	O	1.978503	0.166465	-0.255080
O21	O	1.389253	-0.405155	-0.445946
O22	O	1.889253	0.094845	0.054054
O23	O	1.201381	-0.401855	-0.591517
O24	O	1.701381	0.098145	-0.091517
O25	O	1.330864	-0.513075	-0.905667
O26	O	1.830864	-0.013075	-0.405667
O27	O	1.185286	-0.487577	-0.717793
O28	O	1.685286	0.012423	-0.217793
O29	O	1.457261	-0.446672	-0.921740
O30	O	1.957261	0.053328	-0.421740
O31	O	1.494263	-0.606514	-0.628585
O32	O	1.994263	-0.106514	-0.128585
O33	O	1.351916	-0.604014	-0.738882
O34	O	1.851916	-0.104014	-0.238882
C35	C	1.156018	-0.441494	-0.649922
C36	C	1.656018	0.058506	-0.149922
C37	C	1.041704	-0.431638	-0.635445
C38	C	1.541704	0.068362	-0.135445
C39	C	1.423093	-0.628106	-0.683746
C40	C	1.923093	-0.128106	-0.183746
C41	C	1.423128	-0.698078	-0.683760
C42	C	1.923128	-0.198078	-0.183760
C43	C	0.982815	-0.469713	-0.691375
C44	C	1.482815	0.030287	-0.191375
C45	C	0.864665	-0.459528	-0.676414
C46	C	1.364665	0.040472	-0.176414
C47	C	1.497299	-0.732235	-0.626403
C48	C	1.997299	-0.232235	-0.126403
C49	C	1.497344	-0.797983	-0.626433
C50	C	1.997344	-0.297983	-0.126433
C51	C	1.423202	-0.829569	-0.683806
C52	C	1.923202	-0.329569	-0.183806
C53	C	1.349025	-0.795405	-0.741175
C54	C	1.849025	-0.295405	-0.241175
C55	C	1.348989	-0.729659	-0.741152
C56	C	1.848989	-0.229659	-0.241152
N57	N	1.332239	-0.925592	-0.680232
N58	N	1.832239	-0.425592	-0.180232
N59	N	1.332278	-0.988048	-0.680248
N60	N	1.832278	-0.488048	-0.180248
C61	C	1.423310	-1.027658	-0.683879
C62	C	1.923310	-0.527658	-0.183879
N63	N	1.514306	-1.002451	-0.687474
N64	N	2.014306	-0.502451	-0.187474
N65	N	1.514267	-0.939990	-0.687452
N66	N	2.014267	-0.439990	-0.187452
C67	C	1.423234	-0.900860	-0.683837
C68	C	1.923234	-0.400860	-0.183837
C69	C	1.497535	-1.133107	-0.626551
C70	C	1.997535	-0.633107	-0.126551
C71	C	1.497581	-1.198857	-0.626588
C72	C	1.997581	-0.698857	-0.126588
C73	C	1.349254	-1.196276	-0.741323
C74	C	1.849254	-0.696276	-0.241323
C75	C	1.349216	-1.130528	-0.741293
C76	C	1.849216	-0.630528	-0.241293
C77	C	1.423356	-1.098947	-0.683901
C78	C	1.923356	-0.598947	-0.183901
C79	C	1.691467	-0.487736	-0.717850
C80	C	2.191467	0.012264	-0.217850
C81	C	1.805778	-0.497609	-0.732352
C82	C	2.305778	0.002391	-0.232352
C83	C	1.389197	-0.482427	-0.952062
C84	C	1.889197	0.017573	-0.452062
C85	C	1.374697	-0.490036	-1.066371
C86	C	1.874697	0.009964	-0.566371
C87	C	1.423374	-0.300399	-0.683920
C88	C	1.923374	0.199601	-0.183920
C89	C	1.423439	-0.230439	-0.683963
C90	C	1.923439	0.269561	-0.183963
C91	C	1.430772	-0.460574	-1.125287
C92	C	1.930772	0.039426	-0.625287
C93	C	1.415788	-0.468438	-1.243431
C94	C	1.915788	0.031562	-0.743431
C95	C	1.457172	-0.446742	-0.416628
C96	C	1.957172	0.053258	0.083372
C97	C	1.471870	-0.438972	-0.302345
C98	C	1.971870	0.061028	0.197655
H99	H	1.019867	-0.509849	-0.750340
H100	H	1.519867	-0.009849	-0.250340
H101	H	0.827617	-0.419386	-0.617453
H102	H	1.327617	0.080614	-0.117453
N103	N	0.852242	-0.547975	-0.806309
N104	N	1.352242	-0.047975	-0.306309
N105	N	0.841172	-0.604564	-0.797801
N106	N	1.341172	-0.104564	-0.297801
H107	H	0.873986	-0.640137	-0.850031
H108	H	1.373986	-0.140137	-0.350031
N109	N	1.573023	-0.699968	-0.567789
N110	N	2.073023	-0.199968	-0.067789
N111	N	1.633913	-0.671292	-0.612304
N112	N	2.133913	-0.171292	-0.112304
H113	H	1.687387	-0.648497	-0.570903
H114	H	2.187387	-0.148497	-0.070903
H115	H	1.530970	-0.407920	-1.265324
H116	H	2.030970	0.092080	-0.765324
N117	N	1.504926	-0.421627	-1.078866
N118	N	2.004926	0.078373	-0.578866
N119	N	1.557654	-0.393925	-1.134196
N120	N	2.057654	0.106075	-0.634196
H121	H	1.610027	-0.366417	-1.101415
H122	H	2.110027	0.133583	-0.601415
H123	H	1.288589	-0.701847	-0.787860
H124	H	1.788589	-0.201847	-0.287860
H125	H	1.356676	-0.499481	-1.280452
H126	H	1.856676	0.000519	-0.780452
H127	H	1.004651	-0.391498	-0.576488
H128	H	1.504651	0.108502	-0.076488
H129	H	1.557907	-1.107393	-0.579823
H130	H	2.057907	-0.607393	-0.079823
H131	H	1.557746	-0.825800	-0.579727
H132	H	2.057746	-0.325800	-0.079727
N133	N	1.273303	-0.827676	-0.799781
N134	N	1.773303	-0.327676	-0.299781
N135	N	1.273345	-0.886377	-0.799793
N136	N	1.773345	-0.386377	-0.299793
H137	H	1.219867	-0.909171	-0.841190
H138	H	1.719867	-0.409171	-0.341190
H139	H	1.557986	-1.226668	-0.579884
H140	H	2.057986	-0.726668	-0.079884
N141	N	1.273531	-1.228543	-0.799931
N142	N	1.773531	-0.728543	-0.299931
N143	N	1.273575	-1.287244	-0.799948
N144	N	1.773575	-0.787244	-0.299948
H145	H	1.220095	-1.310037	-0.841343
H146	H	1.720095	-0.810037	-0.341343
H147	H	1.288816	-1.102715	-0.787994
H148	H	1.788816	-0.602715	-0.287994
N149	N	1.300550	-0.528976	-1.112825
N150	N	1.800550	-0.028976	-0.612825
N151	N	1.288479	-0.535307	-1.208732
N152	N	1.788479	-0.035307	-0.708732
H153	H	1.236109	-0.562808	-1.241539
H154	H	1.736109	-0.062808	-0.741539
