data_functionalizedCrystal
_audit_creation_method	'MofGen! by Chris Wilmer'
_symmetry_space_group_name_H-M	'P1'
_symmetry_Int_Tables_number	1
_symmetry_cell_setting	triclinic
loop_
_symmetry_equiv_pos_as_xyz
  x,y,z
_cell_length_a	19.805407
_cell_length_b	21.295417
_cell_length_c	19.805399
_cell_angle_alpha	90.029796
_cell_angle_beta	90.019573
_cell_angle_gamma	90.029702
loop_
_atom_site_label
_atom_site_type_symbol
_atom_site_fract_x
_atom_site_fract_y
_atom_site_fract_z
Zn1	Zn	1.034720	-0.250624	0.382709
Zn2	Zn	1.034629	-0.355893	0.269517
Zn3	Zn	0.921535	-0.250641	0.269534
Zn4	Zn	0.921492	-0.355859	0.382663
O5	O	0.978094	-0.303254	0.326106
O6	O	1.129425	-0.264595	0.367706
O7	O	1.019606	-0.341952	0.174802
O8	O	0.936605	-0.162549	0.284573
O9	O	1.129357	-0.341935	0.284544
O10	O	1.019762	-0.162537	0.367723
O11	O	0.936517	-0.264624	0.174815
O12	O	0.826813	-0.264592	0.284529
O13	O	0.936532	-0.341878	0.477386
O14	O	0.826781	-0.341895	0.367644
O15	O	1.019721	-0.264562	0.477420
O16	O	1.019564	-0.443977	0.284499
O17	O	0.936443	-0.443953	0.367628
C18	C	0.802238	-0.303242	0.326084
C19	C	0.727006	-0.303252	0.326091
C20	C	0.691663	-0.343564	0.369299
C21	C	0.620975	-0.343566	0.369308
C22	C	0.585630	-0.303257	0.326106
C23	C	0.620978	-0.262940	0.282895
C24	C	0.691665	-0.262936	0.282890
C25	C	0.335905	-0.262954	0.282918
C26	C	0.265213	-0.262962	0.282925
C27	C	0.265214	-0.343583	0.369336
C28	C	0.335901	-0.343579	0.369331
C29	C	0.371243	-0.303261	0.326123
C30	C	0.447891	-0.303259	0.326114
C31	C	0.508983	-0.303261	0.326111
C32	C	0.978008	-0.466806	0.326071
C33	C	0.978033	-0.536774	0.326079
C34	C	1.021308	-0.569577	0.369406
C35	C	1.021331	-0.635319	0.369423
C36	C	0.978087	-0.668256	0.326101
C37	C	0.934804	-0.635446	0.282771
C38	C	0.934777	-0.569704	0.282760
N39	N	0.972976	-0.771518	0.266865
N40	N	0.973006	-0.833969	0.266877
C41	C	0.978167	-0.866331	0.326131
N42	N	0.983309	-0.833882	0.385374
N43	N	0.983283	-0.771425	0.385362
C44	C	0.978112	-0.739542	0.326108
C45	C	1.021470	-0.970419	0.369480
C46	C	1.021489	-1.036163	0.369498
C47	C	0.934965	-1.036288	0.282840
C48	C	0.934942	-0.970546	0.282828
C49	C	0.978198	-0.937615	0.326147
C50	C	1.154637	-0.303267	0.326128
C51	C	1.229869	-0.303272	0.326138
C52	C	0.978132	-0.303214	0.502649
C53	C	0.978148	-0.303198	0.577881
C54	C	0.978199	-0.139064	0.326155
C55	C	0.978244	-0.069096	0.326176
C56	C	0.978095	-0.303248	0.150250
C57	C	0.978210	-0.303088	0.075018
C58	C	1.021465	-0.262937	0.613243
C59	C	1.021472	-0.262919	0.683932
C60	C	0.978165	-0.303165	0.719256
C61	C	0.934843	-0.343427	0.683888
C62	C	0.934833	-0.343441	0.613201
C63	C	0.934881	-0.343368	0.968962
C64	C	0.934896	-0.343352	1.039654
C65	C	1.021520	-0.262846	1.039692
C66	C	1.021510	-0.262860	0.969005
C67	C	0.978186	-0.303120	0.933644
C68	C	0.978178	-0.303138	0.856995
C69	C	0.978176	-0.303150	0.795903
H70	H	0.720441	-0.230107	0.247709
H71	H	1.056733	-0.230166	0.584487
O72	O	1.068008	-0.670707	0.416160
H73	H	1.060754	-0.721953	0.408893
H74	H	0.592201	-0.376392	0.404492
O75	O	0.582862	-0.219478	0.236279
H76	H	0.527771	-0.226263	0.243530
H77	H	1.056747	-0.230136	0.712721
O78	O	0.227119	-0.387110	0.415920
H79	H	0.240716	-0.376415	0.469070
H80	H	0.899751	-1.063105	0.247570
H81	H	0.899536	-0.542996	0.247478
H82	H	1.056778	-0.230090	0.940248
H83	H	0.236437	-0.230134	0.247744
H84	H	0.899707	-0.943836	0.247544
O85	O	0.888169	-0.670965	0.236035
H86	H	0.895466	-0.722190	0.243313
H87	H	0.899627	-0.376126	1.068413
H88	H	1.056794	-0.230062	1.068492
H89	H	1.056527	-0.542767	0.404681
H90	H	0.899579	-0.376193	0.712655
O91	O	0.729775	-0.387037	0.415908
H92	H	0.762006	-0.358895	0.450392
O93	O	0.888121	-0.386756	0.930825
H94	H	0.858002	-0.414730	0.967266
H95	H	0.364672	-0.230129	0.247731
O96	O	1.068115	-0.934894	0.416205
H97	H	1.098205	-0.968752	0.446345
H98	H	0.364675	-0.376405	0.404509
O99	O	0.888104	-0.386856	0.575054
H100	H	0.857991	-0.414840	0.611492
H101	H	1.056728	-1.062870	0.404783
