data_functionalizedCrystal
_audit_creation_method	'MofGen! by Chris Wilmer'
_symmetry_space_group_name_H-M	'P1'
_symmetry_Int_Tables_number	1
_symmetry_cell_setting	triclinic
loop_
_symmetry_equiv_pos_as_xyz
  x,y,z
_cell_length_a	19.188925
_cell_length_b	17.666332
_cell_length_c	10.723024
_cell_angle_alpha	89.994743
_cell_angle_beta	96.194791
_cell_angle_gamma	90.010303
loop_
_atom_site_label
_atom_site_type_symbol
_atom_site_fract_x
_atom_site_fract_y
_atom_site_fract_z
O1	O	0.927164	0.062963	-0.155751
O2	O	1.427164	0.562963	0.344249
O3	O	0.723989	0.062960	-0.176729
O4	O	1.223989	0.562960	0.323271
O5	O	0.830263	0.062959	0.015434
O6	O	1.330263	0.562959	0.515434
O7	O	0.820890	0.062964	-0.347913
O8	O	1.320890	0.562964	0.152087
O9	O	0.830244	-0.062938	0.015444
O10	O	1.330244	0.437062	0.515444
O11	O	0.723970	-0.062936	-0.176719
O12	O	1.223970	0.437064	0.323281
O13	O	0.927145	-0.062934	-0.155741
O14	O	1.427145	0.437066	0.344259
Cu15	Cu	0.825556	-0.074430	-0.166229
Cu16	Cu	1.325556	0.425570	0.333771
Cu17	Cu	0.825578	0.074457	-0.166241
Cu18	Cu	1.325578	0.574457	0.333759
O19	O	0.820871	-0.062932	-0.347903
O20	O	1.320871	0.437068	0.152097
C21	C	0.697964	0.000012	-0.176046
C22	C	1.197964	0.500012	0.323954
C23	C	0.620446	0.000011	-0.174010
C24	C	1.120446	0.500011	0.325990
N25	N	0.825545	-0.179150	-0.166220
N26	N	1.325545	0.320850	0.333780
C27	C	0.059320	0.000014	-0.273132
C28	C	0.559320	0.500014	0.226868
C29	C	0.132155	0.000018	-0.275056
C30	C	0.632155	0.500018	0.224944
C31	C	0.176357	0.000015	-0.162301
C32	C	0.676357	0.500015	0.337699
C33	C	0.147718	0.000028	-0.047614
C34	C	0.647718	0.500028	0.452386
C35	C	0.074883	0.000031	-0.045693
C36	C	0.574883	0.500031	0.454307
N37	N	0.296497	-0.042842	-0.080668
N38	N	0.796497	0.457158	0.419332
N39	N	0.365687	-0.042847	-0.082500
N40	N	0.865687	0.457153	0.417500
C41	C	0.395804	0.000006	-0.168081
C42	C	0.895804	0.500006	0.331919
N43	N	0.354117	0.042856	-0.251779
N44	N	0.854117	0.542856	0.248221
N45	N	0.284921	0.042857	-0.249951
N46	N	0.784921	0.542857	0.250049
C47	C	0.255335	0.000012	-0.164371
C48	C	0.755335	0.500012	0.335629
C49	C	0.503412	0.000004	-0.284847
C50	C	1.003412	0.500004	0.215153
C51	C	0.576249	0.000013	-0.286766
C52	C	1.076249	0.500013	0.213234
C53	C	0.591810	0.000014	-0.059320
C54	C	1.091810	0.500014	0.440680
C55	C	0.518974	0.000013	-0.057405
C56	C	1.018974	0.500013	0.442595
C57	C	0.474779	0.000004	-0.170171
C58	C	0.974779	0.500004	0.329829
C59	C	0.872619	-0.218760	-0.081171
C60	C	1.372619	0.281240	0.418829
C61	C	0.872623	-0.298008	-0.081165
C62	C	1.372623	0.201992	0.418835
C63	C	0.825560	-0.337642	-0.166229
C64	C	1.325560	0.162358	0.333771
C65	C	0.778477	-0.298022	-0.251284
C66	C	1.278477	0.201978	0.248716
C67	C	0.778470	-0.218776	-0.251279
C68	C	1.278470	0.281224	0.248721
N69	N	0.817202	-0.462059	-0.276688
N70	N	1.317202	0.037941	0.223312
N71	N	0.817213	-0.537340	-0.276688
N72	N	1.317213	-0.037340	0.223312
C73	C	0.825579	-0.576406	-0.166246
C74	C	1.325579	-0.076406	0.333754
N75	N	0.833946	-0.537348	-0.055800
N76	N	1.333946	-0.037348	0.444200
N77	N	0.833939	-0.462061	-0.055801
N78	N	1.333939	0.037939	0.444199
C79	C	0.825563	-0.423571	-0.166243
C80	C	1.325563	0.076429	0.333757
C81	C	0.872659	-0.701946	-0.081185
C82	C	1.372659	-0.201946	0.418815
C83	C	0.872658	-0.781195	-0.081177
C84	C	1.372658	-0.281195	0.418823
C85	C	0.778516	-0.781207	-0.251306
C86	C	1.278516	-0.281207	0.248694
C87	C	0.778514	-0.701960	-0.251303
C88	C	1.278514	-0.201960	0.248697
C89	C	0.825589	-0.662334	-0.166244
C90	C	1.325589	-0.162334	0.333756
C91	C	0.953170	0.000016	-0.156424
C92	C	1.453170	0.500016	0.343576
C93	C	1.030688	0.000022	-0.158460
C94	C	1.530688	0.500022	0.341540
C95	C	0.829571	0.000011	0.061924
C96	C	1.329571	0.500011	0.561924
C97	C	0.827531	0.000014	0.200436
C98	C	1.327531	0.500014	0.700436
N99	N	0.825594	0.179176	-0.166240
N100	N	1.325594	0.679176	0.333760
C101	C	0.821562	0.000017	-0.394394
C102	C	1.321562	0.500017	0.105606
C103	C	0.823603	0.000019	-0.532906
C104	C	1.323603	0.500019	-0.032906
C105	C	0.886996	0.000016	0.276655
C106	C	1.386996	0.500016	0.776655
C107	C	0.884888	0.000018	0.419815
C108	C	1.384888	0.500018	0.919815
H109	H	0.023340	0.000011	-0.364956
H110	H	0.523340	0.500011	0.135044
H111	H	0.910990	-0.813446	-0.011914
H112	H	1.410990	-0.313446	0.488086
H113	H	0.740136	-0.186524	-0.320537
H114	H	1.240136	0.313476	0.179463
H115	H	0.939467	0.000012	0.235924
H116	H	1.439467	0.500012	0.735924
H117	H	0.910989	-0.669681	-0.011920
H118	H	1.410989	-0.169681	0.488080
H119	H	0.740184	-0.669707	-0.320562
H120	H	1.240184	-0.169707	0.179438
H121	H	0.467426	-0.000002	-0.376668
H122	H	0.967426	0.499998	0.123332
H123	H	0.740194	-0.813477	-0.320562
H124	H	1.240194	-0.313477	0.179438
H125	H	0.155472	0.000005	-0.368438
H126	H	0.655472	0.500005	0.131562
H127	H	0.935795	0.000017	0.485306
H128	H	1.435795	0.500017	0.985306
H129	H	0.775060	0.000018	0.241167
H130	H	1.275060	0.500018	0.741167
H131	H	0.183711	0.000027	0.044192
H132	H	0.683711	0.500027	0.544192
H133	H	0.051573	0.000038	0.047689
H134	H	0.551573	0.500038	0.547689
H135	H	0.599558	0.000013	-0.380149
H136	H	1.099558	0.500013	0.119851
H137	H	0.495663	0.000015	0.035974
H138	H	0.995663	0.500015	0.535974
H139	H	0.772693	0.000012	0.401611
H140	H	1.272693	0.500012	0.901611
H141	H	0.910949	-0.186499	-0.011908
H142	H	1.410949	0.313501	0.488092
H143	H	0.910957	-0.330265	-0.011906
H144	H	1.410957	0.169735	0.488094
H145	H	0.627799	0.000018	0.032487
H146	H	1.127799	0.500018	0.532487
H147	H	0.740157	-0.330296	-0.320542
H148	H	1.240157	0.169704	0.179458
