data_functionalizedCrystal
_audit_creation_method	'MofGen! by Chris Wilmer'
_symmetry_space_group_name_H-M	'P1'
_symmetry_Int_Tables_number	1
_symmetry_cell_setting	triclinic
loop_
_symmetry_equiv_pos_as_xyz
  x,y,z
_cell_length_a	27.440280
_cell_length_b	14.446369
_cell_length_c	14.446369
_cell_angle_alpha	60.000250
_cell_angle_beta	90.005311
_cell_angle_gamma	59.999534
loop_
_atom_site_label
_atom_site_type_symbol
_atom_site_fract_x
_atom_site_fract_y
_atom_site_fract_z
Zr1	Zr	0.469506	1.013131	-0.121408
O2	O	0.391688	1.206259	-0.269237
O3	O	0.493361	0.820009	-0.076085
O4	O	0.493362	1.013117	-0.269204
O5	O	0.391687	1.013159	0.076211
O6	O	0.573565	1.013099	-0.269185
O7	O	0.391687	1.013150	-0.076118
O8	O	0.573563	0.667663	0.076270
O9	O	0.391689	1.358595	-0.269244
O10	O	0.563390	0.899427	-0.056748
O11	O	0.503535	0.899446	0.056919
O12	O	0.503537	1.126807	-0.170454
O13	O	0.443682	1.126826	-0.056787
Zr14	Zr	0.597420	1.013115	0.121569
Zr15	Zr	0.597420	1.013102	-0.121378
Zr16	Zr	0.469506	1.013144	0.121539
Zr17	Zr	0.469507	1.256088	-0.121419
Zr18	Zr	0.597419	0.770157	0.121580
O19	O	0.573566	1.206237	0.076246
O20	O	0.573566	1.206218	-0.269194
O21	O	0.391688	1.206278	0.076202
O22	O	0.675238	0.819987	0.269398
O23	O	0.675239	0.819968	-0.076041
O24	O	0.493361	0.820028	0.269354
O25	O	0.675239	1.013087	-0.076050
O26	O	0.573564	1.013129	0.269365
O27	O	0.493362	1.013147	0.269346
O28	O	0.675239	1.013096	0.076279
O29	O	0.493364	1.358572	-0.269220
O30	O	0.573563	0.667674	0.269381
O31	O	0.675238	0.667651	0.269405
O32	O	0.675238	0.667641	0.076294
O33	O	0.391689	1.358605	-0.076134
O34	O	0.493364	1.358583	-0.076109
O35	O	0.563390	0.899439	0.170615
O36	O	0.623244	0.899420	0.056948
O37	O	0.563391	1.126800	-0.056758
O38	O	0.503537	1.126819	0.056909
C39	C	0.533462	0.709220	0.000094
C40	C	0.533461	0.606078	0.000099
C41	C	0.495892	0.459080	0.072117
C42	C	0.495688	0.566700	0.071826
C43	C	0.505923	0.655073	-0.123442
C44	C	0.505641	0.547840	-0.123068
C45	C	0.598596	0.372608	0.050559
C46	C	0.598500	0.478759	0.053080
C47	C	0.373462	1.013159	0.000042
C48	C	0.319159	1.013171	0.000029
C49	C	0.013704	0.894411	0.059465
C50	C	-0.037314	0.894404	0.059475
O51	O	-0.037131	0.793463	0.109987
N52	N	-0.094074	1.013093	0.000121
C53	C	-0.099814	1.131797	-0.059238
O54	O	-0.152777	1.232750	-0.109722
C55	C	-0.048796	1.131802	-0.059241
C56	C	0.007963	1.013106	0.000108
C57	C	0.070461	0.775725	0.118810
C58	C	0.121475	0.775732	0.118798
C59	C	0.115734	0.894427	0.059441
C60	C	0.058978	1.013114	0.000096
C61	C	-0.054537	1.250505	-0.118593
C62	C	-0.003513	1.250500	-0.118590
C63	C	0.053246	1.131804	-0.059241
C64	C	0.104251	1.131816	-0.059273
N65	N	0.161010	1.013127	0.000081
C66	C	0.166752	0.894433	0.059438
C67	C	-0.206953	1.131775	-0.059226
C68	C	-0.257970	1.131771	-0.059231
C69	C	-0.195466	0.894378	0.059484
C70	C	-0.144449	0.894384	0.059482
C71	C	-0.150193	1.013086	0.000128
C72	C	0.273884	0.894458	0.059408
C73	C	0.324901	0.894476	0.059387
C74	C	0.262393	1.131868	-0.059323
C75	C	0.211381	1.131851	-0.059308
C76	C	0.217130	1.013135	0.000066
O77	O	0.104114	1.232706	-0.109756
O78	O	0.219717	0.793496	0.109926
C79	C	0.693464	1.013087	0.000119
C80	C	0.747767	1.013075	0.000131
C81	C	0.533464	1.013106	-0.303809
C82	C	0.533464	1.013101	-0.406946
C83	C	0.533465	1.317026	0.000066
C84	C	0.533465	1.420168	0.000062
C85	C	0.571401	0.869707	-0.481913
C86	C	0.571237	0.869610	-0.374584
C87	C	0.468428	1.084343	-0.481525
C88	C	0.468635	1.083433	-0.588384
C89	C	0.560037	1.086365	-0.589936
C90	C	0.561353	1.083663	-0.481263
C91	C	0.533463	1.013140	0.303970
C92	C	0.533463	1.013145	0.407107
C93	C	0.693463	0.709184	0.000132
C94	C	0.747765	0.606030	0.000150
C95	C	0.533462	0.709236	0.303984
C96	C	0.533461	0.606100	0.407126
C97	C	0.693463	0.709201	0.304022
C98	C	0.747765	0.606052	0.407177
C99	C	0.373464	1.317045	-0.303861
C100	C	0.319161	1.420194	-0.407016
C101	C	0.373464	1.317062	0.000028
C102	C	0.319161	1.420216	0.000011
C103	C	0.533465	1.317010	-0.303823
C104	C	0.533466	1.420146	-0.406965
C105	C	0.742023	0.557591	-0.059200
C106	C	0.793041	0.460681	-0.059206
C107	C	0.849801	0.412203	0.000145
C108	C	0.855542	0.460652	0.059497
C109	C	0.804525	0.557567	0.059496
C110	C	0.804515	0.557602	0.396286
C111	C	0.855543	0.460697	0.493202
C112	C	0.849819	0.412237	0.601007
C113	C	0.793064	0.460696	0.611895
C114	C	0.742037	0.557606	0.514981
C115	C	0.262412	1.468655	-0.396126
C116	C	0.211384	1.565591	-0.493041
C117	C	0.217107	1.614056	-0.600846
C118	C	0.273863	1.565591	-0.611734
C119	C	0.324890	1.468664	-0.514820
C120	C	0.324904	1.468665	0.059350
C121	C	0.273886	1.565602	0.059330
C122	C	0.217126	1.614083	-0.000025
C123	C	0.211385	1.565630	-0.059372
C124	C	0.262402	1.468701	-0.059357
C125	C	0.495528	0.459794	0.482106
C126	C	0.495689	0.566715	0.374772
C127	C	0.598498	0.479233	0.481701
C128	C	0.598294	0.371858	0.588564
C129	C	0.506894	0.546851	0.590121
C130	C	0.505574	0.655321	0.481444
H131	H	0.514160	0.529991	0.162797
H132	H	-0.190799	0.797730	0.107813
N133	N	-0.083231	0.766367	0.123503
H134	H	-0.060671	0.761070	0.069081
H135	H	-0.087390	0.691252	0.161100
N136	N	0.629065	0.248478	0.169235
H137	H	0.666111	0.176406	0.171922
H138	H	0.600913	0.221923	0.191397
H139	H	0.891338	0.333287	0.000138
N140	N	0.680832	0.609830	0.526749
H141	H	0.658274	0.592951	0.489195
H142	H	0.658306	0.707100	0.489202
N143	N	0.256201	1.416433	-0.123343
H144	H	0.297130	1.347668	-0.114333
H145	H	0.233637	1.490447	-0.206338
H146	H	-0.100745	1.347160	-0.166920
N147	N	0.637573	0.508688	0.517767
H148	H	0.679165	0.425751	0.565604
H149	H	0.620381	0.544355	0.563428
N150	N	0.386096	1.416375	-0.526579
H151	H	0.417558	1.347611	-0.448833
H152	H	0.390827	1.490379	-0.569437
N153	N	0.810726	0.609800	0.123516
H154	H	0.790955	0.707082	0.069090
H155	H	0.854438	0.564281	0.161103
H156	H	0.257728	1.228506	-0.107655
H157	H	0.438830	1.188671	-0.666975
N158	N	0.810697	0.609847	0.280019
H159	H	0.854394	0.564439	0.287843
H160	H	0.790886	0.707136	0.237210
H161	H	0.278516	1.605064	-0.699521
N162	N	0.442154	0.601753	-0.176588
H163	H	0.438988	0.600233	-0.245405
H164	H	0.414662	0.694783	-0.200126
H165	H	0.619921	0.440667	0.430101
H166	H	0.371116	1.429199	0.107691
N167	N	0.916763	0.408361	0.123507
H168	H	0.948206	0.339613	0.114498
H169	H	0.921494	0.368213	0.206500
N170	N	0.429350	1.224102	-0.517633
H171	H	0.427610	1.225083	-0.448271
H172	H	0.387784	1.267908	-0.565500
N173	N	-0.009710	1.378533	-0.182607
H174	H	-0.053409	1.453716	-0.220199
H175	H	0.010090	1.383710	-0.242273
N176	N	0.786834	0.408437	-0.123216
H177	H	0.806611	0.311152	-0.068787
H178	H	0.806591	0.425396	-0.182946
N179	N	0.256223	1.416411	-0.279864
H180	H	0.276003	1.433267	-0.237007
H181	H	0.275983	1.319145	-0.237090
H182	H	0.901751	0.421251	0.484317
H183	H	0.459726	0.586433	0.594224
H184	H	0.447797	0.656073	0.320489
N185	N	0.150174	1.617849	-0.481283
H186	H	0.154296	1.572423	-0.398282
H187	H	0.127639	1.600998	-0.518915
H188	H	0.891373	0.333326	0.679912
H189	H	0.447514	0.497044	0.479758
H190	H	0.278572	1.605036	0.107661
N191	N	0.442098	0.775168	0.413339
H192	H	0.431446	0.797502	0.334669
H193	H	0.438190	0.851169	0.407967
N194	N	0.786895	0.408421	0.728173
H195	H	0.827834	0.339674	0.787907
H196	H	0.764339	0.368275	0.737154
N197	N	0.634671	0.795573	-0.302665
H198	H	0.662992	0.762704	-0.340559
H199	H	0.643772	0.718848	-0.225570
N200	N	0.150162	1.617912	-0.123368
H201	H	0.154259	1.572516	-0.160960
H202	H	0.127631	1.715199	-0.183032
H203	H	0.175553	1.692980	-0.679751
N204	N	0.539538	0.518754	-0.198067
H205	H	0.512221	0.537662	-0.261457
H206	H	0.574504	0.423541	-0.151695
H207	H	0.513789	0.370124	0.481079
N208	N	0.162100	1.718611	-0.000022
H209	H	0.137538	1.799040	-0.080395
H210	H	0.174401	1.741829	0.046635
N211	N	0.538370	0.697871	0.515265
H212	H	0.571922	0.685785	0.482750
H213	H	0.555297	0.643134	0.600660
N214	N	0.520090	0.517105	0.303510
H215	H	0.530789	0.425610	0.341785
H216	H	0.556898	0.515801	0.294717
N217	N	0.626473	0.251631	0.588225
H218	H	0.638910	0.268746	0.518795
H219	H	0.596663	0.230366	0.587103
N220	N	0.637771	0.332163	0.692669
H221	H	0.655231	0.384425	0.669002
H222	H	0.671107	0.235774	0.737134
N223	N	0.543320	0.514017	0.693732
H224	H	0.526042	0.595756	0.691366
H225	H	0.585931	0.477698	0.694953
H226	H	0.448133	0.494851	0.037401
N227	N	0.520235	0.341339	0.192907
H228	H	0.518514	0.272735	0.193697
H229	H	0.495483	0.368524	0.237630
N230	N	0.432051	0.684344	0.025442
H231	H	0.412880	0.718890	-0.054484
H232	H	0.431698	0.754740	0.025137
N233	N	0.540458	0.693124	-0.197596
H234	H	0.539254	0.765762	-0.200877
H235	H	0.521972	0.724231	-0.276567
N236	N	0.443043	0.777349	-0.177374
H237	H	0.443580	0.848198	-0.180398
H238	H	0.417743	0.757548	-0.130974
N239	N	0.546812	0.795141	-0.303339
H240	H	0.577977	0.718352	-0.226115
H241	H	0.536102	0.762335	-0.341702
N242	N	0.625773	0.426346	0.173611
H243	H	0.596126	0.484816	0.193825
H244	H	0.662949	0.424341	0.180934
H245	H	-0.304182	1.228425	-0.107574
H246	H	0.553138	0.813697	-0.480881
N247	N	0.638712	0.507210	-0.009200
H248	H	0.640530	0.573083	-0.004799
H249	H	0.622369	0.543895	-0.091212
N250	N	0.635854	0.338193	-0.018626
H251	H	0.637449	0.265929	-0.016862
H252	H	0.677626	0.307774	0.014251
N253	N	0.386120	0.766449	0.123392
H254	H	0.382012	0.691259	0.160996
H255	H	0.408657	0.761275	0.183048
N256	N	0.280089	0.766418	0.123446
H257	H	0.323789	0.691242	0.161032
H258	H	0.260281	0.761237	0.068965
N259	N	0.150160	1.259868	-0.123336
H260	H	0.154266	1.335061	-0.160944
H261	H	0.127636	1.265044	-0.068844
H262	H	0.075146	0.679064	0.167152
N263	N	0.182687	0.647701	0.182816
H264	H	0.187467	0.595819	0.265834
H265	H	0.214108	0.665794	0.173729
N266	N	0.635002	0.795114	-0.478793
H267	H	0.658571	0.703339	-0.406907
H268	H	0.653554	0.841103	-0.480835
N269	N	-0.213152	1.259812	-0.123262
H270	H	-0.256852	1.334991	-0.160862
H271	H	-0.193350	1.264981	-0.182924
N272	N	0.440462	1.016381	-0.588037
H273	H	0.428024	0.987691	-0.518606
H274	H	0.470276	0.937367	-0.586907
H275	H	0.447003	1.034875	-0.429925
H276	H	0.609269	1.031707	-0.429832
N277	N	0.622515	1.025565	-0.595374
H278	H	0.634227	0.949934	-0.599813
H279	H	0.651211	0.992839	-0.525179
H280	H	0.536593	1.188345	-0.506789
H281	H	0.532526	1.192042	-0.668146
H282	H	0.695811	0.597060	-0.107544
