data_functionalizedCrystal
_audit_creation_method	'MofGen! by Chris Wilmer'
_symmetry_space_group_name_H-M	'P1'
_symmetry_Int_Tables_number	1
_symmetry_cell_setting	triclinic
loop_
_symmetry_equiv_pos_as_xyz
  x,y,z
_cell_length_a	14.044191
_cell_length_b	13.101039
_cell_length_c	16.109301
_cell_angle_alpha	93.366104
_cell_angle_beta	91.673371
_cell_angle_gamma	93.669281
loop_
_atom_site_label
_atom_site_type_symbol
_atom_site_fract_x
_atom_site_fract_y
_atom_site_fract_z
O1	O	1.252419	-0.085172	-0.204657
O2	O	0.976450	-0.085185	-0.197419
O3	O	1.122016	-0.085168	-0.080571
O4	O	1.106853	-0.085189	-0.321505
O5	O	1.132465	0.085264	-0.072176
O6	O	0.986899	0.085246	-0.189024
O7	O	1.262867	0.085259	-0.196263
Zn8	Zn	1.126542	0.112312	-0.191311
Zn9	Zn	1.112775	-0.112238	-0.202371
O10	O	1.117301	0.085242	-0.313111
C11	C	0.946361	0.000029	-0.190055
C12	C	0.841138	0.000025	-0.180609
C13	C	0.590836	0.000031	-0.230333
C14	C	0.648486	0.000035	-0.163352
C15	C	0.755687	0.000029	-0.172956
C16	C	0.483625	0.000036	-0.220731
N17	N	1.103381	-0.265488	-0.209913
C18	C	1.090590	-0.474532	-0.220174
C19	C	1.148732	-0.525400	-0.173504
C20	C	1.141615	-0.641720	-0.179213
C21	C	1.097706	-0.358202	-0.214466
C22	C	1.292956	0.000043	-0.203627
C23	C	1.398179	0.000041	-0.213073
C24	C	1.126626	0.000049	-0.045353
C25	C	1.124785	0.000050	0.047079
N26	N	1.135944	0.265562	-0.183762
C27	C	1.112691	0.000024	-0.348329
C28	C	1.114532	0.000016	-0.440762
C29	C	1.206878	0.000037	0.263242
C30	C	1.205140	0.000029	0.350091
C31	C	1.032432	0.000025	0.343070
C32	C	1.034171	0.000026	0.256222
C33	C	1.121397	0.000038	0.216310
C34	C	1.117920	0.000028	0.390008
C35	C	1.116035	0.000019	0.484173
C36	C	1.123282	0.000045	0.122138
H37	H	0.617327	-0.000031	-0.098799
O38	O	0.941964	0.000033	0.205602
H39	H	0.934359	-0.069436	0.162445
O40	O	1.221751	-0.467375	-0.114901
H41	H	1.263252	-0.522586	-0.081598
O42	O	1.300951	0.000029	0.220189
H43	H	1.360098	0.000014	0.267417
O44	O	1.297337	0.000042	0.400714
H45	H	1.358279	0.000060	0.358367
H46	H	0.621989	0.000022	-0.294885
H47	H	1.035472	-0.518335	-0.264414
O48	O	0.938356	0.000035	0.386117
H49	H	0.951507	0.000049	0.454393
