data_functionalizedCrystal
_audit_creation_method	'MofGen! by Chris Wilmer'
_symmetry_space_group_name_H-M	'P1'
_symmetry_Int_Tables_number	1
_symmetry_cell_setting	triclinic
loop_
_symmetry_equiv_pos_as_xyz
  x,y,z
_cell_length_a	14.971482
_cell_length_b	19.288865
_cell_length_c	14.048226
_cell_angle_alpha	89.988335
_cell_angle_beta	89.994098
_cell_angle_gamma	83.374428
loop_
_atom_site_label
_atom_site_type_symbol
_atom_site_fract_x
_atom_site_fract_y
_atom_site_fract_z
O1	O	1.186460	0.090505	-0.079160
O2	O	0.926001	0.101347	-0.079166
O3	O	1.063756	-0.005180	-0.079144
O4	O	1.048704	0.197032	-0.079182
O5	O	1.063740	-0.005186	0.079178
O6	O	0.925984	0.101341	0.079156
O7	O	1.186443	0.090499	0.079162
Zn8	Zn	1.056211	0.095919	0.104296
Zn9	Zn	1.056233	0.095927	-0.104300
O10	O	1.048688	0.197026	0.079140
C11	C	0.892670	0.100860	-0.000005
C12	C	0.793381	0.099408	-0.000007
C13	C	0.746731	0.098721	0.086295
C14	C	0.653440	0.097346	0.086297
C15	C	0.606800	0.096663	-0.000005
C16	C	0.653456	0.097348	-0.086314
C17	C	0.746747	0.098718	-0.086314
C18	C	0.459010	0.094494	-0.086307
C19	C	0.365713	0.093125	-0.086307
C20	C	0.365703	0.093122	0.086304
C21	C	0.458993	0.094492	0.086303
C22	C	0.505643	0.095178	-0.000006
C23	C	1.063264	-0.031061	0.000020
C24	C	1.061810	-0.108169	0.000028
C25	C	1.142639	-0.152603	0.000035
C26	C	1.141273	-0.225054	0.000020
C27	C	1.059073	-0.253069	0.000017
C28	C	0.978234	-0.208626	0.000005
C29	C	0.979602	-0.136176	0.000011
C30	C	0.994449	-0.361569	0.055472
C31	C	0.993085	-0.434018	0.055473
C32	C	1.054850	-0.476528	-0.000004
C33	C	1.117996	-0.446583	-0.055469
C34	C	1.119364	-0.374133	-0.055463
C35	C	1.057581	-0.331628	0.000011
C36	C	1.134203	-0.599523	-0.000015
C37	C	1.132834	-0.671975	-0.000036
C38	C	0.969793	-0.655545	-0.000041
C39	C	0.971165	-0.583094	-0.000030
C40	C	1.053372	-0.555088	-0.000012
C41	C	1.219774	0.090986	-0.000001
C42	C	1.319063	0.092438	-0.000005
C43	C	1.049180	0.222907	-0.000026
C44	C	1.050634	0.300015	-0.000040
N45	N	1.056203	0.095913	0.246656
N46	N	1.056248	0.095928	-0.246660
C47	C	1.117220	0.048762	0.296484
C48	C	1.117226	0.048762	0.396142
C49	C	1.056218	0.095916	0.445970
C50	C	0.995195	0.143069	0.396135
C51	C	0.995185	0.143065	0.296479
C52	C	0.995221	0.143074	0.603849
C53	C	0.995231	0.143078	0.703512
C54	C	1.117261	0.048770	0.703512
C55	C	1.117252	0.048767	0.603856
C56	C	1.056229	0.095921	0.554028
H57	H	1.209578	-0.129805	0.000046
C58	C	1.184331	-0.003110	0.241678
C59	C	1.183153	-0.082207	0.255410
C60	C	1.250264	-0.134082	0.200608
C61	C	1.318552	-0.106860	0.132074
C62	C	1.319732	-0.027758	0.118340
C63	C	1.252622	0.024117	0.173142
H64	H	1.132600	-0.102363	0.306145
H65	H	1.249390	-0.192639	0.210775
H66	H	1.368231	-0.145261	0.091506
H67	H	1.370286	-0.007602	0.067604
H68	H	1.253496	0.082674	0.162974
H69	H	1.207095	-0.261239	0.000021
C70	C	1.184359	-0.003101	0.549040
C71	C	1.183186	-0.082200	0.562761
C72	C	1.250292	-0.134069	0.507943
C73	C	1.318571	-0.106839	0.439405
C74	C	1.319747	-0.027736	0.425681
C75	C	1.252641	0.024133	0.480499
H76	H	1.132640	-0.102361	0.613499
H77	H	1.249422	-0.192627	0.518103
H78	H	1.368247	-0.145236	0.398826
H79	H	1.370293	-0.007575	0.374942
H80	H	1.253511	0.082691	0.470339
H81	H	1.198657	-0.708153	-0.000036
H82	H	1.170777	-0.349754	-0.100627
H83	H	0.327741	0.092569	-0.156582
C84	C	0.928115	0.194945	0.758320
C85	C	0.928125	0.194953	0.867938
C86	C	0.861007	0.246820	0.922744
C87	C	0.793879	0.298679	0.867932
C88	C	0.793867	0.298672	0.758308
C89	C	0.860985	0.246805	0.703502
H90	H	0.977820	0.156563	0.908518
H91	H	0.861017	0.246825	1.003895
H92	H	0.744195	0.337074	0.908503
H93	H	0.744173	0.337063	0.717728
H94	H	0.860975	0.246800	0.622351
H95	H	0.911307	-0.231440	0.000001
H96	H	0.784698	0.099283	0.156572
C97	C	0.926500	-0.314810	0.116499
C98	C	0.857052	-0.347745	0.177516
C99	C	0.789103	-0.300987	0.238537
C100	C	0.790602	-0.221295	0.238543
C101	C	0.860052	-0.188355	0.177524
C102	C	0.928001	-0.235113	0.116503
H103	H	0.855940	-0.406742	0.177514
H104	H	0.737691	-0.325371	0.283707
H105	H	0.740302	-0.186682	0.283714
H106	H	0.861164	-0.129358	0.177526
H107	H	0.979413	-0.210729	0.071333
H108	H	0.902865	-0.678354	-0.000048
H109	H	0.615464	0.096775	0.156572
H110	H	0.496989	0.095053	-0.156590
C111	C	1.185947	-0.493335	-0.116497
C112	C	1.184444	-0.573027	-0.116512
C113	C	1.252397	-0.619783	-0.177532
C114	C	1.321852	-0.586847	-0.238537
C115	C	1.323357	-0.507150	-0.238523
C116	C	1.255405	-0.460394	-0.177503
H117	H	1.133027	-0.597413	-0.071351
H118	H	1.251282	-0.678780	-0.177542
H119	H	1.372154	-0.621458	-0.283708
H120	H	1.374774	-0.482765	-0.283685
H121	H	1.256519	-0.401398	-0.177494
H122	H	0.913780	-0.099997	0.000006
H123	H	1.201142	-0.576719	-0.000006
C124	C	0.510290	0.095239	0.181241
C125	C	0.564019	0.156444	0.204979
C126	C	0.615312	0.157186	0.299921
C127	C	0.612877	0.096723	0.371124
C128	C	0.559146	0.035513	0.347387
C129	C	0.507853	0.034771	0.252446
H130	H	0.565823	0.201206	0.152269
H131	H	0.655087	0.202498	0.317491
H132	H	0.650847	0.097272	0.441405
H133	H	0.557342	-0.009249	0.400098
H134	H	0.468078	-0.010541	0.234875
C135	C	1.184384	-0.003102	0.758321
C136	C	1.184392	-0.003103	0.867938
C137	C	1.251514	-0.054970	0.922753
C138	C	1.318628	-0.106836	0.867951
C139	C	1.318623	-0.106837	0.758327
C140	C	1.251500	-0.054970	0.703512
H141	H	1.134707	0.035293	0.908512
H142	H	1.251518	-0.054969	1.003904
H143	H	1.368316	-0.145231	0.908528
H144	H	1.368307	-0.145233	0.717754
H145	H	1.251497	-0.054971	0.622361
H146	H	0.327716	0.092563	0.156580
H147	H	0.905345	-0.546915	-0.000030
H148	H	0.615475	0.096787	-0.156583
C149	C	0.798066	0.099476	-0.181247
C150	C	0.795650	0.039023	-0.252435
C151	C	0.846969	0.039777	-0.347371
C152	C	0.900705	0.100985	-0.371119
C153	C	0.903124	0.161443	-0.299929
C154	C	0.851804	0.160689	-0.204993
H155	H	0.755869	-0.006291	-0.234857
H156	H	0.845179	-0.004978	-0.400070
H157	H	0.938695	0.101544	-0.441396
H158	H	0.942904	0.206757	-0.317507
H159	H	0.853595	0.205444	-0.152294
H160	H	0.945526	0.181469	0.563283
H161	H	0.941664	-0.458393	0.100630
H162	H	1.166910	0.010368	0.436711
H163	H	0.945517	0.181460	0.436711
H164	H	0.945498	0.181459	0.255910
