data_functionalizedCrystal
_audit_creation_method	'MofGen! by Chris Wilmer'
_symmetry_space_group_name_H-M	'P1'
_symmetry_Int_Tables_number	1
_symmetry_cell_setting	triclinic
loop_
_symmetry_equiv_pos_as_xyz
  x,y,z
_cell_length_a	14.971486
_cell_length_b	23.532407
_cell_length_c	14.048226
_cell_angle_alpha	89.988910
_cell_angle_beta	89.998499
_cell_angle_gamma	83.231404
loop_
_atom_site_label
_atom_site_type_symbol
_atom_site_fract_x
_atom_site_fract_y
_atom_site_fract_z
O1	O	1.186163	0.074216	-0.079061
O2	O	0.925669	0.083104	-0.079088
O3	O	1.063771	-0.004238	-0.079057
O4	O	1.048061	0.161558	-0.079093
O5	O	1.063755	-0.004243	0.079265
O6	O	0.925652	0.083099	0.079233
O7	O	1.186146	0.074211	0.079260
Zn8	Zn	1.055897	0.078654	0.104383
Zn9	Zn	1.055919	0.078661	-0.104212
O10	O	1.048044	0.161553	0.079228
C11	C	0.892340	0.082704	0.000069
C12	C	0.793056	0.081513	0.000059
C13	C	0.735288	0.132824	0.000050
C14	C	0.642001	0.131701	0.000064
C15	C	0.606482	0.079267	0.000082
C16	C	0.664257	0.027952	0.000094
C17	C	0.757543	0.029075	0.000087
C18	C	0.469819	0.025615	0.000108
C19	C	0.376527	0.024491	0.000114
C20	C	0.354277	0.128241	0.000085
C21	C	0.447563	0.129364	0.000078
C22	C	0.505331	0.078049	0.000089
C23	C	1.063363	-0.025458	0.000107
C24	C	1.062160	-0.088680	0.000114
C25	C	1.136342	-0.487466	0.000069
C26	C	1.135224	-0.546871	0.000062
O27	O	1.203992	-0.583321	0.000034
N28	N	1.053123	-0.569849	0.000054
C29	C	0.972133	-0.533418	0.000044
O30	O	0.902196	-0.558417	0.000036
C31	C	0.973251	-0.474014	0.000044
C32	C	1.055358	-0.451040	0.000062
C33	C	1.218442	-0.464491	0.000086
C34	C	1.219559	-0.405090	0.000095
C35	C	1.138576	-0.368664	0.000087
C36	C	1.056475	-0.391639	0.000071
C37	C	0.892263	-0.437584	0.000027
C38	C	0.893388	-0.378177	0.000027
C39	C	0.975495	-0.355203	0.000045
C40	C	0.976609	-0.295812	0.000073
N41	N	1.058711	-0.272834	0.000081
C42	C	1.139694	-0.309260	0.000088
C43	C	0.969791	-0.658170	0.000041
C44	C	0.968671	-0.717573	0.000047
C45	C	1.131763	-0.731022	0.000064
C46	C	1.132882	-0.671618	0.000064
C47	C	1.051892	-0.635193	0.000049
C48	C	1.142034	-0.184513	0.000108
C49	C	1.143143	-0.125106	0.000121
C50	C	0.980052	-0.111663	0.000100
C51	C	0.978942	-0.171064	0.000092
C52	C	1.059940	-0.207489	0.000093
O53	O	0.907878	-0.259327	0.000097
O54	O	1.209619	-0.284253	0.000084
C55	C	1.219475	0.074611	0.000101
C56	C	1.318760	0.075802	0.000104
C57	C	1.048453	0.182773	0.000063
C58	C	1.049655	0.245996	0.000050
N59	N	1.055889	0.078649	0.246744
N60	N	1.055934	0.078661	-0.246572
C61	C	1.117059	0.039990	0.296576
C62	C	1.117065	0.039990	0.396234
C63	C	1.055904	0.078652	0.446058
C64	C	0.994727	0.117313	0.396218
C65	C	0.994717	0.117310	0.296563
C66	C	0.994753	0.117317	0.603933
C67	C	0.994763	0.117320	0.703595
C68	C	1.117101	0.039997	0.703604
C69	C	1.117091	0.039994	0.603948
C70	C	1.055915	0.078656	0.554116
H71	H	1.207990	-0.214164	0.000105
H72	H	1.286419	-0.386390	0.000105
C73	C	0.880697	-0.618107	0.000042
H74	H	0.831646	-0.640304	0.000046
H75	H	0.877738	-0.594645	-0.055165
H76	H	0.877737	-0.594663	0.055262
H77	H	1.197704	-0.760691	0.000066
H78	H	0.594969	0.173484	0.000055
C79	C	0.774350	0.190502	0.000030
H80	H	0.726582	0.220900	0.000034
H81	H	0.810276	0.193100	-0.055183
H82	H	0.810280	0.193094	0.055244
C83	C	1.184342	-0.002533	0.241774
H84	H	1.175585	0.003005	0.175285
H85	H	1.174979	-0.040553	0.258121
H86	H	1.243980	0.003723	0.258100
H87	H	0.804577	-0.012707	0.000094
C88	C	0.927486	0.159843	0.758405
H89	H	0.936263	0.154311	0.824892
H90	H	0.867848	0.153592	0.742089
H91	H	0.936855	0.197865	0.742056
C92	C	0.890978	-0.071587	0.000086
H93	H	0.903410	-0.032919	0.000082
H94	H	0.857273	-0.078561	0.055287
H95	H	0.857303	-0.078551	-0.055141
H96	H	1.166874	0.008511	0.436807
C97	C	0.337453	-0.033183	0.000146
H98	H	0.273622	-0.026500	0.000140
H99	H	0.357313	-0.054310	0.055366
H100	H	0.357309	-0.054317	-0.055061
C101	C	0.486632	0.187040	0.000060
H102	H	0.438869	0.217440	0.000065
H103	H	0.522560	0.189636	-0.055151
H104	H	0.522561	0.189629	0.055276
C105	C	0.533363	-0.030831	0.000109
H106	H	0.498850	-0.062220	0.000107
H107	H	0.570225	-0.032556	0.055312
H108	H	0.570206	-0.032542	-0.055115
C109	C	1.307532	-0.504551	0.000102
H110	H	1.356580	-0.482352	0.000119
H111	H	1.310508	-0.528002	-0.055104
H112	H	1.310481	-0.528006	0.055323
C113	C	0.801946	-0.462846	-0.000003
H114	H	0.812864	-0.503442	-0.000000
H115	H	0.768642	-0.450334	-0.055221
H116	H	0.768614	-0.450352	0.055206
H117	H	0.901812	-0.736273	0.000050
H118	H	0.827435	-0.348522	0.000013
H119	H	0.307237	0.170023	0.000080
C120	C	1.184366	-0.002533	0.549143
H121	H	1.220795	-0.025562	0.593093
H122	H	1.221407	0.017992	0.510251
H123	H	1.152391	-0.026276	0.510285
H124	H	0.912084	-0.189771	0.000104
H125	H	0.944905	0.148789	0.255990
H126	H	0.635331	-0.014741	0.000122
H127	H	1.166912	0.008517	0.744183
H128	H	1.210008	-0.106405	0.000138
C129	C	0.927464	0.159846	0.549119
H130	H	0.891047	0.182877	0.593063
H131	H	0.890411	0.139322	0.510254
H132	H	0.959432	0.183587	0.510233
H133	H	1.199740	-0.652917	0.000078
H134	H	0.944924	0.148790	0.436791
