data_functionalizedCrystal
_audit_creation_method	'MofGen! by Chris Wilmer'
_symmetry_space_group_name_H-M	'P1'
_symmetry_Int_Tables_number	1
_symmetry_cell_setting	triclinic
loop_
_symmetry_equiv_pos_as_xyz
  x,y,z
_cell_length_a	16.098538
_cell_length_b	19.288864
_cell_length_c	19.288865
_cell_angle_alpha	83.136245
_cell_angle_beta	92.708117
_cell_angle_gamma	87.256992
loop_
_atom_site_label
_atom_site_type_symbol
_atom_site_fract_x
_atom_site_fract_y
_atom_site_fract_z
O1	O	0.069533	-0.924481	-0.083521
O2	O	0.569533	-0.424481	0.416479
O3	O	0.069478	-0.722217	-0.095213
O4	O	0.569478	-0.222217	0.404787
O5	O	0.069491	-0.829193	0.011763
O6	O	0.569491	-0.329193	0.511763
O7	O	0.069520	-0.817505	-0.190497
O8	O	0.569520	-0.317505	0.309503
O9	O	-0.069023	-0.822944	0.005538
O10	O	0.430977	-0.322944	0.505538
O11	O	-0.069036	-0.715969	-0.101437
O12	O	0.430964	-0.215969	0.398563
O13	O	-0.068980	-0.918232	-0.089746
O14	O	0.431020	-0.418232	0.410254
Zn15	Zn	-0.091000	-0.816108	-0.096580
Zn16	Zn	0.409000	-0.316108	0.403420
Zn17	Zn	0.091498	-0.824341	-0.088379
Zn18	Zn	0.591498	-0.324341	0.411621
O19	O	-0.068993	-0.811256	-0.196721
O20	O	0.431007	-0.311256	0.303279
C21	C	0.000213	-0.693216	-0.097949
C22	C	0.500213	-0.193216	0.402051
C23	C	0.000192	-0.616112	-0.096821
C24	C	0.500192	-0.116112	0.403179
N25	N	-0.215550	-0.810494	-0.102176
N26	N	0.284450	-0.310494	0.397824
C27	C	0.000231	-0.825692	0.034527
C28	C	0.500231	-0.325692	0.534527
C29	C	0.000224	-0.824563	0.111630
C30	C	0.500224	-0.324563	0.611630
C31	C	-0.259130	-0.855915	-0.056788
C32	C	0.240870	-0.355915	0.443212
C33	C	-0.346319	-0.851994	-0.060709
C34	C	0.153681	-0.351994	0.439291
C35	C	-0.389927	-0.802655	-0.110023
C36	C	0.110073	-0.302655	0.389977
C37	C	-0.346342	-0.757230	-0.155414
C38	C	0.153658	-0.257230	0.344586
C39	C	-0.259154	-0.761147	-0.151489
C40	C	0.240846	-0.261147	0.348511
C41	C	-0.653179	-0.788453	-0.124242
C42	C	-0.153179	-0.288453	0.375758
C43	C	-0.740373	-0.784539	-0.128165
C44	C	-0.240373	-0.284539	0.371835
C45	C	-0.740344	-0.879304	-0.033459
C46	C	-0.240344	-0.379304	0.466541
C47	C	-0.653155	-0.883220	-0.029541
C48	C	-0.153155	-0.383220	0.470459
C49	C	-0.609577	-0.837792	-0.074929
C50	C	-0.109577	-0.337792	0.425071
C51	C	-0.479049	-0.798648	-0.114035
C52	C	0.020951	-0.298648	0.385965
C53	C	-0.520457	-0.841796	-0.070914
C54	C	-0.020457	-0.341796	0.429086
N55	N	0.216047	-0.829961	-0.082777
N56	N	0.716047	-0.329961	0.417223
C57	C	0.000286	-0.947233	-0.087009
C58	C	0.500286	-0.447233	0.412991
C59	C	0.000313	-1.024338	-0.088137
C60	C	0.500313	-0.524338	0.411863
C61	C	0.000214	-0.571416	-0.159588
C62	C	0.500214	-0.071416	0.340412
C63	C	0.000223	-0.498970	-0.158527
C64	C	0.500223	0.001030	0.341473
C65	C	0.000226	-0.471222	-0.094695
C66	C	0.500226	0.028778	0.405305
C67	C	0.000199	-0.515927	-0.031920
C68	C	0.500199	-0.015927	0.468080
C69	C	0.000182	-0.588372	-0.032983
C70	C	0.500182	-0.088372	0.467017
C71	C	0.048774	-0.365151	-0.042334
C72	C	0.548774	0.134849	0.457666
C73	C	0.048797	-0.292707	-0.041273
C74	C	0.548797	0.207293	0.458727
C75	C	0.000276	-0.247779	-0.091413
C76	C	0.500276	0.252221	0.408587
C77	C	-0.048256	-0.275302	-0.142625
C78	C	0.451744	0.224698	0.357375
C79	C	-0.048274	-0.347747	-0.143688
C80	C	0.451726	0.152253	0.356312
C81	C	0.000245	-0.392669	-0.093535
C82	C	0.500245	0.107331	0.406465
C83	C	0.000307	-0.124528	-0.153033
C84	C	0.500307	0.375472	0.346967
C85	C	0.000311	-0.052080	-0.151970
C86	C	0.500311	0.447920	0.348030
C87	C	0.000296	-0.069040	-0.025360
C88	C	0.500296	0.430960	0.474640
C89	C	0.000284	-0.141486	-0.026426
C90	C	0.500284	0.358514	0.473574
C91	C	0.000293	-0.169225	-0.090264
C92	C	0.500293	0.330775	0.409736
C93	C	0.000268	-0.814757	-0.219485
C94	C	0.500268	-0.314757	0.280515
C95	C	0.000281	-0.815887	-0.296588
C96	C	0.500281	-0.315887	0.203412
C97	C	0.000237	-0.887331	0.156327
C98	C	0.500237	-0.387331	0.656327
C99	C	0.000250	-0.886271	0.228775
C100	C	0.500250	-0.386271	0.728775
C101	C	0.000233	-0.822438	0.256521
C102	C	0.500233	-0.322438	0.756521
C103	C	0.000224	-0.759662	0.211815
C104	C	0.500224	-0.259662	0.711815
C105	C	0.000220	-0.760724	0.139369
C106	C	0.500220	-0.260724	0.639369
C107	C	-0.048300	-0.770069	0.362628
C108	C	0.451700	-0.270069	0.862628
C109	C	-0.048300	-0.769009	0.435072
C110	C	0.451700	-0.269009	0.935072
C111	C	0.000250	-0.819159	0.479968
C112	C	0.500250	-0.319159	0.979968
C113	C	0.048791	-0.870381	0.452411
C114	C	0.548791	-0.370381	0.952411
C115	C	0.048786	-0.871443	0.379965
C116	C	0.548786	-0.371443	0.879965
C117	C	0.000238	-0.821279	0.335076
C118	C	0.500238	-0.321279	0.835076
C119	C	0.000279	-0.880783	0.603221
C120	C	0.500279	-0.380783	1.103221
C121	C	0.000297	-0.879720	0.675670
C122	C	0.500297	-0.379720	1.175670
C123	C	0.000263	-0.753109	0.658708
C124	C	0.500263	-0.253109	1.158708
C125	C	0.000253	-0.754173	0.586262
C126	C	0.500253	-0.254173	1.086262
C127	C	0.000257	-0.818012	0.558522
C128	C	0.500257	-0.318012	1.058522
H129	H	-0.381801	-0.888979	-0.023750
H130	H	0.118199	-0.388979	0.476250
H131	H	-0.775834	-0.916289	0.003494
H132	H	-0.275834	-0.416289	0.503494
H133	H	-0.223672	-0.724160	-0.188448
H134	H	0.276328	-0.224160	0.311552
H135	H	0.000324	-0.015689	-0.203085
H136	H	0.500324	0.484311	0.296915
O137	O	-0.526090	-0.745439	-0.167226
O138	O	-0.026090	-0.245439	0.332774
H139	H	-0.481142	-0.714508	-0.198131
H140	H	0.018858	-0.214508	0.301869
O141	O	-0.100675	-0.715980	0.314207
O142	O	0.399325	-0.215980	0.814207
H143	H	-0.080724	-0.662997	0.321817
H144	H	0.419276	-0.162997	0.821817
H145	H	0.000238	-0.703060	0.549868
H146	H	0.500238	-0.203060	1.049868
H147	H	0.000253	-0.701135	0.681299
H148	H	0.500253	-0.201135	1.181299
H149	H	-0.087820	-0.727299	0.457503
H150	H	0.412180	-0.227299	0.957503
O151	O	0.000218	-0.601331	-0.228442
O152	O	0.500218	-0.101331	0.271558
H153	H	0.000208	-0.659217	-0.218639
H154	H	0.500208	-0.159217	0.281361
O155	O	0.000256	-0.450749	-0.226227
O156	O	0.500256	0.049251	0.273773
H157	H	0.000266	-0.482210	-0.270795
H158	H	0.500266	0.017790	0.229205
H159	H	-0.484948	-0.881966	-0.030760
H160	H	0.015052	-0.381966	0.469240
H161	H	-0.775875	-0.744360	-0.168325
H162	H	-0.275875	-0.244360	0.331675
H163	H	0.000264	-0.937386	0.265174
H164	H	0.500264	-0.437386	0.765174
O165	O	-0.393377	-0.704019	-0.208608
O166	O	0.106623	-0.204019	0.291392
H167	H	-0.348423	-0.673091	-0.239508
H168	H	0.151577	-0.173091	0.260492
O169	O	-0.212096	-0.909128	-0.003596
O170	O	0.287904	-0.409128	0.496404
H171	H	-0.257051	-0.940048	0.027311
H172	H	0.242949	-0.440048	0.527311
O173	O	0.000196	-0.690810	0.241734
O174	O	0.500196	-0.190810	0.741734
H175	H	0.000190	-0.700616	0.299620
H176	H	0.500190	-0.200616	0.799620
H177	H	-0.617705	-0.751464	-0.161200
H178	H	-0.117705	-0.251464	0.338800
H179	H	-0.617651	-0.923396	0.010615
H180	H	-0.117651	-0.423396	0.510615
H181	H	0.000213	-0.493331	0.020054
H182	H	0.500213	0.006669	0.520054
H183	H	-0.087793	-0.370153	-0.185384
H184	H	0.412207	0.129847	0.314616
O185	O	0.000201	-0.693020	0.091154
O186	O	0.500201	-0.193020	0.591154
H187	H	-0.056257	-0.687934	0.055214
H188	H	0.443743	-0.187934	0.555214
H189	H	-0.087767	-0.238723	-0.183453
H190	H	0.412233	0.261277	0.316547
O191	O	0.101133	-0.263030	0.013969
O192	O	0.601133	0.236970	0.513969
H193	H	0.167652	-0.279007	0.009600
H194	H	0.667652	0.220993	0.509600
H195	H	0.000303	-0.147114	-0.205015
H196	H	0.500303	0.352886	0.294985
H197	H	0.000164	-0.624764	0.018131
H198	H	0.500164	-0.124764	0.518131
O199	O	0.000300	-0.039125	0.043491
O200	O	0.500300	0.460875	0.543491
H201	H	0.000320	0.018760	0.033687
H202	H	0.500320	0.518760	0.533687
H203	H	0.000270	-0.177878	0.024686
H204	H	0.500270	0.322122	0.524686
O205	O	0.101115	-0.413608	0.011745
O206	O	0.601115	0.086392	0.511745
H207	H	0.134876	-0.382300	0.047525
H208	H	0.634876	0.117700	0.547525
O209	O	0.000264	-0.956183	0.126407
O210	O	0.500264	-0.456183	0.626407
H211	H	0.000288	-0.999653	0.169664
H212	H	0.500288	-0.499653	0.669664
H213	H	0.088311	-0.913148	0.357532
H214	H	0.588311	-0.413148	0.857532
H215	H	0.088326	-0.911217	0.488964
H216	H	0.588326	-0.411217	0.988964
H217	H	0.000286	-0.932764	0.580635
H218	H	0.500286	-0.432764	1.080635
H219	H	0.000312	-0.930836	0.712063
H220	H	0.500312	-0.430836	1.212063
