data_functionalizedCrystal
_audit_creation_method	'MofGen! by Chris Wilmer'
_symmetry_space_group_name_H-M	'P1'
_symmetry_Int_Tables_number	1
_symmetry_cell_setting	triclinic
loop_
_symmetry_equiv_pos_as_xyz
  x,y,z
_cell_length_a	11.169416
_cell_length_b	11.169417
_cell_length_c	11.169409
_cell_angle_alpha	89.980487
_cell_angle_beta	89.968635
_cell_angle_gamma	90.011398
loop_
_atom_site_label
_atom_site_type_symbol
_atom_site_fract_x
_atom_site_fract_y
_atom_site_fract_z
Zn1	Zn	-0.477670	1.834964	-0.678541
Zn2	Zn	-0.678410	1.834854	-0.477861
Zn3	Zn	-0.477744	1.634250	-0.477876
Zn4	Zn	-0.678314	1.634258	-0.678507
O5	O	-0.578035	1.734581	-0.578196
O6	O	-0.504308	2.002899	-0.651928
O7	O	-0.651863	1.808194	-0.309913
O8	O	-0.309785	1.660918	-0.504515
O9	O	-0.651791	2.002818	-0.504490
O10	O	-0.309730	1.808381	-0.651943
O11	O	-0.504435	1.660811	-0.309925
O12	O	-0.504341	1.466301	-0.504483
O13	O	-0.651627	1.660931	-0.846461
O14	O	-0.651699	1.466307	-0.651885
O15	O	-0.504214	1.808389	-0.846486
O16	O	-0.846347	1.808202	-0.504457
O17	O	-0.846277	1.660825	-0.651871
C18	C	-0.578019	1.422757	-0.578183
C19	C	-0.578041	1.289357	-0.578205
C20	C	-0.889859	1.734535	-0.578185
C21	C	-1.023259	1.734625	-0.578220
C22	C	-0.264992	1.734661	-0.578235
C23	C	-0.131592	1.734695	-0.578251
C24	C	-0.577901	1.734674	-0.891239
C25	C	-0.577845	1.734713	-1.024639
C26	C	-0.578052	2.047624	-0.578211
C27	C	-0.578059	2.181024	-0.578217
C28	C	-0.578081	1.734559	-0.266372
C29	C	-0.577800	1.734752	-0.132972
