data_functionalizedCrystal
_audit_creation_method	'MofGen! by Chris Wilmer'
_symmetry_space_group_name_H-M	'P1'
_symmetry_Int_Tables_number	1
_symmetry_cell_setting	triclinic
loop_
_symmetry_equiv_pos_as_xyz
  x,y,z
_cell_length_a	15.944499
_cell_length_b	11.792241
_cell_length_c	10.868271
_cell_angle_alpha	89.999844
_cell_angle_beta	89.998169
_cell_angle_gamma	96.164488
loop_
_atom_site_label
_atom_site_type_symbol
_atom_site_fract_x
_atom_site_fract_y
_atom_site_fract_z
O1	O	0.115126	-1.505932	0.102193
O2	O	0.365126	-1.255932	0.352193
O3	O	0.615126	-1.005932	0.602193
O4	O	0.865126	-0.755932	0.852193
O5	O	0.126992	-1.175490	0.102221
O6	O	0.376992	-0.925490	0.352221
O7	O	0.626992	-0.675490	0.602221
O8	O	0.876992	-0.425490	0.852221
O9	O	-0.001178	-1.349765	0.102208
O10	O	0.248822	-1.099765	0.352208
O11	O	0.498822	-0.849765	0.602208
O12	O	0.748822	-0.599765	0.852208
O13	O	0.243296	-1.331657	0.102206
O14	O	0.493296	-1.081657	0.352206
O15	O	0.743296	-0.831657	0.602206
O16	O	0.993296	-0.581657	0.852206
O17	O	-0.001174	-1.349749	-0.102436
O18	O	0.248826	-1.099749	0.147564
O19	O	0.498826	-0.849749	0.397564
O20	O	0.748826	-0.599749	0.647564
O21	O	0.126996	-1.175474	-0.102424
O22	O	0.376996	-0.925474	0.147576
O23	O	0.626996	-0.675474	0.397576
O24	O	0.876996	-0.425474	0.647576
O25	O	0.115130	-1.505916	-0.102451
O26	O	0.365130	-1.255916	0.147549
O27	O	0.615130	-1.005916	0.397549
O28	O	0.865130	-0.755916	0.647549
Zn29	Zn	0.121064	-1.340693	-0.134929
Zn30	Zn	0.371064	-1.090693	0.115071
Zn31	Zn	0.621064	-0.840693	0.365071
Zn32	Zn	0.871064	-0.590693	0.615071
Zn33	Zn	0.121058	-1.340713	0.134699
Zn34	Zn	0.371058	-1.090713	0.384699
Zn35	Zn	0.621058	-0.840713	0.634699
Zn36	Zn	0.871058	-0.590713	0.884699
O37	O	0.243300	-1.331641	-0.102439
O38	O	0.493300	-1.081641	0.147561
O39	O	0.743300	-0.831641	0.397561
O40	O	0.993300	-0.581641	0.647561
C41	C	0.126248	-1.133197	-0.000098
C42	C	0.376248	-0.883197	0.249902
C43	C	0.626248	-0.633197	0.499902
C44	C	0.876248	-0.383197	0.749902
C45	C	0.124017	-1.007203	-0.000087
C46	C	0.374017	-0.757203	0.249913
C47	C	0.624017	-0.507203	0.499913
C48	C	0.874017	-0.257203	0.749913
C49	C	-0.032474	-1.349016	-0.000111
C50	C	0.217526	-1.099016	0.249889
C51	C	0.467526	-0.849016	0.499889
C52	C	0.717526	-0.599016	0.749889
C53	C	-0.125732	-1.346793	-0.000101
C54	C	0.124268	-1.096793	0.249899
C55	C	0.374268	-0.846793	0.499899
C56	C	0.624268	-0.596793	0.749899
C57	C	0.115874	-1.548208	-0.000130
C58	C	0.365874	-1.298208	0.249870
C59	C	0.615874	-1.048208	0.499870
C60	C	0.865874	-0.798208	0.749870
C61	C	0.118104	-1.674203	-0.000133
C62	C	0.368104	-1.424203	0.249867
C63	C	0.618104	-1.174203	0.499867
C64	C	0.868104	-0.924203	0.749867
C65	C	-0.416811	-1.448042	-0.000116
C66	C	-0.166811	-1.198042	0.249884
C67	C	0.083189	-0.948042	0.499884
C68	C	0.333189	-0.698042	0.749884
C69	C	-0.356022	-1.395403	-0.101017
C70	C	-0.106022	-1.145403	0.148983
C71	C	0.143978	-0.895403	0.398983
C72	C	0.393978	-0.645403	0.648983
C73	C	-0.461405	-1.338718	-0.000115
C74	C	-0.211405	-1.088718	0.249885
C75	C	0.038595	-0.838718	0.499885
C76	C	0.288595	-0.588718	0.749885
C77	C	-0.356032	-1.395389	0.100747
C78	C	-0.106032	-1.145389	0.350747
C79	C	0.143968	-0.895389	0.600747
C80	C	0.393968	-0.645389	0.850747
C81	C	-0.296479	-1.342691	-0.000106
C82	C	-0.046479	-1.092691	0.249894
C83	C	0.203521	-0.842691	0.499894
C84	C	0.453521	-0.592691	0.749894
C85	C	-0.401844	-1.286048	-0.101099
C86	C	-0.151844	-1.036048	0.148901
C87	C	0.098156	-0.786048	0.398901
C88	C	0.348156	-0.536048	0.648901
C89	C	-0.401861	-1.286049	0.100756
C90	C	-0.151861	-1.036049	0.350756
C91	C	0.098139	-0.786049	0.600756
C92	C	0.348139	-0.536049	0.850756
C93	C	-0.341089	-1.233330	-0.000170
C94	C	-0.091089	-0.983330	0.249830
C95	C	0.158911	-0.733330	0.499830
C96	C	0.408911	-0.483330	0.749830
C97	C	-0.556416	-1.336432	-0.000121
C98	C	-0.306416	-1.086432	0.249879
C99	C	-0.056416	-0.836432	0.499879
C100	C	0.193584	-0.586432	0.749879
C101	C	-0.201469	-1.344969	-0.000109
C102	C	0.048531	-1.094969	0.249891
C103	C	0.298531	-0.844969	0.499891
C104	C	0.548531	-0.594969	0.749891
C105	C	0.274596	-1.332390	-0.000117
C106	C	0.524596	-1.082390	0.249883
C107	C	0.774596	-0.832390	0.499883
C108	C	1.024596	-0.582390	0.749883
C109	C	0.367854	-1.334613	-0.000118
C110	C	0.617854	-1.084613	0.249882
C111	C	0.867854	-0.834613	0.499882
C112	C	1.117854	-0.584613	0.749882
N113	N	0.121067	-1.340687	-0.318943
N114	N	0.371067	-1.090687	-0.068943
N115	N	0.621067	-0.840687	0.181057
N116	N	0.871067	-0.590687	0.431057
C117	C	0.119915	-0.776525	-0.000122
C118	C	0.369915	-0.526525	0.249878
C119	C	0.619915	-0.276525	0.499878
C120	C	0.869915	-0.026525	0.749878
C121	C	0.122195	-0.904891	-0.000103
C122	C	0.372195	-0.654891	0.249897
C123	C	0.622195	-0.404891	0.499897
C124	C	0.872195	-0.154891	0.749897
C125	C	0.121067	-1.340695	-0.430281
C126	C	0.371067	-1.090695	-0.180281
C127	C	0.621067	-0.840695	0.069719
C128	C	0.871067	-0.590695	0.319719
C129	C	0.121059	-1.340710	-0.569959
C130	C	0.371059	-1.090710	-0.319959
C131	C	0.621059	-0.840710	-0.069959
C132	C	0.871059	-0.590710	0.180041
N133	N	0.121048	-1.340728	0.318713
N134	N	0.371048	-1.090728	0.568713
N135	N	0.621048	-0.840728	0.818713
N136	N	0.871048	-0.590728	1.068713
H137	H	-0.449732	-1.538771	-0.000221
H138	H	-0.199732	-1.288771	0.249779
H139	H	0.050268	-1.038771	0.499779
H140	H	0.300268	-0.788771	0.749779
H141	H	-0.422183	-1.239853	0.186069
H142	H	-0.172183	-0.989853	0.436069
H143	H	0.077817	-0.739853	0.686069
H144	H	0.327817	-0.489853	0.936069
H145	H	-0.335721	-1.441637	-0.186326
H146	H	-0.085721	-1.191637	0.063674
H147	H	0.164279	-0.941637	0.313674
H148	H	0.414279	-0.691637	0.563674
H149	H	-0.422032	-1.239839	-0.186491
H150	H	-0.172032	-0.989839	0.063509
H151	H	0.077968	-0.739839	0.313509
H152	H	0.327968	-0.489839	0.563509
H153	H	-0.308316	-1.142523	-0.000221
H154	H	-0.058316	-0.892523	0.249779
H155	H	0.191684	-0.642523	0.499779
H156	H	0.441684	-0.392523	0.749779
H157	H	-0.335745	-1.441655	0.186042
H158	H	-0.085745	-1.191655	0.436042
H159	H	0.164255	-0.941655	0.686042
H160	H	0.414255	-0.691655	0.936042
