data_functionalizedCrystal
_audit_creation_method	'MofGen! by Chris Wilmer'
_symmetry_space_group_name_H-M	'P1'
_symmetry_Int_Tables_number	1
_symmetry_cell_setting	triclinic
loop_
_symmetry_equiv_pos_as_xyz
  x,y,z
_cell_length_a	10.654550
_cell_length_b	11.792241
_cell_length_c	9.730223
_cell_angle_alpha	89.995449
_cell_angle_beta	89.999957
_cell_angle_gamma	84.339173
loop_
_atom_site_label
_atom_site_type_symbol
_atom_site_fract_x
_atom_site_fract_y
_atom_site_fract_z
O1	O	1.667388	0.159420	-0.114188
O2	O	1.301867	0.174608	-0.114213
O3	O	1.493498	0.001864	-0.114190
O4	O	1.475757	0.332164	-0.114211
O5	O	1.493485	0.001859	0.114390
O6	O	1.301854	0.174603	0.114367
O7	O	1.667376	0.159415	0.114392
Zn8	Zn	1.484613	0.167008	0.150671
Zn9	Zn	1.484629	0.167015	-0.150493
O10	O	1.475745	0.332159	0.114369
C11	C	1.255066	0.173491	0.000074
C12	C	1.115632	0.170154	0.000064
C13	C	1.492377	-0.040432	0.000099
C14	C	1.489042	-0.166453	0.000098
C15	C	1.035859	0.271863	0.000062
C16	C	0.904847	0.268721	0.000086
C17	C	0.933394	0.062152	0.000109
C18	C	1.064403	0.065295	0.000095
C19	C	1.482908	-0.397180	0.000074
C20	C	1.486316	-0.268787	0.000087
C21	C	1.714177	0.160533	0.000102
C22	C	1.853611	0.163869	0.000103
C23	C	1.476865	0.374455	0.000077
C24	C	1.480201	0.500477	0.000069
N25	N	1.484611	0.167003	0.356208
N26	N	1.484641	0.167011	-0.356029
C27	C	1.569494	0.090545	0.428144
C28	C	1.569507	0.090545	0.572027
C29	C	1.399749	0.243473	0.572025
C30	C	1.399731	0.243466	0.428145
H31	H	0.839900	0.351543	0.000087
O32	O	1.317430	0.317710	0.642120
C33	C	1.335627	0.301307	0.784539
H34	H	1.435187	0.259725	0.804182
H35	H	1.322242	0.387151	0.839205
H36	H	1.264167	0.243783	0.825395
H37	H	0.891668	-0.023220	0.000142
O38	O	1.141725	-0.033618	0.000034
C39	C	1.068420	-0.126843	0.000087
H40	H	0.970843	-0.098811	-0.043184
H41	H	1.116256	-0.198169	-0.066270
H42	H	1.058885	-0.158933	0.109753
H43	H	1.638607	0.028283	0.369576
H44	H	1.330603	0.305728	0.369570
O45	O	1.085415	0.373815	0.000105
C46	C	0.986905	0.462911	0.000075
H47	H	0.897707	0.430389	0.043363
H48	H	1.014779	0.536054	0.066430
H49	H	0.968572	0.494336	-0.109586
O50	O	1.652086	0.016234	0.641692
C51	C	1.726970	-0.051271	0.547339
H52	H	1.728688	-0.004723	0.444771
H53	H	1.827150	-0.067739	0.588900
H54	H	1.685628	-0.135936	0.532053
