data_functionalizedCrystal
_audit_creation_method	'MofGen! by Chris Wilmer'
_symmetry_space_group_name_H-M	'P1'
_symmetry_Int_Tables_number	1
_symmetry_cell_setting	triclinic
loop_
_symmetry_equiv_pos_as_xyz
  x,y,z
_cell_length_a	12.837943
_cell_length_b	9.065218
_cell_length_c	8.140239
_cell_angle_alpha	90.001686
_cell_angle_beta	89.998362
_cell_angle_gamma	90.077587
loop_
_atom_site_label
_atom_site_type_symbol
_atom_site_fract_x
_atom_site_fract_y
_atom_site_fract_z
O1	O	1.379057	-0.384028	-0.136571
O2	O	1.077073	-0.365058	-0.136582
O3	O	1.234307	-0.160660	-0.136573
O4	O	1.221823	-0.588427	-0.136580
O5	O	1.234298	-0.160656	0.136654
O6	O	1.077064	-0.365054	0.136646
O7	O	1.379048	-0.384025	0.136656
Zn8	Zn	1.228055	-0.374539	0.180031
Zn9	Zn	1.228067	-0.374544	-0.179957
O10	O	1.221814	-0.588423	0.136647
C11	C	1.038388	-0.358647	0.000031
C12	C	0.923132	-0.339534	0.000027
N13	N	1.228055	-0.374536	0.425714
C14	C	1.233103	-0.105525	0.000038
C15	C	1.229515	0.058754	0.000030
C16	C	0.684331	-0.569311	0.000046
C17	C	0.576036	-0.551359	0.000044
C18	C	0.598246	-0.285680	0.000031
C19	C	0.706541	-0.303632	0.000033
C20	C	0.749579	-0.445452	0.000038
C21	C	0.857875	-0.463402	0.000029
C22	C	0.880083	-0.197725	0.000028
C23	C	0.771789	-0.179773	0.000025
C24	C	1.417733	-0.390435	0.000040
C25	C	1.532990	-0.409548	0.000033
C26	C	1.223019	-0.643557	0.000033
C27	C	1.226606	-0.807836	0.000030
N28	N	1.228075	-0.374536	-0.425640
H29	H	0.719372	-0.684786	0.000048
C30	C	0.951047	-0.063365	-0.000240
C31	C	1.013883	-0.065941	-0.140795
C32	C	1.079276	0.057793	-0.141096
H33	H	0.910029	0.023765	-0.000330
H34	H	0.993818	-0.064830	0.094987
H35	H	0.971117	-0.064462	-0.235997
H36	H	1.054923	-0.153043	-0.140734
H37	H	1.122047	0.056328	-0.045869
H38	H	1.038249	0.144913	-0.141182
H39	H	1.121924	0.056055	-0.236452
H40	H	0.892914	-0.578879	0.000037
C41	C	0.724997	-0.025841	-0.000324
C42	C	0.663496	-0.007778	-0.140915
C43	C	0.620388	0.134013	-0.141310
H44	H	0.683139	-0.013148	0.094843
H45	H	0.779339	0.045404	-0.000422
H46	H	0.609161	-0.079002	-0.140803
H47	H	0.705331	-0.020442	-0.236106
H48	H	0.674731	0.205258	-0.141408
H49	H	0.578535	0.146693	-0.046136
H50	H	0.578663	0.146292	-0.236706
H51	H	0.522914	-0.652219	0.000054
H52	H	0.563185	-0.170217	0.000162
