data_functionalizedCrystal
_audit_creation_method	'MofGen! by Chris Wilmer'
_symmetry_space_group_name_H-M	'P1'
_symmetry_Int_Tables_number	1
_symmetry_cell_setting	triclinic
loop_
_symmetry_equiv_pos_as_xyz
  x,y,z
_cell_length_a	20.453700
_cell_length_b	11.102308
_cell_length_c	17.982651
_cell_angle_alpha	85.769587
_cell_angle_beta	77.554049
_cell_angle_gamma	108.606174
loop_
_atom_site_label
_atom_site_type_symbol
_atom_site_fract_x
_atom_site_fract_y
_atom_site_fract_z
V1	V	-1.347096	-0.176997	0.237544
O2	O	-1.333885	0.007314	0.233022
O3	O	-1.339516	-0.349809	0.235919
O4	O	-1.329145	-0.174797	0.341145
O5	O	-1.344329	-0.168910	0.127068
V6	V	-1.507433	-0.154889	0.224330
O7	O	-1.436020	-0.225491	0.266529
O8	O	-1.568575	-0.106395	0.195344
O9	O	-1.440611	0.017923	0.225955
O10	O	-1.559776	-0.339200	0.228851
O11	O	-1.549333	-0.162976	0.334806
O12	O	-1.450982	-0.157089	0.120729
V13	V	-1.013763	-0.176997	0.237544
O14	O	-1.000552	0.007314	0.233022
O15	O	-1.006183	-0.349809	0.235919
O16	O	-0.995811	-0.174797	0.341145
O17	O	-1.010995	-0.168910	0.127068
V18	V	-1.174100	-0.154889	0.224330
O19	O	-1.102687	-0.225491	0.266529
O20	O	-1.235242	-0.106395	0.195344
O21	O	-1.107277	0.017923	0.225955
O22	O	-1.226443	-0.339200	0.228851
O23	O	-1.215999	-0.162976	0.334806
O24	O	-1.117649	-0.157089	0.120729
C25	C	-1.289989	-0.391921	0.232171
C26	C	-1.310875	-0.533201	0.231533
V27	V	-0.680430	-0.176997	0.237544
O28	O	-0.667219	0.007314	0.233022
O29	O	-0.672849	-0.349809	0.235919
O30	O	-0.662478	-0.174797	0.341145
O31	O	-0.677662	-0.168910	0.127068
V32	V	-0.840766	-0.154889	0.224330
O33	O	-0.769353	-0.225491	0.266529
O34	O	-0.901908	-0.106395	0.195344
O35	O	-0.773944	0.017923	0.225955
O36	O	-0.893109	-0.339200	0.228851
O37	O	-0.882666	-0.162976	0.334806
O38	O	-0.784316	-0.157089	0.120729
C39	C	-1.432806	-0.546203	0.239128
C40	C	-1.503580	-0.619075	0.242623
C41	C	-1.523200	-0.751819	0.242025
C42	C	-1.472040	-0.811694	0.237933
C43	C	-1.401266	-0.738822	0.234437
C44	C	-1.381652	-0.606075	0.235034
C45	C	-1.279338	-0.725821	0.226848
C46	C	-1.259715	-0.593075	0.227441
C47	C	-1.228178	-0.785696	0.222756
C48	C	-1.157401	-0.712822	0.219255
C49	C	-1.137783	-0.580070	0.219853
C50	C	-1.188941	-0.520203	0.223946
C51	C	-1.276759	-0.168674	0.366397
C52	C	-1.289233	-0.168018	0.451091
C53	C	-1.377919	0.060028	0.229700
C54	C	-1.350112	0.201307	0.230343
C55	C	-1.391149	-0.163217	0.095473
C56	C	-1.371754	-0.163865	0.010778
C57	C	-0.956656	-0.391921	0.232171
C58	C	-0.977542	-0.533201	0.231533
C59	C	-1.384873	-0.280601	0.981859
C60	C	-1.373136	-0.281193	0.902277
C61	C	-1.348285	-0.165047	0.851614
C62	C	-1.335164	-0.048302	0.880538
C63	C	-1.346896	-0.047712	0.960118
C64	C	-1.287848	-0.050682	0.559597
C65	C	-1.276119	-0.051282	0.480011
C66	C	-1.314088	-0.284163	0.501755
C67	C	-1.325821	-0.283572	0.581336
C68	C	-1.312695	-0.166827	0.610252
C69	C	-1.325420	-0.166187	0.696544
C70	C	-1.335565	-0.165687	0.765324
C71	C	-0.943426	-0.168674	0.366397
C72	C	-0.955899	-0.168018	0.451091
C73	C	-1.044585	0.060028	0.229700
C74	C	-1.016779	0.201307	0.230343
C75	C	-1.057815	-0.163217	0.095473
C76	C	-1.038421	-0.163865	0.010778
C77	C	-0.623323	-0.391921	0.232171
C78	C	-0.644208	-0.533201	0.231533
C79	C	-0.610092	-0.168674	0.366397
C80	C	-0.622566	-0.168018	0.451091
C81	C	-0.711252	0.060028	0.229700
C82	C	-0.683445	0.201307	0.230343
C83	C	-0.724482	-0.163217	0.095473
C84	C	-0.705088	-0.163865	0.010778
C85	C	-1.022717	-0.174066	0.494748
C86	C	-1.034444	-0.173434	0.574327
C87	C	-0.979354	-0.166763	0.610248
C88	C	-0.912530	-0.160711	0.566584
C89	C	-0.900803	-0.161334	0.487007
C90	C	-0.972023	-0.170522	-0.025124
C91	C	-0.953787	-0.171116	-0.104705
C92	C	-1.001953	-0.165063	-0.148382
C93	C	-1.068355	-0.158403	-0.112476
C94	C	-1.086588	-0.157799	-0.032897
C95	C	-0.689384	-0.174066	0.494748
C96	C	-0.701111	-0.173434	0.574327
C97	C	-0.646021	-0.166763	0.610248
C98	C	-0.579197	-0.160711	0.566584
C99	C	-0.567469	-0.161334	0.487007
C100	C	-0.638690	-0.170522	-0.025124
C101	C	-0.620454	-0.171116	-0.104705
C102	C	-0.668619	-0.165063	-0.148382
C103	C	-0.735022	-0.158403	-0.112476
C104	C	-0.753255	-0.157799	-0.032897
C105	C	-0.951177	-0.496243	0.091989
C106	C	-0.947806	-0.544137	0.021920
C107	C	-0.967432	-0.676882	0.021324
C108	C	-0.990434	-0.761739	0.090806
C109	C	-0.993805	-0.713845	0.160875
C110	C	-0.974175	-0.581095	0.161463
C111	C	-1.020174	-0.750803	0.300418
C112	C	-1.000544	-0.618057	0.301015
C113	C	-1.043176	-0.835660	0.369899
C114	C	-1.046543	-0.787766	0.439970
C115	C	-1.026914	-0.655011	0.440562
C116	C	-1.003915	-0.570163	0.371084
C117	C	-0.617844	-0.496243	0.091989
C118	C	-0.614472	-0.544137	0.021920
C119	C	-0.634099	-0.676882	0.021324
C120	C	-0.657100	-0.761739	0.090806
C121	C	-0.660472	-0.713845	0.160875
C122	C	-0.640842	-0.581095	0.161463
C123	C	-0.686841	-0.750803	0.300418
C124	C	-0.667210	-0.618057	0.301015
C125	C	-0.709843	-0.835660	0.369899
C126	C	-0.713210	-0.787766	0.439970
C127	C	-0.693581	-0.655011	0.440562
C128	C	-0.670582	-0.570163	0.371084
H129	H	-1.545231	-0.570311	0.245958
H130	H	-0.513059	-0.156412	0.451467
H131	H	-1.088860	-0.178367	0.609867
H132	H	-1.115755	-0.761584	0.215928
C133	C	-0.738510	-0.881099	0.516391
H134	H	-0.737709	-0.833568	0.558208
H135	H	-0.707720	-0.929513	0.516630
H136	H	-0.785721	-0.937791	0.521486
H137	H	-0.566383	-0.176540	-0.133928
C138	C	-0.992260	-0.166081	0.697782
H139	H	-0.949881	-0.161233	0.712928
H140	H	-1.029574	-0.242779	0.724174
H141	H	-1.005277	-0.093788	0.710245
C142	C	-0.630395	-0.729576	-0.055747
H143	H	-0.645384	-0.820788	-0.046146
H144	H	-0.582763	-0.696082	-0.086750
H145	H	-0.660768	-0.704382	-0.081887
C146	C	-0.982325	-0.424147	0.371736
H147	H	-0.987622	-0.407771	0.423416
H148	H	-1.012012	-0.391440	0.348526
H149	H	-0.934011	-0.383146	0.343676
H150	H	-1.107566	-0.153471	-0.148050
H151	H	-0.601842	-0.388151	0.092465
C152	C	-0.826297	-0.150494	0.006591
H153	H	-0.830264	-0.150994	0.060241
H154	H	-0.863132	-0.222475	-0.001097
H155	H	-0.830553	-0.073483	-0.015007
C156	C	-0.697290	-0.602338	0.517640
H157	H	-0.713795	-0.671890	0.558930
H158	H	-0.729178	-0.555465	0.523202
H159	H	-0.651176	-0.547180	0.518345
H160	H	-1.244159	-0.893785	0.222273
C161	C	-0.929601	-0.350227	0.092641
H162	H	-0.915429	-0.306551	0.041229
H163	H	-0.891035	-0.322852	0.116120
H164	H	-0.969044	-0.331195	0.120969
C165	C	-0.851941	-0.153389	0.606107
H166	H	-0.868505	-0.153901	0.659753
H167	H	-0.812820	-0.076393	0.584520
H168	H	-0.837128	-0.225385	0.598441
H169	H	-1.059160	-0.943747	0.369410
C170	C	-0.589168	-0.450795	-0.054504
H171	H	-0.577955	-0.364875	-0.044118
H172	H	-0.625964	-0.469102	-0.080845
H173	H	-0.547963	-0.460812	-0.085693
C174	C	-0.749989	-0.181398	0.455249
H175	H	-0.791456	-0.184894	0.492654
H176	H	-0.760103	-0.256394	0.431329
H177	H	-0.735800	-0.107402	0.417405
H178	H	-1.416834	-0.438113	0.239605
C179	C	-1.012027	-0.907756	0.090150
H180	H	-1.006723	-0.924126	0.038469
H181	H	-1.060335	-0.948758	0.118215
H182	H	-0.982331	-0.940462	0.113353
C183	C	-1.353157	-0.411328	0.637064
H184	H	-1.358271	-0.394256	0.688601
H185	H	-1.320041	-0.455202	0.626012
H186	H	-1.398034	-0.463336	0.630965
C187	C	-1.159633	-0.150500	0.006588
H188	H	-1.185705	-0.146996	-0.030826
H189	H	-1.152848	-0.075515	0.030518
H190	H	-1.185418	-0.224507	0.044423
H191	H	-0.846392	-0.156412	0.451467
C192	C	-1.059930	-0.499919	0.216004
H193	H	-1.032275	-0.554593	0.213476
H194	H	-1.058173	-0.459684	0.260711
H195	H	-1.041307	-0.436044	0.171436
H196	H	-0.599462	-0.175450	0.010429
H197	H	-0.673089	-0.869827	0.090315
H198	H	-0.655580	-0.166257	0.675046
C199	C	-1.167361	-0.374188	0.224602
H200	H	-1.117884	-0.339358	0.221930
H201	H	-1.193877	-0.358386	0.270772
H202	H	-1.177001	-0.334734	0.181497
C203	C	-1.248775	0.076485	0.424283
H204	H	-1.242631	0.146100	0.452901
H205	H	-1.282402	0.077032	0.395263
H206	H	-1.204412	0.085149	0.390311
C207	C	-1.071841	-0.881104	0.516388
H208	H	-1.083046	-0.967021	0.505998
H209	H	-1.113038	-0.871090	0.547586
H210	H	-1.035035	-0.862800	0.542721
C211	C	-0.518659	-0.153714	0.606133
H212	H	-0.477195	-0.150294	0.568749
H213	H	-0.532972	-0.227813	0.643922
H214	H	-0.508469	-0.078798	0.630128
C215	C	-0.880749	-0.178462	-0.144185
H216	H	-0.854685	-0.182004	-0.106769
H217	H	-0.854953	-0.104474	-0.182024
H218	H	-0.887554	-0.253463	-0.168107
H219	H	-0.654587	-0.462071	0.371559
C220	C	-0.648559	-0.165743	-0.235915
H221	H	-0.602118	-0.170589	-0.251034
H222	H	-0.649296	-0.089048	-0.262321
H223	H	-0.681883	-0.238039	-0.248390
C224	C	-1.412211	-0.408363	1.037581
H225	H	-1.418337	-0.477970	1.008957
H226	H	-1.456572	-0.417044	1.071554
H227	H	-1.378578	-0.408905	1.066600
H228	H	-0.987101	-0.165572	-0.213178
C229	C	-0.922501	-0.450795	-0.054504
H230	H	-0.911288	-0.364875	-0.044118
H231	H	-0.959297	-0.469102	-0.080845
H232	H	-0.881296	-0.460812	-0.085693
C233	C	-1.387568	-0.409602	0.870469
H234	H	-1.404056	-0.478689	0.912040
H235	H	-1.344786	-0.410609	0.837402
H236	H	-1.422778	-0.418741	0.842352
H237	H	-1.488023	-0.919784	0.237455
H238	H	-0.755527	-0.178367	0.609867
C239	C	-0.963724	-0.729569	-0.055749
H240	H	-0.947211	-0.660025	-0.097045
H241	H	-1.009831	-0.784739	-0.056452
H242	H	-0.931827	-0.776433	-0.061305
C243	C	-1.030623	-0.602338	0.517640
H244	H	-1.047128	-0.671890	0.558930
H245	H	-1.062511	-0.555465	0.523202
H246	H	-0.984510	-0.547180	0.518345
C247	C	-0.731430	-0.981676	0.369245
H248	H	-0.726121	-0.998049	0.317564
H249	H	-0.779738	-1.022686	0.397307
H250	H	-0.701733	-1.014373	0.392453
H251	H	-1.324771	-0.379222	0.478202
H252	H	-1.580831	-0.811153	0.244875
H253	H	-1.314925	0.046265	0.839282
C254	C	-1.273388	0.077734	0.591394
H255	H	-1.256907	0.146817	0.549822
H256	H	-1.238175	0.086848	0.619499
H257	H	-1.316162	0.078771	0.624471
H258	H	-1.336218	0.047346	0.983662
H259	H	-1.067583	-0.179502	0.465512
H260	H	-0.932795	-0.175450	0.010429
H261	H	-0.774233	-0.153471	-0.148050
