data_functionalizedCrystal
_audit_creation_method	'MofGen! by Chris Wilmer'
_symmetry_space_group_name_H-M	'P1'
_symmetry_Int_Tables_number	1
_symmetry_cell_setting	triclinic
loop_
_symmetry_equiv_pos_as_xyz
  x,y,z
_cell_length_a	19.188930
_cell_length_b	10.723023
_cell_length_c	9.798715
_cell_angle_alpha	89.998183
_cell_angle_beta	89.982440
_cell_angle_gamma	83.806164
loop_
_atom_site_label
_atom_site_type_symbol
_atom_site_fract_x
_atom_site_fract_y
_atom_site_fract_z
O1	O	0.927156	0.155779	-0.113926
O2	O	1.427156	0.655779	0.386074
O3	O	0.723981	0.176749	-0.113832
O4	O	1.223981	0.676749	0.386168
O5	O	0.830256	-0.015410	-0.113877
O6	O	1.330256	0.484590	0.386123
O7	O	0.820882	0.347937	-0.113882
O8	O	1.320882	0.847937	0.386118
O9	O	0.830248	-0.015410	0.113105
O10	O	1.330248	0.484590	0.613105
O11	O	0.723973	0.176749	0.113150
O12	O	1.223973	0.676749	0.613150
O13	O	0.927148	0.155778	0.113056
O14	O	1.427148	0.655778	0.613056
Zn15	Zn	0.825559	0.166264	0.149141
Zn16	Zn	1.325559	0.666264	0.649141
Zn17	Zn	0.825570	0.166264	-0.149918
Zn18	Zn	1.325570	0.666264	0.350082
O19	O	0.820874	0.347937	0.113101
O20	O	1.320874	0.847937	0.613101
C21	C	0.697962	0.176070	-0.000329
C22	C	1.197962	0.676070	0.499671
C23	C	0.620444	0.174031	-0.000293
C24	C	1.120444	0.674031	0.499707
C25	C	0.829570	-0.061895	-0.000387
C26	C	1.329570	0.438105	0.499613
C27	C	0.827529	-0.200407	-0.000392
C28	C	1.327529	0.299593	0.499608
N29	N	0.825557	0.166262	0.353241
N30	N	1.325557	0.666262	0.853241
C31	C	0.576253	0.286784	-0.000316
C32	C	1.076253	0.786784	0.499684
C33	C	0.503416	0.284869	-0.000331
C34	C	1.003416	0.784869	0.499669
C35	C	0.474775	0.170195	-0.000351
C36	C	0.974775	0.670195	0.499649
C37	C	0.518976	0.057427	-0.000320
C38	C	1.018976	0.557427	0.499680
C39	C	0.591811	0.059346	-0.000292
C40	C	1.091811	0.559346	0.499708
N41	N	0.366228	0.082541	-0.077656
N42	N	0.866228	0.582541	0.422344
N43	N	0.297037	0.080726	-0.077687
N44	N	0.797037	0.580726	0.422313
C45	C	0.255329	0.164408	-0.000434
C46	C	0.755329	0.664408	0.499566
N47	N	0.285423	0.249992	0.076833
N48	N	0.785423	0.749992	0.576833
N49	N	0.354619	0.251810	0.076857
N50	N	0.854619	0.751810	0.576857
C51	C	0.395799	0.168102	-0.000381
C52	C	0.895799	0.668102	0.499619
C53	C	0.132159	0.275091	-0.000471
C54	C	0.632159	0.775091	0.499529
C55	C	0.059322	0.273171	-0.000478
C56	C	0.559322	0.773171	0.499522
C57	C	0.074883	0.045726	-0.000481
C58	C	0.574883	0.545726	0.499519
C59	C	0.147719	0.047650	-0.000460
C60	C	0.647719	0.547650	0.499540
C61	C	0.176352	0.162335	-0.000462
C62	C	0.676352	0.662335	0.499538
C63	C	0.953168	0.156457	-0.000450
C64	C	1.453168	0.656457	0.499550
C65	C	1.030685	0.158496	-0.000495
C66	C	1.530685	0.658496	0.499505
C67	C	0.826615	-0.262166	0.117190
C68	C	1.326615	0.237834	0.617190
C69	C	0.824506	-0.405326	0.117188
C70	C	1.324506	0.094674	0.617188
C71	C	0.821560	0.394423	-0.000392
C72	C	1.321560	0.894423	0.499608
C73	C	0.823601	0.532935	-0.000397
C74	C	1.323601	1.032935	0.499603
N75	N	0.825578	0.166255	-0.354017
N76	N	1.325578	0.666255	0.145983
C77	C	0.870179	0.085229	0.420999
C78	C	1.370179	0.585229	0.920999
C79	C	0.870190	0.085224	0.578162
C80	C	1.370190	0.585224	1.078162
H81	H	0.599561	0.380170	-0.000320
H82	H	1.099561	0.880170	0.499680
Br83	Br	0.761904	0.281907	0.548880
Br84	Br	1.261904	0.781907	1.048880
H85	H	0.467429	0.376688	-0.000346
H86	H	0.967429	0.876688	0.499654
Br87	Br	0.207697	-0.105381	-0.000433
Br88	Br	0.707697	0.394619	0.499567
H89	H	0.823716	-0.458436	0.217854
H90	H	1.323716	0.041564	0.717854
Br91	Br	0.480107	-0.098204	-0.000333
Br92	Br	0.980107	0.401796	0.499667
H93	H	0.824381	-0.413960	-0.101068
H94	H	1.324381	0.086040	0.398932
Br95	Br	0.651789	-0.093688	-0.000257
Br96	Br	1.151789	0.406312	0.499743
H97	H	0.908371	0.015851	0.362660
H98	H	1.408371	0.515851	0.862660
Br99	Br	0.826239	-0.288917	-0.168188
Br100	Br	1.326239	0.211083	0.331812
H101	H	0.908395	0.015852	0.636431
H102	H	1.408395	0.515852	1.136431
H103	H	0.155474	0.368475	-0.000453
H104	H	0.655474	0.868475	0.499547
H105	H	0.827398	-0.209057	0.217857
H106	H	1.327398	0.290943	0.717857
H107	H	0.787361	0.235631	0.411581
H108	H	1.287361	0.735631	0.911581
H109	H	0.051564	-0.047644	-0.000581
H110	H	0.551564	0.452356	0.499419
Br111	Br	-0.000655	0.426207	-0.000497
Br112	Br	0.499345	0.926207	0.499503
