data_functionalizedCrystal
_audit_creation_method	'MofGen! by Chris Wilmer'
_symmetry_space_group_name_H-M	'P1'
_symmetry_Int_Tables_number	1
_symmetry_cell_setting	triclinic
loop_
_symmetry_equiv_pos_as_xyz
  x,y,z
_cell_length_a	10.489741
_cell_length_b	16.992695
_cell_length_c	16.053802
_cell_angle_alpha	87.258926
_cell_angle_beta	87.395203
_cell_angle_gamma	92.396302
loop_
_atom_site_label
_atom_site_type_symbol
_atom_site_fract_x
_atom_site_fract_y
_atom_site_fract_z
O1	O	1.708727	-0.107418	-0.069378
O2	O	1.338436	-0.117807	-0.069391
O3	O	1.522097	0.001538	-0.069378
O4	O	1.525066	-0.226763	-0.069391
O5	O	1.511985	-0.005004	0.069480
O6	O	1.328324	-0.124349	0.069467
O7	O	1.698615	-0.113960	0.069480
Zn8	Zn	1.511864	-0.120193	0.091520
Zn9	Zn	1.525187	-0.111574	-0.091431
O10	O	1.514954	-0.233305	0.069467
C11	C	1.285780	-0.120293	0.000036
C12	C	1.143947	-0.117945	0.000031
N13	N	1.502781	-0.126075	0.216380
C14	C	1.513221	0.027501	0.000051
C15	C	1.501826	0.114610	0.000050
C16	C	1.069200	-0.042010	0.000044
C17	C	0.985179	-0.074656	-0.068421
C18	C	0.975245	-0.081123	0.068482
C19	C	1.061799	-0.150620	-0.068490
C20	C	1.051869	-0.157080	0.068475
C21	C	0.967882	-0.189781	-0.000006
C22	C	1.751271	-0.111474	0.000051
C23	C	1.893105	-0.113821	0.000050
C24	C	1.523830	-0.259268	0.000036
C25	C	1.535225	-0.346377	0.000031
C26	C	1.611775	0.164229	0.000055
C27	C	1.601061	0.246077	0.000047
C28	C	1.480396	0.278303	0.000039
C29	C	1.370439	0.228677	0.000032
C30	C	1.381155	0.146832	0.000035
C31	C	1.435984	0.522152	0.000026
C32	C	1.425276	0.604004	0.000027
C33	C	1.655900	0.621398	0.000039
C34	C	1.666604	0.539550	0.000047
C35	C	1.556648	0.489931	0.000035
N36	N	1.469442	0.361964	0.000034
N37	N	1.567604	0.406272	0.000035
N38	N	1.534280	-0.105686	-0.216291
C39	C	1.580961	-0.075312	0.260079
C40	C	1.574620	-0.079434	0.347486
C41	C	1.490104	-0.134323	0.391191
C42	C	1.411915	-0.185089	0.347485
C43	C	1.418251	-0.180962	0.260081
C44	C	1.462427	-0.152325	0.652599
C45	C	1.456100	-0.156449	0.740009
C46	C	1.618803	-0.050793	0.740004
C47	C	1.625137	-0.046674	0.652597
C48	C	1.546943	-0.097437	0.608899
N49	N	1.483623	-0.138539	0.480534
N50	N	1.553419	-0.093216	0.519558
H51	H	1.113465	0.020419	-0.000038
H52	H	0.955585	-0.039799	-0.126300
H53	H	0.937256	-0.051706	0.126364
H54	H	1.693956	-0.001979	0.617014
H55	H	1.710033	0.137997	0.000066
H56	H	1.682463	-0.009463	0.775591
H57	H	0.923898	-0.252269	-0.000047
Br58	Br	1.101249	-0.215136	0.164950
H59	H	1.387273	-0.201150	0.775590
H60	H	1.327011	0.630238	0.000034
Br61	Br	1.231933	0.079490	0.000021
Br62	Br	1.356313	-0.221216	0.593299
Br63	Br	1.297203	-0.259578	0.406796
H64	H	1.354587	-0.222298	0.224501
Br65	Br	1.286756	0.454823	0.000005
H66	H	1.764862	0.513318	0.000053
Br67	Br	1.750285	0.313415	0.000053
H68	H	1.745420	0.661806	0.000047
H69	H	1.649788	-0.030618	0.224500
Br70	Br	1.206679	0.272412	0.000009
H71	H	1.099640	-0.179995	-0.126437
Br72	Br	1.680718	-0.010537	0.406795
