data_functionalizedCrystal
_audit_creation_method	'MofGen! by Chris Wilmer'
_symmetry_space_group_name_H-M	'P1'
_symmetry_Int_Tables_number	1
_symmetry_cell_setting	triclinic
loop_
_symmetry_equiv_pos_as_xyz
  x,y,z
_cell_length_a	19.288864
_cell_length_b	10.654558
_cell_length_c	17.766277
_cell_angle_alpha	89.999449
_cell_angle_beta	89.979562
_cell_angle_gamma	83.812236
loop_
_atom_site_label
_atom_site_type_symbol
_atom_site_fract_x
_atom_site_fract_y
_atom_site_fract_z
O1	O	0.922379	0.156648	-0.062834
O2	O	0.720257	0.177780	-0.062783
O3	O	0.825962	-0.015624	-0.062807
O4	O	0.816674	0.350052	-0.062811
O5	O	0.825948	-0.015617	0.062382
O6	O	0.720243	0.177787	0.062406
O7	O	0.922365	0.156655	0.062354
Cu8	Cu	0.821303	0.167222	0.073811
Cu9	Cu	0.821319	0.167213	-0.074239
O10	O	0.816660	0.350059	0.062378
C11	C	0.694369	0.177104	-0.000182
C12	C	0.617252	0.175063	-0.000162
C13	C	0.825272	-0.062404	-0.000213
C14	C	0.823228	-0.201803	-0.000215
C15	C	0.573301	0.288544	-0.000175
C16	C	0.500841	0.286626	-0.000184
C17	C	0.472336	0.171221	-0.000194
C18	C	0.516297	0.057725	-0.000176
C19	C	0.588755	0.059646	-0.000161
C20	C	0.363483	0.080497	-0.044077
C21	C	0.291026	0.078581	-0.044098
C22	C	0.248851	0.165291	-0.000239
C23	C	0.279141	0.253939	0.043630
C24	C	0.351599	0.255860	0.043646
C25	C	0.393768	0.169125	-0.000211
C26	C	0.126330	0.276701	-0.000260
C27	C	0.053870	0.274778	-0.000264
C28	C	0.069328	0.045874	-0.000265
C29	C	0.141787	0.047800	-0.000253
C30	C	0.170284	0.163217	-0.000255
C31	C	0.822259	-0.267292	0.068025
C32	C	0.820344	-0.398273	0.068022
C33	C	0.820366	-0.398265	-0.068465
C34	C	0.822285	-0.267287	-0.068462
C35	C	0.823201	-0.201808	0.136272
C36	C	0.822231	-0.267297	0.204517
C37	C	0.820317	-0.398279	0.204514
C38	C	0.819372	-0.463771	0.136267
C39	C	0.948253	0.157331	-0.000248
C40	C	1.025370	0.159372	-0.000273
C41	C	0.817350	0.396839	-0.000217
C42	C	0.819394	0.536238	-0.000221
N43	N	0.821296	0.167227	0.177941
N44	N	0.821332	0.167198	-0.178370
C45	C	0.863823	0.243157	0.782217
C46	C	0.863816	0.243169	0.703415
C47	C	0.821326	0.167199	0.664030
C48	C	0.778826	0.091236	0.703453
C49	C	0.778829	0.091235	0.782253
C50	C	0.818856	0.053978	0.539188
C51	C	0.818858	0.053976	0.460390
C52	C	0.821313	0.167202	0.420983
C53	C	0.823780	0.280433	0.460386
C54	C	0.823783	0.280432	0.539186
C55	C	0.821318	0.167192	0.578584
C56	C	0.863799	0.243181	0.296124
C57	C	0.863787	0.243196	0.217321
C58	C	0.778801	0.091250	0.217360
C59	C	0.778809	0.091247	0.296162
C60	C	0.821312	0.167210	0.335539
H61	H	0.596498	0.382525	-0.000178
H62	H	0.465049	0.379038	-0.000192
O63	O	0.733020	0.009265	0.824772
H64	H	0.703479	-0.043578	0.784150
O65	O	0.819329	-0.468900	-0.142069
H66	H	0.820327	-0.401355	-0.189521
H67	H	0.816854	-0.038224	0.428314
H68	H	0.819533	-0.451598	0.260083
H69	H	0.817819	-0.570427	0.136270
O70	O	0.825336	-0.060553	0.136319
H71	H	0.873125	-0.037551	0.106865
H72	H	0.898431	0.305015	0.814273
H73	H	0.898417	0.305030	0.671318
O74	O	0.384282	0.351444	0.090962
H75	H	0.420707	0.301483	0.132142
O76	O	0.006462	0.397185	-0.000270
H77	H	-0.026902	0.401775	-0.051296
O78	O	0.038587	-0.078597	-0.000272
H79	H	0.056170	-0.133095	0.050761
O80	O	0.823258	-0.196662	0.278121
H81	H	0.822272	-0.264212	0.325572
H82	H	0.823075	-0.213964	-0.124028
O83	O	0.408967	-0.013045	-0.091380
H84	H	0.464440	0.003169	-0.083992
H85	H	0.244803	0.324547	0.079344
O86	O	0.826440	0.402548	0.581688
H87	H	0.828144	0.481288	0.541055
H88	H	0.825779	0.372633	0.428303
O89	O	0.258355	-0.017020	-0.091412
H90	H	0.229314	-0.077072	-0.054425
H91	H	0.898404	0.305041	0.328186
H92	H	0.898387	0.305058	0.185231
O93	O	0.732983	0.009283	0.174894
H94	H	0.740127	0.022029	0.113476
O95	O	0.157076	0.401177	-0.000247
H96	H	0.114336	0.479768	-0.000243
O97	O	0.733009	0.009265	0.338681
H98	H	0.703473	-0.043585	0.298058
O99	O	0.189194	-0.074603	-0.000245
H100	H	0.244367	-0.053881	-0.000226
O101	O	0.816213	-0.068153	0.581689
H102	H	0.814510	-0.146889	0.541054
H103	H	0.493084	-0.036239	-0.000195
O104	O	0.733030	0.009257	0.660960
H105	H	0.695998	0.069603	0.625050
O106	O	0.636167	-0.062755	-0.000150
H107	H	0.604176	-0.143330	-0.000161
