data_functionalizedCrystal
_audit_creation_method	'MofGen! by Chris Wilmer'
_symmetry_space_group_name_H-M	'P1'
_symmetry_Int_Tables_number	1
_symmetry_cell_setting	triclinic
loop_
_symmetry_equiv_pos_as_xyz
  x,y,z
_cell_length_a	16.109301
_cell_length_b	16.776229
_cell_length_c	16.109301
_cell_angle_alpha	89.991926
_cell_angle_beta	96.538519
_cell_angle_gamma	90.004422
loop_
_atom_site_label
_atom_site_type_symbol
_atom_site_fract_x
_atom_site_fract_y
_atom_site_fract_z
O1	O	1.103135	0.066240	-0.106869
O2	O	1.436468	0.399574	0.226464
O3	O	1.769801	0.732907	0.559798
O4	O	0.861073	0.066253	-0.120168
O5	O	1.194406	0.399587	0.213165
O6	O	1.527740	0.732920	0.546498
O7	O	0.988754	0.066238	0.007512
O8	O	1.322087	0.399572	0.340846
O9	O	1.655420	0.732905	0.674179
O10	O	0.975454	0.066255	-0.234550
O11	O	1.308788	0.399589	0.098784
O12	O	1.642121	0.732922	0.432117
O13	O	0.988737	-0.066338	0.007520
O14	O	1.322070	0.266995	0.340853
O15	O	1.655403	0.600329	0.674187
O16	O	0.861056	-0.066323	-0.120161
O17	O	1.194389	0.267010	0.213173
O18	O	1.527723	0.600343	0.546506
O19	O	1.103118	-0.066336	-0.106861
O20	O	1.436451	0.266997	0.226472
O21	O	1.769785	0.600331	0.559805
Zn22	Zn	0.982084	-0.087379	-0.113510
Zn23	Zn	1.315418	0.245954	0.219824
Zn24	Zn	1.648751	0.579288	0.553157
Zn25	Zn	0.982107	0.087296	-0.113520
Zn26	Zn	1.315440	0.420630	0.219813
Zn27	Zn	1.648773	0.753963	0.553147
O28	O	0.975437	-0.066321	-0.234542
O29	O	1.308771	0.267012	0.098791
O30	O	1.642104	0.600345	0.432125
C31	C	0.830090	-0.000033	-0.119626
C32	C	1.163423	0.333300	0.213708
C33	C	1.496756	0.666633	0.547041
C34	C	0.737794	-0.000029	-0.118011
C35	C	1.071128	0.333305	0.215323
C36	C	1.404461	0.666638	0.548656
N37	N	0.982075	-0.206590	-0.113502
N38	N	1.315408	0.126743	0.219831
N39	N	1.648742	0.460076	0.553165
C40	C	0.515522	-0.000033	-0.190018
C41	C	0.848855	0.333300	0.143315
C42	C	1.182188	0.666634	0.476648
C43	C	0.428801	-0.000038	-0.188494
C44	C	0.762135	0.333295	0.144839
C45	C	1.095468	0.666629	0.478172
C46	C	0.448676	-0.000045	-0.037006
C47	C	0.782009	0.333288	0.296328
C48	C	1.115342	0.666621	0.629661
C49	C	0.535394	-0.000046	-0.038530
C50	C	0.868728	0.333287	0.294803
C51	C	1.202061	0.666621	0.628136
C52	C	0.568815	-0.000036	-0.115039
C53	C	0.902148	0.333298	0.218294
C54	C	1.235482	0.666631	0.551627
C55	C	0.395376	-0.000040	-0.111990
C56	C	0.728709	0.333293	0.221343
C57	C	1.062042	0.666626	0.554676
C58	C	0.301350	-0.000046	-0.110337
C59	C	0.634683	0.333287	0.222996
C60	C	0.968016	0.666621	0.556329
C61	C	0.662847	-0.000031	-0.116693
C62	C	0.996180	0.333302	0.216641
C63	C	1.329514	0.666635	0.549974
C64	C	1.038629	-0.248314	-0.056988
C65	C	1.371963	0.085019	0.276345
C66	C	1.705296	0.418353	0.609678
C67	C	1.038634	-0.331766	-0.056988
C68	C	1.371967	0.001567	0.276346
C69	C	1.705301	0.334900	0.609679
C70	C	0.982088	-0.373493	-0.113505
C71	C	1.315421	-0.040160	0.219828
C72	C	1.648754	0.293174	0.553161
C73	C	0.925527	-0.331764	-0.170022
C74	C	1.258861	0.001570	0.163312
C75	C	1.592194	0.334903	0.496645
C76	C	0.925519	-0.248313	-0.170018
C77	C	1.258853	0.085020	0.163315
C78	C	1.592186	0.418354	0.496649
C79	C	0.925557	-0.668311	-0.170038
C80	C	1.258891	-0.334977	0.163295
C81	C	1.592224	-0.001644	0.496629
C82	C	0.925571	-0.751767	-0.170039
C83	C	1.258905	-0.418434	0.163294
C84	C	1.592238	-0.085101	0.496627
C85	C	1.038672	-0.751764	-0.057008
C86	C	1.372005	-0.418431	0.276325
C87	C	1.705339	-0.085097	0.609659
C88	C	1.038664	-0.668313	-0.057004
C89	C	1.371997	-0.334980	0.276329
C90	C	1.705331	-0.001647	0.609663
C91	C	0.982101	-0.626591	-0.113517
C92	C	1.315435	-0.293258	0.219816
C93	C	1.648768	0.040076	0.553150
C94	C	0.982096	-0.536103	-0.113516
C95	C	1.315429	-0.202769	0.219817
C96	C	1.648762	0.130564	0.553151
C97	C	0.982096	-0.463980	-0.113511
C98	C	1.315430	-0.130647	0.219822
C99	C	1.648763	0.202687	0.553156
C100	C	1.134101	-0.000048	-0.107404
C101	C	1.467435	0.333286	0.225929
C102	C	1.800768	0.666619	0.559263
C103	C	1.226397	-0.000047	-0.109019
C104	C	1.559730	0.333286	0.224314
C105	C	1.893063	0.666620	0.557648
C106	C	0.988206	-0.000050	0.038491
C107	C	1.321540	0.333283	0.371824
C108	C	1.654873	0.666616	0.705158
C109	C	0.986591	-0.000051	0.130786
C110	C	1.319925	0.333282	0.464120
C111	C	1.653258	0.666615	0.797453
N112	N	0.982122	0.206507	-0.113521
N113	N	1.315456	0.539841	0.219812
N114	N	1.648789	0.873174	0.553146
C115	C	0.975984	-0.000031	-0.265521
C116	C	1.309318	0.333303	0.067813
C117	C	1.642651	0.666636	0.401146
C118	C	0.977600	-0.000025	-0.357816
C119	C	1.310933	0.333309	-0.024483
C120	C	1.644266	0.666642	0.308851
C121	C	1.058599	-0.000043	0.353059
C122	C	1.391932	0.333291	0.686392
C123	C	1.725266	0.666624	1.019725
C124	C	1.057075	-0.000036	0.439779
C125	C	1.390408	0.333297	0.773112
C126	C	1.723742	0.666631	1.106446
C127	C	0.905586	-0.000031	0.419905
C128	C	1.238919	0.333302	0.753238
C129	C	1.572253	0.666636	1.086571
C130	C	0.907111	-0.000032	0.333186
C131	C	1.240444	0.333301	0.666519
C132	C	1.573778	0.666635	0.999853
C133	C	0.983620	-0.000042	0.299766
C134	C	1.316953	0.333292	0.633099
C135	C	1.650287	0.666625	0.966432
C136	C	0.980571	-0.000034	0.473205
C137	C	1.313904	0.333299	0.806538
C138	C	1.647238	0.666633	1.139871
C139	C	0.978918	-0.000027	0.567231
C140	C	1.312251	0.333306	0.900564
C141	C	1.645585	0.666640	1.233897
C142	C	0.985273	-0.000047	0.205734
C143	C	1.318607	0.333286	0.539067
C144	C	1.651940	0.666619	0.872400
H145	H	0.542730	-0.000030	-0.252317
H146	H	0.876063	0.333303	0.081017
H147	H	1.209396	0.666636	0.414350
N148	N	0.864526	-0.203310	-0.230978
N149	N	1.197859	0.130024	0.102355
N150	N	1.531192	0.463357	0.435689
H151	H	0.873099	-0.144113	-0.222398
H152	H	1.206432	0.189221	0.110935
H153	H	1.539765	0.522554	0.444268
H154	H	0.805554	-0.217910	-0.221353
H155	H	1.138887	0.115424	0.111980
H156	H	1.472221	0.448757	0.445313
N157	N	0.864542	-0.376773	-0.230979
N158	N	1.197875	-0.043439	0.102354
N159	N	1.531208	0.289894	0.435687
H160	H	0.874094	-0.362235	-0.289990
H161	H	1.207428	-0.028902	0.043343
H162	H	1.540761	0.304431	0.376676
H163	H	0.805565	-0.362248	-0.221312
H164	H	1.138898	-0.028914	0.112021
H165	H	1.472231	0.304419	0.445354
N166	N	0.371323	-0.000025	-0.269366
N167	N	0.704656	0.333309	0.063967
N168	N	1.037990	0.666642	0.397301
H169	H	0.311315	-0.000028	-0.256794
H170	H	0.644648	0.333305	0.076539
H171	H	0.977981	0.666639	0.409872
H172	H	0.382140	-0.049168	-0.302707
H173	H	0.715473	0.284165	0.030626
H174	H	1.048807	0.617498	0.363960
N175	N	1.137946	-0.000048	0.497258
N176	N	1.471280	0.333285	0.830591
N177	N	1.804613	0.666618	1.163924
H178	H	1.125375	-0.000044	0.557266
H179	H	1.458708	0.333289	0.890599
H180	H	1.792041	0.666622	1.223933
H181	H	1.171297	0.049096	0.486430
H182	H	1.504631	0.382429	0.819763
H183	H	1.837964	0.715762	1.153097
H184	H	0.846050	-0.000029	0.289792
H185	H	1.179384	0.333305	0.623126
H186	H	1.512717	0.666638	0.956459
N187	N	0.412629	-0.000061	0.045511
N188	N	0.745962	0.333273	0.378845
N189	N	1.079296	0.666606	0.712178
H190	H	0.349606	-0.000060	0.035102
H191	H	0.682939	0.333274	0.368435
H192	H	1.016273	0.666607	0.701768
H193	H	0.432130	0.049083	0.078320
H194	H	0.765463	0.382417	0.411654
H195	H	1.098796	0.715750	0.744987
H196	H	0.578788	-0.000050	0.022530
H197	H	0.912122	0.333283	0.355864
H198	H	1.245455	0.666616	0.689197
H199	H	1.084684	-0.365737	-0.010969
H200	H	1.418017	-0.032404	0.322364
H201	H	1.751351	0.300929	0.655697
N202	N	1.099624	-0.203311	0.003966
N203	N	1.432957	0.130022	0.337299
N204	N	1.766291	0.463355	0.670633
H205	H	1.135450	-0.242409	0.039768
H206	H	1.468783	0.090924	0.373101
H207	H	1.802117	0.424257	0.706434
H208	H	1.067806	-0.168698	0.040734
H209	H	1.401140	0.164635	0.374067
H210	H	1.734473	0.497968	0.707401
N211	N	1.099675	-0.796767	0.003953
N212	N	1.433008	-0.463434	0.337286
N213	N	1.766341	-0.130100	0.670619
H214	H	1.135498	-0.757669	0.039751
H215	H	1.468831	-0.424336	0.373085
H216	H	1.802165	-0.091002	0.706418
H217	H	1.136417	-0.831378	-0.027896
H218	H	1.469751	-0.498045	0.305437
H219	H	1.803084	-0.164712	0.638771
H220	H	1.084712	-0.634342	-0.010985
H221	H	1.418045	-0.301009	0.322349
H222	H	1.751378	0.032325	0.655682
H223	H	0.843295	-0.000024	0.447127
H224	H	1.176628	0.333309	0.780460
H225	H	1.509962	0.666642	1.113793
N226	N	0.864575	-0.796776	-0.230995
N227	N	1.197908	-0.463443	0.102338
N228	N	1.531241	-0.130109	0.435671
H229	H	0.828738	-0.757683	-0.266793
H230	H	1.162071	-0.424350	0.066540
H231	H	1.495404	-0.091016	0.399873
H232	H	0.827844	-0.831412	-0.199145
H233	H	1.161178	-0.498079	0.134189
H234	H	1.494511	-0.164746	0.467522
H235	H	1.120897	-0.000049	0.325851
H236	H	1.454231	0.333284	0.659184
H237	H	1.787564	0.666618	0.992518
H238	H	0.879504	-0.634347	-0.216055
H239	H	1.212837	-0.301014	0.117279
H240	H	1.546170	0.032320	0.450612
