data_functionalizedCrystal
_audit_creation_method	'MofGen! by Chris Wilmer'
_symmetry_space_group_name_H-M	'P1'
_symmetry_Int_Tables_number	1
_symmetry_cell_setting	triclinic
loop_
_symmetry_equiv_pos_as_xyz
  x,y,z
_cell_length_a	14.519709
_cell_length_b	10.065875
_cell_length_c	11.026607
_cell_angle_alpha	100.731764
_cell_angle_beta	96.133081
_cell_angle_gamma	81.242070
loop_
_atom_site_label
_atom_site_type_symbol
_atom_site_fract_x
_atom_site_fract_y
_atom_site_fract_z
O1	O	1.260605	-0.113307	0.141346
O2	O	1.760605	0.386693	0.641346
O3	O	0.995219	-0.113348	0.160080
O4	O	1.495219	0.386652	0.660080
O5	O	1.105917	-0.113326	-0.025988
O6	O	1.605917	0.386674	0.474012
O7	O	1.149907	-0.113329	0.327413
O8	O	1.649907	0.386671	0.827413
O9	O	1.084832	0.113659	0.009635
O10	O	1.584832	0.613659	0.509635
O11	O	0.974135	0.113637	0.195703
O12	O	1.474135	0.613637	0.695703
O13	O	1.239520	0.113678	0.176969
O14	O	1.739520	0.613678	0.676969
Zn15	Zn	1.103480	0.149696	0.191992
Zn16	Zn	1.603480	0.649696	0.691992
Zn17	Zn	1.131260	-0.149366	0.145057
Zn18	Zn	1.631260	0.350634	0.645057
O19	O	1.128823	0.113656	0.363037
O20	O	1.628823	0.613656	0.863037
C21	C	0.950174	0.000139	0.177017
C22	C	1.450174	0.500139	0.677017
C23	C	0.847363	0.000123	0.174397
C24	C	1.347363	0.500123	0.674397
N25	N	1.084527	0.353798	0.224023
N26	N	1.584527	0.853798	0.724023
C27	C	1.087259	0.000164	-0.053405
C28	C	1.587259	0.500164	0.446595
C29	C	1.063067	0.000155	-0.188173
C30	C	1.563067	0.500155	0.311827
C31	C	0.470874	0.000186	0.164772
C32	C	0.970874	0.500186	0.664772
C33	C	0.575624	0.000168	0.167445
C34	C	1.075624	0.500168	0.667445
C35	C	0.659115	0.000153	0.169584
C36	C	1.159115	0.500153	0.669584
C37	C	0.763872	0.000138	0.172258
C38	C	1.263872	0.500138	0.672258
C39	C	1.284566	0.000188	0.160032
C40	C	1.784566	0.500188	0.660032
C41	C	1.387378	0.000195	0.162650
C42	C	1.887378	0.500195	0.662650
N43	N	1.150218	-0.353468	0.113016
N44	N	1.650218	0.146532	0.613016
C45	C	1.124658	0.421585	0.156194
C46	C	1.624658	0.921585	0.656194
C47	C	1.110081	0.578749	0.180855
C48	C	1.610081	1.078749	0.680855
C49	C	1.129866	0.000163	-0.261832
C50	C	1.629866	0.500163	0.238168
C51	C	1.104865	0.000155	-0.401122
C52	C	1.604865	0.500155	0.098878
C53	C	1.147480	0.000163	0.390453
C54	C	1.647480	0.500163	0.890453
C55	C	1.171673	0.000163	0.525220
C56	C	1.671673	0.500163	1.025220
H57	H	1.169805	0.363269	0.079860
H58	H	1.669805	0.863269	0.579860
H59	H	1.064923	0.637061	0.257185
H60	H	1.564923	1.137061	0.757185
H61	H	0.987370	0.000135	-0.228232
H62	H	1.487370	0.500135	0.271768
H63	H	1.205564	0.000184	-0.221773
H64	H	1.705564	0.500184	0.278227
H65	H	1.195367	0.588220	0.036678
H66	H	1.695367	1.088220	0.536678
H67	H	1.039372	0.412115	0.300348
H68	H	1.539372	0.912115	0.800348
H69	H	1.247386	0.000072	-0.434746
H70	H	1.747386	0.500072	0.065254
H71	H	1.029162	0.000134	-0.441175
H72	H	1.529162	0.500134	0.058825
