data_functionalizedCrystal
_audit_creation_method	'MofGen! by Chris Wilmer'
_symmetry_space_group_name_H-M	'P1'
_symmetry_Int_Tables_number	1
_symmetry_cell_setting	triclinic
loop_
_symmetry_equiv_pos_as_xyz
  x,y,z
_cell_length_a	18.215407
_cell_length_b	13.897448
_cell_length_c	18.215399
_cell_angle_alpha	89.976259
_cell_angle_beta	90.019833
_cell_angle_gamma	89.979983
loop_
_atom_site_label
_atom_site_type_symbol
_atom_site_fract_x
_atom_site_fract_y
_atom_site_fract_z
Zn1	Zn	1.125099	0.384013	0.416137
Zn2	Zn	1.458432	0.717347	0.749471
Zn3	Zn	1.791766	1.050680	1.082804
Zn4	Zn	1.125019	0.545323	0.293080
Zn5	Zn	1.458352	0.878656	0.626413
Zn6	Zn	1.791686	1.211990	0.959747
Zn7	Zn	1.002032	0.384045	0.293085
Zn8	Zn	1.335365	0.717378	0.626418
Zn9	Zn	1.668698	1.050711	0.959751
Zn10	Zn	1.002009	0.545269	0.416105
Zn11	Zn	1.335342	0.878603	0.749438
Zn12	Zn	1.668676	1.211936	1.082772
O13	O	1.063540	0.464663	0.354602
O14	O	1.396873	0.797996	0.687935
O15	O	1.730206	1.131329	1.021269
O16	O	1.228073	0.405421	0.399825
O17	O	1.561406	0.738754	0.733159
O18	O	1.894739	1.072087	1.066492
O19	O	1.108680	0.523965	0.190096
O20	O	1.442014	0.857298	0.523430
O21	O	1.775347	1.190631	0.856763
O22	O	1.018400	0.249059	0.309423
O23	O	1.351733	0.582392	0.642757
O24	O	1.685067	0.915726	0.976090
O25	O	1.228014	0.523934	0.309416
O26	O	1.561347	0.857267	0.642749
O27	O	1.894681	1.190601	0.976082
O28	O	1.108817	0.249036	0.399830
O29	O	1.442150	0.582369	0.733163
O30	O	1.775484	0.915702	1.066496
O31	O	1.018322	0.405474	0.190100
O32	O	1.351656	0.738808	0.523433
O33	O	1.684989	1.072141	0.856767
O34	O	0.899044	0.405422	0.309392
O35	O	1.232378	0.738756	0.642725
O36	O	1.565711	1.072089	0.976059
O37	O	1.018361	0.523843	0.519094
O38	O	1.351695	0.857176	0.852427
O39	O	1.685028	1.190509	1.185760
O40	O	0.899028	0.523873	0.399775
O41	O	1.232361	0.857207	0.733108
O42	O	1.565694	1.190540	1.066441
O43	O	1.108795	0.405369	0.519117
O44	O	1.442128	0.738702	0.852451
O45	O	1.775462	1.072035	1.185784
O46	O	1.108658	0.680297	0.309384
O47	O	1.441992	1.013631	0.642718
O48	O	1.775325	1.346964	0.976051
O49	O	1.018283	0.680258	0.399770
O50	O	1.351617	1.013591	0.733103
O51	O	1.684950	1.346925	1.066437
C52	C	0.872333	0.464646	0.354581
C53	C	1.205667	0.797979	0.687914
C54	C	1.539000	1.131313	1.021247
C55	C	0.790535	0.464662	0.354589
C56	C	1.123868	0.797996	0.687922
C57	C	1.457201	1.131329	1.021256
C58	C	0.602351	0.526437	0.401592
C59	C	0.935685	0.859770	0.734926
C60	C	1.269018	1.193103	1.068259
C61	C	0.525492	0.526440	0.401601
C62	C	0.858826	0.859773	0.734935
C63	C	1.192159	1.193106	1.068268
C64	C	0.525480	0.402906	0.307628
C65	C	0.858814	0.736239	0.640961
C66	C	1.192147	1.069573	0.974294
C67	C	0.602338	0.402899	0.307623
C68	C	0.935671	0.736232	0.640956
C69	C	1.269004	1.069566	0.974289
C70	C	0.640771	0.464670	0.354604
C71	C	0.974104	0.798003	0.687937
C72	C	1.307438	1.131336	1.021271
C73	C	0.487055	0.464680	0.354618
C74	C	0.820388	0.798013	0.687951
C75	C	1.153722	1.131346	1.021285
C76	C	0.403721	0.464683	0.354628
C77	C	0.737055	0.798016	0.687961
C78	C	1.070388	1.131349	1.021294
C79	C	0.724110	0.464666	0.354595
C80	C	1.057443	0.797999	0.687929
C81	C	1.390777	1.131332	1.021262
C82	C	1.063480	0.715277	0.354589
C83	C	1.396813	1.048610	0.687923
C84	C	1.730146	1.381944	1.021256
C85	C	1.063521	0.822491	0.354608
C86	C	1.396855	1.155824	0.687942
C87	C	1.730188	1.489157	1.021275
C88	C	1.063594	1.018786	0.354661
C89	C	1.396927	1.352119	0.687995
C90	C	1.730260	1.685453	1.021328
C91	C	1.063551	0.909553	0.354634
C92	C	1.396885	1.242887	0.687967
C93	C	1.730218	1.576220	1.021301
C94	C	1.255493	0.464680	0.354623
C95	C	1.588826	0.798013	0.687957
C96	C	1.922159	1.131346	1.021290
C97	C	1.337291	0.464687	0.354633
C98	C	1.670625	0.798021	0.687966
C99	C	2.003958	1.131354	1.021299
C100	C	1.063585	0.464596	0.546555
C101	C	1.396918	0.797929	0.879888
C102	C	1.730251	1.131263	1.213222
C103	C	1.063604	0.464568	0.628354
C104	C	1.396937	0.797901	0.961687
C105	C	1.730270	1.131234	1.295020
C106	C	1.063614	1.213070	0.354639
C107	C	1.396947	1.546403	0.687973
C108	C	1.730280	1.879736	1.021306
C109	C	1.063629	1.105856	0.354677
C110	C	1.396963	1.439189	0.688011
C111	C	1.730296	1.772522	1.021344
C112	C	1.063537	0.464659	0.163396
C113	C	1.396871	0.797993	0.496729
C114	C	1.730204	1.131326	0.830062
C115	C	1.063661	0.464416	0.081597
C116	C	1.396994	0.797749	0.414930
C117	C	1.730328	1.131082	0.748264
C118	C	1.110709	0.402821	0.816561
C119	C	1.444043	0.736154	1.149895
C120	C	1.777376	1.069487	1.483228
C121	C	1.110718	0.402792	0.893420
C122	C	1.444052	0.736126	1.226753
C123	C	1.777385	1.069459	1.560087
C124	C	1.016550	0.526166	0.893384
C125	C	1.349883	0.859499	1.226717
C126	C	1.683217	1.192832	1.560051
C127	C	1.016538	0.526188	0.816527
C128	C	1.349871	0.859522	1.149860
C129	C	1.683205	1.192855	1.483193
C130	C	1.063622	0.464517	0.778117
C131	C	1.396955	0.797850	1.111451
C132	C	1.730289	1.131184	1.444784
C133	C	1.063643	0.464466	0.931834
C134	C	1.396976	0.797800	1.265167
C135	C	1.730309	1.131133	1.598500
C136	C	1.063652	0.464436	1.015167
C137	C	1.396985	0.797770	1.348501
C138	C	1.730318	1.131103	1.681834
C139	C	1.063612	0.464546	0.694778
C140	C	1.396945	0.797879	1.028112
C141	C	1.730279	1.131212	1.361445
H142	H	0.494178	0.352616	0.269376
H143	H	0.827512	0.685949	0.602709
H144	H	1.160845	1.019283	0.936043
F145	F	1.160840	0.337133	0.934332
F146	F	1.494173	0.670466	1.267665
F147	F	1.827507	1.003799	1.600998
F148	F	0.643252	0.592176	0.451596
F149	F	0.976586	0.925509	0.784929
F150	F	1.309919	1.258842	1.118262
F151	F	1.160818	0.337182	0.775686
F152	F	1.494152	0.670516	1.109019
F153	F	1.827485	1.003849	1.442352
H154	H	0.978217	0.576378	0.924666
H155	H	1.311551	0.909712	1.258000
H156	H	1.644884	1.243045	1.591333
F157	F	0.966415	0.591853	0.775609
F158	F	1.299748	0.925186	1.108943
F159	F	1.633081	1.258520	1.442276
H160	H	0.494214	0.576735	0.439865
H161	H	0.827548	0.910068	0.773198
H162	H	1.160881	1.243402	1.106532
H163	H	0.633620	0.352595	0.269359
H164	H	0.966953	0.685928	0.602692
H165	H	1.300287	1.019261	0.936026
