data_functionalizedCrystal
_audit_creation_method	'MofGen! by Chris Wilmer'
_symmetry_space_group_name_H-M	'P1'
_symmetry_Int_Tables_number	1
_symmetry_cell_setting	triclinic
loop_
_symmetry_equiv_pos_as_xyz
  x,y,z
_cell_length_a	10.654550
_cell_length_b	11.792241
_cell_length_c	9.130313
_cell_angle_alpha	89.995332
_cell_angle_beta	89.999724
_cell_angle_gamma	84.339173
loop_
_atom_site_label
_atom_site_type_symbol
_atom_site_fract_x
_atom_site_fract_y
_atom_site_fract_z
O1	O	1.667388	0.159420	-0.121691
O2	O	1.301867	0.174608	-0.121718
O3	O	1.493498	0.001864	-0.121693
O4	O	1.475758	0.332164	-0.121715
O5	O	1.493485	0.001859	0.121906
O6	O	1.301854	0.174603	0.121881
O7	O	1.667375	0.159415	0.121908
Cu8	Cu	1.484613	0.167009	0.144137
Cu9	Cu	1.484629	0.167015	-0.143947
O10	O	1.475744	0.332159	0.121884
C11	C	1.255066	0.173491	0.000078
C12	C	1.115632	0.170154	0.000068
C13	C	1.035859	0.271863	0.000066
C14	C	0.904847	0.268721	0.000092
C15	C	0.933394	0.062152	0.000116
C16	C	1.064403	0.065295	0.000101
C17	C	1.492377	-0.040432	0.000106
C18	C	1.489042	-0.166453	0.000104
C19	C	1.482908	-0.397180	0.000079
C20	C	1.486316	-0.268787	0.000093
C21	C	1.714177	0.160533	0.000109
C22	C	1.853611	0.163869	0.000109
C23	C	1.476865	0.374455	0.000082
C24	C	1.480201	0.500477	0.000074
N25	N	1.484612	0.167004	0.346760
N26	N	1.484641	0.167011	-0.346569
C27	C	1.569495	0.090545	0.423422
C28	C	1.569507	0.090545	0.576759
C29	C	1.399749	0.243473	0.576757
C30	C	1.399732	0.243466	0.423423
H31	H	1.129359	-0.017534	0.000107
H32	H	1.330604	0.305728	0.361000
H33	H	1.077564	0.357246	0.000050
C34	C	0.817094	0.380603	0.000082
C35	C	0.723119	0.406855	0.126588
C36	C	0.635365	0.518742	0.126581
C37	C	0.641588	0.604375	0.000068
C38	C	0.735567	0.578124	-0.126447
C39	C	0.823320	0.466238	-0.126440
H40	H	0.718509	0.343463	0.220249
H41	H	0.565796	0.538174	0.220237
H42	H	0.576627	0.687200	0.000063
H43	H	0.740176	0.641517	-0.220108
H44	H	0.892890	0.446806	-0.220096
C45	C	1.662850	0.006430	0.339092
C46	C	1.756214	-0.077678	0.423428
C47	C	1.849569	-0.161799	0.339103
C48	C	1.849562	-0.161812	0.170441
C49	C	1.756195	-0.077701	0.086096
C50	C	1.662839	0.006420	0.170421
H51	H	1.756223	-0.077671	0.548290
H52	H	1.918686	-0.224063	0.401542
H53	H	1.918669	-0.224083	0.108019
H54	H	1.756186	-0.077708	-0.038766
H55	H	1.593723	0.068684	0.107982
C56	C	1.306393	0.327588	0.661088
C57	C	1.306477	0.327671	0.829749
C58	C	1.213122	0.411792	0.914074
C59	C	1.119682	0.495830	0.829738
C60	C	1.119594	0.495750	0.661068
C61	C	1.212949	0.411629	0.576742
H62	H	1.375650	0.265458	0.892188
H63	H	1.213187	0.411850	1.038936
H64	H	1.050574	0.558101	0.892161
H65	H	1.050420	0.557963	0.598628
H66	H	1.212884	0.411571	0.451881
H67	H	0.891668	-0.023220	0.000152
H68	H	1.638624	0.028284	0.639174
