data_functionalizedCrystal
_audit_creation_method	'MofGen! by Chris Wilmer'
_symmetry_space_group_name_H-M	'P1'
_symmetry_Int_Tables_number	1
_symmetry_cell_setting	triclinic
loop_
_symmetry_equiv_pos_as_xyz
  x,y,z
_cell_length_a	15.298068
_cell_length_b	15.296118
_cell_length_c	15.297908
_cell_angle_alpha	88.414556
_cell_angle_beta	110.812122
_cell_angle_gamma	107.345988
loop_
_atom_site_label
_atom_site_type_symbol
_atom_site_fract_x
_atom_site_fract_y
_atom_site_fract_z
Zn1	Zn	1.464580	-0.231358	0.723920
Zn2	Zn	1.410650	-0.360005	0.541428
Zn3	Zn	1.282132	-0.231347	0.541450
Zn4	Zn	1.272781	-0.404422	0.660637
O5	O	1.357536	-0.306783	0.616859
O6	O	1.591479	-0.229839	0.726186
O7	O	1.374945	-0.324345	0.415177
O8	O	1.332818	-0.105076	0.592149
O9	O	1.551857	-0.324356	0.592110
O10	O	1.466861	-0.105085	0.726208
O11	O	1.280524	-0.229820	0.415194
O12	O	1.146839	-0.272889	0.530786
O13	O	1.316880	-0.400058	0.795285
O14	O	1.139968	-0.400047	0.618352
O15	O	1.457793	-0.272909	0.841779
O16	O	1.365877	-0.492169	0.530748
O17	O	1.264586	-0.524802	0.618330
C18	C	1.108645	-0.341287	0.567705
C19	C	1.002167	-0.356074	0.546694
C20	C	0.784521	-0.201330	0.766983
C21	C	0.884562	-0.187441	0.786729
C22	C	0.913969	-0.229598	0.726722
C23	C	0.843323	-0.285646	0.646966
C24	C	0.743271	-0.299543	0.627222
C25	C	0.872719	-0.327810	0.586961
C26	C	0.802073	-0.383859	0.507205
C27	C	0.702032	-0.397752	0.487464
C28	C	0.672625	-0.355595	0.547471
C29	C	0.972771	-0.313914	0.606704
C30	C	0.931521	-0.412126	0.466943
C31	C	0.831479	-0.426015	0.447198
C32	C	1.308394	-0.541225	0.567694
C33	C	1.287462	-0.641513	0.546709
C34	C	1.207863	-0.688692	0.467003
C35	C	1.188202	-0.782917	0.447291
C36	C	1.248133	-0.829975	0.507288
C37	C	1.327730	-0.782797	0.586999
C38	C	1.347398	-0.688561	0.606709
C39	C	1.387667	-0.829844	0.646993
C40	C	1.467264	-0.782667	0.726705
C41	C	1.486927	-0.688440	0.746411
C42	C	1.426996	-0.641382	0.686415
C43	C	1.367999	-0.924080	0.627284
C44	C	1.507533	-0.923950	0.766989
C45	C	1.527195	-0.829724	0.786701
C46	C	1.607398	-0.272144	0.666204
C47	C	1.713875	-0.257383	0.687233
C48	C	1.392309	-0.341439	0.852183
C49	C	1.407128	-0.356208	0.952465
C50	C	1.406899	-0.071424	0.666240
C51	C	1.427934	0.028872	0.687283
C52	C	1.322966	-0.272188	0.382474
C53	C	1.308387	-0.257140	0.282283
C54	C	1.252266	-0.200984	1.235185
C55	C	1.238347	-0.187099	1.140968
C56	C	1.280541	-0.229375	1.093837
C57	C	1.336656	-0.285538	1.140933
C58	C	1.350583	-0.299418	1.235162
C59	C	1.378858	-0.327810	1.093814
C60	C	1.434974	-0.383973	1.140910
C61	C	1.448897	-0.397851	1.235129
C62	C	1.406704	-0.355575	1.282260
C63	C	1.364931	-0.313929	0.999586
C64	C	1.463248	-0.412364	0.999563
C65	C	1.477167	-0.426249	1.093780
H66	H	0.773946	-0.471652	0.382260
H67	H	1.497608	-0.446787	0.961190
H68	H	1.494599	-0.443575	1.273475
H69	H	1.232120	-0.906697	0.491234
Br70	Br	0.971419	-0.469350	0.385505
Br71	Br	0.980431	-0.111386	0.894969
Br72	Br	1.261649	-0.210531	0.965969
Br73	Br	1.049742	-0.210747	0.753520
H74	H	0.644512	-0.443398	0.422527
Br75	Br	1.588880	-0.987803	0.848413
H76	H	1.319242	-0.268200	0.961250
Br77	Br	1.553319	-0.502470	1.157705
Br78	Br	0.744606	-0.144141	0.848423
H79	H	0.591165	-0.366908	0.531404
Br80	Br	1.126547	-0.624822	0.385582
H81	H	1.442996	-0.564658	0.702464
H82	H	1.592004	-0.791300	0.851603
H83	H	1.030282	-0.268277	0.671642
H84	H	1.303190	-0.962483	0.562382
Br85	Br	1.162197	-0.110878	1.077059
H86	H	1.123396	-0.821322	0.382389
Br87	Br	1.425571	-0.374436	1.410125
H88	H	1.217924	-0.166563	1.273569
H89	H	1.551746	-0.650026	0.811311
