data_functionalizedCrystal
_audit_creation_method	'MofGen! by Chris Wilmer'
_symmetry_space_group_name_H-M	'P1'
_symmetry_Int_Tables_number	1
_symmetry_cell_setting	triclinic
loop_
_symmetry_equiv_pos_as_xyz
  x,y,z
_cell_length_a	14.908795
_cell_length_b	21.295417
_cell_length_c	21.295411
_cell_angle_alpha	89.979403
_cell_angle_beta	86.674589
_cell_angle_gamma	93.319839
loop_
_atom_site_label
_atom_site_type_symbol
_atom_site_fract_x
_atom_site_fract_y
_atom_site_fract_z
Zn1	Zn	1.379256	-0.195242	-0.411535
Zn2	Zn	1.379118	-0.300499	-0.306257
Zn3	Zn	1.228373	-0.201307	-0.300196
Zn4	Zn	1.228331	-0.306543	-0.405408
O5	O	1.303770	-0.250898	-0.355849
O6	O	1.505488	-0.204136	-0.402671
O7	O	1.359082	-0.287350	-0.217362
O8	O	1.248463	-0.112410	-0.314993
O9	O	1.505387	-0.281469	-0.325323
O10	O	1.359316	-0.107954	-0.396793
O11	O	1.248330	-0.214474	-0.212909
O12	O	1.102118	-0.220335	-0.309052
O13	O	1.248392	-0.291770	-0.494312
O14	O	1.102087	-0.297651	-0.386351
O15	O	1.359276	-0.209997	-0.498814
O16	O	1.359041	-0.389393	-0.319382
O17	O	1.248258	-0.393834	-0.392228
C18	C	1.069367	-0.260308	-0.346379
C19	C	0.969088	-0.264348	-0.342343
C20	C	0.827699	-0.310239	-0.296321
C21	C	0.921920	-0.306445	-0.300113
C22	C	0.922030	-0.226041	-0.380781
C23	C	0.827809	-0.229836	-0.376989
C24	C	0.780647	-0.271936	-0.334758
C25	C	0.686425	-0.275733	-0.330969
C26	C	0.686537	-0.195327	-0.411634
C27	C	0.780757	-0.191533	-0.415426
C28	C	1.303655	-0.414454	-0.355813
C29	C	1.303688	-0.484421	-0.355821
C30	C	1.361376	-0.514911	-0.398442
C31	C	1.361408	-0.580653	-0.398459
C32	C	1.303761	-0.615900	-0.355844
C33	C	1.246062	-0.585402	-0.313220
C34	C	1.246025	-0.519663	-0.313208
N35	N	1.296940	-0.719427	-0.300478
N36	N	1.296980	-0.781877	-0.300491
C37	C	1.303867	-0.813971	-0.355877
N38	N	1.310729	-0.781255	-0.411251
N39	N	1.310694	-0.718799	-0.411238
C40	C	1.303794	-0.687184	-0.355852
C41	C	1.361592	-0.915745	-0.398520
C42	C	1.361618	-0.981488	-0.398537
C43	C	1.246276	-0.986236	-0.313292
C44	C	1.246246	-0.920495	-0.313280
C45	C	1.303909	-0.885253	-0.355893
C46	C	1.539088	-0.241452	-0.365357
C47	C	1.639366	-0.237426	-0.369408
C48	C	1.303845	-0.250881	-0.520042
C49	C	1.303877	-0.250875	-0.590012
C50	C	1.303910	-0.086702	-0.355901
C51	C	1.303969	-0.016731	-0.355922
C52	C	1.361611	-0.208294	-0.625223
C53	C	1.361610	-0.208266	-0.690966
C54	C	1.303884	-0.250831	-0.721495
C55	C	1.246138	-0.293415	-0.686275
C56	C	1.246134	-0.293437	-0.620533
N57	N	1.296924	-0.306178	-0.824430
N58	N	1.296933	-0.306156	-0.886882
C59	C	1.303889	-0.250767	-0.919570
N60	N	1.310855	-0.195400	-0.887447
N61	N	1.310851	-0.195423	-0.824990
C62	C	1.303881	-0.250812	-0.792780
C63	C	1.361626	-0.208153	-1.026067
C64	C	1.361618	-0.208125	-1.091810
C65	C	1.246150	-0.293279	-1.087118
C66	C	1.246153	-0.293302	-1.021376
C67	C	1.303896	-0.250739	-0.990854
C68	C	1.303747	-0.250866	-0.192297
C69	C	1.303890	-0.250689	-0.122335
H70	H	1.408377	-0.605483	-0.433173
H71	H	0.819169	-0.157254	-0.449808
H72	H	1.199139	-0.327930	-1.111974
H73	H	0.960445	-0.191762	-0.415160
C74	C	1.424207	-1.014514	-0.444914
C75	C	1.404538	-0.999279	-0.506389
C76	C	1.462186	-1.029684	-0.549127
H77	H	1.416029	-1.058722	-0.438910
H78	H	1.484838	-1.001256	-0.438214
H79	H	1.343921	-1.012541	-0.513086
H80	H	1.412721	-0.955077	-0.512413
H81	H	1.522818	-1.016426	-0.542427
H82	H	1.454004	-1.073890	-0.543117
H83	H	1.448855	-1.019347	-0.590842
H84	H	1.199123	-0.614105	-0.278524
H85	H	1.408542	-0.887050	-0.433220
C86	C	0.635337	-0.153845	-0.453403
C87	C	0.581244	-0.191728	-0.491498
C88	C	0.534059	-0.153541	-0.529980
H89	H	0.676821	-0.128221	-0.479152
H90	H	0.598523	-0.127873	-0.427913
H91	H	0.618055	-0.217689	-0.516987
H92	H	0.539744	-0.217351	-0.465766
H93	H	0.497245	-0.127569	-0.504489
H94	H	0.575549	-0.127918	-0.555725
H95	H	0.497345	-0.179238	-0.555828
C96	C	1.424151	-0.161813	-1.130067
C97	C	1.373101	-0.123487	-1.165718
C98	C	1.430674	-0.080809	-1.200960
H99	H	1.463458	-0.184230	-1.157363
H100	H	1.458518	-0.136435	-1.102487
H101	H	1.338749	-0.148862	-1.193295
H102	H	1.333796	-0.101056	-1.138437
H103	H	1.465041	-0.055431	-1.173381
H104	H	1.469978	-0.103231	-1.228253
H105	H	1.396045	-0.054796	-1.225150
H106	H	1.199333	-1.014935	-0.278598
H107	H	1.199115	-0.328111	-0.591864
H108	H	1.408623	-0.173589	-0.719641
C109	C	1.183587	-0.887501	-0.266928
C110	C	1.133125	-0.932437	-0.229599
C111	C	1.075398	-0.902067	-0.186886
H112	H	1.144166	-0.863449	-0.289317
H113	H	1.218087	-0.860476	-0.240877
H114	H	1.098627	-0.959452	-0.255647
H115	H	1.172522	-0.956492	-0.207196
H116	H	1.109899	-0.875042	-0.160834
H117	H	1.035983	-0.878016	-0.209280
H118	H	1.041159	-0.932551	-0.161549
C119	C	1.183564	-0.339603	-0.719535
C120	C	1.195943	-0.330483	-0.784646
C121	C	1.138320	-0.373025	-0.815305
H122	H	1.122916	-0.332869	-0.706377
H123	H	1.196740	-0.381386	-0.709329
H124	H	1.182760	-0.288710	-0.794848
H125	H	1.256579	-0.337222	-0.797822
H126	H	1.151496	-0.414808	-0.805099
H127	H	1.077675	-0.366288	-0.802142
H128	H	1.146717	-0.366847	-0.859486
H129	H	1.408629	-0.173635	-0.600377
C130	C	1.424340	-0.161869	-0.993039
C131	C	1.474880	-0.124555	-1.037949
C132	C	1.532652	-0.081905	-1.007549
H133	H	1.463710	-0.184306	-0.968990
H134	H	1.389869	-0.135801	-0.966006
H135	H	1.509348	-0.150619	-1.064971
H136	H	1.435533	-0.102104	-1.062001
H137	H	1.498181	-0.055838	-0.980516
H138	H	1.572016	-0.104348	-0.983501
H139	H	1.566944	-0.056579	-1.038016
C140	C	1.424010	-0.476762	-0.444780
C141	C	1.474523	-0.517541	-0.482120
C142	C	1.532221	-0.482420	-0.524817
H143	H	1.463401	-0.449518	-0.422379
H144	H	1.389488	-0.452526	-0.470825
H145	H	1.509043	-0.541767	-0.456077
H146	H	1.435156	-0.544786	-0.504534
H147	H	1.497699	-0.458184	-0.550863
H148	H	1.571606	-0.455177	-0.502411
H149	H	1.566495	-0.510084	-0.550161
H150	H	1.199145	-0.327979	-0.992706
H151	H	1.199048	-0.494837	-0.278501
H152	H	0.789299	-0.344524	-0.261939
C153	C	0.635333	-0.321537	-0.285160
C154	C	0.658245	-0.382917	-0.299662
C155	C	0.611209	-0.425127	-0.257469
H156	H	0.572465	-0.318400	-0.288365
H157	H	0.650767	-0.311676	-0.243493
H158	H	0.642805	-0.392775	-0.341319
H159	H	0.721104	-0.386075	-0.296453
H160	H	0.626643	-0.415266	-0.215802
H161	H	0.548343	-0.421984	-0.260678
H162	H	0.626754	-0.466777	-0.267300
C163	C	0.972843	-0.348109	-0.258353
C164	C	0.911370	-0.385800	-0.220571
C165	C	0.958247	-0.424196	-0.182098
H166	H	1.009597	-0.322580	-0.232392
H167	H	1.009580	-0.374127	-0.283849
H168	H	0.874649	-0.359785	-0.195077
H169	H	0.874614	-0.411341	-0.246515
H170	H	0.994984	-0.450214	-0.207594
H171	H	0.994999	-0.398662	-0.156141
H172	H	0.916545	-0.449778	-0.156462
