data_functionalizedCrystal
_audit_creation_method	'MofGen! by Chris Wilmer'
_symmetry_space_group_name_H-M	'P1'
_symmetry_Int_Tables_number	1
_symmetry_cell_setting	triclinic
loop_
_symmetry_equiv_pos_as_xyz
  x,y,z
_cell_length_a	14.971506
_cell_length_b	19.188924
_cell_length_c	13.448316
_cell_angle_alpha	89.991325
_cell_angle_beta	89.992937
_cell_angle_gamma	83.382176
loop_
_atom_site_label
_atom_site_type_symbol
_atom_site_fract_x
_atom_site_fract_y
_atom_site_fract_z
O1	O	1.186452	0.091055	-0.082703
O2	O	1.686452	0.591055	0.417297
O3	O	0.925997	0.101937	-0.082705
O4	O	1.425997	0.601937	0.417295
O5	O	1.063744	-0.005135	-0.082692
O6	O	1.563744	0.494865	0.417308
O7	O	1.048705	0.198127	-0.082716
O8	O	1.548705	0.698127	0.417284
O9	O	1.063727	-0.005142	0.082692
O10	O	1.563727	0.494858	0.582692
O11	O	0.925980	0.101930	0.082679
O12	O	1.425980	0.601930	0.582679
O13	O	1.186435	0.091049	0.082680
O14	O	1.686435	0.591049	0.582680
Cu15	Cu	1.056206	0.096489	0.097781
Cu16	Cu	1.556206	0.596489	0.597781
Cu17	Cu	1.056226	0.096497	-0.097805
Cu18	Cu	1.556226	0.596497	0.402195
O19	O	1.048688	0.198121	0.082668
O20	O	1.548688	0.698121	0.582668
C21	C	0.892666	0.101444	-0.000013
C22	C	1.392666	0.601444	0.499987
C23	C	0.793378	0.099978	-0.000013
C24	C	1.293378	0.599978	0.499987
C25	C	0.354791	0.157287	-0.000029
C26	C	0.854791	0.657287	0.499971
C27	C	0.448084	0.158659	-0.000034
C28	C	0.948084	0.658659	0.499966
C29	C	0.505638	0.095750	-0.000022
C30	C	1.005638	0.595750	0.499978
C31	C	0.469895	0.031465	-0.000016
C32	C	0.969895	0.531465	0.499984
C33	C	0.376604	0.030094	-0.000019
C34	C	0.876604	0.530094	0.499981
C35	C	0.664343	0.034328	-0.000008
C36	C	1.164343	0.534328	0.499992
C37	C	0.757641	0.035698	-0.000004
C38	C	1.257641	0.535698	0.499996
C39	C	0.735823	0.162892	-0.000023
C40	C	1.235823	0.662892	0.499977
C41	C	0.642532	0.161521	-0.000026
C42	C	1.142532	0.661521	0.499974
C43	C	0.606795	0.097236	-0.000018
C44	C	1.106795	0.597236	0.499982
C45	C	1.063249	-0.031151	0.000001
C46	C	1.563249	0.468849	0.500001
C47	C	1.061791	-0.108661	0.000003
C48	C	1.561791	0.391339	0.500003
C49	C	1.061119	-0.145058	-0.090148
C50	C	1.561119	0.354942	0.409852
C51	C	1.059736	-0.217886	-0.090155
C52	C	1.559736	0.282114	0.409845
C53	C	1.059042	-0.254314	-0.000007
C54	C	1.559042	0.245686	0.499993
C55	C	1.059708	-0.217907	0.090156
C56	C	1.559708	0.282093	0.590156
C57	C	1.061083	-0.145081	0.090161
C58	C	1.561083	0.354919	0.590161
N59	N	1.107776	-0.373821	0.067089
N60	N	1.607776	0.126179	0.567089
N61	N	1.106473	-0.443003	0.067078
N62	N	1.606473	0.056997	0.567078
C63	C	1.054899	-0.473737	-0.000016
C64	C	1.554899	0.026263	0.499984
N65	N	1.004689	-0.432676	-0.067115
N66	N	1.504689	0.067324	0.432885
N67	N	1.005997	-0.363487	-0.067107
N68	N	1.505997	0.136513	0.432893
C69	C	1.057551	-0.333283	-0.000002
C70	C	1.557551	0.166717	0.499998
C71	C	1.052726	-0.589102	-0.090182
C72	C	1.552726	-0.089102	0.409818
C73	C	1.051337	-0.661930	-0.090186
C74	C	1.551337	-0.161930	0.409814
C75	C	1.051318	-0.661951	0.090128
C76	C	1.551318	-0.161951	0.590128
C77	C	1.052698	-0.589124	0.090130
C78	C	1.552698	-0.089124	0.590130
C79	C	1.053406	-0.552704	-0.000028
C80	C	1.553406	-0.052704	0.499972
C81	C	1.219766	0.091541	-0.000014
C82	C	1.719766	0.591541	0.499986
C83	C	1.319054	0.093007	-0.000020
C84	C	1.819054	0.593007	0.499980
C85	C	1.049183	0.224137	-0.000027
C86	C	1.549183	0.724137	0.499973
C87	C	1.050641	0.301646	-0.000036
C88	C	1.550641	0.801646	0.499964
N89	N	1.056198	0.096483	0.235345
N90	N	1.556198	0.596483	0.735345
N91	N	1.056241	0.096497	-0.235369
N92	N	1.556241	0.596497	0.264631
C93	C	1.117211	0.049091	0.287391
C94	C	1.617211	0.549091	0.787391
C95	C	1.117217	0.049090	0.391494
C96	C	1.617217	0.549090	0.891494
C97	C	1.056213	0.096486	0.443550
C98	C	1.556213	0.596486	0.943550
C99	C	0.995193	0.143880	0.391496
C100	C	1.495193	0.643880	0.891496
C101	C	0.995184	0.143877	0.287395
C102	C	1.495184	0.643877	0.787395
C103	C	0.995218	0.143885	0.608477
C104	C	1.495218	0.643885	1.108477
C105	C	0.995228	0.143889	0.712585
C106	C	1.495228	0.643889	1.212585
C107	C	1.117251	0.049098	0.712575
C108	C	1.617251	0.549098	1.212575
C109	C	1.117242	0.049095	0.608474
C110	C	1.617242	0.549095	1.108474
C111	C	1.056223	0.096490	0.556428
C112	C	1.556223	0.596490	1.056428
H113	H	0.764924	0.215236	-0.000029
H114	H	1.264924	0.715236	0.499971
C115	C	0.928069	0.195978	0.769845
C116	C	1.428069	0.695978	1.269845
H117	H	0.891702	0.224185	0.723941
H118	H	1.391702	0.724185	1.223941
H119	H	0.960073	0.225106	0.810470
H120	H	1.460073	0.725106	1.310470
H121	H	0.890968	0.170761	0.810439
H122	H	1.390968	0.670761	1.310439
C123	C	1.058944	-0.257972	0.189319
C124	C	1.558944	0.242028	0.689319
H125	H	1.059533	-0.225861	0.243013
H126	H	1.559533	0.274139	0.743013
H127	H	1.110554	-0.291662	0.193070
H128	H	1.610554	0.208338	0.693070
H129	H	1.006253	-0.281102	0.193060
H130	H	1.506253	0.218898	0.693060
H131	H	1.166934	0.010508	0.754957
H132	H	1.666934	0.510508	1.254957
C133	C	0.337293	-0.040614	-0.000006
C134	C	0.837293	0.459386	0.499994
H135	H	0.384930	-0.077884	0.000010
H136	H	0.884930	0.422116	0.500010
H137	H	0.301361	-0.043792	-0.057680
H138	H	0.801361	0.456208	0.442320
H139	H	0.301346	-0.043793	0.057673
H140	H	0.801346	0.456207	0.557673
C141	C	0.533198	-0.037735	-0.000012
C142	C	1.033198	0.462265	0.499988
H143	H	0.498550	-0.076215	-0.000018
H144	H	0.998550	0.423785	0.499982
H145	H	0.570040	-0.039849	0.057660
H146	H	1.070040	0.460151	0.557660
H147	H	0.570048	-0.039839	-0.057693
H148	H	1.070048	0.460161	0.442307
C149	C	1.061882	-0.104999	-0.189317
C150	C	1.561882	0.395001	0.310683
H151	H	1.061275	-0.137110	-0.243009
H152	H	1.561275	0.362890	0.256991
H153	H	1.114562	-0.081863	-0.193068
H154	H	1.614562	0.418137	0.306932
H155	H	1.010261	-0.071313	-0.193061
H156	H	1.510261	0.428687	0.306939
C157	C	0.928102	0.196021	0.551228
C158	C	1.428102	0.696021	1.051228
H159	H	0.891778	0.224255	0.597138
H160	H	1.391778	0.724255	1.097138
H161	H	0.890967	0.170858	0.510631
H162	H	1.390967	0.670858	1.010631
H163	H	0.960166	0.225129	0.510606
H164	H	1.460166	0.725129	1.010606
H165	H	0.804500	-0.015528	-0.000002
H166	H	1.304500	0.484472	0.499998
C167	C	1.061823	-0.105039	0.189329
C168	C	1.561823	0.394961	0.689329
H169	H	1.062737	-0.056449	0.176419
H170	H	1.562737	0.443551	0.676419
H171	H	1.113738	-0.122258	0.226377
H172	H	1.613738	0.377742	0.726377
H173	H	1.009437	-0.111697	0.226364
H174	H	1.509437	0.388303	0.726364
C175	C	0.928073	0.196010	0.230145
C176	C	1.428073	0.696010	0.730145
H177	H	0.891748	0.224243	0.276055
H178	H	1.391748	0.724243	0.776055
H179	H	0.890940	0.170843	0.189551
H180	H	1.390940	0.670843	0.689551
H181	H	0.960132	0.225120	0.189520
H182	H	1.460132	0.725120	0.689520
C183	C	1.053452	-0.549086	0.189297
C184	C	1.553452	-0.049086	0.689297
H185	H	1.052849	-0.581211	0.242987
H186	H	1.552849	-0.081211	0.742987
H187	H	1.001843	-0.515396	0.193050
H188	H	1.501843	-0.015396	0.693050
H189	H	1.106144	-0.525960	0.193043
H190	H	1.606144	-0.025960	0.693043
C191	C	1.053494	-0.549036	-0.189349
C192	C	1.553494	-0.049036	0.310651
H193	H	1.052882	-0.581145	-0.243043
H194	H	1.552882	-0.081145	0.256957
H195	H	1.106179	-0.525907	-0.193096
H196	H	1.606179	-0.025907	0.306904
H197	H	1.001878	-0.515345	-0.193093
H198	H	1.501878	-0.015345	0.306907
H199	H	0.307936	0.208515	-0.000031
H200	H	0.807936	0.708515	0.499969
H201	H	0.477176	0.211002	-0.000050
H202	H	0.977176	0.711002	0.499950
H203	H	0.595673	0.212747	-0.000029
H204	H	1.095673	0.712747	0.499971
H205	H	1.166898	0.010500	0.433869
H206	H	1.666898	0.510500	0.933869
H207	H	1.166891	0.010499	0.245014
H208	H	1.666891	0.510499	0.745014
H209	H	0.635251	-0.018020	-0.000007
H210	H	1.135251	0.481980	0.499993
H211	H	1.059183	-0.247526	-0.163569
H212	H	1.559183	0.252474	0.336431
C213	C	1.050594	-0.701967	-0.189357
C214	C	1.550594	-0.201967	0.310643
H215	H	1.051219	-0.669844	-0.243046
H216	H	1.551219	-0.169844	0.256954
H217	H	0.997909	-0.725095	-0.193112
H218	H	1.497909	-0.225095	0.306888
H219	H	1.102210	-0.735658	-0.193101
H220	H	1.602210	-0.235658	0.306899
H221	H	1.050747	-0.691610	0.163529
H222	H	1.550747	-0.191610	0.663529
C223	C	1.184344	-0.003039	0.551214
C224	C	1.684344	0.496961	1.051214
H225	H	1.220680	-0.031270	0.597119
H226	H	1.720680	0.468730	1.097119
H227	H	1.221468	0.022127	0.510585
H228	H	1.721468	0.522127	1.010585
H229	H	1.152273	-0.032149	0.510624
H230	H	1.652273	0.467851	1.010624
H231	H	0.945518	0.182468	0.433886
H232	H	1.445518	0.682468	0.933886
