data_functionalizedCrystal
_audit_creation_method	'MofGen! by Chris Wilmer'
_symmetry_space_group_name_H-M	'P1'
_symmetry_Int_Tables_number	1
_symmetry_cell_setting	triclinic
loop_
_symmetry_equiv_pos_as_xyz
  x,y,z
_cell_length_a	12.759401
_cell_length_b	21.295417
_cell_length_c	21.295420
_cell_angle_alpha	90.018953
_cell_angle_beta	90.004579
_cell_angle_gamma	90.032032
loop_
_atom_site_label
_atom_site_type_symbol
_atom_site_fract_x
_atom_site_fract_y
_atom_site_fract_z
Zn1	Zn	1.605981	-0.250672	0.355881
Zn2	Zn	2.105981	0.249328	0.855881
Zn3	Zn	1.605874	-0.355919	0.250606
Zn4	Zn	2.105874	0.144081	0.750606
Zn5	Zn	1.430330	-0.250670	0.250629
Zn6	Zn	1.930330	0.249330	0.750629
Zn7	Zn	1.430223	-0.355910	0.355841
Zn8	Zn	1.930223	0.144090	0.855841
O9	O	1.518102	-0.303293	0.303239
O10	O	2.018102	0.196707	0.803239
O11	O	1.752988	-0.264638	0.341923
O12	O	2.252988	0.235362	0.841923
O13	O	1.582588	-0.341961	0.162520
O14	O	2.082588	0.158039	0.662520
O15	O	1.453720	-0.162581	0.264617
O16	O	1.953720	0.337419	0.764617
O17	O	1.752909	-0.341962	0.264578
O18	O	2.252909	0.158038	0.764578
O19	O	1.582770	-0.162582	0.341945
O20	O	2.082770	0.337418	0.841945
O21	O	1.453616	-0.264635	0.162537
O22	O	1.953616	0.235365	0.662537
O23	O	1.283295	-0.264626	0.264579
O24	O	1.783295	0.235374	0.764579
O25	O	1.453538	-0.341947	0.443936
O26	O	1.953538	0.158053	0.943936
O27	O	1.283217	-0.341946	0.341878
O28	O	1.783217	0.158054	0.841878
O29	O	1.582667	-0.264629	0.443965
O30	O	2.082667	0.235371	0.943965
O31	O	1.582484	-0.444007	0.264540
O32	O	2.082484	0.055993	0.764540
O33	O	1.453434	-0.444001	0.341855
O34	O	1.953434	0.055999	0.841855
C35	C	1.245135	-0.303285	0.303227
C36	C	1.745135	0.196715	0.803227
C37	C	1.128358	-0.303297	0.303236
C38	C	1.628358	0.196703	0.803236
C39	C	1.073483	-0.343618	0.343422
C40	C	1.573483	0.156382	0.843422
C41	C	0.963759	-0.343621	0.343435
C42	C	1.463759	0.156379	0.843435
C43	C	0.963795	-0.262979	0.263070
C44	C	1.463795	0.237021	0.763070
C45	C	1.073517	-0.262974	0.263061
C46	C	1.573517	0.237026	0.763061
C47	C	0.813817	-0.366233	0.417644
C48	C	1.313817	0.133767	0.917644
C49	C	0.758938	-0.406564	0.457825
C50	C	1.258938	0.093436	0.957825
C51	C	0.794503	-0.468000	0.467372
C52	C	1.294503	0.032000	0.967372
C53	C	0.884945	-0.489117	0.436729
C54	C	1.384945	0.010883	0.936729
C55	C	0.939819	-0.448789	0.396544
C56	C	1.439819	0.051211	0.896544
C57	C	0.904255	-0.387345	0.387009
C58	C	1.404255	0.112655	0.887009
C59	C	1.223461	-0.240368	0.188851
C60	C	1.723461	0.259632	0.688851
C61	C	1.278336	-0.200043	0.148662
C62	C	1.778336	0.299957	0.648662
C63	C	1.242773	-0.138606	0.139108
C64	C	1.742773	0.361394	0.639108
C65	C	1.152328	-0.117491	0.169740
C66	C	1.652328	0.382509	0.669740
C67	C	1.097453	-0.157816	0.209928
C68	C	1.597453	0.342184	0.709928
C69	C	1.133023	-0.219252	0.219483
C70	C	1.633023	0.280748	0.719483
C71	C	1.517965	-0.466845	0.303204
C72	C	2.017965	0.033155	0.803204
C73	C	1.518002	-0.536813	0.303210
C74	C	2.018002	-0.036813	0.803210
C75	C	1.585258	-0.569662	0.262993
C76	C	2.085258	-0.069662	0.762993
C77	C	1.585307	-0.635404	0.263008
C78	C	2.085307	-0.135404	0.763008
C79	C	1.518081	-0.668295	0.303232
C80	C	2.018081	-0.168295	0.803232
C81	C	1.450821	-0.635438	0.343457
C82	C	1.950821	-0.135438	0.843457
C83	C	1.450781	-0.569697	0.343446
C84	C	1.950781	-0.069697	0.843446
N85	N	1.426172	-0.771563	0.308027
N86	N	1.926172	-0.271563	0.808027
N87	N	1.426213	-0.834015	0.308033
N88	N	1.926213	-0.334015	0.808033
C89	C	1.518199	-0.866370	0.303268
C90	C	2.018199	-0.366370	0.803268
N91	N	1.610145	-0.833914	0.298484
N92	N	2.110145	-0.333914	0.798484
N93	N	1.610103	-0.771457	0.298474
N94	N	2.110103	-0.271457	0.798474
C95	C	1.518118	-0.739580	0.303249
C96	C	2.018118	-0.239580	0.803249
C97	C	1.585514	-0.970504	0.263064
C98	C	2.085514	-0.470504	0.763064
C99	C	1.585565	-1.036248	0.263083
C100	C	2.085565	-0.536248	0.763083
C101	C	1.451070	-1.036281	0.343529
C102	C	1.951070	-0.536281	0.843529
C103	C	1.451028	-0.970538	0.343514
C104	C	1.951028	-0.470538	0.843514
C105	C	1.518249	-0.937654	0.303278
C106	C	2.018249	-0.437654	0.803278
C107	C	1.792135	-0.303301	0.303252
C108	C	2.292135	0.196699	0.803252
C109	C	1.908912	-0.303305	0.303258
C110	C	2.408912	0.196695	0.803258
C111	C	1.518103	-0.303287	0.467429
C112	C	2.018103	0.196713	0.967429
C113	C	1.518103	-0.303285	0.537397
C114	C	2.018103	0.196715	1.037397
C115	C	1.518269	-0.139103	0.303288
C116	C	2.018269	0.360897	0.803288
C117	C	1.518340	-0.069135	0.303309
C118	C	2.018340	0.430865	0.803309
C119	C	1.585293	-0.263033	1.036872
C120	C	2.085293	0.236967	1.536872
C121	C	1.585305	-0.263034	0.971129
C122	C	2.085305	0.236966	1.471129
C123	C	1.518077	-0.303287	0.938237
C124	C	2.018077	0.196713	1.438237
C125	C	1.450852	-0.343554	0.971093
C126	C	1.950852	0.156446	1.471093
C127	C	1.450850	-0.343557	1.036834
C128	C	1.950850	0.156443	1.536834
N129	N	1.426109	-0.308111	0.835010
N130	N	1.926109	0.191889	1.335010
N131	N	1.426114	-0.308105	0.772559
N132	N	1.926114	0.191895	1.272559
C133	C	1.518079	-0.303285	0.740162
C134	C	2.018079	0.196715	1.240162
N135	N	1.610042	-0.298458	0.772577
N136	N	2.110042	0.201542	1.272577
N137	N	1.610036	-0.298460	0.835034
N138	N	2.110036	0.201540	1.335034
C139	C	1.518071	-0.303290	0.866952
C140	C	2.018071	0.196710	1.366952
C141	C	1.585317	-0.263024	0.636029
C142	C	2.085317	0.236976	1.136029
C143	C	1.585330	-0.263030	0.570285
C144	C	2.085330	0.236970	1.070285
C145	C	1.450868	-0.343548	0.570250
C146	C	1.950868	0.156452	1.070250
C147	C	1.450864	-0.343545	0.635993
C148	C	1.950864	0.156455	1.135993
C149	C	1.518088	-0.303280	0.668878
C150	C	2.018088	0.196720	1.168878
C151	C	1.518089	-0.303307	1.139688
C152	C	2.018089	0.196693	1.639688
C153	C	1.518073	-0.303292	1.069719
C154	C	2.018073	0.196708	1.569719
H155	H	0.913888	-0.539147	0.444501
H156	H	1.413888	-0.039147	0.944501
Br157	Br	1.317236	-0.083883	0.084554
Br158	Br	1.817236	0.416117	0.584554
H159	H	1.640054	-0.230238	0.662806
H160	H	2.140054	0.269762	1.162806
H161	H	1.640043	-0.230248	0.944379
H162	H	2.140043	0.269752	1.444379
Br163	Br	1.676590	-0.679995	0.208424
Br164	Br	2.176590	-0.179995	0.708424
Br165	Br	1.676576	-0.208393	0.525704
Br166	Br	2.176576	0.291607	1.025704
H167	H	0.685300	-0.389365	0.482775
H168	H	1.185300	0.110635	0.982775
Br169	Br	0.765558	-0.282847	0.404703
Br170	Br	1.265558	0.217153	0.904703
H171	H	1.396133	-0.376325	0.543470
H172	H	1.896133	0.123675	1.043470
H173	H	1.396122	-0.376326	0.662738
H174	H	1.896122	0.123674	1.162738
H175	H	1.396087	-0.662222	0.376209
H176	H	1.896087	-0.162222	0.876209
H177	H	1.118131	-0.376451	0.376137
H178	H	1.618131	0.123549	0.876137
H179	H	1.013454	-0.465983	0.371595
H180	H	1.513454	0.034017	0.871595
Br181	Br	1.359619	-0.398189	0.926455
Br182	Br	1.859619	0.101811	1.426455
H183	H	1.252432	-0.290393	0.196632
H184	H	1.752432	0.209607	0.696632
Br185	Br	1.401072	-0.228704	0.107077
Br186	Br	1.901072	0.271296	0.607077
H187	H	0.749813	-0.500838	0.500089
H188	H	1.249813	-0.000838	1.000089
Br189	Br	0.974696	-0.129163	0.251496
Br190	Br	1.474696	0.370837	0.751496
Br191	Br	0.889361	-0.208257	0.208548
Br192	Br	1.389361	0.291743	0.708548
Br193	Br	1.676736	-0.925872	0.208458
Br194	Br	2.176736	-0.425872	0.708458
Br195	Br	1.104049	-0.034113	0.156768
Br196	Br	1.604049	0.465887	0.656768
Br197	Br	1.676860	-1.080831	0.208504
Br198	Br	2.176860	-0.580831	0.708504
H199	H	1.639995	-0.542889	0.230233
H200	H	2.139995	-0.042889	0.730233
H201	H	1.396012	-0.542950	0.376196
H202	H	1.896012	-0.042950	0.876196
H203	H	1.396109	-0.376341	1.063578
H204	H	1.896109	0.123659	1.563578
H205	H	1.396338	-1.063060	0.376284
H206	H	1.896338	-0.563060	0.876284
H207	H	1.396257	-0.943791	0.376260
H208	H	1.896257	-0.443791	0.876260
Br209	Br	1.676568	-0.208414	1.081499
Br210	Br	2.176568	0.291586	1.581499
