data_functionalizedCrystal
_audit_creation_method	'MofGen! by Chris Wilmer'
_symmetry_space_group_name_H-M	'P1'
_symmetry_Int_Tables_number	1
_symmetry_cell_setting	triclinic
loop_
_symmetry_equiv_pos_as_xyz
  x,y,z
_cell_length_a	12.759401
_cell_length_b	13.897448
_cell_length_c	12.759393
_cell_angle_alpha	89.967728
_cell_angle_beta	89.979062
_cell_angle_gamma	90.019217
loop_
_atom_site_label
_atom_site_type_symbol
_atom_site_fract_x
_atom_site_fract_y
_atom_site_fract_z
Zn1	Zn	1.606245	-0.383929	-0.594007
Zn2	Zn	2.106245	0.116071	-0.094007
Zn3	Zn	1.606126	-0.545255	-0.418322
Zn4	Zn	2.106126	-0.045255	0.081678
Zn5	Zn	1.430543	-0.383980	-0.418342
Zn6	Zn	1.930543	0.116020	0.081658
Zn7	Zn	1.430526	-0.545188	-0.593959
Zn8	Zn	1.930526	-0.045188	-0.093959
O9	O	1.518360	-0.464588	-0.506158
O10	O	2.018360	0.035412	-0.006158
O11	O	1.753250	-0.405336	-0.570714
O12	O	2.253250	0.094664	-0.070714
O13	O	1.582793	-0.523912	-0.271303
O14	O	2.082793	-0.023912	0.228697
O15	O	1.453907	-0.248992	-0.441673
O16	O	1.953907	0.251008	0.058327
O17	O	1.753163	-0.523862	-0.441638
O18	O	2.253163	-0.023862	0.058362
O19	O	1.582994	-0.248954	-0.570734
O20	O	2.082994	0.251046	-0.070734
O21	O	1.453793	-0.405423	-0.271318
O22	O	1.953793	0.094577	0.228682
O23	O	1.283520	-0.405358	-0.441627
O24	O	1.783520	0.094642	0.058373
O25	O	1.453878	-0.523747	-0.740987
O26	O	1.953878	-0.023747	-0.240987
O27	O	1.283507	-0.523797	-0.570652
O28	O	1.783507	-0.023797	-0.070652
O29	O	1.582977	-0.405271	-0.741022
O30	O	2.082977	0.094729	-0.241022
O31	O	1.582776	-0.680228	-0.441592
O32	O	2.082776	-0.180228	0.058408
O33	O	1.453763	-0.680179	-0.570632
O34	O	1.953763	-0.180179	-0.070632
C35	C	1.245393	-0.464576	-0.506137
C36	C	1.745393	0.035424	-0.006137
C37	C	1.128616	-0.464595	-0.506153
C38	C	1.628616	0.035405	-0.006153
C39	C	1.073775	-0.526359	-0.573230
C40	C	1.573775	-0.026359	-0.073230
C41	C	0.964051	-0.526363	-0.573251
C42	C	1.464051	-0.026363	-0.073251
C43	C	0.964019	-0.402834	-0.439108
C44	C	1.464019	0.097166	0.060892
C45	C	1.073741	-0.402827	-0.439093
C46	C	1.573741	0.097173	0.060907
C47	C	1.518283	-0.715203	-0.506127
C48	C	2.018283	-0.215203	-0.006127
C49	C	1.518347	-0.822416	-0.506149
C50	C	2.018347	-0.322416	-0.006149
C51	C	1.518457	-1.018711	-0.506215
C52	C	2.018457	-0.518711	-0.006215
C53	C	1.518393	-0.909479	-0.506182
C54	C	2.018393	-0.409479	-0.006182
C55	C	1.792393	-0.464601	-0.506179
C56	C	2.292393	0.035399	-0.006179
C57	C	1.909170	-0.464606	-0.506188
C58	C	2.409170	0.035394	-0.006188
C59	C	1.518439	-0.464496	-0.780191
C60	C	2.018439	0.035504	-0.280191
C61	C	1.518472	-0.464456	-0.896968
C62	C	2.018472	0.035544	-0.396968
C63	C	1.518466	-0.212995	-0.506211
C64	C	2.018466	0.287005	-0.006211
C65	C	1.518511	-0.105781	-0.506234
C66	C	2.018511	0.394219	-0.006234
C67	C	1.585699	-0.402756	-0.951850
C68	C	2.085699	0.097244	-0.451850
C69	C	1.585717	-0.402714	-1.061574
C70	C	2.085717	0.097286	-0.561574
C71	C	1.451278	-0.526082	-1.061524
C72	C	1.951278	-0.026082	-0.561524
C73	C	1.451255	-0.526118	-0.951802
C74	C	1.951255	-0.026118	-0.451802
C75	C	1.518342	-0.464611	-0.233190
C76	C	2.018342	0.035389	0.266810
C77	C	1.518512	-0.464379	-0.116414
C78	C	2.018512	0.035621	0.383586
H79	H	1.118451	-0.576652	-0.627837
H80	H	1.618451	-0.076652	-0.127837
C81	C	1.377309	-0.593998	-0.891428
C82	C	1.877309	-0.093998	-0.391428
H83	H	1.337292	-0.630727	-0.939798
H84	H	1.837292	-0.130727	-0.439798
H85	H	1.331540	-0.557114	-0.848623
H86	H	1.831540	-0.057114	-0.348623
H87	H	1.417484	-0.636043	-0.848626
H88	H	1.917484	-0.136043	-0.348626
C89	C	1.134070	-0.334883	-0.365303
C90	C	1.634070	0.165117	0.134697
H91	H	1.085675	-0.298107	-0.325356
H92	H	1.585675	0.201893	0.174644
H93	H	1.176905	-0.292899	-0.405569
H94	H	1.676905	0.207101	0.094431
H95	H	1.176838	-0.371735	-0.319447
H96	H	1.676838	0.128265	0.180553
H97	H	1.640429	-0.352544	-0.907207
H98	H	2.140429	0.147456	-0.407207
C99	C	1.659677	-0.334856	-1.121945
C100	C	2.159677	0.165144	-0.621945
H101	H	1.650061	-0.343659	-1.195145
H102	H	2.150061	0.156341	-0.695145
H103	H	1.730254	-0.348993	-1.103969
H104	H	2.230254	0.151007	-0.603969
H105	H	1.644330	-0.270045	-1.103976
H106	H	2.144330	0.229955	-0.603976
C107	C	0.903730	-0.594302	-0.647039
C108	C	1.403730	-0.094302	-0.147039
H109	H	0.952130	-0.631088	-0.686968
H110	H	1.452130	-0.131088	-0.186968
H111	H	0.860965	-0.557456	-0.692894
H112	H	1.360965	-0.057456	-0.192894
H113	H	0.860892	-0.636293	-0.606772
H114	H	1.360892	-0.136293	-0.106772
C115	C	0.903653	-0.334906	-0.365337
C116	C	1.403653	0.165094	0.134663
H117	H	0.830451	-0.343764	-0.374943
H118	H	1.330451	0.156236	0.125057
H119	H	0.921656	-0.270110	-0.380829
H120	H	1.421656	0.229890	0.119171
H121	H	0.921599	-0.348954	-0.294715
H122	H	1.421599	0.151046	0.205285
H123	H	1.396554	-0.576287	-1.106184
H124	H	1.896554	-0.076287	-0.606184
