data_functionalizedCrystal
_audit_creation_method	'MofGen! by Chris Wilmer'
_symmetry_space_group_name_H-M	'P1'
_symmetry_Int_Tables_number	1
_symmetry_cell_setting	triclinic
loop_
_symmetry_equiv_pos_as_xyz
  x,y,z
_cell_length_a	16.625546
_cell_length_b	19.077236
_cell_length_c	19.076919
_cell_angle_alpha	89.887323
_cell_angle_beta	92.269917
_cell_angle_gamma	92.315185
loop_
_atom_site_label
_atom_site_type_symbol
_atom_site_fract_x
_atom_site_fract_y
_atom_site_fract_z
Zn1	Zn	-0.292690	1.058301	-0.440534
Zn2	Zn	0.040643	1.391634	-0.107201
Zn3	Zn	0.373976	1.724967	0.226132
Zn4	Zn	-0.421906	1.062945	-0.323024
Zn5	Zn	-0.088573	1.396278	0.010309
Zn6	Zn	0.244761	1.729611	0.343642
Zn7	Zn	-0.292268	0.945516	-0.318314
Zn8	Zn	0.041066	1.278849	0.015019
Zn9	Zn	0.374399	1.612183	0.348352
Zn10	Zn	-0.432663	0.940764	-0.435762
Zn11	Zn	-0.099330	1.274098	-0.102429
Zn12	Zn	0.234004	1.607431	0.230904
O13	O	-0.359882	1.001881	-0.379409
O14	O	-0.026548	1.335215	-0.046076
O15	O	0.306785	1.668548	0.287258
O16	O	-0.305506	1.157250	-0.428915
O17	O	0.027827	1.490583	-0.095581
O18	O	0.361161	1.823917	0.237752
O19	O	-0.400030	1.051300	-0.224069
O20	O	-0.066697	1.384633	0.109264
O21	O	0.266636	1.717966	0.442598
O22	O	-0.179490	0.960522	-0.334553
O23	O	0.153843	1.293856	-0.001220
O24	O	0.487176	1.627189	0.332114
O25	O	-0.400440	1.160662	-0.342581
O26	O	-0.067107	1.493995	-0.009247
O27	O	0.266226	1.827329	0.324086
O28	O	-0.179801	1.043385	-0.424348
O29	O	0.153532	1.376718	-0.091014
O30	O	0.486866	1.710051	0.242319
O31	O	-0.304786	0.965025	-0.220609
O32	O	0.028548	1.298359	0.112725
O33	O	0.361881	1.631692	0.446058
O34	O	-0.315216	0.846552	-0.329926
O35	O	0.018117	1.179885	0.003407
O36	O	0.351450	1.513219	0.336741
O37	O	-0.418774	0.952423	-0.534726
O38	O	-0.085441	1.285757	-0.201393
O39	O	0.247893	1.619090	0.131941
O40	O	-0.418364	0.843061	-0.416214
O41	O	-0.085031	1.176394	-0.082881
O42	O	0.248302	1.509728	0.250452
O43	O	-0.315937	1.038777	-0.538232
O44	O	0.017397	1.372110	-0.204899
O45	O	0.350730	1.705444	0.128435
O46	O	-0.536166	1.046692	-0.337953
O47	O	-0.202833	1.380025	-0.004620
O48	O	0.130500	1.713359	0.328713
O49	O	-0.544069	0.956927	-0.420781
O50	O	-0.210736	1.290260	-0.087448
O51	O	0.122597	1.623593	0.245885
C52	C	-0.367912	0.819310	-0.372042
C53	C	-0.034579	1.152643	-0.038708
C54	C	0.298754	1.485976	0.294625
C55	C	-0.371368	0.741204	-0.368907
C56	C	-0.038035	1.074537	-0.035573
C57	C	0.295299	1.407871	0.297760
C58	C	-0.323649	0.702731	-0.412452
C59	C	0.009684	1.036065	-0.079118
C60	C	0.343017	1.369398	0.254215
C61	C	-0.326892	0.629343	-0.409500
C62	C	0.006441	0.962676	-0.076167
C63	C	0.339775	1.296010	0.257167
C64	C	-0.377858	0.594429	-0.363006
C65	C	-0.044525	0.927762	-0.029673
C66	C	0.288808	1.261095	0.303661
C67	C	-0.425579	0.632907	-0.319456
C68	C	-0.092245	0.966240	0.013877
C69	C	0.241088	1.299573	0.347211
C70	C	-0.422331	0.706294	-0.322405
C71	C	-0.088998	1.039627	0.010929
C72	C	0.244336	1.372961	0.344262
C73	C	-0.392858	0.375136	-0.349356
C74	C	-0.059525	0.708469	-0.016023
C75	C	0.273809	1.041803	0.317311
C76	C	-0.396104	0.301744	-0.346412
C77	C	-0.062771	0.635077	-0.013079
C78	C	0.270563	0.968410	0.320255
C79	C	-0.297416	0.298185	-0.436456
C80	C	0.035918	0.631518	-0.103122
C81	C	0.369251	0.964852	0.230211
C82	C	-0.294176	0.371573	-0.439403
C83	C	0.039157	0.704907	-0.106070
C84	C	0.372490	1.038240	0.227264
C85	C	-0.341894	0.410045	-0.395851
C86	C	-0.008560	0.743378	-0.062517
C87	C	0.324773	1.076712	0.270816
N88	N	-0.381176	0.519414	-0.359989
N89	N	-0.047843	0.852747	-0.026656
N90	N	0.285491	1.186081	0.306678
N91	N	-0.338571	0.485059	-0.398864
N92	N	-0.005238	0.818392	-0.065531
N93	N	0.328096	1.151725	0.267802
C94	C	-0.569374	1.001816	-0.379377
C95	C	-0.236041	1.335149	-0.046043
C96	C	0.097293	1.668483	0.287290
C97	C	-0.658994	1.001851	-0.379389
C98	C	-0.325661	1.335185	-0.046056
C99	C	0.007672	1.668518	0.287277
C100	C	-0.987168	1.001971	-0.379467
C101	C	-0.653835	1.335304	-0.046134
C102	C	-0.320501	1.668638	0.287199
C103	C	-0.895860	1.001935	-0.379447
C104	C	-0.562527	1.335269	-0.046114
C105	C	-0.229193	1.668602	0.287219
C106	C	-0.823084	1.001911	-0.379428
C107	C	-0.489751	1.335244	-0.046095
C108	C	-0.156417	1.668577	0.287239
C109	C	-0.731770	1.001876	-0.379409
C110	C	-0.398437	1.335210	-0.046075
C111	C	-0.065104	1.668543	0.287258
C112	C	-0.149571	1.001965	-0.379457
C113	C	0.183762	1.335299	-0.046124
C114	C	0.517095	1.668632	0.287209
C115	C	-0.059949	1.002001	-0.379478
C116	C	0.273384	1.335335	-0.046145
C117	C	0.606717	1.668668	0.287189
C118	C	-0.368603	0.994552	-0.562688
C119	C	-0.035269	1.327885	-0.229355
C120	C	0.298064	1.661219	0.103979
C121	C	-0.372319	0.991429	-0.640791
C122	C	-0.038985	1.324762	-0.307457
C123	C	0.294348	1.658095	0.025876
C124	C	-0.351821	1.185166	-0.386805
C125	C	-0.018487	1.518499	-0.053472
C126	C	0.314846	1.851833	0.279861
C127	C	-0.348385	1.263271	-0.389957
C128	C	-0.015052	1.596604	-0.056624
C129	C	0.318281	1.929937	0.276709
C130	C	-0.320525	1.034919	-0.679310
C131	C	0.012808	1.368252	-0.345976
C132	C	0.346141	1.701585	-0.012643
C133	C	-0.324014	1.031975	-0.752695
C134	C	0.009319	1.365309	-0.419362
C135	C	0.342652	1.698642	-0.086028
C136	C	-0.379302	0.985545	-0.787560
C137	C	-0.045968	1.318879	-0.454227
C138	C	0.287365	1.652212	-0.120893
C139	C	-0.431097	0.942051	-0.749036
C140	C	-0.097764	1.275384	-0.415702
C141	C	0.235569	1.608717	-0.082369
C142	C	-0.427604	0.944991	-0.675651
C143	C	-0.094270	1.278324	-0.342318
C144	C	0.239063	1.611657	-0.008985
C145	C	-0.395488	0.971928	-1.006839
C146	C	-0.062154	1.305261	-0.673506
C147	C	0.271179	1.638594	-0.340172
C148	C	-0.398979	0.968992	-1.080229
C149	C	-0.065646	1.302325	-0.746895
C150	C	0.267688	1.635659	-0.413562
C151	C	-0.291895	1.058916	-1.083883
C152	C	0.041439	1.392250	-0.750550
C153	C	0.374772	1.725583	-0.417216
C154	C	-0.288409	1.061855	-1.010497
C155	C	0.044924	1.395189	-0.677164
C156	C	0.378257	1.728522	-0.343831
C157	C	-0.340202	1.018358	-0.971979
C158	C	-0.006869	1.351692	-0.638646
C159	C	0.326465	1.685025	-0.305313
N160	N	-0.382871	0.982537	-0.862572
N161	N	-0.049538	1.315871	-0.529238
N162	N	0.283796	1.649204	-0.195905
N163	N	-0.336628	1.021363	-0.896969
N164	N	-0.003295	1.354696	-0.563635
N165	N	0.330039	1.688030	-0.230302
C166	C	-0.351135	1.009223	-0.196844
C167	C	-0.017802	1.342556	0.136489
C168	C	0.315532	1.675889	0.469822
C169	C	-0.347186	1.012482	-0.118748
C170	C	-0.013852	1.345815	0.214586
C171	C	0.319481	1.679149	0.547919
H172	H	-0.461188	0.737618	-0.286945
H173	H	-0.127855	1.070951	0.046388
H174	H	0.205479	1.404284	0.379722
H175	H	-0.288036	0.598022	-0.444960
H176	H	0.045297	0.931355	-0.111627
H177	H	0.378630	1.264688	0.221706
Cl178	Cl	-0.460600	0.917245	-0.958426
Cl179	Cl	-0.127267	1.250578	-0.625092
Cl180	Cl	0.206067	1.583912	-0.291759
H181	H	-0.249727	1.094328	-1.115252
H182	H	0.083606	1.427662	-0.781919
H183	H	0.416940	1.760995	-0.448586
Cl184	Cl	-0.500599	0.883678	-0.792866
Cl185	Cl	-0.167266	1.217012	-0.459533
Cl186	Cl	0.166068	1.550345	-0.126199
Cl187	Cl	-0.492716	0.890313	-0.627227
Cl188	Cl	-0.159383	1.223646	-0.293894
Cl189	Cl	0.173951	1.556980	0.039440
H190	H	-0.282149	0.731153	-0.450314
H191	H	0.051184	1.064486	-0.116981
H192	H	0.384517	1.397820	0.216353
Cl193	Cl	-0.230107	0.415460	-0.497860
Cl194	Cl	0.103226	0.748793	-0.164526
Cl195	Cl	0.436559	1.082127	0.168807
H196	H	-0.437611	0.273319	-0.308551
H197	H	-0.104277	0.606652	0.024783
H198	H	0.229056	0.939985	0.358116
Cl199	Cl	-0.237430	0.249817	-0.491202
Cl200	Cl	0.095903	0.583150	-0.157869
Cl201	Cl	0.429236	0.916483	0.175465
Cl202	Cl	-0.218903	1.120228	-0.966673
Cl203	Cl	0.114431	1.453561	-0.633339
Cl204	Cl	0.447764	1.786894	-0.300006
Cl205	Cl	-0.489646	0.589015	-0.261002
Cl206	Cl	-0.156313	0.922348	0.072331
Cl207	Cl	0.177020	1.255681	0.405665
H208	H	-0.431714	0.406451	-0.313893
H209	H	-0.098380	0.739784	0.019440
H210	H	0.234953	1.073118	0.352773
H211	H	-0.275507	1.072729	-0.650928
H212	H	0.057827	1.406063	-0.317595
H213	H	0.391160	1.739396	0.015738
Cl214	Cl	-0.258933	1.086682	-0.801118
Cl215	Cl	0.074400	1.420016	-0.467784
Cl216	Cl	0.407733	1.753349	-0.134451
H217	H	-0.444003	0.931181	-1.108613
H218	H	-0.110669	1.264514	-0.775280
H219	H	0.222664	1.597848	-0.441947
