data_functionalizedCrystal
_audit_creation_method	'MofGen! by Chris Wilmer'
_symmetry_space_group_name_H-M	'P1'
_symmetry_Int_Tables_number	1
_symmetry_cell_setting	triclinic
loop_
_symmetry_equiv_pos_as_xyz
  x,y,z
_cell_length_a	19.288864
_cell_length_b	16.776229
_cell_length_c	19.288865
_cell_angle_alpha	89.994091
_cell_angle_beta	96.863755
_cell_angle_gamma	90.020968
loop_
_atom_site_label
_atom_site_type_symbol
_atom_site_fract_x
_atom_site_fract_y
_atom_site_fract_z
O1	O	0.921351	0.066553	-0.086643
O2	O	0.719091	0.066500	-0.098332
O3	O	0.826066	0.066512	0.008643
O4	O	0.814377	0.066541	-0.193618
O5	O	0.826050	-0.066065	0.008637
O6	O	0.719075	-0.066077	-0.098338
O7	O	0.921336	-0.066024	-0.086649
Zn8	Zn	0.820203	-0.087100	-0.092494
Zn9	Zn	0.820224	0.087576	-0.092487
O10	O	0.814361	-0.066036	-0.193624
C11	C	0.693207	0.000204	-0.097959
C12	C	0.616103	0.000183	-0.096830
C13	C	0.571407	0.000205	-0.159598
C14	C	0.498960	0.000213	-0.158537
C15	C	0.471212	0.000217	-0.094705
C16	C	0.515918	0.000191	-0.031929
C17	C	0.588364	0.000174	-0.032991
C18	C	0.362956	0.046684	-0.044524
C19	C	0.290511	0.046705	-0.043464
C20	C	0.247767	0.000264	-0.091425
C21	C	0.277474	-0.046188	-0.140458
C22	C	0.349919	-0.046204	-0.141521
C23	C	0.392658	0.000234	-0.093546
C24	C	0.124514	0.000294	-0.153047
C25	C	0.052066	0.000298	-0.151984
C26	C	0.069026	0.000283	-0.025374
C27	C	0.141473	0.000271	-0.026439
C28	C	0.169212	0.000281	-0.090278
N29	N	0.820194	-0.206311	-0.092499
C30	C	0.867612	-0.751470	-0.045125
C31	C	0.867609	-0.668018	-0.045130
C32	C	0.820227	-0.626310	-0.092484
C33	C	0.772851	-0.668059	-0.139840
C34	C	0.772858	-0.751510	-0.139838
C35	C	0.772821	-0.331512	-0.139850
C36	C	0.772816	-0.248055	-0.139847
C37	C	0.867572	-0.248020	-0.045143
C38	C	0.867579	-0.331471	-0.045140
C39	C	0.820205	-0.373212	-0.092499
C40	C	0.820211	-0.463701	-0.092494
C41	C	0.820218	-0.535823	-0.092486
C42	C	0.947220	0.000273	-0.087022
C43	C	1.024324	0.000300	-0.088151
C44	C	0.825682	0.000221	0.034516
C45	C	0.824553	0.000214	0.111620
N46	N	0.820238	0.206787	-0.092476
C47	C	0.814745	0.000256	-0.219497
C48	C	0.815874	0.000269	-0.296601
C49	C	0.887321	0.000227	0.156316
C50	C	0.886260	0.000239	0.228763
C51	C	0.822428	0.000223	0.256511
C52	C	0.759652	0.000214	0.211805
C53	C	0.760714	0.000210	0.139359
C54	C	0.772243	-0.046229	0.364796
C55	C	0.771183	-0.046230	0.437241
C56	C	0.819148	0.000240	0.479956
C57	C	0.868185	0.046699	0.450220
C58	C	0.869247	0.046695	0.377775
C59	C	0.821269	0.000228	0.335065
C60	C	0.880770	0.000267	0.603209
C61	C	0.879707	0.000284	0.675657
C62	C	0.753097	0.000252	0.658697
C63	C	0.754162	0.000242	0.586250
C64	C	0.818001	0.000246	0.558511
H65	H	0.015674	0.000311	-0.203099
H66	H	0.374104	-0.084030	-0.181443
H67	H	0.939303	0.000232	0.133736
Cl68	Cl	0.416685	0.105072	0.015777
H69	H	0.906185	-0.634031	-0.006574
Cl70	Cl	0.223746	-0.104575	-0.200757
H71	H	0.734231	-0.214098	-0.178411
H72	H	0.906193	-0.785423	-0.006562
Cl73	Cl	0.928488	0.105124	0.503912
H74	H	0.624756	0.000157	0.018124
Cl75	Cl	0.961023	0.000267	0.568333
H76	H	0.733182	-0.084075	0.330022
H77	H	0.930822	0.000299	0.712049
H78	H	0.707679	0.000203	0.234401
Cl79	Cl	0.927131	-0.195540	0.014393
H80	H	0.734247	-0.365491	-0.178410
Cl81	Cl	0.034151	0.000278	0.054873
Cl82	Cl	0.672850	0.000236	0.693572
Cl83	Cl	0.965174	0.000256	0.284963
H84	H	0.734274	-0.634096	-0.178399
Cl85	Cl	0.675249	0.000223	0.530057
H86	H	0.493322	0.000204	0.020044
H87	H	0.731251	-0.084056	0.461446
Cl88	Cl	0.606275	0.000213	-0.239852
Cl89	Cl	0.930886	0.105104	0.340394
H90	H	0.177866	0.000258	0.024674
Cl91	Cl	0.159390	0.000298	-0.233300
Cl92	Cl	0.681799	0.000194	0.083166
H93	H	0.266329	0.084533	-0.003541
H94	H	0.906159	-0.365427	-0.006579
H95	H	0.462561	0.000229	-0.209652
H96	H	0.734282	-0.785496	-0.178397
