data_functionalizedCrystal
_audit_creation_method	'MofGen! by Chris Wilmer'
_symmetry_space_group_name_H-M	'P1'
_symmetry_Int_Tables_number	1
_symmetry_cell_setting	triclinic
loop_
_symmetry_equiv_pos_as_xyz
  x,y,z
_cell_length_a	8.597187
_cell_length_b	11.792254
_cell_length_c	7.681481
_cell_angle_alpha	95.781964
_cell_angle_beta	91.833072
_cell_angle_gamma	84.768036
loop_
_atom_site_label
_atom_site_type_symbol
_atom_site_fract_x
_atom_site_fract_y
_atom_site_fract_z
O1	O	2.038038	0.202356	0.455624
O2	O	2.538038	0.702356	0.955624
O3	O	1.588082	0.210417	0.387364
O4	O	2.088082	0.710417	0.887364
O5	O	1.823970	0.041409	0.423137
O6	O	2.323970	0.541409	0.923137
O7	O	1.802149	0.371363	0.419851
O8	O	2.302149	0.871363	0.919851
O9	O	1.853003	0.020558	0.134682
O10	O	2.353003	0.520558	0.634682
O11	O	1.617115	0.189566	0.098909
O12	O	2.117115	0.689566	0.598909
O13	O	2.067071	0.181505	0.167169
O14	O	2.567071	0.681505	0.667169
Zn15	Zn	1.846703	0.182225	0.087241
Zn16	Zn	2.346703	0.682225	0.587241
Zn17	Zn	1.808450	0.209697	0.467292
Zn18	Zn	2.308450	0.709697	0.967292
O19	O	1.831183	0.350513	0.131397
O20	O	2.331183	0.850513	0.631397
C21	C	1.544994	0.197964	0.234398
C22	C	2.044994	0.697964	0.734398
C23	C	1.373351	0.191908	0.208359
C24	C	1.873351	0.691908	0.708359
C25	C	1.837112	-0.011331	0.278701
C26	C	2.337112	0.488669	0.778701
C27	C	1.832998	-0.137417	0.278079
C28	C	2.332998	0.362583	0.778079
C29	C	1.829655	-0.239813	0.277578
C30	C	2.329655	0.260187	0.777578
C31	C	1.825474	-0.368272	0.276960
C32	C	2.325474	0.131728	0.776960
C33	C	2.110158	0.193958	0.320139
C34	C	2.610158	0.693958	0.820139
C35	C	2.281800	0.200014	0.346190
C36	C	2.781800	0.700014	0.846190
C37	C	1.818040	0.403253	0.275836
C38	C	2.318040	0.903253	0.775836
C39	C	1.822153	0.529340	0.276470
C40	C	2.322153	1.029340	0.776470
N41	N	1.872821	0.163476	-0.172133
N42	N	2.372821	0.663476	0.327867
N43	N	1.782344	0.228437	0.726668
N44	N	2.282344	0.728437	1.226668
H45	H	1.334740	0.211588	0.484112
H46	H	1.834740	0.711588	0.984112
H47	H	1.320416	0.180349	0.070445
H48	H	1.820416	0.680349	0.570445
H49	H	1.689986	0.294742	-0.212141
H50	H	2.189986	0.794742	0.287859
C51	C	1.997601	0.073900	-0.254793
C52	C	2.497601	0.573900	0.245207
H53	H	1.994760	0.075939	-0.378185
H54	H	2.494760	0.575939	0.121815
H55	H	2.097950	0.090583	-0.209419
H56	H	2.597950	0.590583	0.290581
H57	H	1.977049	-0.000093	-0.227793
H58	H	2.477049	0.499907	0.272207
