data_functionalizedCrystal
_audit_creation_method	'MofGen! by Chris Wilmer'
_symmetry_space_group_name_H-M	'P1'
_symmetry_Int_Tables_number	1
_symmetry_cell_setting	triclinic
loop_
_symmetry_equiv_pos_as_xyz
  x,y,z
_cell_length_a	12.837932
_cell_length_b	9.065218
_cell_length_c	11.295663
_cell_angle_alpha	85.839973
_cell_angle_beta	85.464937
_cell_angle_gamma	90.077206
loop_
_atom_site_label
_atom_site_type_symbol
_atom_site_fract_x
_atom_site_fract_y
_atom_site_fract_z
O1	O	1.372172	-0.392990	0.098898
O2	O	1.070186	-0.374020	0.098926
O3	O	1.227421	-0.169621	0.098909
O4	O	1.214937	-0.597389	0.098915
O5	O	1.241202	-0.151697	-0.099137
O6	O	1.083967	-0.356095	-0.099120
O7	O	1.385953	-0.375066	-0.099148
Cu8	Cu	1.236218	-0.363944	-0.117218
Cu9	Cu	1.219921	-0.385142	0.116995
O10	O	1.228718	-0.579464	-0.099131
C11	C	1.038395	-0.358649	-0.000093
C12	C	0.923138	-0.339535	-0.000082
C13	C	1.417743	-0.390437	-0.000126
C14	C	1.533000	-0.409551	-0.000129
C15	C	1.233112	-0.105527	-0.000112
C16	C	1.229524	0.058752	-0.000106
C17	C	1.684342	-0.569313	-0.000110
C18	C	1.576048	-0.551362	-0.000122
C19	C	1.598255	-0.285682	-0.000128
C20	C	1.706549	-0.303633	-0.000115
C21	C	1.749588	-0.445454	-0.000105
C22	C	1.857883	-0.463404	-0.000084
C23	C	1.880089	-0.197725	-0.000098
C24	C	1.771795	-0.179774	-0.000110
N25	N	1.247689	-0.349035	-0.281950
C26	C	1.223027	-0.643559	-0.000107
C27	C	1.226614	-0.807838	-0.000106
C28	C	1.330365	-0.241653	-0.468945
C29	C	1.321674	-0.252929	-0.344284
C30	C	1.182392	-0.433874	-0.344286
C31	C	1.191082	-0.422599	-0.468947
C32	C	1.265070	-0.326483	-0.531272
C33	C	1.273755	-0.315201	-0.655936
C34	C	1.134479	-0.496153	-0.655936
C35	C	1.125788	-0.507429	-0.531275
N36	N	1.208458	-0.400040	0.281728
H37	H	1.892923	-0.578881	-0.000077
H38	H	1.081309	-0.565223	-0.706697
F39	F	1.047051	-0.609721	-0.464933
F40	F	1.409098	-0.139347	-0.535277
H41	H	1.522927	-0.652221	-0.000129
H42	H	1.122159	-0.512139	-0.293525
H43	H	1.374844	-0.183854	-0.293541
F44	F	1.730148	-0.720247	-0.000084
H45	H	1.563200	-0.170210	-0.000235
H46	H	1.933224	-0.096870	-0.000086
F47	F	1.725978	-0.028846	-0.000126
F48	F	1.352496	-0.212904	-0.722264
