data_functionalizedCrystal
_audit_creation_method	'MofGen! by Chris Wilmer'
_symmetry_space_group_name_H-M	'P1'
_symmetry_Int_Tables_number	1
_symmetry_cell_setting	triclinic
loop_
_symmetry_equiv_pos_as_xyz
  x,y,z
_cell_length_a	25.639239
_cell_length_b	17.639617
_cell_length_c	17.640968
_cell_angle_alpha	70.333968
_cell_angle_beta	78.768889
_cell_angle_gamma	101.222911
loop_
_atom_site_label
_atom_site_type_symbol
_atom_site_fract_x
_atom_site_fract_y
_atom_site_fract_z
Zn1	Zn	0.069163	1.354419	-0.721260
Zn2	Zn	0.569163	1.854419	-0.221260
Zn3	Zn	-0.040454	1.326398	-0.583392
Zn4	Zn	0.459546	1.826398	-0.083392
Zn5	Zn	0.024849	1.188687	-0.555521
Zn6	Zn	0.524849	1.688687	-0.055521
Zn7	Zn	-0.040403	1.216487	-0.693275
Zn8	Zn	0.459597	1.716487	-0.193275
O9	O	0.003289	1.271498	-0.638362
O10	O	0.503289	1.771498	-0.138362
O11	O	0.073146	1.466059	-0.726347
O12	O	0.573146	1.966059	-0.226347
O13	O	-0.050359	1.284769	-0.464346
O14	O	0.449641	1.784769	0.035654
O15	O	0.103912	1.210765	-0.577554
O16	O	0.603912	1.710765	-0.077554
O17	O	-0.007389	1.445472	-0.625056
O18	O	0.492611	1.945472	-0.125056
O19	O	0.136469	1.332527	-0.699322
O20	O	0.636469	1.832527	-0.199322
O21	O	-0.002380	1.183593	-0.443869
O22	O	0.497620	1.683593	0.056131
O23	O	-0.002331	1.077018	-0.550418
O24	O	0.497669	1.577018	-0.050418
O25	O	-0.007302	1.258146	-0.812336
O26	O	0.492698	1.758146	-0.312336
O27	O	-0.050272	1.097442	-0.651625
O28	O	0.449728	1.597442	-0.151625
O29	O	0.073196	1.359484	-0.832896
O30	O	0.573196	1.859484	-0.332896
O31	O	-0.113632	1.311725	-0.597921
O32	O	0.386368	1.811725	-0.097921
O33	O	-0.113594	1.230974	-0.678651
O34	O	0.386406	1.730974	-0.178651
C35	C	-0.031105	1.057319	-0.594961
C36	C	0.468895	1.557319	-0.094961
C37	C	-0.045828	0.965696	-0.576413
C38	C	0.454172	1.465696	-0.076413
C39	C	0.115182	0.718001	-0.779469
C40	C	0.615182	1.218001	-0.279469
C41	C	0.101332	0.631904	-0.762024
C42	C	0.601332	1.131904	-0.262024
C43	C	0.017556	0.610458	-0.656398
C44	C	0.517556	1.110458	-0.156398
C45	C	0.031398	0.696555	-0.673837
C46	C	0.531398	1.196555	-0.173837
C47	C	0.080212	0.750320	-0.735373
C48	C	0.580212	1.250320	-0.235373
C49	C	-0.003571	0.728875	-0.629741
C50	C	0.496429	1.228875	-0.129741
C51	C	0.010271	0.814964	-0.647176
C52	C	0.510271	1.314964	-0.147176
C53	C	0.059083	0.868734	-0.708707
C54	C	0.559083	1.368734	-0.208707
C55	C	0.094055	0.836410	-0.752808
C56	C	0.594055	1.336410	-0.252808
C57	C	-0.052383	0.675107	-0.568202
C58	C	0.447617	1.175107	-0.068202
C59	C	-0.087353	0.707426	-0.524105
C60	C	0.412647	1.207426	-0.024105
C61	C	-0.073513	0.793518	-0.541544
C62	C	0.426487	1.293518	-0.041544
C63	C	-0.024700	0.847288	-0.603075
C64	C	0.475300	1.347288	-0.103075
C65	C	-0.108484	0.825842	-0.497443
C66	C	0.391516	1.325842	0.002557
C67	C	-0.094641	0.911931	-0.514878
C68	C	0.405359	1.411931	-0.014878
C69	C	-0.010858	0.933377	-0.620510
C70	C	0.489142	1.433377	-0.120510
C71	C	-0.132582	1.271352	-0.638296
C72	C	0.367418	1.771352	-0.138296
C73	C	-0.190692	1.271370	-0.638311
C74	C	0.309308	1.771370	-0.138311
C75	C	-0.551001	1.313700	-0.596443
C76	C	-0.051001	1.813700	-0.096443
C77	C	-0.605599	1.313735	-0.596461
C78	C	-0.105599	1.813735	-0.096461
O79	O	-0.633820	1.349573	-0.560793
O80	O	-0.133820	1.849573	-0.060793
N81	N	-0.632918	1.271654	-0.638446
N82	N	-0.132918	1.771654	-0.138446
C83	C	-0.605636	1.229543	-0.680423
C84	C	-0.105636	1.729543	-0.180423
O85	O	-0.633886	1.193754	-0.716137
O86	O	-0.133886	1.693754	-0.216137
C87	C	-0.551038	1.229514	-0.680410
C88	C	-0.051038	1.729514	-0.180410
C89	C	-0.523723	1.271591	-0.638415
C90	C	-0.023723	1.771591	-0.138415
C91	C	-0.523686	1.355774	-0.554452
C92	C	-0.023686	1.855774	-0.054452
C93	C	-0.469093	1.355739	-0.554434
C94	C	0.030907	1.855739	-0.054434
C95	C	-0.441815	1.313629	-0.596406
C96	C	0.058185	1.813629	-0.096406
C97	C	-0.469130	1.271555	-0.638397
C98	C	0.030870	1.771555	-0.138397
C99	C	-0.523755	1.187409	-0.722392
C100	C	-0.023755	1.687409	-0.222392
C101	C	-0.469153	1.187385	-0.722376
C102	C	0.030847	1.687385	-0.222376
C103	C	-0.441839	1.229461	-0.680381
C104	C	0.058161	1.729461	-0.180381
C105	C	-0.387258	1.229410	-0.680350
C106	C	0.112742	1.729410	-0.180350
N107	N	-0.359939	1.271491	-0.638365
N108	N	0.140061	1.771491	-0.138365
C109	C	-0.387217	1.313601	-0.596393
C110	C	0.112783	1.813601	-0.096393
C111	C	-0.720294	1.229608	-0.680448
C112	C	-0.220294	1.729608	-0.180448
C113	C	-0.774892	1.229631	-0.680457
C114	C	-0.274892	1.729631	-0.180457
C115	C	-0.774851	1.313824	-0.596495
C116	C	-0.274851	1.813824	-0.096495
C117	C	-0.720254	1.313795	-0.596482
C118	C	-0.220254	1.813795	-0.096482
C119	C	-0.692975	1.271689	-0.638463
C120	C	-0.192975	1.771689	-0.138463
C121	C	-0.272567	1.313522	-0.596356
C122	C	0.227433	1.813522	-0.096356
C123	C	-0.217970	1.313480	-0.596338
C124	C	0.282030	1.813480	-0.096338
C125	C	-0.218015	1.229290	-0.680303
C126	C	0.281985	1.729290	-0.180303
C127	C	-0.272608	1.229329	-0.680318
C128	C	0.227392	1.729329	-0.180318
C129	C	-0.299883	1.271451	-0.638343
C130	C	0.200117	1.771451	-0.138343
O131	O	-0.359002	1.193592	-0.716002
O132	O	0.140998	1.693592	-0.216002
O133	O	-0.358957	1.349393	-0.560694
O134	O	0.141043	1.849393	-0.060694
C135	C	0.139697	1.271671	-0.638450
C136	C	0.639697	1.771671	-0.138450
C137	C	0.197826	1.271744	-0.638488
C138	C	0.697826	1.771744	-0.138488
C139	C	0.037896	1.315041	-0.853361
C140	C	0.537896	1.815041	-0.353361
C141	C	0.052643	1.333597	-0.944980
C142	C	0.552643	1.833597	-0.444980
C143	C	0.037816	1.486513	-0.681932
C144	C	0.537816	1.986513	-0.181932
C145	C	0.052529	1.578140	-0.700500
C146	C	0.552529	2.078140	-0.200500
C147	C	-0.108410	1.130849	-1.192789
C148	C	0.391590	1.630849	-0.692789
C149	C	-0.094543	1.148302	-1.278883
C150	C	0.405457	1.648302	-0.778883
C151	C	-0.010728	1.253817	-1.300280
C152	C	0.489272	1.753817	-0.800280
C153	C	-0.024586	1.236369	-1.214186
C154	C	0.475414	1.736369	-0.714186
C155	C	-0.073428	1.174885	-1.160446
C156	C	0.426572	1.674885	-0.660446
C157	C	0.010396	1.280406	-1.181843
C158	C	0.510396	1.780406	-0.681843
C159	C	-0.003463	1.262963	-1.095757
C160	C	0.496537	1.762963	-0.595757
C161	C	-0.052304	1.201483	-1.042012
C162	C	0.447696	1.701483	-0.542012
C163	C	-0.087287	1.157442	-1.074360
C164	C	0.412713	1.657442	-0.574360
C165	C	0.059236	1.341894	-1.235585
C166	C	0.559236	1.841894	-0.735585
C167	C	0.094218	1.385930	-1.203242
C168	C	0.594218	1.885930	-0.703242
C169	C	0.080361	1.368483	-1.117154
C170	C	0.580361	1.868483	-0.617154
C171	C	0.031520	1.307004	-1.063409
C172	C	0.531520	1.807004	-0.563409
C173	C	0.115344	1.412524	-1.084806
C174	C	0.615344	1.912524	-0.584806
C175	C	0.101485	1.395081	-0.998720
C176	C	0.601485	1.895081	-0.498720
C177	C	0.017661	1.289561	-0.977323
C178	C	0.517661	1.789561	-0.477323
C179	C	-0.031138	1.228171	-0.424209
C180	C	0.468862	1.728171	0.075791
C181	C	-0.045712	1.209775	-0.332622
C182	C	0.454288	1.709775	0.167378
H183	H	0.028890	0.977157	-0.670621
H184	H	0.528890	1.477157	-0.170621
N185	N	-0.067312	0.582254	-0.549399
N186	N	0.432688	1.082254	-0.049399
H187	H	-0.104111	0.564544	-0.560240
H188	H	0.395889	1.064544	-0.060240
H189	H	-0.070044	0.550133	-0.488684
H190	H	0.429956	1.050133	0.011316
H191	H	0.129971	1.430939	-0.972386
H192	H	0.629971	1.930939	-0.472386
N193	N	0.074182	1.360685	-1.328431
N194	N	0.574182	1.860685	-0.828431
H195	H	0.110964	1.349776	-1.346111
H196	H	0.610964	1.849776	-0.846111
H197	H	0.076956	1.421418	-1.360570
H198	H	0.576956	1.921418	-0.860570
N199	N	-0.139997	0.649434	-0.457731
N200	N	0.360003	1.149434	0.042269
H201	H	-0.143460	0.589992	-0.453374
H202	H	0.356540	1.089992	0.046626
H203	H	-0.172887	0.667035	-0.473497
H204	H	0.327113	1.167035	0.026503
H205	H	-0.148173	1.080763	-1.149027
H206	H	0.351827	1.580763	-0.649027
H207	H	-0.022186	0.566671	-0.606294
H208	H	0.477814	1.066671	-0.106294
N209	N	-0.439739	1.141959	-0.767652
N210	N	0.060261	1.641959	-0.267652
H211	H	-0.428650	1.096977	-0.726381
H212	H	0.071350	1.596977	-0.226381
H213	H	-0.405548	1.183209	-0.812657
H214	H	0.094452	1.683209	-0.312657
H215	H	0.133984	1.435993	-1.247009
H216	H	0.633984	1.935993	-0.747009
N217	N	-0.161125	0.767847	-0.431063
N218	N	0.338875	1.267847	0.068937
H219	H	-0.164585	0.708405	-0.426706
H220	H	0.335415	1.208405	0.073294
H221	H	-0.194018	0.785441	-0.446823
H222	H	0.305982	1.285441	0.053177
H223	H	-0.195797	1.195002	-0.714473
H224	H	0.304203	1.695002	-0.214473
H225	H	0.155109	1.462590	-1.128574
H226	H	0.655109	1.962590	-0.628574
H227	H	-0.127050	1.107356	-1.030598
H228	H	0.372950	1.607356	-0.530598
N229	N	-0.132355	0.946797	-0.467317
N230	N	0.367645	1.446797	0.032683
H231	H	-0.165379	0.899675	-0.425691
H232	H	0.334621	1.399675	0.074309
H233	H	-0.145450	0.989289	-0.508034
H234	H	0.354550	1.489289	-0.008034
N235	N	-0.035019	1.223243	-0.919356
N236	N	0.464981	1.723243	-0.419356
H237	H	-0.059624	1.249478	-0.890410
H238	H	0.440376	1.749478	-0.390410
H239	H	-0.025601	1.177855	-0.875964
H240	H	0.474399	1.677855	-0.375964
N241	N	0.074027	0.961593	-0.727539
N242	N	0.574027	1.461593	-0.227539
H243	H	0.077936	0.970903	-0.675231
H244	H	0.577936	1.470903	-0.175231
H245	H	0.043891	0.985304	-0.746815
H246	H	0.543891	1.485304	-0.246815
N247	N	-0.132278	1.100806	-1.313769
N248	N	0.367722	1.600806	-0.813769
H249	H	-0.165321	1.059212	-1.266660
H250	H	0.334679	1.559212	-0.766660
H251	H	-0.111367	1.069919	-1.341773
H252	H	0.388633	1.569919	-0.841773
N253	N	0.167827	0.776002	-0.845849
N254	N	0.667827	1.276002	-0.345849
H255	H	0.187881	0.742468	-0.871145
H256	H	0.687881	1.242468	-0.371145
H257	H	0.192412	0.804951	-0.819602
H258	H	0.692412	1.304951	-0.319602
N259	N	-0.188508	1.358866	-0.551045
N260	N	0.311492	1.858866	-0.051045
H261	H	-0.214076	1.385551	-0.524464
H262	H	0.285924	1.885551	-0.024464
H263	H	-0.154294	1.403775	-0.592349
H264	H	0.345706	1.903775	-0.092349
N265	N	-0.301980	1.358952	-0.551085
N266	N	0.198020	1.858952	-0.051085
H267	H	-0.276385	1.385596	-0.524484
H268	H	0.223615	1.885596	-0.024484
H269	H	-0.336193	1.317712	-0.506123
H270	H	0.163807	1.817712	-0.006123
H271	H	-0.545890	1.390070	-0.520274
H272	H	-0.045890	1.890070	-0.020274
H273	H	-0.063589	1.187286	-0.971916
H274	H	0.436411	1.687286	-0.471916
H275	H	0.129814	0.605594	-0.797933
H276	H	0.629814	1.105594	-0.297933
H277	H	0.133802	0.880190	-0.802919
H278	H	0.633802	1.380190	-0.302919
H279	H	-0.545987	1.153141	-0.756584
H280	H	-0.045987	1.653141	-0.256584
N281	N	-0.439632	1.401138	-0.509155
N282	N	0.060368	1.901138	-0.009155
H283	H	-0.460686	1.376468	-0.447668
H284	H	0.039314	1.876468	0.052332
H285	H	-0.437575	1.462623	-0.534021
H286	H	0.062425	1.962623	-0.034021
N287	N	-0.690794	1.359180	-0.551192
N288	N	-0.190794	1.859180	-0.051192
H289	H	-0.716364	1.385858	-0.524607
H290	H	-0.216364	1.885858	-0.024607
H291	H	-0.656582	1.404095	-0.592497
H292	H	-0.156582	1.904095	-0.092497
N293	N	-0.804278	1.359244	-0.551223
N294	N	-0.304278	1.859244	-0.051223
H295	H	-0.843009	1.352876	-0.557609
H296	H	-0.343009	1.852876	-0.057609
H297	H	-0.783168	1.420711	-0.576027
H298	H	-0.283168	1.920711	-0.076027
N299	N	-0.804355	1.184232	-0.725734
N300	N	-0.304355	1.684232	-0.225734
H301	H	-0.778785	1.157551	-0.752316
H302	H	-0.278785	1.657551	-0.252316
H303	H	-0.815447	1.225496	-0.770712
H304	H	-0.315447	1.725496	-0.270712
H305	H	-0.698088	1.195312	-0.714630
H306	H	-0.198088	1.695312	-0.214630
H307	H	-0.294848	1.195070	-0.714516
H308	H	0.205152	1.695070	-0.214516
N309	N	0.041949	1.320131	-1.358244
N310	N	0.541949	1.820131	-0.858244
H311	H	0.045421	1.324501	-1.417688
H312	H	0.545421	1.824501	-0.917688
H313	H	0.074815	1.304294	-1.340620
H314	H	0.574815	1.804294	-0.840620
