data_functionalizedCrystal
_audit_creation_method	'MofGen! by Chris Wilmer'
_symmetry_space_group_name_H-M	'P1'
_symmetry_Int_Tables_number	1
_symmetry_cell_setting	triclinic
loop_
_symmetry_equiv_pos_as_xyz
  x,y,z
_cell_length_a	10.489746
_cell_length_b	9.065218
_cell_length_c	7.540329
_cell_angle_alpha	90.001757
_cell_angle_beta	89.999963
_cell_angle_gamma	95.221407
loop_
_atom_site_label
_atom_site_type_symbol
_atom_site_fract_x
_atom_site_fract_y
_atom_site_fract_z
O1	O	1.694799	-0.208202	-0.147355
O2	O	1.323675	-0.227734	-0.147384
O3	O	1.516908	-0.003288	-0.147366
O4	O	1.501566	-0.432647	-0.147374
O5	O	1.516896	-0.003286	0.147599
O6	O	1.323663	-0.227731	0.147581
O7	O	1.694787	-0.208199	0.147610
Cu8	Cu	1.509224	-0.217965	0.174528
Cu9	Cu	1.509238	-0.217968	-0.174302
O10	O	1.501554	-0.432644	0.147591
C11	C	1.276132	-0.226255	0.000094
C12	C	1.134487	-0.221837	0.000083
C13	C	0.981104	-0.076414	0.000111
C14	C	1.058755	-0.149118	0.145538
C15	C	1.058722	-0.149155	-0.145275
C16	C	0.959760	-0.286743	0.145674
C17	C	0.959722	-0.286760	-0.145270
C18	C	1.037324	-0.359565	0.000193
C19	C	1.515428	0.051693	0.000114
C20	C	1.511019	0.215514	0.000105
C21	C	1.742330	-0.209677	0.000127
C22	C	1.883975	-0.214096	0.000127
C23	C	1.503035	-0.487625	0.000108
C24	C	1.507443	-0.651447	0.000105
N25	N	1.509224	-0.217961	0.419876
N26	N	1.509248	-0.217960	-0.419651
H27	H	1.062233	-0.479374	0.000270
C28	C	0.902242	-0.364185	-0.309372
C29	C	1.000156	-0.415349	-0.412409
C30	C	0.947255	-0.486650	-0.563620
H31	H	0.844172	-0.445598	-0.274693
H32	H	0.858023	-0.296414	-0.376752
H33	H	1.044354	-0.483116	-0.345042
H34	H	1.058232	-0.333966	-0.447134
H35	H	0.903036	-0.418879	-0.631000
H36	H	0.889186	-0.568056	-0.528924
H37	H	1.013681	-0.521361	-0.633557
C38	C	0.947624	0.083239	0.000667
C39	C	0.997952	0.154672	0.153300
C40	C	0.967119	0.301734	0.153892
H41	H	0.982975	0.132795	-0.101482
H42	H	0.857206	0.084983	-0.000286
H43	H	1.088352	0.152937	0.154236
H44	H	0.962609	0.105161	0.255474
H45	H	0.876701	0.303478	0.152939
H46	H	1.002472	0.351275	0.051736
H47	H	1.001251	0.350216	0.257459
C48	C	1.116686	-0.071748	0.309414
C49	C	1.249545	-0.078116	0.308041
C50	C	1.302946	-0.006865	0.458979
H51	H	1.097946	0.028813	0.309418
H52	H	1.081539	-0.119682	0.412739
H53	H	1.284680	-0.030178	0.204744
H54	H	1.268321	-0.178658	0.308063
H55	H	1.267799	-0.054799	0.562303
H56	H	1.284197	0.093692	0.458970
H57	H	1.393094	-0.011187	0.458076
H58	H	0.916686	-0.344824	0.268763
H59	H	1.101960	-0.091008	-0.268225
