data_functionalizedCrystal
_audit_creation_method	'MofGen! by Chris Wilmer'
_symmetry_space_group_name_H-M	'P1'
_symmetry_Int_Tables_number	1
_symmetry_cell_setting	triclinic
loop_
_symmetry_equiv_pos_as_xyz
  x,y,z
_cell_length_a	6.817900
_cell_length_b	12.850265
_cell_length_c	19.612765
_cell_angle_alpha	102.414371
_cell_angle_beta	89.554235
_cell_angle_gamma	91.776814
loop_
_atom_site_label
_atom_site_type_symbol
_atom_site_fract_x
_atom_site_fract_y
_atom_site_fract_z
V1	V	3.821131	0.035356	-0.213019
O2	O	3.871052	-0.114518	-0.212157
O3	O	3.717798	0.178610	-0.208491
O4	O	3.708714	-0.014691	-0.307325
O5	O	3.880199	0.080121	-0.112639
V6	V	4.320172	0.023279	-0.201386
O7	O	4.048349	0.061849	-0.238537
O8	O	4.543152	-0.003214	-0.175867
O9	O	4.200299	-0.119975	-0.205914
O10	O	4.387649	0.173152	-0.202247
O11	O	4.378501	-0.021487	-0.301766
O12	O	4.209383	0.073326	-0.107080
C13	C	3.539919	-0.031496	-0.330410
C14	C	3.528925	-0.071467	-0.407485
C15	C	3.551520	0.215079	-0.204341
C16	C	3.547825	0.334067	-0.201211
C17	C	4.012484	-0.275428	-0.213209
C18	C	4.029929	-0.156437	-0.210070
V19	V	3.805644	0.524408	-0.202443
O20	O	3.844462	0.676071	-0.204966
O21	O	3.711655	0.377180	-0.203266
O22	O	3.720062	0.570458	-0.104410
O23	O	3.835997	0.481455	-0.304506
V24	V	4.296562	0.556417	-0.232701
O25	O	4.041041	0.507224	-0.185630
O26	O	4.508079	0.591660	-0.266392
O27	O	4.168973	0.694691	-0.223509
O28	O	4.374285	0.409463	-0.234579
O29	O	4.382750	0.604079	-0.135039
O30	O	4.160566	0.501413	-0.322364
C31	C	4.041522	0.090136	-0.083991
C32	C	4.031756	0.130102	-0.006915
C33	C	3.558548	0.580610	-0.075110
C34	C	3.568961	0.620558	0.001977
C35	C	3.987879	0.477745	-0.339046
C36	C	3.956861	0.436956	-0.415354
C37	C	3.701410	-0.086805	-0.447102
C38	C	3.691109	-0.124376	-0.519522
C39	C	3.508321	-0.146600	-0.552324
C40	C	3.335824	-0.131262	-0.512702
C41	C	3.346127	-0.093700	-0.440283
C42	C	3.850100	0.152328	0.025875
C43	C	3.840925	0.189887	0.098296
C44	C	4.013420	0.205238	0.137922
C45	C	4.195100	0.183001	0.105124
C46	C	4.204268	0.145433	0.032705
C47	C	4.144337	0.320573	0.250222
C48	C	4.135163	0.358147	0.322639
C49	C	3.985149	0.321106	0.361285
C50	C	3.844281	0.246500	0.327504
C51	C	3.853449	0.208932	0.255086
C52	C	4.003499	0.245973	0.216448
C53	C	3.793532	0.384056	0.472602
C54	C	3.784363	0.421609	0.545024
C55	C	4.138545	0.414733	0.551850
C56	C	4.147707	0.377171	0.479430
C57	C	3.975195	0.361839	0.439809
C58	C	3.751513	0.643038	0.034914
C59	C	3.761325	0.680588	0.107344
C60	C	3.588582	0.695650	0.146836
C61	C	3.406016	0.673170	0.113894
C62	C	3.396206	0.635628	0.041465
H63	H	3.831583	-0.136854	-0.551773
H64	H	3.499959	-0.177184	-0.611293
H65	H	3.850262	-0.068712	-0.420404
C66	C	4.290098	0.440210	0.359794
H67	H	4.263140	0.457291	0.408457
H68	H	4.416717	0.411005	0.352182
H69	H	4.285995	0.502976	0.341670
C70	C	3.134758	-0.155444	-0.548811
H71	H	3.033487	-0.140859	-0.514855
H72	H	3.121001	-0.111937	-0.581888
H73	H	3.125728	-0.228389	-0.571966
H74	H	3.909995	0.698884	0.134155
H75	H	3.205663	-0.081213	-0.408032
H76	H	3.709626	0.139846	-0.006380
H77	H	3.892189	0.630782	0.002768
C78	C	3.641097	0.214352	0.134372
H79	H	3.539672	0.199847	0.100403
H80	H	3.620409	0.170977	0.167508
H81	H	3.639922	0.287339	0.157451
C82	C	3.698526	0.126865	0.217927
H83	H	3.725471	0.109804	0.169262
H84	H	3.702626	0.064100	0.236046
H85	H	3.571896	0.156071	0.225538
C86	C	3.679078	0.205874	0.369990
H87	H	3.693744	0.238961	0.417955
H88	H	3.555580	0.222847	0.353822
H89	H	3.685965	0.130788	0.364412
H90	H	3.653061	0.371565	0.440341
C91	C	3.584531	0.446059	0.581093
H92	H	3.483113	0.431556	0.547121
H93	H	3.563844	0.402677	0.614225
H94	H	3.583343	0.519044	0.604178
C95	C	4.347534	0.352736	0.443358
H96	H	4.448957	0.367265	0.477327
H97	H	4.348745	0.279758	0.420271
H98	H	4.368200	0.396128	0.410226
C99	C	4.309346	0.361336	0.207717
H100	H	4.391904	0.411161	0.238204
H101	H	4.384341	0.303026	0.184613
H102	H	4.253577	0.394989	0.174116
C103	C	4.404101	0.120997	-0.003366
H104	H	4.505525	0.135523	0.030603
H105	H	4.405313	0.048021	-0.026456
H106	H	4.424762	0.164394	-0.036495
H107	H	3.596598	0.726220	0.205813
H108	H	4.278995	0.427237	0.584113
C109	C	3.216019	0.689727	0.157343
H110	H	3.248029	0.715291	0.205196
H111	H	3.138441	0.740226	0.141816
H112	H	3.144386	0.623858	0.151833
C113	C	3.195388	0.610912	0.005241
H114	H	3.093927	0.625259	0.039139
H115	H	3.181232	0.654295	-0.027889
H116	H	3.187095	0.537928	-0.017864
H117	H	4.335546	0.195503	0.137392
