data_functionalizedCrystal
_audit_creation_method	'MofGen! by Chris Wilmer'
_symmetry_space_group_name_H-M	'P1'
_symmetry_Int_Tables_number	1
_symmetry_cell_setting	triclinic
loop_
_symmetry_equiv_pos_as_xyz
  x,y,z
_cell_length_a	13.897449
_cell_length_b	29.839131
_cell_length_c	13.897441
_cell_angle_alpha	89.964857
_cell_angle_beta	89.979267
_cell_angle_gamma	90.042700
loop_
_atom_site_label
_atom_site_type_symbol
_atom_site_fract_x
_atom_site_fract_y
_atom_site_fract_z
Zn1	Zn	1.474544	-0.178824	-0.545351
Zn2	Zn	1.474371	-0.253959	-0.384039
Zn3	Zn	1.313233	-0.178845	-0.384069
Zn4	Zn	1.313148	-0.253929	-0.545292
O5	O	1.393824	-0.216389	-0.464688
O6	O	1.609502	-0.188794	-0.523965
O7	O	1.452959	-0.244016	-0.249061
O8	O	1.334739	-0.115975	-0.405500
O9	O	1.609375	-0.243995	-0.405450
O10	O	1.453253	-0.115959	-0.523993
O11	O	1.334571	-0.188830	-0.249083
O12	O	1.178240	-0.188802	-0.405443
O13	O	1.334594	-0.243945	-0.680281
O14	O	1.178177	-0.243966	-0.523893
O15	O	1.453171	-0.188765	-0.680325
O16	O	1.452876	-0.316822	-0.405393
O17	O	1.334426	-0.316800	-0.523864
C18	C	1.143209	-0.216383	-0.464666
C19	C	1.035995	-0.216391	-0.464679
C20	C	0.839700	-0.216393	-0.464704
C21	C	0.948933	-0.216391	-0.464688
C22	C	1.393649	-0.333112	-0.464640
C23	C	1.393663	-0.383046	-0.464652
C24	C	1.455613	-0.692688	-0.403090
C25	C	1.455732	-0.880361	-0.403127
O26	O	1.508265	-0.904625	-0.350748
N27	N	1.394024	-0.903831	-0.464760
C28	C	1.332286	-0.880380	-0.526393
O29	O	1.279809	-0.904649	-0.578824
C30	C	1.332172	-0.692708	-0.526360
C31	C	1.393878	-0.669240	-0.464716
C32	C	1.517314	-0.669221	-0.341451
C33	C	1.517280	-0.622305	-0.341439
C34	C	1.455545	-0.598857	-0.403065
C35	C	1.393844	-0.622325	-0.464703
C36	C	1.270440	-0.669258	-0.587997
C37	C	1.270419	-0.622336	-0.587985
C38	C	1.332124	-0.598869	-0.526341
C39	C	1.332074	-0.551962	-0.526317
N40	N	1.393782	-0.528492	-0.464684
C41	C	1.455518	-0.551939	-0.403057
C42	C	1.332349	-0.978911	-0.526405
C43	C	1.332375	-1.025828	-0.526412
C44	C	1.455823	-1.025806	-0.403147
C45	C	1.455790	-0.978888	-0.403136
C46	C	1.394057	-0.955441	-0.464772
C47	C	1.455441	-0.453414	-0.403035
C48	C	1.455398	-0.406494	-0.403026
C49	C	1.331955	-0.406520	-0.526294
C50	C	1.331993	-0.453436	-0.526301
C51	C	1.393744	-0.476881	-0.464668
O52	O	1.279576	-0.527669	-0.578676
O53	O	1.508002	-0.527662	-0.350650
C54	C	1.455647	-0.739604	-0.403102
C55	C	1.393946	-0.763071	-0.464741
C56	C	1.332211	-0.739623	-0.526367
C57	C	1.393973	-0.809989	-0.464748
C58	C	1.455708	-0.833437	-0.403122
C59	C	1.517416	-0.809967	-0.341489
C60	C	1.517382	-0.763051	-0.341476
C61	C	1.270503	-0.763093	-0.588000
C62	C	1.270541	-0.810009	-0.588007
C63	C	1.332276	-0.833457	-0.526381
C64	C	1.645417	-0.216395	-0.464710
C65	C	1.752631	-0.216398	-0.464720
C66	C	1.393892	-0.216349	-0.716281
C67	C	1.393921	-0.216332	-0.823495
C68	C	1.394025	-0.099211	-0.464757
C69	C	1.394111	-0.049276	-0.464786
C70	C	1.393948	-0.216302	-1.019790
C71	C	1.393930	-0.216320	-0.910558
C72	C	1.393811	-0.216396	-0.214073
C73	C	1.393969	-0.216287	-0.106860
H74	H	1.505726	-0.472497	-0.352851
H75	H	1.220149	-0.603248	-0.638179
H76	H	1.282075	-0.959823	-0.576598
H77	H	1.220189	-0.688357	-0.638190
H78	H	1.567591	-0.688307	-0.291268
O79	O	1.210664	-0.740300	-0.647966
C80	C	1.197545	-0.687277	-0.778143
C81	C	1.265433	-0.713067	-0.710307
H82	H	1.241797	-0.665246	-0.828548
H83	H	1.153469	-0.712096	-0.822260
H84	H	1.147094	-0.665374	-0.733785
H85	H	1.315942	-0.734971	-0.754590
H86	H	1.309441	-0.688224	-0.666187
H87	H	1.505646	-0.387388	-0.352824
H88	H	1.567680	-0.829066	-0.291308
O89	O	1.210730	-0.832851	-0.647941
C90	C	1.197736	-0.885754	-0.778234
C91	C	1.265568	-0.859923	-0.710398
H92	H	1.242047	-0.907640	-0.828760
H93	H	1.147346	-0.907792	-0.733976
H94	H	1.153593	-0.860922	-0.822231
H95	H	1.309774	-0.884723	-0.666386
H96	H	1.315895	-0.837878	-0.754710
O97	O	1.577184	-0.599563	-0.281432
C98	C	1.624075	-0.585230	-0.117393
C99	C	1.556179	-0.611017	-0.185242
H100	H	1.607104	-0.594475	-0.039609
H101	H	1.701860	-0.594427	-0.134337
H102	H	1.613481	-0.547670	-0.128010
H103	H	1.566688	-0.648583	-0.174663
H104	H	1.478419	-0.601783	-0.168282
O105	O	1.515824	-0.956163	-0.343228
C106	C	1.638221	-0.961106	-0.220920
C107	C	1.570294	-0.986894	-0.288734
H108	H	1.682263	-0.985941	-0.176830
H109	H	1.688692	-0.939115	-0.265196
H110	H	1.593937	-0.939164	-0.170480
H111	H	1.614500	-1.008860	-0.339188
H112	H	1.519820	-1.008856	-0.244398
O113	O	1.515953	-1.048594	-0.343454
C114	C	1.646267	-1.101491	-0.330736
C115	C	1.578209	-1.075710	-0.398418
H116	H	1.696605	-1.123427	-0.375147
H117	H	1.690445	-1.076666	-0.286737
H118	H	1.602081	-1.123489	-0.280205
H119	H	1.622322	-1.053711	-0.449007
H120	H	1.534028	-1.100558	-0.442350
H121	H	1.281751	-0.472544	-0.576499
O122	O	1.272397	-1.048553	-0.586377
C123	C	1.149916	-1.043610	-0.708601
C124	C	1.217805	-1.017821	-0.640749
H125	H	1.105747	-1.018775	-0.752564
H126	H	1.194138	-1.065525	-0.759150
H127	H	1.099553	-1.065626	-0.664263
H128	H	1.268182	-0.995780	-0.685008
H129	H	1.173523	-0.995934	-0.590197
O130	O	1.272081	-0.383669	-0.586125
C131	C	1.217307	-0.311393	-0.640694
C132	C	1.285172	-0.337217	-0.572895
H133	H	1.227853	-0.273833	-0.630006
H134	H	1.234217	-0.320548	-0.718511
H135	H	1.139549	-0.320685	-0.623707
H136	H	1.362952	-0.327939	-0.589795
H137	H	1.268178	-0.328060	-0.495098
O138	O	1.577418	-0.740328	-0.281568
C139	C	1.699822	-0.745275	-0.159268
C140	C	1.631891	-0.771061	-0.227083
H141	H	1.743867	-0.770112	-0.115185
H142	H	1.750291	-0.723283	-0.203544
H143	H	1.655541	-0.723336	-0.108822
H144	H	1.676094	-0.793025	-0.277543
H145	H	1.581419	-0.793025	-0.182747
