data_functionalizedCrystal
_audit_creation_method	'MofGen! by Chris Wilmer'
_symmetry_space_group_name_H-M	'P1'
_symmetry_Int_Tables_number	1
_symmetry_cell_setting	triclinic
loop_
_symmetry_equiv_pos_as_xyz
  x,y,z
_cell_length_a	13.897449
_cell_length_b	25.639240
_cell_length_c	13.897441
_cell_angle_alpha	89.958512
_cell_angle_beta	89.976606
_cell_angle_gamma	90.033584
loop_
_atom_site_label
_atom_site_type_symbol
_atom_site_fract_x
_atom_site_fract_y
_atom_site_fract_z
Zn1	Zn	1.474602	-0.208123	-0.545377
Zn2	Zn	1.807935	0.125211	-0.212043
Zn3	Zn	2.141268	0.458544	0.121290
Zn4	Zn	1.474453	-0.295565	-0.384047
Zn5	Zn	1.807787	0.037768	-0.050714
Zn6	Zn	2.141120	0.371102	0.282619
Zn7	Zn	1.313291	-0.208147	-0.384088
Zn8	Zn	1.646624	0.125187	-0.050754
Zn9	Zn	1.979957	0.458520	0.282579
Zn10	Zn	1.313230	-0.295530	-0.545292
Zn11	Zn	1.646563	0.037803	-0.211959
Zn12	Zn	1.979897	0.371137	0.121374
O13	O	1.393894	-0.251841	-0.464701
O14	O	1.727227	0.081492	-0.131368
O15	O	2.060561	0.414826	0.201966
O16	O	1.609564	-0.219727	-0.523994
O17	O	1.942897	0.113607	-0.190661
O18	O	2.276230	0.446940	0.142672
O19	O	1.453038	-0.283994	-0.249071
O20	O	1.786371	0.049340	0.084262
O21	O	2.119705	0.382673	0.417596
O22	O	1.334777	-0.134978	-0.405535
O23	O	1.668110	0.198355	-0.072202
O24	O	2.001443	0.531688	0.261132
O25	O	1.609455	-0.283970	-0.405466
O26	O	1.942788	0.049363	-0.072133
O27	O	2.276121	0.382696	0.261200
O28	O	1.453291	-0.134961	-0.524033
O29	O	1.786624	0.198373	-0.190700
O30	O	2.119958	0.531706	0.142633
O31	O	1.334633	-0.219768	-0.249100
O32	O	1.667966	0.113566	0.084233
O33	O	2.001299	0.446899	0.417566
O34	O	1.178301	-0.219734	-0.405453
O35	O	1.511634	0.113600	-0.072120
O36	O	1.844968	0.446933	0.261213
O37	O	1.334673	-0.283910	-0.680285
O38	O	1.668006	0.049423	-0.346952
O39	O	2.001340	0.382756	-0.013619
O40	O	1.178257	-0.283934	-0.523890
O41	O	1.511590	0.049399	-0.190557
O42	O	1.844923	0.382733	0.142777
O43	O	1.453232	-0.219693	-0.680347
O44	O	1.786565	0.113641	-0.347014
O45	O	2.119899	0.446974	-0.013681
O46	O	1.452979	-0.368726	-0.405385
O47	O	1.786312	-0.035392	-0.072052
O48	O	2.119646	0.297941	0.261282
O49	O	1.334529	-0.368700	-0.523851
O50	O	1.667863	-0.035367	-0.190518
O51	O	2.001196	0.297967	0.142816
C52	C	1.143280	-0.251833	-0.464667
C53	C	1.476613	0.081500	-0.131334
C54	C	1.809946	0.414834	0.201999
C55	C	1.036066	-0.251842	-0.464676
C56	C	1.369399	0.081491	-0.131343
C57	C	1.702732	0.414824	0.201991
C58	C	0.948996	-0.251844	-0.464692
C59	C	1.282329	0.081489	-0.131359
C60	C	1.615663	0.414823	0.201975
C61	C	0.839763	-0.251848	-0.464721
C62	C	1.173097	0.081486	-0.131388
C63	C	1.506430	0.414819	0.201945
C64	C	1.393758	-0.387684	-0.464625
C65	C	1.727091	-0.054350	-0.131292
C66	C	2.060424	0.278983	0.202041
C67	C	1.393788	-0.445798	-0.464625
C68	C	1.727121	-0.112464	-0.131292
C69	C	2.060454	0.220869	0.202041
C70	C	1.455635	-0.806113	-0.526514
C71	C	1.788968	-0.472780	-0.193181
C72	C	2.122302	-0.139446	0.140152
C73	C	1.455663	-0.860717	-0.526534
C74	C	1.788997	-0.527384	-0.193201
C75	C	2.122330	-0.194051	0.140133
O76	O	1.508086	-0.888914	-0.579077
O77	O	1.841420	-0.555580	-0.245743
O78	O	2.174753	-0.222247	0.087590
N79	N	1.394028	-0.888080	-0.464794
N80	N	1.727361	-0.554747	-0.131461
N81	N	2.060694	-0.221413	0.201872
C82	C	1.332353	-0.860836	-0.403038
C83	C	1.665686	-0.527503	-0.069704
C84	C	1.999019	-0.194169	0.263629
O85	O	1.279929	-0.889124	-0.350526
O86	O	1.613262	-0.555791	-0.017192
O87	O	1.946595	-0.222457	0.316141
C88	C	1.332320	-0.806233	-0.403024
C89	C	1.665653	-0.472899	-0.069690
C90	C	1.998987	-0.139566	0.263643
C91	C	1.393967	-0.778873	-0.464761
C92	C	1.727300	-0.445539	-0.131427
C93	C	2.060633	-0.112206	0.201906
C94	C	1.517276	-0.778753	-0.588247
C95	C	1.850609	-0.445420	-0.254914
C96	C	2.183943	-0.112086	0.078420
C97	C	1.517248	-0.724152	-0.588226
C98	C	1.850582	-0.390819	-0.254893
C99	C	2.183915	-0.057486	0.078441
C100	C	1.455580	-0.696912	-0.526472
C101	C	1.788914	-0.363579	-0.193139
C102	C	2.122247	-0.030245	0.140194
C103	C	1.393939	-0.724272	-0.464740
C104	C	1.727273	-0.390939	-0.131406
C105	C	2.060606	-0.057605	0.201927
C106	C	1.270641	-0.778989	-0.341273
C107	C	1.603974	-0.445656	-0.007939
C108	C	1.937308	-0.112323	0.325394
C109	C	1.270613	-0.724382	-0.341265
C110	C	1.603946	-0.391049	-0.007931
C111	C	1.937280	-0.057716	0.325402
C112	C	1.332260	-0.697022	-0.403002
C113	C	1.665593	-0.363689	-0.069668
C114	C	1.998926	-0.030356	0.263665
C115	C	1.332244	-0.642431	-0.402965
C116	C	1.665577	-0.309098	-0.069631
C117	C	1.998910	0.024236	0.263702
N118	N	1.393879	-0.615068	-0.464704
N119	N	1.727213	-0.281735	-0.131371
N120	N	2.060546	0.051598	0.201962
C121	C	1.455548	-0.642309	-0.526458
C122	C	1.788881	-0.308975	-0.193125
C123	C	2.122214	0.024358	0.140208
C124	C	1.332425	-0.975506	-0.403073
C125	C	1.665758	-0.642173	-0.069740
C126	C	1.999091	-0.308840	0.263594
C127	C	1.332461	-1.030109	-0.403081
C128	C	1.665795	-0.696775	-0.069748
C129	C	1.999128	-0.363442	0.263585
C130	C	1.455771	-1.029986	-0.526579
C131	C	1.789105	-0.696653	-0.193246
C132	C	2.122438	-0.363320	0.140087
C133	C	1.455739	-0.975383	-0.526565
C134	C	1.789072	-0.642050	-0.193232
C135	C	2.122405	-0.308717	0.140101
C136	C	1.394060	-0.948144	-0.464813
C137	C	1.727394	-0.614810	-0.131480
C138	C	2.060727	-0.281477	0.201854
C139	C	1.455486	-0.527644	-0.526409
C140	C	1.788819	-0.194310	-0.193075
C141	C	2.122153	0.139023	0.140258
C142	C	1.455456	-0.473038	-0.526379
C143	C	1.788789	-0.139705	-0.193046
C144	C	2.122123	0.193628	0.140288
C145	C	1.332143	-0.473165	-0.402885
C146	C	1.665476	-0.139832	-0.069552
C147	C	1.998810	0.193501	0.263781
C148	C	1.332176	-0.527766	-0.402911
C149	C	1.665510	-0.194433	-0.069577
C150	C	1.998843	0.138901	0.263756
C151	C	1.393851	-0.555004	-0.464680
C152	C	1.727184	-0.221670	-0.131347
C153	C	2.060518	0.111663	0.201986
O154	O	1.279845	-0.614200	-0.350452
O155	O	1.613178	-0.280867	-0.017118
O156	O	1.946511	0.052467	0.316215
O157	O	1.507954	-0.614014	-0.578970
O158	O	1.841287	-0.280681	-0.245637
O159	O	2.174620	0.052653	0.087696
C160	C	1.645487	-0.251850	-0.464735
C161	C	1.978820	0.081484	-0.131402
C162	C	2.312154	0.414817	0.201931
C163	C	1.752701	-0.251853	-0.464750
C164	C	2.086034	0.081480	-0.131417
C165	C	2.419367	0.414813	0.201917
C166	C	1.393962	-0.251795	-0.716294
C167	C	1.727296	0.081538	-0.382961
C168	C	2.060629	0.414872	-0.049627
C169	C	1.393992	-0.251775	-0.823508
C170	C	1.727325	0.081558	-0.490175
C171	C	2.060658	0.414891	-0.156841
C172	C	1.394057	-0.115468	-0.464798
C173	C	1.727390	0.217865	-0.131465
C174	C	2.060724	0.551199	0.201869
C175	C	1.394127	-0.057354	-0.464839
C176	C	1.727460	0.275979	-0.131506
C177	C	2.060793	0.609313	0.201827
C178	C	1.394018	-0.251740	-1.019803
C179	C	1.727351	0.081593	-0.686470
C180	C	2.060684	0.414927	-0.353137
C181	C	1.394000	-0.251761	-0.910571
C182	C	1.727334	0.081572	-0.577238
C183	C	2.060667	0.414906	-0.243904
C184	C	1.393881	-0.251849	-0.214087
C185	C	1.727215	0.081484	0.119247
C186	C	2.060548	0.414817	0.452580
C187	C	1.394039	-0.251722	-0.106873
C188	C	1.727372	0.081611	0.226460
C189	C	2.060706	0.414945	0.559793
H190	H	1.505659	-0.450763	-0.576653
H191	H	1.838993	-0.117430	-0.243319
H192	H	2.172326	0.215903	0.090014
H193	H	1.567493	-0.800926	-0.638540
H194	H	1.900827	-0.467593	-0.305207
H195	H	2.234160	-0.134260	0.028126
H196	H	1.282273	-1.052381	-0.352799
H197	H	1.615606	-0.719047	-0.019465
H198	H	1.948940	-0.385714	0.313868
H199	H	1.505701	-0.549814	-0.576714
H200	H	1.839034	-0.216481	-0.243380
H201	H	2.172367	0.116852	0.089953
H202	H	1.567444	-0.701879	-0.638500
H203	H	1.900777	-0.368546	-0.305167
H204	H	2.234110	-0.035212	0.028166
H205	H	1.505983	-1.052176	-0.576864
H206	H	1.839317	-0.718842	-0.243531
H207	H	2.172650	-0.385509	0.089802
H208	H	1.505936	-0.953110	-0.576837
H209	H	1.839269	-0.619777	-0.243504
H210	H	2.172603	-0.286443	0.089829
H211	H	1.282202	-0.953331	-0.352779
H212	H	1.615535	-0.619997	-0.019445
H213	H	1.948868	-0.286664	0.313888
H214	H	1.220442	-0.801256	-0.290999
H215	H	1.553775	-0.467923	0.042334
H216	H	1.887108	-0.134590	0.375667
H217	H	1.281986	-0.550044	-0.352632
H218	H	1.615319	-0.216710	-0.019299
H219	H	1.948653	0.116623	0.314035
H220	H	1.220384	-0.702206	-0.290979
H221	H	1.553717	-0.368873	0.042354
H222	H	1.887051	-0.035540	0.375687
H223	H	1.281936	-0.450978	-0.352603
H224	H	1.615269	-0.117644	-0.019270
H225	H	1.948603	0.215689	0.314064
