data_functionalizedCrystal
_audit_creation_method	'MofGen! by Chris Wilmer'
_symmetry_space_group_name_H-M	'P1'
_symmetry_Int_Tables_number	1
_symmetry_cell_setting	triclinic
loop_
_symmetry_equiv_pos_as_xyz
  x,y,z
_cell_length_a	19.077105
_cell_length_b	13.032721
_cell_length_c	19.077174
_cell_angle_alpha	99.721459
_cell_angle_beta	85.483752
_cell_angle_gamma	95.201395
loop_
_atom_site_label
_atom_site_type_symbol
_atom_site_fract_x
_atom_site_fract_y
_atom_site_fract_z
Zn1	Zn	1.051969	-0.507760	-0.483590
Zn2	Zn	1.551969	-0.007760	0.016410
Zn3	Zn	1.033390	-0.675201	-0.379469
Zn4	Zn	1.533390	-0.175201	0.120531
Zn5	Zn	0.930554	-0.493152	-0.359787
Zn6	Zn	1.430554	0.006848	0.140213
Zn7	Zn	0.920290	-0.675133	-0.492581
Zn8	Zn	1.420290	-0.175133	0.007419
O9	O	0.984051	-0.587812	-0.428857
O10	O	1.484051	-0.087812	0.071143
O11	O	1.147649	-0.536114	-0.474253
O12	O	1.647649	-0.036114	0.025747
O13	O	1.016269	-0.644967	-0.277708
O14	O	1.516269	-0.144967	0.222292
O15	O	0.958731	-0.348856	-0.364210
O16	O	1.458731	0.151144	0.135790
O17	O	1.134000	-0.659132	-0.397755
O18	O	1.634000	-0.159132	0.102245
O19	O	1.047934	-0.359588	-0.455168
O20	O	1.547934	0.140412	0.044832
O21	O	0.940716	-0.511216	-0.263248
O22	O	1.440716	-0.011216	0.236752
O23	O	0.831048	-0.511150	-0.372928
O24	O	1.331048	-0.011150	0.127072
O25	O	0.941236	-0.659015	-0.590539
O26	O	1.441236	-0.159015	-0.090539
O27	O	0.823506	-0.644850	-0.470491
O28	O	1.323506	-0.144850	0.029509
O29	O	1.037980	-0.536048	-0.583933
O30	O	1.537980	-0.036048	-0.083933
O31	O	1.006316	-0.821426	-0.406474
O32	O	1.506316	-0.321426	0.093526
O33	O	0.923222	-0.821376	-0.489577
O34	O	1.423222	-0.321376	0.010423
C35	C	0.801829	-0.576408	-0.420550
C36	C	1.301829	-0.076408	0.079450
C37	C	0.723872	-0.571556	-0.417015
C38	C	1.223872	-0.071556	0.082985
C39	C	0.683329	-0.638984	-0.466088
C40	C	1.183329	-0.138984	0.033912
C41	C	0.610081	-0.634411	-0.462769
C42	C	1.110081	-0.134411	0.037231
C43	C	0.577378	-0.562415	-0.410373
C44	C	1.077378	-0.062415	0.089627
C45	C	0.617927	-0.494981	-0.361298
C46	C	1.117927	0.005019	0.138702
C47	C	0.691173	-0.499549	-0.364621
C48	C	1.191173	0.000451	0.135379
C49	C	0.358735	-0.541273	-0.394998
C50	C	0.858735	-0.041273	0.105002
C51	C	0.285483	-0.536711	-0.391678
C52	C	0.785483	-0.036711	0.108322
C53	C	0.277643	-0.676141	-0.493149
C54	C	0.777643	-0.176141	0.006851
C55	C	0.350891	-0.680707	-0.496465
C56	C	0.850891	-0.180707	0.003535
C57	C	0.391433	-0.613269	-0.447392
C58	C	0.891433	-0.113269	0.052608
N59	N	0.502507	-0.557742	-0.406978
N60	N	1.002507	-0.057742	0.093022
N61	N	0.466303	-0.617938	-0.450791
N62	N	0.966303	-0.117938	0.049209
C63	C	0.961659	-0.859320	-0.451153
C64	C	1.461659	-0.359320	0.048847
C65	C	0.952144	-0.975478	-0.460718
C66	C	1.452144	-0.475478	0.039282
C67	C	0.989055	-1.027259	-0.423898
C68	C	1.489055	-0.527259	0.076102
C69	C	0.979222	-1.147315	-0.433783
C70	C	1.479222	-0.647315	0.066217
C71	C	1.166984	-0.599260	-0.437197
C72	C	1.666984	-0.099260	0.062803
C73	C	1.244939	-0.604139	-0.440751
C74	C	1.744939	-0.104139	0.059249
C75	C	0.990536	-0.599153	-0.613663
C76	C	1.490536	-0.099153	-0.113663
C77	C	0.993299	-0.603987	-0.692417
C78	C	1.493299	-0.103987	-0.192417
C79	C	1.006550	-0.315245	-0.406490
C80	C	1.506550	0.184755	0.093510
C81	C	1.016138	-0.199094	-0.396959
C82	C	1.516138	0.300906	0.103041
C83	C	0.955263	-0.536622	-0.721886
C84	C	1.455263	-0.036622	-0.221886
C85	C	0.957856	-0.541172	-0.795884
C86	C	1.457856	-0.041172	-0.295884
C87	C	0.998490	-0.613082	-0.840411
C88	C	1.498490	-0.113082	-0.340411
C89	C	1.036528	-0.680454	-0.810937
C90	C	1.536528	-0.180454	-0.310937
C91	C	1.033930	-0.675908	-0.736941
C92	C	1.533930	-0.175908	-0.236941
C93	C	1.010474	-0.634148	-1.062524
C94	C	1.510474	-0.134148	-0.562524
C95	C	1.013070	-0.638687	-1.136525
C96	C	1.513070	-0.138687	-0.636525
C97	C	0.934398	-0.499405	-1.121467
C98	C	1.434398	0.000595	-0.621467
C99	C	0.931807	-0.494862	-1.047469
C100	C	1.431807	0.005138	-0.547469
C101	C	0.969841	-0.562237	-1.018002
C102	C	1.469841	-0.062237	-0.518002
N103	N	1.001144	-0.617732	-0.916048
N104	N	1.501144	-0.117732	-0.416048
N105	N	0.967183	-0.557592	-0.942366
N106	N	1.467183	-0.057592	-0.442366
C107	C	0.977637	-0.576441	-0.244765
C108	C	1.477637	-0.076441	0.255235
C109	C	0.975034	-0.571322	-0.165994
C110	C	1.475034	-0.071322	0.334006
H111	H	0.391735	-0.486367	-0.355035
H112	H	0.891735	0.013633	0.144965
H113	H	0.898716	-0.436308	-1.011220
H114	H	1.398716	0.063692	-0.511220
H115	H	0.903431	-0.444553	-1.145467
H116	H	1.403431	0.055447	-0.645467
H117	H	1.055023	-1.154551	-0.358118
H118	H	1.555023	-0.654551	0.141882
H119	H	0.577074	-0.689319	-0.502728
H120	H	1.077074	-0.189319	-0.002728
H121	H	1.027938	-0.982714	-0.385060
H122	H	1.527938	-0.482714	0.114940
N123	N	1.056902	-0.716246	-1.184553
N124	N	1.556902	-0.216246	-0.684553
H125	H	1.080602	-0.758240	-1.154658
H126	H	1.580602	-0.258240	-0.654658
H127	H	1.025439	-0.764699	-1.217924
H128	H	1.525439	-0.264699	-0.717924
N129	N	0.718594	-0.716642	-0.522601
N130	N	1.218594	-0.216642	-0.022601
H131	H	0.753642	-0.678165	-0.553381
H132	H	1.253642	-0.178165	-0.053381
H133	H	0.743935	-0.765110	-0.499050
H134	H	1.243935	-0.265110	0.000950
H135	H	0.913267	-1.020027	-0.499561
H136	H	1.413267	-0.520027	0.000439
H137	H	1.069609	-0.739010	-0.847197
H138	H	1.569609	-0.239010	-0.347197
N139	N	0.386162	-0.758365	-0.552973
N140	N	0.886162	-0.258365	-0.052973
H141	H	0.349363	-0.800389	-0.583558
H142	H	0.849363	-0.300389	-0.083558
H143	H	0.421215	-0.719818	-0.583703
H144	H	0.921215	-0.219818	-0.083703
N145	N	1.074957	-0.748558	-0.705149
N146	N	1.574957	-0.248558	-0.205149
H147	H	1.041377	-0.793314	-0.677123
H148	H	1.541377	-0.293314	-0.177123
H149	H	1.101093	-0.794735	-0.744619
H150	H	1.601093	-0.294735	-0.244619
H151	H	0.258859	-0.478072	-0.349015
H152	H	0.758859	0.021928	0.150985
N153	N	0.233916	-0.748874	-0.546075
N154	N	0.733916	-0.248874	-0.046075
H155	H	0.182551	-0.735059	-0.536022
H156	H	0.682551	-0.235059	-0.036022
H157	H	0.249838	-0.736631	-0.595951
H158	H	0.749838	-0.236631	-0.095951
H159	H	0.591294	-0.436356	-0.318640
H160	H	1.091294	0.063644	0.181360
H161	H	1.041435	-0.689021	-1.038542
H162	H	1.541435	-0.189021	-0.538542
N163	N	0.916841	-0.468486	-0.827654
N164	N	1.416841	0.031514	-0.327654
H165	H	0.950426	-0.423734	-0.855678
H166	H	1.450426	0.076266	-0.355678
H167	H	0.881904	-0.510852	-0.860324
H168	H	1.381904	-0.010852	-0.360324
N169	N	0.734906	-0.426818	-0.311698
N170	N	1.234906	0.073182	0.188302
H171	H	0.703076	-0.380515	-0.278001
H172	H	1.203076	0.119485	0.221999
H173	H	0.760640	-0.469153	-0.283725
H174	H	1.260640	0.030847	0.216275
N175	N	0.927715	-1.206300	-0.485238
N176	N	1.427715	-0.706300	0.014762
H177	H	0.953665	-1.255329	-0.523093
H178	H	1.453665	-0.755329	-0.023093
H179	H	0.890550	-1.247785	-0.458590
H180	H	1.390550	-0.747785	0.041410
N181	N	0.911444	-0.459051	-0.673862
N182	N	1.411444	0.040949	-0.173862
H183	H	0.887742	-0.417067	-0.703763
H184	H	1.387742	0.082933	-0.203763
H185	H	0.874397	-0.497665	-0.645168
H186	H	1.374397	0.002335	-0.145168
