data_functionalizedCrystal
_audit_creation_method	'MofGen! by Chris Wilmer'
_symmetry_space_group_name_H-M	'P1'
_symmetry_Int_Tables_number	1
_symmetry_cell_setting	triclinic
loop_
_symmetry_equiv_pos_as_xyz
  x,y,z
_cell_length_a	17.000371
_cell_length_b	15.995292
_cell_length_c	15.500227
_cell_angle_alpha	92.845027
_cell_angle_beta	87.398169
_cell_angle_gamma	79.533932
loop_
_atom_site_label
_atom_site_type_symbol
_atom_site_fract_x
_atom_site_fract_y
_atom_site_fract_z
O1	O	0.098679	1.107647	0.071968
O2	O	0.598679	1.607647	0.571968
O3	O	0.111397	0.862928	0.071964
O4	O	0.611397	1.362928	0.571964
O5	O	-0.010831	1.000482	0.071960
O6	O	0.489169	1.500482	0.571960
O7	O	0.220907	0.970093	0.071972
O8	O	0.720907	1.470093	0.571972
O9	O	-0.003443	0.992137	-0.071928
O10	O	0.496557	1.492137	0.428072
O11	O	0.118785	0.854583	-0.071924
O12	O	0.618785	1.354583	0.428076
O13	O	0.106067	1.099302	-0.071921
O14	O	0.606067	1.599302	0.428079
Cu15	Cu	0.113101	0.976181	-0.085060
Cu16	Cu	0.613101	1.476181	0.414940
Cu17	Cu	0.104363	0.986049	0.085104
Cu18	Cu	0.604363	1.486049	0.585104
O19	O	0.228295	0.961748	-0.071916
O20	O	0.728295	1.461748	0.428084
C21	C	0.114573	0.827598	0.000020
C22	C	0.614573	1.327598	0.500020
C23	C	0.113022	0.734759	0.000018
C24	C	0.613022	1.234759	0.500018
C25	C	0.107316	0.397442	0.000028
C26	C	0.607316	0.897442	0.500028
C27	C	0.195521	0.414277	0.000354
C28	C	0.695521	0.914277	0.500354
C29	C	0.197214	0.510810	0.000026
C30	C	0.697214	1.010810	0.500026
C31	C	0.110147	0.564789	0.000024
C32	C	0.610147	1.064789	0.500024
C33	C	0.070260	0.534169	-0.082143
C34	C	0.570260	1.034169	0.417857
C35	C	0.069201	0.437453	-0.082208
C36	C	0.569201	0.937453	0.417792
C37	C	0.058998	0.447220	0.081420
C38	C	0.558998	0.947220	0.581420
C39	C	0.062212	0.543535	0.082502
C40	C	0.562212	1.043535	0.582502
C41	C	0.111743	0.659367	0.000018
C42	C	0.611743	1.159367	0.500018
C43	C	0.105719	0.302863	0.000027
C44	C	0.605719	0.802863	0.500027
C45	C	-0.036791	0.997942	0.000016
C46	C	0.463209	1.497942	0.500016
C47	C	-0.125151	1.002796	0.000017
C48	C	0.374849	1.502796	0.500017
C49	C	-0.157162	0.928102	0.000020
C50	C	0.342838	1.428102	0.500020
C51	C	-0.240185	0.932667	0.000018
C52	C	0.259815	1.432667	0.500018
C53	C	-0.291197	1.011928	0.000019
C54	C	0.208803	1.511928	0.500019
C55	C	-0.259181	1.086628	0.000013
C56	C	0.240819	1.586628	0.500013
C57	C	-0.176158	1.082061	0.000010
C58	C	0.323842	1.582061	0.500010
C59	C	-0.542347	1.029568	0.000025
C60	C	-0.042347	1.529568	0.500025
C61	C	-0.625375	1.034129	0.000031
C62	C	-0.125375	1.534129	0.500031
C63	C	-0.606373	0.880167	0.000034
C64	C	-0.106373	1.380167	0.500034
C65	C	-0.523350	0.875608	0.000035
C66	C	-0.023350	1.375608	0.500035
C67	C	-0.491341	0.950307	0.000025
C68	C	0.008659	1.450307	0.500025
C69	C	-0.376061	1.016597	0.000019
C70	C	0.123939	1.516597	0.500019
C71	C	-0.406478	0.945637	0.000019
C72	C	0.093522	1.445637	0.500019
C73	C	0.254255	0.964288	0.000029
C74	C	0.754255	1.464288	0.500029
C75	C	0.342614	0.959435	0.000034
C76	C	0.842614	1.459435	0.500034
C77	C	0.102890	1.134632	0.000026
C78	C	0.602890	1.634632	0.500026
C79	C	0.104442	1.227471	0.000033
C80	C	0.604442	1.727471	0.500033
N81	N	0.119245	0.969245	-0.204745
N82	N	0.619245	1.469245	0.295255
C83	C	0.067472	1.027549	-0.250024
C84	C	0.567472	1.527549	0.249976
C85	C	0.072127	1.022312	-0.340596
C86	C	0.572127	1.522312	0.159404
C87	C	0.128559	0.958773	-0.385889
C88	C	0.628559	1.458773	0.114111
C89	C	0.180334	0.900463	-0.340604
C90	C	0.680334	1.400463	0.159396
C91	C	0.175675	0.905698	-0.250033
C92	C	0.675675	1.405698	0.249967
C93	C	0.145329	0.939916	-0.659355
C94	C	0.645329	1.439916	-0.159355
C95	C	0.149985	0.934688	-0.749933
C96	C	0.649985	1.434688	-0.249933
C97	C	0.041776	1.056536	-0.749918
C98	C	0.541776	1.556536	-0.249918
C99	C	0.037126	1.061768	-0.659346
C100	C	0.537126	1.561768	-0.159346
C101	C	0.088898	1.003455	-0.614069
C102	C	0.588898	1.503455	-0.114069
C103	C	0.133319	0.953419	-0.478469
C104	C	0.633319	1.453419	0.021531
C105	C	0.084133	1.008806	-0.521491
C106	C	0.584133	1.508806	-0.021491
N107	N	0.098212	0.992992	0.204789
N108	N	0.598212	1.492992	0.704789
H109	H	0.104028	0.548427	-0.143290
H110	H	0.604028	1.048427	0.356710
H111	H	0.004709	0.427448	-0.085942
H112	H	0.504709	0.927448	0.414058
N113	N	0.091361	0.411883	0.163919
N114	N	0.591361	0.911883	0.663919
H115	H	0.137676	0.363240	0.149365
H116	H	0.637676	0.863240	0.649365
H117	H	0.110333	0.458173	0.199573
H118	H	0.610333	0.958173	0.699573
H119	H	0.021522	1.079292	-0.213152
H120	H	0.521522	1.579292	0.286848
N121	N	-0.102145	0.842613	0.000026
N122	N	0.397855	1.342613	0.500026
H123	H	-0.135025	0.795988	0.000026
H124	H	0.364975	1.295988	0.500026
H125	H	-0.064549	0.834270	-0.053316
H126	H	0.435451	1.334270	0.446684
H127	H	-0.666908	1.098676	0.000038
H128	H	-0.166908	1.598676	0.500038
H129	H	-0.417604	1.081132	0.000022
H130	H	0.082396	1.581132	0.500022
H131	H	0.226280	0.848725	-0.377487
H132	H	0.726280	1.348725	0.122513
H133	H	0.029968	1.069787	-0.377462
H134	H	0.529968	1.569787	0.122538
H135	H	0.217834	0.858220	-0.213168
H136	H	0.717834	1.358220	0.286832
H137	H	-0.001593	0.581471	0.087463
H138	H	0.498407	1.081471	0.587463
H139	H	-0.266244	0.871844	0.000026
H140	H	0.233756	1.371844	0.500026
N141	N	-0.141631	1.162625	0.000005
N142	N	0.358369	1.662625	0.500005
H143	H	-0.081296	1.147706	-0.000004
H144	H	0.418704	1.647706	0.499996
H145	H	-0.157560	1.193938	-0.053339
H146	H	0.342440	1.693938	0.446661
H147	H	0.091205	0.563265	0.143289
H148	H	0.591205	1.063265	0.643289
H149	H	0.228728	0.530710	0.058928
H150	H	0.728728	1.030710	0.558928
H151	H	-0.005967	0.438040	0.081974
H152	H	0.494033	0.938040	0.581974
N153	N	0.023263	1.077321	-0.472632
N154	N	0.523263	1.577321	0.027368
H155	H	0.051760	1.114317	-0.435033
H156	H	0.551760	1.614317	0.064967
H157	H	-0.008822	1.113409	-0.515103
H158	H	0.491178	1.613409	-0.015103
N159	N	-0.468332	0.790119	0.000035
N160	N	0.031668	1.290119	0.500035
H161	H	-0.501209	0.743492	0.000036
H162	H	-0.001209	1.243492	0.500036
H163	H	-0.430737	0.781779	-0.053307
H164	H	0.069263	1.281779	0.446693
H165	H	-0.516296	1.090393	0.000019
H166	H	-0.016296	1.590393	0.500019
N167	N	0.201180	0.877026	-0.610540
N168	N	0.701180	1.377026	-0.110540
H169	H	0.234503	0.908593	-0.572947
H170	H	0.734503	1.408593	-0.072947
H171	H	0.168770	0.844374	-0.573029
H172	H	0.668770	1.344374	-0.073029
N173	N	-0.640897	0.799603	0.000042
N174	N	-0.140897	1.299603	0.500042
H175	H	-0.701231	0.814519	0.000043
H176	H	-0.201231	1.314519	0.500043
H177	H	-0.619501	0.762097	-0.053301
H178	H	-0.119501	1.262097	0.446699
N179	N	0.194189	0.884901	-0.527331
N180	N	0.694189	1.384901	-0.027331
H181	H	0.249874	0.891297	-0.511561
H182	H	0.749874	1.391297	-0.011561
H183	H	0.184130	0.827092	-0.511574
H184	H	0.684130	1.327092	-0.011574
N185	N	-0.314196	1.172118	0.000003
N186	N	0.185804	1.672118	0.500003
H187	H	-0.371649	1.163678	0.000007
H188	H	0.128351	1.663678	0.500007
H189	H	-0.306566	1.208032	0.053342
H190	H	0.193434	1.708032	0.553342
N191	N	0.236500	0.378320	0.078405
N192	N	0.736500	0.878320	0.578405
H193	H	0.237940	0.314868	0.077198
H194	H	0.737940	0.814868	0.577198
H195	H	0.293011	0.389806	0.077394
H196	H	0.793011	0.889806	0.577394
N197	N	-0.351454	0.860155	0.000005
N198	N	0.148546	1.360155	0.500005
H199	H	-0.319315	0.857927	0.053339
H200	H	0.180685	1.357927	0.553339
H201	H	-0.384374	0.813568	-0.000027
H202	H	0.115626	1.313568	0.499973
N203	N	-0.023739	1.130300	-0.610496
N204	N	0.476261	1.630300	-0.110496
H205	H	-0.055833	1.166441	-0.652924
H206	H	0.444167	1.666441	-0.152924
H207	H	-0.060871	1.103010	-0.572931
H208	H	0.439129	1.603010	-0.072931
N209	N	-0.014062	1.119426	-0.798752
N210	N	0.485938	1.619426	-0.298752
H211	H	-0.002550	1.106472	-0.863001
H212	H	0.497450	1.606472	-0.363001
H213	H	-0.071345	1.114829	-0.782932
H214	H	0.428655	1.614829	-0.282932
H215	H	0.195943	0.882944	-0.786806
H216	H	0.695943	1.382944	-0.286806
H217	H	0.006347	0.570577	-0.085200
H218	H	0.506347	1.070577	0.414800
H219	H	0.232345	0.379371	-0.058238
H220	H	0.732345	0.879371	0.441762
H221	H	0.102901	0.404825	-0.143628
H222	H	0.602901	0.904825	0.356372
N223	N	0.247259	0.527277	-0.078119
N224	N	0.747259	1.027277	0.421881
H225	H	0.268298	0.471783	-0.112491
H226	H	0.768298	0.971783	0.387509
H227	H	0.213210	0.567671	-0.115501
H228	H	0.713210	1.067671	0.384499
