data_functionalizedCrystal
_audit_creation_method	'MofGen! by Chris Wilmer'
_symmetry_space_group_name_H-M	'P1'
_symmetry_Int_Tables_number	1
_symmetry_cell_setting	triclinic
loop_
_symmetry_equiv_pos_as_xyz
  x,y,z
_cell_length_a	19.805407
_cell_length_b	19.077114
_cell_length_c	19.805398
_cell_angle_alpha	87.729807
_cell_angle_beta	89.988649
_cell_angle_gamma	87.674325
loop_
_atom_site_label
_atom_site_type_symbol
_atom_site_fract_x
_atom_site_fract_y
_atom_site_fract_z
Zn1	Zn	1.023852	0.280261	-0.393514
Zn2	Zn	1.357185	0.613594	-0.060180
Zn3	Zn	1.690518	0.946927	0.273153
Zn4	Zn	1.019226	0.397962	-0.284872
Zn5	Zn	1.352560	0.731295	0.048462
Zn6	Zn	1.685893	1.064628	0.381795
Zn7	Zn	0.910678	0.280277	-0.280342
Zn8	Zn	1.244012	0.613610	0.052991
Zn9	Zn	1.577345	0.946943	0.386324
Zn10	Zn	0.906079	0.397917	-0.398020
Zn11	Zn	1.239412	0.731250	-0.064687
Zn12	Zn	1.572745	1.064583	0.268646
O13	O	0.964959	0.339104	-0.339187
O14	O	1.298292	0.672437	-0.005854
O15	O	1.631625	1.005770	0.327480
O16	O	1.117954	0.295886	-0.379111
O17	O	1.451288	0.629219	-0.045778
O18	O	1.784621	0.962553	0.287555
O19	O	1.004817	0.382376	-0.189555
O20	O	1.338150	0.715709	0.143778
O21	O	1.671483	1.049043	0.477111
O22	O	0.929552	0.181784	-0.291573
O23	O	1.262885	0.515117	0.041760
O24	O	1.596218	0.848450	0.375094
O25	O	1.114556	0.382360	-0.299293
O26	O	1.447889	0.715694	0.034040
O27	O	1.781223	1.049027	0.367374
O28	O	1.012700	0.181772	-0.374719
O29	O	1.346033	0.515105	-0.041386
O30	O	1.679366	0.848438	0.291947
O31	O	0.925067	0.295913	-0.186227
O32	O	1.258400	0.629247	0.147106
O33	O	1.591734	0.962580	0.480439
O34	O	0.815352	0.295870	-0.295943
O35	O	1.148686	0.629203	0.037390
O36	O	1.482019	0.962536	0.370724
O37	O	0.921712	0.382284	-0.492138
O38	O	1.255046	0.715617	-0.158805
O39	O	1.588379	1.048950	0.174529
O40	O	0.811973	0.382299	-0.382401
O41	O	1.145306	0.715633	-0.049067
O42	O	1.478639	1.048966	0.284266
O43	O	1.008240	0.295842	-0.488827
O44	O	1.341573	0.629176	-0.155494
O45	O	1.674906	0.962509	0.177840
O46	O	1.000356	0.496446	-0.303663
O47	O	1.333690	0.829780	0.029670
O48	O	1.667023	1.163113	0.363004
O49	O	0.917227	0.496413	-0.386793
O50	O	1.250561	0.829747	-0.053459
O51	O	1.583894	1.163080	0.279874
C52	C	0.789104	0.339082	-0.339170
C53	C	1.122437	0.672415	-0.005836
C54	C	1.455770	1.005748	0.327497
C55	C	0.713871	0.339089	-0.339179
C56	C	1.047205	0.672423	-0.005846
C57	C	1.380538	1.005756	0.327488
C58	C	0.680294	0.294142	-0.380809
C59	C	1.013628	0.627475	-0.047476
C60	C	1.346961	0.960808	0.285857
C61	C	0.609606	0.294145	-0.380812
C62	C	0.942939	0.627479	-0.047479
C63	C	1.276272	0.960812	0.285854
C64	C	0.572495	0.339101	-0.339188
C65	C	0.905829	0.672434	-0.005854
C66	C	1.239162	1.005767	0.327479
C67	C	0.606077	0.384050	-0.297552
C68	C	0.939411	0.717384	0.035781
C69	C	1.272744	1.050717	0.369114
C70	C	0.676765	0.384043	-0.297547
C71	C	1.010098	0.717376	0.035787
C72	C	1.343432	1.050709	0.369120
C73	C	0.321003	0.384082	-0.297574
C74	C	0.654336	0.717415	0.035759
C75	C	0.987670	1.050749	0.369092
C76	C	0.250311	0.384088	-0.297585
C77	C	0.583644	0.717421	0.035748
C78	C	0.916977	1.050754	0.369082
C79	C	0.253844	0.294185	-0.380840
C80	C	0.587177	0.627518	-0.047507
C81	C	0.920510	0.960852	0.285827
C82	C	0.324531	0.294177	-0.380834
C83	C	0.657864	0.627510	-0.047501
C84	C	0.991198	0.960844	0.285833
C85	C	0.358107	0.339124	-0.339197
C86	C	0.691440	0.672457	-0.005863
C87	C	1.024774	1.005790	0.327470
C88	C	0.434756	0.339118	-0.339193
C89	C	0.768089	0.672452	-0.005860
C90	C	1.101422	1.005785	0.327473
C91	C	0.495848	0.339110	-0.339194
C92	C	0.829181	0.672444	-0.005861
C93	C	1.162515	1.005777	0.327473
C94	C	0.957809	0.521968	-0.346223
C95	C	1.291143	0.855301	-0.012890
C96	C	1.624476	1.188634	0.320444
C97	C	0.954813	0.600197	-0.349256
C98	C	1.288146	0.933531	-0.015923
C99	C	1.621479	1.266864	0.317411
C100	C	0.996719	0.636944	-0.307435
C101	C	1.330052	0.970277	0.025898
C102	C	1.663386	1.303611	0.359231
C103	C	0.993905	0.710449	-0.310292
C104	C	1.327238	1.043782	0.023042
C105	C	1.660571	1.377116	0.356375
C106	C	0.949180	0.747207	-0.354966
C107	C	1.282513	1.080540	-0.021632
C108	C	1.615846	1.413873	0.311701
C109	C	0.907271	0.710455	-0.396791
C110	C	1.240605	1.043788	-0.063457
C111	C	1.573938	1.377122	0.269876
C112	C	0.910090	0.636951	-0.393937
C113	C	1.243423	0.970284	-0.060604
C114	C	1.576756	1.303618	0.272729
C115	C	0.936109	0.967041	-0.368140
C116	C	1.269442	1.300374	-0.034807
C117	C	1.602775	1.633707	0.298526
C118	C	0.933292	1.040550	-0.370989
C119	C	1.266625	1.373883	-0.037656
C120	C	1.599959	1.707216	0.295677
C121	C	1.019927	1.040539	-0.284491
C122	C	1.353260	1.373872	0.048843
C123	C	1.686593	1.707205	0.382176
C124	C	1.022738	0.967033	-0.281638
C125	C	1.356072	1.300367	0.051695
C126	C	1.689405	1.633700	0.385028
C127	C	0.980832	0.930288	-0.323466
C128	C	1.314166	1.263621	0.009867
C129	C	1.647499	1.596955	0.343201
N130	N	0.946300	0.822341	-0.357885
N131	N	1.279633	1.155674	-0.024552
N132	N	1.612967	1.489008	0.308782
N133	N	0.983716	0.855155	-0.320550
N134	N	1.317049	1.188489	0.012784
N135	N	1.650382	1.521822	0.346117
C136	C	1.141501	0.339126	-0.339205
C137	C	1.474834	0.672460	-0.005871
C138	C	1.808167	1.005793	0.327462
C139	C	1.216732	0.339136	-0.339212
C140	C	1.550066	0.672469	-0.005879
C141	C	1.883399	1.005803	0.327454
C142	C	0.964979	0.339056	-0.515728
C143	C	1.298312	0.672390	-0.182395
C144	C	1.631645	1.005723	0.150939
C145	C	0.964987	0.339036	-0.590959
C146	C	1.298321	0.672369	-0.257626
C147	C	1.631654	1.005703	0.075708
C148	C	0.972149	1.155526	-0.332147
C149	C	1.305482	1.488859	0.001187
C150	C	1.638816	1.822193	0.334520
C151	C	0.975199	1.077296	-0.329169
C152	C	1.308532	1.410629	0.004165
C153	C	1.641865	1.743963	0.337498
C154	C	1.006624	0.383945	-1.054476
C155	C	1.339957	0.717278	-0.721143
C156	C	1.673291	1.050612	-0.387810
C157	C	1.006605	0.383964	-0.983789
C158	C	1.339938	0.717298	-0.650455
C159	C	1.673271	1.050631	-0.317122
C160	C	0.965074	0.338957	-0.946718
C161	C	1.298408	0.672290	-0.613385
C162	C	1.631741	1.005623	-0.280051
C163	C	0.923556	0.293932	-0.980339
C164	C	1.256889	0.627265	-0.647005
C165	C	1.590223	0.960599	-0.313672
C166	C	0.923572	0.293917	-1.051025
C167	C	1.256906	0.627250	-0.717692
C168	C	1.590239	0.960584	-0.384359
C169	C	0.923488	0.293992	-0.695268
C170	C	1.256822	0.627326	-0.361934
C171	C	1.590155	0.960659	-0.028601
C172	C	0.923477	0.294009	-0.624576
C173	C	1.256810	0.627343	-0.291243
C174	C	1.590143	0.960676	0.042090
C175	C	1.006520	0.384039	-0.628031
C176	C	1.339854	0.717373	-0.294698
C177	C	1.673187	1.050706	0.038636
C178	C	1.006537	0.384024	-0.698718
C179	C	1.339870	0.717358	-0.365384
C180	C	1.673204	1.050691	-0.032051
C181	C	0.965016	0.339003	-0.732332
C182	C	1.298349	0.672336	-0.398999
C183	C	1.631683	1.005669	-0.065666
C184	C	0.965037	0.338984	-0.808980
C185	C	1.298370	0.672317	-0.475647
C186	C	1.631703	1.005650	-0.142313
C187	C	0.965057	0.338972	-0.870071
C188	C	1.298390	0.672305	-0.536738
C189	C	1.631723	1.005638	-0.203405
C190	C	0.964980	0.339100	-0.163331
C191	C	1.298313	0.672434	0.170002
C192	C	1.631647	1.005767	0.503336
C193	C	0.965110	0.338922	-0.088092
C194	C	1.298444	0.672256	0.245241
C195	C	1.631777	1.005589	0.578574
H196	H	0.226498	0.257585	-0.414741
H197	H	0.559831	0.590918	-0.081407
H198	H	0.893164	0.924251	0.251926
C199	C	0.209491	0.433539	-0.251786
C200	C	0.542824	0.766872	0.081547
C201	C	0.876157	1.100205	0.414880
N202	N	0.178745	0.470782	-0.217292
N203	N	0.512079	0.804115	0.116041
N204	N	0.845412	1.137449	0.449375
C205	C	0.877825	0.244456	-0.732234
C206	C	1.211158	0.577790	-0.398901
C207	C	1.544491	0.911123	-0.065568
N208	N	0.843432	0.207140	-0.760080
N209	N	1.176765	0.540474	-0.426746
N210	N	1.510098	0.873807	-0.093413
H211	H	0.889738	0.257289	-0.950150
H212	H	1.223071	0.590623	-0.616817
H213	H	1.556405	0.923956	-0.283484
H214	H	0.889768	0.257254	-1.078394
H215	H	1.223102	0.590587	-0.745061
H216	H	1.556435	0.923921	-0.411728
H217	H	0.348332	0.420681	-0.263671
H218	H	0.681665	0.754014	0.069662
H219	H	1.014998	1.087348	0.402995
H220	H	1.040327	0.420701	-0.600654
H221	H	1.373660	0.754034	-0.267320
H222	H	1.706993	1.087367	0.066013
C223	C	0.565254	0.433501	-0.251764
C224	C	0.898587	0.766834	0.081570
C225	C	1.231920	1.100167	0.414903
N226	N	0.534506	0.470750	-0.217277
N227	N	0.867839	0.804083	0.116057
N228	N	1.201172	1.137416	0.449390
C229	C	0.713699	0.433490	-0.251751
C230	C	1.047033	0.766823	0.081582
C231	C	1.380366	1.100157	0.414915
N232	N	0.741517	0.470734	-0.217256
N233	N	1.074851	0.804067	0.116078
N234	N	1.408184	1.137401	0.449411
C235	C	1.045919	0.596517	-0.258288
C236	C	1.379252	0.929851	0.075045
C237	C	1.712586	1.263184	0.408378
N238	N	1.082980	0.566070	-0.221271
N239	N	1.416313	0.899403	0.112062
N240	N	1.749646	1.232737	0.445396
C241	C	0.721109	0.244686	-0.426600
C242	C	1.054442	0.578019	-0.093267
C243	C	1.387776	0.911353	0.240067
N244	N	0.751849	0.207432	-0.461089
N245	N	1.085183	0.540765	-0.127755
N246	N	1.418516	0.874098	0.205578
H247	H	1.054045	1.070464	-0.250438
H248	H	1.387378	1.403798	0.082895
H249	H	1.720712	1.737131	0.416228
C250	C	0.572674	0.244702	-0.426611
C251	C	0.906007	0.578035	-0.093278
C252	C	1.239341	0.911368	0.240055
N253	N	0.544858	0.207459	-0.461109
N254	N	0.878191	0.540792	-0.127776
N255	N	1.211524	0.874125	0.205557
H256	H	1.028029	0.740365	-0.276237
H257	H	1.361362	1.073698	0.057097
H258	H	1.694696	1.407032	0.390430
C259	C	1.071922	0.926606	-0.232476
C260	C	1.405255	1.259939	0.100857
C261	C	1.738588	1.593272	0.434191
N262	N	1.108960	0.896155	-0.195438
N263	N	1.442293	1.229489	0.137895
N264	N	1.775626	1.562822	0.471228
H265	H	0.896880	1.070476	-0.407380
H266	H	1.230213	1.403809	-0.074047
H267	H	1.563546	1.737142	0.259287
C268	C	0.365349	0.244720	-0.426622
C269	C	0.698682	0.578054	-0.093288
C270	C	1.032015	0.911387	0.240045
N271	N	0.396092	0.207465	-0.461107
N272	N	0.729425	0.540798	-0.127774
N273	N	1.062758	0.874132	0.205560
H274	H	0.889656	0.257356	-0.594395
H275	H	1.222989	0.590690	-0.261062
H276	H	1.556322	0.924023	0.072272
H277	H	0.901986	0.937128	-0.402197
H278	H	1.235319	1.270462	-0.068863
H279	H	1.568653	1.603795	0.264470
H280	H	0.870858	0.740389	-0.433168
H281	H	1.204191	1.073722	-0.099835
H282	H	1.537525	1.407056	0.233498
H283	H	1.040446	0.420592	-1.084654
H284	H	1.373779	0.753926	-0.751321
H285	H	1.707113	1.087259	-0.417988
C286	C	0.863989	0.596530	-0.439944
C287	C	1.197323	0.929864	-0.106610
C288	C	1.530656	1.263197	0.226723
N289	N	0.829267	0.566087	-0.474599
N290	N	1.162600	0.899420	-0.141266
N291	N	1.495933	1.232753	0.192068
C292	C	1.052307	0.433458	-0.946813
C293	C	1.385641	0.766792	-0.613480
C294	C	1.718974	1.100125	-0.280147
N295	N	1.086745	0.470728	-0.918963
N296	N	1.420078	0.804061	-0.585630
N297	N	1.753412	1.137394	-0.252297
C298	C	1.052222	0.433538	-0.739492
C299	C	1.385555	0.766871	-0.406158
C300	C	1.718888	1.100204	-0.072825
N301	N	1.086630	0.470835	-0.770202
N302	N	1.419963	0.804168	-0.436868
N303	N	1.753297	1.137501	-0.103535
