data_functionalizedCrystal
_audit_creation_method	'MofGen! by Chris Wilmer'
_symmetry_space_group_name_H-M	'P1'
_symmetry_Int_Tables_number	1
_symmetry_cell_setting	triclinic
loop_
_symmetry_equiv_pos_as_xyz
  x,y,z
_cell_length_a	17.038272
_cell_length_b	14.853567
_cell_length_c	13.930277
_cell_angle_alpha	90.004245
_cell_angle_beta	89.995405
_cell_angle_gamma	92.626757
loop_
_atom_site_label
_atom_site_type_symbol
_atom_site_fract_x
_atom_site_fract_y
_atom_site_fract_z
O1	O	0.102086	-1.204051	-0.079765
O2	O	0.114247	-0.942506	-0.079782
O3	O	-0.005651	-1.071724	-0.079766
O4	O	0.221984	-1.074833	-0.079781
O5	O	-0.005654	-1.071705	0.079896
O6	O	0.114244	-0.942487	0.079880
O7	O	0.102083	-1.204031	0.079897
Zn8	Zn	0.108163	-1.073256	0.105238
Zn9	Zn	0.108167	-1.073282	-0.105123
O10	O	0.221981	-1.074814	0.079881
C11	C	0.113695	-0.908866	0.000047
C12	C	0.112043	-0.808658	0.000041
C13	C	-0.034784	-1.068887	0.000065
C14	C	-0.121588	-1.060451	0.000064
C15	C	0.102636	-1.237671	0.000066
C16	C	0.104287	-1.337879	0.000065
C17	C	-0.171601	-1.137904	0.000070
C18	C	-0.253162	-1.129972	0.000060
C19	C	-0.284709	-1.044586	0.000051
C20	C	-0.234690	-0.967127	0.000043
C21	C	-0.153130	-0.975060	0.000045
C22	C	-0.530503	-1.016561	0.000036
C23	C	-0.612069	-1.008634	0.000037
C24	C	-0.630535	-1.171480	0.000052
C25	C	-0.548974	-1.179405	0.000061
C26	C	-0.498962	-1.101946	0.000047
C27	C	-0.368077	-1.036476	0.000045
C28	C	-0.415595	-1.110056	0.000047
C29	C	0.251114	-1.077651	0.000048
C30	C	0.337918	-1.086087	0.000042
N31	N	0.108161	-1.073245	0.248804
C32	C	0.033841	-0.390240	0.000067
C33	C	0.176283	-0.379678	0.000057
C34	C	0.177835	-0.473828	0.000054
C35	C	0.107390	-0.526189	0.000056
C36	C	0.035392	-0.484399	0.000061
C37	C	0.249832	-0.515626	0.000039
C38	C	0.251388	-0.609782	0.000035
C39	C	0.180941	-0.662144	0.000044
C40	C	0.108940	-0.620349	0.000050
C41	C	0.038495	-0.672709	0.000052
C42	C	-0.033507	-0.630915	0.000065
C43	C	-0.035055	-0.536762	0.000070
C44	C	0.182489	-0.756298	0.000039
C45	C	0.040045	-0.766869	0.000046
N46	N	0.108163	-1.073299	-0.248689
C47	C	0.161237	-1.016060	0.701066
C48	C	0.055091	-1.130528	0.701050
C49	C	0.055088	-1.130517	0.600554
C50	C	0.108162	-1.073278	0.550310
C51	C	0.161237	-1.016049	0.600561
C52	C	0.002019	-1.187750	0.550295
C53	C	0.002015	-1.187742	0.449793
C54	C	0.055085	-1.130498	0.399547
C55	C	0.108162	-1.073267	0.449805
C56	C	0.161236	-1.016028	0.399561
C57	C	0.214310	-0.958791	0.449817
C58	C	0.214308	-0.958805	0.550315
C59	C	0.055087	-1.130484	0.299048
C60	C	0.161236	-1.016017	0.299056
H61	H	-0.293879	-1.193043	0.000067
C62	C	-0.671397	-1.307828	0.082136
C63	C	-0.685510	-1.256618	0.000057
H64	H	-0.705340	-1.360388	0.082137
H65	H	-0.618315	-1.324767	0.082132
H66	H	-0.680979	-1.273059	0.137806
H67	H	-0.675923	-1.291385	-0.055613
H68	H	-0.738605	-1.239680	0.000052
C69	C	-0.175701	-0.556659	0.000077
C70	C	-0.114194	-0.490821	0.000073
H71	H	-0.224557	-0.528293	0.000081
H72	H	-0.172132	-0.593166	-0.055596
H73	H	-0.172134	-0.593160	0.055760
H74	H	-0.117758	-0.454325	-0.055613
H75	H	-0.117765	-0.454299	0.055752
C76	C	0.266161	-0.902870	0.309168
C77	C	0.219580	-0.953099	0.243831
H78	H	0.302182	-0.864032	0.275072
H79	H	0.233558	-0.867948	0.348369
H80	H	0.294343	-0.942567	0.348362
H81	H	0.191392	-0.913401	0.204641
H82	H	0.252186	-0.988022	0.204613
C83	C	-0.090585	-1.241302	-0.081994
C84	C	-0.136925	-1.231762	0.000078
H85	H	-0.069177	-1.299246	-0.081986
H86	H	-0.122015	-1.234833	-0.137662
H87	H	-0.049128	-1.196304	-0.081984
H88	H	-0.178386	-1.276756	0.000065
H89	H	-0.105493	-1.238240	0.055761
C90	C	-0.104530	-1.198868	0.337051
C91	C	-0.056501	-1.250531	0.394675
H92	H	-0.140704	-1.237597	0.303055
H93	H	-0.132533	-1.159096	0.376356
H94	H	-0.072925	-1.164884	0.292652
H95	H	-0.088105	-1.284510	0.439079
H96	H	-0.028496	-1.290319	0.355366
H97	H	0.257526	-0.912191	0.408896
C98	C	0.257168	-0.267664	-0.082019
C99	C	0.253712	-0.322122	0.000054
H100	H	0.304970	-0.232125	-0.082014
H101	H	0.254822	-0.304618	-0.137686
H102	H	0.214062	-0.229306	-0.082007
H103	H	0.296815	-0.360485	0.000039
H104	H	0.256066	-0.285165	0.055736
H105	H	-0.260382	-0.897604	0.000030
C106	C	-0.104359	-1.199150	0.663321
C107	C	-0.056317	-1.250657	0.605531
H108	H	-0.140378	-1.237986	0.697423
H109	H	-0.072748	-1.165070	0.707620
H110	H	-0.132545	-1.159471	0.624109
H111	H	-0.028127	-1.290332	0.644745
H112	H	-0.087932	-1.284752	0.561228
C113	C	-0.051275	-1.141920	0.186005
C114	C	-0.003224	-1.193405	0.243791
H115	H	-0.087266	-1.180773	0.151884
H116	H	-0.079484	-1.102265	0.225215
H117	H	-0.019660	-1.107817	0.141714
H118	H	-0.034839	-1.227503	0.288086
H119	H	0.024987	-1.233077	0.204577
H120	H	-0.523295	-1.248935	0.000068
C121	C	-0.585627	-0.848456	-0.000008
C122	C	-0.646747	-0.914770	0.000012
H123	H	-0.607038	-0.790513	-0.000030
H124	H	-0.554205	-0.854916	0.055668
H125	H	-0.554195	-0.854957	-0.055688
H126	H	-0.678175	-0.908273	0.055695
H127	H	-0.678182	-0.908307	-0.055670
C128	C	0.330710	-0.403599	-0.082028
C129	C	0.327259	-0.458066	0.000038
H130	H	0.378509	-0.368057	-0.082022
H131	H	0.328363	-0.440546	-0.137701
H132	H	0.287601	-0.365244	-0.082008
H133	H	0.370364	-0.496426	0.000014
H134	H	0.329613	-0.421115	0.055725
C135	C	-0.428082	-0.931005	-0.082053
C136	C	-0.475542	-0.931415	0.000026
H137	H	-0.394153	-0.878432	-0.082061
H138	H	-0.397618	-0.982980	-0.082043
H139	H	-0.460290	-0.931309	-0.137723
H140	H	-0.443333	-0.931118	0.055696
H141	H	-0.506008	-0.879426	0.000024
C142	C	0.392032	-0.589874	0.000035
C143	C	0.330529	-0.655717	0.000033
H144	H	0.440890	-0.618235	0.000042
H145	H	0.388469	-0.553378	-0.055641
H146	H	0.388455	-0.553363	0.055715
H147	H	0.334104	-0.692224	-0.055651
H148	H	0.334095	-0.692228	0.055714
H149	H	0.257519	-0.912206	0.591240
H150	H	-0.112410	-0.911989	0.000040
H151	H	0.011884	-1.177135	0.741962
C152	C	-0.334579	-1.213451	-0.082015
C153	C	-0.380918	-1.203910	0.000057
H154	H	-0.313162	-1.271391	-0.082001
H155	H	-0.366011	-1.206993	-0.137683
H156	H	-0.293128	-1.168446	-0.082011
H157	H	-0.422373	-1.248911	0.000050
H158	H	-0.349484	-1.210377	0.055740
H159	H	0.241112	-0.790322	0.000030
C160	C	-0.100912	-0.767851	0.000054
C161	C	-0.037393	-0.824420	0.000044
H162	H	-0.148717	-0.803382	0.000046
H163	H	-0.098555	-0.730913	0.055733
H164	H	-0.098546	-0.730901	-0.055622
H165	H	-0.039755	-0.861365	0.055724
H166	H	-0.039751	-0.861373	-0.055642
H167	H	0.204447	-0.969456	0.741987
H168	H	-0.393771	-0.966954	0.000040
H169	H	-0.090863	-0.673560	0.000061
H170	H	-0.024781	-0.356207	0.000082
