data_functionalizedCrystal
_audit_creation_method	'MofGen! by Chris Wilmer'
_symmetry_space_group_name_H-M	'P1'
_symmetry_Int_Tables_number	1
_symmetry_cell_setting	triclinic
loop_
_symmetry_equiv_pos_as_xyz
  x,y,z
_cell_length_a	11.792241
_cell_length_b	10.654550
_cell_length_c	9.130313
_cell_angle_alpha	90.004369
_cell_angle_beta	89.999317
_cell_angle_gamma	84.339173
loop_
_atom_site_label
_atom_site_type_symbol
_atom_site_fract_x
_atom_site_fract_y
_atom_site_fract_z
O1	O	-1.507305	-0.172135	-0.121657
O2	O	-1.007305	0.327865	0.378343
O3	O	-1.177005	-0.189875	-0.121691
O4	O	-0.677005	0.310125	0.378309
O5	O	-1.349749	0.001755	-0.121664
O6	O	-0.849749	0.501755	0.378336
O7	O	-1.334561	-0.363766	-0.121684
O8	O	-0.834561	0.136234	0.378316
O9	O	-1.349737	0.001761	0.121935
O10	O	-0.849737	0.501761	0.621935
O11	O	-1.176993	-0.189870	0.121908
O12	O	-0.676993	0.310130	0.621908
O13	O	-1.507293	-0.172130	0.121942
O14	O	-1.007293	0.327870	0.621942
Cu15	Cu	-1.342142	-0.180999	0.144168
Cu16	Cu	-0.842142	0.319001	0.644168
Cu17	Cu	-1.342156	-0.181006	-0.143916
Cu18	Cu	-0.842156	0.318994	0.356084
O19	O	-1.334549	-0.363760	0.121915
O20	O	-0.834549	0.136240	0.621915
C21	C	-1.134705	-0.188758	0.000104
C22	C	-0.634705	0.311242	0.500104
C23	C	-1.008684	-0.185423	0.000092
C24	C	-0.508684	0.314577	0.500092
C25	C	-1.348628	0.048553	0.000135
C26	C	-0.848628	0.548553	0.500135
C27	C	-1.345291	0.187987	0.000132
C28	C	-0.845291	0.687987	0.500132
C29	C	-1.549592	-0.173247	0.000144
C30	C	-1.049592	0.326753	0.500144
C31	C	-1.675614	-0.176582	0.000147
C32	C	-1.175614	0.323418	0.500147
C33	C	-0.777958	-0.179290	0.000134
C34	C	-0.277958	0.320710	0.500134
C35	C	-0.906351	-0.182697	0.000111
C36	C	-0.406351	0.317303	0.500111
C37	C	-1.335670	-0.410558	0.000113
C38	C	-0.835670	0.089442	0.500113
C39	C	-1.339006	-0.549992	0.000106
C40	C	-0.839006	-0.049992	0.500106
N41	N	-1.342140	-0.180994	0.346790
N42	N	-0.842140	0.319006	0.846790
C43	C	-1.447000	0.267760	0.000142
C44	C	-0.947000	0.767760	0.500142
C45	C	-1.443859	0.398772	0.000124
C46	C	-0.943859	0.898772	0.500124
C47	C	-1.237290	0.370225	0.000092
C48	C	-0.737290	0.870225	0.500092
C49	C	-1.240433	0.239215	0.000100
C50	C	-0.740433	0.739215	0.500100
N51	N	-1.342166	-0.181001	-0.346539
N52	N	-0.842166	0.318999	0.153461
C53	C	-1.418657	-0.096175	0.423454
C54	C	-0.918657	0.403825	0.923454
C55	C	-1.418668	-0.096176	0.576791
C56	C	-0.918668	0.403824	1.076791
C57	C	-1.265641	-0.265824	0.576787
C58	C	-0.765641	0.234176	1.076787
C59	C	-1.265626	-0.265816	0.423453
C60	C	-0.765626	0.234184	0.923453
H61	H	-1.532383	0.226055	0.000166
H62	H	-1.032383	0.726055	0.500166
F63	F	-1.132174	0.154309	0.000079
F64	F	-0.632174	0.654309	0.500079
H65	H	-1.526681	0.463719	0.000129
H66	H	-1.026681	0.963719	0.500129
F67	F	-1.125698	0.424757	0.000057
F68	F	-0.625698	0.924757	0.500057
F69	F	-1.500088	-0.005896	0.341870
F70	F	-1.000088	0.494104	0.841870
F71	F	-1.500106	-0.005898	0.658377
F72	F	-1.000106	0.494102	1.158377
F73	F	-1.184215	-0.356097	0.658386
F74	F	-0.684215	0.143903	1.158386
H75	H	-1.203311	-0.334886	0.361029
H76	H	-0.703311	0.165114	0.861029
