data_functionalizedCrystal
_audit_creation_method	'MofGen! by Chris Wilmer'
_symmetry_space_group_name_H-M	'P1'
_symmetry_Int_Tables_number	1
_symmetry_cell_setting	triclinic
loop_
_symmetry_equiv_pos_as_xyz
  x,y,z
_cell_length_a	21.395355
_cell_length_b	12.759401
_cell_length_c	12.759399
_cell_angle_alpha	90.016641
_cell_angle_beta	90.014263
_cell_angle_gamma	90.022740
loop_
_atom_site_label
_atom_site_type_symbol
_atom_site_fract_x
_atom_site_fract_y
_atom_site_fract_z
Zn1	Zn	-0.354250	-1.606282	0.418345
Zn2	Zn	-0.249480	-1.606166	0.594010
Zn3	Zn	-0.249490	-1.430575	0.418350
Zn4	Zn	-0.354223	-1.430571	0.593987
O5	O	-0.301861	-1.518399	0.506173
O6	O	-0.340359	-1.753288	0.441655
O7	O	-0.161803	-1.582827	0.570720
O8	O	-0.263401	-1.453933	0.271328
O9	O	-0.263385	-1.753203	0.570715
O10	O	-0.340368	-1.583024	0.271325
O11	O	-0.161810	-1.453821	0.441663
O12	O	-0.263376	-1.283554	0.441641
O13	O	-0.441905	-1.453926	0.570677
O14	O	-0.340323	-1.283551	0.570681
O15	O	-0.441924	-1.583020	0.441633
O16	O	-0.263359	-1.582823	0.741028
O17	O	-0.340314	-1.453814	0.741011
C18	C	-0.301846	-1.518334	0.779141
C19	C	-0.301861	-1.518403	0.895917
C20	C	-0.301848	-1.245431	0.506160
C21	C	-0.301858	-1.128655	0.506180
C22	C	-0.465284	-1.518486	0.506152
C23	C	-0.534925	-1.518523	0.506143
C24	C	-0.567649	-1.585739	0.438947
C25	C	-0.633085	-1.585738	0.438902
C26	C	-0.665794	-1.518531	0.506071
C27	C	-0.633062	-1.451302	0.573272
C28	C	-0.567627	-1.451298	0.573308
C29	C	-0.769464	-1.510213	0.600670
C30	C	-0.834897	-1.510225	0.600636
C31	C	-0.867615	-1.518538	0.505960
C32	C	-0.834891	-1.526861	0.411315
C33	C	-0.769457	-1.526857	0.411351
C34	C	-0.736746	-1.518528	0.506039
C35	C	-0.971291	-1.585756	0.438710
C36	C	-1.036728	-1.585747	0.438663
C37	C	-1.036703	-1.451317	0.573042
C38	C	-0.971268	-1.451320	0.573080
C39	C	-0.938566	-1.518545	0.505915
C40	C	-0.139073	-1.518372	0.506119
C41	C	-0.069432	-1.518539	0.505832
C42	C	-0.301874	-1.792432	0.506187
C43	C	-0.301879	-1.909209	0.506193
C44	C	-0.341861	-1.073819	0.573473
C45	C	-0.341874	-0.964095	0.573477
C46	C	-0.261874	-0.964052	0.438892
C47	C	-0.261865	-1.073774	0.438883
C48	C	-0.301889	-1.518492	0.232140
C49	C	-0.301901	-1.518532	0.115363
C50	C	-0.261837	-1.585654	0.950753
C51	C	-0.261858	-1.585722	1.060477
C52	C	-0.341930	-1.451277	1.060520
C53	C	-0.341911	-1.451216	0.950798
H54	H	-0.541027	-1.640478	0.384255
C55	C	-0.385877	-0.903776	0.647505
C56	C	-0.380634	-0.918830	0.766927
C57	C	-0.424640	-0.858512	0.840956
C58	C	-0.473889	-0.783141	0.795564
C59	C	-0.479134	-0.768085	0.676136
C60	C	-0.435128	-0.828402	0.602107
H61	H	-0.344175	-0.974627	0.800534
H62	H	-0.420758	-0.869659	0.929365
H63	H	-0.506465	-0.738491	0.850365
H64	H	-0.515593	-0.712288	0.642529
H65	H	-0.439011	-0.817256	0.513698
H66	H	-0.861529	-1.533632	0.334221
H67	H	-0.229312	-0.919355	0.384103
C68	C	-0.217855	-1.134100	0.364859
C69	C	-0.223090	-1.119045	0.245436
C70	C	-0.179083	-1.179370	0.171414
C71	C	-0.129841	-1.254750	0.216814
C72	C	-0.124605	-1.269808	0.336242
C73	C	-0.168611	-1.209483	0.410265
H74	H	-0.259543	-1.063241	0.211823
H75	H	-0.182960	-1.168222	0.083004
H76	H	-0.097265	-1.299406	0.162018
H77	H	-0.088151	-1.325611	0.369856
H78	H	-0.164735	-1.220630	0.498674
H79	H	-0.374507	-1.396451	0.906148
H80	H	-0.229226	-1.640364	0.906071
H81	H	-0.229266	-1.640486	1.105119
H82	H	-0.374536	-1.396574	1.105217
H83	H	-0.659734	-1.640471	0.384177
C84	C	-0.385857	-1.134188	0.647489
C85	C	-0.435088	-1.209674	0.602080
C86	C	-0.479087	-1.270039	0.676094
C87	C	-0.473856	-1.254919	0.795519
C88	C	-0.424623	-1.179429	0.840934
C89	C	-0.380624	-1.119064	0.766919
H90	H	-0.438963	-1.220870	0.513669
H91	H	-0.515533	-1.325921	0.642474
H92	H	-0.506427	-1.299605	0.850309
H93	H	-0.420749	-1.168233	0.929345
H94	H	-0.344179	-1.063182	0.800540
H95	H	-0.944664	-1.640489	0.384014
C96	C	-0.733461	-1.536009	0.307249
C97	C	-0.769440	-1.545160	0.203102
C98	C	-0.733444	-1.554311	0.098999
C99	C	-0.661469	-1.554311	0.099044
C100	C	-0.625486	-1.545160	0.203195
C101	C	-0.661482	-1.536009	0.307298
H102	H	-0.822724	-1.545160	0.203065
H103	H	-0.760082	-1.561085	0.021900
H104	H	-0.634823	-1.561085	0.021981
H105	H	-0.572202	-1.545160	0.203232
H106	H	-0.634845	-1.529235	0.384398
H107	H	-1.063371	-1.640481	0.383938
H108	H	-1.063334	-1.396585	0.627722
H109	H	-0.944624	-1.396591	0.627804
C110	C	-0.870791	-1.500953	0.704825
C111	C	-0.915793	-1.588733	0.739013
C112	C	-0.951640	-1.579405	0.843245
C113	C	-0.942484	-1.482298	0.913290
C114	C	-0.897481	-1.394511	0.879103
C115	C	-0.861634	-1.403839	0.774871
H116	H	-0.922572	-1.660624	0.687161
H117	H	-0.984954	-1.644391	0.868552
H118	H	-0.969020	-1.475393	0.990448
H119	H	-0.890702	-1.322621	0.930956
H120	H	-0.828319	-1.338853	0.749565
H121	H	-0.742830	-1.503163	0.677747
H122	H	-0.659697	-1.396578	0.627958
H123	H	-0.540984	-1.396557	0.628025
