data_functionalizedCrystal
_audit_creation_method	'MofGen! by Chris Wilmer'
_symmetry_space_group_name_H-M	'P1'
_symmetry_Int_Tables_number	1
_symmetry_cell_setting	triclinic
loop_
_symmetry_equiv_pos_as_xyz
  x,y,z
_cell_length_a	19.188905
_cell_length_b	19.188930
_cell_length_c	17.666332
_cell_angle_alpha	90.011603
_cell_angle_beta	90.016479
_cell_angle_gamma	83.139668
loop_
_atom_site_label
_atom_site_type_symbol
_atom_site_fract_x
_atom_site_fract_y
_atom_site_fract_z
O1	O	0.926161	0.087086	0.063081
O2	O	1.426161	0.587086	0.563081
O3	O	0.722847	0.098838	0.063057
O4	O	1.222847	0.598838	0.563057
O5	O	0.830371	-0.008694	0.063055
O6	O	1.330371	0.491306	0.563055
O7	O	0.818637	0.194618	0.063083
O8	O	1.318637	0.694618	0.563083
O9	O	0.830352	-0.008700	-0.062842
O10	O	1.330352	0.491300	0.437158
O11	O	0.722828	0.098832	-0.062840
O12	O	1.222828	0.598832	0.437160
O13	O	0.926142	0.087080	-0.062815
O14	O	1.426142	0.587080	0.437185
Cu15	Cu	0.824483	0.092956	-0.074323
Cu16	Cu	1.324483	0.592956	0.425677
Cu17	Cu	0.824506	0.092962	0.074565
Cu18	Cu	1.324506	0.592962	0.574565
O19	O	0.818618	0.194612	-0.062814
O20	O	1.318618	0.694612	0.437186
C21	C	0.696826	0.098458	0.000105
C22	C	1.196826	0.598458	0.500105
C23	C	0.619321	0.097324	0.000095
C24	C	1.119321	0.597324	0.500095
C25	C	0.829982	-0.034708	0.000104
C26	C	1.329982	0.465292	0.500104
C27	C	0.828841	-0.112213	0.000098
C28	C	1.328841	0.387787	0.500098
C29	C	0.582939	0.096782	0.068723
C30	C	1.082939	0.596782	0.568723
C31	C	0.510116	0.095709	0.068732
C32	C	1.010116	0.595709	0.568732
C33	C	0.473678	0.095164	0.000110
C34	C	0.973678	0.595164	0.500110
C35	C	0.510068	0.095709	-0.068528
C36	C	1.010068	0.595709	0.431472
C37	C	0.582889	0.096789	-0.068535
C38	C	1.082889	0.596789	0.431465
N39	N	0.364650	0.053733	-0.050966
N40	N	0.864650	0.553733	0.449034
N41	N	0.295473	0.052705	-0.050954
N42	N	0.795473	0.552705	0.449046
C43	C	0.254272	0.091911	0.000127
C44	C	0.754272	0.591911	0.500127
N45	N	0.284861	0.132174	0.051208
N46	N	0.784861	0.632174	0.551208
N47	N	0.354045	0.133199	0.051199
N48	N	0.854045	0.633199	0.551199
C49	C	0.394716	0.093993	0.000110
C50	C	0.894716	0.593993	0.500110
C51	C	0.138926	0.090207	0.068770
C52	C	0.638926	0.590207	0.568770
C53	C	0.066101	0.089138	0.068777
C54	C	0.566101	0.589138	0.568777
C55	C	0.066055	0.089131	-0.068485
C56	C	0.566055	0.589131	0.431515
C57	C	0.138879	0.090207	-0.068490
C58	C	0.638879	0.590207	0.431510
C59	C	0.175310	0.090742	0.000140
C60	C	0.675310	0.590742	0.500140
C61	C	0.891933	-0.157142	0.000102
C62	C	1.391933	0.342858	0.500102
C63	C	0.890861	-0.229966	0.000114
C64	C	1.390861	0.270034	0.500114
C65	C	0.826694	-0.257857	0.000107
C66	C	1.326694	0.242143	0.500107
C67	C	0.763594	-0.212917	0.000107
C68	C	1.263594	0.287083	0.500107
C69	C	0.764668	-0.140095	0.000102
C70	C	1.264668	0.359905	0.500102
N71	N	0.777640	-0.365859	-0.042744
N72	N	1.277640	0.134141	0.457256
N73	N	0.776624	-0.435038	-0.042742
N74	N	1.276624	0.064962	0.457258
C75	C	0.823456	-0.477265	0.000122
C76	C	1.323456	0.022735	0.500122
N77	N	0.871352	-0.447702	0.042973
N78	N	1.371352	0.052298	0.542973
N79	N	0.872369	-0.378517	0.042967
N80	N	1.372369	0.121483	0.542967
C81	C	0.825523	-0.336819	0.000112
C82	C	1.325523	0.163181	0.500112
C83	C	0.885390	-0.601159	0.000140
C84	C	1.385390	-0.101159	0.500140
C85	C	0.884315	-0.673984	0.000156
C86	C	1.384315	-0.173984	0.500156
C87	C	0.757047	-0.656933	0.000142
C88	C	1.257047	-0.156933	0.500142
C89	C	0.758123	-0.584110	0.000133
C90	C	1.258123	-0.084110	0.500133
C91	C	0.822296	-0.556228	0.000128
C92	C	1.322296	-0.056228	0.500128
C93	C	0.952163	0.087460	0.000138
C94	C	1.452163	0.587460	0.500138
C95	C	1.029668	0.088594	0.000153
C96	C	1.529668	0.588594	0.500153
C97	C	0.819007	0.220626	0.000139
C98	C	1.319007	0.720626	0.500139
C99	C	0.820148	0.298131	0.000150
C100	C	1.320148	0.798131	0.500150
N101	N	0.824473	0.092950	-0.179042
N102	N	1.324473	0.592950	0.320958
C103	C	0.872100	0.045358	-0.218653
C104	C	1.372100	0.545358	0.281347
C105	C	0.872104	0.045355	-0.297901
C106	C	1.372104	0.545355	0.202099
C107	C	0.824488	0.092956	-0.337535
C108	C	1.324488	0.592956	0.162465
C109	C	0.776852	0.140552	-0.297915
C110	C	1.276852	0.640552	0.202085
C111	C	0.776844	0.140549	-0.218668
C112	C	1.276844	0.640549	0.281332
N113	N	0.815411	0.154764	-0.461945
N114	N	1.315411	0.654764	0.038055
N115	N	0.815422	0.154764	-0.537226
N116	N	1.315422	0.654764	-0.037226
C117	C	0.824506	0.092966	-0.576299
C118	C	1.324506	0.592966	-0.076299
N119	N	0.833592	0.031164	-0.537247
N120	N	1.333592	0.531164	-0.037247
N121	N	0.833584	0.031165	-0.461960
N122	N	1.333584	0.531165	0.038040
C123	C	0.824490	0.092964	-0.423464
C124	C	1.324490	0.592964	0.076536
C125	C	0.872140	0.045366	-0.701838
C126	C	1.372140	0.545366	-0.201838
C127	C	0.872139	0.045361	-0.781087
C128	C	1.372139	0.545361	-0.281087
C129	C	0.776890	0.140564	-0.781100
C130	C	1.276890	0.640564	-0.281100
C131	C	0.776888	0.140562	-0.701852
C132	C	1.276888	0.640562	-0.201852
C133	C	0.824516	0.092964	-0.662226
C134	C	1.324516	0.592964	-0.162226
N135	N	0.824522	0.092962	0.179284
N136	N	1.324522	0.592962	0.679284
H137	H	0.480488	0.095270	0.124620
H138	H	0.980488	0.595270	0.624620
H139	H	0.910889	0.006598	-0.330157
H140	H	1.410889	0.506598	0.169843
H141	H	0.937644	-0.578456	0.000139
H142	H	1.437644	-0.078456	0.500139
N143	N	0.472840	0.095159	-0.138618
N144	N	0.972840	0.595159	0.361382
N145	N	0.407822	0.094195	-0.138603
N146	N	0.907822	0.594195	0.361397
H147	H	0.381528	0.093810	-0.188106
H148	H	0.881528	0.593810	0.311894
H149	H	0.612511	0.097231	-0.124422
H150	H	1.112511	0.597231	0.375578
H151	H	0.036479	0.088702	0.124664
H152	H	0.536479	0.588702	0.624664
H153	H	0.713289	-0.103513	0.000099
H154	H	1.213289	0.396487	0.500099
H155	H	0.706747	-0.547527	0.000125
H156	H	1.206747	-0.047527	0.500125
H157	H	0.910880	0.006599	-0.186392
H158	H	1.410880	0.506599	0.313608
N159	N	0.920697	-0.003311	-0.661315
N160	N	1.420697	0.496689	-0.161315
N161	N	0.919838	-0.067831	-0.670184
N162	N	1.419838	0.432169	-0.170184
H163	H	0.954099	-0.102228	-0.641547
H164	H	1.454099	0.397772	-0.141547
N165	N	0.028845	0.088595	-0.138585
N166	N	0.528845	0.588595	0.361415
N167	N	-0.018385	0.137203	-0.153885
N168	N	0.481615	0.637203	0.346115
H169	H	-0.044668	0.136830	-0.203396
H170	H	0.455332	0.636830	0.296604
H171	H	0.168589	0.090650	0.124653
H172	H	0.668589	0.590650	0.624653
N173	N	0.176036	0.090755	-0.138600
N174	N	0.676036	0.590755	0.361400
N175	N	0.143497	0.090269	-0.199867
N176	N	0.643497	0.590269	0.300133
H177	H	0.169738	0.090656	-0.249386
H178	H	0.669738	0.590656	0.250614
N179	N	0.948772	-0.719871	0.000171
N180	N	1.448772	-0.219871	0.500171
N181	N	1.006061	-0.694963	0.000170
N182	N	1.506061	-0.194963	0.500170
H183	H	1.051585	-0.727371	0.000181
H184	H	1.551585	-0.227371	0.500181
N185	N	0.698050	-0.241405	0.000079
N186	N	1.198050	0.258595	0.500079
N187	N	0.655559	-0.227576	-0.052998
N188	N	1.155559	0.272424	0.447002
H189	H	0.609266	-0.247695	-0.053017
H190	H	1.109266	0.252305	0.446983
N191	N	0.728213	0.189166	-0.338407
N192	N	1.228213	0.689166	0.161593
N193	N	0.728226	0.189162	-0.409162
N194	N	1.228226	0.689162	0.090838
H195	H	0.693871	0.223495	-0.437761
H196	H	1.193871	0.723495	0.062239
H197	H	0.704801	-0.679641	0.000140
H198	H	1.204801	-0.179641	0.500140
N199	N	0.728186	0.189168	-0.178215
N200	N	1.228186	0.689168	0.321785
N201	N	0.685669	0.231663	-0.213607
N202	N	1.185669	0.731663	0.286393
H203	H	0.651303	0.266002	-0.185036
H204	H	1.151303	0.766002	0.314964
N205	N	0.957488	-0.128673	0.000099
N206	N	1.457488	0.371327	0.500099
N207	N	1.013816	-0.168804	0.000105
N208	N	1.513816	0.331196	0.500105
H209	H	1.060116	-0.148697	0.000105
H210	H	1.560116	0.351303	0.500105
H211	H	0.942239	-0.266555	0.000120
H212	H	1.442239	0.233445	0.500120
H213	H	0.910921	0.006602	-0.813339
H214	H	1.410921	0.506602	-0.313339
N215	N	0.728248	0.189177	-0.821587
N216	N	1.228248	0.689177	-0.321587
N217	N	0.728257	0.189170	-0.892342
N218	N	1.228257	0.689170	-0.392342
H219	H	0.693900	0.223501	-0.920940
H220	H	1.193900	0.723501	-0.420940
N221	N	0.728242	0.189194	-0.661400
N222	N	1.228242	0.689194	-0.161400
N223	N	0.729001	0.253727	-0.670238
N224	N	1.229001	0.753727	-0.170238
H225	H	0.694641	0.288076	-0.641670
H226	H	1.194641	0.788076	-0.141670
N227	N	0.620141	0.097329	0.138831
N228	N	1.120141	0.597329	0.638831
N229	N	0.587642	0.096846	0.200103
N230	N	1.087642	0.596846	0.700103
H231	H	0.613917	0.097233	0.249618
H232	H	1.113917	0.597233	0.749618
