data_functionalizedCrystal
_audit_creation_method	'MofGen! by Chris Wilmer'
_symmetry_space_group_name_H-M	'P1'
_symmetry_Int_Tables_number	1
_symmetry_cell_setting	triclinic
loop_
_symmetry_equiv_pos_as_xyz
  x,y,z
_cell_length_a	12.759401
_cell_length_b	18.215405
_cell_length_c	12.759393
_cell_angle_alpha	90.034559
_cell_angle_beta	90.019377
_cell_angle_gamma	90.024439
loop_
_atom_site_label
_atom_site_type_symbol
_atom_site_fract_x
_atom_site_fract_y
_atom_site_fract_z
Zn1	Zn	1.606197	-0.292907	0.593984
Zn2	Zn	1.606066	-0.415994	0.418295
Zn3	Zn	1.430499	-0.292949	0.418321
Zn4	Zn	1.430463	-0.415940	0.593934
O5	O	1.518306	-0.354448	0.506134
O6	O	1.753201	-0.309240	0.570689
O7	O	1.582738	-0.399711	0.271277
O8	O	1.453875	-0.189959	0.441655
O9	O	1.753105	-0.399671	0.441611
O10	O	1.582960	-0.189929	0.570714
O11	O	1.453749	-0.309311	0.271296
O12	O	1.283473	-0.309259	0.441606
O13	O	1.453814	-0.399580	0.740962
O14	O	1.283447	-0.399621	0.570628
O15	O	1.582925	-0.309188	0.740999
O16	O	1.582703	-0.518971	0.441562
O17	O	1.453687	-0.518932	0.570603
C18	C	1.245339	-0.354439	0.506115
C19	C	1.128562	-0.354453	0.506132
C20	C	1.518206	-0.545654	0.506097
C21	C	1.518259	-0.627453	0.506117
C22	C	0.964031	-0.307448	0.573459
C23	C	1.073755	-0.307446	0.573447
C24	C	1.073640	-0.401471	0.438831
C25	C	0.963918	-0.401476	0.438849
C26	C	0.964098	-0.253161	0.651175
C27	C	1.073822	-0.253159	0.651164
C28	C	1.585505	-0.815570	0.573409
C29	C	1.585543	-0.892428	0.573429
C30	C	1.451237	-0.892574	0.438923
C31	C	1.451195	-0.815716	0.438910
C32	C	1.518334	-0.777216	0.506151
C33	C	1.518415	-0.930932	0.506184
C34	C	1.518456	-1.014266	0.506205
C35	C	1.518293	-0.693877	0.506132
C36	C	1.792339	-0.354457	0.506153
C37	C	1.909116	-0.354460	0.506161
C38	C	1.518380	-0.354373	0.780167
C39	C	1.518411	-0.354342	0.896944
C40	C	1.518436	-0.162495	0.506193
C41	C	1.518491	-0.080696	0.506218
C42	C	1.518293	-0.354469	0.233166
C43	C	1.518466	-0.354293	0.116390
C44	C	1.585648	-0.307270	0.951827
C45	C	1.585673	-0.307244	1.061551
C46	C	1.451221	-0.401366	1.061499
C47	C	1.451191	-0.401389	0.951777
C48	C	1.663277	-0.252931	0.951857
C49	C	1.663302	-0.252905	1.061582
H50	H	0.919210	-0.439764	0.384057
H51	H	1.396577	-0.923930	0.384176
O52	O	0.928713	-0.271345	0.748285
C53	C	0.965676	-0.219706	0.821908
H54	H	1.039082	-0.191882	0.790038
H55	H	0.985240	-0.248851	0.898493
H56	H	0.902598	-0.176629	0.836728
O57	O	1.385796	-0.778536	0.373621
C58	C	1.281080	-0.797350	0.396507
H59	H	1.278908	-0.853136	0.436898
H60	H	1.234014	-0.800041	0.320640
H61	H	1.245640	-0.754088	0.450486
H62	H	1.641520	-0.195938	0.922105
H63	H	1.396436	-0.439716	0.907096
H64	H	1.640173	-0.784225	0.628163
O65	O	1.109343	-0.185173	0.625117
C66	C	1.072370	-0.166329	0.524527
H67	H	1.052804	-0.218454	0.479048
H68	H	1.135448	-0.134216	0.480933
H69	H	0.998965	-0.131082	0.532258
H70	H	1.740545	-0.273362	0.917821
O71	O	1.650743	-0.929604	0.638907
C72	C	1.627698	-0.910793	0.743595
H73	H	1.587279	-0.855011	0.745723
H74	H	1.703495	-0.908095	0.790771
H75	H	1.573686	-0.954060	0.778944
O76	O	1.127038	-0.447068	0.373478
C77	C	1.235658	-0.437000	0.387914
H78	H	1.250693	-0.380233	0.422462
H79	H	1.277320	-0.441928	0.309201
H80	H	1.266796	-0.480696	0.443751
H81	H	1.396491	-0.439669	1.106158
H82	H	1.744670	-0.268168	1.091360
O83	O	0.923579	-0.188477	0.616755
C84	C	0.957916	-0.131002	0.682404
H85	H	0.980469	-0.154224	0.762230
H86	H	0.892144	-0.089249	0.692441
H87	H	1.028896	-0.103059	0.645628
O88	O	1.114580	-0.277471	0.743318
C89	C	1.176763	-0.221789	0.788435
H90	H	1.203966	-0.182346	0.724658
H91	H	1.247923	-0.247495	0.828060
H92	H	1.128684	-0.190503	0.849067
O93	O	1.628446	-0.188302	1.102085
C94	C	1.525002	-0.175394	1.067872
H95	H	1.509968	-0.207312	0.992469
H96	H	1.513819	-0.114231	1.052668
H97	H	1.467574	-0.194199	1.130811
