data_functionalizedCrystal
_audit_creation_method	'MofGen! by Chris Wilmer'
_symmetry_space_group_name_H-M	'P1'
_symmetry_Int_Tables_number	1
_symmetry_cell_setting	triclinic
loop_
_symmetry_equiv_pos_as_xyz
  x,y,z
_cell_length_a	11.792241
_cell_length_b	8.634740
_cell_length_c	7.088929
_cell_angle_alpha	82.825325
_cell_angle_beta	83.733449
_cell_angle_gamma	87.618139
loop_
_atom_site_label
_atom_site_type_symbol
_atom_site_fract_x
_atom_site_fract_y
_atom_site_fract_z
O1	O	0.380327	-2.033409	-0.159001
O2	O	0.349270	-1.584198	-0.159002
O3	O	0.200770	-1.819706	-0.158988
O4	O	0.528827	-1.797901	-0.159015
O5	O	0.180872	-1.851179	0.158989
O6	O	0.329371	-1.615671	0.158975
O7	O	0.360429	-2.064882	0.158976
Cu8	Cu	0.343083	-1.843150	0.188009
Cu9	Cu	0.366615	-1.805930	-0.188036
O10	O	0.508929	-1.829374	0.158962
C11	C	0.148386	-1.834073	-0.000000
C12	C	0.021943	-1.829974	-0.000002
C13	C	0.332285	-1.542425	-0.000014
C14	C	0.311307	-1.371067	-0.000014
C15	C	0.377414	-2.106654	-0.000017
C16	C	0.398393	-2.278012	-0.000029
C17	C	-0.209557	-1.822433	-0.000034
C18	C	-0.080734	-1.826623	-0.000017
C19	C	0.561313	-1.815007	-0.000030
C20	C	0.687757	-1.819105	-0.000041
N21	N	0.326533	-1.869340	0.452499
N22	N	0.383158	-1.779752	-0.452525
H23	H	0.488999	-1.329441	-0.000019
O24	O	0.203280	-1.309456	-0.000100
C25	C	0.205672	-1.146342	-0.000065
H26	H	0.293999	-1.103473	-0.060269
H27	H	0.139193	-1.087095	-0.092384
H28	H	0.185760	-1.116559	0.152482
O29	O	0.256376	-1.980033	0.549698
C30	C	0.144208	-1.948969	0.500977
H31	H	0.146904	-1.875172	0.355604
H32	H	0.101287	-2.063767	0.494313
H33	H	0.093730	-1.882850	0.613615
H34	H	0.441838	-1.686904	0.465823
