data_functionalizedCrystal
_audit_creation_method	'MofGen! by Chris Wilmer'
_symmetry_space_group_name_H-M	'P1'
_symmetry_Int_Tables_number	1
_symmetry_cell_setting	triclinic
loop_
_symmetry_equiv_pos_as_xyz
  x,y,z
_cell_length_a	25.639242
_cell_length_b	14.908520
_cell_length_c	14.908308
_cell_angle_alpha	83.639235
_cell_angle_beta	93.269512
_cell_angle_gamma	86.683242
loop_
_atom_site_label
_atom_site_type_symbol
_atom_site_fract_x
_atom_site_fract_y
_atom_site_fract_z
Zn1	Zn	0.768447	0.389992	-0.532783
Zn2	Zn	1.268447	0.889992	-0.032783
Zn3	Zn	0.768387	0.532637	-0.390154
Zn4	Zn	1.268387	1.032637	0.109846
Zn5	Zn	0.686369	0.381281	-0.381418
Zn6	Zn	1.186369	0.881281	0.118582
Zn7	Zn	0.675643	0.541296	-0.541436
Zn8	Zn	1.175643	1.041296	-0.041436
O9	O	0.724712	0.461301	-0.461448
O10	O	1.224712	0.961301	0.038552
O11	O	0.841602	0.408935	-0.513898
O12	O	1.341602	0.908935	-0.013898
O13	O	0.761972	0.505290	-0.262335
O14	O	1.261972	1.005290	0.237665
O15	O	0.701771	0.255773	-0.394220
O16	O	1.201771	0.755773	0.105780
O17	O	0.841558	0.513736	-0.409108
O18	O	1.341558	1.013736	0.090892
O19	O	0.762073	0.262172	-0.505427
O20	O	1.262073	0.762172	-0.005427
O21	O	0.701713	0.394090	-0.255918
O22	O	1.201713	0.894090	0.244082
O23	O	0.611783	0.402486	-0.402610
O24	O	1.111783	0.902486	0.097390
O25	O	0.683490	0.528494	-0.666948
O26	O	1.183490	1.028494	-0.166948
O27	O	0.603903	0.520048	-0.520175
O28	O	1.103903	1.020048	-0.020175
O29	O	0.751672	0.417331	-0.660590
O30	O	1.251672	0.917331	-0.160590
O31	O	0.751571	0.660449	-0.417499
O32	O	1.251571	1.160449	0.082501
O33	O	0.683432	0.666811	-0.528646
O34	O	1.183432	1.166811	-0.028646
C35	C	0.716344	0.696474	-0.474979
C36	C	1.216344	1.196474	0.025021
C37	C	0.712812	0.797083	-0.480798
C38	C	1.212812	1.297083	0.019202
C39	C	0.588872	0.461262	-0.461384
C40	C	1.088872	0.961262	0.038616
C41	C	0.530758	0.461268	-0.461380
C42	C	1.030758	0.961268	0.038620
C43	C	0.716391	0.474850	-0.697529
C44	C	1.216391	0.974850	-0.197529
C45	C	0.712845	0.480624	-0.798132
C46	C	1.212845	0.980624	-0.298132
C47	C	0.166296	0.522609	-0.522615
C48	C	0.666296	1.022609	-0.022615
C49	C	0.111691	0.522616	-0.522629
C50	C	0.611691	1.022616	-0.022629
O51	O	0.079972	0.574723	-0.574639
O52	O	0.579972	1.074723	-0.074639
N53	N	0.088470	0.461330	-0.461508
N54	N	0.588470	0.961330	0.038492
C55	C	0.119856	0.400027	-0.400375
C56	C	0.619856	0.900027	0.099625
O57	O	0.095091	0.347899	-0.348389
O58	O	0.595091	0.847899	0.151611
C59	C	0.174460	0.400017	-0.400365
C60	C	0.674460	0.900017	0.099635
C61	C	0.197679	0.461313	-0.461484
C62	C	0.697679	0.961313	0.038516
C63	C	0.189515	0.583900	-0.583729
C64	C	0.689515	1.083900	-0.083729
C65	C	0.244116	0.583894	-0.583713
C66	C	0.744116	1.083894	-0.083713
C67	C	0.275498	0.522598	-0.522583
C68	C	0.775498	1.022598	-0.022583
C69	C	0.252280	0.461308	-0.461468
C70	C	0.752280	0.961308	0.038532
C71	C	0.205846	0.338711	-0.339237
C72	C	0.705846	0.838711	0.160763
C73	C	0.260453	0.338706	-0.339233
C74	C	0.760453	0.838706	0.160767
C75	C	0.283672	0.400002	-0.400352
C76	C	0.783672	0.900002	0.099648
C77	C	0.338264	0.400007	-0.400322
C78	C	0.838264	0.900007	0.099678
N79	N	0.361485	0.461293	-0.461443
N80	N	0.861485	0.961293	0.038557
C81	C	0.330102	0.522588	-0.522573
C82	C	0.830102	1.022588	-0.022573
C83	C	0.005184	0.400052	-0.400401
C84	C	0.505184	0.900052	0.099599
C85	C	-0.049419	0.400065	-0.400405
C86	C	0.450581	0.900065	0.099595
C87	C	-0.057581	0.522653	-0.522661
C88	C	0.442419	1.022653	-0.022661
C89	C	-0.002977	0.522643	-0.522651
C90	C	0.497023	1.022643	-0.022651
C91	C	0.028405	0.461338	-0.461522
C92	C	0.528405	0.961338	0.038478
C93	C	0.444769	0.522573	-0.522534
C94	C	0.944769	1.022573	-0.022534
C95	C	0.499376	0.522564	-0.522510
C96	C	0.999376	1.022564	-0.022510
C97	C	0.507533	0.399974	-0.400258
C98	C	1.007533	0.899974	0.099742
C99	C	0.452931	0.399985	-0.400279
C100	C	0.952931	0.899985	0.099721
C101	C	0.421550	0.461288	-0.461424
C102	C	0.921550	0.961288	0.038576
O103	O	0.370015	0.347924	-0.348341
O104	O	0.870015	0.847924	0.151659
O105	O	0.354875	0.574700	-0.574558
O106	O	0.854875	1.074700	-0.074558
C107	C	0.861081	0.461341	-0.461512
C108	C	1.361081	0.961341	0.038488
C109	C	0.919194	0.461359	-0.461539
C110	C	1.419194	0.961359	0.038461
C111	C	0.733125	0.225212	-0.447884
C112	C	1.233125	0.725212	0.052116
C113	C	0.736710	0.124604	-0.442103
C114	C	1.236710	0.624604	0.057897
C115	C	0.777192	0.979460	-0.376088
C116	C	1.277192	1.479460	0.123912
C117	C	0.773874	1.073991	-0.381553
C118	C	1.273874	1.573991	0.118447
C119	C	0.702862	1.080680	-0.497195
C120	C	1.202862	1.580680	0.002805
C121	C	0.706180	0.986148	-0.491731
C122	C	1.206180	1.486148	0.008269
C123	C	0.743345	0.935541	-0.431174
C124	C	1.243345	1.435541	0.068826
C125	C	0.746660	0.841008	-0.425706
C126	C	1.246660	1.341008	0.074294
C127	C	0.675651	0.847699	-0.541352
C128	C	1.175651	1.347699	-0.041352
C129	C	0.672333	0.942230	-0.546817
C130	C	1.172333	1.442230	-0.046817
C131	C	0.777180	0.375698	-0.980558
C132	C	1.277180	0.875698	-0.480558
C133	C	0.773850	0.381120	-1.075084
C134	C	1.273850	0.881120	-0.575084
C135	C	0.702853	0.496884	-1.081712
C136	C	1.202853	0.996884	-0.581712
C137	C	0.706183	0.491462	-0.987186
C138	C	1.206183	0.991462	-0.487186
C139	C	0.743348	0.430868	-0.936612
C140	C	1.243348	0.930868	-0.436612
C141	C	0.746680	0.425452	-0.842085
C142	C	1.246680	0.925452	-0.342085
C143	C	0.675682	0.541210	-0.848714
C144	C	1.175682	1.041210	-0.348714
C145	C	0.672352	0.546632	-0.943240
C146	C	1.172352	1.046632	-0.443240
C147	C	0.733032	0.447740	-0.226282
C148	C	1.233032	0.947740	0.273718
C149	C	0.736688	0.441712	-0.125664
C150	C	1.236688	0.941712	0.374336
H151	H	0.518277	0.572482	-0.572282
H152	H	1.018277	1.072482	-0.072282
F153	F	0.639678	0.599937	-0.801938
F154	F	1.139678	1.099937	-0.301938
H155	H	0.801436	1.109745	-0.336698
H156	H	1.301436	1.609745	0.163302
F157	F	0.038579	0.334803	-0.335328
F158	F	0.538579	0.834803	0.164672
F159	F	0.632783	0.996099	-0.611265
F160	F	1.132783	1.496099	-0.111265
F161	F	0.639621	0.800951	-0.599973
F162	F	1.139621	1.300951	-0.099973
H163	H	0.776942	0.376114	-0.800909
H164	H	1.276942	0.876114	-0.300909
H165	H	0.672607	1.121901	-0.546503
H166	H	1.172607	1.621901	-0.046503
F167	F	0.816737	0.311220	-0.926732
F168	F	1.316737	0.811220	-0.426732
F169	F	0.809857	0.322400	-1.121851
F170	F	1.309857	0.822400	-0.621851
F171	F	0.663300	0.561360	-1.135550
F172	F	1.163300	1.061360	-0.635550
H173	H	0.419225	0.572489	-0.572327
H174	H	0.919225	1.072489	-0.072327
F175	F	0.268819	0.649131	-0.648768
F176	F	0.768819	1.149131	-0.148768
F177	F	0.816739	0.925597	-0.311629
F178	F	1.316739	1.425597	0.188371
F179	F	0.786212	0.787149	-0.361254
F180	F	1.286212	1.287149	0.138746
F181	F	0.156122	0.649144	-0.648799
F182	F	0.656122	1.149144	-0.148799
F183	F	0.021729	0.587881	-0.587703
F184	F	0.521729	1.087881	-0.087703
F185	F	0.632800	0.611115	-0.997073
F186	F	1.132800	1.111115	-0.497073
H187	H	-0.083142	0.572561	-0.572440
H188	H	0.416858	1.072561	-0.072440
F189	F	0.181147	0.273466	-0.274189
F190	F	0.681147	0.773466	0.225811
F191	F	0.293849	0.273454	-0.274170
F192	F	0.793849	0.773454	0.225830
F193	F	-0.074123	0.334836	-0.335344
F194	F	0.425877	0.834836	0.164656
H195	H	0.434026	0.350075	-0.350509
H196	H	0.934026	0.850075	0.149491
F197	F	0.540942	0.334742	-0.335202
F198	F	1.040942	0.834742	0.164798
