data_functionalizedCrystal
_audit_creation_method	'MofGen! by Chris Wilmer'
_symmetry_space_group_name_H-M	'P1'
_symmetry_Int_Tables_number	1
_symmetry_cell_setting	triclinic
loop_
_symmetry_equiv_pos_as_xyz
  x,y,z
_cell_length_a	29.839133
_cell_length_b	29.839135
_cell_length_c	29.839125
_cell_angle_alpha	89.984512
_cell_angle_beta	89.992589
_cell_angle_gamma	90.032133
loop_
_atom_site_label
_atom_site_type_symbol
_atom_site_fract_x
_atom_site_fract_y
_atom_site_fract_z
Zn1	Zn	-0.178886	0.686757	-0.254079
Zn2	Zn	-0.253998	0.686704	-0.178963
Zn3	Zn	-0.178886	0.611639	-0.178957
Zn4	Zn	-0.253993	0.611603	-0.254060
O5	O	-0.216441	0.649176	-0.216515
O6	O	-0.188852	0.749617	-0.244126
O7	O	-0.244036	0.676740	-0.116095
O8	O	-0.116019	0.621641	-0.188929
O9	O	-0.244036	0.749578	-0.188938
O10	O	-0.116019	0.676829	-0.244120
O11	O	-0.188852	0.621590	-0.116091
O12	O	-0.188847	0.548767	-0.188909
O13	O	-0.244028	0.621578	-0.316930
O14	O	-0.244028	0.548740	-0.244087
O15	O	-0.188847	0.676794	-0.316944
O16	O	-0.316864	0.676704	-0.188919
O17	O	-0.316861	0.621528	-0.244092
C18	C	-0.216437	0.532453	-0.216496
C19	C	-0.216447	0.482519	-0.216498
C20	C	-0.187750	0.172892	-0.245294
C21	C	-0.187753	-0.014781	-0.245306
O22	O	-0.163343	-0.039031	-0.269768
N23	N	-0.216441	-0.038266	-0.216531
C24	C	-0.245129	-0.014831	-0.187749
O25	O	-0.269527	-0.039113	-0.163271
C26	C	-0.245123	0.172841	-0.187734
C27	C	-0.216436	0.196324	-0.216514
C28	C	-0.159065	0.196376	-0.274071
C29	C	-0.159066	0.243291	-0.274069
C30	C	-0.187752	0.266723	-0.245290
C31	C	-0.216437	0.243240	-0.216513
C32	C	-0.273808	0.196276	-0.158950
C33	C	-0.273803	0.243197	-0.158948
C34	C	-0.245116	0.266680	-0.187728
C35	C	-0.245125	0.313588	-0.187732
N36	N	-0.216436	0.337073	-0.216507
C37	C	-0.187750	0.313641	-0.245286
C38	C	-0.245130	-0.113362	-0.187759
C39	C	-0.245132	-0.160279	-0.187764
C40	C	-0.187756	-0.160226	-0.245320
C41	C	-0.187756	-0.113307	-0.245318
C42	C	-0.216442	-0.089876	-0.216534
C43	C	-0.187755	0.412167	-0.245280
C44	C	-0.187760	0.459087	-0.245277
C45	C	-0.245135	0.459029	-0.187719
C46	C	-0.245132	0.412113	-0.187724
C47	C	-0.216438	0.388684	-0.216506
O48	O	-0.269518	0.337867	-0.163280
O49	O	-0.163349	0.337931	-0.269753
C50	C	-0.187748	0.125977	-0.245295
C51	C	-0.216434	0.102494	-0.216518
C52	C	-0.245120	0.125926	-0.187739
C53	C	-0.216436	0.055576	-0.216522
C54	C	-0.187749	0.032144	-0.245301
C55	C	-0.159061	0.055629	-0.274076
C56	C	-0.159062	0.102545	-0.274074
C57	C	-0.273808	0.102440	-0.158964
C58	C	-0.273805	0.055525	-0.158968
C59	C	-0.245119	0.032092	-0.187747
C60	C	-0.333163	0.649119	-0.216514
C61	C	-0.383098	0.649135	-0.216528
C62	C	-0.739650	0.677929	-0.245286
C63	C	-0.551977	0.677886	-0.245286
O64	O	-0.527682	0.702309	-0.269730
N65	N	-0.528543	0.649171	-0.216527
C66	C	-0.552030	0.620466	-0.187764
O67	O	-0.527792	0.596044	-0.163300
C68	C	-0.739702	0.620511	-0.187763
C69	C	-0.763134	0.649225	-0.216527
C70	C	-0.763081	0.706641	-0.274047
C71	C	-0.809997	0.706649	-0.274049
C72	C	-0.833481	0.677946	-0.245289
C73	C	-0.810049	0.649234	-0.216528
C74	C	-0.763189	0.591809	-0.158998
C75	C	-0.810110	0.591824	-0.159000
C76	C	-0.833541	0.620538	-0.187764
C77	C	-0.880449	0.620539	-0.187770
N78	N	-0.903883	0.649254	-0.216529
C79	C	-0.880399	0.677958	-0.245289
C80	C	-0.453499	0.620444	-0.187768
C81	C	-0.406582	0.620432	-0.187769
C82	C	-0.406532	0.677853	-0.245289
C83	C	-0.453450	0.677862	-0.245290
C84	C	-0.476933	0.649159	-0.216526
C85	C	-0.978924	0.677973	-0.245290
C86	C	-1.025844	0.677978	-0.245290
C87	C	-1.025890	0.620559	-0.187768
C88	C	-0.978974	0.620553	-0.187769
C89	C	-0.955493	0.649263	-0.216532
O90	O	-0.904772	0.596132	-0.163335
O91	O	-0.904645	0.702383	-0.269742
C92	C	-0.692734	0.677920	-0.245285
C93	C	-0.669303	0.649208	-0.216524
C94	C	-0.692787	0.620505	-0.187764
C95	C	-0.622385	0.649196	-0.216524
C96	C	-0.598901	0.677900	-0.245284
C97	C	-0.622335	0.706615	-0.274043
C98	C	-0.669250	0.706623	-0.274044
C99	C	-0.669353	0.591789	-0.159005
C100	C	-0.622437	0.591783	-0.159007
C101	C	-0.598953	0.620486	-0.187766
C102	C	-0.099262	0.649245	-0.216526
C103	C	-0.049328	0.649275	-0.216531
C104	C	-0.216437	0.649188	-0.333693
C105	C	-0.216435	0.649193	-0.383628
C106	C	-0.216445	0.766354	-0.216534
C107	C	-0.216446	0.816288	-0.216543
C108	C	-0.187627	0.677974	-0.693282
C109	C	-0.187589	0.677996	-0.880955
O110	O	-0.163138	0.702433	-0.905229
N111	N	-0.216315	0.649253	-0.904413
C112	C	-0.245050	0.620499	-0.880950
O113	O	-0.269479	0.596048	-0.905209
C114	C	-0.245086	0.620475	-0.693278
C115	C	-0.216361	0.649224	-0.669822
C116	C	-0.158905	0.706720	-0.669826
C117	C	-0.158916	0.706716	-0.622910
C118	C	-0.187650	0.677966	-0.599451
C119	C	-0.216373	0.649220	-0.622907
C120	C	-0.273819	0.591720	-0.669816
C121	C	-0.273824	0.591716	-0.622894
C122	C	-0.245100	0.620464	-0.599439
C123	C	-0.245119	0.620465	-0.552531
N124	N	-0.216393	0.649209	-0.529073
C125	C	-0.187659	0.677959	-0.552533
C126	C	-0.245030	0.620515	-0.979481
C127	C	-0.245022	0.620521	-1.026398
C128	C	-0.187560	0.678018	-1.026400
C129	C	-0.187571	0.678013	-0.979481
C130	C	-0.216304	0.649258	-0.956022
C131	C	-0.187685	0.677948	-0.454007
C132	C	-0.187701	0.677943	-0.407087
C133	C	-0.245161	0.620445	-0.407090
C134	C	-0.245147	0.620452	-0.454005
C135	C	-0.216406	0.649205	-0.477463
O136	O	-0.269553	0.596038	-0.528229
O137	O	-0.163226	0.702399	-0.528266
C138	C	-0.187616	0.677978	-0.740197
C139	C	-0.216338	0.649232	-0.763653
C140	C	-0.245072	0.620482	-0.740193
C141	C	-0.216330	0.649239	-0.810571
C142	C	-0.187596	0.677989	-0.834031
C143	C	-0.158870	0.706732	-0.810572
C144	C	-0.158881	0.706728	-0.763657
C145	C	-0.273798	0.591738	-0.763651
C146	C	-0.273785	0.591745	-0.810567
C147	C	-0.245050	0.620495	-0.834027
C148	C	-0.216412	0.649189	-0.099792
C149	C	-0.216288	0.649271	-0.049858
H150	H	-0.297168	0.121514	-0.135527
H151	H	-0.297218	0.568295	-0.603797
H152	H	-0.829227	0.568450	-0.135576
C153	C	-0.305386	0.560123	-0.836365
H154	H	-0.301269	0.564242	-0.867669
H155	H	-0.298812	0.529942	-0.828668
H156	H	-0.335574	0.566683	-0.828679
C157	C	-0.276746	0.588833	-0.479808
H158	H	-0.293860	0.571709	-0.459114
H159	H	-0.296316	0.606005	-0.498118
H160	H	-0.259552	0.569267	-0.498102
H161	H	-0.297198	0.568327	-0.744555
C162	C	-0.127509	0.269119	-0.305725
H163	H	-0.131615	0.300419	-0.301608
H164	H	-0.097315	0.261441	-0.299200
H165	H	-0.134134	0.261433	-0.335900
H166	H	-1.044920	0.701360	-0.268716
C167	C	-0.737256	0.738214	-0.305689
H168	H	-0.757937	0.755310	-0.322817
H169	H	-0.718937	0.757801	-0.288531
H170	H	-0.718969	0.721005	-0.325249
H171	H	-1.045019	0.597189	-0.164354
H172	H	-0.268497	-0.179396	-0.164333
H173	H	-0.688324	0.730005	-0.297467
H174	H	-0.135475	0.730143	-0.829681
H175	H	-0.268557	0.597039	-0.387980
C176	C	-0.305412	0.560092	-0.695607
H177	H	-0.322519	0.542967	-0.674909
H178	H	-0.324988	0.577259	-0.713916
H179	H	-0.288217	0.540527	-0.713901
C180	C	-0.380696	0.709427	-0.276924
H181	H	-0.401367	0.726532	-0.294055
H182	H	-0.362379	0.729006	-0.259756
H183	H	-0.362405	0.692220	-0.296483
H184	H	-0.135491	0.730138	-0.744563
C185	C	-0.127510	0.170607	-0.305733
H186	H	-0.110431	0.191319	-0.322871
H187	H	-0.107906	0.152307	-0.288589
H188	H	-0.144729	0.152306	-0.325285
C189	C	-0.737424	0.560228	-0.127353
H190	H	-0.758136	0.543142	-0.110223
H191	H	-0.719132	0.540631	-0.144509
H192	H	-0.719114	0.577429	-0.107794
H193	H	-0.268491	-0.094288	-0.164319
C194	C	-0.953199	0.588964	-0.156134
H195	H	-0.973907	0.571872	-0.139006
H196	H	-0.934906	0.569375	-0.173298
H197	H	-0.934889	0.606163	-0.136573
C198	C	-0.305360	0.170454	-0.127287
H199	H	-0.322437	0.191136	-0.110145
H200	H	-0.324966	0.152144	-0.144433
H201	H	-0.288140	0.152158	-0.107740
H202	H	-0.164280	0.701360	-0.473101
H203	H	-0.164399	0.478204	-0.268715
H204	H	-0.387507	0.597045	-0.164351
H205	H	-0.164396	-0.094190	-0.268752
H206	H	-0.959811	0.701353	-0.268710
H207	H	-0.829071	0.730035	-0.297468
C208	C	-0.479221	0.709451	-0.276926
H209	H	-0.458511	0.726545	-0.294050
H210	H	-0.497538	0.692260	-0.296484
H211	H	-0.497506	0.729047	-0.259757
C212	C	-0.155969	0.709631	-0.953684
H213	H	-0.138854	0.726751	-0.974380
H214	H	-0.173154	0.729194	-0.935382
H215	H	-0.136394	0.692451	-0.935382
C216	C	-0.305358	0.268971	-0.127287
H217	H	-0.301250	0.300277	-0.131403
H218	H	-0.335553	0.261265	-0.133810
H219	H	-0.298732	0.261274	-0.097112
C220	C	-0.156197	0.386401	-0.276944
H221	H	-0.139119	0.407111	-0.294084
H222	H	-0.136593	0.368102	-0.259798
H223	H	-0.173417	0.368097	-0.296493
H224	H	-0.472615	0.597069	-0.164343
H225	H	-0.164398	-0.179312	-0.268754
C226	C	-0.127315	0.738335	-0.597115
H227	H	-0.110199	0.755453	-0.617812
H228	H	-0.144499	0.757900	-0.578815
H229	H	-0.107740	0.721156	-0.578811
C230	C	-0.127297	0.738350	-0.695625
H231	H	-0.110197	0.755469	-0.674929
H232	H	-0.107715	0.721186	-0.713926
H233	H	-0.144483	0.757921	-0.713927
C234	C	-0.276690	0.386281	-0.156070
H235	H	-0.293773	0.406958	-0.138929
H236	H	-0.296289	0.367969	-0.173222
H237	H	-0.259471	0.367985	-0.136521
H238	H	-0.268492	0.478116	-0.164289
H239	H	-0.135702	0.121661	-0.297510
H240	H	-0.297170	0.036408	-0.135533
C241	C	-0.127506	0.029848	-0.305731
H242	H	-0.131614	-0.001457	-0.301605
H243	H	-0.134122	0.037539	-0.335906
H244	H	-0.097309	0.037550	-0.299201
H245	H	-0.268417	0.597116	-1.045492
H246	H	-0.603363	0.568396	-0.135585
C247	C	-0.596499	0.738185	-0.305682
H248	H	-0.617170	0.755286	-0.322816
H249	H	-0.578181	0.757767	-0.288518
H250	H	-0.578209	0.720973	-0.325237
C251	C	-0.156100	0.709565	-0.381289
H252	H	-0.138982	0.726684	-0.401983
H253	H	-0.173287	0.729129	-0.362990
H254	H	-0.136527	0.692386	-0.362982
H255	H	-0.268431	0.597099	-0.960385
H256	H	-0.688469	0.568416	-0.135585
H257	H	-0.164163	0.701427	-1.045509
