data_functionalizedCrystal
_audit_creation_method	'MofGen! by Chris Wilmer'
_symmetry_space_group_name_H-M	'P1'
_symmetry_Int_Tables_number	1
_symmetry_cell_setting	triclinic
loop_
_symmetry_equiv_pos_as_xyz
  x,y,z
_cell_length_a	17.038272
_cell_length_b	19.288840
_cell_length_c	17.766277
_cell_angle_alpha	90.006284
_cell_angle_beta	90.008357
_cell_angle_gamma	87.118786
loop_
_atom_site_label
_atom_site_type_symbol
_atom_site_fract_x
_atom_site_fract_y
_atom_site_fract_z
O1	O	0.097423	0.927381	0.062722
O2	O	0.110598	0.725933	0.062696
O3	O	-0.009801	0.825460	0.062703
O4	O	0.217822	0.827854	0.062715
O5	O	-0.009813	0.825462	-0.062486
O6	O	0.110586	0.725935	-0.062493
O7	O	0.097411	0.927383	-0.062467
Cu8	Cu	0.103997	0.826659	-0.073911
Cu9	Cu	0.104012	0.826657	0.074139
O10	O	0.217810	0.827856	-0.062474
C11	C	0.110171	0.700031	0.000098
C12	C	0.108909	0.622849	0.000088
C13	C	0.108308	0.586607	0.068330
C14	C	0.107113	0.514086	0.068339
C15	C	0.106502	0.477811	0.000102
C16	C	0.107107	0.514061	-0.068149
C17	C	0.108310	0.586580	-0.068156
C18	C	0.058806	0.365533	-0.052169
C19	C	0.057598	0.293016	-0.052159
C20	C	0.102795	0.254138	0.000122
C21	C	0.149190	0.287787	0.052405
C22	C	0.150393	0.360306	0.052398
C23	C	0.105198	0.399176	0.000103
C24	C	0.100900	0.139260	0.068379
C25	C	0.099710	0.066738	0.068385
C26	C	0.099696	0.066715	-0.068105
C27	C	0.100894	0.139236	-0.068109
C28	C	0.101493	0.175504	0.000135
C29	C	-0.038928	0.823283	0.000108
C30	C	-0.125699	0.816785	0.000107
C31	C	-0.176012	0.876442	0.000114
C32	C	-0.257542	0.870332	0.000121
C33	C	-0.288758	0.804566	0.000115
C34	C	-0.238439	0.744905	0.000110
C35	C	-0.156910	0.751015	0.000109
C36	C	-0.534444	0.782980	0.000122
C37	C	-0.615979	0.776875	0.000121
C38	C	-0.635077	0.902302	0.000133
C39	C	-0.553546	0.908407	0.000127
C40	C	-0.503234	0.848746	0.000127
C41	C	-0.372095	0.798320	0.000119
C42	C	-0.419899	0.854993	0.000128
C43	C	0.246937	0.830033	0.000122
C44	C	0.333708	0.836531	0.000128
C45	C	0.097838	0.953285	0.000132
C46	C	0.099101	1.030468	0.000147
N47	N	0.104016	0.826656	0.178270
N48	N	0.103987	0.826666	-0.178041
C49	C	0.050807	0.870816	0.217660
C50	C	0.050806	0.870822	0.296461
C51	C	0.104006	0.826655	0.335870
C52	C	0.157225	0.782491	0.296471
C53	C	0.157230	0.782491	0.217670
C54	C	0.114304	0.764004	0.460708
C55	C	0.114294	0.764002	0.539506
C56	C	0.103995	0.826655	0.578917
C57	C	0.093690	0.889310	0.539518
C58	C	0.093695	0.889310	0.460718
C59	C	0.104007	0.826650	0.421316
C60	C	0.050781	0.870826	0.703753
C61	C	0.050785	0.870833	0.782556
C62	C	0.157201	0.782495	0.782564
C63	C	0.157200	0.782494	0.703762
C64	C	0.103987	0.826659	0.664361
H65	H	0.099226	0.037230	0.123958
O66	O	-0.689340	0.966649	0.000135
H67	H	-0.726929	0.966871	0.051163
H68	H	0.007479	0.906779	0.185582
H69	H	0.200560	0.746530	0.185598
H70	H	0.122695	0.712982	0.428626
O71	O	-0.006602	0.918468	0.661254
H72	H	-0.044586	0.887061	0.625348
H73	H	0.019817	0.265625	-0.094727
O74	O	0.101552	0.178391	0.141976
H75	H	0.154596	0.161437	0.174702
O76	O	-0.405769	0.727388	0.000096
H77	H	-0.442455	0.721604	0.051117
H78	H	0.099203	0.037180	-0.123665
H79	H	-0.641391	0.723317	0.000104
H80	H	0.122675	0.712984	0.571578
O81	O	0.108964	0.625726	0.141932
H82	H	0.108353	0.588336	0.189387
O83	O	0.101553	0.178332	-0.141714
H84	H	0.100929	0.140927	-0.189163
H85	H	0.007475	0.906785	0.328539
O86	O	0.010050	0.407457	-0.108563
H87	H	0.049208	0.438272	-0.143870
H88	H	0.188172	0.387700	0.094967
O89	O	0.106826	0.474921	-0.141749
H90	H	0.106019	0.418398	-0.130279
H91	H	0.108799	0.616088	-0.123729
H92	H	0.007459	0.906798	0.814628
H93	H	0.200542	0.746530	0.328561
O94	O	-0.142344	0.947376	0.000128
H95	H	-0.191030	0.987831	0.000143
O96	O	0.106450	0.474983	0.141945
H97	H	0.107061	0.512387	0.189397
O98	O	-0.311804	0.934679	0.000116
H99	H	-0.300721	0.965932	0.051136
O100	O	0.197950	0.245867	0.108796
H101	H	0.189331	0.189786	0.100013
H102	H	-0.528136	0.961961	0.000132
O103	O	-0.480183	0.718635	0.000102
H104	H	-0.515589	0.671879	0.000085
O105	O	0.082598	0.956883	0.418220
H106	H	0.075443	1.000453	0.458857
H107	H	-0.263861	0.691356	0.000110
O108	O	-0.102638	0.686673	0.000094
H109	H	-0.138040	0.639914	0.000081
H110	H	0.085309	0.940328	0.571604
O111	O	-0.386238	0.925927	0.000138
H112	H	-0.349562	0.931709	-0.050890
O113	O	0.214578	0.734850	0.825056
H114	H	0.205632	0.742263	0.886469
H115	H	0.200525	0.746531	0.671688
