data_functionalizedCrystal
_audit_creation_method	'MofGen! by Chris Wilmer'
_symmetry_space_group_name_H-M	'P1'
_symmetry_Int_Tables_number	1
_symmetry_cell_setting	triclinic
loop_
_symmetry_equiv_pos_as_xyz
  x,y,z
_cell_length_a	6.817900
_cell_length_b	13.167930
_cell_length_c	23.753023
_cell_angle_alpha	100.920231
_cell_angle_beta	100.067528
_cell_angle_gamma	105.754568
loop_
_atom_site_label
_atom_site_type_symbol
_atom_site_fract_x
_atom_site_fract_y
_atom_site_fract_z
V1	V	-4.006625	-0.150314	-0.186368
O2	O	-3.976327	0.005824	-0.174683
O3	O	-3.975777	-0.296702	-0.192920
O4	O	-3.941458	-0.148615	-0.264079
O5	O	-4.010884	-0.143287	-0.103031
V6	V	-4.490151	-0.131565	-0.175450
O7	O	-4.267876	-0.191440	-0.210319
O8	O	-4.679096	-0.090439	-0.151499
O9	O	-4.297791	0.014822	-0.168898
O10	O	-4.637845	-0.287703	-0.187135
O11	O	-4.603288	-0.138592	-0.258787
O12	O	-4.332110	-0.133264	-0.097739
C13	C	-3.825591	-0.332369	-0.191999
C14	C	-3.881545	-0.452047	-0.197874
C15	C	-3.924792	-0.645387	-0.102438
C16	C	-3.977365	-0.757835	-0.107955
C17	C	-4.039277	-0.789391	-0.214425
C18	C	-3.986704	-0.676943	-0.208908
C19	C	-3.929460	-0.604945	-0.152912
C20	C	-3.876872	-0.492495	-0.147396
C21	C	-3.938799	-0.524054	-0.253866
C22	C	-3.991372	-0.636501	-0.259383
C23	C	-3.781812	-0.143469	-0.282769
C24	C	-3.809931	-0.143049	-0.346350
C25	C	-4.034734	-0.239227	-0.754047
C26	C	-4.061192	-0.238849	-0.813790
O27	O	-4.117612	-0.322554	-0.856094
N28	N	-4.024240	-0.140005	-0.830260
C29	C	-3.960847	-0.041532	-0.786984
O30	O	-3.931848	0.042577	-0.806479
C31	C	-3.934405	-0.041912	-0.727242
C32	C	-3.971341	-0.140762	-0.710775
C33	C	-4.071668	-0.338069	-0.737579
C34	C	-4.045209	-0.338447	-0.677839
C35	C	-3.981815	-0.239982	-0.634568
C36	C	-3.944881	-0.141139	-0.651036
C37	C	-3.871027	0.056559	-0.683967
C38	C	-3.844589	0.056171	-0.624222
C39	C	-3.881525	-0.042679	-0.607755
C40	C	-3.855027	-0.043051	-0.548025
N41	N	-3.891979	-0.141896	-0.531554
C42	C	-3.955373	-0.240361	-0.574826
C43	C	-4.016385	-0.040743	-0.912447
C44	C	-4.042811	-0.040362	-0.972187
C45	C	-4.143158	-0.237680	-0.998990
C46	C	-4.116716	-0.238059	-0.939248
C47	C	-4.053336	-0.139588	-0.895976
C48	C	-3.899800	-0.241146	-0.449368
C49	C	-3.873325	-0.241514	-0.389622
C50	C	-3.772991	-0.044197	-0.362825
C51	C	-3.799453	-0.043828	-0.422565
C52	C	-3.862868	-0.142311	-0.465837
O53	O	-3.798621	0.040610	-0.505689
O54	O	-3.984388	-0.324457	-0.555322
C55	C	-4.111321	0.050484	-0.169817
C56	C	-4.034604	0.170161	-0.163946
C57	C	-4.155099	-0.138414	-0.079046
C58	C	-4.106218	-0.138828	-0.015464
H59	H	-3.903401	-0.322013	-0.376219
H60	H	-4.085922	-0.848031	-0.260014
H61	H	-4.037994	-0.695137	-0.304973
H62	H	-3.769387	0.036664	-0.435973
H63	H	-3.878154	-0.586764	-0.056843
H64	H	-4.146794	-0.318552	-0.925846
H65	H	-3.973561	-0.790757	-0.066853
H66	H	-3.942590	-0.491115	-0.294966
H67	H	-3.951433	-0.321340	-0.484593
N68	N	-4.211555	-0.343891	-1.045664
H69	H	-4.100913	-0.344464	-1.068878
H70	H	-4.348661	-0.351732	-1.073178
N71	N	-3.815140	-0.414828	-0.087007
H72	H	-3.668067	-0.363728	-0.080203
H73	H	-3.820291	-0.457587	-0.055903
N74	N	-3.704617	0.061988	-0.316138
H75	H	-3.811144	0.101519	-0.322840
H76	H	-3.563389	0.108780	-0.318517
N77	N	-4.002914	0.066256	-0.989944
H78	H	-3.958731	0.128570	-0.953461
H79	H	-4.135555	0.067056	-1.016318
N80	N	-4.085118	-0.445066	-0.660084
H81	H	-4.129317	-0.507378	-0.696569
H82	H	-4.200210	-0.453172	-0.638059
N83	N	-3.947988	0.065467	-0.865771
H84	H	-4.054507	0.105001	-0.872482
H85	H	-3.806761	0.112242	-0.868162
H86	H	-3.840929	0.137054	-0.697362
N87	N	-4.140061	-0.444280	-0.784246
H88	H	-4.159441	-0.506944	-0.764739
H89	H	-4.029357	-0.444761	-0.807444
N90	N	-3.776237	0.162382	-0.577551
H91	H	-3.756858	0.225053	-0.597053
H92	H	-3.639209	0.170201	-0.550007
