data_functionalizedCrystal
_audit_creation_method	'MofGen! by Chris Wilmer'
_symmetry_space_group_name_H-M	'P1'
_symmetry_Int_Tables_number	1
_symmetry_cell_setting	triclinic
loop_
_symmetry_equiv_pos_as_xyz
  x,y,z
_cell_length_a	23.532407
_cell_length_b	23.532407
_cell_length_c	22.610064
_cell_angle_alpha	90.000603
_cell_angle_beta	89.997161
_cell_angle_gamma	97.151322
loop_
_atom_site_label
_atom_site_type_symbol
_atom_site_fract_x
_atom_site_fract_y
_atom_site_fract_z
O1	O	0.755263	-0.069127	-0.049117
O2	O	1.255263	0.430873	0.450883
O3	O	0.589400	-0.079130	-0.049135
O4	O	1.089400	0.420870	0.450865
O5	O	0.677333	0.008803	-0.049114
O6	O	1.177333	0.508803	0.450886
O7	O	0.667330	-0.157060	-0.049137
O8	O	1.167330	0.342940	0.450863
O9	O	0.677318	0.008790	0.049255
O10	O	1.177318	0.508790	0.549255
O11	O	0.589385	-0.079143	0.049234
O12	O	1.089385	0.420857	0.549234
O13	O	0.755248	-0.069140	0.049252
O14	O	1.255248	0.430860	0.549252
Zn15	Zn	0.672314	-0.074144	0.064862
Zn16	Zn	1.172314	0.425856	0.564862
Zn17	Zn	0.672334	-0.074127	-0.064744
Zn18	Zn	1.172334	0.425873	0.435256
O19	O	0.667315	-0.157073	0.049232
O20	O	1.167315	0.342927	0.549232
C21	C	0.568176	-0.078882	0.000048
C22	C	1.068176	0.421118	0.500048
C23	C	0.504959	-0.078116	0.000041
C24	C	1.004959	0.421884	0.500041
C25	C	0.105856	-0.125350	0.000061
C26	C	0.605856	0.374650	0.500061
C27	C	0.046456	-0.124638	0.000065
C28	C	0.546456	0.375362	0.500065
O29	O	0.009711	-0.168424	0.000081
O30	O	0.509711	0.331576	0.500081
N31	N	0.023830	-0.072362	0.000071
N32	N	0.523830	0.427638	0.500071
C33	C	0.060607	-0.020794	0.000080
C34	C	0.560607	0.479206	0.500080
O35	O	0.035908	0.023737	0.000086
O36	O	0.535908	0.523737	0.500086
C37	C	0.120006	-0.021506	0.000080
C38	C	0.620006	0.478494	0.500080
C39	C	0.142629	-0.073785	0.000068
C40	C	0.642629	0.426215	0.500068
C41	C	0.128479	-0.177625	0.000050
C42	C	0.628479	0.322375	0.500050
C43	C	0.187876	-0.178336	0.000045
C44	C	0.687876	0.321664	0.500045
C45	C	0.224649	-0.126772	0.000052
C46	C	0.724649	0.373228	0.500052
C47	C	0.202025	-0.074497	0.000063
C48	C	0.702025	0.425503	0.500063
C49	C	0.156783	0.030062	0.000093
C50	C	0.656783	0.530062	0.500093
C51	C	0.216185	0.029345	0.000094
C52	C	0.716185	0.529345	0.500094
C53	C	0.238808	-0.022934	0.000082
C54	C	0.738808	0.477066	0.500082
C55	C	0.298194	-0.023643	0.000065
C56	C	0.798194	0.476357	0.500065
N57	N	0.320820	-0.075920	0.000059
N58	N	0.820820	0.424080	0.500059
C59	C	0.284048	-0.127484	0.000052
C60	C	0.784048	0.372516	0.500052
C61	C	-0.064135	-0.019302	0.000080
C62	C	0.435865	0.480698	0.500080
C63	C	-0.123533	-0.018589	0.000075
C64	C	0.376467	0.481411	0.500075
C65	C	-0.137680	-0.122434	0.000061
C66	C	0.362320	0.377566	0.500061
C67	C	-0.078281	-0.123146	0.000062
C68	C	0.421719	0.376854	0.500062
C69	C	-0.041509	-0.071578	0.000074
C70	C	0.458491	0.428422	0.500074
C71	C	0.408784	-0.128974	0.000042
C72	C	0.908784	0.371026	0.500042
C73	C	0.468186	-0.129680	0.000034
C74	C	0.968186	0.370320	0.500034
C75	C	0.482329	-0.025836	0.000051
C76	C	0.982329	0.474164	0.500051
C77	C	0.422932	-0.025129	0.000055
C78	C	0.922932	0.474871	0.500055
C79	C	0.386160	-0.076702	0.000052
C80	C	0.886160	0.423298	0.500052
O81	O	0.334974	0.020119	0.000052
O82	O	0.834974	0.520119	0.500052
O83	O	0.308755	-0.172007	0.000054
O84	O	0.808755	0.327993	0.500054
C85	C	0.677071	0.030013	0.000072
C86	C	1.177071	0.530013	0.500072
C87	C	0.676305	0.093230	0.000076
C88	C	1.176305	0.593230	0.500076
C89	C	0.776472	-0.069388	0.000069
C90	C	1.276472	0.430612	0.500069
C91	C	0.839689	-0.070154	0.000071
C92	C	1.339689	0.429846	0.500071
C93	C	0.667577	-0.178283	0.000045
C94	C	1.167577	0.321717	0.500045
C95	C	0.668343	-0.241500	0.000036
C96	C	1.168343	0.258500	0.500036
N97	N	0.672304	-0.074155	0.153314
N98	N	1.172304	0.425845	0.653314
C99	C	0.723539	0.492333	0.000049
C100	C	1.223539	0.992333	0.500049
C101	C	0.722827	0.551733	0.000044
C102	C	1.222827	1.051733	0.500044
O103	O	0.766613	0.588478	0.000027
O104	O	1.266613	1.088478	0.500027
N105	N	0.670551	0.574359	0.000039
N106	N	1.170551	1.074359	0.500039
C107	C	0.618983	0.537582	0.000032
C108	C	1.118983	1.037582	0.500032
O109	O	0.574452	0.562281	0.000027
O110	O	1.074452	1.062281	0.500027
C111	C	0.619695	0.478182	0.000033
C112	C	1.119695	0.978182	0.500033
C113	C	0.671974	0.455560	0.000044
C114	C	1.171974	0.955560	0.500044
C115	C	0.775814	0.469710	0.000060
C116	C	1.275814	0.969710	0.500060
C117	C	0.776525	0.410313	0.000065
C118	C	1.276525	0.910313	0.500065
C119	C	0.724961	0.373540	0.000060
C120	C	1.224961	0.873540	0.500060
C121	C	0.672685	0.396164	0.000050
C122	C	1.172685	0.896164	0.500050
C123	C	0.568127	0.441406	0.000022
C124	C	1.068127	0.941406	0.500022
C125	C	0.568844	0.382004	0.000021
C126	C	1.068844	0.882004	0.500021
C127	C	0.621123	0.359381	0.000033
C128	C	1.121123	0.859381	0.500033
C129	C	0.621832	0.299995	0.000050
C130	C	1.121832	0.799995	0.500050
N131	N	0.674109	0.277368	0.000056
N132	N	1.174109	0.777368	0.500056
C133	C	0.725673	0.314141	0.000061
C134	C	1.225673	0.814141	0.500061
C135	C	0.617491	0.662324	0.000031
C136	C	1.117491	1.162324	0.500031
C137	C	0.616778	0.721722	0.000034
C138	C	1.116778	1.221722	0.500034
C139	C	0.720623	0.735869	0.000045
C140	C	1.220623	1.235869	0.500045
C141	C	0.721335	0.676470	0.000046
C142	C	1.221335	1.176470	0.500046
C143	C	0.669767	0.639698	0.000036
C144	C	1.169767	1.139698	0.500036
C145	C	0.727163	0.189405	0.000073
C146	C	1.227163	0.689405	0.500073
C147	C	0.727869	0.130003	0.000081
C148	C	1.227869	0.630003	0.500081
C149	C	0.624025	0.115860	0.000067
C150	C	1.124025	0.615860	0.500067
C151	C	0.623318	0.175257	0.000062
C152	C	1.123318	0.675257	0.500062
C153	C	0.674891	0.212029	0.000063
C154	C	1.174891	0.712029	0.500063
O155	O	0.578070	0.263215	0.000065
O156	O	1.078070	0.763215	0.500065
O157	O	0.770196	0.289433	0.000058
O158	O	1.270196	0.789433	0.500058
N159	N	0.672349	-0.074111	-0.153196
N160	N	1.172349	0.425889	0.346804
C161	C	0.711273	-0.035196	0.561965
C162	C	1.211273	0.464804	1.061965
C163	C	0.711276	-0.035192	0.623884
C164	C	1.211276	0.464808	1.123884
O165	O	0.744384	-0.002076	0.655911
O166	O	1.244384	0.497924	1.155911
N167	N	0.672334	-0.074115	0.654851
N168	N	1.172334	0.425885	1.154851
C169	C	0.633383	-0.113041	0.623895
C170	C	1.133383	0.386959	1.123895
O171	O	0.600259	-0.146147	0.655920
O172	O	1.100259	0.353853	1.155920
C173	C	0.633377	-0.113042	0.561976
C174	C	1.133377	0.386958	1.061976
C175	C	0.672326	-0.074120	0.531013
C176	C	1.172326	0.425880	1.031013
C177	C	0.750218	0.003724	0.531001
C178	C	1.250218	0.503724	1.031001
C179	C	0.750215	0.003719	0.469085
C180	C	1.250215	0.503719	0.969085
C181	C	0.711268	-0.035206	0.438133
C182	C	1.211268	0.464794	0.938133
C183	C	0.672323	-0.074125	0.469097
C184	C	1.172323	0.425875	0.969097
C185	C	0.594424	-0.151965	0.531021
C186	C	1.094424	0.348035	1.031021
C187	C	0.594422	-0.151962	0.469098
C188	C	1.094422	0.348038	0.969098
C189	C	0.633370	-0.113040	0.438134
C190	C	1.133370	0.386960	0.938134
C191	C	0.633374	-0.113054	0.376229
C192	C	1.133374	0.386946	0.876229
N193	N	0.672316	-0.074131	0.345262
N194	N	1.172316	0.425869	0.845262
C195	C	0.711263	-0.035207	0.376214
C196	C	1.211263	0.464793	0.876214
C197	C	0.633396	-0.113035	0.753928
C198	C	1.133396	0.386965	1.253928
C199	C	0.633403	-0.113037	0.815846
C200	C	1.133403	0.386963	1.315846
C201	C	0.711296	-0.035187	0.815831
C202	C	1.211296	0.464813	1.315831
C203	C	0.711291	-0.035188	0.753913
C204	C	1.211291	0.464812	1.253913
C205	C	0.672338	-0.074112	0.722962
C206	C	1.172338	0.425888	1.222962
C207	C	0.711255	-0.035220	0.246187
C208	C	1.211255	0.464780	0.746187
C209	C	0.711251	-0.035230	0.184266
C210	C	1.211251	0.464770	0.684266
C211	C	0.633357	-0.113078	0.184286
C212	C	1.133357	0.386922	0.684286
C213	C	0.633363	-0.113071	0.246202
C214	C	1.133363	0.386929	0.746202
C215	C	0.672314	-0.074137	0.277151
C216	C	1.172314	0.425863	0.777151
O217	O	0.600281	-0.146152	0.344163
O218	O	1.100281	0.353848	0.844163
O219	O	0.744376	-0.002101	0.344182
O220	O	1.244376	0.497899	0.844182
H221	H	-0.034198	0.022693	0.000084
H222	H	0.465802	0.522693	0.500084
H223	H	0.770443	0.111587	0.000092
H224	H	1.270443	0.611587	0.500092
H225	H	0.582043	0.085909	0.000065
H226	H	1.082043	0.585909	0.500065
H227	H	0.601653	-0.144770	0.271413
H228	H	1.101653	0.355230	0.771413
C229	C	0.792304	0.046086	0.435366
C230	C	1.292304	0.546086	0.935366
C231	C	0.783906	0.037829	0.374513
C232	C	1.283906	0.537829	0.874513
C233	C	0.822598	0.076921	0.343438
C234	C	1.322598	0.576921	0.843438
H235	H	0.786194	0.084016	0.445547
H236	H	1.286194	0.584016	0.945547
H237	H	0.830362	0.040268	0.445379
H238	H	1.330362	0.540268	0.945379
H239	H	0.745858	0.043652	0.364505
H240	H	1.245858	0.543652	0.864505
H241	H	0.790021	-0.000093	0.364315
H242	H	1.290021	0.499907	0.864315
H243	H	0.860655	0.071103	0.353450
H244	H	1.360655	0.571103	0.853450
H245	H	0.816485	0.114848	0.353623
H246	H	1.316485	0.614848	0.853623
H247	H	0.816909	0.071321	0.302146
H248	H	1.316909	0.571321	0.802146
H249	H	0.743005	-0.003494	0.728706
H250	H	1.243005	0.496506	1.228706
H251	H	0.098544	-0.219617	0.000046
H252	H	0.598544	0.280383	0.500046
H253	H	0.601694	-0.144737	0.841052
H254	H	1.101694	0.355263	1.341052
H255	H	0.819097	0.391900	0.000072
H256	H	1.319097	0.891900	0.500072
C257	C	-0.177584	-0.178439	-0.000062
C258	C	0.322416	0.321561	0.499938
C259	C	-0.167418	-0.209928	-0.050682
C260	C	0.332582	0.290072	0.449318
C261	C	-0.204173	-0.261515	-0.050821
C262	C	0.295827	0.238485	0.449179
H263	H	-0.170793	-0.199961	0.034198
H264	H	0.329207	0.300039	0.534198
H265	H	-0.216208	-0.170548	-0.000091
H266	H	0.283792	0.329452	0.499909
H267	H	-0.128804	-0.217820	-0.050648
H268	H	0.371196	0.282180	0.449352
H269	H	-0.174213	-0.188423	-0.084951
H270	H	0.325787	0.311577	0.415049
H271	H	-0.242796	-0.253624	-0.050849
H272	H	0.257204	0.246376	0.449151
H273	H	-0.197378	-0.283032	-0.016558
H274	H	0.302622	0.216968	0.483442
H275	H	-0.197284	-0.282885	-0.085168
H276	H	0.302716	0.217115	0.414832
C277	C	-0.053692	-0.179891	-0.000070
C278	C	0.446308	0.320109	0.499930
C279	C	-0.020012	-0.183336	-0.050687
C280	C	0.479988	0.316664	0.449313
C281	C	0.002638	-0.235606	-0.050832
C282	C	0.502638	0.264394	0.449168
H283	H	-0.030779	-0.182393	0.034193
H284	H	0.469221	0.317607	0.534193
H285	H	-0.084089	-0.210512	-0.000109
H286	H	0.415911	0.289488	0.499891
H287	H	0.010381	-0.152724	-0.050643
H288	H	0.510381	0.347276	0.449357
H289	H	-0.042912	-0.180844	-0.084958
H290	H	0.457088	0.319156	0.415042
H291	H	-0.027760	-0.266227	-0.050870
H292	H	0.472240	0.233773	0.449130
H293	H	0.025548	-0.238104	-0.016567
H294	H	0.525548	0.261896	0.483433
H295	H	0.025488	-0.237953	-0.085177
H296	H	0.525488	0.262047	0.414823
H297	H	0.601648	-0.144772	0.159075
H298	H	1.101648	0.355228	0.659075
H299	H	0.817806	0.499645	0.000061
H300	H	1.317806	0.999645	0.500061
H301	H	0.781933	0.035423	0.556197
H302	H	1.281933	0.535423	1.056197
C303	C	0.212321	-0.235157	0.000070
C304	C	0.712321	0.264843	0.500070
C305	C	0.167395	-0.280156	0.000083
C306	C	0.667395	0.219844	0.500083
C307	C	0.189887	-0.332510	0.000117
C308	C	0.689887	0.167490	0.500117
H309	H	0.235192	-0.237678	-0.034223
H310	H	0.735192	0.262322	0.465777
H311	H	0.235179	-0.237629	0.034388
H312	H	0.735179	0.262371	0.534388
H313	H	0.144547	-0.277685	-0.034231
H314	H	0.644547	0.222315	0.465769
H315	H	0.144520	-0.277654	0.034374
H316	H	0.644520	0.222346	0.534374
H317	H	0.212744	-0.334982	0.034435
H318	H	0.712744	0.165018	0.534435
H319	H	0.212757	-0.335025	-0.034177
H320	H	0.712757	0.164975	0.465823
H321	H	0.159408	-0.363048	0.000132
H322	H	0.659408	0.136952	0.500132
C323	C	0.492636	-0.186503	0.000053
C324	C	0.992636	0.313497	0.500053
C325	C	0.447714	-0.231506	0.000066
C326	C	0.947714	0.268494	0.500066
C327	C	0.470213	-0.283857	0.000093
C328	C	0.970213	0.216143	0.500093
H329	H	0.515504	-0.189018	-0.034243
H330	H	1.015504	0.310982	0.465757
H331	H	0.515497	-0.188975	0.034369
H332	H	1.015497	0.311025	0.534369
H333	H	0.424863	-0.229035	-0.034246
H334	H	0.924863	0.270965	0.465754
H335	H	0.424842	-0.229010	0.034360
H336	H	0.924842	0.270990	0.534360
H337	H	0.493073	-0.286329	0.034408
H338	H	0.993073	0.213671	0.534408
H339	H	0.493081	-0.286366	-0.034204
H340	H	0.993081	0.213634	0.465796
H341	H	0.439737	-0.314398	0.000107
H342	H	0.939737	0.185602	0.500107
H343	H	0.575496	0.632386	0.000028
H344	H	1.075496	1.132386	0.500028
C345	C	0.753488	0.007144	0.849475
C346	C	1.253488	0.507144	1.349475
C347	C	0.723347	0.041861	0.885012
C348	C	1.223347	0.541861	1.385012
C349	C	0.762192	0.080865	0.916007
C350	C	1.262192	0.580865	1.416007
H351	H	0.777093	-0.013154	0.873677
H352	H	1.277093	0.486846	1.373677
H353	H	0.776675	0.030360	0.822187
H354	H	1.276675	0.530360	1.322187
H355	H	0.700170	0.018647	0.912296
H356	H	1.200170	0.518647	1.412296
H357	H	0.699744	0.062172	0.860824
H358	H	1.199744	0.562172	1.360824
H359	H	0.785379	0.104081	0.888720
H360	H	1.285379	0.604081	1.388720
H361	H	0.785796	0.060562	0.940206
H362	H	1.285796	0.560562	1.440206
H363	H	0.741747	0.104428	0.940119
H364	H	1.241747	0.604428	1.440119
H365	H	0.378851	-0.170970	0.000041
H366	H	0.878851	0.329030	0.500041
H367	H	-0.141947	0.023982	0.000076
H368	H	0.358053	0.523982	0.500076
C369	C	0.511306	0.465846	-0.000024
C370	C	1.011306	0.965846	0.499976
C371	C	0.466308	0.420918	-0.000048
C372	C	0.966308	0.920918	0.499952
C373	C	0.413953	0.443409	-0.000099
C374	C	0.913953	0.943409	0.499901
H375	H	0.508773	0.488716	0.034267
H376	H	1.008773	0.988716	0.534267
H377	H	0.508844	0.488704	-0.034344
H378	H	1.008844	0.988704	0.465656
H379	H	0.468769	0.398070	0.034269
H380	H	0.968769	0.898070	0.534269
H381	H	0.468822	0.398045	-0.034337
H382	H	0.968822	0.898045	0.465663
H383	H	0.411491	0.466267	-0.034419
H384	H	0.911491	0.966267	0.465581
H385	H	0.411427	0.466278	0.034193
H386	H	0.911427	0.966278	0.534193
H387	H	0.383416	0.412929	-0.000121
H388	H	0.883416	0.912929	0.499879
H389	H	0.404512	0.017441	0.000056
H390	H	0.904512	0.517441	0.500056
H391	H	0.512280	0.016146	0.000054
H392	H	1.012280	0.516146	0.500054
C393	C	0.591082	-0.155369	0.720434
C394	C	1.091082	0.344631	1.220434
C395	C	0.556994	-0.189463	0.760812
C396	C	1.056994	0.310537	1.260812
C397	C	0.518013	-0.228471	0.729983
C398	C	1.018013	0.271529	1.229983
H399	H	0.567432	-0.135075	0.696280
H400	H	1.067432	0.364925	1.196280
H401	H	0.611416	-0.179007	0.696291
H402	H	1.111416	0.320993	1.196291
H403	H	0.536661	-0.165828	0.784945
H404	H	1.036661	0.334172	1.284945
H405	H	0.580628	-0.209770	0.784968
H406	H	1.080628	0.290230	1.284968
H407	H	0.538347	-0.252109	0.705840
H408	H	1.038347	0.247891	1.205840
H409	H	0.494368	-0.208172	0.705829
H410	H	0.994368	0.291828	1.205829
H411	H	0.494884	-0.251612	0.757374
H412	H	0.994884	0.248388	1.257374
H413	H	0.526850	0.352066	0.000013
H414	H	1.026850	0.852066	0.500013
H415	H	0.562709	-0.183658	0.556223
H416	H	1.062709	0.316342	1.056223
C417	C	0.566499	0.199712	0.000021
C418	C	1.066499	0.699712	0.500021
C419	C	0.521495	0.154791	0.000005
C420	C	1.021495	0.654791	0.500005
C421	C	0.469145	0.177292	-0.000049
C422	C	0.969145	0.677292	0.499951
H423	H	0.563972	0.222587	0.034309
H424	H	1.063972	0.722587	0.534309
H425	H	0.564041	0.222566	-0.034302
H426	H	1.064041	0.722566	0.465698
H427	H	0.523952	0.131947	0.034324
H428	H	1.023952	0.631947	0.534324
H429	H	0.524003	0.131912	-0.034281
H430	H	1.024003	0.631912	0.465719
H431	H	0.466686	0.200146	-0.034372
H432	H	0.966686	0.700146	0.465628
H433	H	0.466624	0.200167	0.034240
H434	H	0.966624	0.700167	0.534240
H435	H	0.438603	0.146817	-0.000066
H436	H	0.938603	0.646817	0.499934
H437	H	0.762610	0.765821	0.000047
H438	H	1.262610	1.265821	0.500047
C439	C	0.132343	0.086883	0.000143
C440	C	0.632343	0.586883	0.500143
C441	C	0.177271	0.131881	0.000170
C442	C	0.677271	0.631881	0.500170
C443	C	0.154780	0.184236	0.000226
C444	C	0.654780	0.684236	0.500226
H445	H	0.109475	0.089417	-0.034148
H446	H	0.609475	0.589417	0.465852
H447	H	0.109483	0.089344	0.034464
H448	H	0.609483	0.589344	0.534464
H449	H	0.200121	0.129421	-0.034147
H450	H	0.700121	0.629421	0.465853
H451	H	0.200142	0.129366	0.034458
H452	H	0.700142	0.629366	0.534458
H453	H	0.131921	0.186697	0.034547
H454	H	0.631921	0.686697	0.534547
H455	H	0.131912	0.186763	-0.034065
H456	H	0.631912	0.686763	0.465935
H457	H	0.185260	0.214773	0.000250
H458	H	0.685260	0.714773	0.500250
H459	H	0.246123	0.071339	0.000104
H460	H	0.746123	0.571339	0.500104
H461	H	0.769159	0.219337	0.000071
H462	H	1.269159	0.719337	0.500071
C463	C	0.753564	0.007096	0.150756
C464	C	1.253564	0.507096	0.650756
C465	C	0.787660	0.041195	0.191121
C466	C	1.287660	0.541195	0.691121
C467	C	0.826638	0.080196	0.160276
C468	C	1.326638	0.580196	0.660276
H469	H	0.777209	-0.013205	0.126599
H470	H	1.277209	0.486795	0.626599
H471	H	0.733228	0.030731	0.126615
H472	H	1.233228	0.530731	0.626615
H473	H	0.807995	0.017563	0.215252
H474	H	1.307995	0.517563	0.715252
H475	H	0.764031	0.061507	0.215279
H476	H	1.264031	0.561507	0.715279
H477	H	0.806301	0.103831	0.136134
H478	H	1.306301	0.603831	0.636134
H479	H	0.850278	0.059891	0.136119
H480	H	1.350278	0.559891	0.636119
H481	H	0.849773	0.103340	0.187658
H482	H	1.349773	0.603340	0.687658
C483	C	0.552105	-0.194290	0.435602
C484	C	1.052105	0.305710	0.935602
C485	C	0.518010	-0.228381	0.475977
C486	C	1.018010	0.271619	0.975977
C487	C	0.479029	-0.267386	0.445143
C488	C	0.979029	0.232614	0.945143
H489	H	0.528459	-0.173992	0.411446
H490	H	1.028459	0.326008	0.911446
H491	H	0.572438	-0.217930	0.411460
H492	H	1.072438	0.282070	0.911460
H493	H	0.497678	-0.204745	0.500108
H494	H	0.997678	0.295255	1.000108
H495	H	0.541640	-0.248692	0.500134
H496	H	1.041640	0.251308	1.000134
H497	H	0.499362	-0.291025	0.421002
H498	H	0.999362	0.208975	0.921002
H499	H	0.455387	-0.247083	0.420988
H500	H	0.955387	0.252917	0.920988
H501	H	0.455895	-0.290525	0.472533
H502	H	0.955895	0.209475	0.972533
H503	H	0.574207	0.740136	0.000035
H504	H	1.074207	1.240136	0.500035
H505	H	0.763906	0.658056	0.000054
H506	H	1.263906	1.158056	0.500054
H507	H	0.742973	-0.003516	0.271379
H508	H	1.242973	0.496484	0.771379
