data_functionalizedCrystal
_audit_creation_method	'MofGen! by Chris Wilmer'
_symmetry_space_group_name_H-M	'P1'
_symmetry_Int_Tables_number	1
_symmetry_cell_setting	triclinic
loop_
_symmetry_equiv_pos_as_xyz
  x,y,z
_cell_length_a	16.109317
_cell_length_b	11.892095
_cell_length_c	16.109298
_cell_angle_alpha	93.893369
_cell_angle_beta	83.464201
_cell_angle_gamma	86.106418
loop_
_atom_site_label
_atom_site_type_symbol
_atom_site_fract_x
_atom_site_fract_y
_atom_site_fract_z
O1	O	-1.108432	0.093869	-0.101624
O2	O	-0.858432	0.343869	0.148376
O3	O	-0.608432	0.593869	0.398376
O4	O	-0.358432	0.843869	0.648376
O5	O	-0.866373	0.093896	-0.114907
O6	O	-0.616373	0.343896	0.135093
O7	O	-0.366373	0.593896	0.385093
O8	O	-0.116373	0.843896	0.635093
O9	O	-0.994054	0.093890	0.012766
O10	O	-0.744054	0.343890	0.262766
O11	O	-0.494054	0.593890	0.512766
O12	O	-0.244054	0.843890	0.762766
O13	O	-0.980751	0.093875	-0.229297
O14	O	-0.730751	0.343875	0.020703
O15	O	-0.480751	0.593875	0.270703
O16	O	-0.230751	0.843875	0.520703
O17	O	-0.983408	-0.094117	0.002137
O18	O	-0.733408	0.155883	0.252137
O19	O	-0.483408	0.405883	0.502137
O20	O	-0.233408	0.655883	0.752137
O21	O	-0.855727	-0.094111	-0.125536
O22	O	-0.605727	0.155889	0.124464
O23	O	-0.355727	0.405889	0.374464
O24	O	-0.105727	0.655889	0.624464
O25	O	-1.097786	-0.094138	-0.112253
O26	O	-0.847786	0.155862	0.137747
O27	O	-0.597786	0.405862	0.387747
O28	O	-0.347786	0.655862	0.637747
Zn29	Zn	-0.975067	-0.123974	-0.120582
Zn30	Zn	-0.725067	0.126026	0.129418
Zn31	Zn	-0.475067	0.376026	0.379418
Zn32	Zn	-0.225067	0.626026	0.629418
Zn33	Zn	-0.989093	0.123733	-0.106578
Zn34	Zn	-0.739093	0.373733	0.143422
Zn35	Zn	-0.489093	0.623733	0.393422
Zn36	Zn	-0.239093	0.873733	0.643422
O37	O	-0.970105	-0.094132	-0.239925
O38	O	-0.720105	0.155868	0.010075
O39	O	-0.470105	0.405868	0.260075
O40	O	-0.220105	0.655868	0.510075
C41	C	-0.830076	-0.000104	-0.119681
C42	C	-0.580076	0.249896	0.130319
C43	C	-0.330076	0.499896	0.380319
C44	C	-0.080076	0.749896	0.630319
C45	C	-0.737782	-0.000093	-0.118060
C46	C	-0.487782	0.249907	0.131940
C47	C	-0.237782	0.499907	0.381940
C48	C	0.012218	0.749907	0.631940
N49	N	-0.965500	-0.293028	-0.130139
N50	N	-0.715500	-0.043028	0.119861
N51	N	-0.465500	0.206972	0.369861
N52	N	-0.215500	0.456972	0.619861
C53	C	-0.444510	0.102378	-0.107033
C54	C	-0.194510	0.352378	0.142967
C55	C	0.055490	0.602378	0.392967
C56	C	0.305490	0.852378	0.642967
C57	C	-0.531232	0.102382	-0.108549
C58	C	-0.281232	0.352382	0.141451
C59	C	-0.031232	0.602382	0.391451
C60	C	0.218768	0.852382	0.641451
C61	C	-0.519644	-0.102593	-0.120126
C62	C	-0.269644	0.147407	0.129874
C63	C	-0.019644	0.397407	0.379874
C64	C	0.230356	0.647407	0.629874
C65	C	-0.432925	-0.102597	-0.118603
C66	C	-0.182925	0.147403	0.131397
C67	C	0.067075	0.397403	0.381397
C68	C	0.317075	0.647403	0.631397
C69	C	-0.395360	-0.000108	-0.112061
C70	C	-0.145360	0.249892	0.137939
C71	C	0.104640	0.499892	0.387939
C72	C	0.354640	0.749892	0.637939
C73	C	-0.568801	-0.000100	-0.115100
C74	C	-0.318801	0.249900	0.134900
C75	C	-0.068801	0.499900	0.384900
C76	C	0.181199	0.749900	0.634900
C77	C	-0.662828	-0.000095	-0.116745
C78	C	-0.412828	0.249905	0.133255
C79	C	-0.162828	0.499905	0.383255
C80	C	0.087172	0.749905	0.633255
C81	C	-0.301327	-0.000112	-0.110414
C82	C	-0.051327	0.249888	0.139586
C83	C	0.198673	0.499888	0.389586
C84	C	0.448673	0.749888	0.639586
C85	C	-1.065234	-0.529681	-0.030467
C86	C	-0.815234	-0.279681	0.219533
C87	C	-0.565234	-0.029681	0.469533
C88	C	-0.315234	0.220319	0.719533
C89	C	-1.058553	-0.648022	-0.037153
C90	C	-0.808553	-0.398022	0.212847
C91	C	-0.558553	-0.148022	0.462847
C92	C	-0.308553	0.101978	0.712847
C93	C	-0.945454	-0.648055	-0.150192
C94	C	-0.695454	-0.398055	0.099808
C95	C	-0.445454	-0.148055	0.349808
C96	C	-0.195454	0.101945	0.599808
C97	C	-0.952135	-0.529713	-0.143506
C98	C	-0.702135	-0.279713	0.106494
C99	C	-0.452135	-0.029713	0.356494
C100	C	-0.202135	0.220287	0.606494
C101	C	-1.012028	-0.470530	-0.083642
C102	C	-0.762028	-0.220530	0.166358
C103	C	-0.512028	0.029470	0.416358
C104	C	-0.262028	0.279470	0.666358
C105	C	-1.018712	-0.352187	-0.076961
C106	C	-0.768712	-0.102187	0.173039
C107	C	-0.518712	0.147813	0.423039
C108	C	-0.268712	0.397813	0.673039
C109	C	-0.905609	-0.352221	-0.189996
C110	C	-0.655609	-0.102221	0.060004
C111	C	-0.405609	0.147779	0.310004
C112	C	-0.155609	0.397779	0.560004
C113	C	-0.898929	-0.470563	-0.196682
C114	C	-0.648929	-0.220563	0.053318
C115	C	-0.398929	0.029437	0.303318
C116	C	-0.148929	0.279437	0.553318
C117	C	-0.134084	-0.000129	-0.107479
C118	C	0.115916	0.249871	0.142521
C119	C	0.365916	0.499871	0.392521
C120	C	0.615916	0.749871	0.642521
C121	C	-0.226379	-0.000115	-0.109101
C122	C	0.023621	0.249885	0.140899
C123	C	0.273621	0.499885	0.390899
C124	C	0.523621	0.749885	0.640899
C125	C	-0.988193	-0.000109	0.038426
C126	C	-0.738193	0.249891	0.288426
C127	C	-0.488193	0.499891	0.538426
C128	C	-0.238193	0.749891	0.788426
C129	C	-0.986580	-0.000095	0.130723
C130	C	-0.736580	0.249905	0.380723
C131	C	-0.486580	0.499905	0.630723
C132	C	-0.236580	0.749905	0.880723
N133	N	-0.998666	0.292786	-0.097015
N134	N	-0.748666	0.542786	0.152985
N135	N	-0.498666	0.792786	0.402985
N136	N	-0.248666	1.042786	0.652985
C137	C	-0.975966	-0.000130	-0.265586
C138	C	-0.725966	0.249870	-0.015586
C139	C	-0.475966	0.499870	0.234414
C140	C	-0.225966	0.749870	0.484414
C141	C	-0.977580	-0.000136	-0.357882
C142	C	-0.727580	0.249864	-0.107882
C143	C	-0.477580	0.499864	0.142118
C144	C	-0.227580	0.749864	0.392118
C145	C	-0.987114	0.102364	0.435584
C146	C	-0.737114	0.352364	0.685584
C147	C	-0.487114	0.602364	0.935584
C148	C	-0.237114	0.852364	1.185584
C149	C	-0.988642	0.102372	0.348865
C150	C	-0.738642	0.352372	0.598865
C151	C	-0.488642	0.602372	0.848865
C152	C	-0.238642	0.852372	1.098865
C153	C	-0.977048	-0.102604	0.337262
C154	C	-0.727048	0.147396	0.587262
C155	C	-0.477048	0.397396	0.837262
C156	C	-0.227048	0.647396	1.087262
C157	C	-0.975525	-0.102610	0.423981
C158	C	-0.725525	0.147390	0.673981
C159	C	-0.475525	0.397390	0.923981
C160	C	-0.225525	0.647390	1.173981
C161	C	-0.980555	-0.000123	0.473140
C162	C	-0.730555	0.249877	0.723140
C163	C	-0.480555	0.499877	0.973140
C164	C	-0.230555	0.749877	1.223140
C165	C	-0.983605	-0.000109	0.299701
C166	C	-0.733605	0.249891	0.549701
C167	C	-0.483605	0.499891	0.799701
C168	C	-0.233605	0.749891	1.049701
C169	C	-0.985262	-0.000101	0.205676
C170	C	-0.735262	0.249899	0.455676
C171	C	-0.485262	0.499899	0.705676
C172	C	-0.235262	0.749899	0.955676
C173	C	-0.978899	-0.000130	0.567171
C174	C	-0.728899	0.249870	0.817171
C175	C	-0.478899	0.499870	1.067171
C176	C	-0.228899	0.749870	1.317171
H177	H	-0.413928	0.185831	-0.101704
H178	H	-0.163928	0.435831	0.148296
H179	H	0.086072	0.685831	0.398296
H180	H	0.336072	0.935831	0.648296
H181	H	-0.850163	-0.518763	-0.245420
H182	H	-0.600163	-0.268763	0.004580
H183	H	-0.350163	-0.018763	0.254580
H184	H	-0.100163	0.231237	0.504580
H185	H	-0.972952	-0.186045	0.297227
H186	H	-0.722952	0.063955	0.547227
H187	H	-0.472952	0.313955	0.797227
H188	H	-0.222952	0.563955	1.047227
F189	F	-0.992469	0.211440	0.487900
F190	F	-0.742469	0.461440	0.737900
F191	F	-0.492469	0.711440	0.987900
F192	F	-0.242469	0.961440	1.237900
H193	H	-0.862288	-0.304048	-0.233297
H194	H	-0.612288	-0.054048	0.016703
H195	H	-0.362288	0.195952	0.266703
H196	H	-0.112288	0.445952	0.516703
H197	H	-0.571247	0.185836	-0.104454
H198	H	-0.321247	0.435836	0.145546
H199	H	-0.071247	0.685836	0.395546
H200	H	0.178753	0.935836	0.645546
H201	H	-1.067481	-0.304001	-0.028219
H202	H	-0.817481	-0.054001	0.221781
H203	H	-0.567481	0.195999	0.471781
H204	H	-0.317481	0.445999	0.721781
F205	F	-0.881708	-0.711054	-0.213893
F206	F	-0.631708	-0.461054	0.036107
F207	F	-0.381708	-0.211054	0.286107
F208	F	-0.131708	0.038946	0.536107
F209	F	-0.968548	-0.211697	0.463953
F210	F	-0.718548	0.038303	0.713953
F211	F	-0.468548	0.288303	0.963953
F212	F	-0.218548	0.538303	1.213953
F213	F	-0.559630	-0.211663	-0.127096
F214	F	-0.309630	0.038337	0.122904
F215	F	-0.059630	0.288337	0.372904
F216	F	0.190370	0.538337	0.622904
F217	F	-0.380612	-0.211682	-0.123953
F218	F	-0.130612	0.038318	0.126047
F219	F	0.119388	0.288318	0.376047
F220	F	0.369388	0.538318	0.626047
H221	H	-0.993985	0.185827	0.318292
H222	H	-0.743985	0.435827	0.568292
H223	H	-0.493985	0.685827	0.818292
H224	H	-0.243985	0.935827	1.068292
H225	H	-1.114006	-0.481493	0.018271
H226	H	-0.864006	-0.231493	0.268271
H227	H	-0.614006	0.018507	0.518271
H228	H	-0.364006	0.268507	0.768271
H229	H	-1.101878	-0.696179	0.006149
H230	H	-0.851878	-0.446179	0.256149
H231	H	-0.601878	-0.196179	0.506149
H232	H	-0.351878	0.053821	0.756149
