data_functionalizedCrystal
_audit_creation_method	'MofGen! by Chris Wilmer'
_symmetry_space_group_name_H-M	'P1'
_symmetry_Int_Tables_number	1
_symmetry_cell_setting	triclinic
loop_
_symmetry_equiv_pos_as_xyz
  x,y,z
_cell_length_a	19.077105
_cell_length_b	21.295418
_cell_length_c	19.076919
_cell_angle_alpha	92.268432
_cell_angle_beta	90.076224
_cell_angle_gamma	87.723635
loop_
_atom_site_label
_atom_site_type_symbol
_atom_site_fract_x
_atom_site_fract_y
_atom_site_fract_z
Zn1	Zn	1.058254	-0.304535	-0.440398
Zn2	Zn	1.391587	0.028798	-0.107065
Zn3	Zn	1.724920	0.362131	0.226269
Zn4	Zn	1.062888	-0.405749	-0.322885
Zn5	Zn	1.396221	-0.072415	0.010449
Zn6	Zn	1.729555	0.260918	0.343782
Zn7	Zn	0.945472	-0.296103	-0.318192
Zn8	Zn	1.278805	0.037231	0.015142
Zn9	Zn	1.612139	0.370564	0.348475
Zn10	Zn	0.940710	-0.405369	-0.435637
Zn11	Zn	1.274043	-0.072036	-0.102304
Zn12	Zn	1.607376	0.261298	0.231030
O13	O	1.001831	-0.352939	-0.379278
O14	O	1.335164	-0.019606	-0.045945
O15	O	1.668497	0.313728	0.287389
O16	O	1.157200	-0.321650	-0.428766
O17	O	1.490533	0.011684	-0.095432
O18	O	1.823867	0.345017	0.237901
O19	O	1.051245	-0.387834	-0.223931
O20	O	1.384578	-0.054500	0.109402
O21	O	1.717912	0.278833	0.442736
O22	O	0.960486	-0.209135	-0.334431
O23	O	1.293819	0.124198	-0.001098
O24	O	1.627153	0.457532	0.332235
O25	O	1.160605	-0.396011	-0.342429
O26	O	1.493938	-0.062677	-0.009096
O27	O	1.827271	0.270656	0.324237
O28	O	1.043346	-0.215330	-0.424216
O29	O	1.376680	0.118003	-0.090882
O30	O	1.710013	0.451336	0.242451
O31	O	0.964980	-0.307277	-0.220483
O32	O	1.298313	0.026056	0.112850
O33	O	1.631647	0.359389	0.446183
O34	O	0.846509	-0.306909	-0.329815
O35	O	1.179842	0.026424	0.003518
O36	O	1.513175	0.359757	0.336852
O37	O	0.952370	-0.395364	-0.534600
O38	O	1.285703	-0.062030	-0.201266
O39	O	1.619036	0.271303	0.132067
O40	O	0.843010	-0.387187	-0.416101
O41	O	1.176343	-0.053853	-0.082768
O42	O	1.509677	0.279480	0.250565
O43	O	1.038729	-0.321282	-0.538097
O44	O	1.372062	0.012052	-0.204764
O45	O	1.705395	0.345385	0.128569
O46	O	1.046627	-0.493785	-0.337813
O47	O	1.379961	-0.160452	-0.004480
O48	O	1.713294	0.172882	0.328854
O49	O	0.956863	-0.493506	-0.420652
O50	O	1.290197	-0.160173	-0.087318
O51	O	1.623530	0.173161	0.246015
C52	C	0.819263	-0.346092	-0.371933
C53	C	1.152596	-0.012759	-0.038599
C54	C	1.485930	0.320574	0.294734
C55	C	0.741159	-0.343179	-0.368807
C56	C	1.074492	-0.009845	-0.035474
C57	C	1.407826	0.323488	0.297859
C58	C	0.702665	-0.383665	-0.412193
C59	C	1.035998	-0.050331	-0.078860
C60	C	1.369332	0.283002	0.254474
C61	C	0.629278	-0.380919	-0.409259
C62	C	0.962611	-0.047586	-0.075926
C63	C	1.295945	0.285748	0.257407
C64	C	0.594386	-0.337690	-0.362936
C65	C	0.927719	-0.004357	-0.029603
C66	C	1.261053	0.328976	0.303730
C67	C	0.632885	-0.297200	-0.319549
C68	C	0.966218	0.036133	0.013785
C69	C	1.299552	0.369467	0.347118
C70	C	0.706271	-0.299943	-0.322486
C71	C	1.039604	0.033390	0.010847
C72	C	1.372937	0.366724	0.344180
C73	C	0.375100	-0.324995	-0.349344
C74	C	0.708433	0.008338	-0.016011
C75	C	1.041766	0.341671	0.317322
C76	C	0.301709	-0.322257	-0.346409
C77	C	0.635042	0.011077	-0.013075
C78	C	0.968375	0.344410	0.320258
C79	C	0.298107	-0.405975	-0.436121
C80	C	0.631440	-0.072642	-0.102787
C81	C	0.964773	0.260692	0.230546
C82	C	0.371494	-0.408717	-0.439051
C83	C	0.704827	-0.075383	-0.105718
C84	C	1.038161	0.257950	0.227616
C85	C	0.409986	-0.368225	-0.395666
C86	C	0.743320	-0.034891	-0.062333
C87	C	1.076653	0.298442	0.271000
N88	N	0.519373	-0.334884	-0.359935
N89	N	0.852706	-0.001551	-0.026602
N90	N	1.186039	0.331783	0.306732
N91	N	0.484998	-0.371028	-0.398671
N92	N	0.818332	-0.037695	-0.065338
N93	N	1.151665	0.295639	0.267995
C94	C	1.001750	-0.516486	-0.379241
C95	C	1.335083	-0.183153	-0.045908
C96	C	1.668417	0.150180	0.287426
C97	C	1.001779	-0.586456	-0.379251
C98	C	1.335112	-0.253123	-0.045918
C99	C	1.668445	0.080211	0.287415
C100	C	1.048735	-1.086051	-0.336264
C101	C	1.382068	-0.752718	-0.002930
C102	C	1.715402	-0.419385	0.330403
C103	C	1.048709	-1.020307	-0.336246
C104	C	1.382042	-0.686974	-0.002913
C105	C	1.715376	-0.353640	0.330421
C106	C	1.001928	-0.987304	-0.379331
C107	C	1.335261	-0.653970	-0.045998
C108	C	1.668594	-0.320637	0.287336
C109	C	0.955157	-1.020049	-0.422424
C110	C	1.288490	-0.686715	-0.089090
C111	C	1.621824	-0.353382	0.244243
C112	C	0.955180	-1.085791	-0.422435
C113	C	1.288513	-0.752458	-0.089102
C114	C	1.621846	-0.419124	0.244232
N115	N	0.993992	-0.885967	-0.440598
N116	N	1.327325	-0.552634	-0.107265
N117	N	1.660658	-0.219301	0.226068
N118	N	0.993974	-0.823515	-0.440586
N119	N	1.327308	-0.490182	-0.107253
N120	N	1.660641	-0.156848	0.226081
C121	C	1.001856	-0.789225	-0.379299
C122	C	1.335189	-0.455892	-0.045965
C123	C	1.668522	-0.122558	0.287368
N124	N	1.009769	-0.819748	-0.318024
N125	N	1.343102	-0.486414	0.015310
N126	N	1.676436	-0.153081	0.348643
N127	N	1.009790	-0.882206	-0.318037
N128	N	1.343123	-0.548873	0.015296
N129	N	1.676456	-0.215539	0.348630
C130	C	1.001898	-0.916017	-0.379323
C131	C	1.335231	-0.582683	-0.045990
C132	C	1.668564	-0.249350	0.287343
C133	C	1.048592	-0.685201	-0.336186
C134	C	1.381925	-0.351867	-0.002853
C135	C	1.715259	-0.018534	0.330481
C136	C	1.048561	-0.619455	-0.336167
C137	C	1.381894	-0.286122	-0.002833
C138	C	1.715228	0.047212	0.330500
C139	C	0.955013	-0.619198	-0.422351
C140	C	1.288346	-0.285865	-0.089018
C141	C	1.621679	0.047469	0.244316
C142	C	0.955040	-0.684942	-0.422364
C143	C	1.288373	-0.351609	-0.089030
C144	C	1.621707	-0.018275	0.244303
C145	C	1.001834	-0.717939	-0.379282
C146	C	1.335167	-0.384606	-0.045949
C147	C	1.668500	-0.051273	0.287385
C148	C	1.185112	-0.359813	-0.386652
C149	C	1.518445	-0.026480	-0.053319
C150	C	1.851778	0.306854	0.280015
C151	C	1.263215	-0.362742	-0.389794
C152	C	1.596548	-0.029409	-0.056461
C153	C	1.929882	0.303924	0.276872
C154	C	0.994501	-0.359221	-0.562558
C155	C	1.327834	-0.025888	-0.229224
C156	C	1.661168	0.307446	0.104109
C157	C	0.991377	-0.361898	-0.640661
C158	C	1.324711	-0.028564	-0.307327
C159	C	1.658044	0.304769	0.026006
C160	C	1.001931	-0.188754	-0.379331
C161	C	1.335264	0.144579	-0.045998
C162	C	1.668597	0.477912	0.287336
C163	C	1.001973	-0.118788	-0.379354
C164	C	1.335306	0.214545	-0.046020
C165	C	1.668640	0.547878	0.287313
C166	C	1.034870	-0.324587	-0.679176
C167	C	1.368204	0.008747	-0.345842
C168	C	1.701537	0.342080	-0.012509
C169	C	1.031927	-0.327099	-0.752561
C170	C	1.365260	0.006234	-0.419228
C171	C	1.698593	0.339567	-0.085895
C172	C	0.985494	-0.366927	-0.787431
C173	C	1.318827	-0.033593	-0.454097
C174	C	1.652160	0.299740	-0.120764
C175	C	0.941996	-0.404239	-0.748910
C176	C	1.275329	-0.070906	-0.415577
C177	C	1.608663	0.262427	-0.082244
C178	C	0.944937	-0.401723	-0.675526
C179	C	1.278270	-0.068390	-0.342192
C180	C	1.611603	0.264944	-0.008859
C181	C	0.971875	-0.378585	-1.006711
C182	C	1.305208	-0.045252	-0.673378
C183	C	1.638542	0.288082	-0.340044
C184	C	0.968939	-0.381100	-1.080101
C185	C	1.302273	-0.047766	-0.746767
C186	C	1.635606	0.285567	-0.413434
C187	C	1.058870	-0.303959	-1.083747
C188	C	1.392203	0.029375	-0.750413
C189	C	1.725536	0.362708	-0.417080
C190	C	1.061809	-0.301449	-1.010361
C191	C	1.395142	0.031885	-0.677027
C192	C	1.728475	0.365218	-0.343694
C193	C	1.018309	-0.338759	-0.971847
C194	C	1.351642	-0.005425	-0.638513
C195	C	1.684975	0.327908	-0.305180
N196	N	0.982485	-0.369497	-0.862443
N197	N	1.315819	-0.036164	-0.529109
N198	N	1.649152	0.297169	-0.195776
N199	N	1.021314	-0.336184	-0.896836
N200	N	1.354647	-0.002851	-0.563503
N201	N	1.687981	0.330482	-0.230169
C202	C	1.009173	-0.346638	-0.196713
C203	C	1.342506	-0.013304	0.136621
C204	C	1.675839	0.320029	0.469954
C205	C	1.012432	-0.343789	-0.118616
C206	C	1.345766	-0.010455	0.214718
C207	C	1.679099	0.322878	0.548051
H208	H	0.731069	-0.418868	-0.449912
H209	H	1.064402	-0.085535	-0.116579
H210	H	1.397735	0.247799	0.216755
Cl211	Cl	0.589021	-0.242851	-0.261318
Cl212	Cl	0.922354	0.090482	0.072015
Cl213	Cl	1.255687	0.423816	0.405349
Cl214	Cl	1.113549	-0.257055	-1.132168
Cl215	Cl	1.446882	0.076278	-0.798835
Cl216	Cl	1.780216	0.409612	-0.465501
Cl217	Cl	0.910558	-0.431169	-1.123935
Cl218	Cl	1.243891	-0.097835	-0.790602
Cl219	Cl	1.577225	0.235498	-0.457269
H220	H	0.909513	-0.432099	-0.644167
H221	H	1.242846	-0.098766	-0.310834
H222	H	1.576180	0.234568	0.022499
H223	H	1.086836	-1.112913	-0.301181
H224	H	1.420169	-0.779580	0.032152
H225	H	1.753502	-0.446247	0.365486
H226	H	0.916920	-0.592327	-0.457429
H227	H	1.250253	-0.258994	-0.124095
H228	H	1.583586	0.074340	0.209238
Cl229	Cl	0.917189	-0.425490	-0.958303
Cl230	Cl	1.250522	-0.092157	-0.624969
Cl231	Cl	1.583856	0.241177	-0.291636
Cl232	Cl	0.423481	-0.274089	-0.294805
Cl233	Cl	0.756814	0.059245	0.038528
Cl234	Cl	1.090147	0.392578	0.371862
H235	H	0.904187	-0.436665	-0.777307
H236	H	1.237520	-0.103332	-0.443973
H237	H	1.570853	0.230001	-0.110640
H238	H	0.737612	-0.266972	-0.287161
H239	H	1.070945	0.066361	0.046173
H240	H	1.404278	0.399695	0.379506
H241	H	1.086789	-0.993647	-0.301156
H242	H	1.420123	-0.660314	0.032178
H243	H	1.753456	-0.326981	0.365511
H244	H	0.597939	-0.413887	-0.444588
H245	H	0.931273	-0.080554	-0.111255
H246	H	1.264606	0.252779	0.222079
Cl247	Cl	0.896390	-1.126949	-0.476612
Cl248	Cl	1.229724	-0.793616	-0.143279
Cl249	Cl	1.563057	-0.460282	0.190055
Cl250	Cl	0.415353	-0.463065	-0.497287
Cl251	Cl	0.748686	-0.129732	-0.163953
Cl252	Cl	1.082019	0.203601	0.169380
Cl253	Cl	0.249712	-0.456877	-0.490657
Cl254	Cl	0.583045	-0.123544	-0.157324
Cl255	Cl	0.916379	0.209790	0.176010
Cl256	Cl	0.896345	-0.978559	-0.476586
Cl257	Cl	1.229678	-0.645226	-0.143253
Cl258	Cl	1.563011	-0.311893	0.190081
H259	H	1.086693	-0.712068	-0.301105
H260	H	1.420026	-0.378735	0.032228
H261	H	1.753360	-0.045402	0.365561
H262	H	0.273302	-0.287047	-0.308691
H263	H	0.606635	0.046286	0.024642
H264	H	0.939968	0.379619	0.357976
Cl265	Cl	0.896257	-0.726100	-0.476545
Cl266	Cl	1.229591	-0.392767	-0.143212
Cl267	Cl	1.562924	-0.059434	0.190122
Cl268	Cl	1.107353	-0.578299	-0.281991
Cl269	Cl	1.440686	-0.244965	0.051342
Cl270	Cl	1.774020	0.088368	0.384676
Cl271	Cl	1.093250	-0.274518	-0.635347
Cl272	Cl	1.426583	0.058815	-0.302014
Cl273	Cl	1.759917	0.392148	0.031319
Cl274	Cl	1.120185	-0.251378	-0.966530
Cl275	Cl	1.453518	0.081955	-0.633197
Cl276	Cl	1.786851	0.415289	-0.299864
Cl277	Cl	1.086637	-0.280220	-0.800978
Cl278	Cl	1.419971	0.053113	-0.467645
Cl279	Cl	1.753304	0.386446	-0.134312
