data_functionalizedCrystal
_audit_creation_method	'MofGen! by Chris Wilmer'
_symmetry_space_group_name_H-M	'P1'
_symmetry_Int_Tables_number	1
_symmetry_cell_setting	triclinic
loop_
_symmetry_equiv_pos_as_xyz
  x,y,z
_cell_length_a	16.109301
_cell_length_b	10.489741
_cell_length_c	14.586319
_cell_angle_alpha	89.996488
_cell_angle_beta	89.999213
_cell_angle_gamma	84.000327
loop_
_atom_site_label
_atom_site_type_symbol
_atom_site_fract_x
_atom_site_fract_y
_atom_site_fract_z
O1	O	1.104141	0.163947	-0.076182
O2	O	0.862205	0.184350	-0.076196
O3	O	0.988678	-0.011529	-0.076183
O4	O	0.977668	0.359826	-0.076195
O5	O	0.988670	-0.011532	0.076298
O6	O	0.862196	0.184347	0.076284
O7	O	1.104132	0.163944	0.076299
Cu8	Cu	0.983164	0.174145	0.090214
Cu9	Cu	0.983174	0.174149	-0.090112
O10	O	0.977659	0.359823	0.076286
C11	C	0.831221	0.183522	0.000042
C12	C	0.738910	0.181044	0.000037
C13	C	0.517319	0.291514	0.000044
C14	C	0.430584	0.289175	0.000050
C15	C	0.449026	0.056771	0.000053
C16	C	0.535759	0.059111	0.000054
C17	C	0.569903	0.176486	0.000045
C18	C	0.396435	0.171808	0.000050
C19	C	0.302393	0.169272	0.000056
C20	C	0.663950	0.179022	0.000040
C21	C	0.987842	-0.059050	0.000057
C22	C	0.985354	-0.200644	0.000055
C23	C	0.904883	-0.267616	0.000043
C24	C	0.942893	-0.360292	0.075226
C25	C	0.942920	-0.360264	-0.075108
C26	C	1.023397	-0.291454	0.075300
C27	C	1.023414	-0.291417	-0.075102
C28	C	1.061482	-0.384066	0.000100
C29	C	1.135117	0.164772	0.000058
C30	C	1.227427	0.167250	0.000058
C31	C	0.978495	0.407344	0.000044
C32	C	0.980983	0.548938	0.000040
N33	N	0.983162	0.174142	0.217046
N34	N	0.983182	0.174142	-0.216944
C35	C	1.039183	0.087436	0.452058
C36	C	1.039186	0.087433	0.548040
C37	C	0.927155	0.260852	0.548038
C38	C	0.927149	0.260848	0.452058
C39	C	0.983168	0.174141	0.404071
C40	C	0.983176	0.174142	0.596032
C41	C	0.983178	0.174140	0.700099
C42	C	0.983165	0.174142	0.299997
H43	H	0.387773	0.382843	0.000051
H44	H	1.127704	-0.434450	0.000146
C45	C	0.895750	-0.534789	0.160516
C46	C	0.896927	-0.401505	0.161026
H47	H	0.867373	-0.560226	0.213485
H48	H	0.867698	-0.559488	0.107132
H49	H	0.951383	-0.575043	0.160599
H50	H	0.841293	-0.361251	0.160935
H51	H	0.924977	-0.376794	0.214423
H52	H	0.421215	-0.038791	0.000067
C53	C	1.071836	-0.117137	-0.159520
C54	C	1.069346	-0.250155	-0.160903
H55	H	1.100193	-0.091665	-0.212494
H56	H	1.016525	-0.075672	-0.158989
H57	H	1.100493	-0.093867	-0.106146
H58	H	1.040684	-0.273424	-0.214274
H59	H	1.124668	-0.291635	-0.161443
H60	H	0.578575	-0.034565	0.000057
H61	H	0.881546	0.331449	0.587118
H62	H	1.084796	0.016832	0.412990
C63	C	1.071195	-0.117362	0.160457
C64	C	1.069313	-0.250511	0.161207
H65	H	1.099535	-0.092085	0.213496
H66	H	1.099594	-0.093248	0.107144
H67	H	1.015728	-0.076453	0.160236
H68	H	1.124780	-0.291420	0.161421
H69	H	1.040915	-0.274638	0.214534
C70	C	0.910140	0.434425	0.344104
C71	C	0.865575	0.356166	0.399302
H72	H	0.872126	0.493260	0.311531
H73	H	0.945014	0.480321	0.381541
H74	H	0.943494	0.382766	0.301793
H75	H	0.832225	0.407825	0.441617
H76	H	0.830687	0.310267	0.361862
H77	H	0.908865	-0.390732	-0.138675
C78	C	1.149929	-0.083970	0.538395
C79	C	1.100764	-0.007872	0.600787
H80	H	1.187949	-0.142804	0.570961
H81	H	1.115049	-0.129867	0.500966
H82	H	1.180145	-0.030846	0.500953
H83	H	1.070543	-0.060996	0.638225
H84	H	1.135648	0.038028	0.638232
C85	C	0.490375	0.520998	0.000052
C86	C	0.554851	0.420530	0.000046
H87	H	0.513546	0.600648	0.000062
H88	H	0.456932	0.515260	-0.053118
H89	H	0.456928	0.515233	0.053229
H90	H	0.588294	0.426290	-0.053134
H91	H	0.588307	0.426271	0.053222
H92	H	0.838720	-0.217005	0.000115
