data_functionalizedCrystal
_audit_creation_method	'MofGen! by Chris Wilmer'
_symmetry_space_group_name_H-M	'P1'
_symmetry_Int_Tables_number	1
_symmetry_cell_setting	triclinic
loop_
_symmetry_equiv_pos_as_xyz
  x,y,z
_cell_length_a	16.974800
_cell_length_b	16.974813
_cell_length_c	16.053802
_cell_angle_alpha	88.912550
_cell_angle_beta	91.074188
_cell_angle_gamma	83.627081
loop_
_atom_site_label
_atom_site_type_symbol
_atom_site_fract_x
_atom_site_fract_y
_atom_site_fract_z
O1	O	1.049294	0.100467	-0.005291
O2	O	1.549294	0.600467	0.494709
O3	O	0.819858	0.112532	-0.021616
O4	O	1.319858	0.612532	0.478384
O5	O	0.940601	-0.008219	-0.005291
O6	O	1.440601	0.491781	0.494709
O7	O	0.928550	0.221219	-0.021616
O8	O	1.428550	0.721219	0.478384
O9	O	0.933955	-0.001600	0.132671
O10	O	1.433955	0.498400	0.632671
O11	O	0.813212	0.119151	0.116346
O12	O	1.313212	0.619151	0.616346
O13	O	1.042647	0.107086	0.132671
O14	O	1.542647	0.607086	0.632671
Zn15	Zn	0.926874	0.114170	0.146413
Zn16	Zn	1.426874	0.614170	0.646413
Zn17	Zn	0.935631	0.105449	-0.035358
Zn18	Zn	1.435631	0.605449	0.464642
O19	O	0.921904	0.227838	0.116347
O20	O	1.421904	0.727838	0.616347
C21	C	0.787171	0.115262	0.045419
C22	C	1.287171	0.615262	0.545419
C23	C	0.699674	0.113524	0.039622
C24	C	1.199674	0.613524	0.539622
C25	C	0.654950	0.116314	0.112104
C26	C	1.154950	0.616314	0.612104
C27	C	0.572739	0.114668	0.106660
C28	C	1.072739	0.614668	0.606660
C29	C	0.535254	0.110239	0.028733
C30	C	1.035254	0.610239	0.528733
C31	C	0.579984	0.107446	-0.043754
C32	C	1.079984	0.607446	0.456246
C33	C	0.662194	0.109086	-0.038309
C34	C	1.162194	0.609086	0.461691
C35	C	0.289772	0.104942	0.004384
C36	C	0.789772	0.604942	0.504384
C37	C	0.207556	0.103305	-0.001056
C38	C	0.707556	0.603305	0.498944
C39	C	0.200317	0.110525	0.149359
C40	C	0.700317	0.610525	0.649359
C41	C	0.282528	0.112169	0.154797
C42	C	0.782528	0.612169	0.654797
C43	C	0.327252	0.109373	0.082310
C44	C	0.827252	0.609373	0.582310
N45	N	0.451221	0.108559	0.023167
N46	N	0.951221	0.608559	0.523167
N47	N	0.411284	0.111047	0.087878
N48	N	0.911284	0.611047	0.587878
C49	C	0.936696	-0.034274	0.065634
C50	C	1.436696	0.465726	0.565634
C51	C	0.934953	-0.121771	0.071426
C52	C	1.434953	0.378229	0.571426
C53	C	0.937759	-0.166481	-0.001056
C54	C	1.437759	0.333519	0.498944
C55	C	0.936116	-0.248693	0.004388
C56	C	1.436116	0.251307	0.504388
C57	C	0.931673	-0.286195	0.082315
C58	C	1.431673	0.213805	0.582315
C59	C	0.928864	-0.241479	0.154802
C60	C	1.428864	0.258521	0.654802
C61	C	0.930502	-0.159267	0.149357
C62	C	1.430502	0.340733	0.649357
C63	C	0.926382	-0.531683	0.106664
C64	C	1.426382	-0.031683	0.606664
C65	C	0.924747	-0.613900	0.112104
C66	C	1.424747	-0.113900	0.612104
C67	C	0.931997	-0.621109	-0.038310
C68	C	1.431997	-0.121109	0.461690
C69	C	0.933639	-0.538897	-0.043748
C70	C	1.433639	-0.038897	0.456252
C71	C	0.930826	-0.494187	0.028738
C72	C	1.430826	0.005813	0.528738
N73	N	0.929996	-0.370229	0.087882
N74	N	1.429996	0.129771	0.587882
N75	N	0.932498	-0.410154	0.023170
N76	N	1.432498	0.089846	0.523170
C77	C	1.075335	0.104357	0.065634
C78	C	1.575335	0.604357	0.565634
C79	C	1.162832	0.106095	0.071426
C80	C	1.662832	0.606095	0.571426
C81	C	0.925809	0.253893	0.045420
C82	C	1.425809	0.753893	0.545420
C83	C	0.927553	0.341390	0.039623
C84	C	1.427553	0.841390	0.539623
N85	N	0.920904	0.120121	0.270468
N86	N	1.420904	0.620121	0.770468
N87	N	0.941608	0.099491	-0.159411
N88	N	1.441608	0.599491	0.340589
C89	C	0.972299	0.068760	0.321108
C90	C	1.472299	0.568760	0.821108
C91	C	0.968130	0.072930	0.407951
C92	C	1.468130	0.572930	0.907951
C93	C	0.912569	0.128466	0.444152
C94	C	1.412569	0.628466	0.944152
C95	C	0.861169	0.179830	0.393505
C96	C	1.361169	0.679830	0.893505
C97	C	0.865335	0.175655	0.306664
C98	C	1.365335	0.675655	0.806664
C99	C	0.894373	0.146680	0.703101
C100	C	1.394373	0.646680	1.203101
C101	C	0.890212	0.150853	0.789948
C102	C	1.390212	0.650853	1.289948
C103	C	0.997173	0.043951	0.804388
C104	C	1.497173	0.543951	1.304388
C105	C	1.001337	0.039784	0.717544
C106	C	1.501337	0.539784	1.217544
C107	C	0.949934	0.091145	0.666905
C108	C	1.449934	0.591145	1.166905
N109	N	0.908308	0.132732	0.532920
N110	N	1.408308	0.632732	1.032920
N111	N	0.954192	0.086875	0.578140
N112	N	1.454192	0.586875	1.078140
H113	H	0.326177	0.102662	-0.054639
H114	H	0.826177	0.602662	0.445361
H115	H	0.815926	0.225047	0.422985
H116	H	1.315926	0.725047	0.922985
N117	N	0.938493	-0.498491	-0.127811
N118	N	1.438493	0.001509	0.372189
H119	H	0.988168	-0.470862	-0.129665
H120	H	1.488168	0.029138	0.370335
H121	H	0.940008	-0.539364	-0.172825
H122	H	1.440008	-0.039364	0.327175
H123	H	0.928206	-0.122864	0.208378
H124	H	1.428206	0.377136	0.708378
N125	N	0.152076	0.113529	0.227534
N126	N	0.652076	0.613529	0.727534
H127	H	0.170371	0.066003	0.264573
H128	H	0.670371	0.566003	0.764573
H129	H	0.159379	0.163720	0.258158
H130	H	0.659379	0.663720	0.758158
N131	N	1.032231	0.008864	0.282065
N132	N	1.532231	0.508864	0.782065
H133	H	1.064155	-0.023041	0.327327
H134	H	1.564155	0.476959	0.827327
H135	H	1.003715	-0.027793	0.246362
H136	H	1.503715	0.472207	0.746362
H137	H	0.925242	-0.272018	0.218251
H138	H	1.425242	0.227982	0.718251
H139	H	0.536330	0.116927	0.165683
H140	H	1.036330	0.616927	0.665683
H141	H	0.177037	0.099700	-0.064516
H142	H	0.677037	0.599700	0.435484
H143	H	0.549457	0.103834	-0.107203
H144	H	1.049457	0.603834	0.392797
N145	N	0.809898	0.231048	0.252041
N146	N	1.309898	0.731048	0.752041
H147	H	0.774068	0.266864	0.288150
H148	H	1.274068	0.766864	0.788150
H149	H	0.841867	0.264241	0.215678
H150	H	1.341867	0.764241	0.715678
H151	H	0.934285	-0.657520	-0.097325
H152	H	1.434285	-0.157520	0.402675
H153	H	0.698607	0.106816	-0.097331
H154	H	1.198607	0.606816	0.402669
N155	N	0.939175	-0.296956	-0.073761
N156	N	1.439175	0.203044	0.426239
H157	H	0.987476	-0.337504	-0.071075
H158	H	1.487476	0.162496	0.428925
H159	H	0.889820	-0.324902	-0.078534
H160	H	1.389820	0.175098	0.421466
N161	N	0.695377	0.121099	0.196154
N162	N	1.195377	0.621099	0.696154
H163	H	0.654567	0.122616	0.241244
H164	H	1.154567	0.622616	0.741244
H165	H	0.735618	0.073124	0.205416
H166	H	1.235618	0.573124	0.705416
H167	H	0.921125	-0.644431	0.175565
H168	H	1.421125	-0.144431	0.675565
N169	N	0.942558	-0.126037	-0.085106
N170	N	1.442558	0.373963	0.414894
H171	H	0.944085	-0.166839	-0.130196
H172	H	1.444085	0.333161	0.369804
H173	H	0.894582	-0.085797	-0.094367
H174	H	1.394582	0.414203	0.405633
H175	H	1.046580	-0.005438	0.688072
H176	H	1.546580	0.494562	1.188072
N177	N	0.923361	-0.483467	0.184843
N178	N	1.423361	0.016533	0.684843
H179	H	0.872683	-0.489915	0.214949
H180	H	1.372683	0.010085	0.714949
H181	H	0.970343	-0.502513	0.222325
H182	H	1.470343	-0.002513	0.722325
N183	N	0.830289	0.210755	0.829006
N184	N	1.330289	0.710755	1.329006
H185	H	0.840205	0.265991	0.810721
H186	H	1.340205	0.765991	1.310721
H187	H	0.775082	0.200735	0.810750
H188	H	1.275082	0.700735	1.310750
N189	N	1.023590	0.017560	0.462571
N190	N	1.523590	0.517560	0.962571
H191	H	1.059433	-0.018242	0.426460
H192	H	1.559433	0.481758	0.926460
H193	H	1.056752	0.049592	0.498884
H194	H	1.556752	0.549592	0.998884
N195	N	1.052612	-0.011443	0.859005
N196	N	1.552612	0.488557	1.359005
H197	H	1.041545	-0.000374	0.919512
H198	H	1.541545	0.499626	1.419512
H199	H	1.044118	-0.068109	0.846991
H200	H	1.544118	0.431891	1.346991
N201	N	0.838929	0.202070	0.648489
N202	N	1.338929	0.702070	1.148489
H203	H	0.803102	0.237885	0.684603
H204	H	1.303102	0.737885	1.184603
H205	H	0.870895	0.235265	0.612124
H206	H	1.370895	0.735265	1.112124
H207	H	0.313043	0.115773	0.218253
H208	H	0.813043	0.615773	0.718253
