data_functionalizedCrystal
_audit_creation_method	'MofGen! by Chris Wilmer'
_symmetry_space_group_name_H-M	'P1'
_symmetry_Int_Tables_number	1
_symmetry_cell_setting	triclinic
loop_
_symmetry_equiv_pos_as_xyz
  x,y,z
_cell_length_a	15.995350
_cell_length_b	16.992695
_cell_length_c	15.455313
_cell_angle_alpha	87.152573
_cell_angle_beta	92.677661
_cell_angle_gamma	87.080299
loop_
_atom_site_label
_atom_site_type_symbol
_atom_site_fract_x
_atom_site_fract_y
_atom_site_fract_z
O1	O	-1.121185	-0.097643	-0.072058
O2	O	-0.878246	-0.110122	-0.072076
O3	O	-0.998742	0.010260	-0.072060
O4	O	-1.000690	-0.218025	-0.072073
O5	O	-0.991849	0.003404	0.072201
O6	O	-0.871354	-0.116978	0.072186
O7	O	-1.114293	-0.104498	0.072204
Cu8	Cu	-0.992194	-0.111364	0.085367
Cu9	Cu	-1.000345	-0.103256	-0.085239
O10	O	-0.993798	-0.224880	0.072188
C11	C	-0.843571	-0.113034	0.000053
C12	C	-0.750517	-0.111487	0.000046
C13	C	-0.992790	0.036045	0.000071
C14	C	-0.985313	0.123089	0.000070
C15	C	-1.148968	-0.101586	0.000073
C16	C	-1.242022	-0.103133	0.000074
C17	C	-0.412397	-0.105933	0.000065
C18	C	-0.454079	-0.020213	0.000391
C19	C	-0.550888	-0.021745	0.000060
C20	C	-0.580142	-0.108688	0.000056
C21	C	-0.545821	-0.147060	-0.082323
C22	C	-0.449044	-0.144903	-0.082386
C23	C	-0.440986	-0.154471	0.081666
C24	C	-0.537878	-0.154502	0.082748
C25	C	-0.674945	-0.110249	0.000048
C26	C	-0.317595	-0.104373	0.000066
C27	C	-0.999750	-0.250665	0.000056
C28	C	-1.007226	-0.337709	0.000051
N29	N	-0.986467	-0.117066	0.205362
C30	C	-1.057449	0.173329	0.000076
C31	C	-1.050419	0.255116	0.000067
C32	C	-0.971254	0.286661	0.000058
C33	C	-0.899114	0.236415	0.000050
C34	C	-0.906144	0.154629	0.000052
C35	C	-0.942116	0.530259	0.000044
C36	C	-0.935091	0.612051	0.000044
C37	C	-1.086398	0.630747	0.000060
C38	C	-1.093421	0.548959	0.000068
C39	C	-1.021281	0.498720	0.000055
N40	N	-0.964067	0.370260	0.000052
N41	N	-1.028469	0.415123	0.000055
N42	N	-1.006078	-0.097548	-0.205234
C43	C	-1.037678	-0.065942	0.250762
C44	C	-1.033355	-0.070262	0.341570
C45	C	-0.977825	-0.125709	0.386975
C46	C	-0.926609	-0.176835	0.341567
C47	C	-0.930928	-0.172511	0.250762
C48	C	-0.959181	-0.144351	0.658554
C49	C	-0.954867	-0.148672	0.749366
C50	C	-1.061613	-0.042097	0.749362
C51	C	-1.065931	-0.037781	0.658554
C52	C	-1.014711	-0.088905	0.613155
N53	N	-0.973407	-0.130127	0.479794
N54	N	-1.019126	-0.084482	0.520337
H55	H	-0.574272	0.008689	0.059113
N56	N	-0.565878	-0.119382	0.159196
N57	N	-0.552783	-0.048812	0.171484
H58	H	-0.572563	-0.024000	0.225470
H59	H	-0.575159	-0.114776	-0.143629
N60	N	-0.409122	-0.123028	0.159993
N61	N	-0.364950	-0.064457	0.156622
H62	H	-0.342445	-0.042243	0.211936
H63	H	-0.909646	-0.193827	0.786330
N64	N	-0.430157	0.026104	-0.073291
N65	N	-0.456865	0.096431	-0.084924
H66	H	-0.439965	0.129144	-0.136960
N67	N	-0.414096	-0.223638	-0.087114
N68	N	-0.370814	-0.241220	-0.149318
H69	H	-0.346137	-0.296826	-0.152666
N70	N	-0.818240	0.268620	0.000057
N71	N	-0.753840	0.223751	0.000058
H72	H	-0.696720	0.246493	0.000068
N73	N	-1.113911	0.010126	0.795750
N74	N	-1.081677	0.056398	0.846433
H75	H	-1.118612	0.093285	0.879196
H76	H	-1.109159	0.296019	0.000074
N77	N	-0.562183	-0.234334	0.088981
N78	N	-0.611265	-0.258873	0.032323
H79	H	-0.628431	-0.315257	0.036718
N80	N	-0.569072	-0.227011	-0.086171
N81	N	-0.545788	-0.276406	-0.026143
H82	H	-0.562209	-0.332873	-0.028859
N83	N	-1.174293	0.516752	0.000078
N84	N	-1.238695	0.561619	0.000082
H85	H	-1.295813	0.538874	0.000091
H86	H	-0.883374	0.489364	0.000034
H87	H	-0.413427	-0.217708	0.082220
H88	H	-0.881390	-0.221979	0.378541
H89	H	-0.870621	0.637730	0.000051
N90	N	-0.878608	-0.224736	0.204396
N91	N	-0.829029	-0.274239	0.244944
H92	H	-0.792073	-0.311123	0.212200
H93	H	-1.121913	0.147652	0.000088
H94	H	-0.430441	0.011249	0.059469
H95	H	-1.145130	0.671660	0.000070
H96	H	-0.847404	0.113724	0.000047
N97	N	-1.094359	-0.009257	0.204400
N98	N	-1.140041	0.036417	0.244952
H99	H	-1.180053	0.076472	0.212212
N100	N	-1.122789	0.018800	0.612273
N101	N	-1.116473	0.090812	0.622430
H102	H	-1.156685	0.130746	0.589775
N103	N	-1.085669	-0.018031	0.387932
N104	N	-1.135248	0.031470	0.347382
H105	H	-1.172196	0.068362	0.380124
H106	H	-0.579333	0.014531	-0.059092
N107	N	-0.906854	-0.196573	0.612201
N108	N	-0.857278	-0.246074	0.652754
H109	H	-0.820318	-0.282959	0.620015
N110	N	-0.427185	-0.102548	-0.159638
N111	N	-0.483372	-0.074782	-0.213129
H112	H	-0.467940	-0.044867	-0.267690
