data_functionalizedCrystal
_audit_creation_method	'MofGen! by Chris Wilmer'
_symmetry_space_group_name_H-M	'P1'
_symmetry_Int_Tables_number	1
_symmetry_cell_setting	triclinic
loop_
_symmetry_equiv_pos_as_xyz
  x,y,z
_cell_length_a	29.839131
_cell_length_b	19.805407
_cell_length_c	19.805399
_cell_angle_alpha	89.989546
_cell_angle_beta	89.969027
_cell_angle_gamma	90.047642
loop_
_atom_site_label
_atom_site_type_symbol
_atom_site_fract_x
_atom_site_fract_y
_atom_site_fract_z
Zn1	Zn	-0.178783	1.034647	-0.382594
Zn2	Zn	0.321217	1.534647	0.117406
Zn3	Zn	-0.253912	1.034538	-0.269402
Zn4	Zn	0.246088	1.534538	0.230598
Zn5	Zn	-0.178805	0.921467	-0.269431
Zn6	Zn	0.321195	1.421467	0.230569
Zn7	Zn	-0.253895	0.921396	-0.382561
Zn8	Zn	0.246105	1.421396	0.117439
O9	O	-0.216349	0.978012	-0.325997
O10	O	0.283651	1.478012	0.174003
O11	O	-0.188747	1.129349	-0.367580
O12	O	0.311253	1.629349	0.132420
O13	O	-0.243966	1.019523	-0.174689
O14	O	0.256034	1.519523	0.325311
O15	O	-0.115935	0.936556	-0.284469
O16	O	0.384065	1.436556	0.215531
O17	O	-0.243944	1.129269	-0.284419
O18	O	0.256056	1.629269	0.215581
O19	O	-0.115919	1.019709	-0.367609
O20	O	0.384081	1.519709	0.132391
O21	O	-0.188785	0.936450	-0.174711
O22	O	0.311215	1.436450	0.325289
O23	O	-0.188768	0.826741	-0.284437
O24	O	0.311232	1.326741	0.215563
O25	O	-0.243914	0.936435	-0.477282
O26	O	0.256086	1.436435	0.022718
O27	O	-0.243936	0.826689	-0.367553
O28	O	0.256064	1.326689	0.132447
O29	O	-0.188730	1.019640	-0.477306
O30	O	0.311270	1.519640	0.022694
O31	O	-0.316777	1.019453	-0.284387
O32	O	0.183223	1.519453	0.215613
O33	O	-0.316764	0.936329	-0.367525
O34	O	0.183236	1.436329	0.132475
C35	C	-0.333072	0.977890	-0.325964
C36	C	0.166928	1.477890	0.174036
C37	C	-0.383006	0.977899	-0.325972
C38	C	0.116994	1.477899	0.174028
C39	C	-0.216353	0.802156	-0.325995
C40	C	0.283647	1.302156	0.174005
C41	C	-0.216366	0.726924	-0.326010
C42	C	0.283634	1.226924	0.173990
C43	C	-0.216318	0.978042	-0.502540
C44	C	0.283682	1.478042	-0.002540
C45	C	-0.216304	0.978054	-0.577772
C46	C	0.283696	1.478054	-0.077772
C47	C	-0.692643	1.021374	-0.282771
C48	C	-0.192643	1.521374	0.217229
C49	C	-0.880316	1.021457	-0.282797
C50	C	-0.380316	1.521457	0.217203
O51	O	-0.904576	1.058324	-0.246040
O52	O	-0.404576	1.558324	0.253960
N53	N	-0.903791	0.978152	-0.326048
N54	N	-0.403791	1.478152	0.173952
C55	C	-0.880344	0.934826	-0.369299
C56	C	-0.380344	1.434826	0.130701
O57	O	-0.904617	0.898000	-0.406093
O58	O	-0.404617	1.398000	0.093907
C59	C	-0.692672	0.934747	-0.369276
C60	C	-0.192672	1.434747	0.130724
C61	C	-0.669200	0.978050	-0.326017
C62	C	-0.169200	1.478050	0.173983
C63	C	-0.669171	1.064674	-0.239516
C64	C	-0.169171	1.564674	0.260484
C65	C	-0.622256	1.064650	-0.239507
C66	C	-0.122256	1.564650	0.260493
C67	C	-0.598812	1.021326	-0.282753
C68	C	-0.098812	1.521326	0.217247
C69	C	-0.622285	0.978026	-0.326008
C70	C	-0.122285	1.478026	0.173992
C71	C	-0.669226	0.891425	-0.412530
C72	C	-0.169226	1.391425	0.087470
C73	C	-0.622305	0.891410	-0.412521
C74	C	-0.122305	1.391410	0.087479
C75	C	-0.598833	0.934713	-0.369262
C76	C	-0.098833	1.434713	0.130738
C77	C	-0.551926	0.934678	-0.369246
C78	C	-0.051926	1.434678	0.130754
N79	N	-0.528451	0.977983	-0.325994
N80	N	-0.028451	1.477983	0.174006
C81	C	-0.551895	1.021307	-0.282748
C82	C	-0.051895	1.521307	0.217252
C83	C	-0.978875	0.934870	-0.369308
C84	C	-0.478875	1.434870	0.130692
C85	C	-1.025793	0.934889	-0.369313
C86	C	-0.525793	1.434889	0.130687
C87	C	-1.025762	1.021521	-0.282811
C88	C	-0.525762	1.521521	0.217189
C89	C	-0.978843	1.021498	-0.282803
C90	C	-0.478843	1.521498	0.217197
C91	C	-0.955400	0.978175	-0.326056
C92	C	-0.455400	1.478175	0.173944
C93	C	-0.453369	1.021253	-0.282733
C94	C	0.046631	1.521253	0.217267
C95	C	-0.406449	1.021223	-0.282726
C96	C	0.093551	1.521223	0.217274
C97	C	-0.406485	0.934594	-0.369230
C98	C	0.093515	1.434594	0.130770
C99	C	-0.453400	0.934621	-0.369234
C100	C	0.046600	1.434621	0.130766
C101	C	-0.476841	0.977956	-0.325984
C102	C	0.023159	1.477956	0.174016
O103	O	-0.527637	0.897836	-0.405989
O104	O	-0.027637	1.397836	0.094011
O105	O	-0.527614	1.058139	-0.245971
O106	O	-0.027614	1.558139	0.254029
C107	C	-0.739559	1.021398	-0.282779
C108	C	-0.239559	1.521398	0.217221
C109	C	-0.763031	0.978098	-0.326034
C110	C	-0.263031	1.478098	0.173966
C111	C	-0.739588	0.934774	-0.369281
C112	C	-0.239588	1.434774	0.130719
C113	C	-0.809949	0.978117	-0.326040
C114	C	-0.309949	1.478117	0.173960
C115	C	-0.833392	1.021441	-0.282793
C116	C	-0.333392	1.521441	0.217207
C117	C	-0.809918	1.064746	-0.239542
C118	C	-0.309918	1.564746	0.260458
C119	C	-0.763002	1.064722	-0.239533
C120	C	-0.263002	1.564722	0.260467
C121	C	-0.763062	0.891469	-0.412532
C122	C	-0.263062	1.391469	0.087468
C123	C	-0.809978	0.891496	-0.412537
C124	C	-0.309978	1.391496	0.087463
C125	C	-0.833421	0.934820	-0.369290
C126	C	-0.333421	1.434820	0.130710
C127	C	-0.099171	0.978153	-0.326046
C128	C	0.400829	1.478153	0.173954
C129	C	-0.049236	0.978213	-0.326066
C130	C	0.450764	1.478213	0.173934
C131	C	-0.216345	1.154555	-0.326000
C132	C	0.283655	1.654555	0.174000
C133	C	-0.216344	1.229787	-0.326001
C134	C	0.283656	1.729787	0.173999
C135	C	-0.187606	1.265174	-0.369298
C136	C	0.312394	1.765174	0.130702
C137	C	-0.187611	1.335862	-0.369302
C138	C	0.312389	1.835862	0.130698
C139	C	-0.216350	1.371162	-0.326005
C140	C	0.283650	1.871162	0.173995
C141	C	-0.245091	1.335770	-0.282707
C142	C	0.254909	1.835770	0.217293
C143	C	-0.245088	1.265083	-0.282706
C144	C	0.254912	1.765083	0.217294
C145	C	-0.245102	1.620843	-0.282707
C146	C	0.254898	2.120843	0.217293
C147	C	-0.245101	1.691535	-0.282710
C148	C	0.254899	2.191535	0.217290
C149	C	-0.187624	1.691623	-0.369303
C150	C	0.312376	2.191623	0.130697
C151	C	-0.187621	1.620935	-0.369303
C152	C	0.312379	2.120935	0.130697
C153	C	-0.216363	1.585550	-0.326007
C154	C	0.283637	2.085550	0.173993
C155	C	-0.216359	1.508901	-0.326004
C156	C	0.283641	2.008901	0.173996
C157	C	-0.216353	1.447809	-0.326005
C158	C	0.283647	1.947809	0.173995
C159	C	-0.187569	0.934811	-0.613127
C160	C	0.312431	1.434811	-0.113127
C161	C	-0.187560	0.934820	-0.683815
C162	C	0.312440	1.434820	-0.183815
C163	C	-0.216285	0.978077	-0.719148
C164	C	0.283715	1.478077	-0.219148
C165	C	-0.245024	1.021322	-0.683788
C166	C	0.254976	1.521322	-0.183788
C167	C	-0.245034	1.021309	-0.613101
C168	C	0.254966	1.521309	-0.113101
C169	C	-0.244982	1.021376	-0.968861
C170	C	0.255018	1.521376	-0.468861
C171	C	-0.244968	1.021387	-1.039553
C172	C	0.255032	1.521387	-0.539553
C173	C	-0.187508	0.934887	-1.039576
C174	C	0.312492	1.434887	-0.539576
C175	C	-0.187518	0.934874	-0.968889
C176	C	0.312482	1.434874	-0.468889
C177	C	-0.216258	0.978116	-0.933535
C178	C	0.283742	1.478116	-0.433535
C179	C	-0.216268	0.978105	-0.856887
C180	C	0.283732	1.478105	-0.356887
C181	C	-0.216273	0.978092	-0.795795
C182	C	0.283727	1.478092	-0.295795
C183	C	-0.216348	0.978021	-0.150141
C184	C	0.283652	1.478021	0.349859
C185	C	-0.216234	0.978140	-0.074910
C186	C	0.283766	1.478140	0.425090
H187	H	-0.387340	1.056486	-0.247497
H188	H	0.112660	1.556486	0.252503
H189	H	-0.603221	0.856132	-0.447746
H190	H	-0.103221	1.356132	0.052254
O191	O	-0.273053	1.369954	-0.240628
O192	O	0.226947	1.869954	0.259372
C193	C	-0.298410	1.323559	-0.202403
C194	C	0.201590	1.823559	0.297597
H195	H	-0.299958	1.273174	-0.230126
H196	H	0.200042	1.773174	0.269874
H197	H	-0.333809	1.343935	-0.195171
H198	H	0.166191	1.843935	0.304829
H199	H	-0.281969	1.316054	-0.151003
H200	H	0.218031	1.816054	0.348997
H201	H	-0.387390	0.899318	-0.404438
H202	H	0.112610	1.399318	0.095562
H203	H	-0.164176	0.899590	-0.584365
H204	H	0.335824	1.399590	-0.084365
H205	H	-0.829013	1.100020	-0.204327
H206	H	-0.329013	1.600020	0.295673
O207	O	-0.159672	1.370314	-0.411264
O208	O	0.340328	1.870314	0.088736
C209	C	-0.130660	1.411224	-0.372737
C210	C	0.369340	1.911224	0.127263
H211	H	-0.146517	1.421782	-0.321438
H212	H	0.353483	1.921782	0.178562
H213	H	-0.124637	1.460945	-0.400309
H214	H	0.375363	1.960945	0.099691
H215	H	-0.097367	1.384028	-0.365311
H216	H	0.402633	1.884028	0.134689
H217	H	-0.164126	0.899652	-0.940125
H218	H	0.335874	1.399652	-0.440125
O219	O	-0.740243	0.849346	-0.454447
O220	O	-0.240243	1.349346	0.045553
C221	C	-0.713165	0.805628	-0.415868
C222	C	-0.213165	1.305628	0.084132
H223	H	-0.706136	0.829533	-0.364596
H224	H	-0.206136	1.329533	0.135404
H225	H	-0.680169	0.796514	-0.443427
H226	H	-0.180169	1.296514	0.056573
H227	H	-0.731293	0.755487	-0.408387
H228	H	-0.231293	1.255487	0.091613
H229	H	-0.959735	1.056760	-0.247578
H230	H	-0.459735	1.556760	0.252422
O231	O	-0.159630	0.892904	-0.718239
O232	O	0.340370	1.392904	-0.218239
C233	C	-0.130601	0.931475	-0.759139
C234	C	0.369399	1.431475	-0.259139
H235	H	-0.146440	0.982755	-0.769717
H236	H	0.353560	1.482755	-0.269717
H237	H	-0.124584	0.903920	-0.808850
H238	H	0.375416	1.403920	-0.308850
H239	H	-0.097308	0.938940	-0.731923
H240	H	0.402692	1.438940	-0.231923
O241	O	-0.272810	1.063481	-1.073905
O242	O	0.227190	1.563481	-0.573905
C243	C	-0.247225	1.107227	-1.114814
C244	C	0.252775	1.607227	-0.614814
H245	H	-0.211846	1.111449	-1.093524
H246	H	0.288154	1.611449	-0.593524
H247	H	-0.263474	1.159296	-1.115609
H248	H	0.236526	1.659296	-0.615609
H249	H	-0.245666	1.086313	-1.168388
H250	H	0.254334	1.586313	-0.668388
O251	O	-0.273051	1.230675	-0.240744
O252	O	0.226949	1.730675	0.259256
C253	C	-0.302051	1.189744	-0.279269
C254	C	0.197949	1.689744	0.220731
H255	H	-0.304816	1.211054	-0.332576
H256	H	0.195184	1.711054	0.167424
H257	H	-0.336629	1.188891	-0.254776
H258	H	0.163371	1.688891	0.245224
H259	H	-0.288159	1.136190	-0.281607
H260	H	0.211841	1.636190	0.218393
H261	H	-0.164217	1.592198	-0.404557
H262	H	0.335783	2.092198	0.095443
O263	O	-0.159657	0.892801	-1.073950
O264	O	0.340343	1.392801	-0.573950
C265	C	-0.185227	0.849068	-1.114836
C266	C	0.314773	1.349068	-0.614836
H267	H	-0.220614	0.844841	-1.093517
H268	H	0.279386	1.344841	-0.593517
H269	H	-0.168979	0.796999	-1.115641
H270	H	0.331021	1.296999	-0.615641
H271	H	-0.186766	0.869999	-1.168409
H272	H	0.313234	1.369999	-0.668409
O273	O	-0.599509	1.106689	-0.197397
O274	O	-0.099509	1.606689	0.302603
C275	C	-0.611007	1.091939	-0.129926
C276	C	-0.111007	1.591939	0.370074
H277	H	-0.645089	1.065926	-0.128508
H278	H	-0.145089	1.565926	0.371492
H279	H	-0.612597	1.140812	-0.099623
H280	H	-0.112597	1.640812	0.400377
H281	H	-0.584634	1.057155	-0.107087
H282	H	-0.084634	1.557155	0.392913
O283	O	-0.159749	1.726102	-0.411346
O284	O	0.340251	2.226102	0.088654
C285	C	-0.165904	1.796062	-0.402056
C286	C	0.334096	2.296062	0.097944
H287	H	-0.200579	1.805669	-0.379877
H288	H	0.299421	2.305669	0.120123
H289	H	-0.162847	1.822937	-0.452758
H290	H	0.337153	2.322937	0.047242
H291	H	-0.139265	1.816153	-0.366022
H292	H	0.360735	2.316153	0.133978
H293	H	-0.164200	1.236438	-0.404551
H294	H	0.335800	1.736438	0.095449
H295	H	-0.268506	1.720275	-0.247451
H296	H	0.231494	2.220275	0.252549
H297	H	-0.268504	1.592041	-0.247451
H298	H	0.231496	2.092041	0.252549
H299	H	-0.268430	1.056527	-0.584316
H300	H	0.231570	1.556527	-0.084316
O301	O	-0.272907	1.063452	-0.934629
O302	O	0.227093	1.563452	-0.434629
C303	C	-0.298261	1.101626	-0.980975
C304	C	0.201739	1.601626	-0.480975
H305	H	-0.279851	1.103992	-1.031372
H306	H	0.220149	1.603992	-0.531372
H307	H	-0.303050	1.154947	-0.960554
H308	H	0.196950	1.654947	-0.460554
H309	H	-0.332382	1.076807	-0.988476
H310	H	0.167618	1.576807	-0.488476
O311	O	-0.272886	1.063319	-0.718212
O312	O	0.227114	1.563319	-0.218212
C313	C	-0.266723	1.054048	-0.788184
C314	C	0.233277	1.554048	-0.288184
H315	H	-0.232051	1.031926	-0.797855
H316	H	0.267949	1.531926	-0.297855
H317	H	-0.269766	1.104749	-0.815047
H318	H	0.230234	1.604749	-0.315047
H319	H	-0.293367	1.017974	-0.808232
H320	H	0.206633	1.517974	-0.308232
H321	H	-1.044900	0.899621	-0.404532
H322	H	-0.544900	1.399621	0.095468
O323	O	-0.476254	0.892648	-0.411283
O324	O	0.023746	1.392648	0.088717
C325	C	-0.503333	0.931172	-0.455050
C326	C	-0.003333	1.431172	0.044950
H327	H	-0.510331	0.982486	-0.431222
H328	H	-0.010331	1.482486	0.068778
H329	H	-0.536344	0.903617	-0.464106
H330	H	-0.036344	1.403617	0.035894
H331	H	-0.485221	0.938566	-0.505210
H332	H	0.014779	1.438566	-0.005210
H333	H	-0.688254	1.099957	-0.204299
H334	H	-0.188254	1.599957	0.295701
O335	O	-0.476066	1.063367	-0.240653
O336	O	0.023934	1.563367	0.259347
C337	C	-0.445280	1.101586	-0.202490
C338	C	0.054720	1.601586	0.297510
H339	H	-0.411859	1.073842	-0.200127
H340	H	0.088141	1.573842	0.299873
H341	H	-0.458848	1.108845	-0.149166
H342	H	0.041152	1.608845	0.350834
H343	H	-0.440239	1.152974	-0.227315
H344	H	0.059761	1.652974	0.272685
H345	H	-0.959791	0.899590	-0.404530
H346	H	-0.459791	1.399590	0.095470
O347	O	-1.048545	1.063719	-0.240921
O348	O	-0.548545	1.563719	0.259079
C349	C	-1.075624	1.107399	-0.279540
C350	C	-0.575624	1.607399	0.220460
H351	H	-1.061456	1.111474	-0.332853
H352	H	-0.561456	1.611474	0.167147
H353	H	-1.076108	1.159528	-0.255154
H354	H	-0.576108	1.659528	0.244846
H355	H	-1.111205	1.086516	-0.281843
H356	H	-0.611205	1.586516	0.218157
O357	O	-0.691950	0.849340	-0.454619
O358	O	-0.191950	1.349340	0.045381
C359	C	-0.661189	0.811095	-0.492773
C360	C	-0.161189	1.311095	0.007227
H361	H	-0.627724	0.838809	-0.495122
H362	H	-0.127724	1.338809	0.004878
H363	H	-0.674721	0.803851	-0.546102
H364	H	-0.174721	1.303851	-0.046102
H365	H	-0.656247	0.759701	-0.467948
H366	H	-0.156247	1.259701	0.032052
H367	H	-0.829085	0.856227	-0.447763
H368	H	-0.329085	1.356227	0.052237
O369	O	-0.740274	1.106853	-0.197493
O370	O	-0.240274	1.606853	0.302507
C371	C	-0.771035	1.145080	-0.159318
C372	C	-0.271035	1.645080	0.340682
H373	H	-0.804464	1.147414	-0.187054
H374	H	-0.304464	1.647414	0.312946
H375	H	-0.757447	1.198410	-0.152138
H376	H	-0.257447	1.698410	0.347862
H377	H	-0.776066	1.120329	-0.107893
H378	H	-0.276066	1.620329	0.392107
