data_functionalizedCrystal
_audit_creation_method	'MofGen! by Chris Wilmer'
_symmetry_space_group_name_H-M	'P1'
_symmetry_Int_Tables_number	1
_symmetry_cell_setting	triclinic
loop_
_symmetry_equiv_pos_as_xyz
  x,y,z
_cell_length_a	6.817900
_cell_length_b	17.253917
_cell_length_c	16.305550
_cell_angle_alpha	99.056746
_cell_angle_beta	103.455250
_cell_angle_gamma	102.659311
loop_
_atom_site_label
_atom_site_type_symbol
_atom_site_fract_x
_atom_site_fract_y
_atom_site_fract_z
V1	V	-4.027267	-0.111994	-0.271089
O2	O	-4.013798	0.004683	-0.257687
O3	O	-3.979716	-0.221393	-0.277160
O4	O	-3.978660	-0.110578	-0.385704
O5	O	-4.014862	-0.106899	-0.148392
V6	V	-4.510812	-0.098002	-0.255450
O7	O	-4.288478	-0.142687	-0.305392
O8	O	-4.699799	-0.067309	-0.221147
O9	O	-4.335157	0.011397	-0.249379
O10	O	-4.641678	-0.214678	-0.268852
O11	O	-4.640615	-0.103096	-0.378147
O12	O	-4.336212	-0.099418	-0.140835
C13	C	-3.824930	-0.248052	-0.274929
C14	C	-3.867337	-0.337489	-0.280657
C15	C	-3.847044	-0.367818	-0.205252
C16	C	-3.886909	-0.451854	-0.210637
C17	C	-3.947054	-0.505561	-0.291428
C18	C	-3.967353	-0.475227	-0.366839
C19	C	-3.927502	-0.391192	-0.361453
C20	C	-4.070565	-0.758143	-0.315910
C21	C	-4.110409	-0.842182	-0.321290
C22	C	-4.029966	-0.818804	-0.165088
C23	C	-3.990106	-0.734768	-0.159709
C24	C	-4.010420	-0.704442	-0.235120
N25	N	-3.987797	-0.591459	-0.296935
N26	N	-3.969690	-0.618545	-0.229614
C27	C	-3.823583	-0.106696	-0.413386
C28	C	-3.865130	-0.106262	-0.507136
C29	C	-4.016202	-0.104580	-0.847761
C30	C	-3.780108	-0.099588	-0.806473
C31	C	-3.736922	-0.100372	-0.709035
C32	C	-3.941252	-0.105414	-0.678773
C33	C	-4.109010	-0.184871	-0.735116
C34	C	-4.150869	-0.184422	-0.832633
C35	C	-4.070284	-0.030750	-0.796606
C36	C	-4.022348	-0.030121	-0.698718
C37	C	-3.898907	-0.105888	-0.583269
C38	C	-4.058557	-0.104112	-0.943266
C39	C	-4.153285	0.038053	-0.251608
C40	C	-4.090116	0.127489	-0.245885
C41	C	-4.154632	-0.103302	-0.113149
C42	C	-4.092323	-0.103732	-0.019397
H43	H	-4.013435	-0.843505	-0.103693
F44	F	-3.640698	-0.024499	-0.817118
H45	H	-4.169627	-0.029132	-0.677299
F46	F	-4.295216	-0.034603	-0.831935
F47	F	-4.092173	-0.725878	-0.396170
F48	F	-3.950104	0.047942	-0.808419
H49	H	-3.900765	0.028650	-0.660111
H50	H	-3.870387	-0.476543	-0.149235
H51	H	-4.016340	-0.518962	-0.432621
H52	H	-3.798055	-0.324095	-0.139463
H53	H	-4.324769	-0.191390	-0.861126
F54	F	-4.104294	-0.257476	-0.877602
F55	F	-4.037229	-0.257947	-0.718399
H56	H	-3.941146	-0.691045	-0.093921
F57	F	-3.650751	-0.170508	-0.692781
F58	F	-4.174544	-0.899343	-0.407286
F59	F	-3.949113	-0.358916	-0.441710
F60	F	-3.721799	-0.168921	-0.852645
H61	H	-3.609903	-0.043243	-0.669901
H62	H	-4.262226	-0.191434	-0.716675
