data_functionalizedCrystal
_audit_creation_method	'MofGen! by Chris Wilmer'
_symmetry_space_group_name_H-M	'P1'
_symmetry_Int_Tables_number	1
_symmetry_cell_setting	triclinic
loop_
_symmetry_equiv_pos_as_xyz
  x,y,z
_cell_length_a	17.699077
_cell_length_b	14.519709
_cell_length_c	16.776229
_cell_angle_alpha	90.004360
_cell_angle_beta	90.005198
_cell_angle_gamma	83.480361
loop_
_atom_site_label
_atom_site_type_symbol
_atom_site_fract_x
_atom_site_fract_y
_atom_site_fract_z
O1	O	1.004414	0.116594	0.066279
O2	O	0.784078	0.131773	0.066283
O3	O	0.900088	-0.010080	0.066274
O4	O	0.888404	0.258447	0.066289
O5	O	0.900075	-0.010080	-0.066302
O6	O	0.784065	0.131772	-0.066293
O7	O	1.004401	0.116594	-0.066297
Zn8	Zn	0.894231	0.124183	-0.087345
Zn9	Zn	0.894248	0.124183	0.087331
O10	O	0.888391	0.258446	-0.066288
C11	C	0.755873	0.131230	-0.000004
C12	C	0.671850	0.129601	-0.000003
C13	C	0.632373	0.128833	-0.072271
C14	C	0.553427	0.127288	-0.072272
C15	C	0.513957	0.126517	-0.000004
C16	C	0.553440	0.127282	0.072270
C17	C	0.632386	0.128821	0.072270
C18	C	0.235059	0.121076	0.072271
C19	C	0.156107	0.119540	0.072265
C20	C	0.156099	0.119543	-0.072271
C21	C	0.235045	0.121082	-0.072271
C22	C	0.274522	0.121842	0.000002
C23	C	0.360125	0.123515	0.000002
C24	C	0.428354	0.124850	-0.000003
C25	C	0.899537	-0.044438	-0.000014
C26	C	0.897905	-0.146812	-0.000015
C27	C	0.891898	-0.521682	0.000006
C28	C	0.893566	-0.417381	0.000000
C29	C	0.894902	-0.334250	-0.000005
C30	C	0.896570	-0.229943	-0.000010
C31	C	1.032606	0.117137	-0.000008
C32	C	1.116629	0.118766	-0.000004
C33	C	0.888942	0.292804	0.000002
C34	C	0.890574	0.395178	0.000008
N35	N	0.894225	0.124182	-0.206556
C36	C	0.940200	0.180046	-0.248267
C37	C	0.940208	0.180043	-0.331719
C38	C	0.894237	0.124179	-0.373459
C39	C	0.848260	0.068308	-0.331741
C40	C	0.848256	0.068308	-0.248291
C41	C	0.848275	0.068310	-0.668289
C42	C	0.848281	0.068317	-0.751745
C43	C	0.940227	0.180045	-0.751717
C44	C	0.940223	0.180044	-0.668266
C45	C	0.894250	0.124170	-0.626557
C46	C	0.894242	0.124173	-0.536068
C47	C	0.894240	0.124180	-0.463945
N48	N	0.894261	0.124177	0.206542
H49	H	0.521298	0.126648	0.131112
C50	C	0.675810	0.129667	0.151771
N51	N	0.708516	0.130302	0.211654
C52	C	0.990773	0.241501	-0.202361
N53	N	1.028869	0.287788	-0.167788
C54	C	0.797678	0.006855	-0.202409
N55	N	0.759582	-0.039435	-0.167852
H56	H	0.123973	0.118911	0.131118
C57	C	0.990807	0.241500	-0.797605
N58	N	1.028901	0.287787	-0.832167
H59	H	0.664503	0.129468	-0.131121
C60	C	0.278458	0.121927	-0.151772
N61	N	0.311155	0.122559	-0.211653
H62	H	0.977647	0.225532	-0.365677
H63	H	0.977655	0.225538	-0.634286
C64	C	0.797710	0.006855	-0.797657
N65	N	0.759622	-0.039435	-0.832238
H66	H	0.810841	0.022813	-0.634339
C67	C	0.797689	0.006860	-0.377658
N68	N	0.759595	-0.039421	-0.412241
H69	H	0.521290	0.126647	-0.131120
H70	H	0.123949	0.118920	-0.131120
H71	H	0.267191	0.121692	0.131121
