data_functionalizedCrystal
_audit_creation_method	'MofGen! by Chris Wilmer'
_symmetry_space_group_name_H-M	'P1'
_symmetry_Int_Tables_number	1
_symmetry_cell_setting	triclinic
loop_
_symmetry_equiv_pos_as_xyz
  x,y,z
_cell_length_a	6.817900
_cell_length_b	9.109307
_cell_length_c	14.858572
_cell_angle_alpha	99.356880
_cell_angle_beta	104.524003
_cell_angle_gamma	111.764999
loop_
_atom_site_label
_atom_site_type_symbol
_atom_site_fract_x
_atom_site_fract_y
_atom_site_fract_z
V1	V	-4.094840	-0.226446	-0.308035
O2	O	-4.023160	0.009827	-0.283656
O3	O	-4.101576	-0.447990	-0.323735
O4	O	-4.050726	-0.223426	-0.434255
O5	O	-4.074361	-0.216292	-0.172371
V6	V	-4.570769	-0.198131	-0.289645
O7	O	-4.372758	-0.288559	-0.348374
O8	O	-4.743048	-0.136018	-0.249306
O9	O	-4.340827	0.023413	-0.273945
O10	O	-4.759846	-0.434404	-0.314024
O11	O	-4.708645	-0.208285	-0.425309
O12	O	-4.391676	-0.201151	-0.163425
C13	C	-3.959851	-0.501984	-0.323471
C14	C	-4.046673	-0.683102	-0.337149
C15	C	-3.894986	-0.215528	-0.464449
C16	C	-3.940566	-0.214524	-0.567752
C17	C	-4.107393	-0.210857	-0.946027
C18	C	-4.060968	-0.211877	-0.840779
C19	C	-4.023981	-0.212692	-0.756893
C20	C	-3.977553	-0.213709	-0.651638
C21	C	-4.145896	0.077398	-0.274208
C22	C	-4.038312	0.258514	-0.260536
C23	C	-4.210760	-0.209055	-0.133227
C24	C	-4.144416	-0.210050	-0.029922
H25	H	-4.120233	-0.771691	-0.413230
H26	H	-3.964775	-0.652907	-0.184459
