data_functionalizedCrystal
_audit_creation_method	'MofGen! by Chris Wilmer'
_symmetry_space_group_name_H-M	'P1'
_symmetry_Int_Tables_number	1
_symmetry_cell_setting	triclinic
loop_
_symmetry_equiv_pos_as_xyz
  x,y,z
_cell_length_a	16.959454
_cell_length_b	19.805407
_cell_length_c	19.805399
_cell_angle_alpha	89.979591
_cell_angle_beta	89.977613
_cell_angle_gamma	90.022016
loop_
_atom_site_label
_atom_site_type_symbol
_atom_site_fract_x
_atom_site_fract_y
_atom_site_fract_z
Zn1	Zn	-0.314659	1.034765	-0.382759
Zn2	Zn	0.185341	1.534765	0.117241
Zn3	Zn	-0.446841	1.034693	-0.269581
Zn4	Zn	0.053159	1.534693	0.230419
Zn5	Zn	-0.314685	0.921580	-0.269582
Zn6	Zn	0.185315	1.421580	0.230418
Zn7	Zn	-0.446804	0.921556	-0.382726
Zn8	Zn	0.053196	1.421556	0.117274
O9	O	-0.380747	0.978149	-0.326162
O10	O	0.119253	1.478149	0.173838
O11	O	-0.332198	1.129472	-0.367759
O12	O	0.167802	1.629472	0.132241
O13	O	-0.429337	1.019668	-0.174865
O14	O	0.070663	1.519668	0.325135
O15	O	-0.204071	0.936635	-0.284609
O16	O	0.295929	1.436635	0.215391
O17	O	-0.429312	1.129419	-0.284608
O18	O	0.070688	1.629419	0.215392
O19	O	-0.204052	1.019792	-0.367760
O20	O	0.295948	1.519792	0.132240
O21	O	-0.332243	0.936564	-0.174865
O22	O	0.167757	1.436564	0.325135
O23	O	-0.332206	0.826860	-0.284578
O24	O	0.167794	1.326860	0.215422
O25	O	-0.429248	0.936594	-0.477447
O26	O	0.070752	1.436594	0.022553
O27	O	-0.429273	0.826843	-0.367704
O28	O	0.070727	1.326843	0.132296
O29	O	-0.332162	1.019768	-0.477471
O30	O	0.167838	1.519768	0.022529
O31	O	-0.557447	1.019645	-0.284576
O32	O	-0.057447	1.519645	0.215424
O33	O	-0.557420	0.936524	-0.367703
O34	O	-0.057420	1.436524	0.132297
C35	C	-0.380739	0.802293	-0.326138
C36	C	0.119261	1.302293	0.173862
C37	C	-0.380755	0.727061	-0.326143
C38	C	0.119245	1.227061	0.173857
C39	C	-0.330275	0.265301	-0.369552
C40	C	0.169725	0.765301	0.130448
C41	C	-0.330276	0.335989	-0.369547
C42	C	0.169724	0.835989	0.130453
C43	C	-0.380759	0.371299	-0.326184
C44	C	0.119241	0.871299	0.173816
C45	C	-0.431250	0.335916	-0.282828
C46	C	0.068750	0.835916	0.217172
C47	C	-0.431252	0.265229	-0.282837
C48	C	0.068748	0.765229	0.217163
C49	C	-0.431244	0.620990	-0.282792
C50	C	0.068756	1.120990	0.217208
C51	C	-0.431236	0.691682	-0.282786
C52	C	0.068764	1.191682	0.217214
C53	C	-0.330268	0.691750	-0.369502
C54	C	0.169732	1.191750	0.130498
C55	C	-0.330270	0.621063	-0.369511
C56	C	0.169730	1.121063	0.130489
C57	C	-0.380763	0.585686	-0.326158
C58	C	0.119237	1.085686	0.173842
C59	C	-0.380762	0.509038	-0.326165
C60	C	0.119238	1.009038	0.173835
C61	C	-0.380757	0.447946	-0.326173
C62	C	0.119243	0.947946	0.173827
C63	C	-0.586114	0.978092	-0.326151
C64	C	-0.086114	1.478092	0.173849
C65	C	-0.673970	0.978130	-0.326168
C66	C	-0.173970	1.478130	0.173832
C67	C	-1.045461	0.934930	-0.369442
C68	C	-0.545461	1.434930	0.130558
C69	C	-1.045430	1.021556	-0.282951
C70	C	-0.545430	1.521556	0.217049
C71	C	-0.962884	1.021532	-0.282945
C72	C	-0.462884	1.521532	0.217055
C73	C	-0.921623	0.978206	-0.326187
C74	C	-0.421623	1.478206	0.173813
C75	C	-0.962908	0.934904	-0.369436
C76	C	-0.462908	1.434904	0.130564
C77	C	-0.921593	1.064828	-0.239693
C78	C	-0.421593	1.564828	0.260307
C79	C	-0.839042	1.064806	-0.239684
C80	C	-0.339042	1.564806	0.260316
C81	C	-0.797780	1.021483	-0.282930
C82	C	-0.297780	1.521483	0.217070
C83	C	-0.839070	0.978180	-0.326181
C84	C	-0.339070	1.478180	0.173819
C85	C	-0.797808	0.934854	-0.369423
C86	C	-0.297808	1.434854	0.130577
C87	C	-0.839097	0.891553	-0.412678
C88	C	-0.339097	1.391553	0.087322
C89	C	-0.921645	0.891581	-0.412682
C90	C	-0.421645	1.391581	0.087318
C91	C	-0.715231	1.021455	-0.282926
C92	C	-0.215231	1.521455	0.217074
C93	C	-0.715255	0.934827	-0.369417
C94	C	-0.215255	1.434827	0.130583
C95	C	-0.174579	0.978224	-0.326189
C96	C	0.325421	1.478224	0.173811
C97	C	-0.086722	0.978256	-0.326200
C98	C	0.413278	1.478256	0.173800
C99	C	-0.380698	0.978187	-0.502705
C100	C	0.119302	1.478187	-0.002705
C101	C	-0.380676	0.978203	-0.577937
C102	C	0.119324	1.478203	-0.077937
C103	C	-0.380756	1.154691	-0.326187
C104	C	0.119244	1.654691	0.173813
C105	C	-0.380760	1.229923	-0.326198
C106	C	0.119240	1.729923	0.173802
C107	C	-0.330121	1.021513	-0.613295
C108	C	0.169879	1.521513	-0.113295
C109	C	-0.330098	1.021520	-0.683983
C110	C	0.169902	1.521520	-0.183983
C111	C	-0.380635	0.978220	-0.719313
C112	C	0.119365	1.478220	-0.219313
C113	C	-0.431193	0.934905	-0.683950
C114	C	0.068807	1.434905	-0.183950
C115	C	-0.431211	0.934895	-0.613263
C116	C	0.068789	1.434895	-0.113263
C117	C	-0.431119	0.934943	-0.969023
C118	C	0.068881	1.434943	-0.469023
C119	C	-0.431098	0.934958	-1.039715
C120	C	0.068902	1.434958	-0.539715
C121	C	-0.330006	1.021568	-1.039744
C122	C	0.169994	1.521568	-0.539744
C123	C	-0.330024	1.021558	-0.969057
C124	C	0.169976	1.521558	-0.469057
C125	C	-0.380579	0.978241	-0.933700
C126	C	0.119421	1.478241	-0.433700
C127	C	-0.380602	0.978233	-0.857052
C128	C	0.119398	1.478233	-0.357052
C129	C	-0.380616	0.978230	-0.795960
C130	C	0.119384	1.478230	-0.295960
C131	C	-0.380740	0.978150	-0.150306
C132	C	0.119260	1.478150	0.349694
C133	C	-0.380538	0.978265	-0.075075
C134	C	0.119462	1.478265	0.424925
H135	H	-0.289159	0.592317	-0.404819
H136	H	0.210841	1.092317	0.095181
Br137	Br	-0.261394	1.080355	-1.087732
Br138	Br	0.238606	1.580355	-0.587732
H139	H	-0.289156	0.720562	-0.404804
H140	H	0.210844	1.220562	0.095196
Br141	Br	-0.499752	0.739602	-0.223931
Br142	Br	0.000248	1.239602	0.276069
Br143	Br	-0.499747	0.572988	-0.223936
Br144	Br	0.000253	1.072988	0.276064
Br145	Br	-0.977683	0.832822	-0.471379
Br146	Br	-0.477683	1.332822	0.028621
Br147	Br	-0.499770	0.383836	-0.223983
Br148	Br	0.000230	0.883836	0.276017
H149	H	-0.805492	0.856274	-0.447883
H150	H	-0.305492	1.356274	0.052117
Br151	Br	-0.499820	0.876111	-0.565276
Br152	Br	0.000180	1.376111	-0.065276
H153	H	-0.472364	0.236426	-0.247535
H154	H	0.027636	0.736426	0.252465
H155	H	-0.681618	1.056707	-0.247706
H156	H	-0.181618	1.556707	0.252294
H157	H	-0.681665	0.899549	-0.404632
H158	H	-0.181665	1.399549	0.095368
Br159	Br	-1.101491	0.876173	-0.428147
Br160	Br	-0.601491	1.376173	0.071853
Br161	Br	-0.261521	1.080331	-0.731967
Br162	Br	0.238479	1.580331	-0.231967
H163	H	-0.289160	0.236557	-0.404859
H164	H	0.210840	0.736557	0.095141
H165	H	-0.288970	1.056775	-0.584535
H166	H	0.211030	1.556775	-0.084535
Br167	Br	-0.261440	1.080328	-0.921113
Br168	Br	0.238560	1.580328	-0.421113
Br169	Br	-1.101427	1.080351	-0.224268
Br170	Br	-0.601427	1.580351	0.275732
H171	H	-0.955194	1.100097	-0.204483
H172	H	-0.455194	1.600097	0.295517
H173	H	-0.805431	1.100064	-0.204465
H174	H	-0.305431	1.600064	0.295535
H175	H	-0.472253	0.899695	-1.068479
H176	H	0.027747	1.399695	-0.568479
H177	H	-0.289169	0.364791	-0.404852
H178	H	0.210831	0.864791	0.095148
Br179	Br	-0.499727	0.876155	-0.921048
Br180	Br	0.000273	1.376155	-0.421048
Br181	Br	-0.499775	0.876136	-0.731896
Br182	Br	0.000225	1.376136	-0.231896
