data_functionalizedCrystal
_audit_creation_method	'MofGen! by Chris Wilmer'
_symmetry_space_group_name_H-M	'P1'
_symmetry_Int_Tables_number	1
_symmetry_cell_setting	triclinic
loop_
_symmetry_equiv_pos_as_xyz
  x,y,z
_cell_length_a	17.077404
_cell_length_b	18.050589
_cell_length_c	17.077396
_cell_angle_alpha	89.975358
_cell_angle_beta	89.980499
_cell_angle_gamma	90.028446
loop_
_atom_site_label
_atom_site_type_symbol
_atom_site_fract_x
_atom_site_fract_y
_atom_site_fract_z
Zn1	Zn	1.200026	-0.295655	-0.443864
Zn2	Zn	1.199920	-0.419852	-0.312606
Zn3	Zn	1.068757	-0.295681	-0.312612
Zn4	Zn	1.068713	-0.419808	-0.443830
O5	O	1.134354	-0.357749	-0.378228
O6	O	1.309858	-0.312138	-0.426464
O7	O	1.182496	-0.403410	-0.202760
O8	O	1.086233	-0.191753	-0.330039
O9	O	1.309781	-0.403385	-0.330030
O10	O	1.182675	-0.191734	-0.426469
O11	O	1.086131	-0.312182	-0.202764
O12	O	0.958905	-0.312139	-0.330006
O13	O	1.086157	-0.403310	-0.553681
O14	O	0.958872	-0.403335	-0.426412
O15	O	1.182632	-0.312095	-0.553706
O16	O	1.182453	-0.523771	-0.329997
O17	O	1.086056	-0.523739	-0.426407
C18	C	0.930406	-0.357736	-0.378206
C19	C	0.843156	-0.357748	-0.378216
C20	C	0.802170	-0.405305	-0.428333
C21	C	0.720189	-0.405307	-0.428346
C22	C	0.679197	-0.357754	-0.378236
C23	C	0.720189	-0.310192	-0.328116
C24	C	0.802168	-0.310187	-0.328108
C25	C	0.549319	-0.310206	-0.328135
C26	C	0.467335	-0.310212	-0.328142
C27	C	0.467340	-0.405326	-0.428373
C28	C	0.549319	-0.405321	-0.428365
C29	C	0.590306	-0.357760	-0.378244
C30	C	1.134259	-0.550701	-0.378215
C31	C	1.134291	-0.633247	-0.378236
C32	C	1.081921	-0.832707	-0.430645
C33	C	1.062786	-0.882149	-0.359016
C34	C	1.134368	-0.784377	-0.378246
C35	C	1.153541	-0.882017	-0.449883
C36	C	1.134441	-0.930362	-0.378262
C37	C	1.115195	-0.832732	-0.306579
C38	C	1.205984	-0.832596	-0.397495
C39	C	1.186876	-0.882016	-0.325816
C40	C	1.134324	-0.700279	-0.378238
C41	C	1.134485	-1.014459	-0.378262
C42	C	1.339098	-0.357763	-0.378250
C43	C	1.426348	-0.357769	-0.378260
C44	C	1.134402	-0.357694	-0.582972
C45	C	1.134422	-0.357671	-0.670222
C46	C	1.134471	-0.164043	-0.378258
C47	C	1.134520	-0.081498	-0.378271
C48	C	1.184658	-0.310172	-0.711226
C49	C	1.184667	-0.310147	-0.793207
C50	C	1.134444	-0.357626	-0.834182
C51	C	1.084202	-0.405128	-0.793172
C52	C	1.084190	-0.405148	-0.711193
C53	C	1.084234	-0.405083	-0.964042
C54	C	1.084248	-0.405064	-1.046026
C55	C	1.184712	-0.310082	-1.046056
C56	C	1.184699	-0.310102	-0.964077
C57	C	1.134458	-0.357605	-0.923073
C58	C	1.134352	-0.357750	-0.174280
C59	C	1.134484	-0.357564	-0.087031
H60	H	0.686822	-0.444033	-0.469156
N61	N	1.094789	-0.805680	-0.230571
N62	N	1.091431	-0.737491	-0.218307
H63	H	1.077012	-0.718383	-0.164629
H64	H	0.835538	-0.271457	-0.287301
N65	N	1.032929	-0.453531	-1.087900
N66	N	0.982951	-0.427353	-1.133640
H67	H	0.946705	-0.461577	-1.163221
N68	N	1.032904	-0.453604	-0.922168
N69	N	0.988065	-0.495994	-0.958759
H70	H	0.951815	-0.530263	-0.929186
H71	H	1.225558	-0.271511	-0.677871
H72	H	0.582688	-0.271470	-0.287328
H73	H	1.225600	-0.271445	-0.930718
H74	H	0.686807	-0.271471	-0.287319
H75	H	1.266499	-0.810816	-0.413795
N76	N	1.242551	-0.909001	-0.270168
N77	N	1.235398	-0.893060	-0.199305
H78	H	1.274716	-0.912119	-0.160000
N79	N	1.032876	-0.453659	-0.669292
N80	N	0.982866	-0.427532	-0.623543
H81	H	0.946621	-0.461792	-0.593950
N82	N	1.235977	-0.261620	-0.835089
N83	N	1.230815	-0.193094	-0.825940
H84	H	1.267054	-0.158818	-0.855519
H85	H	1.169729	-0.903667	-0.510460
N86	N	1.026196	-0.805551	-0.486153
N87	N	0.955323	-0.821468	-0.478874
H88	H	0.915965	-0.802289	-0.518073
N89	N	1.236029	-0.261564	-1.087949
N90	N	1.236034	-0.261548	-1.161143
H91	H	1.272278	-0.227286	-1.190734
N92	N	1.032887	-0.453609	-0.835031
N93	N	0.982896	-0.427452	-0.880771
H94	H	0.946653	-0.461691	-0.910337
H95	H	1.002257	-0.903931	-0.342749
H96	H	0.582693	-0.444047	-0.469164
N97	N	0.844027	-0.453891	-0.479519
N98	N	0.807418	-0.496349	-0.524263
H99	H	0.836976	-0.530664	-0.560415
H100	H	0.433961	-0.271482	-0.287347
N101	N	0.425466	-0.453913	-0.479559
N102	N	0.352271	-0.453915	-0.479559
H103	H	0.322693	-0.488233	-0.515702
