data_functionalizedCrystal
_audit_creation_method	'MofGen! by Chris Wilmer'
_symmetry_space_group_name_H-M	'P1'
_symmetry_Int_Tables_number	1
_symmetry_cell_setting	triclinic
loop_
_symmetry_equiv_pos_as_xyz
  x,y,z
_cell_length_a	21.395361
_cell_length_b	12.645331
_cell_length_c	21.395355
_cell_angle_alpha	90.029653
_cell_angle_beta	89.978489
_cell_angle_gamma	89.972747
loop_
_atom_site_label
_atom_site_type_symbol
_atom_site_fract_x
_atom_site_fract_y
_atom_site_fract_z
Zn1	Zn	-0.249569	-1.620657	-0.354334
Zn2	Zn	-0.354329	-1.620492	-0.249551
Zn3	Zn	-0.249563	-1.443365	-0.249561
Zn4	Zn	-0.354306	-1.443313	-0.354282
O5	O	-0.301942	-1.531957	-0.301932
O6	O	-0.263477	-1.768982	-0.340451
O7	O	-0.340438	-1.596948	-0.161874
O8	O	-0.161886	-1.466974	-0.263485
O9	O	-0.340444	-1.768861	-0.263468
O10	O	-0.161890	-1.597230	-0.340461
O11	O	-0.263467	-1.466814	-0.161882
O12	O	-0.263445	-1.295011	-0.263435
O13	O	-0.340406	-1.466885	-0.441966
O14	O	-0.340400	-1.294973	-0.340373
O15	O	-0.263456	-1.597179	-0.442005
O16	O	-0.442004	-1.596898	-0.263417
O17	O	-0.441987	-1.466725	-0.340363
C18	C	-0.301920	-1.256527	-0.301900
C19	C	-0.301926	-1.138697	-0.301901
C20	C	-0.253436	-1.093804	-0.253576
C21	C	-0.253253	-0.971244	-0.253736
C22	C	-0.284326	-0.970878	-0.368036
C23	C	-0.283968	-1.093476	-0.367740
C24	C	-0.368150	-1.093455	-0.284702
C25	C	-0.367799	-0.970848	-0.283262
C26	C	-0.464729	-1.531817	-0.301897
C27	C	-0.534370	-1.531854	-0.301903
C28	C	-0.567071	-1.599695	-0.261878
C29	C	-0.632507	-1.599744	-0.261893
C30	C	-0.665239	-1.531934	-0.301924
C31	C	-0.632530	-1.464088	-0.341957
C32	C	-0.567096	-1.464048	-0.341946
C33	C	-0.768951	-1.436482	-0.306829
C34	C	-0.834383	-1.436520	-0.306836
C35	C	-0.867059	-1.532057	-0.301961
C36	C	-0.834294	-1.627559	-0.297067
C37	C	-0.768860	-1.627519	-0.297056
C38	C	-0.736191	-1.531970	-0.301941
C39	C	-0.970713	-1.599957	-0.261950
C40	C	-1.036150	-1.600008	-0.261968
C41	C	-1.036171	-1.464343	-0.342029
C42	C	-0.970736	-1.464301	-0.342014
C43	C	-0.938011	-1.532107	-0.301971
C44	C	-0.138518	-1.532126	-0.301980
C45	C	-0.068877	-1.532198	-0.302001
C46	C	-0.301929	-1.532045	-0.465355
C47	C	-0.301923	-1.532082	-0.534996
C48	C	-0.301954	-0.808462	-0.301952
C49	C	-0.301936	-0.926292	-0.301929
C50	C	-0.261854	-1.599923	-0.567730
C51	C	-0.261827	-1.599922	-0.633166
C52	C	-0.301881	-1.532090	-0.665865
C53	C	-0.341953	-1.464236	-0.633123
C54	C	-0.341975	-1.464232	-0.567689
C55	C	-0.358296	-1.523671	-0.769527
C56	C	-0.358276	-1.523683	-0.834960
C57	C	-0.301815	-1.532097	-0.867686
C58	C	-0.245372	-1.540522	-0.834970
C59	C	-0.245394	-1.540518	-0.769536
C60	C	-0.301862	-1.532087	-0.736817
C61	C	-0.261712	-1.599940	-0.971372
C62	C	-0.261684	-1.599931	-1.036809
C63	C	-0.341816	-1.464251	-1.036765
C64	C	-0.341839	-1.464255	-0.971329
C65	C	-0.301788	-1.532105	-0.938637
C66	C	-0.301909	-1.531930	-0.139144
C67	C	-0.301738	-1.532098	-0.069503
H68	H	-0.405840	-0.940237	-0.315869
H69	H	-0.229240	-1.655171	-0.541116
C70	C	-0.420412	-1.514435	-0.733535
N71	N	-0.467198	-1.507486	-0.706427
H72	H	-0.374563	-1.409004	-0.659750
C73	C	-0.268081	-0.930509	-0.187523
N74	N	-0.279244	-0.899833	-0.137648
H75	H	-0.318567	-0.941768	-0.405040
H76	H	-0.229097	-1.655182	-0.944753
H77	H	-0.204183	-0.941954	-0.265156
H78	H	-0.404234	-1.516829	-0.861592
H79	H	-0.199396	-1.547375	-0.861614
H80	H	-0.374423	-1.409011	-1.063387
H81	H	-0.404273	-1.122483	-0.319899
C82	C	-0.733014	-1.331375	-0.312177
N83	N	-0.705947	-1.252210	-0.316199
H84	H	-1.062774	-1.655259	-0.229377
C85	C	-0.217749	-1.674562	-0.669181
N86	N	-0.184552	-1.730783	-0.696305
C87	C	-0.668485	-1.674372	-0.217857
N88	N	-0.695582	-1.730579	-0.184689
C89	C	-0.531077	-1.674272	-0.217823
N90	N	-0.503966	-1.730440	-0.184638
H91	H	-0.374603	-1.408983	-0.541037
H92	H	-0.264297	-1.123200	-0.204403
H93	H	-0.236461	-0.940218	-0.382830
C94	C	-0.668536	-1.389492	-0.385989
N95	N	-0.695656	-1.333306	-0.419157
C96	C	-0.183308	-1.549770	-0.733552
N97	N	-0.136543	-1.556732	-0.706448
C98	C	-0.187516	-1.135460	-0.268810
N99	N	-0.137864	-1.166832	-0.280288
H100	H	-0.229051	-1.655174	-1.063460
H101	H	-1.062821	-1.409135	-0.374626
H102	H	-0.944109	-1.409054	-0.374603
H103	H	-0.384235	-1.124312	-0.237300
H104	H	-0.540470	-1.408803	-0.374539
C105	C	-0.218581	-1.132167	-0.387375
N106	N	-0.169329	-1.161304	-0.402161
H107	H	-0.317765	-1.123180	-0.404993
C108	C	-0.385750	-0.931463	-0.217537
N109	N	-0.399269	-0.901790	-0.168033
H110	H	-0.374471	-1.409017	-0.944677
C111	C	-0.732821	-1.732568	-0.291673
N112	N	-0.705677	-1.811693	-0.287619
H113	H	-0.860898	-1.705354	-0.293098
C114	C	-0.934713	-1.674560	-0.217911
N115	N	-0.907599	-1.730755	-0.184744
H116	H	-0.861056	-1.358757	-0.310814
