data_functionalizedCrystal
_audit_creation_method	'MofGen! by Chris Wilmer'
_symmetry_space_group_name_H-M	'P1'
_symmetry_Int_Tables_number	1
_symmetry_cell_setting	triclinic
loop_
_symmetry_equiv_pos_as_xyz
  x,y,z
_cell_length_a	16.625539
_cell_length_b	13.897449
_cell_length_c	13.897448
_cell_angle_alpha	90.018972
_cell_angle_beta	90.027549
_cell_angle_gamma	90.019431
loop_
_atom_site_label
_atom_site_type_symbol
_atom_site_fract_x
_atom_site_fract_y
_atom_site_fract_z
Zn1	Zn	-0.455889	-1.474690	0.383980
Zn2	Zn	-0.205889	-1.224690	0.633980
Zn3	Zn	0.044111	-0.974690	0.883980
Zn4	Zn	0.294111	-0.724690	1.133980
Zn5	Zn	-0.321058	-1.474588	0.545293
Zn6	Zn	-0.071058	-1.224588	0.795293
Zn7	Zn	0.178942	-0.974588	1.045293
Zn8	Zn	0.428942	-0.724588	1.295293
Zn9	Zn	-0.321072	-1.313383	0.384018
Zn10	Zn	-0.071072	-1.063383	0.634018
Zn11	Zn	0.178928	-0.813383	0.884018
Zn12	Zn	0.428928	-0.563383	1.134018
Zn13	Zn	-0.455851	-1.313361	0.545239
Zn14	Zn	-0.205851	-1.063361	0.795239
Zn15	Zn	0.044149	-0.813361	1.045239
Zn16	Zn	0.294149	-0.563361	1.295239
O17	O	-0.388468	-1.394006	0.464632
O18	O	-0.138468	-1.144006	0.714632
O19	O	0.111532	-0.894006	0.964632
O20	O	0.361532	-0.644006	1.214632
O21	O	-0.438014	-1.609658	0.405386
O22	O	-0.188014	-1.359658	0.655386
O23	O	0.061986	-1.109658	0.905386
O24	O	0.311986	-0.859658	1.155386
O25	O	-0.208228	-1.453170	0.523938
O26	O	0.041772	-1.203170	0.773938
O27	O	0.291772	-0.953170	1.023938
O28	O	0.541772	-0.703170	1.273938
O29	O	-0.338978	-1.334833	0.249031
O30	O	-0.088978	-1.084833	0.499031
O31	O	0.161022	-0.834833	0.749031
O32	O	0.411022	-0.584833	0.999031
O33	O	-0.338954	-1.609583	0.523902
O34	O	-0.088954	-1.359583	0.773902
O35	O	0.161046	-1.109583	1.023902
O36	O	0.411046	-0.859583	1.273902
O37	O	-0.438027	-1.453344	0.249004
O38	O	-0.188027	-1.203344	0.499004
O39	O	0.061973	-0.953344	0.749004
O40	O	0.311973	-0.703344	0.999004
O41	O	-0.208238	-1.334734	0.405450
O42	O	0.041762	-1.084734	0.655450
O43	O	0.291762	-0.834734	0.905450
O44	O	0.541762	-0.584734	1.155450
O45	O	-0.338941	-1.178398	0.405397
O46	O	-0.088941	-0.928398	0.655397
O47	O	0.161059	-0.678398	0.905397
O48	O	0.411059	-0.428398	1.155397
O49	O	-0.568688	-1.334795	0.523809
O50	O	-0.318688	-1.084795	0.773809
O51	O	-0.068688	-0.834795	1.023809
O52	O	0.181312	-0.584795	1.273809
O53	O	-0.437962	-1.178382	0.523845
O54	O	-0.187962	-0.928382	0.773845
O55	O	0.062038	-0.678382	1.023845
O56	O	0.312038	-0.428382	1.273845
O57	O	-0.568716	-1.453323	0.405333
O58	O	-0.318716	-1.203323	0.655333
O59	O	-0.068716	-0.953323	0.905333
O60	O	0.181284	-0.703323	1.155333
O61	O	-0.338917	-1.453149	0.680268
O62	O	-0.088917	-1.203149	0.930268
O63	O	0.161083	-0.953149	1.180268
O64	O	0.411083	-0.703149	1.430268
O65	O	-0.437948	-1.334696	0.680227
O66	O	-0.187948	-1.084696	0.930227
O67	O	0.062052	-0.834696	1.180227
O68	O	0.312052	-0.584696	1.430227
C69	C	-0.388449	-1.143391	0.464620
C70	C	-0.138449	-0.893391	0.714620
C71	C	0.111551	-0.643391	0.964620
C72	C	0.361551	-0.393391	1.214620
C73	C	-0.388460	-1.036177	0.464637
C74	C	-0.138460	-0.786177	0.714637
C75	C	0.111540	-0.536177	0.964637
C76	C	0.361540	-0.286177	1.214637
C77	C	-0.388444	-1.393935	0.715247
C78	C	-0.138444	-1.143935	0.965247
C79	C	0.111556	-0.893935	1.215247
C80	C	0.361556	-0.643935	1.465247
C81	C	-0.388461	-1.393993	0.822461
C82	C	-0.138461	-1.143993	1.072461
C83	C	0.111539	-0.893993	1.322461
C84	C	0.361539	-0.643993	1.572461
C85	C	-0.598777	-1.394068	0.464561
C86	C	-0.348777	-1.144068	0.714561
C87	C	-0.098777	-0.894068	0.964561
C88	C	0.151223	-0.644068	1.214561
C89	C	-0.688398	-1.394095	0.464530
C90	C	-0.438398	-1.144095	0.714530
C91	C	-0.188398	-0.894095	0.964530
C92	C	0.061602	-0.644095	1.214530
C93	C	-1.016574	-1.394139	0.464422
C94	C	-0.766574	-1.144139	0.714422
C95	C	-0.516574	-0.894139	0.964422
C96	C	-0.266574	-0.644139	1.214422
C97	C	-0.925265	-1.394124	0.464455
C98	C	-0.675265	-1.144124	0.714455
C99	C	-0.425265	-0.894124	0.964455
C100	C	-0.175265	-0.644124	1.214455
C101	C	-0.852489	-1.394118	0.464477
C102	C	-0.602489	-1.144118	0.714477
C103	C	-0.352489	-0.894118	0.964477
C104	C	-0.102489	-0.644118	1.214477
C105	C	-0.761174	-1.394102	0.464508
C106	C	-0.511174	-1.144102	0.714508
C107	C	-0.261174	-0.894102	0.964508
C108	C	-0.011174	-0.644102	1.214508
C109	C	-0.178977	-1.393999	0.464634
C110	C	0.071023	-1.143999	0.714634
C111	C	0.321023	-0.893999	0.964634
C112	C	0.571023	-0.643999	1.214634
C113	C	-0.089356	-1.394159	0.464393
C114	C	0.160644	-1.144159	0.714393
C115	C	0.410644	-0.894159	0.964393
C116	C	0.660644	-0.644159	1.214393
C117	C	-0.388486	-1.645598	0.464646
C118	C	-0.138486	-1.395598	0.714646
C119	C	0.111514	-1.145598	0.964646
C120	C	0.361514	-0.895598	1.214646
C121	C	-0.388495	-1.752812	0.464652
C122	C	-0.138495	-1.502812	0.714652
C123	C	0.111505	-1.252812	0.964652
C124	C	0.361505	-1.002812	1.214652
C125	C	-0.388482	-0.839882	0.464641
C126	C	-0.138482	-0.589882	0.714641
C127	C	0.111518	-0.339882	0.964641
C128	C	0.361518	-0.089882	1.214641
C129	C	-0.388468	-0.949115	0.464636
C130	C	-0.138468	-0.699115	0.714636
C131	C	0.111532	-0.449115	0.964636
C132	C	0.361532	-0.199115	1.214636
C133	C	-0.388509	-1.394102	0.213039
C134	C	-0.138509	-1.144102	0.463039
C135	C	0.111491	-0.894102	0.713039
C136	C	0.361491	-0.644102	0.963039
C137	C	-0.388526	-1.394144	0.105825
C138	C	-0.138526	-1.144144	0.355825
C139	C	0.111474	-0.894144	0.605825
C140	C	0.361474	-0.644144	0.855825
C141	C	-0.388512	-1.394095	1.018756
C142	C	-0.138512	-1.144095	1.268756
C143	C	0.111488	-0.894095	1.518756
C144	C	0.361488	-0.644095	1.768756
C145	C	-0.388486	-1.394036	0.909523
C146	C	-0.138486	-1.144036	1.159523
C147	C	0.111514	-0.894036	1.409523
C148	C	0.361514	-0.644036	1.659523
