data_functionalizedCrystal
_audit_creation_method	'MofGen! by Chris Wilmer'
_symmetry_space_group_name_H-M	'P1'
_symmetry_Int_Tables_number	1
_symmetry_cell_setting	triclinic
loop_
_symmetry_equiv_pos_as_xyz
  x,y,z
_cell_length_a	14.853567
_cell_length_b	19.188930
_cell_length_c	13.930277
_cell_angle_alpha	89.990320
_cell_angle_beta	89.995755
_cell_angle_gamma	83.389856
loop_
_atom_site_label
_atom_site_type_symbol
_atom_site_fract_x
_atom_site_fract_y
_atom_site_fract_z
O1	O	1.195862	0.091155	-0.079776
O2	O	0.933342	0.102014	-0.079794
O3	O	1.072177	-0.005046	-0.079766
O4	O	1.057026	0.198215	-0.079804
O5	O	1.072158	-0.005048	0.079896
O6	O	0.933322	0.102012	0.079868
O7	O	1.195842	0.091153	0.079886
Zn8	Zn	1.064579	0.096582	0.105227
Zn9	Zn	1.064605	0.096585	-0.105135
O10	O	1.057007	0.198213	0.079858
C11	C	0.899746	0.101521	0.000035
C12	C	0.799671	0.100046	0.000029
C13	C	0.387525	0.030218	0.000064
C14	C	0.365537	0.157407	0.000039
C15	C	0.459563	0.158794	0.000036
C16	C	0.517574	0.095891	0.000045
C17	C	0.481560	0.031602	0.000058
C18	C	0.495585	0.223081	0.000013
C19	C	0.589616	0.224470	0.000009
C20	C	0.647629	0.161567	0.000025
C21	C	0.611610	0.097276	0.000039
C22	C	0.669621	0.034373	0.000048
C23	C	0.633603	-0.029919	0.000069
C24	C	0.539574	-0.031301	0.000074
C25	C	0.741659	0.162949	0.000020
C26	C	0.763656	0.035757	0.000042
C27	C	1.071677	-0.031060	0.000068
C28	C	1.070204	-0.108569	0.000076
C29	C	1.151668	-0.153221	0.000086
C30	C	1.150285	-0.226050	0.000071
C31	C	1.067432	-0.254223	0.000065
C32	C	0.985957	-0.209561	0.000049
C33	C	0.987343	-0.136734	0.000055
N34	N	1.004095	-0.362440	0.054396
N35	N	1.002783	-0.431623	0.054393
C36	C	1.063251	-0.473645	0.000045
N37	N	1.125093	-0.443873	-0.054287
N38	N	1.126407	-0.374684	-0.054279
C39	C	1.065920	-0.333190	0.000058
C40	C	1.143220	-0.597267	0.000037
C41	C	1.141833	-0.670096	0.000015
C42	C	0.977503	-0.653606	0.000003
C43	C	0.978893	-0.580778	0.000015
C44	C	1.061754	-0.552613	0.000036
C45	C	1.229438	0.091646	0.000055
C46	C	1.329513	0.093120	0.000055
C47	C	1.057507	0.224226	0.000022
C48	C	1.058980	0.301736	0.000008
N49	N	1.064569	0.096579	0.248793
N50	N	1.064623	0.096582	-0.248701
C51	C	1.003126	0.143972	0.701050
C52	C	1.126108	0.049192	0.701044
C53	C	1.126098	0.049190	0.600548
C54	C	1.064601	0.096580	0.550299
C55	C	1.003115	0.143973	0.600545
C56	C	1.187588	0.001803	0.550295
C57	C	1.187581	0.001799	0.449793
C58	C	1.126079	0.049187	0.399541
C59	C	1.064590	0.096581	0.449794
C60	C	1.003094	0.143971	0.399544
C61	C	0.941600	0.191363	0.449794
C62	C	0.941614	0.191361	0.550293
C63	C	1.126065	0.049189	0.299043
C64	C	1.003083	0.143972	0.299039
H65	H	0.680849	-0.081134	0.000070
N66	N	0.899479	-0.088562	0.000051
H67	H	0.863323	-0.097618	-0.059140
H68	H	0.863381	-0.097664	0.059273
H69	H	0.891548	0.229946	0.591213
H70	H	0.891532	0.229951	0.408870
H71	H	1.210691	-0.574334	0.000050
N72	N	1.241042	-0.122852	0.000103
H73	H	1.276726	-0.139125	-0.059082
H74	H	1.229493	-0.069945	0.000141
N75	N	0.936797	0.195082	0.755239
H76	H	0.946129	0.187891	0.826531
H77	H	0.947009	0.244628	0.737661
N78	N	1.253901	-0.049313	0.395598
H79	H	1.292860	-0.079334	0.442682
H80	H	1.219506	-0.080230	0.353918
N81	N	0.628451	0.293813	-0.000016
H82	H	0.607274	0.321374	0.059165
H83	H	0.696815	0.285094	-0.000053
H84	H	0.448345	0.274293	-0.000004
H85	H	0.318299	0.208620	0.000023
H86	H	0.912556	-0.544421	0.000012
H87	H	1.208174	-0.706452	0.000018
H88	H	0.953001	0.182561	0.258132
H89	H	0.358195	-0.022127	0.000085
N90	N	0.780503	0.232285	-0.000011
H91	H	0.759329	0.259851	0.059167
H92	H	0.848867	0.223562	-0.000048
N93	N	1.238152	-0.274223	0.000080
H94	H	1.290853	-0.245329	0.000092
H95	H	1.241140	-0.304805	0.059268
H96	H	0.910043	-0.676543	-0.000007
H97	H	1.176181	0.010611	0.741960
H98	H	1.176137	0.010607	0.258133
H99	H	1.237662	-0.036778	0.591211
N100	N	0.896590	-0.239937	0.000044
H101	H	0.892359	-0.269779	-0.059143
H102	H	0.892396	-0.269757	0.059269
N103	N	0.826224	-0.032089	0.000063
H104	H	0.789136	-0.073023	0.000079
H105	H	0.865717	-0.034288	-0.059128
H106	H	0.510239	-0.083644	0.000114
