data_functionalizedCrystal
_audit_creation_method	'MofGen! by Chris Wilmer'
_symmetry_space_group_name_H-M	'P1'
_symmetry_Int_Tables_number	1
_symmetry_cell_setting	triclinic
loop_
_symmetry_equiv_pos_as_xyz
  x,y,z
_cell_length_a	8.559649
_cell_length_b	10.654545
_cell_length_c	7.681481
_cell_angle_alpha	84.204528
_cell_angle_beta	94.913240
_cell_angle_gamma	77.132046
loop_
_atom_site_label
_atom_site_type_symbol
_atom_site_fract_x
_atom_site_fract_y
_atom_site_fract_z
O1	O	2.104699	-0.029228	-0.146402
O2	O	1.640213	0.035559	-0.146408
O3	O	1.883134	-0.180677	-0.146403
O4	O	1.861777	0.187008	-0.146406
O5	O	1.913033	-0.207345	0.146455
O6	O	1.670112	0.008891	0.146450
O7	O	2.134598	-0.055896	0.146457
Zn8	Zn	1.907102	-0.027737	0.192951
Zn9	Zn	1.867709	0.007400	-0.192902
O10	O	1.891676	0.160340	0.146452
C11	C	1.595687	0.027135	0.000020
C12	C	1.418468	0.041749	0.000017
C13	C	1.896515	-0.240647	0.000022
C14	C	1.891821	-0.379604	0.000012
C15	C	1.859243	-0.350540	-0.319271
C16	C	1.840756	-0.401290	-0.478912
C17	C	1.836347	-0.531853	-0.478914
C18	C	1.850422	-0.611670	-0.319258
C19	C	1.868909	-0.560919	-0.159617
C20	C	1.873322	-0.430352	-0.159633
C21	C	1.901475	-0.589981	0.159662
C22	C	1.905896	-0.459420	0.159668
C23	C	1.915551	-0.669797	0.319318
C24	C	1.934050	-0.619049	0.478962
C25	C	1.938460	-0.488478	0.478958
C26	C	1.924384	-0.408670	0.319309
C27	C	2.179123	-0.047472	0.000025
C28	C	2.356341	-0.062085	0.000016
C29	C	1.878295	0.220310	0.000022
C30	C	1.882988	0.359268	0.000021
N31	N	1.933998	-0.051719	0.456286
N32	N	1.840825	0.031371	-0.456237
H33	H	1.438727	-0.162162	0.000008
C34	C	1.307160	0.176962	0.000015
N35	N	1.223322	0.278801	0.000016
H36	H	1.821278	-0.573170	-0.608908
H37	H	1.862850	-0.244230	-0.319286
C38	C	1.825288	-0.313487	-0.654525
N39	N	1.813642	-0.247357	-0.786797
C40	C	1.845529	-0.755283	-0.319270
N41	N	1.841836	-0.863454	-0.319277
H42	H	1.911950	-0.776106	0.319305
C43	C	1.958796	-0.432664	0.654579
N44	N	1.974116	-0.390630	0.786862
C45	C	1.712322	0.145944	0.442173
N46	N	1.615530	0.232240	0.365643
C47	C	1.929187	-0.265036	0.319288
N48	N	1.932782	-0.156844	0.319266
C49	C	1.949520	-0.706851	0.654564
N50	N	1.961174	-0.772989	0.786830
C51	C	2.062507	-0.166299	0.557883
N52	N	2.159295	-0.252600	0.634408
