data_functionalizedCrystal
_audit_creation_method	'MofGen! by Chris Wilmer'
_symmetry_space_group_name_H-M	'P1'
_symmetry_Int_Tables_number	1
_symmetry_cell_setting	triclinic
loop_
_symmetry_equiv_pos_as_xyz
  x,y,z
_cell_length_a	15.944545
_cell_length_b	15.944551
_cell_length_c	10.868271
_cell_angle_alpha	89.993912
_cell_angle_beta	89.998467
_cell_angle_gamma	83.497455
loop_
_atom_site_label
_atom_site_type_symbol
_atom_site_fract_x
_atom_site_fract_y
_atom_site_fract_z
O1	O	1.114527	0.108307	-0.102245
O2	O	1.614527	0.608307	0.397755
O3	O	0.869977	0.121669	-0.102266
O4	O	1.369977	0.621669	0.397734
O5	O	0.998930	-0.007287	-0.102244
O6	O	1.498930	0.492713	0.397756
O7	O	0.985574	0.237263	-0.102267
O8	O	1.485574	0.737263	0.397733
O9	O	0.998920	-0.007292	0.102401
O10	O	1.498920	0.492708	0.602401
O11	O	0.869966	0.121664	0.102379
O12	O	1.369966	0.621664	0.602379
O13	O	1.114517	0.108302	0.102399
O14	O	1.614517	0.608302	0.602399
Zn15	Zn	0.992240	0.114983	0.134881
Zn16	Zn	1.492240	0.614983	0.634881
Zn17	Zn	0.992254	0.114989	-0.134747
Zn18	Zn	1.492254	0.614989	0.365253
O19	O	0.985563	0.237258	0.102378
O20	O	1.485563	0.737258	0.602378
C21	C	0.838677	0.121113	0.000054
C22	C	1.338677	0.621113	0.500054
C23	C	0.745431	0.119453	0.000047
C24	C	1.245431	0.619453	0.500047
C25	C	0.474798	0.034559	0.000068
C26	C	0.974798	0.534559	0.500068
C27	C	0.525375	0.075485	0.100968
C28	C	1.025375	0.575485	0.600968
C29	C	0.409787	0.113532	0.000069
C30	C	0.909787	0.613532	0.500069
C31	C	0.525366	0.075512	-0.100796
C32	C	1.025366	0.575512	0.399204
C33	C	0.574701	0.116437	0.000056
C34	C	1.074701	0.616437	0.500056
C35	C	0.459135	0.154437	0.101051
C36	C	0.959135	0.654437	0.601051
C37	C	0.459123	0.154452	-0.100803
C38	C	0.959123	0.654452	0.399197
C39	C	0.509667	0.195436	0.000122
C40	C	1.009667	0.695436	0.500122
C41	C	0.314785	0.111856	0.000077
C42	C	0.814785	0.611856	0.500077
C43	C	0.669700	0.118119	0.000056
C44	C	1.169700	0.618119	0.500056
C45	C	0.998370	-0.038583	0.000079
C46	C	1.498370	0.461417	0.500079
C47	C	0.996708	-0.131829	0.000079
C48	C	1.496708	0.368171	0.500079
C49	C	0.912803	-0.346684	0.000055
C50	C	1.412803	0.153316	0.500055
C51	C	0.951761	-0.407705	0.100961
C52	C	1.451761	0.092295	0.600961
C53	C	0.993701	-0.302555	0.000070
C54	C	1.493701	0.197445	0.500070
C55	C	0.951790	-0.407683	-0.100803
C56	C	1.451790	0.092317	0.399197
C57	C	0.990790	-0.467468	0.000055
C58	C	1.490790	0.032532	0.500055
C59	C	1.032680	-0.362347	0.101058
C60	C	1.532680	0.137653	0.601058
C61	C	1.032698	-0.362319	-0.100796
C62	C	1.532698	0.137681	0.399204
C63	C	1.071715	-0.423322	0.000134
C64	C	1.571715	0.076678	0.500134
C65	C	0.995375	-0.207553	0.000079
C66	C	1.495375	0.292447	0.500079
C67	C	0.989122	-0.562469	0.000054
C68	C	1.489122	-0.062469	0.500054
C69	C	1.145816	0.108859	0.000077
C70	C	1.645816	0.608859	0.500077
C71	C	1.239062	0.110519	0.000076
C72	C	1.739062	0.610519	0.500076
C73	C	0.986123	0.268555	0.000052
C74	C	1.486123	0.768555	0.500052
C75	C	0.987785	0.361801	0.000044
C76	C	1.487785	0.861801	0.500044
N77	N	0.992236	0.114978	0.318895
N78	N	1.492236	0.614978	0.818895
N79	N	0.992264	0.114987	-0.318761
N80	N	1.492264	0.614987	0.181239
C81	C	0.992249	0.114987	0.569901
C82	C	1.492249	0.614987	1.069901
C83	C	0.992239	0.114984	0.430224
C84	C	1.492239	0.614984	0.930224
H85	H	0.554288	0.042148	-0.186093
H86	H	1.054288	0.542148	0.313907
H87	H	0.430181	0.187777	-0.186115
H88	H	0.930181	0.687777	0.313885
H89	H	1.138922	-0.456483	0.000197
H90	H	1.638922	0.043517	0.500197
H91	H	0.917540	-0.427814	0.186263
H92	H	1.417540	0.072186	0.686263
H93	H	0.845655	-0.313375	0.000151
H94	H	1.345655	0.186625	0.500151
H95	H	1.066863	-0.342360	0.186460
H96	H	1.566863	0.157640	0.686460
H97	H	1.066890	-0.342188	-0.186102
H98	H	1.566890	0.157812	0.313898
H99	H	0.917568	-0.427757	-0.186116
H100	H	1.417568	0.072243	0.313884
C101	C	0.453643	-0.057319	0.000211
C102	C	0.953643	0.442681	0.500211
N103	N	0.437706	-0.126520	0.000327
N104	N	0.937706	0.373480	0.500327
H105	H	0.554301	0.042131	0.186277
H106	H	1.054301	0.542131	0.686277
C107	C	0.420213	0.199454	0.216421
C108	C	0.920213	0.699454	0.716421
N109	N	0.390895	0.233355	0.303319
N110	N	0.890895	0.733355	0.803319
C111	C	0.530603	0.287386	0.000194
C112	C	1.030603	0.787386	0.500194
N113	N	0.546376	0.356642	0.000256
N114	N	1.046376	0.856642	0.500256
