data_functionalizedCrystal
_audit_creation_method	'MofGen! by Chris Wilmer'
_symmetry_space_group_name_H-M	'P1'
_symmetry_Int_Tables_number	1
_symmetry_cell_setting	triclinic
loop_
_symmetry_equiv_pos_as_xyz
  x,y,z
_cell_length_a	14.519709
_cell_length_b	11.792241
_cell_length_c	10.868271
_cell_angle_alpha	89.996558
_cell_angle_beta	89.993918
_cell_angle_gamma	83.936780
loop_
_atom_site_label
_atom_site_type_symbol
_atom_site_fract_x
_atom_site_fract_y
_atom_site_fract_z
O1	O	0.126404	1.506208	-0.102301
O2	O	0.626404	2.006208	0.397699
O3	O	0.139432	1.175794	-0.102309
O4	O	0.639432	1.675794	0.397691
O5	O	-0.001288	1.349761	-0.102294
O6	O	0.498712	1.849761	0.397706
O7	O	0.267124	1.332241	-0.102316
O8	O	0.767124	1.832241	0.397684
O9	O	-0.001294	1.349747	0.102351
O10	O	0.498706	1.849747	0.602351
O11	O	0.139426	1.175780	0.102336
O12	O	0.639426	1.675780	0.602336
O13	O	0.126399	1.506193	0.102344
O14	O	0.626399	2.006193	0.602344
Zn15	Zn	0.132912	1.340984	0.134832
Zn16	Zn	0.632912	1.840984	0.634832
Zn17	Zn	0.132919	1.341003	-0.134797
Zn18	Zn	0.632919	1.841003	0.365203
O19	O	0.267119	1.332226	0.102329
O20	O	0.767119	1.832226	0.602329
C21	C	-0.035654	1.348938	0.000029
C22	C	0.464346	1.848938	0.500029
C23	C	-0.138044	1.346491	0.000030
C24	C	0.361956	1.846491	0.500030
C25	C	0.127220	1.548487	0.000020
C26	C	0.627220	2.048487	0.500020
C27	C	0.129669	1.674487	0.000014
C28	C	0.629669	2.174487	0.500014
C29	C	0.138611	1.133501	0.000013
C30	C	0.638611	1.633501	0.500013
C31	C	0.136161	1.007501	0.000010
C32	C	0.636161	1.507501	0.500010
C33	C	-0.512973	1.337483	-0.000003
C34	C	-0.012973	1.837483	0.499997
C35	C	-0.408656	1.339984	0.000007
C36	C	0.091344	1.839984	0.500007
C37	C	-0.325512	1.341987	0.000015
C38	C	0.174488	1.841987	0.500015
C39	C	-0.221188	1.344489	0.000022
C40	C	0.278812	1.844489	0.500022
C41	C	0.301484	1.333050	0.000003
C42	C	0.801484	1.833050	0.500003
C43	C	0.403875	1.335497	-0.000005
C44	C	0.903875	1.835497	0.499995
N45	N	0.132906	1.340980	0.318846
N46	N	0.632906	1.840980	0.818846
C47	C	0.134173	1.905174	0.000015
C48	C	0.634173	2.405174	0.500015
C49	C	0.131671	1.776803	0.000015
C50	C	0.631671	2.276803	0.500015
N51	N	0.132917	1.341017	-0.318811
N52	N	0.632917	1.841017	0.181189
C53	C	0.132917	1.340997	0.569852
C54	C	0.632917	1.840997	1.069852
C55	C	0.132914	1.340984	0.430174
C56	C	0.632914	1.840984	0.930174
