data_functionalizedCrystal
_audit_creation_method	'MofGen! by Chris Wilmer'
_symmetry_space_group_name_H-M	'P1'
_symmetry_Int_Tables_number	1
_symmetry_cell_setting	triclinic
loop_
_symmetry_equiv_pos_as_xyz
  x,y,z
_cell_length_a	11.792254
_cell_length_b	11.026607
_cell_length_c	9.482900
_cell_angle_alpha	101.363848
_cell_angle_beta	99.398945
_cell_angle_gamma	83.607693
loop_
_atom_site_label
_atom_site_type_symbol
_atom_site_fract_x
_atom_site_fract_y
_atom_site_fract_z
O1	O	0.461985	-1.632141	-0.120907
O2	O	0.407793	-1.278476	-0.120907
O3	O	0.271423	-1.463881	-0.120897
O4	O	0.598355	-1.446735	-0.120917
O5	O	0.299265	-1.426222	0.120894
O6	O	0.435635	-1.240817	0.120883
O7	O	0.489827	-1.594482	0.120884
Cu8	Cu	0.465273	-1.414211	0.142961
Cu9	Cu	0.432347	-1.458747	-0.142984
O10	O	0.626197	-1.409076	0.120873
C11	C	0.411717	-1.214369	-0.000012
C12	C	0.381914	-1.079457	-0.000012
C13	C	0.242839	-1.443971	-0.000002
C14	C	0.116184	-1.440738	-0.000003
C15	C	0.485903	-1.658589	-0.000015
C16	C	0.515705	-1.793502	-0.000024
C17	C	0.013325	-1.438112	-0.000009
C18	C	-0.115715	-1.434829	-0.000022
C19	C	0.654781	-1.428987	-0.000025
C20	C	0.781435	-1.432221	-0.000033
N21	N	0.488433	-1.382895	0.344079
C22	C	0.464204	-1.006198	-0.000018
C23	C	0.433403	-0.866760	-0.000018
N24	N	0.409180	-1.490072	-0.344103
C25	C	0.439170	-1.449502	0.416282
C26	C	0.458450	-1.423456	0.583698
H27	H	0.557458	-1.046707	-0.000016
H28	H	0.544877	-1.306583	0.406205
H29	H	0.340139	-0.826261	-0.000050
H30	H	0.288656	-1.038953	-0.000043
H31	H	0.352722	-1.566380	0.593777
H32	H	0.514898	-1.347139	0.645818
H33	H	0.608966	-0.834004	-0.000021
H34	H	0.382716	-1.525805	0.354158
