data_functionalizedCrystal
_audit_creation_method	'MofGen! by Chris Wilmer'
_symmetry_space_group_name_H-M	'P1'
_symmetry_Int_Tables_number	1
_symmetry_cell_setting	triclinic
loop_
_symmetry_equiv_pos_as_xyz
  x,y,z
_cell_length_a	16.992694
_cell_length_b	27.732048
_cell_length_c	16.053802
_cell_angle_alpha	92.539157
_cell_angle_beta	87.249047
_cell_angle_gamma	86.655439
loop_
_atom_site_label
_atom_site_type_symbol
_atom_site_fract_x
_atom_site_fract_y
_atom_site_fract_z
O1	O	1.042477	0.100541	-0.069340
O2	O	0.814206	0.099416	-0.069364
O3	O	0.935430	0.029889	-0.069335
O4	O	0.921253	0.170068	-0.069368
O5	O	0.928758	0.033699	0.069522
O6	O	0.807534	0.103227	0.069493
O7	O	1.035804	0.104351	0.069518
Zn8	Zn	0.920610	0.104394	0.091552
Zn9	Zn	0.929401	0.099374	-0.091398
O10	O	0.914580	0.173879	0.069489
C11	C	0.781675	0.099876	0.000062
C12	C	0.694684	0.095561	0.000053
C13	C	0.931796	0.013774	0.000096
C14	C	0.930900	-0.039919	0.000103
C15	C	0.643939	0.137184	0.000044
C16	C	0.562201	0.133129	0.000056
C17	C	0.531209	0.087449	0.000072
C18	C	0.581960	0.045823	0.000084
C19	C	0.663696	0.049880	0.000077
C20	C	0.287814	0.070636	0.000098
C21	C	0.206072	0.066583	0.000103
C22	C	0.186318	0.153889	0.000077
C23	C	0.268057	0.157941	0.000065
C24	C	0.318800	0.116315	0.000081
N25	N	0.447660	0.083302	0.000082
N26	N	0.402348	0.120463	0.000077
C27	C	0.996895	-0.375882	0.000067
C28	C	0.993571	-0.577686	0.000055
O29	O	1.053919	-0.606333	0.000025
N30	N	0.921689	-0.599917	0.000048
C31	C	0.850634	-0.571695	0.000038
O32	O	0.789419	-0.595235	0.000024
C33	C	0.853960	-0.369893	0.000045
C34	C	0.925846	-0.347663	0.000060
C35	C	1.068775	-0.353652	0.000081
C36	C	1.069606	-0.303204	0.000089
C37	C	0.998556	-0.274986	0.000082
C38	C	0.926676	-0.297215	0.000067
C39	C	0.782906	-0.341671	0.000029
C40	C	0.783744	-0.291218	0.000029
C41	C	0.855630	-0.268989	0.000044
C42	C	0.856457	-0.218549	0.000068
N43	N	0.928338	-0.196317	0.000075
C44	C	0.999388	-0.224535	0.000082
C45	C	0.848893	-0.677645	0.000037
C46	C	0.848061	-0.728095	0.000037
C47	C	0.990998	-0.734082	0.000052
C48	C	0.991829	-0.683631	0.000058
C49	C	0.920775	-0.655413	0.000044
C50	C	1.001126	-0.118591	0.000098
C51	C	1.001949	-0.068138	0.000109
C52	C	0.859013	-0.062155	0.000090
C53	C	0.858189	-0.112603	0.000084
C54	C	0.929252	-0.140820	0.000085
O55	O	0.796141	-0.189872	0.000089
O56	O	1.060595	-0.200987	0.000078
C57	C	0.996065	-0.426330	0.000059
C58	C	0.924185	-0.448559	0.000045
C59	C	0.853136	-0.420341	0.000038
C60	C	0.923354	-0.499010	0.000045
C61	C	0.994403	-0.527228	0.000052
C62	C	1.066285	-0.504997	0.000059
C63	C	1.067115	-0.454549	0.000066
C64	C	0.781254	-0.442573	0.000031
C65	C	0.780430	-0.493021	0.000024
C66	C	0.851480	-0.521240	0.000031
C67	C	1.068336	0.103892	0.000090
C68	C	1.155327	0.108206	0.000093
C69	C	0.918214	0.189993	0.000056
C70	C	0.919111	0.243686	0.000044
N71	N	0.914616	0.107820	0.216411
N72	N	0.935401	0.095944	-0.216257
C73	C	0.966215	0.078248	0.260117
C74	C	0.962030	0.080649	0.347523
C75	C	0.906248	0.112625	0.391221
C76	C	0.854643	0.142199	0.347509
C77	C	0.858825	0.139794	0.260104
C78	C	0.887978	0.123113	0.652626
C79	C	0.883801	0.125516	0.740037
C80	C	0.991188	0.063966	0.740045
C81	C	0.995369	0.061567	0.652639
C82	C	0.943761	0.091138	0.608934
N83	N	0.901970	0.115082	0.480564
N84	N	0.948036	0.088679	0.519593
H85	H	0.669166	0.174382	0.000031
H86	H	0.144995	0.187778	0.000065
N87	N	0.823626	0.160007	0.787159
H88	H	0.787421	0.141188	0.823440
H89	H	0.851634	0.183559	0.823358
H90	H	0.816806	0.163875	0.224520
H91	H	0.180842	0.029383	0.000114
N92	N	0.507464	0.178024	0.000141
H93	H	0.539499	0.207578	0.000155
H94	H	0.475540	0.176865	-0.051301
H95	H	0.723396	-0.419602	0.000024
H96	H	1.048850	-0.757066	0.000058
H97	H	0.725882	-0.268245	0.000016
N98	N	1.079486	-0.044162	0.000131
H99	H	1.124367	-0.069697	0.000132
H100	H	1.085420	-0.024766	-0.051341
H101	H	0.789524	-0.746189	0.000039
N102	N	0.301468	0.207214	0.000054
H103	H	0.332475	0.212258	0.051524
H104	H	0.337367	0.209401	-0.051459
H105	H	0.724370	-0.359762	0.000012
H106	H	1.033204	0.039890	0.775637
N107	N	0.832314	0.155004	0.605494
H108	H	0.796345	0.175625	0.646442
H109	H	0.863784	0.176537	0.569210
H110	H	0.721887	-0.511115	0.000019
H111	H	1.011642	0.052211	0.224544
H112	H	0.556720	0.008630	0.000109
H113	H	0.329120	0.036741	0.000112
H114	H	0.809220	0.168233	0.383093
H115	H	0.705012	0.015986	0.000084
H116	H	1.058992	-0.141559	0.000096
H117	H	1.128142	-0.285110	0.000098
N118	N	0.780659	-0.136584	0.000070
H119	H	0.774652	-0.155978	0.051538
H120	H	0.735822	-0.111022	0.000038
N121	N	1.017690	0.048764	0.394674
H122	H	1.050415	0.069587	0.430923
H123	H	0.986219	0.027206	0.430907
N124	N	1.145412	-0.384086	0.000094
H125	H	1.179278	-0.378021	-0.051373
H126	H	1.174253	-0.375186	0.051610
N127	N	1.069361	-0.659656	0.000075
H128	H	1.114240	-0.685193	0.000082
H129	H	1.075299	-0.640264	-0.051402
H130	H	0.801167	-0.039170	0.000088
N131	N	0.772251	-0.647213	0.000024
H132	H	0.726595	-0.668956	0.000022
H133	H	0.767006	-0.624742	0.051500
N134	N	1.144649	-0.430576	0.000084
H135	H	1.189526	-0.456114	0.000087
H136	H	1.150587	-0.411182	-0.051390
H137	H	1.124136	-0.527981	0.000068
H138	H	1.040791	0.035529	0.617062
