data_functionalizedCrystal
_audit_creation_method	'MofGen! by Chris Wilmer'
_symmetry_space_group_name_H-M	'P1'
_symmetry_Int_Tables_number	1
_symmetry_cell_setting	triclinic
loop_
_symmetry_equiv_pos_as_xyz
  x,y,z
_cell_length_a	6.817900
_cell_length_b	7.190334
_cell_length_c	16.255699
_cell_angle_alpha	89.349550
_cell_angle_beta	103.489404
_cell_angle_gamma	60.611776
loop_
_atom_site_label
_atom_site_type_symbol
_atom_site_fract_x
_atom_site_fract_y
_atom_site_fract_z
V1	V	-4.223188	0.665700	-0.115738
O2	O	-4.206716	0.652300	0.006951
O3	O	-4.173598	0.661847	-0.230825
O4	O	-4.260347	0.955715	-0.113349
O5	O	-4.119366	0.356397	-0.111339
V6	V	-4.695883	0.628620	-0.101135
O7	O	-4.508197	0.747038	-0.147771
O8	O	-4.861071	0.547282	-0.069102
O9	O	-4.522266	0.632473	0.013952
O10	O	-4.829752	0.642020	-0.223824
O11	O	-4.917102	0.937923	-0.105534
O12	O	-4.435517	0.338605	-0.103525
C13	C	-4.015541	0.651526	-0.258900
C14	C	-4.056853	0.650309	-0.352981
C15	C	-4.126209	1.026381	-0.109043
C16	C	-4.239964	1.267931	-0.107827
C17	C	-3.963318	0.636366	-0.575836
C18	C	-3.996249	0.464499	-0.623804
C19	C	-4.132627	0.648185	-0.525240
C20	C	-4.173338	0.817905	-0.644909
C21	C	-4.205810	0.646141	-0.691633
C22	C	-4.164940	0.476188	-0.571959
C23	C	-4.342079	0.829751	-0.593069
C24	C	-4.375118	0.657850	-0.641012
C25	C	-4.090461	0.649360	-0.429384
C26	C	-4.247983	0.644951	-0.787486
C27	C	-4.343664	0.642788	0.042022
C28	C	-4.281594	0.644019	0.136103
H29	H	-3.788750	0.627074	-0.547352
O30	O	-4.516068	1.013782	-0.576388
C31	C	-4.632409	0.960810	-0.527551
H32	H	-4.605568	0.794236	-0.537819
H33	H	-4.827426	1.085542	-0.548440
H34	H	-4.558316	0.959820	-0.456905
O35	O	-3.822094	0.280402	-0.640383
C36	C	-3.605817	0.269605	-0.607041
H37	H	-3.637165	0.439031	-0.600411
H38	H	-3.491107	0.196220	-0.652167
H39	H	-3.514294	0.164835	-0.541587
O40	O	-4.159952	0.303773	-0.534039
C41	C	-4.120663	0.306934	-0.445114
H42	H	-4.031357	0.404390	-0.425033
H43	H	-4.003738	0.134716	-0.409829
H44	H	-4.295118	0.384247	-0.428574
O45	O	-4.583103	0.668334	-0.674883
C46	C	-4.544488	0.484747	-0.714671
H47	H	-4.371939	0.414771	-0.732337
H48	H	-4.693748	0.532500	-0.775022
H49	H	-4.536556	0.358519	-0.668828
O50	O	-4.177652	0.990093	-0.682693
C51	C	-3.960713	0.977992	-0.649299
H52	H	-3.870557	0.874555	-0.583568
H53	H	-3.990758	1.147213	-0.643252
H54	H	-3.845406	0.902428	-0.694073
