data_functionalizedCrystal
_audit_creation_method	'MofGen! by Chris Wilmer'
_symmetry_space_group_name_H-M	'P1'
_symmetry_Int_Tables_number	1
_symmetry_cell_setting	triclinic
loop_
_symmetry_equiv_pos_as_xyz
  x,y,z
_cell_length_a	11.792241
_cell_length_b	16.974800
_cell_length_c	15.455313
_cell_angle_alpha	83.673507
_cell_angle_beta	92.692471
_cell_angle_gamma	83.790885
loop_
_atom_site_label
_atom_site_type_symbol
_atom_site_fract_x
_atom_site_fract_y
_atom_site_fract_z
O1	O	0.144465	1.049844	-0.001592
O2	O	0.644465	1.549844	0.498408
O3	O	0.164025	0.818941	0.014624
O4	O	0.664025	1.318941	0.514624
O5	O	-0.011012	0.939996	0.006116
O6	O	0.488988	1.439996	0.506116
O7	O	0.319501	0.928789	0.006916
O8	O	0.819501	1.428789	0.506916
O9	O	-0.020991	0.946911	-0.138632
O10	O	0.479009	1.446911	0.361368
O11	O	0.154046	0.825856	-0.130124
O12	O	0.654046	1.325856	0.369876
O13	O	0.134485	1.056759	-0.146341
O14	O	0.634485	1.556759	0.353659
Cu15	Cu	0.143354	0.941939	-0.151449
Cu16	Cu	0.643354	1.441939	0.348551
Cu17	Cu	0.155156	0.933761	0.019733
Cu18	Cu	0.655156	1.433761	0.519733
O19	O	0.309522	0.935704	-0.137833
O20	O	0.809522	1.435704	0.362167
C21	C	0.158480	0.792837	-0.055674
C22	C	0.658480	1.292837	0.444326
C23	C	0.156811	0.704756	-0.049488
C24	C	0.656811	1.204756	0.450512
C25	C	0.150584	0.667149	-0.125486
C26	C	0.650584	1.167149	0.374514
C27	C	0.148998	0.584388	-0.119676
C28	C	0.648998	1.084388	0.380324
C29	C	0.153646	0.539236	-0.037867
C30	C	0.653646	1.039236	0.462133
C31	C	0.159870	0.576848	0.038136
C32	C	0.659870	1.076848	0.538136
C33	C	0.161448	0.659608	0.032326
C34	C	0.661448	1.159608	0.532326
C35	C	0.149502	0.291316	-0.012028
C36	C	0.649502	0.791316	0.487972
C37	C	0.147927	0.208551	-0.006223
C38	C	0.647927	0.708551	0.493777
C39	C	0.137052	0.216097	-0.164036
C40	C	0.637052	0.716097	0.335964
C41	C	0.138638	0.298857	-0.169839
C42	C	0.638638	0.798857	0.330161
C43	C	0.144856	0.336463	-0.093836
C44	C	0.644856	0.836463	0.406164
N45	N	0.152029	0.454641	-0.031927
N46	N	0.652029	0.954641	0.468073
N47	N	0.146465	0.421058	-0.099777
N48	N	0.646465	0.921058	0.400223
C49	C	-0.058281	0.942750	-0.066208
C50	C	0.441719	1.442750	0.433792
C51	C	-0.184263	0.940643	-0.066059
C52	C	0.315737	1.440643	0.433941
C53	C	-0.414915	0.936768	-0.065773
C54	C	0.085085	1.436768	0.434227
C55	C	-0.286563	0.938921	-0.065932
C56	C	0.213437	1.438921	0.434068
C57	C	0.356792	0.932950	-0.065506
C58	C	0.856792	1.432950	0.434494
C59	C	0.482774	0.935057	-0.065649
C60	C	0.982774	1.435057	0.434351
C61	C	0.140031	1.082863	-0.076041
C62	C	0.640031	1.582863	0.423959
C63	C	0.141700	1.170944	-0.082221
C64	C	0.641700	1.670944	0.417779
N65	N	0.163448	0.928010	0.140132
N66	N	0.663448	1.428010	0.640132
N67	N	0.135053	0.947696	-0.271849
N68	N	0.635053	1.447696	0.228151
C69	C	0.089229	0.979538	0.181905
C70	C	0.589229	1.479538	0.681905
C71	C	0.095498	0.975187	0.273019
C72	C	0.595498	1.475187	0.773019
C73	C	0.175982	0.919303	0.322358
C74	C	0.675982	1.419303	0.822358
C75	C	0.250209	0.867773	0.280579
C76	C	0.750209	1.367773	0.780579
C77	C	0.243945	0.872129	0.189467
C78	C	0.743945	1.372129	0.689467
C79	C	0.203016	0.900522	0.595260
C80	C	0.703016	1.400522	1.095260
C81	C	0.209273	0.896169	0.686378
C82	C	0.709273	1.396169	1.186378
C83	C	0.054562	1.003583	0.678811
C84	C	0.554562	1.503583	1.178811
C85	C	0.048300	1.007931	0.587698
C86	C	0.548300	1.507931	1.087698
C87	C	0.122532	0.956404	0.545926
C88	C	0.622532	1.456404	1.045926
N89	N	0.182389	0.914853	0.415491
N90	N	0.682389	1.414853	0.915491
N91	N	0.116129	0.960858	0.452795
N92	N	0.616129	1.460858	0.952795
H93	H	0.146808	0.703906	-0.192103
H94	H	0.646808	1.203906	0.307897
H95	H	0.166521	0.690226	0.094212
H96	H	0.666521	1.190226	0.594212
C97	C	0.153036	0.158880	0.083768
C98	C	0.653036	0.658880	0.583768
H99	H	0.151219	0.104205	0.076340
H100	H	0.651219	0.604205	0.576340
H101	H	0.089346	0.176658	0.114829
H102	H	0.589346	0.676658	0.614829
H103	H	0.221717	0.165125	0.115647
H104	H	0.721717	0.665125	0.615647
H105	H	0.035063	1.017145	0.307029
H106	H	0.535063	1.517145	0.807029
H107	H	-0.005873	1.045535	0.712830
H108	H	0.494127	1.545535	1.212830
H109	H	0.023686	1.025040	0.141738
H110	H	0.523686	1.525040	0.641738
C111	C	0.156354	0.332672	0.071573
C112	C	0.656354	0.832672	0.571573
H113	H	0.158910	0.293924	0.121125
H114	H	0.658910	0.793924	0.621125
H115	H	0.091015	0.370568	0.072184
H116	H	0.591015	0.870568	0.572184
H117	H	0.223386	0.359029	0.072994
H118	H	0.723386	0.859029	0.572994
H119	H	0.163647	0.540079	0.104747
H120	H	0.663647	1.040079	0.604747
H121	H	-0.017236	1.053435	0.547527
H122	H	0.482764	1.553435	1.047527
H123	H	0.131988	0.185469	-0.225914
H124	H	0.631988	0.685469	0.274086
C125	C	0.133552	0.348518	-0.259829
C126	C	0.633552	0.848518	0.240171
H127	H	0.129617	0.314267	-0.304260
H128	H	0.629617	0.814267	0.195740
H129	H	0.200133	0.375180	-0.264951
H130	H	0.700133	0.875180	0.235049
H131	H	0.067761	0.386736	-0.265799
H132	H	0.567761	0.886736	0.234201
C133	C	0.297816	0.834700	0.740650
C134	C	0.797816	1.334700	1.240650
H135	H	0.341137	0.804641	0.702724
H136	H	0.841137	1.304641	1.202724
H137	H	0.259523	0.799862	0.778513
H138	H	0.759523	1.299862	1.278513
H139	H	0.347427	0.861682	0.774188
H140	H	0.847427	1.361682	1.274188
C141	C	0.284690	0.843860	0.549321
C142	C	0.784690	1.343860	1.049321
H143	H	0.333518	0.809956	0.591758
H144	H	0.833518	1.309956	1.091758
H145	H	0.329412	0.874247	0.511786
H146	H	0.829412	1.374247	1.011786
H147	H	0.241531	0.812411	0.516086
H148	H	0.741531	1.312411	1.016086
H149	H	0.304384	0.830170	0.155457
H150	H	0.804384	1.330170	0.655457
C151	C	0.142158	0.543023	-0.203274
C152	C	0.642158	1.043023	0.296726
H153	H	0.139631	0.581767	-0.252828
H154	H	0.639631	1.081767	0.247172
H155	H	0.075135	0.516665	-0.204703
H156	H	0.575135	1.016665	0.295297
H157	H	0.207506	0.505126	-0.203874
H158	H	0.707506	1.005126	0.296126
C159	C	0.338736	0.806301	0.334851
C160	C	0.838736	1.306301	0.834851
H161	H	0.331830	0.811080	0.395097
H162	H	0.831830	1.311080	0.895097
H163	H	0.413451	0.815847	0.319313
H164	H	0.913451	1.315847	0.819313
H165	H	0.325524	0.754042	0.323631
H166	H	0.825524	1.254042	0.823631
