data_functionalizedCrystal
_audit_creation_method	'MofGen! by Chris Wilmer'
_symmetry_space_group_name_H-M	'P1'
_symmetry_Int_Tables_number	1
_symmetry_cell_setting	triclinic
loop_
_symmetry_equiv_pos_as_xyz
  x,y,z
_cell_length_a	19.188930
_cell_length_b	16.992694
_cell_length_c	15.455313
_cell_angle_alpha	92.857794
_cell_angle_beta	92.650876
_cell_angle_gamma	93.093497
loop_
_atom_site_label
_atom_site_type_symbol
_atom_site_fract_x
_atom_site_fract_y
_atom_site_fract_z
O1	O	0.145160	-1.043326	-0.072038
O2	O	0.143535	-0.815047	-0.072064
O3	O	0.043078	-0.935773	-0.072033
O4	O	0.245617	-0.922600	-0.072069
O5	O	0.048798	-0.928870	0.072227
O6	O	0.149255	-0.808144	0.072197
O7	O	0.150879	-1.036422	0.072222
Cu8	Cu	0.150589	-0.921653	0.085382
Cu9	Cu	0.143825	-0.929817	-0.085223
O10	O	0.251336	-0.915696	0.072192
C11	C	0.144306	-0.782390	0.000064
C12	C	0.138072	-0.695368	0.000055
C13	C	0.019902	-0.931895	0.000099
C14	C	-0.057677	-0.930614	0.000107
N15	N	0.155346	-0.915916	0.205376
C16	C	-0.098455	-1.001452	0.000119
C17	C	-0.171350	-1.000250	0.000105
C18	C	-0.203463	-0.928204	0.000096
C19	C	-0.162676	-0.857356	0.000079
C20	C	-0.089783	-0.858561	0.000085
N21	N	-0.312744	-0.870784	0.049185
N22	N	-0.381990	-0.869644	0.049181
C23	C	-0.423085	-0.924569	0.000078
N24	N	-0.392319	-0.980688	-0.049011
N25	N	-0.323067	-0.981830	-0.049004
C26	C	-0.282503	-0.926889	0.000090
C27	C	-0.542904	-0.994108	0.000074
C28	C	-0.615801	-0.992903	0.000054
C29	C	-0.607124	-0.850007	0.000038
C30	C	-0.534230	-0.851215	0.000048
C31	C	-0.502124	-0.923267	0.000070
C32	C	0.274513	-0.919575	0.000057
C33	C	0.352092	-0.920856	0.000044
C34	C	0.150109	-1.069079	0.000093
C35	C	0.156342	-1.156102	0.000096
C36	C	0.198212	-0.644922	0.000045
C37	C	0.192351	-0.563155	0.000058
C38	C	0.126351	-0.531836	0.000075
C39	C	0.066208	-0.582288	0.000087
C40	C	0.072069	-0.664053	0.000080
C41	C	0.102059	-0.288320	0.000102
C42	C	0.096203	-0.206548	0.000106
C43	C	0.222347	-0.187420	0.000079
C44	C	0.228202	-0.269188	0.000067
C45	C	0.168059	-0.319633	0.000084
N46	N	0.120360	-0.448257	0.000085
N47	N	0.174051	-0.403210	0.000079
N48	N	0.139063	-0.935560	-0.205217
C49	C	0.112686	-0.967222	0.250783
C50	C	0.116291	-0.962891	0.341590
C51	C	0.162559	-0.907257	0.386988
C52	C	0.205221	-0.855945	0.341574
C53	C	0.201613	-0.860273	0.250769
C54	C	0.178116	-0.888576	0.658564
C55	C	0.181723	-0.884253	0.749376
C56	C	0.092792	-0.991199	0.749385
C57	C	0.089190	-0.995525	0.658578
C58	C	0.131849	-0.944211	0.613173
N59	N	0.166246	-0.902830	0.479807
N60	N	0.128158	-0.948634	0.520355
H61	H	-0.072320	-1.060123	0.000134
H62	H	0.281946	-0.294682	0.000043
H63	H	-0.516763	-1.052778	0.000088
O64	O	0.074755	-1.012712	0.385597
C65	C	0.004051	-1.001268	0.363446
H66	H	-0.000187	-0.974186	0.297524
H67	H	-0.027122	-1.060466	0.360333
H68	H	-0.017712	-0.959897	0.414568
H69	H	0.051515	-1.040827	0.621617
H70	H	-0.649002	-1.050591	0.000059
H71	H	-0.204558	-1.057937	0.000111
O72	O	-0.638420	-0.780088	0.000063
C73	C	-0.711504	-0.794214	0.000033
H74	H	-0.724110	-0.854141	0.027355
H75	H	-0.734785	-0.746120	0.041903
H76	H	-0.734714	-0.793801	-0.069179
O77	O	0.002042	-0.551996	0.000139
C78	C	-0.049782	-0.614059	0.000124
H79	H	-0.026032	-0.668235	0.027432
H80	H	-0.093928	-0.595126	0.042012
H81	H	-0.071294	-0.629002	-0.069083
O82	O	-0.050143	-0.789773	-0.000076
C83	C	-0.010654	-0.789781	-0.074773
H84	H	-0.037143	-0.832461	-0.126991
H85	H	-0.006979	-0.727806	-0.099861
H86	H	0.044091	-0.809081	-0.057871
O87	O	0.243125	-0.810400	0.206792
C88	C	0.284726	-0.760355	0.266331
H89	H	0.289898	-0.789407	0.331055
H90	H	0.338757	-0.749450	0.240077
H91	H	0.259163	-0.701740	0.276006
H92	H	-0.501027	-0.793530	0.000043
H93	H	0.058060	-1.032976	0.786362
O94	O	0.043666	-0.337343	0.000261
C95	C	0.046248	-0.381663	0.074960
H96	H	0.082341	-0.349103	0.127180
H97	H	-0.008475	-0.389855	0.100043
H98	H	0.066965	-0.441867	0.058061
H99	H	0.271312	-0.146339	0.000067
H100	H	0.042455	-0.181052	0.000119
H101	H	-0.188827	-0.798696	0.000070
O102	O	0.226680	-0.830129	0.793343
C103	C	0.263568	-0.785774	0.733796
H104	H	0.232329	-0.788078	0.669074
H105	H	0.271721	-0.721883	0.760042
H106	H	0.316480	-0.811494	0.724122
O107	O	0.013676	-0.713084	0.000239
C108	C	0.016263	-0.757401	0.074940
H109	H	0.052359	-0.724840	0.127155
H110	H	-0.038459	-0.765593	0.100029
H111	H	0.036979	-0.817606	0.058041
H112	H	0.251956	-0.670415	0.000031
H113	H	0.241323	-0.522084	0.000049
O114	O	0.219596	-0.838851	0.614374
C115	C	0.262952	-0.883188	0.561850
H116	H	0.238056	-0.945271	0.548235
H117	H	0.269628	-0.853469	0.498002
H118	H	0.316229	-0.886679	0.596838
H119	H	0.242891	-0.810642	0.378543
O120	O	0.067674	-1.021147	0.206611
C121	C	0.020148	-0.981788	0.154150
H122	H	0.043982	-0.921015	0.140526
H123	H	0.008365	-1.017589	0.090303
H124	H	-0.030331	-0.974932	0.189198
