data_functionalizedCrystal
_audit_creation_method	'MofGen! by Chris Wilmer'
_symmetry_space_group_name_H-M	'P1'
_symmetry_Int_Tables_number	1
_symmetry_cell_setting	triclinic
loop_
_symmetry_equiv_pos_as_xyz
  x,y,z
_cell_length_a	16.120530
_cell_length_b	19.121063
_cell_length_c	16.120297
_cell_angle_alpha	84.820568
_cell_angle_beta	89.871860
_cell_angle_gamma	89.687057
loop_
_atom_site_label
_atom_site_type_symbol
_atom_site_fract_x
_atom_site_fract_y
_atom_site_fract_z
Zn1	Zn	1.228532	-0.355748	0.551587
Zn2	Zn	1.229542	-0.467532	0.417878
Zn3	Zn	1.097153	-0.343883	0.404937
Zn4	Zn	1.083532	-0.466885	0.549816
O5	O	1.159690	-0.408512	0.481054
O6	O	1.344754	-0.375813	0.540007
O7	O	1.218103	-0.446434	0.299571
O8	O	1.119859	-0.247198	0.419716
O9	O	1.345496	-0.457940	0.441771
O10	O	1.216382	-0.255916	0.527458
O11	O	1.120838	-0.355590	0.290063
O12	O	0.979258	-0.354963	0.417999
O13	O	1.096644	-0.456838	0.666641
O14	O	0.969251	-0.445332	0.524441
O15	O	1.203175	-0.375186	0.667942
O16	O	1.204895	-0.565705	0.440054
O17	O	1.097623	-0.565230	0.536989
C18	C	0.944155	-0.398790	0.469624
C19	C	0.851946	-0.394649	0.464754
C20	C	0.683119	-0.387072	0.455870
C21	C	0.637096	-0.430006	0.506302
C22	C	0.543155	-0.425790	0.501358
C23	C	0.777068	-0.391287	0.460812
C24	C	1.149912	-0.590946	0.489753
C25	C	1.145804	-0.668997	0.493506
C26	C	1.199763	-0.705893	0.444847
C27	C	1.195904	-0.779230	0.448382
C28	C	1.138080	-0.815670	0.500573
C29	C	1.084118	-0.778769	0.549237
C30	C	1.087982	-0.705433	0.545706
C31	C	1.123621	-1.037085	0.513761
C32	C	1.119760	-1.110426	0.517287
C33	C	1.231547	-1.110882	0.416433
C34	C	1.235403	-1.037545	0.412903
C35	C	1.181443	-1.000650	0.461570
C36	C	1.134132	-0.890632	0.504185
C37	C	1.185396	-0.925690	0.457962
C38	C	1.376067	-0.418272	0.492530
C39	C	1.468274	-0.422431	0.497420
C40	C	1.148278	-0.417263	0.698367
C41	C	1.143414	-0.420993	0.790973
C42	C	1.169527	-0.225367	0.472341
C43	C	1.173720	-0.147322	0.468628
C44	C	1.171108	-0.399746	0.264587
C45	C	1.176143	-0.395826	0.171981
C46	C	1.134506	-0.427785	0.960523
C47	C	1.185049	-0.389036	1.002436
C48	C	1.180092	-0.392815	1.096780
C49	C	1.139461	-0.424006	0.866171
H50	H	1.246846	-0.676228	0.402345
H51	H	0.651970	-0.347152	0.408986
O52	O	1.078562	-0.470830	1.002282
C53	C	1.120773	-0.520271	1.057311
H54	H	1.187229	-0.526518	1.034697
H55	H	1.121406	-0.501275	1.122337
C56	C	0.994634	-0.583827	1.087901
C57	C	1.076254	-0.591505	1.060123
H58	H	0.967172	-0.627767	1.089640
H59	H	0.966194	-0.550516	1.050830
H60	H	0.995173	-0.567994	1.142088
H61	H	1.075714	-0.607328	1.005934
H62	H	1.104693	-0.624820	1.097185
H63	H	1.232042	-0.353024	0.967466
O64	O	0.674117	-0.477661	0.562308
C65	C	0.612824	-0.516769	0.608209
H66	H	0.552411	-0.485411	0.606599
H67	H	0.602387	-0.568416	0.579654
C68	C	0.715776	-0.570595	0.701078
C69	C	0.641578	-0.532078	0.699106
H70	H	0.733513	-0.580042	0.757146
H71	H	0.757071	-0.544250	0.670151
H72	H	0.707068	-0.613630	0.677277
H73	H	0.650288	-0.489041	0.722896
H74	H	0.600284	-0.558417	0.730038
O75	O	1.248354	-0.814960	0.401030
C76	C	1.300229	-0.767073	0.354220
H77	H	1.269155	-0.713175	0.346991
H78	H	1.362020	-0.763284	0.387738
C79	C	1.353564	-0.858889	0.276450
C80	C	1.315396	-0.792691	0.267566
H81	H	1.362924	-0.874692	0.223000
H82	H	1.318618	-0.891152	0.307989
H83	H	1.405053	-0.855722	0.304386
H84	H	1.263904	-0.795860	0.239641
H85	H	1.350334	-0.760429	0.236021
H86	H	1.282487	-1.007877	0.370405
O87	O	1.283933	-1.146833	0.369254
C88	C	1.268116	-1.219374	0.383546
H89	H	1.236983	-1.230747	0.446855
H90	H	1.225487	-1.236259	0.332749
C91	C	1.388719	-1.246473	0.304499
C92	C	1.350486	-1.260442	0.382260
H93	H	1.439527	-1.271807	0.303702
H94	H	1.399373	-1.197601	0.294867
H95	H	1.353186	-1.260544	0.262176
H96	H	1.386014	-1.246364	0.424579
H97	H	1.339839	-1.309313	0.391899
H98	H	1.072682	-1.140094	0.559802
O99	O	1.071111	-1.001357	0.561050
C100	C	1.019256	-1.049249	0.607877
H101	H	1.015461	-1.100038	0.576116
H102	H	1.045840	-1.060917	0.673166
C103	C	0.936488	-0.954814	0.652750
C104	C	0.931822	-1.017192	0.613736
H105	H	0.882556	-0.935040	0.656368
H106	H	0.971426	-0.922548	0.621204
H107	H	0.958645	-0.964546	0.707153
H108	H	0.909675	-1.007458	0.559330
H109	H	0.896879	-1.049456	0.645273
O110	O	1.027925	-0.814057	0.600009
C111	C	0.981114	-0.765762	0.642185
H112	H	1.017694	-0.715110	0.644381
H113	H	0.920146	-0.753949	0.607913
C114	C	0.917997	-0.859600	0.728892
C115	C	0.962928	-0.797390	0.731594
H116	H	0.906775	-0.879110	0.784042
H117	H	0.949531	-0.892138	0.700475
H118	H	0.867195	-0.849748	0.700327
H119	H	1.013733	-0.807245	0.760149
H120	H	0.931402	-0.764854	0.760018
O121	O	1.035682	-0.669566	0.593065
C122	C	1.082284	-0.631375	0.647356
H123	H	1.146181	-0.656584	0.657080
H124	H	1.089446	-0.574896	0.619075
C125	C	0.958724	-0.600938	0.719787
C126	C	1.037200	-0.631904	0.731736
H127	H	0.930913	-0.601260	0.771835
H128	H	0.927326	-0.626665	0.683209
H129	H	0.964703	-0.553875	0.696217
H130	H	1.031220	-0.678968	0.755296
H131	H	1.068596	-0.606184	0.768320
H132	H	1.087051	-0.920309	0.546677
H133	H	1.232479	-0.896019	0.415471
