data_functionalizedCrystal
_audit_creation_method	'MofGen! by Chris Wilmer'
_symmetry_space_group_name_H-M	'P1'
_symmetry_Int_Tables_number	1
_symmetry_cell_setting	triclinic
loop_
_symmetry_equiv_pos_as_xyz
  x,y,z
_cell_length_a	13.033293
_cell_length_b	25.639233
_cell_length_c	13.031981
_cell_angle_alpha	82.799365
_cell_angle_beta	103.320033
_cell_angle_gamma	82.795700
loop_
_atom_site_label
_atom_site_type_symbol
_atom_site_fract_x
_atom_site_fract_y
_atom_site_fract_z
Zn1	Zn	1.570126	-0.381768	-0.217037
Zn2	Zn	1.547495	-0.281601	-0.394661
Zn3	Zn	1.392521	-0.281608	-0.239567
Zn4	Zn	1.369937	-0.356272	-0.417161
O5	O	1.470020	-0.325312	-0.317106
O6	O	1.715760	-0.379147	-0.221754
O7	O	1.526917	-0.208435	-0.374100
O8	O	1.435003	-0.305567	-0.087918
O9	O	1.699133	-0.305556	-0.352253
O10	O	1.565488	-0.379154	-0.071365
O11	O	1.413059	-0.208440	-0.260152
O12	O	1.240889	-0.280845	-0.281970
O13	O	1.396512	-0.432822	-0.390602
O14	O	1.224296	-0.335701	-0.412448
O15	O	1.543590	-0.451553	-0.243571
O16	O	1.505019	-0.280834	-0.546306
O17	O	1.374568	-0.335695	-0.562837
C18	C	1.194053	-0.305508	-0.352096
C19	C	1.075990	-0.297046	-0.367091
C20	C	1.031567	-0.329727	-0.309307
C21	C	0.909543	-0.320982	-0.324803
C22	C	1.470056	-0.461689	-0.317083
C23	C	1.470072	-0.519805	-0.317074
C24	C	1.546767	-0.889948	-0.240302
C25	C	1.546784	-0.944555	-0.240271
O26	O	1.611891	-0.981092	-0.175133
N27	N	1.470220	-0.962114	-0.316810
C28	C	1.393629	-0.925062	-0.393378
O29	O	1.328507	-0.945011	-0.458477
C30	C	1.393608	-0.870455	-0.393403
C31	C	1.470183	-0.852900	-0.316866
C32	C	1.623335	-0.872392	-0.163770
C33	C	1.623319	-0.817788	-0.163803
C34	C	1.546735	-0.780740	-0.240367
C35	C	1.470167	-0.798297	-0.316899
C36	C	1.317013	-0.833404	-0.469966
C37	C	1.316998	-0.778795	-0.469984
C38	C	1.393573	-0.761240	-0.393447
C39	C	1.393567	-0.706645	-0.393496
N40	N	1.470131	-0.689087	-0.316957
C41	C	1.546714	-0.726134	-0.240393
C42	C	1.393677	-1.039739	-0.393317
C43	C	1.393701	-1.094344	-0.393298
C44	C	1.546855	-1.113834	-0.240189
C45	C	1.546835	-1.059228	-0.240214
C46	C	1.470240	-1.022181	-0.316779
C47	C	1.546676	-0.611462	-0.240467
C48	C	1.546656	-0.556852	-0.240509
C49	C	1.393499	-0.537368	-0.393614
C50	C	1.393522	-0.591972	-0.393576
C51	C	1.470115	-0.629019	-0.316993
O52	O	1.328491	-0.670078	-0.458598
O53	O	1.611817	-0.706177	-0.175296
C54	C	1.747064	-0.345195	-0.281980
C55	C	1.865124	-0.353667	-0.267012
C56	C	1.434916	-0.305511	-0.593114
C57	C	1.419995	-0.297064	-0.711178
C58	C	1.470054	-0.189476	-0.317045
C59	C	1.470282	-0.131397	-0.316729
C60	C	1.477863	-0.329735	-0.755548
C61	C	1.462444	-0.321006	-0.877574
C62	C	1.505289	-0.345205	-0.040018
C63	C	1.520319	-0.353682	0.078061
H64	H	1.083874	-0.364179	-0.248361
Br65	Br	0.952289	-0.411093	-0.165415
H66	H	1.538818	-0.364171	-0.703197
H67	H	1.609042	-0.641620	-0.178104
Br68	Br	1.213039	-0.728519	-0.573896
H69	H	1.401476	-0.286572	-0.929924
H70	H	1.685672	-0.803500	-0.101477
Br71	Br	1.621927	-0.411081	-0.834697
Br72	Br	1.318381	-0.239673	-0.798428
Br73	Br	1.213088	-0.857215	-0.573850
Br74	Br	1.650761	-1.035409	-0.136339
Br75	Br	1.650589	-0.533031	-0.136634
Br76	Br	1.289567	-0.487079	-0.497516
Br77	Br	0.822377	-0.263548	-0.426378
H78	H	1.685699	-0.902552	-0.101417
Br79	Br	0.988821	-0.239614	-0.468662
Br80	Br	1.289723	-0.989465	-0.497242
H81	H	1.331356	-1.108632	-0.455632
Br82	Br	1.650791	-1.164124	-0.136279
H83	H	1.331177	-0.606266	-0.455907
