data_functionalizedCrystal
_audit_creation_method	'MofGen! by Chris Wilmer'
_symmetry_space_group_name_H-M	'P1'
_symmetry_Int_Tables_number	1
_symmetry_cell_setting	triclinic
loop_
_symmetry_equiv_pos_as_xyz
  x,y,z
_cell_length_a	19.805407
_cell_length_b	19.121063
_cell_length_c	19.805399
_cell_angle_alpha	92.411105
_cell_angle_beta	89.982197
_cell_angle_gamma	92.466276
loop_
_atom_site_label
_atom_site_type_symbol
_atom_site_fract_x
_atom_site_fract_y
_atom_site_fract_z
Zn1	Zn	1.023232	-0.279680	-0.394173
Zn2	Zn	1.018315	-0.397133	-0.285808
Zn3	Zn	0.910046	-0.279694	-0.281002
Zn4	Zn	0.905180	-0.397090	-0.398957
O5	O	0.964193	-0.338399	-0.339985
O6	O	1.117296	-0.295273	-0.379808
O7	O	1.003932	-0.381578	-0.190455
O8	O	0.929154	-0.181408	-0.292001
O9	O	1.113684	-0.381564	-0.300193
O10	O	1.012311	-0.181398	-0.375147
O11	O	0.924387	-0.295296	-0.186924
O12	O	0.814684	-0.295255	-0.296639
O13	O	0.920862	-0.381491	-0.493038
O14	O	0.811110	-0.381505	-0.383300
O15	O	1.007593	-0.295231	-0.489523
O16	O	0.999214	-0.495411	-0.304831
O17	O	0.916094	-0.495380	-0.387961
C18	C	0.788338	-0.338377	-0.339968
C19	C	0.713106	-0.338385	-0.339977
C20	C	0.679640	-0.293532	-0.381502
C21	C	0.608951	-0.293536	-0.381505
C22	C	0.571730	-0.338396	-0.339986
C23	C	0.605201	-0.383251	-0.298456
C24	C	0.675888	-0.383243	-0.298450
C25	C	0.320126	-0.383282	-0.298478
C26	C	0.249434	-0.383288	-0.298489
C27	C	0.253189	-0.293575	-0.381532
C28	C	0.323877	-0.293567	-0.381527
C29	C	0.357342	-0.338419	-0.339995
C30	C	0.433990	-0.338414	-0.339991
C31	C	0.495082	-0.338406	-0.339992
C32	C	0.956611	-0.520880	-0.347452
C33	C	0.953430	-0.598946	-0.350668
C34	C	0.995244	-0.635614	-0.308934
C35	C	0.992256	-0.708966	-0.311964
C36	C	0.947449	-0.745647	-0.356724
C37	C	0.905632	-0.708973	-0.398463
C38	C	0.908625	-0.635623	-0.395436
C39	C	0.936251	-0.967116	-0.368029
C40	C	0.933260	-1.040472	-0.371051
C41	C	1.019885	-1.040459	-0.284552
C42	C	1.022870	-0.967108	-0.281527
C43	C	0.981056	-0.930440	-0.323268
C44	C	0.944392	-0.820624	-0.359820
C45	C	0.984117	-0.855465	-0.320175
C46	C	1.140735	-0.338422	-0.340003
C47	C	1.215967	-0.338431	-0.340011
C48	C	0.964233	-0.338355	-0.516526
C49	C	0.964250	-0.338336	-0.591757
C50	C	0.971823	-0.155206	-0.332504
C51	C	0.975075	-0.077140	-0.329316
C52	C	1.009412	-0.293418	-0.625272
C53	C	1.009420	-0.293398	-0.695960
C54	C	0.964268	-0.338299	-0.733131
C55	C	0.919101	-0.383219	-0.699611
C56	C	0.919091	-0.383236	-0.628925
C57	C	0.919142	-0.383154	-0.984682
C58	C	0.919158	-0.383136	-1.055374
C59	C	1.009472	-0.293316	-1.051717
C60	C	1.009461	-0.293332	-0.981031
C61	C	0.964292	-0.338249	-0.947517
C62	C	0.964283	-0.338270	-0.870869
C63	C	0.964280	-0.338283	-0.809778
C64	C	0.964195	-0.338393	-0.164129
C65	C	0.964317	-0.338214	-0.088890
H66	H	0.574890	-0.419773	-0.264647
H67	H	0.709941	-0.257003	-0.415313
O68	O	0.359931	-0.249923	-0.421877
C69	C	0.315234	-0.210346	-0.458541
H70	H	0.264936	-0.207883	-0.430726
H71	H	0.306669	-0.236135	-0.510963
C72	C	0.407699	-0.138632	-0.499513
C73	C	0.345924	-0.135601	-0.465347
H74	H	0.426631	-0.092526	-0.503715
H75	H	0.437813	-0.165297	-0.474814
H76	H	0.400554	-0.160125	-0.543194
H77	H	0.353072	-0.114116	-0.421664
H78	H	0.315812	-0.108930	-0.490040
O79	O	1.060483	-1.076187	-0.244084
C80	C	1.048227	-1.148793	-0.256341
H81	H	1.025613	-1.158792	-0.308965
H82	H	1.011364	-1.169669	-0.217017
C83	C	1.142960	-1.174114	-0.187131
C84	C	1.115190	-1.186396	-0.251767
H85	H	1.184265	-1.197311	-0.184306
H86	H	1.151216	-1.125198	-0.178871
H87	H	1.112234	-1.191512	-0.154368
H88	H	1.145912	-1.168991	-0.284528
H89	H	1.106941	-1.235310	-0.260032
O90	O	0.889810	-1.076076	-0.414632
C91	C	0.905290	-1.058087	-0.481363
H92	H	0.960184	-1.037874	-0.483992
H93	H	0.870726	-1.015533	-0.497275
C94	C	0.827318	-1.148053	-0.525979
C95	C	0.894741	-1.123233	-0.529209
H96	H	0.820808	-1.188237	-0.555494
H97	H	0.816886	-1.160171	-0.481021
H98	H	0.798522	-1.112585	-0.539238
H99	H	0.923535	-1.158698	-0.515942
H100	H	0.905178	-1.111122	-0.574166
O101	O	1.038807	-0.599909	-0.265543
C102	C	1.084245	-0.557431	-0.302365
H103	H	1.060791	-0.546422	-0.353182
H104	H	1.133248	-0.585655	-0.311013
C105	C	1.128171	-0.501295	-0.199844
C106	C	1.099363	-0.487769	-0.262257
H107	H	1.137500	-0.458326	-0.175103
H108	H	1.097561	-0.529915	-0.175036
H109	H	1.169004	-0.524817	-0.207059
H110	H	1.058528	-0.464256	-0.255040
H111	H	1.129967	-0.459144	-0.287063
O112	O	1.032899	-0.744477	-0.271353
C113	C	1.073096	-0.696372	-0.231206
H114	H	1.047504	-0.644111	-0.226682
H115	H	1.124809	-0.688510	-0.255710
C116	C	1.113154	-0.789231	-0.165915
C117	C	1.081718	-0.725044	-0.160355
H118	H	1.118476	-0.806917	-0.122212
H119	H	1.086075	-0.821640	-0.192965
H120	H	1.156245	-0.782670	-0.186339
H121	H	1.038625	-0.731606	-0.139940
H122	H	1.108791	-0.692636	-0.133301
H123	H	0.902203	-0.937268	-0.402015
H124	H	0.225934	-0.257052	-0.415347
O125	O	0.708292	-0.426882	-0.258097
C126	C	0.660284	-0.466468	-0.221441
H127	H	0.609804	-0.468943	-0.249266
H128	H	0.653814	-0.440679	-0.169021
C129	C	0.746772	-0.538162	-0.180449
C130	C	0.684773	-0.541207	-0.214627
H131	H	0.761879	-0.584264	-0.176243
H132	H	0.779117	-0.511491	-0.205143
H133	H	0.741373	-0.516669	-0.136770
H134	H	0.690175	-0.562692	-0.258308
H135	H	0.652430	-0.567884	-0.189941
O136	O	0.868104	-0.599968	-0.436046
C137	C	0.908350	-0.557467	-0.478031
H138	H	0.960755	-0.579529	-0.483168
H139	H	0.912964	-0.501889	-0.454812
C140	C	0.810927	-0.529216	-0.542008
C141	C	0.875290	-0.556317	-0.548322
H142	H	0.790533	-0.528503	-0.585366
H143	H	0.783811	-0.557847	-0.513721
H144	H	0.814780	-0.482904	-0.522656
H145	H	0.871435	-0.602631	-0.567666
H146	H	0.902404	-0.527693	-0.576614
H147	H	1.046230	-0.256771	-0.950769
H148	H	0.882372	-0.419738	-0.957404
O149	O	1.066462	-0.931586	-0.238035
C150	C	1.102719	-0.979681	-0.201837
H151	H	1.102911	-1.031947	-0.231717
H152	H	1.077648	-0.987534	-0.150731
C153	C	1.175698	-0.886809	-0.154274
C154	C	1.175938	-0.951002	-0.190975
H155	H	1.220862	-0.869119	-0.147571
H156	H	1.151269	-0.854406	-0.178659
H157	H	1.154802	-0.893362	-0.111689
H158	H	1.196826	-0.944447	-0.233562
H159	H	1.200372	-0.983404	-0.166598
H160	H	0.882387	-0.419701	-1.085637
H161	H	0.869152	-0.738845	-0.434911
O162	O	0.900938	-0.856227	-0.403392
C163	C	0.916407	-0.838235	-0.470123
H164	H	0.971299	-0.818018	-0.472760
H165	H	0.881837	-0.795682	-0.486029
C166	C	0.838434	-0.928204	-0.514732
C167	C	0.905855	-0.903379	-0.517971
H168	H	0.831922	-0.968387	-0.544248
H169	H	0.828010	-0.940325	-0.469774
H170	H	0.809634	-0.892737	-0.527985
H171	H	0.934653	-0.938842	-0.504710
H172	H	0.916284	-0.891266	-0.562929
H173	H	0.581706	-0.257014	-0.415320
H174	H	1.020602	-0.825597	-0.283733
O175	O	1.053298	-0.249734	-0.589269
C176	C	1.093171	-0.210096	-0.634013
H177	H	1.065556	-0.207650	-0.684296
H178	H	1.143507	-0.235820	-0.642590
C179	C	1.139953	-0.138356	-0.541618
C180	C	1.106033	-0.135347	-0.603375
H181	H	1.147890	-0.092248	-0.522720
H182	H	1.113092	-0.165062	-0.511473
H183	H	1.181896	-0.159796	-0.548775
H184	H	1.064088	-0.113916	-0.596217
H185	H	1.132887	-0.108636	-0.633519
H186	H	1.046197	-0.256823	-0.723245
H187	H	1.046248	-0.256740	-1.079013
H188	H	0.882336	-0.419776	-0.729882
H189	H	0.219130	-0.419821	-0.264677
H190	H	0.347365	-0.419804	-0.264661
H191	H	0.882308	-0.419805	-0.601638
