data_functionalizedCrystal
_audit_creation_method	'MofGen! by Chris Wilmer'
_symmetry_space_group_name_H-M	'P1'
_symmetry_Int_Tables_number	1
_symmetry_cell_setting	triclinic
loop_
_symmetry_equiv_pos_as_xyz
  x,y,z
_cell_length_a	27.732048
_cell_length_b	27.732048
_cell_length_c	13.448316
_cell_angle_alpha	89.988441
_cell_angle_beta	89.998727
_cell_angle_gamma	82.642655
loop_
_atom_site_label
_atom_site_type_symbol
_atom_site_fract_x
_atom_site_fract_y
_atom_site_fract_z
O1	O	0.640929	0.057518	-0.082574
O2	O	0.500135	0.066264	-0.082606
O3	O	0.574905	-0.008506	-0.082570
O4	O	0.566159	0.132288	-0.082610
O5	O	0.574895	-0.008510	0.082814
O6	O	0.500126	0.066259	0.082778
O7	O	0.640919	0.057514	0.082810
Cu8	Cu	0.570522	0.061886	0.097895
Cu9	Cu	0.570533	0.061891	-0.097691
O10	O	0.566150	0.132283	0.082774
C11	C	0.482124	0.066078	0.000082
C12	C	0.428469	0.065525	0.000071
C13	C	0.089654	0.106229	0.000103
C14	C	-0.112006	0.104178	0.000112
O15	O	-0.143262	0.141398	0.000145
N16	N	-0.131130	0.059843	0.000123
C17	C	-0.099835	0.016017	0.000138
O18	O	-0.120728	-0.021740	0.000157
C19	C	0.101824	0.018068	0.000135
C20	C	0.120944	0.062407	0.000115
C21	C	0.108775	0.150563	0.000083
C22	C	0.159187	0.151075	0.000075
C23	C	0.190477	0.107253	0.000087
C24	C	0.171356	0.062919	0.000107
C25	C	0.133117	-0.025757	0.000157
C26	C	0.183535	-0.025240	0.000159
C27	C	0.202655	0.019098	0.000139
C28	C	0.253059	0.019609	0.000111
N29	N	0.272183	0.063944	0.000100
C30	C	0.240892	0.107766	0.000088
C31	C	-0.205709	0.014943	0.000137
C32	C	-0.256124	0.014430	0.000136
C33	C	-0.268291	0.102591	0.000112
C34	C	-0.217876	0.103104	0.000106
C35	C	-0.186585	0.059278	0.000126
C36	C	0.346761	0.108839	0.000071
C37	C	0.397178	0.109347	0.000059
C38	C	0.409341	0.021186	0.000088
C39	C	0.358929	0.020678	0.000095
C40	C	0.327639	0.064508	0.000090
O41	O	0.284343	-0.017592	0.000090
O42	O	0.261794	0.145518	0.000091
C43	C	0.039242	0.105716	0.000110
C44	C	0.020120	0.061382	0.000130
C45	C	0.051411	0.017560	0.000142
C46	C	-0.030294	0.060869	0.000129
C47	C	-0.061585	0.104691	0.000117
C48	C	-0.042461	0.149026	0.000106
C49	C	0.007951	0.149539	0.000098
C50	C	0.032287	-0.026775	0.000153
C51	C	-0.018125	-0.027284	0.000159
C52	C	-0.049416	0.016538	0.000148
C53	C	0.574716	-0.026515	0.000124
C54	C	0.574164	-0.080170	0.000132
C55	C	0.614867	-0.418985	0.000091
C56	C	0.612816	-0.620645	0.000076
O57	O	0.650037	-0.651900	0.000041
N58	N	0.568481	-0.639768	0.000067
C59	C	0.524656	-0.608474	0.000055
O60	O	0.486899	-0.629367	0.000037
C61	C	0.526707	-0.406815	0.000062
C62	C	0.571045	-0.387694	0.000082
C63	C	0.659202	-0.399864	0.000109
C64	C	0.659714	-0.349452	0.000118
C65	C	0.615892	-0.318161	0.000109
C66	C	0.571557	-0.337282	0.000091
C67	C	0.482882	-0.375521	0.000043
C68	C	0.483399	-0.325104	0.000043
C69	C	0.527737	-0.305983	0.000062
C70	C	0.528247	-0.255580	0.000091
N71	N	0.572583	-0.236456	0.000100
C72	C	0.616405	-0.267747	0.000109
C73	C	0.523582	-0.714348	0.000053
C74	C	0.523069	-0.764762	0.000053
C75	C	0.611230	-0.776930	0.000073
C76	C	0.611742	-0.726514	0.000080
C77	C	0.567917	-0.695224	0.000062
C78	C	0.617477	-0.161878	0.000128
C79	C	0.617986	-0.111461	0.000141
C80	C	0.529825	-0.099298	0.000117
C81	C	0.529316	-0.149710	0.000109
C82	C	0.573147	-0.180999	0.000111
O83	O	0.491047	-0.224296	0.000115
O84	O	0.654156	-0.246844	0.000105
C85	C	0.614355	-0.469397	0.000082
C86	C	0.570021	-0.488518	0.000064
C87	C	0.526198	-0.457228	0.000055
C88	C	0.569508	-0.538933	0.000064
C89	C	0.613330	-0.570223	0.000073
C90	C	0.657665	-0.551100	0.000082
C91	C	0.658177	-0.500688	0.000091
C92	C	0.481863	-0.476351	0.000046
C93	C	0.481355	-0.526764	0.000038
C94	C	0.525177	-0.558054	0.000047
C95	C	0.658931	0.057699	0.000119
C96	C	0.712586	0.058252	0.000124
C97	C	0.566338	0.150292	0.000077
C98	C	0.566891	0.203947	0.000062
N99	N	0.570518	0.061882	0.235459
N100	N	0.570541	0.061891	-0.235255
C101	C	0.603636	0.028787	0.287515
C102	C	0.603639	0.028787	0.391618
C103	C	0.570525	0.061884	0.443663
C104	C	0.537404	0.094980	0.391600
C105	C	0.537399	0.094978	0.287499
C106	C	0.537417	0.094983	0.608580
C107	C	0.537423	0.094986	0.712689
C108	C	0.603657	0.028792	0.712700
C109	C	0.603652	0.028790	0.608598
C110	C	0.570531	0.061887	0.556542
H111	H	0.174750	0.187180	0.000058
F112	F	0.417524	0.156540	0.000034
H113	H	0.510458	0.121936	0.755059
F114	F	0.657869	-0.810240	0.000080
F115	F	0.705848	-0.433159	0.000117
H116	H	0.630602	0.001838	0.245147
F117	F	0.502164	0.130208	0.553182
H118	H	0.486964	-0.780325	0.000055
F119	F	-0.172413	-0.031705	0.000158
F120	F	0.502149	0.130200	0.232098
H121	H	0.209009	-0.060929	0.000177
F122	F	0.313468	0.155488	0.000066
F123	F	0.706905	-0.329109	0.000116
F124	F	0.704304	-0.584410	0.000096
H125	H	0.083302	0.186251	0.000077
F126	F	0.476933	-0.681052	0.000035
H127	H	-0.202311	0.139207	0.000095
F128	F	-0.301601	0.149230	0.000100
H129	H	0.447710	-0.299629	0.000027
F130	F	-0.276468	-0.032761	0.000136
H131	H	0.446777	-0.391080	0.000022
F132	F	0.658932	-0.706169	0.000100
F133	F	0.112779	-0.072948	0.000166
F134	F	0.482127	-0.170060	0.000107
H135	H	-0.067947	0.184708	0.000092
F136	F	0.338578	-0.026511	0.000118
H137	H	0.494146	-0.073812	0.000113
H138	H	0.630617	0.001843	0.566223
H139	H	0.445246	-0.542327	0.000031
H140	H	0.434827	-0.014492	0.000094
F141	F	0.705368	-0.480345	0.000105
F142	F	0.028294	0.196730	0.000076
H143	H	0.630605	0.001839	0.434002
F144	F	0.665178	-0.091114	0.000161
F145	F	0.638907	-0.006431	0.768106
F146	F	0.435219	-0.443055	0.000033
H147	H	0.510440	0.121926	0.433981
H148	H	-0.033688	-0.063392	0.000169
H149	H	0.057760	-0.062462	0.000165
H150	H	0.653168	-0.187348	0.000126
