data_functionalizedCrystal
_audit_creation_method	'MofGen! by Chris Wilmer'
_symmetry_space_group_name_H-M	'P1'
_symmetry_Int_Tables_number	1
_symmetry_cell_setting	triclinic
loop_
_symmetry_equiv_pos_as_xyz
  x,y,z
_cell_length_a	19.121102
_cell_length_b	19.121063
_cell_length_c	19.121278
_cell_angle_alpha	89.864274
_cell_angle_beta	89.881378
_cell_angle_gamma	90.126902
loop_
_atom_site_label
_atom_site_type_symbol
_atom_site_fract_x
_atom_site_fract_y
_atom_site_fract_z
Zn1	Zn	1.041308	-0.304728	-0.454471
Zn2	Zn	1.040794	-0.426950	-0.342206
Zn3	Zn	0.929056	-0.305167	-0.332271
Zn4	Zn	0.919052	-0.416939	-0.454003
O5	O	0.982553	-0.363446	-0.395738
O6	O	1.139167	-0.324947	-0.443933
O7	O	1.029944	-0.415169	-0.242959
O8	O	0.948348	-0.207181	-0.344519
O9	O	1.138790	-0.414743	-0.361452
O10	O	1.030819	-0.206859	-0.434299
O11	O	0.947850	-0.325695	-0.235659
O12	O	0.829801	-0.315988	-0.344065
O13	O	0.931298	-0.397681	-0.551994
O14	O	0.822452	-0.398106	-0.433501
O15	O	1.021119	-0.315240	-0.552338
O16	O	1.020243	-0.523550	-0.360998
O17	O	0.930800	-0.516195	-0.443135
C18	C	0.800735	-0.356009	-0.387654
C19	C	0.722951	-0.352843	-0.384214
C20	C	0.682600	-0.394181	-0.429094
C21	C	0.609514	-0.391197	-0.425864
C22	C	0.576781	-0.346879	-0.377750
C23	C	0.617138	-0.305536	-0.332867
C24	C	0.690222	-0.308516	-0.336101
C25	C	0.356304	-0.335733	-0.365663
C26	C	0.283214	-0.332757	-0.362431
C27	C	0.275595	-0.418418	-0.455429
C28	C	0.348681	-0.421398	-0.458656
C29	C	0.389032	-0.380052	-0.413776
C30	C	0.502076	-0.343829	-0.374446
C31	C	0.463736	-0.383099	-0.417084
C32	C	0.974399	-0.545264	-0.403110
C33	C	0.970973	-0.623048	-0.406290
C34	C	1.015966	-0.663397	-0.365058
C35	C	1.012748	-0.736483	-0.368053
C36	C	0.964535	-0.769219	-0.412277
C37	C	0.919540	-0.728864	-0.453513
C38	C	0.922761	-0.655780	-0.450521
C39	C	0.952480	-0.989697	-0.423451
C40	C	0.949260	-1.062787	-0.426438
C41	C	1.042470	-1.070401	-0.340979
C42	C	1.045684	-0.997314	-0.337988
C43	C	1.000692	-0.956966	-0.379227
C44	C	0.961243	-0.843924	-0.415337
C45	C	1.003988	-0.882262	-0.376169
C46	C	1.165080	-0.370913	-0.403853
C47	C	1.242862	-0.374095	-0.407311
C48	C	0.975150	-0.355295	-0.578268
C49	C	0.971995	-0.351821	-0.656052
C50	C	0.990757	-0.180918	-0.388353
C51	C	0.994253	-0.103136	-0.385206
C52	C	0.952011	-0.329846	-1.095791
C53	C	0.954979	-0.333107	-1.022705
C54	C	0.999200	-0.381325	-0.989961
C55	C	1.040462	-0.426280	-1.030308
C56	C	1.037498	-0.423015	-1.103392
C57	C	1.010292	-0.393511	-0.769483
C58	C	1.013252	-0.396775	-0.696393
C59	C	0.927769	-0.303600	-0.688795
C60	C	0.924806	-0.300342	-0.761881
C61	C	0.966070	-0.345294	-0.802221
C62	C	1.002233	-0.384661	-0.915256
C63	C	0.963041	-0.341954	-0.876926
C64	C	0.989969	-0.371517	-0.213917
C65	C	0.993268	-0.374799	-0.136132
H66	H	0.256565	-0.296659	-0.323254
H67	H	0.709245	-0.430273	-0.468272
H68	H	0.880286	-0.755524	-0.489524
H69	H	0.576663	-0.424860	-0.462410
H70	H	1.071095	-0.459620	-1.136238
Cl71	Cl	1.106308	-0.956166	-0.282400
H72	H	1.049386	-0.769332	-0.334477
Cl73	Cl	1.096061	-0.486893	-0.989145
Cl74	Cl	0.224865	-0.470393	-0.511845
Cl75	Cl	0.389826	-0.477117	-0.519143
Cl76	Cl	0.407020	-0.283753	-0.309243
H77	H	1.055224	-0.636749	-0.329043
Cl78	Cl	1.099032	-1.121128	-0.289143
H79	H	1.043246	-0.855606	-0.340165
Cl80	Cl	0.900632	-0.885084	-0.470930
H81	H	0.910007	-1.089438	-0.462463
Cl82	Cl	0.866199	-0.605055	-0.502360
H83	H	0.475416	-0.307746	-0.335269
Cl84	Cl	0.907452	-0.281337	-0.918090
H85	H	0.915844	-0.956851	-0.457028
H86	H	0.915999	-0.290583	-1.122445
Cl87	Cl	0.575988	-0.249815	-0.272384
Cl88	Cl	1.062159	-0.450032	-0.820187
H89	H	1.038237	-0.423922	-0.888588
H90	H	0.888793	-0.261080	-0.788536
Cl91	Cl	0.740950	-0.256544	-0.279679
H92	H	0.490390	-0.419180	-0.456261
Cl93	Cl	0.903111	-0.276590	-0.971993
Cl94	Cl	0.875907	-0.247082	-0.638078
H95	H	1.049279	-0.436028	-0.669736
