data_functionalizedCrystal
_audit_creation_method	'MofGen! by Chris Wilmer'
_symmetry_space_group_name_H-M	'P1'
_symmetry_Int_Tables_number	1
_symmetry_cell_setting	triclinic
loop_
_symmetry_equiv_pos_as_xyz
  x,y,z
_cell_length_a	11.026607
_cell_length_b	10.723024
_cell_length_c	10.065875
_cell_angle_alpha	98.874314
_cell_angle_beta	79.302338
_cell_angle_gamma	96.526943
loop_
_atom_site_label
_atom_site_type_symbol
_atom_site_fract_x
_atom_site_fract_y
_atom_site_fract_z
O1	O	-1.632157	-0.509126	0.113491
O2	O	-1.278355	-0.449514	0.113493
O3	O	-1.463416	-0.299506	0.113487
O4	O	-1.447095	-0.659134	0.113497
O5	O	-1.428128	-0.328257	-0.113500
O6	O	-1.243067	-0.478265	-0.113494
O7	O	-1.596869	-0.537877	-0.113496
Zn8	Zn	-1.414365	-0.512636	-0.149534
Zn9	Zn	-1.460858	-0.474755	0.149531
O10	O	-1.411808	-0.687885	-0.113490
C11	C	-1.215408	-0.452892	-0.000000
C12	C	-1.080422	-0.420109	0.000001
C13	C	-1.444585	-0.267125	-0.000005
C14	C	-1.441032	-0.127803	-0.000000
C15	C	-1.659816	-0.534498	0.000000
C16	C	-1.794804	-0.567281	0.000008
C17	C	-1.007370	-0.510629	0.000004
C18	C	-0.867854	-0.476748	0.000005
C19	C	-1.430640	-0.720265	0.000005
C20	C	-1.434194	-0.859586	0.000009
N21	N	-1.382644	-0.538490	-0.353639
C22	C	-1.544583	-0.075171	0.000001
C23	C	-1.540913	0.068825	0.000006
C24	C	-1.449814	-0.483741	-0.421420
C25	C	-1.425410	-0.503651	-0.578586
N26	N	-1.492589	-0.448893	0.353636
H27	H	-0.827119	-0.374157	0.000037
O28	O	-1.055854	-0.633031	0.000188
C29	C	-1.035013	-0.677972	0.117767
H30	H	-0.952813	-0.619298	0.156963
H31	H	-1.121063	-0.669444	0.200083
C32	C	-1.108003	-0.889904	0.033920
C33	C	-1.007037	-0.817847	0.082054
H34	H	-1.090752	-0.976187	0.011895
H35	H	-1.122049	-0.859627	-0.045293
H36	H	-1.179702	-0.882783	0.102525
H37	H	-0.935343	-0.824955	0.013444
H38	H	-0.992978	-0.848128	0.161256
H39	H	-1.635953	-0.136716	-0.000008
O40	O	-1.539860	-0.410177	-0.351672
C41	C	-1.486693	-0.308115	-0.269018
H42	H	-1.395333	-0.334038	-0.247801
H43	H	-1.468989	-0.220752	-0.323958
C44	C	-1.688153	-0.247783	-0.159236
C45	C	-1.575948	-0.279627	-0.133167
H46	H	-1.743210	-0.230205	-0.075439
H47	H	-1.723973	-0.316541	-0.214924
H48	H	-1.673383	-0.174985	-0.205022
H49	H	-1.590717	-0.352433	-0.087397
H50	H	-1.540132	-0.210880	-0.077467
H51	H	-1.629560	0.114123	0.000001
O52	O	-1.582474	-0.375042	-0.576793
C53	C	-1.529023	-0.272984	-0.494383
H54	H	-1.437826	-0.299167	-0.472999
H55	H	-1.510951	-0.185802	-0.549620
C56	C	-1.730249	-0.211744	-0.384897
C57	C	-1.618244	-0.243907	-0.358623
H58	H	-1.785286	-0.193802	-0.301157
H59	H	-1.766261	-0.280499	-0.440422
H60	H	-1.715172	-0.139096	-0.430931
H61	H	-1.633320	-0.316562	-0.312606
H62	H	-1.582236	-0.175163	-0.303088
H63	H	-1.345540	0.095122	-0.000001
O64	O	-1.292407	-0.611831	-0.423358
C65	C	-1.203864	-0.538584	-0.506004
H66	H	-1.247939	-0.454175	-0.527259
H67	H	-1.122382	-0.503180	-0.451037
C68	C	-1.103539	-0.724091	-0.615714
C69	C	-1.157676	-0.620424	-0.641830
H70	H	-1.075043	-0.774573	-0.699496
H71	H	-1.163189	-0.773439	-0.560031
H72	H	-1.035645	-0.694572	-0.569905
H73	H	-1.225578	-0.649944	-0.687622
H74	H	-1.098036	-0.571082	-0.697524
O75	O	-0.843270	-0.689693	0.000199
C76	C	-0.822415	-0.734617	0.117781
H77	H	-0.740221	-0.675926	0.156971
H78	H	-0.908465	-0.726098	0.200099
C79	C	-0.895376	-0.946564	0.033951
C80	C	-0.794417	-0.874486	0.082078
H81	H	-0.878111	-1.032843	0.011932
H82	H	-0.909431	-0.916299	-0.045264
H83	H	-0.967075	-0.939451	0.102558
H84	H	-0.722724	-0.881588	0.013466
H85	H	-0.780348	-0.904756	0.161282
H86	H	-1.039681	-0.317525	0.000033
H87	H	-1.349662	-0.066258	0.000009
H88	H	-1.349827	-0.565262	-0.636905
