data_functionalizedCrystal
_audit_creation_method	'MofGen! by Chris Wilmer'
_symmetry_space_group_name_H-M	'P1'
_symmetry_Int_Tables_number	1
_symmetry_cell_setting	triclinic
loop_
_symmetry_equiv_pos_as_xyz
  x,y,z
_cell_length_a	30.711274
_cell_length_b	30.700811
_cell_length_c	30.700862
_cell_angle_alpha	90.002981
_cell_angle_beta	120.003201
_cell_angle_gamma	60.000191
loop_
_atom_site_label
_atom_site_type_symbol
_atom_site_fract_x
_atom_site_fract_y
_atom_site_fract_z
O1	O	-0.384090	-0.298800	-0.012975
O2	O	-0.294923	-0.235460	0.012883
O3	O	-0.384086	-0.235459	-0.076313
O4	O	-0.294928	-0.298801	0.076221
O5	O	-0.311666	-0.307905	-0.076312
O6	O	-0.222503	-0.307906	0.012884
O7	O	-0.311670	-0.371245	-0.012974
Cu8	Cu	-0.260474	-0.346190	-0.000045
Cu9	Cu	-0.346120	-0.260515	-0.000046
O10	O	-0.222507	-0.371246	0.076222
C11	C	-0.071080	-0.031743	0.039175
C12	C	-0.018309	-0.058198	0.039543
C13	C	-0.071078	-0.110620	0.039178
C14	C	-0.018307	-0.136955	0.039546
C15	C	0.007769	-0.110619	0.039175
C16	C	-0.097036	-0.058199	0.039546
C17	C	-0.213077	0.158465	0.024893
C18	C	-0.242107	0.212331	0.020855
C19	C	-0.217191	0.239352	0.018826
C20	C	-0.248671	0.297760	0.014437
C21	C	-0.163242	0.212504	0.020840
C22	C	-0.134212	0.158641	0.024886
C23	C	-0.159132	0.131622	0.026912
C24	C	0.183633	-0.158783	0.024890
C25	C	0.233443	-0.183609	0.020851
C26	C	0.258429	-0.235554	0.018823
C27	C	0.312429	-0.262473	0.014436
C28	C	0.233606	-0.262675	0.020840
C29	C	0.183805	-0.237853	0.024888
C30	C	0.158819	-0.185901	0.026909
C31	C	-0.213070	-0.158788	0.024905
C32	C	-0.242103	-0.183613	0.020863
C33	C	-0.217186	-0.235560	0.018837
C34	C	-0.248663	-0.262479	0.014451
C35	C	-0.163240	-0.262678	0.020849
C36	C	-0.134212	-0.237851	0.024889
C37	C	-0.159129	-0.185906	0.026922
C38	C	-0.127652	0.073217	0.031294
C39	C	-0.102560	0.026662	0.034789
C40	C	-0.102556	-0.137537	0.034795
C41	C	-0.127647	-0.158992	0.031303
C42	C	0.061769	-0.137534	0.034789
C43	C	0.104814	-0.158989	0.031294
C44	C	-0.390646	-0.450786	-0.018869
C45	C	-0.360080	-0.508241	-0.015171
C46	C	-0.364686	-0.424332	-0.019233
C47	C	-0.469495	-0.371910	-0.018869
C48	C	-0.523236	-0.345031	-0.015173
C49	C	-0.443415	-0.345576	-0.019234
C50	C	-0.390642	-0.371911	-0.018863
C51	C	-0.360072	-0.345034	-0.015160
C52	C	-0.443419	-0.424330	-0.019239
C53	C	-0.535518	-0.110283	-0.503951
C54	C	-0.588290	-0.057862	-0.530286
C55	C	-0.535518	-0.110284	-0.425075
C56	C	-0.588289	-0.057863	-0.451530
C57	C	-0.614367	-0.031408	-0.503951
C58	C	-0.509561	-0.136618	-0.451530
C59	C	-0.393523	-0.238047	-0.552116
C60	C	-0.364494	-0.263048	-0.576943
C61	C	-0.389411	-0.236096	-0.628889
C62	C	-0.357932	-0.263198	-0.655807
C63	C	-0.443361	-0.184142	-0.656009
C64	C	-0.472390	-0.159148	-0.631185
C65	C	-0.447469	-0.186102	-0.579236
C66	C	-0.790234	0.158800	-0.631712
C67	C	-0.840044	0.212665	-0.656712
C68	C	-0.865030	0.239688	-0.629762
C69	C	-0.919031	0.298093	-0.656861
C70	C	-0.840205	0.212840	-0.577809
C71	C	-0.790404	0.158975	-0.552813
C72	C	-0.765419	0.131958	-0.579770
C73	C	-0.393522	-0.238048	-0.234867
C74	C	-0.364489	-0.263047	-0.180999
C75	C	-0.389405	-0.236095	-0.153977
C76	C	-0.357926	-0.263197	-0.095570
C77	C	-0.443351	-0.184144	-0.180823
C78	C	-0.472380	-0.159147	-0.234689
C79	C	-0.447463	-0.186106	-0.261708
C80	C	-0.478948	-0.158994	-0.552321
C81	C	-0.504039	-0.137387	-0.530867
C82	C	-0.504039	-0.137388	-0.366670
C83	C	-0.478947	-0.158994	-0.320115
C84	C	-0.668367	0.026997	-0.531054
C85	C	-0.711413	0.073551	-0.552660
O86	O	0.456747	-0.371242	-0.012989
O87	O	0.330108	-0.307898	0.012862
O88	O	0.330102	-0.307902	-0.076331
O89	O	0.456753	-0.371237	0.076204
O90	O	0.330100	-0.235456	-0.076334
O91	O	0.330107	-0.235452	0.012859
O92	O	0.456746	-0.298795	-0.012991
Cu93	Cu	0.393426	-0.260509	-0.000066
Cu94	Cu	0.393428	-0.346185	-0.000063
O95	O	0.456752	-0.298791	0.076201
O96	O	-0.311680	0.469552	-0.012990
O97	O	-0.222517	0.317020	0.012860
O98	O	-0.311682	0.406206	-0.076333
O99	O	-0.222514	0.380367	0.076203
O100	O	-0.384101	0.406204	-0.076330
O101	O	-0.294935	0.317019	0.012863
O102	O	-0.384098	0.469551	-0.012987
Cu103	Cu	-0.346129	0.393285	-0.000062
Cu104	Cu	-0.260486	0.393286	-0.000065
O105	O	-0.294933	0.380365	0.076206
O106	O	-1.063348	0.469883	-0.692457
O107	O	-0.936707	0.317351	-0.629120
O108	O	-0.936703	0.406539	-0.629112
O109	O	-1.063353	0.380695	-0.692465
O110	O	-0.936705	0.406541	-0.701558
O111	O	-0.936709	0.317353	-0.701566
O112	O	-1.063350	0.469885	-0.764903
Cu113	Cu	-1.000030	0.393619	-0.739850
Cu114	Cu	-1.000028	0.393617	-0.654174
O115	O	-1.063355	0.380697	-0.764912
O116	O	-0.294924	-0.298804	-0.764570
O117	O	-0.384087	-0.235458	-0.701231
O118	O	-0.294922	-0.235461	-0.701223
O119	O	-0.384089	-0.298801	-0.764578
O120	O	-0.222503	-0.307905	-0.628778
O121	O	-0.311668	-0.307902	-0.628785
O122	O	-0.222505	-0.371248	-0.692124
Cu123	Cu	-0.260474	-0.346190	-0.653840
Cu124	Cu	-0.346118	-0.260516	-0.739515
O125	O	-0.311670	-0.371245	-0.692132
C126	C	-0.137109	-0.450791	0.234760
C127	C	-0.083371	-0.508247	0.261637
C128	C	-0.163185	-0.424337	0.261096
C129	C	-0.215958	-0.371915	0.155885
C130	C	-0.246526	-0.345036	0.098429
C131	C	-0.241915	-0.345581	0.182341
C132	C	-0.215957	-0.371916	0.234762
C133	C	-0.246523	-0.345038	0.261641
C134	C	-0.163187	-0.424336	0.182339
C135	C	0.609367	-0.371900	0.234744
C136	C	0.639936	-0.345021	0.261623
C137	C	0.635326	-0.424320	0.261080
C138	C	0.530513	-0.371902	0.155868
C139	C	0.476771	-0.345026	0.098411
C140	C	0.556592	-0.424323	0.182323
C141	C	0.609367	-0.450776	0.234745
C142	C	0.639935	-0.508231	0.261625
C143	C	0.556592	-0.345567	0.182322
C144	C	-0.215966	0.374508	0.234742
C145	C	-0.246533	0.378211	0.261622
C146	C	-0.163196	0.374145	0.261075
C147	C	-0.215966	0.374496	0.155867
C148	C	-0.246532	0.378186	0.098411
C149	C	-0.163196	0.374133	0.182319
C150	C	-0.137120	0.374510	0.234739
C151	C	-0.083383	0.378215	0.261615
C152	C	-0.241923	0.374131	0.182322
C153	C	-0.071117	-0.031762	-0.503978
C154	C	-0.097076	-0.058218	-0.530313
C155	C	0.007736	-0.110635	-0.425100
C156	C	-0.018343	-0.136971	-0.451554
C157	C	-0.071117	-0.110639	-0.503976
C158	C	-0.018343	-0.058215	-0.451556
C159	C	-0.133544	0.158445	-0.552147
C160	C	-0.162399	0.212309	-0.576974
C161	C	-0.216357	0.239329	-0.628922
C162	C	-0.247653	0.297735	-0.655841
C163	C	-0.241455	0.212479	-0.656042
C164	C	-0.212595	0.158617	-0.631216
C165	C	-0.158637	0.131600	-0.579267
C166	C	-0.213119	-0.158809	-0.631739
C167	C	-0.242150	-0.183636	-0.656740
C168	C	-0.217236	-0.235579	-0.629789
C169	C	-0.248711	-0.262501	-0.656888
C170	C	-0.163282	-0.262698	-0.577834
C171	C	-0.134247	-0.237875	-0.552838
C172	C	-0.159175	-0.185925	-0.579796
C173	C	0.183616	-0.158793	-0.234889
C174	C	0.233425	-0.183615	-0.181021
C175	C	0.258413	-0.235561	-0.153998
C176	C	0.312417	-0.262476	-0.095590
C177	C	0.233586	-0.262680	-0.180844
C178	C	0.183777	-0.237855	-0.234710
C179	C	0.158799	-0.185912	-0.261731
C180	C	-0.127350	0.073196	-0.552350
C181	C	-0.102409	0.026642	-0.530895
C182	C	0.061741	-0.137548	-0.366694
C183	C	0.104790	-0.159001	-0.320139
C184	C	-0.102597	-0.137555	-0.531080
C185	C	-0.127690	-0.159010	-0.552686
O186	O	0.705079	-0.682971	0.298762
O187	O	0.615915	-0.530440	0.235414
O188	O	0.705074	-0.619630	0.235414
O189	O	0.615920	-0.593781	0.298762
O190	O	0.777498	-0.619626	0.307859
O191	O	0.688338	-0.530436	0.307859
O192	O	0.777503	-0.682967	0.371207
Cu193	Cu	0.739534	-0.606701	0.346148
Cu194	Cu	0.653884	-0.606706	0.260473
O195	O	0.688344	-0.593777	0.371207
C196	C	-0.614034	0.432443	-0.503962
C197	C	-0.587958	0.432807	-0.530298
C198	C	-0.535188	0.432456	-0.425089
C199	C	-0.509231	0.432821	-0.451545
C200	C	-0.535187	0.432444	-0.503965
C201	C	-0.587958	0.432820	-0.451542
C202	C	-0.789897	0.418152	-0.552117
C203	C	-0.839706	0.414110	-0.576941
C204	C	-0.864691	0.412074	-0.628886
C205	C	-0.918690	0.407682	-0.655801
C206	C	-0.839867	0.414086	-0.656008
C207	C	-0.790067	0.418135	-0.631186
C208	C	-0.765082	0.420168	-0.579239
C209	C	-0.472763	0.418144	-0.631728
C210	C	-0.443909	0.414103	-0.656730
C211	C	-0.389955	0.412078	-0.629782
C212	C	-0.358661	0.407689	-0.656882
C213	C	-0.364860	0.414102	-0.577830
C214	C	-0.393718	0.418153	-0.552833
C215	C	-0.447672	0.420170	-0.579788
C216	C	-0.472766	0.418206	-0.234881
C217	C	-0.443908	0.414171	-0.181014
C218	C	-0.389954	0.412149	-0.153995
C219	C	-0.358660	0.407770	-0.095588
C220	C	-0.364858	0.414158	-0.180842
C221	C	-0.393716	0.418191	-0.234707
C222	C	-0.447674	0.420220	-0.261724
C223	C	-0.711078	0.424554	-0.552326
C224	C	-0.668034	0.428052	-0.530874
C225	C	-0.503898	0.428080	-0.366685
C226	C	-0.478959	0.424594	-0.320131
C227	C	-0.503897	0.428054	-0.531069
C228	C	-0.478958	0.424557	-0.552676
H229	H	-0.465239	-0.302506	-0.019822
H230	H	-0.609783	0.433413	-0.430303
H231	H	-0.089609	0.136452	-0.509848
H232	H	-0.141359	-0.445576	0.161102
H233	H	-0.090284	-0.259937	0.026534
C234	C	-0.299290	0.373329	0.153625
C235	C	-0.296699	0.326854	0.133206
C236	C	-0.354065	0.326055	0.104505
C237	C	-0.414022	0.371731	0.096224
C238	C	-0.416615	0.418210	0.116644
C239	C	-0.359249	0.419009	0.145344
H240	H	-0.252313	0.293039	0.139336
H241	H	-0.352145	0.291649	0.089390
H242	H	-0.456488	0.371140	0.074978
H243	H	-0.461001	0.452025	0.110514
H244	H	-0.361169	0.453415	0.160460
C245	C	0.527103	-0.287378	0.153636
C246	C	0.460234	-0.243503	0.133228
C247	C	0.430743	-0.185315	0.104546
C248	C	0.468121	-0.171001	0.096273
C249	C	0.534994	-0.214877	0.116682
C250	C	0.564485	-0.273065	0.145364
H251	H	0.432561	-0.254098	0.139351
H252	H	0.381239	-0.152835	0.089438
H253	H	0.446290	-0.127927	0.075041
H254	H	0.562667	-0.204282	0.110559
H255	H	0.613989	-0.305545	0.160472
H256	H	-0.610107	-0.036623	-0.430285
C257	C	0.692695	-0.453017	0.319267
C258	C	0.690118	-0.430006	0.363154
C259	C	0.747485	-0.458705	0.421338
C260	C	0.807428	-0.510415	0.435635
C261	C	0.810007	-0.533428	0.391747
C262	C	0.752641	-0.504730	0.333563
H263	H	0.645742	-0.391725	0.352572
H264	H	0.745576	-0.441668	0.453827
H265	H	0.849895	-0.531659	0.478707
H266	H	0.854383	-0.571709	0.402329
H267	H	0.754550	-0.521766	0.301074
C268	C	-0.133704	0.373361	0.319258
C269	C	-0.127672	0.419037	0.333533
C270	C	-0.098177	0.418257	0.391712
C271	C	-0.074714	0.371800	0.435615
C272	C	-0.080746	0.326120	0.421341
C273	C	-0.110241	0.326900	0.363162
H274	H	-0.145041	0.453431	0.301032
H275	H	-0.093712	0.452072	0.402278
H276	H	-0.052880	0.371222	0.478683
H277	H	-0.063377	0.291726	0.453842
H278	H	-0.114706	0.293085	0.352596
H279	H	-0.320933	0.412461	-0.555890
C280	C	-0.133706	0.373325	0.153632
C281	C	-0.110254	0.326851	0.133211
C282	C	-0.080762	0.326042	0.104528
C283	C	-0.074722	0.371708	0.096265
C284	C	-0.098175	0.418185	0.116686
C285	C	-0.127667	0.418994	0.145369
H286	H	-0.114724	0.293044	0.139328
H287	H	-0.063401	0.291636	0.089411
H288	H	-0.052891	0.371109	0.075032
H289	H	-0.093705	0.451993	0.110570
H290	H	-0.145029	0.453400	0.160486
C291	C	0.527104	-0.453015	0.153632
C292	C	0.503651	-0.473431	0.176647
C293	C	0.474163	-0.502121	0.147958
C294	C	0.468129	-0.510396	0.096254
C295	C	0.491583	-0.489979	0.073237
C296	C	0.521070	-0.461289	0.101926
H297	H	0.508117	-0.467306	0.214924
H298	H	0.456801	-0.517235	0.164997
H299	H	0.446301	-0.531634	0.075017
H300	H	0.487116	-0.496104	0.034960
H301	H	0.538432	-0.446175	0.084886
C302	C	-0.531730	-0.102004	-0.661014
C303	C	-0.533471	-0.057083	-0.637923
C304	C	-0.592810	0.000063	-0.667751
C305	C	-0.650407	0.012287	-0.720670
C306	C	-0.648668	-0.032634	-0.743764
C307	C	-0.589329	-0.089780	-0.713936
H308	H	-0.490833	-0.066132	-0.598747
H309	H	-0.594098	0.033317	-0.650655
H310	H	-0.694333	0.054590	-0.742751
H311	H	-0.691306	-0.023586	-0.782940
H312	H	-0.588042	-0.123034	-0.731031
H313	H	-0.141352	-0.445575	0.304170
C314	C	-0.472917	-0.453012	-0.020049
C315	C	-0.539791	-0.429989	-0.066528
C316	C	-0.569293	-0.458665	-0.067339
C317	C	-0.531919	-0.510363	-0.021671
C318	C	-0.465041	-0.533388	0.024812
C319	C	-0.435539	-0.504713	0.025623
H320	H	-0.567461	-0.391716	-0.100337
H321	H	-0.618801	-0.441619	-0.101749
H322	H	-0.553758	-0.531590	-0.022271
H323	H	-0.437371	-0.571661	0.058621
H324	H	-0.386031	-0.521758	0.060033
C325	C	0.011142	-0.195158	-0.422864
C326	C	0.069308	-0.224250	-0.365078
C327	C	0.098791	-0.282434	-0.336391
C328	C	0.070108	-0.311526	-0.365490
C329	C	0.011939	-0.282433	-0.423280
C330	C	-0.017544	-0.224249	-0.451967
H331	H	0.090543	-0.202714	-0.343534
H332	H	0.141851	-0.303970	-0.293611
H333	H	0.091933	-0.354597	-0.344254
H334	H	-0.009296	-0.303969	-0.444824
H335	H	-0.060604	-0.202713	-0.494747
C336	C	-0.305150	-0.320189	-0.547111
C337	C	-0.245298	-0.331328	-0.536417
C338	C	-0.185952	-0.388469	-0.506584
C339	C	-0.186458	-0.434472	-0.487444
C340	C	-0.246313	-0.423335	-0.498137
C341	C	-0.305658	-0.366194	-0.527970
H342	H	-0.244921	-0.297273	-0.550586
H343	H	-0.141644	-0.396714	-0.498668
H344	H	-0.142527	-0.476772	-0.465359
H345	H	-0.246690	-0.457390	-0.483968
H346	H	-0.349967	-0.357949	-0.535886
C347	C	-0.154444	-0.029531	-0.588500
C348	C	-0.183134	0.028253	-0.617596
C349	C	-0.240499	0.056938	-0.675781
C350	C	-0.269173	0.027837	-0.704871
C351	C	-0.240482	-0.029951	-0.675775
C352	C	-0.183118	-0.058635	-0.617590
H353	H	-0.161908	0.049798	-0.596062
H354	H	-0.261737	0.099716	-0.697319
H355	H	-0.311637	0.049071	-0.747943
H356	H	-0.261708	-0.051496	-0.697309
H357	H	-0.161879	-0.101414	-0.596051
H358	H	-0.769561	0.419809	-0.509821
C359	C	-0.299283	-0.287396	0.153654
C360	C	-0.359240	-0.273097	0.101953
C361	C	-0.416608	-0.214916	0.073269
C362	C	-0.414019	-0.171035	0.096286
C363	C	-0.354060	-0.185333	0.147989
C364	C	-0.296692	-0.243514	0.176673
H365	H	-0.361158	-0.305582	0.084912
H366	H	-0.460993	-0.204332	0.034995
H367	H	-0.456486	-0.127966	0.075052
H368	H	-0.352142	-0.152849	0.165030
H369	H	-0.252307	-0.254098	0.214947
H370	H	0.003480	-0.036972	-0.430319
H371	H	0.003515	-0.180026	0.040139
C372	C	0.260732	-0.153784	-0.151490
C373	C	0.220052	-0.100867	-0.146794
C374	C	0.247361	-0.071036	-0.117263
C375	C	0.315349	-0.094124	-0.092427
C376	C	0.356032	-0.147045	-0.097122
C377	C	0.328724	-0.176875	-0.126653
H378	H	0.169720	-0.083773	-0.165180
H379	H	0.217243	-0.031861	-0.113788
H380	H	0.335564	-0.072042	-0.070566
H381	H	0.406365	-0.164138	-0.078736
H382	H	0.358841	-0.216050	-0.130128
H383	H	0.163291	-0.116503	-0.256891
H384	H	-0.142992	-0.304995	-0.555892
H385	H	-0.463636	-0.162196	-0.158817
C386	C	-0.470769	-0.154496	-0.713147
C387	C	-0.478237	-0.101623	-0.725454
C388	C	-0.505647	-0.071973	-0.782593
C389	C	-0.525589	-0.095196	-0.827426
C390	C	-0.518121	-0.148072	-0.815120
C391	C	-0.490711	-0.177722	-0.757981
H392	H	-0.463475	-0.084429	-0.692265
H393	H	-0.511176	-0.032830	-0.791702
H394	H	-0.545880	-0.073247	-0.869724
H395	H	-0.532883	-0.165266	-0.848309
H396	H	-0.485182	-0.216865	-0.748871
C397	C	-0.452191	-0.194802	-0.422833
C398	C	-0.423497	-0.223893	-0.451918
C399	C	-0.366127	-0.282073	-0.423220
C400	C	-0.337450	-0.311161	-0.365436
C401	C	-0.366143	-0.282069	-0.336348
C402	C	-0.423514	-0.223890	-0.365046
H403	H	-0.444726	-0.202361	-0.494696
H404	H	-0.344887	-0.303609	-0.444753
H405	H	-0.294981	-0.354229	-0.344192
H406	H	-0.344915	-0.303602	-0.293570
H407	H	-0.444754	-0.202354	-0.343513
C408	C	-0.867688	0.242559	-0.548161
C409	C	-0.935721	0.267444	-0.571389
C410	C	-0.963202	0.297165	-0.541740
C411	C	-0.922651	0.302002	-0.488863
C412	C	-0.854614	0.277117	-0.465631
C413	C	-0.827133	0.247396	-0.495280
H414	H	-0.965743	0.263864	-0.610535
H415	H	-1.013568	0.315587	-0.558937
H416	H	-0.942994	0.324004	-0.466915
H417	H	-0.824592	0.280697	-0.426486
H418	H	-0.776767	0.228974	-0.478083
H419	H	-0.141961	0.234166	-0.554890
H420	H	-0.285386	0.234482	-0.698337
H421	H	-0.233032	0.136759	-0.653301
H422	H	-0.233417	-0.116511	-0.653694
C423	C	-0.301498	-0.153806	-0.713882
C424	C	-0.300998	-0.134663	-0.759889
C425	C	-0.360347	-0.104831	-0.817031
C426	C	-0.420197	-0.094142	-0.828167
C427	C	-0.420699	-0.113284	-0.782159
C428	C	-0.361350	-0.143116	-0.725017
H429	H	-0.256692	-0.142576	-0.751647
H430	H	-0.359975	-0.090661	-0.851089
H431	H	-0.464131	-0.072058	-0.870467
H432	H	-0.465006	-0.105372	-0.790401
H433	H	-0.361722	-0.157287	-0.690959
H434	H	-0.090318	-0.259959	-0.510539
C435	C	0.261069	-0.319822	-0.151124
C436	C	0.288049	-0.365909	-0.170636
C437	C	0.315529	-0.423049	-0.140918
C438	C	0.316028	-0.434100	-0.091688
C439	C	0.289047	-0.388011	-0.072173
C440	C	0.261567	-0.330872	-0.101891
H441	H	0.287680	-0.357730	-0.207082
H442	H	0.335502	-0.457167	-0.155365
H443	H	0.336370	-0.476398	-0.069689
H444	H	0.289416	-0.396191	-0.035727
H445	H	0.241594	-0.296754	-0.087444
H446	H	-0.769861	0.419775	-0.653273
H447	H	0.163567	-0.259941	-0.256565
H448	H	-0.466765	0.433413	-0.430304
C449	C	-0.617436	0.433597	-0.588482
C450	C	-0.675595	0.433985	-0.617573
C451	C	-0.705070	0.434774	-0.675754
C452	C	-0.676387	0.435175	-0.704845
C453	C	-0.618226	0.434787	-0.675754
C454	C	-0.588750	0.433999	-0.617572
H455	H	-0.696830	0.433688	-0.596039
H456	H	-0.748125	0.435061	-0.697289
H457	H	-0.698207	0.435759	-0.747914
H458	H	-0.596990	0.435084	-0.697288
H459	H	-0.545695	0.433712	-0.596037
H460	H	-0.322213	-0.445577	-0.019814
C461	C	-0.305509	0.411935	-0.151126
C462	C	-0.303856	0.455115	-0.126255
C463	C	-0.244509	0.452893	-0.096542
C464	C	-0.186814	0.407490	-0.091699
C465	C	-0.188464	0.364306	-0.116571
C466	C	-0.247812	0.366529	-0.146284
H467	H	-0.346567	0.488728	-0.129840
H468	H	-0.243288	0.484860	-0.078130
H469	H	-0.142882	0.405844	-0.069704
H470	H	-0.145753	0.330694	-0.112987
H471	H	-0.249033	0.334562	-0.164696
C472	C	-0.471511	0.411959	-0.151482
C473	C	-0.479033	0.366569	-0.146780
C474	C	-0.506638	0.364359	-0.117248
C475	C	-0.526721	0.407539	-0.092418
C476	C	-0.519199	0.452933	-0.097120
C477	C	-0.491594	0.455143	-0.126651
H478	H	-0.464166	0.334601	-0.165161
H479	H	-0.512206	0.330755	-0.113768
H480	H	-0.547156	0.405903	-0.070557
H481	H	-0.534066	0.484900	-0.078738
H482	H	-0.486026	0.488746	-0.130131
C483	C	-0.532114	0.420430	-0.264599
C484	C	-0.559716	0.418212	-0.235069
C485	C	-0.619062	0.420433	-0.264789
C486	C	-0.650807	0.424873	-0.324038
C487	C	-0.623205	0.427091	-0.353571
C488	C	-0.563859	0.424870	-0.323851
H489	H	-0.536217	0.414925	-0.191207
H490	H	-0.639494	0.418791	-0.242926
H491	H	-0.694738	0.426517	-0.346038
H492	H	-0.646705	0.430378	-0.397433
H493	H	-0.543427	0.426512	-0.345714
H494	H	0.003516	-0.036957	0.040138
H495	H	-0.859907	0.412463	-0.554852
C496	C	-0.867349	0.411847	-0.713145
C497	C	-0.867837	0.363109	-0.724187
C498	C	-0.895318	0.360870	-0.781326
C499	C	-0.922312	0.407369	-0.827421
C500	C	-0.921825	0.456111	-0.816380
C501	C	-0.894344	0.458350	-0.759242
H502	H	-0.847855	0.328684	-0.690063
H503	H	-0.895679	0.324787	-0.789499
H504	H	-0.942655	0.405711	-0.869719
H505	H	-0.941807	0.490535	-0.850504
H506	H	-0.893983	0.494432	-0.751068
C507	C	-0.471508	0.411870	-0.713870
C508	C	-0.433474	0.363133	-0.725002
C509	C	-0.461073	0.360899	-0.782142
C510	C	-0.526705	0.407401	-0.828150
C511	C	-0.564742	0.456141	-0.817020
C512	C	-0.537144	0.458376	-0.759880
H513	H	-0.384886	0.328706	-0.690942
H514	H	-0.432915	0.324818	-0.790381
H515	H	-0.547135	0.405747	-0.870449
H516	H	-0.613330	0.490568	-0.851079
H517	H	-0.565302	0.494456	-0.751641
C518	C	-0.867344	0.242197	-0.713854
C519	C	-0.935331	0.267034	-0.758785
C520	C	-0.962629	0.296567	-0.815926
C521	C	-0.921941	0.301263	-0.828136
C522	C	-0.853950	0.276426	-0.783203
C523	C	-0.826652	0.246893	-0.726062
H524	H	-0.965454	0.263558	-0.749748
H525	H	-1.012961	0.314953	-0.849188
H526	H	-0.942149	0.323125	-0.870435
H527	H	-0.823827	0.279901	-0.792241
H528	H	-0.776320	0.228507	-0.692800
H529	H	-0.516695	0.419790	-0.653680
H530	H	-0.373283	0.419801	-0.510535
C531	C	-0.763098	0.129444	-0.495669
C532	C	-0.790575	0.159162	-0.466018
C533	C	-0.763268	0.129631	-0.408873
C534	C	-0.708483	0.070383	-0.381378
C535	C	-0.681002	0.040662	-0.411028
C536	C	-0.708310	0.070192	-0.468174
H537	H	-0.831133	0.203024	-0.486372
H538	H	-0.783611	0.151633	-0.386924
H539	H	-0.688268	0.048523	-0.339075
H540	H	-0.640445	-0.003200	-0.390675
H541	H	-0.687967	0.048191	-0.490123
H542	H	-0.610113	-0.036626	-0.573358
H543	H	-0.233364	-0.116492	0.026559
C544	C	-0.154401	-0.029509	0.040347
C545	C	-0.183092	0.028278	0.040740
C546	C	-0.240455	0.056965	0.041541
C547	C	-0.269128	0.027865	0.041949
C548	C	-0.240437	-0.029925	0.041556
C549	C	-0.183074	-0.058612	0.040755
H550	H	-0.161867	0.049822	0.040438
H551	H	-0.261694	0.099745	0.041831
H552	H	-0.311591	0.049102	0.042542
H553	H	-0.261662	-0.051469	0.041858
H554	H	-0.161835	-0.101392	0.040465
C555	C	-0.301441	-0.153785	0.018650
C556	C	-0.359038	-0.100869	-0.026738
C557	C	-0.418375	-0.071041	-0.028948
C558	C	-0.420114	-0.094130	0.014231
C559	C	-0.362515	-0.147049	0.059622
C560	C	-0.303178	-0.176877	0.061832
H561	H	-0.357752	-0.083774	-0.058705
H562	H	-0.461013	-0.031866	-0.062550
H563	H	-0.464039	-0.072049	0.012595
H564	H	-0.363801	-0.164143	0.091589
H565	H	-0.260540	-0.216051	0.095434
H566	H	0.253957	-0.304973	0.019196
C567	C	-0.301451	0.241862	0.018632
C568	C	-0.361304	0.291040	-0.030102
C569	C	-0.420650	0.320572	-0.032326
C570	C	-0.420143	0.300926	0.014184
C571	C	-0.360288	0.251746	0.062922
C572	C	-0.300942	0.222214	0.065146
H573	H	-0.361681	0.305585	-0.064535
H574	H	-0.464958	0.356979	-0.068405
H575	H	-0.464074	0.322788	0.012538
H576	H	-0.359911	0.237201	0.097355
H577	H	-0.256633	0.185808	0.101225
C578	C	-0.135836	0.242227	0.018609
C579	C	-0.174004	0.291452	-0.030127
C580	C	-0.146596	0.321174	-0.032359
C581	C	-0.081021	0.301671	0.014145
C582	C	-0.042849	0.252444	0.062885
C583	C	-0.070257	0.222722	0.065117
H584	H	-0.222550	0.305892	-0.064556
H585	H	-0.174854	0.357616	-0.068440
H586	H	-0.060732	0.323673	0.012493
H587	H	0.005697	0.238004	0.097313
H588	H	-0.042000	0.186280	0.101197
C589	C	-0.366114	0.420407	-0.264239
C590	C	-0.306771	0.418187	-0.234523
C591	C	-0.279169	0.420402	-0.264056
C592	C	-0.310909	0.424838	-0.323304
C593	C	-0.370256	0.427059	-0.353023
C594	C	-0.397859	0.424844	-0.323491
H595	H	-0.283272	0.414902	-0.190662
H596	H	-0.235236	0.418758	-0.242055
H597	H	-0.290476	0.426479	-0.345165
H598	H	-0.393755	0.430343	-0.396885
H599	H	-0.441791	0.426488	-0.345491
H600	H	-0.233373	0.136470	0.026545
C601	C	-0.074873	0.129111	0.027100
C602	C	-0.047465	0.158830	0.024867
C603	C	0.011874	0.129300	0.027079
C604	C	0.043804	0.070051	0.031524
C605	C	0.016396	0.040329	0.033758
C606	C	-0.042942	0.069859	0.031546
H607	H	-0.071101	0.202692	0.021576
H608	H	0.032163	0.151302	0.025425
H609	H	0.087730	0.048191	0.033162
H610	H	0.040033	-0.003533	0.037049
H611	H	-0.063231	0.047856	0.033199
H612	H	0.163295	-0.116484	0.026538
H613	H	0.253649	-0.161523	0.019207
H614	H	-0.769897	0.136805	-0.653665
H615	H	0.163600	-0.259939	0.026533
C616	C	-0.305149	-0.320191	-0.151469
C617	C	-0.247554	-0.332417	-0.146771
C618	C	-0.188216	-0.389563	-0.117242
C619	C	-0.186473	-0.434483	-0.092410
C620	C	-0.244070	-0.422258	-0.097107
C621	C	-0.303408	-0.365112	-0.126637
H622	H	-0.248842	-0.299163	-0.165154
H623	H	-0.145578	-0.398612	-0.113765
H624	H	-0.142547	-0.476786	-0.070551
H625	H	-0.242782	-0.455512	-0.078725
H626	H	-0.346046	-0.356063	-0.130114
H627	H	-0.373227	-0.260000	-0.509819
C628	C	-0.135827	-0.319818	0.018611
C629	C	-0.070246	-0.365907	0.065107
C630	C	-0.042834	-0.423042	0.062864
C631	C	-0.081003	-0.434088	0.014125
C632	C	-0.146588	-0.387998	-0.032374
C633	C	-0.174000	-0.330862	-0.030131
H634	H	-0.041987	-0.357731	0.101190
H635	H	0.005717	-0.457161	0.097287
H636	H	-0.060711	-0.476383	0.012465
H637	H	-0.174847	-0.396173	-0.068457
H638	H	-0.222551	-0.296743	-0.064554
H639	H	-0.373228	-0.260001	-0.256862
H640	H	-0.516304	-0.116847	-0.256543
