data_functionalizedCrystal
_audit_creation_method	'MofGen! by Chris Wilmer'
_symmetry_space_group_name_H-M	'P1'
_symmetry_Int_Tables_number	1
_symmetry_cell_setting	triclinic
loop_
_symmetry_equiv_pos_as_xyz
  x,y,z
_cell_length_a	8.559649
_cell_length_b	14.044220
_cell_length_c	7.681481
_cell_angle_alpha	83.732834
_cell_angle_beta	94.913240
_cell_angle_gamma	81.483771
loop_
_atom_site_label
_atom_site_type_symbol
_atom_site_fract_x
_atom_site_fract_y
_atom_site_fract_z
O1	O	2.101908	-0.021858	-0.146399
O2	O	1.643608	0.026593	-0.146411
O3	O	1.865881	-0.135117	-0.146388
O4	O	1.879635	0.139853	-0.146422
O5	O	1.893233	-0.155061	0.146473
O6	O	1.670961	0.006649	0.146449
O7	O	2.129260	-0.041802	0.146461
Zn8	Zn	1.904453	-0.020743	0.192953
Zn9	Zn	1.868415	0.005534	-0.192903
O10	O	1.906988	0.119909	0.146438
C11	C	1.598278	0.020293	0.000018
C12	C	1.422455	0.031222	0.000014
C13	C	1.873534	-0.179966	0.000043
C14	C	1.855571	-0.283884	0.000045
C15	C	1.822727	-0.474153	0.000018
C16	C	1.950133	-0.541060	0.000016
C17	C	1.931858	-0.646933	0.000002
C18	C	1.840999	-0.368270	0.000033
C19	C	2.174590	-0.035501	0.000029
C20	C	2.350412	-0.046430	0.000021
C21	C	1.899334	0.164757	0.000003
C22	C	1.917296	0.268676	-0.000010
N23	N	1.929059	-0.038678	0.456290
N24	N	1.843820	0.023461	-0.456240
H25	H	2.072922	-0.518821	-0.000099
H26	H	1.699936	-0.496383	0.000011
H27	H	1.349615	0.106070	-0.000005
O28	O	2.032775	-0.114459	0.545816
C29	C	2.107022	-0.288162	0.602658
C30	C	1.989480	-0.202431	0.501130
H31	H	2.072042	-0.359309	0.566595
H32	H	2.232128	-0.282864	0.566456
H33	H	2.103855	-0.285774	0.750202
H34	H	1.992507	-0.204765	0.353562
H35	H	1.864429	-0.207760	0.537478
O36	O	1.437434	-0.135654	-0.000202
C37	C	1.617644	-0.237597	-0.151963
C38	C	1.519185	-0.136501	-0.151909
H39	H	1.683739	-0.238321	-0.274624
H40	H	1.706873	-0.255050	-0.029484
H41	H	1.535108	-0.294291	-0.151872
H42	H	1.601596	-0.079741	-0.152062
H43	H	1.429939	-0.119131	-0.274378
O44	O	1.740188	0.099238	0.454132
C45	C	1.665812	0.272938	0.397458
C46	C	1.783312	0.187209	0.499053
H47	H	1.700616	0.344082	0.433767
H48	H	1.669016	0.270682	0.249883
H49	H	1.540733	0.267507	0.433604
H50	H	1.908446	0.192583	0.463054
H51	H	1.779970	0.189494	0.646602
