data_functionalizedCrystal
_audit_creation_method	'MofGen! by Chris Wilmer'
_symmetry_space_group_name_H-M	'P1'
_symmetry_Int_Tables_number	1
_symmetry_cell_setting	triclinic
loop_
_symmetry_equiv_pos_as_xyz
  x,y,z
_cell_length_a	18.215407
_cell_length_b	19.076808
_cell_length_c	18.215399
_cell_angle_alpha	92.328322
_cell_angle_beta	90.017368
_cell_angle_gamma	92.320961
loop_
_atom_site_label
_atom_site_type_symbol
_atom_site_fract_x
_atom_site_fract_y
_atom_site_fract_z
Zn1	Zn	1.113296	-0.280271	0.404282
Zn2	Zn	1.613296	0.219729	0.904282
Zn3	Zn	1.108258	-0.397979	0.276266
Zn4	Zn	1.608258	0.102021	0.776266
Zn5	Zn	0.990227	-0.280288	0.281234
Zn6	Zn	1.490227	0.219712	0.781234
Zn7	Zn	0.985250	-0.397934	0.399298
Zn8	Zn	1.485250	0.102066	0.899298
O9	O	1.049258	-0.339118	0.340270
O10	O	1.549258	0.160882	0.840270
O11	O	1.215611	-0.295898	0.387307
O12	O	1.715611	0.204102	0.887307
O13	O	1.092576	-0.382393	0.173940
O14	O	1.592576	0.117607	0.673940
O15	O	1.010744	-0.181790	0.301721
O16	O	1.510744	0.318210	0.801721
O17	O	1.211910	-0.382377	0.293255
O18	O	1.711910	0.117623	0.793255
O19	O	1.101161	-0.181777	0.392124
O20	O	1.601161	0.318223	0.892124
O21	O	1.005859	-0.295926	0.177590
O22	O	1.505859	0.204074	0.677590
O23	O	0.886583	-0.295882	0.296889
O24	O	1.386583	0.204118	0.796889
O25	O	1.002261	-0.382300	0.502945
O26	O	1.502261	0.117700	1.002945
O27	O	0.882927	-0.382316	0.383630
O28	O	1.382927	0.117684	0.883630
O29	O	1.096335	-0.295854	0.506606
O30	O	1.596335	0.204146	1.006606
O31	O	1.087750	-0.496470	0.288422
O32	O	1.587750	0.003530	0.788422
O33	O	0.997376	-0.496436	0.378813
O34	O	1.497376	0.003564	0.878813
C35	C	0.858052	-0.339097	0.340258
C36	C	1.358052	0.160903	0.840258
C37	C	0.776253	-0.339104	0.340270
C38	C	1.276253	0.160896	0.840270
C39	C	0.589981	-0.294167	0.389314
C40	C	1.089981	0.205833	0.889314
C41	C	0.513122	-0.294173	0.389316
C42	C	1.013122	0.205827	0.889316
C43	C	0.509285	-0.384089	0.291239
C44	C	1.009285	0.115911	0.791239
C45	C	0.586143	-0.384079	0.291234
C46	C	1.086143	0.115921	0.791234
C47	C	0.626489	-0.339119	0.340275
C48	C	1.126489	0.160881	0.840275
C49	C	0.472772	-0.339135	0.340283
C50	C	0.972772	0.160865	0.840283
C51	C	0.389438	-0.339142	0.340285
C52	C	0.889438	0.160858	0.840285
C53	C	0.709828	-0.339111	0.340272
C54	C	1.209828	0.160889	0.840272
C55	C	1.041496	-0.521992	0.332554
C56	C	1.541496	-0.021992	0.832554
C57	C	1.038243	-0.600226	0.329277
C58	C	1.538243	-0.100226	0.829277
C59	C	1.083755	-0.636914	0.374844
C60	C	1.583755	-0.136914	0.874844
C61	C	1.080695	-0.710423	0.371767
C62	C	1.580695	-0.210423	0.871767
C63	C	1.032127	-0.747243	0.323118
C64	C	1.532127	-0.247243	0.823118
C65	C	0.986610	-0.710551	0.277550
C66	C	1.486610	-0.210551	0.777550
C67	C	0.989666	-0.637043	0.280631
C68	C	1.489666	-0.137043	0.780631
C69	C	1.017938	-0.967096	0.308854
C70	C	1.517938	-0.467096	0.808854
C71	C	1.014887	-1.040609	0.305774
C72	C	1.514887	-0.540609	0.805774
C73	C	1.108972	-1.040476	0.399992
C74	C	1.608972	-0.540476	0.899992
C75	C	1.112027	-0.966967	0.403067
C76	C	1.612027	-0.466967	0.903067
C77	C	1.066507	-0.930280	0.357501
C78	C	1.566507	-0.430280	0.857501
N79	N	1.029000	-0.822382	0.319970
N80	N	1.529000	-0.322382	0.819970
N81	N	1.069631	-0.855143	0.360653
N82	N	1.569631	-0.355143	0.860653
C83	C	1.241210	-0.339141	0.340283
C84	C	1.741210	0.160859	0.840283
C85	C	1.323008	-0.339150	0.340288
C86	C	1.823008	0.160850	0.840288
C87	C	1.049305	-0.339070	0.532225
C88	C	1.549305	0.160930	1.032225
C89	C	1.049325	-0.339049	0.614025
C90	C	1.549325	0.160951	1.114025
C91	C	1.057070	-0.155531	0.348033
C92	C	1.557070	0.344469	0.848033
C93	C	1.060399	-0.077296	0.351341
C94	C	1.560399	0.422704	0.851341
C95	C	1.049256	-0.339116	0.149064
C96	C	1.549256	0.160884	0.649064
C97	C	1.049387	-0.338938	0.067273
C98	C	1.549387	0.161062	0.567273
C99	C	1.098328	-0.293994	0.804129
C100	C	1.598328	0.206006	1.304129
C101	C	1.098338	-0.293974	0.880988
C102	C	1.598338	0.206026	1.380988
C103	C	1.000378	-0.383995	0.877164
C104	C	1.500378	0.116005	1.377164
C105	C	1.000365	-0.384011	0.800306
C106	C	1.500365	0.115989	1.300306
C107	C	1.049344	-0.339012	0.763790
C108	C	1.549344	0.160988	1.263790
C109	C	1.049367	-0.338975	0.917508
C110	C	1.549367	0.161025	1.417508
C111	C	1.049377	-0.338953	1.000843
C112	C	1.549377	0.161047	1.500843
C113	C	1.049334	-0.339033	0.680450
C114	C	1.549334	0.160967	1.180450
H115	H	0.622829	-0.257556	0.429244
H116	H	1.122829	0.242444	0.929244
H117	H	1.117762	-0.740291	0.408866
H118	H	1.617762	-0.240291	0.908866
H119	H	0.980876	-0.937231	0.271751
H120	H	1.480876	-0.437231	0.771751
C121	C	0.473619	-0.245343	0.442642
C122	C	0.973619	0.254657	0.942642
C123	C	0.525406	-0.205982	0.485598
C124	C	1.025406	0.294018	0.985598
C125	C	0.489043	-0.160996	0.534738
C126	C	0.989043	0.339004	1.034738
H127	H	0.444926	-0.214580	0.415925
H128	H	0.944926	0.285420	0.915925
H129	H	0.442524	-0.272295	0.473566
H130	H	0.942524	0.227705	0.973566
H131	H	0.556488	-0.179032	0.454679
H132	H	1.056488	0.320968	0.954679
H133	H	0.554101	-0.236726	0.512331
H134	H	1.054101	0.263274	1.012331
H135	H	0.457948	-0.187948	0.565662
H136	H	0.957948	0.312052	1.065662
H137	H	0.460351	-0.130238	0.508015
H138	H	0.960351	0.369762	1.008015
H139	H	0.524174	-0.134289	0.563894
H140	H	1.024174	0.365711	1.063894
C141	C	1.151581	-0.245250	0.764437
C142	C	1.651581	0.254750	1.264437
C143	C	1.197065	-0.285112	0.718645
C144	C	1.697065	0.214888	1.218645
C145	C	1.246135	-0.240229	0.682080
C146	C	1.746135	0.259771	1.182080
H147	H	1.124810	-0.214574	0.735690
H148	H	1.624810	0.285426	1.235690
H149	H	1.180796	-0.218446	0.799447
H150	H	1.680796	0.281554	1.299447
H151	H	1.167853	-0.311904	0.683640
H152	H	1.667853	0.188096	1.183640
H153	H	1.223852	-0.315786	0.747374
H154	H	1.723852	0.184214	1.247374
H155	H	1.275350	-0.213426	0.717090
H156	H	1.775350	0.286574	1.217090
H157	H	1.219358	-0.209556	0.653337
H158	H	1.719358	0.290444	1.153337
H159	H	1.277006	-0.267269	0.651011
H160	H	1.777006	0.232731	1.151011
C161	C	1.164786	-0.927119	0.455957
C162	C	1.664786	-0.427119	0.955957
C163	C	1.203979	-0.974983	0.495216
C164	C	1.703979	-0.474983	0.995216
C165	C	1.252585	-0.938301	0.543948
C166	C	1.752585	-0.438301	1.043948
H167	H	1.198122	-0.898436	0.429112
H168	H	1.698122	-0.398436	0.929112
H169	H	1.137829	-0.898459	0.489241
H170	H	1.637829	-0.398459	0.989241
H171	H	1.230935	-1.003632	0.461937
H172	H	1.730935	-0.503632	0.961937
H173	H	1.170662	-1.003668	0.522077
H174	H	1.670662	-0.503668	1.022077
H175	H	1.225628	-0.909641	0.577231
H176	H	1.725628	-0.409641	1.077231
H177	H	1.285917	-0.909619	0.517096
H178	H	1.785917	-0.409619	1.017096
H179	H	1.279179	-0.970771	0.570595
H180	H	1.779179	-0.470771	1.070595
C181	C	0.933953	-0.750651	0.224752
C182	C	1.433953	-0.250651	0.724752
C183	C	0.941032	-0.822880	0.231789
C184	C	1.441032	-0.322880	0.731789
C185	C	0.892545	-0.859840	0.183154
C186	C	1.392545	-0.359840	0.683154
H187	H	0.884965	-0.738724	0.235931
H188	H	1.384965	-0.238724	0.735931
H189	H	0.945259	-0.738663	0.175802
H190	H	1.445259	-0.238663	0.675802
H191	H	0.929721	-0.834863	0.280728
H192	H	1.429721	-0.334863	0.780728
H193	H	0.990009	-0.834828	0.220604
H194	H	1.490009	-0.334828	0.720604
H195	H	0.903851	-0.847852	0.134204
H196	H	1.403851	-0.347852	0.634204
H197	H	0.843560	-0.847907	0.194337
H198	H	1.343560	-0.347907	0.694337
H199	H	0.897346	-0.908851	0.187917
H200	H	1.397346	-0.408851	0.687917
H201	H	0.476426	-0.420695	0.251312
H202	H	0.976426	0.079305	0.751312
H203	H	0.960472	-0.420670	0.767461
H204	H	1.460472	0.079330	1.267461
H205	H	1.123308	-0.606939	0.414455
H206	H	1.623308	-0.106939	0.914455
H207	H	1.138224	-0.257315	0.913829
H208	H	1.638224	0.242685	1.413829
C209	C	0.625650	-0.432965	0.237958
C210	C	1.125650	0.067035	0.737958
C211	C	0.573867	-0.472359	0.195028
C212	C	1.073867	0.027641	0.695028
C213	C	0.610234	-0.517401	0.145950
C214	C	1.110234	-0.017401	0.645950
H215	H	0.656759	-0.406074	0.207006
H216	H	1.156759	0.093926	0.707006
H217	H	0.654328	-0.463699	0.264744
H218	H	1.154328	0.036301	0.764744
H219	H	0.545202	-0.441628	0.168244
H220	H	1.045202	0.058372	0.668244
H221	H	0.542756	-0.499263	0.225960
H222	H	1.042756	0.000737	0.725960
H223	H	0.638912	-0.548136	0.172736
H224	H	1.138912	-0.048136	0.672736
H225	H	0.641342	-0.490505	0.115003
H226	H	1.141342	0.009495	0.615003
H227	H	0.575105	-0.544140	0.116821
H228	H	1.075105	-0.044140	0.616821
H229	H	0.975333	-1.070586	0.266158
H230	H	1.475333	-0.570586	0.766158
C231	C	1.158299	-1.080435	0.449434
C232	C	1.658299	-0.580435	0.949434
C233	C	1.145217	-1.152691	0.436340
C234	C	1.645217	-0.652691	0.936340
C235	C	1.190637	-1.189522	0.481882
C236	C	1.690637	-0.689522	0.981882
H237	H	1.208281	-1.068440	0.439259
H238	H	1.708281	-0.568440	0.939259
H239	H	1.147990	-1.068406	0.499390
H240	H	1.647990	-0.568406	0.999390
H241	H	1.155531	-1.164714	0.386394
H242	H	1.655531	-0.664714	0.886394
H243	H	1.095244	-1.164706	0.446519
H244	H	1.595244	-0.664706	0.946519
H245	H	1.180328	-1.177493	0.531839
H246	H	1.680328	-0.677493	1.031839
H247	H	1.240616	-1.177522	0.471703
H248	H	1.740616	-0.677522	0.971703
H249	H	1.181762	-1.238551	0.473009
H250	H	1.681762	-0.738551	0.973009
C251	C	0.940218	-0.597334	0.231074
C252	C	1.440218	-0.097334	0.731074
C253	C	0.897042	-0.645311	0.187797
C254	C	1.397042	-0.145311	0.687797
C255	C	0.851483	-0.608759	0.142132
C256	C	1.351483	-0.108759	0.642132
H257	H	0.909264	-0.568667	0.260322
H258	H	1.409264	-0.068667	0.760322
H259	H	0.969560	-0.568669	0.200194
H260	H	1.469560	-0.068669	0.700194
H261	H	0.867702	-0.673965	0.218673
H262	H	1.367702	-0.173965	0.718673
H263	H	0.927976	-0.673980	0.158535
H264	H	1.427976	-0.173980	0.658535
H265	H	0.880825	-0.580093	0.111253
H266	H	1.380825	-0.080093	0.611253
H267	H	0.820534	-0.580093	0.171386
H268	H	1.320534	-0.080093	0.671386
H269	H	0.822187	-0.641306	0.112759
H270	H	1.322187	-0.141306	0.612759
H271	H	0.960503	-0.420633	0.906905
H272	H	1.460503	0.079367	1.406905
