data_functionalizedCrystal
_audit_creation_method	'MofGen! by Chris Wilmer'
_symmetry_space_group_name_H-M	'P1'
_symmetry_Int_Tables_number	1
_symmetry_cell_setting	triclinic
loop_
_symmetry_equiv_pos_as_xyz
  x,y,z
_cell_length_a	11.792241
_cell_length_b	14.044190
_cell_length_c	10.268362
_cell_angle_alpha	90.010061
_cell_angle_beta	89.999626
_cell_angle_gamma	91.307403
loop_
_atom_site_label
_atom_site_type_symbol
_atom_site_fract_x
_atom_site_fract_y
_atom_site_fract_z
O1	O	1.519116	-0.129987	-0.108189
O2	O	1.769116	0.120013	0.141811
O3	O	2.019116	0.370013	0.391811
O4	O	2.269116	0.620013	0.641811
O5	O	1.190032	-0.143384	-0.108221
O6	O	1.440032	0.106616	0.141779
O7	O	1.690032	0.356616	0.391779
O8	O	1.940032	0.606616	0.641779
O9	O	1.349630	0.001325	-0.108179
O10	O	1.599630	0.251325	0.141821
O11	O	1.849630	0.501325	0.391821
O12	O	2.099630	0.751325	0.641821
O13	O	1.359518	-0.274696	-0.108230
O14	O	1.609518	-0.024696	0.141770
O15	O	1.859518	0.225304	0.391770
O16	O	2.109518	0.475304	0.641770
O17	O	1.349615	0.001331	0.108421
O18	O	1.599615	0.251331	0.358421
O19	O	1.849615	0.501331	0.608421
O20	O	2.099615	0.751331	0.858421
O21	O	1.190017	-0.143378	0.108380
O22	O	1.440017	0.106622	0.358380
O23	O	1.690017	0.356622	0.608380
O24	O	1.940017	0.606622	0.858380
O25	O	1.519100	-0.129981	0.108412
O26	O	1.769100	0.120019	0.358412
O27	O	2.019100	0.370019	0.608412
O28	O	2.269100	0.620019	0.858412
Cu29	Cu	1.354557	-0.136679	0.128173
Cu30	Cu	1.604557	0.113321	0.378173
Cu31	Cu	1.854557	0.363321	0.628173
Cu32	Cu	2.104557	0.613321	0.878173
Cu33	Cu	1.354575	-0.136686	-0.127982
Cu34	Cu	1.604575	0.113314	0.122018
Cu35	Cu	1.854575	0.363314	0.372018
Cu36	Cu	2.104575	0.613314	0.622018
O37	O	1.359502	-0.274690	0.108371
O38	O	1.609502	-0.024690	0.358371
O39	O	1.859502	0.225310	0.608371
O40	O	2.109502	0.475310	0.858371
C41	C	1.147655	-0.142539	0.000076
C42	C	1.397655	0.107461	0.250076
C43	C	1.647655	0.357461	0.500076
C44	C	1.897655	0.607461	0.750076
C45	C	1.021404	-0.140021	0.000065
C46	C	1.271404	0.109979	0.250065
C47	C	1.521404	0.359979	0.500065
C48	C	1.771404	0.609979	0.750065
C49	C	0.790257	-0.135389	0.000103
C50	C	1.040257	0.114611	0.250103
C51	C	1.290257	0.364611	0.500103
C52	C	1.540257	0.614611	0.750103
C53	C	0.918884	-0.137962	0.000082
C54	C	1.168884	0.112038	0.250082
C55	C	1.418884	0.362038	0.500082
C56	C	1.668884	0.612038	0.750082
C57	C	1.561478	-0.130826	0.000112
C58	C	1.811478	0.119174	0.250112
C59	C	2.061478	0.369174	0.500112
C60	C	2.311478	0.619174	0.750112
C61	C	1.687728	-0.133344	0.000115
C62	C	1.937728	0.116656	0.250115
C63	C	2.187728	0.366656	0.500115
C64	C	2.437728	0.616656	0.750115
C65	C	1.345297	0.036664	0.000124
C66	C	1.595297	0.286664	0.250124
C67	C	1.845297	0.536664	0.500124
C68	C	2.095297	0.786664	0.750124
C69	C	1.332395	0.141957	0.000134
C70	C	1.582395	0.391957	0.250134
C71	C	1.832395	0.641957	0.500134
C72	C	2.082395	0.891957	0.750134
C73	C	1.363835	-0.310029	0.000064
C74	C	1.613835	-0.060029	0.250064
C75	C	1.863835	0.189971	0.500064
C76	C	2.113835	0.439971	0.750064
C77	C	1.376737	-0.415322	0.000046
C78	C	1.626737	-0.165322	0.250046
C79	C	1.876737	0.084678	0.500046
C80	C	2.126737	0.334678	0.750046
C81	C	1.400312	0.391894	0.000090
C82	C	1.650312	0.641894	0.250090
C83	C	1.900312	0.891894	0.500090
C84	C	2.150312	1.141894	0.750090
C85	C	1.308825	0.334735	0.000090
C86	C	1.558825	0.584735	0.250090
C87	C	1.808825	0.834735	0.500090
C88	C	2.058825	1.084735	0.750090
C89	C	1.321943	0.227463	0.000115
C90	C	1.571943	0.477463	0.250115
C91	C	1.821943	0.727463	0.500115
C92	C	2.071943	0.977463	0.750115
C93	C	1.387197	0.499176	0.000065
C94	C	1.637197	0.749176	0.250065
C95	C	1.887197	0.999176	0.500065
C96	C	2.137197	1.249176	0.750065
N97	N	1.354552	-0.136673	0.308339
N98	N	1.604552	0.113327	0.558339
N99	N	1.854552	0.363327	0.808339
N100	N	2.104552	0.613327	1.058339
N101	N	1.354589	-0.136684	-0.308148
N102	N	1.604589	0.113316	-0.058148
N103	N	1.854589	0.363316	0.191852
N104	N	2.104589	0.613316	0.441852
C105	C	1.354570	-0.136684	0.574010
C106	C	1.604570	0.113316	0.824010
C107	C	1.854570	0.363316	1.074010
C108	C	2.104570	0.613316	1.324010
C109	C	1.354556	-0.136681	0.426172
C110	C	1.604556	0.113319	0.676172
C111	C	1.854556	0.363319	0.926172
C112	C	2.104556	0.613319	1.176172
H113	H	1.220649	0.366364	0.000074
H114	H	1.470649	0.616364	0.250074
H115	H	1.720649	0.866364	0.500074
H116	H	1.970649	1.116364	0.750074
H117	H	1.488481	0.360267	0.000112
H118	H	1.738481	0.610267	0.250112
H119	H	1.988481	0.860267	0.500112
H120	H	2.238481	1.110267	0.750112
