data_functionalizedCrystal
_audit_creation_method	'MofGen! by Chris Wilmer'
_symmetry_space_group_name_H-M	'P1'
_symmetry_Int_Tables_number	1
_symmetry_cell_setting	triclinic
loop_
_symmetry_equiv_pos_as_xyz
  x,y,z
_cell_length_a	10.967916
_cell_length_b	10.908878
_cell_length_c	8.140239
_cell_angle_alpha	89.997076
_cell_angle_beta	77.873734
_cell_angle_gamma	107.315263
loop_
_atom_site_label
_atom_site_type_symbol
_atom_site_fract_x
_atom_site_fract_y
_atom_site_fract_z
O1	O	-1.618360	0.179764	0.321548
O2	O	-1.251498	0.196975	0.217687
O3	O	-1.483561	0.001866	0.283392
O4	O	-1.386297	0.374873	0.255843
O5	O	-1.483551	0.001863	0.556616
O6	O	-1.251488	0.196972	0.490911
O7	O	-1.618350	0.179762	0.594772
Zn8	Zn	-1.434918	0.188367	0.586222
Zn9	Zn	-1.434931	0.188370	0.226237
O10	O	-1.386287	0.374871	0.529067
C11	C	-1.205265	0.195722	0.341211
C12	C	-1.067521	0.191976	0.302215
C13	C	-1.006105	0.190305	0.426367
C14	C	-0.863740	0.186433	0.386066
C15	C	-1.492646	-0.045897	0.422575
C16	C	-1.519716	-0.188212	0.430233
C17	C	-1.420943	-0.238090	0.402267
C18	C	-1.448919	-0.385179	0.410181
C19	C	-0.664584	0.181015	0.471246
C20	C	-0.802327	0.184762	0.510236
C21	C	-1.377202	0.422634	0.389880
C22	C	-1.350132	0.564948	0.382211
N23	N	-1.434918	0.188364	0.831905
N24	N	-1.434943	0.188363	-0.019442
H25	H	-0.855139	0.186193	0.646374
H26	H	-1.244851	-0.368866	0.352421
H27	H	-1.014705	0.190537	0.166088
C28	C	-1.662042	-0.405974	0.470506
C29	C	-1.661838	-0.277556	0.470458
H30	H	-1.749786	-0.461127	0.495329
H31	H	-1.618255	-0.421955	0.553387
H32	H	-1.618241	-0.421936	0.362821
H33	H	-1.705632	-0.261591	0.578148
H34	H	-1.705644	-0.261569	0.387574
H35	H	-1.315669	-0.171898	0.372473
H36	H	-1.554200	-0.451367	0.439993
H37	H	-1.058924	0.191733	0.562496
H38	H	-0.810929	0.184994	0.249929
