data_functionalizedCrystal
_audit_creation_method	'MofGen! by Chris Wilmer'
_symmetry_space_group_name_H-M	'P1'
_symmetry_Int_Tables_number	1
_symmetry_cell_setting	triclinic
loop_
_symmetry_equiv_pos_as_xyz
  x,y,z
_cell_length_a	6.817900
_cell_length_b	10.773894
_cell_length_c	11.102269
_cell_angle_alpha	95.423960
_cell_angle_beta	108.605385
_cell_angle_gamma	96.645922
loop_
_atom_site_label
_atom_site_type_symbol
_atom_site_fract_x
_atom_site_fract_y
_atom_site_fract_z
V1	V	-3.974360	-0.388948	-0.171169
O2	O	-3.936004	-0.381540	0.013031
O3	O	-3.952074	-0.386291	-0.344022
O4	O	-3.891316	-0.558580	-0.166428
O5	O	-3.997183	-0.208059	-0.165793
V6	V	-4.459093	-0.367312	-0.149386
O7	O	-4.232964	-0.436408	-0.218953
O8	O	-4.650686	-0.319851	-0.101602
O9	O	-4.258172	-0.369968	0.023467
O10	O	-4.614845	-0.374719	-0.333587
O11	O	-4.553667	-0.548200	-0.154763
O12	O	-4.318930	-0.197680	-0.154128
C13	C	-3.804549	-0.380156	-0.386226
C14	C	-3.867384	-0.379115	-0.527521
C15	C	-3.975812	-0.491880	-0.743447
C16	C	-3.916789	-0.492864	-0.610686
C17	C	-3.877023	-0.264375	-0.577124
C18	C	-3.936059	-0.263393	-0.709884
C19	C	-3.976858	-0.635456	-0.453525
C20	C	-3.967192	-0.750192	-0.403926
C21	C	-3.887028	-0.846737	-0.457716
C22	C	-3.816482	-0.828549	-0.561103
C23	C	-3.826126	-0.713811	-0.610695
C24	C	-3.906339	-0.617272	-0.556908
C25	C	-3.875976	-0.120808	-0.867048
C26	C	-3.885608	-0.006068	-0.916641
C27	C	-3.965759	0.090488	-0.862851
C28	C	-4.036271	0.072313	-0.759457
C29	C	-4.026640	-0.042427	-0.709864
C30	C	-3.946496	-0.138983	-0.763663
C31	C	-3.727045	-0.599926	-0.159685
C32	C	-3.740604	-0.738601	-0.156952
C33	C	-3.919395	-0.806463	-0.161688
C34	C	-3.933413	-0.949791	-0.158864
C35	C	-4.069041	-0.376099	0.065664
C36	C	-3.985443	-0.377149	0.206958
C37	C	-4.146545	-0.156327	-0.160875
C38	C	-4.112224	-0.017651	-0.163601
H39	H	-3.751180	-0.907165	-0.604883
C40	C	-3.823204	-0.141003	-0.486621
C41	C	-3.769380	-0.166414	-0.359738
C42	C	-3.719757	-0.052792	-0.276334
H43	H	-3.940905	-0.097788	-0.505405
H44	H	-3.708312	-0.089911	-0.497318
H45	H	-3.884260	-0.217486	-0.349047
H46	H	-3.651667	-0.209611	-0.340914
H47	H	-3.604866	-0.001699	-0.287030
H48	H	-3.837467	-0.009585	-0.295129
H49	H	-3.683214	-0.070017	-0.190234
H50	H	-3.768678	-0.699000	-0.694866
C51	C	-3.550136	-0.802495	-0.148489
C52	C	-3.386471	-0.750256	-0.035667
C53	C	-3.210982	-0.809091	-0.027818
H54	H	-3.507517	-0.790024	-0.220556
H55	H	-3.584733	-0.890319	-0.147606
H56	H	-3.351876	-0.662453	-0.036561
H57	H	-3.429021	-0.762725	0.036419
H58	H	-3.245579	-0.896915	-0.026935
H59	H	-3.168383	-0.796617	-0.099891
H60	H	-3.099921	-0.773664	0.048736
H61	H	-3.879156	-0.940157	-0.417323
H62	H	-4.024649	-0.764994	-0.319750
H63	H	-4.254932	-0.969648	-0.169753
C64	C	-4.103656	-0.062204	-0.597789
C65	C	-4.315816	-0.049393	-0.632581
C66	C	-4.386849	-0.067627	-0.529384
H67	H	-4.025032	-0.001100	-0.526016
H68	H	-4.086579	-0.144386	-0.575972
H69	H	-4.332876	0.032777	-0.654380
H70	H	-4.394492	-0.110494	-0.704338
H71	H	-4.369772	-0.149810	-0.507568
H72	H	-4.308211	-0.006521	-0.457618
H73	H	-4.530810	-0.058949	-0.552980
H74	H	-4.016022	-0.584507	-0.811152
C75	C	-4.123689	0.177088	-0.701270
C76	C	-4.298009	0.206514	-0.795262
C77	C	-4.378607	0.303017	-0.741705
H78	H	-4.019407	0.249816	-0.669832
H79	H	-4.164435	0.149848	-0.632626
H80	H	-4.257258	0.233758	-0.863883
H81	H	-4.402334	0.133814	-0.826708
H82	H	-4.419352	0.275777	-0.673061
H83	H	-4.274311	0.375737	-0.710268
H84	H	-4.496902	0.322986	-0.805467
H85	H	-4.042166	-0.556855	-0.409729
H86	H	-3.973563	0.183922	-0.903228
H87	H	-3.828157	0.008731	-1.000819
H88	H	-3.810711	-0.199429	-0.910857
H89	H	-4.062082	-0.758451	-0.167826
H90	H	-3.790705	-0.997795	-0.152709
