data_functionalizedCrystal
_audit_creation_method	'MofGen! by Chris Wilmer'
_symmetry_space_group_name_H-M	'P1'
_symmetry_Int_Tables_number	1
_symmetry_cell_setting	triclinic
loop_
_symmetry_equiv_pos_as_xyz
  x,y,z
_cell_length_a	19.288859
_cell_length_b	19.288865
_cell_length_c	9.730223
_cell_angle_alpha	89.990377
_cell_angle_beta	89.995842
_cell_angle_gamma	83.134986
loop_
_atom_site_label
_atom_site_type_symbol
_atom_site_fract_x
_atom_site_fract_y
_atom_site_fract_z
O1	O	0.921350	0.086627	-0.114333
O2	O	0.719089	0.098320	-0.114332
O3	O	0.826064	-0.008657	-0.114305
O4	O	0.814375	0.193604	-0.114359
O5	O	0.826057	-0.008660	0.114275
O6	O	0.719082	0.098317	0.114248
O7	O	0.921343	0.086624	0.114247
Zn8	Zn	0.820211	0.092470	0.150540
Zn9	Zn	0.820220	0.092474	-0.150624
O10	O	0.814368	0.193601	0.114221
C11	C	0.693209	0.097943	-0.000041
C12	C	0.616105	0.096816	-0.000039
C13	C	0.052064	0.151959	-0.000056
C14	C	0.124511	0.153025	-0.000064
C15	C	0.169217	0.090255	-0.000044
C16	C	0.141472	0.026416	-0.000053
C17	C	0.069027	0.025353	-0.000059
C18	C	0.290485	0.043441	0.080055
C19	C	0.362929	0.044507	0.080070
C20	C	0.392663	0.093533	-0.000031
C21	C	0.349943	0.141504	-0.080129
C22	C	0.277498	0.140440	-0.080135
C23	C	0.247773	0.091401	-0.000038
C24	C	0.498955	0.158523	-0.000041
C25	C	0.571403	0.159586	-0.000057
C26	C	0.588364	0.032976	-0.000032
C27	C	0.515917	0.031915	-0.000029
C28	C	0.471216	0.094691	-0.000027
C29	C	0.825684	-0.034535	-0.000011
C30	C	0.824555	-0.111638	0.000001
C31	C	0.887323	-0.156336	0.000008
C32	C	0.886262	-0.228783	-0.000014
C33	C	0.822430	-0.256529	-0.000015
C34	C	0.759654	-0.211822	-0.000029
C35	C	0.760716	-0.139376	-0.000021
C36	C	0.772248	-0.364816	0.080052
C37	C	0.771188	-0.437261	0.080053
C38	C	0.819150	-0.479975	-0.000045
C39	C	0.868184	-0.450237	-0.080126
C40	C	0.869247	-0.377791	-0.080118
C41	C	0.821271	-0.335083	-0.000024
C42	C	0.880773	-0.603228	-0.000064
C43	C	0.879709	-0.675676	-0.000095
C44	C	0.753099	-0.658713	-0.000096
C45	C	0.754164	-0.586267	-0.000079
C46	C	0.818003	-0.558529	-0.000057
C47	C	0.947223	0.087001	-0.000046
C48	C	1.024327	0.088128	-0.000057
C49	C	0.814747	0.219479	-0.000076
C50	C	0.815876	0.296583	-0.000098
N51	N	0.820210	0.092467	0.356076
N52	N	0.820227	0.092472	-0.356160
C53	C	0.867595	0.045118	0.428014
C54	C	0.867602	0.045118	0.571897
C55	C	0.772837	0.139824	0.571892
C56	C	0.772828	0.139820	0.428011
H57	H	0.593984	0.211567	-0.000068
H58	H	0.734260	0.178378	0.630476
H59	H	0.906175	0.006560	0.369448
N60	N	0.684251	-0.688631	-0.000074
H61	H	0.644647	-0.649318	-0.000066
H62	H	0.681050	-0.718312	-0.084812
N63	N	0.953961	-0.277010	0.000000
H64	H	0.981832	-0.268106	-0.084725
H65	H	0.981759	-0.268098	0.084800
H66	H	0.703051	-0.549873	-0.000077
N67	N	0.154441	0.221872	-0.000047
H68	H	0.184126	0.225142	-0.084777
H69	H	0.115094	0.261438	0.000004
N70	N	0.231422	0.192169	-0.166533
H71	H	0.261246	0.223388	-0.217283
H72	H	0.204797	0.166162	-0.234926
N73	N	0.718313	-0.469334	0.166438
H74	H	0.688086	-0.431283	0.217171
H75	H	0.688092	-0.495400	0.105014
N76	N	0.922127	-0.345714	-0.166485
H77	H	0.952352	-0.383761	-0.217231
H78	H	0.897008	-0.312225	-0.234881
N79	N	0.721712	0.190886	0.350409
H80	H	0.691699	0.220887	0.417809
H81	H	0.748197	0.221525	0.290680
N82	N	0.189687	-0.041286	-0.000037
H83	H	0.239790	-0.030927	-0.000028
H84	H	0.180721	-0.069119	0.084703
H85	H	0.493333	-0.020063	-0.000022
H86	H	0.015673	0.203077	-0.000061
H87	H	0.733190	-0.330044	0.145285
H88	H	0.374151	0.181427	-0.145351
H89	H	0.906185	0.006561	0.630465
H90	H	0.462558	0.209639	-0.000042
H91	H	0.266283	0.003515	0.145286
N92	N	0.636572	-0.034728	-0.000026
H93	H	0.686676	-0.024370	-0.000026
H94	H	0.627610	-0.062562	0.084714
N95	N	0.409001	-0.007222	0.166473
H96	H	0.379174	-0.038445	0.217206
H97	H	0.443057	-0.036560	0.105060
H98	H	0.046445	-0.026628	-0.000060
H99	H	0.932754	-0.580643	-0.000053
N100	N	0.956175	-0.126418	0.000029
H101	H	0.995777	-0.165732	0.000029
H102	H	0.959379	-0.096721	-0.084706
N103	N	0.919923	-0.496295	-0.166521
H104	H	0.911809	-0.546701	-0.154384
H105	H	0.913618	-0.482748	-0.266407
H106	H	0.930825	-0.712069	-0.000097
H107	H	0.707681	-0.234417	-0.000032
H108	H	0.709601	-0.102982	-0.000026
