data_functionalizedCrystal
_audit_creation_method	'MofGen! by Chris Wilmer'
_symmetry_space_group_name_H-M	'P1'
_symmetry_Int_Tables_number	1
_symmetry_cell_setting	triclinic
loop_
_symmetry_equiv_pos_as_xyz
  x,y,z
_cell_length_a	12.827893
_cell_length_b	16.625546
_cell_length_c	16.625539
_cell_angle_alpha	90.030397
_cell_angle_beta	90.018604
_cell_angle_gamma	90.022629
loop_
_atom_site_label
_atom_site_type_symbol
_atom_site_fract_x
_atom_site_fract_y
_atom_site_fract_z
Zn1	Zn	1.597611	-0.320997	0.455855
Zn2	Zn	1.597486	-0.455840	0.321018
Zn3	Zn	1.422855	-0.321025	0.321041
Zn4	Zn	1.422816	-0.455791	0.455812
O5	O	1.510192	-0.388413	0.388431
O6	O	1.743831	-0.338892	0.437977
O7	O	1.574284	-0.437989	0.208188
O8	O	1.446105	-0.208189	0.338952
O9	O	1.743739	-0.437961	0.338913
O10	O	1.574498	-0.208168	0.438000
O11	O	1.445983	-0.338941	0.208205
O12	O	1.276614	-0.338894	0.338910
O13	O	1.446040	-0.437878	0.568650
O14	O	1.276585	-0.437906	0.437926
O15	O	1.574461	-0.338845	0.568682
O16	O	1.574247	-0.568666	0.338871
O17	O	1.445918	-0.568630	0.437904
C18	C	1.238682	-0.388398	0.388416
C19	C	1.122529	-0.388412	0.388429
C20	C	1.070790	-0.339476	0.437525
C21	C	0.950739	-0.339489	0.437539
C22	C	1.510093	-0.597904	0.388398
C23	C	1.510146	-0.687525	0.388410
C24	C	1.510329	-1.015701	0.388494
C25	C	1.510275	-0.924392	0.388473
C26	C	1.510237	-0.851616	0.388452
C27	C	1.510184	-0.760302	0.388431
C28	C	1.782762	-0.388429	0.388447
C29	C	1.898915	-0.388435	0.388454
C30	C	1.510320	-0.178104	0.388483
C31	C	1.510374	-0.088483	0.388505
C32	C	1.510260	-0.388353	0.598740
C33	C	1.510289	-0.388328	0.688362
C34	C	1.510185	-0.388415	0.178941
C35	C	1.510358	-0.388213	0.089320
C36	C	1.510337	-0.388237	1.016537
C37	C	1.510321	-0.388265	0.925229
C38	C	1.510314	-0.388283	0.852452
C39	C	1.510296	-0.388310	0.761138
H40	H	1.077948	-0.430314	0.346404
H41	H	1.115371	-0.297569	0.479545
H42	H	0.943403	-0.430337	0.346423
H43	H	0.906245	-0.297596	0.479576
