data_functionalizedCrystal
_audit_creation_method	'MofGen! by Chris Wilmer'
_symmetry_space_group_name_H-M	'P1'
_symmetry_Int_Tables_number	1
_symmetry_cell_setting	triclinic
loop_
_symmetry_equiv_pos_as_xyz
  x,y,z
_cell_length_a	12.827893
_cell_length_b	13.897448
_cell_length_c	12.827885
_cell_angle_alpha	89.967724
_cell_angle_beta	89.980538
_cell_angle_gamma	90.017663
loop_
_atom_site_label
_atom_site_type_symbol
_atom_site_fract_x
_atom_site_fract_y
_atom_site_fract_z
Zn1	Zn	1.597655	-0.383969	-0.590831
Zn2	Zn	1.930988	-0.050636	-0.257497
Zn3	Zn	2.264322	0.282698	0.075836
Zn4	Zn	1.597541	-0.545295	-0.416083
Zn5	Zn	1.930875	-0.211962	-0.082750
Zn6	Zn	2.264208	0.121371	0.250583
Zn7	Zn	1.422896	-0.384016	-0.416104
Zn8	Zn	1.756229	-0.050683	-0.082771
Zn9	Zn	2.089562	0.282651	0.250562
Zn10	Zn	1.422875	-0.545224	-0.590783
Zn11	Zn	1.756208	-0.211890	-0.257450
Zn12	Zn	2.089541	0.121443	0.075883
O13	O	1.510242	-0.464626	-0.503450
O14	O	1.843575	-0.131293	-0.170117
O15	O	2.176908	0.202041	0.163216
O16	O	1.743876	-0.405380	-0.567661
O17	O	2.077209	-0.072046	-0.234328
O18	O	2.410542	0.261287	0.099006
O19	O	1.574336	-0.523951	-0.269850
O20	O	1.907669	-0.190618	0.063483
O21	O	2.241002	0.142716	0.396817
O22	O	1.446134	-0.249028	-0.439311
O23	O	1.779468	0.084305	-0.105977
O24	O	2.112801	0.417639	0.227356
O25	O	1.743792	-0.523905	-0.439275
O26	O	2.077126	-0.190572	-0.105942
O27	O	2.410459	0.142761	0.227392
O28	O	1.574529	-0.248994	-0.567681
O29	O	1.907862	0.084340	-0.234348
O30	O	2.241196	0.417673	0.098985
O31	O	1.446024	-0.405460	-0.269865
O32	O	1.779357	-0.072126	0.063468
O33	O	2.112691	0.261207	0.396801
O34	O	1.276657	-0.405390	-0.439265
O35	O	1.609990	-0.072057	-0.105931
O36	O	1.943324	0.261277	0.227402
O37	O	1.446098	-0.523783	-0.737026
O38	O	1.779431	-0.190450	-0.403692
O39	O	2.112765	0.142884	-0.070359
O40	O	1.276641	-0.523829	-0.567601
O41	O	1.609975	-0.190495	-0.234267
O42	O	1.943308	0.142838	0.099066
O43	O	1.574509	-0.405310	-0.737060
O44	O	1.907842	-0.071977	-0.403727
O45	O	2.241175	0.261357	-0.070394
O46	O	1.574315	-0.680267	-0.439229
O47	O	1.907648	-0.346934	-0.105896
O48	O	2.240982	-0.013601	0.227438
O49	O	1.445988	-0.680215	-0.567580
O50	O	1.779321	-0.346881	-0.234247
O51	O	2.112655	-0.013548	0.099086
C52	C	1.238732	-0.464607	-0.503430
C53	C	1.572065	-0.131274	-0.170097
C54	C	1.905398	0.202059	0.163236
C55	C	1.122579	-0.464623	-0.503447
C56	C	1.455912	-0.131289	-0.170113
C57	C	1.789245	0.202044	0.163220
C58	C	1.070814	-0.523321	-0.566853
C59	C	1.404147	-0.189988	-0.233520
C60	C	1.737480	0.143345	0.099813
C61	C	0.950763	-0.523338	-0.566872
C62	C	1.284097	-0.190005	-0.233538
C63	C	1.617430	0.143328	0.099795
C64	C	1.510165	-0.715240	-0.503420
C65	C	1.843499	-0.381907	-0.170087
C66	C	2.176832	-0.048574	0.163247
C67	C	1.510228	-0.822454	-0.503442
C68	C	1.843562	-0.489121	-0.170109
C69	C	2.176895	-0.155788	0.163225
C70	C	1.510338	-1.018749	-0.503508
C71	C	1.843671	-0.685416	-0.170174
C72	C	2.177005	-0.352083	0.163159
C73	C	1.510274	-0.909517	-0.503474
C74	C	1.843607	-0.576183	-0.170141
C75	C	2.176941	-0.242850	0.163192
C76	C	1.782812	-0.464645	-0.503471
C77	C	2.116145	-0.131312	-0.170138
C78	C	2.449478	0.202021	0.163196
C79	C	1.898965	-0.464654	-0.503480
C80	C	2.232298	-0.131320	-0.170146
C81	C	2.565631	0.202013	0.163187
C82	C	1.510314	-0.464533	-0.776021
C83	C	1.843647	-0.131200	-0.442687
C84	C	2.176980	0.202133	-0.109354
C85	C	1.510344	-0.464494	-0.892174
C86	C	1.843678	-0.131161	-0.558841
C87	C	2.177011	0.202173	-0.225507
C88	C	1.510347	-0.213033	-0.503504
C89	C	1.843680	0.120300	-0.170170
C90	C	2.177013	0.453634	0.163163
C91	C	1.510391	-0.105819	-0.503526
C92	C	1.843725	0.227514	-0.170193
C93	C	2.177058	0.560848	0.163140
C94	C	1.446872	-0.405849	-0.943966
C95	C	1.780205	-0.072516	-0.610633
C96	C	2.113539	0.260818	-0.277300
C97	C	1.446902	-0.405807	-1.064017
C98	C	1.780236	-0.072474	-0.730683
C99	C	2.113569	0.260860	-0.397350
C100	C	1.510230	-0.464649	-0.231940
C101	C	1.843563	-0.131315	0.101393
C102	C	2.176897	0.202018	0.434726
C103	C	1.510402	-0.464416	-0.115788
C104	C	1.843735	-0.131083	0.217546
C105	C	2.177068	0.202250	0.550879
H106	H	1.078020	-0.414377	-0.449180
H107	H	1.411353	-0.081044	-0.115846
H108	H	1.744686	0.252289	0.217487
H109	H	1.115373	-0.573559	-0.621128
H110	H	1.448706	-0.240226	-0.287795
H111	H	1.782039	0.093107	0.045538
H112	H	1.564706	-0.514672	-0.936709
H113	H	1.898040	-0.181338	-0.603376
H114	H	2.231373	0.151995	-0.270043
H115	H	0.906247	-0.573595	-0.621154
H116	H	1.239580	-0.240262	-0.287820
H117	H	1.572913	0.093071	0.045513
H118	H	0.943475	-0.414400	-0.449188
H119	H	1.276808	-0.081067	-0.115855
H120	H	1.610141	0.252266	0.217478
C121	C	1.387659	-0.351258	-0.776564
C122	C	1.720992	-0.017925	-0.443231
C123	C	2.054326	0.315409	-0.109897
C124	C	1.373481	-0.338106	-0.883856
C125	C	1.706814	-0.004772	-0.550522
C126	C	2.040148	0.328561	-0.217189
H127	H	1.342353	-0.309429	-0.739459
H128	H	1.675686	0.023904	-0.406126
H129	H	2.009019	0.357237	-0.072792
H130	H	1.372345	-0.416080	-0.758721
H131	H	1.705678	-0.082747	-0.425387
H132	H	2.039011	0.250587	-0.092054
H133	H	1.457894	-0.337168	-0.758748
H134	H	1.791227	-0.003835	-0.425415
H135	H	2.124561	0.329498	-0.092081
H136	H	1.303248	-0.352203	-0.901673
H137	H	1.636581	-0.018869	-0.568340
H138	H	1.969914	0.314464	-0.235007
H139	H	1.388788	-0.273269	-0.901706
H140	H	1.722121	0.060064	-0.568373
H141	H	2.055455	0.393398	-0.235040
C142	C	1.306476	-0.392461	-1.186868
C143	C	1.639810	-0.059128	-0.853535
C144	C	1.973143	0.274205	-0.520201
C145	C	1.373532	-0.338026	-1.124131
C146	C	1.706866	-0.004693	-0.790797
C147	C	2.040199	0.328640	-0.457464
H148	H	1.261175	-0.350614	-1.223974
H149	H	1.594508	-0.017280	-0.890641
H150	H	1.927841	0.316053	-0.557308
H151	H	1.346319	-0.429212	-1.234908
H152	H	1.679653	-0.095879	-0.901575
H153	H	2.012986	0.237454	-0.568241
H154	H	1.266445	-0.434464	-1.144264
H155	H	1.599778	-0.101131	-0.810930
H156	H	1.933112	0.232203	-0.477597
H157	H	1.413569	-0.296028	-1.166736
H158	H	1.746903	0.037305	-0.833403
H159	H	2.080236	0.370639	-0.500069
H160	H	1.333685	-0.301259	-1.076085
H161	H	1.667018	0.032075	-0.742752
H162	H	2.000351	0.365408	-0.409419
H163	H	1.564750	-0.514623	-1.071254
H164	H	1.898083	-0.181290	-0.737921
H165	H	2.231416	0.152044	-0.404588
