data_functionalizedCrystal
_audit_creation_method	'MofGen! by Chris Wilmer'
_symmetry_space_group_name_H-M	'P1'
_symmetry_Int_Tables_number	1
_symmetry_cell_setting	triclinic
loop_
_symmetry_equiv_pos_as_xyz
  x,y,z
_cell_length_a	12.837943
_cell_length_b	9.730223
_cell_length_c	10.654551
_cell_angle_alpha	89.995540
_cell_angle_beta	89.657184
_cell_angle_gamma	89.997059
loop_
_atom_site_label
_atom_site_type_symbol
_atom_site_fract_x
_atom_site_fract_y
_atom_site_fract_z
O1	O	1.377804	-0.114255	0.326754
O2	O	1.877804	0.385745	0.826754
O3	O	1.075882	-0.114264	0.310613
O4	O	1.575882	0.385736	0.810613
O5	O	1.233784	-0.114256	0.136701
O6	O	1.733784	0.385744	0.636701
O7	O	1.219902	-0.114263	0.500665
O8	O	1.719902	0.385737	1.000665
O9	O	1.233771	0.114324	0.136688
O10	O	1.733771	0.614324	0.636688
O11	O	1.075869	0.114316	0.310600
O12	O	1.575869	0.614316	0.810600
O13	O	1.377791	0.114325	0.326741
O14	O	1.877791	0.614325	0.826741
Zn15	Zn	1.226828	0.150613	0.318668
Zn16	Zn	1.726828	0.650613	0.818668
Zn17	Zn	1.226845	-0.150551	0.318685
Zn18	Zn	1.726845	0.349449	0.818685
O19	O	1.219889	0.114317	0.500652
O20	O	1.719889	0.614317	1.000652
C21	C	1.037216	0.000025	0.305153
C22	C	1.537216	0.500025	0.805153
C23	C	0.922022	0.000022	0.288891
C24	C	1.422022	0.500022	0.788891
C25	C	1.232758	0.000032	0.089786
C26	C	1.732758	0.500032	0.589786
C27	C	1.229708	0.000025	-0.049990
C28	C	1.729708	0.500025	0.450010
N29	N	1.226824	0.356149	0.318656
N30	N	1.726824	0.856149	0.818656
C31	C	0.682470	0.000038	0.484395
C32	C	1.182470	0.500038	0.984395
C33	C	0.574234	0.000036	0.469121
C34	C	1.074234	0.500036	0.969121
C35	C	0.597313	0.000025	0.243070
C36	C	1.097313	0.500025	0.743070
C37	C	0.705548	0.000027	0.258344
C38	C	1.205548	0.500027	0.758344
C39	C	0.748123	0.000032	0.379010
C40	C	1.248123	0.500032	0.879010
C41	C	0.856360	0.000024	0.394284
C42	C	1.356360	0.500024	0.894284
C43	C	0.879437	0.000023	0.168233
C44	C	1.379437	0.500023	0.668233
C45	C	0.771201	0.000021	0.152959
C46	C	1.271201	0.500021	0.652959
C47	C	1.416457	0.000033	0.332200
C48	C	1.916457	0.500033	0.832200
C49	C	1.531651	0.000027	0.348462
C50	C	2.031651	0.500027	0.848462
N51	N	1.226857	-0.356088	0.318688
N52	N	1.726857	0.143912	0.818688
C53	C	1.163382	0.572011	0.234874
C54	C	1.663382	1.072011	0.734874
C55	C	1.163368	0.428129	0.234855
C56	C	1.663368	0.928129	0.734855
C57	C	1.290307	0.428060	0.402474
C58	C	1.790307	0.928060	0.902474
C59	C	1.290325	0.571940	0.402486
C60	C	1.790325	1.071940	0.902486
C61	C	1.228283	-0.124575	-0.115643
C62	C	1.728283	0.375425	0.384357
C63	C	1.225408	-0.124576	-0.246977
C64	C	1.725408	0.375424	0.253023
C65	C	1.225387	0.124634	-0.246994
C66	C	1.725387	0.624634	0.253006
C67	C	1.228254	0.124634	-0.115662
C68	C	1.728254	0.624634	0.384338
C69	C	1.220915	0.000027	0.547567
C70	C	1.720915	0.500027	1.047567
C71	C	1.223965	0.000024	0.687344
C72	C	1.723965	0.500024	1.187344
H73	H	0.891022	0.000030	0.492536
H74	H	1.391022	0.500030	0.992536
Br75	Br	0.539514	0.000044	0.079321
Br76	Br	1.039514	0.500044	0.579321
Br77	Br	0.740255	0.000018	0.648151
Br78	Br	1.240255	0.500018	1.148151
Br79	Br	1.223412	0.293737	-0.336128
Br80	Br	1.723412	0.793737	0.163872
Br81	Br	1.077215	0.330553	0.121106
Br82	Br	1.577215	0.830553	0.621106
H83	H	1.341979	0.369443	0.470702
H84	H	1.841979	0.869443	0.970702
Br85	Br	1.376485	0.669529	0.516233
Br86	Br	1.876485	1.169529	1.016233
H87	H	0.520782	0.000045	0.554937
H88	H	1.020782	0.500045	1.054937
H89	H	1.229409	0.226105	-0.062206
H90	H	1.729409	0.726105	0.437794
H91	H	1.229463	-0.226040	-0.062177
H92	H	1.729463	0.273960	0.437823
H93	H	0.736522	0.000033	0.054715
H94	H	1.236522	0.500033	0.554715
Br95	Br	1.077249	0.669684	0.121145
Br96	Br	1.577249	1.169684	0.621145
Br97	Br	0.968544	-0.000014	0.025201
Br98	Br	1.468544	0.499986	0.525201
H99	H	1.224246	-0.226038	-0.300426
H100	H	1.724246	0.273962	0.199574
