data_functionalizedCrystal
_audit_creation_method	'MofGen! by Chris Wilmer'
_symmetry_space_group_name_H-M	'P1'
_symmetry_Int_Tables_number	1
_symmetry_cell_setting	triclinic
loop_
_symmetry_equiv_pos_as_xyz
  x,y,z
_cell_length_a	11.169417
_cell_length_b	11.169416
_cell_length_c	16.959447
_cell_angle_alpha	90.024665
_cell_angle_beta	90.013959
_cell_angle_gamma	90.009278
loop_
_atom_site_label
_atom_site_type_symbol
_atom_site_fract_x
_atom_site_fract_y
_atom_site_fract_z
Zn1	Zn	-1.834871	0.477817	-0.446932
Zn2	Zn	-1.834787	0.678536	-0.314767
Zn3	Zn	-1.634184	0.477862	-0.314770
Zn4	Zn	-1.634164	0.678454	-0.446906
O5	O	-1.734502	0.578167	-0.380844
O6	O	-2.002809	0.504459	-0.429409
O7	O	-1.808150	0.651970	-0.204156
O8	O	-1.660848	0.309906	-0.332315
O9	O	-2.002748	0.651926	-0.332308
O10	O	-1.808292	0.309874	-0.429413
O11	O	-1.660767	0.504535	-0.204159
O12	O	-1.466231	0.504455	-0.332289
O13	O	-1.660815	0.651785	-0.557520
O14	O	-1.466217	0.651829	-0.429369
O15	O	-1.808273	0.504379	-0.557540
O16	O	-1.808131	0.846475	-0.332283
O17	O	-1.660734	0.846414	-0.429365
C18	C	-1.422677	0.578139	-0.380827
C19	C	-1.289277	0.578155	-0.380839
C20	C	-1.734454	0.889992	-0.380838
C21	C	-1.734543	1.023392	-0.380862
C22	C	-1.734551	0.578068	-0.587012
C23	C	-1.734573	0.578026	-0.674869
C24	C	-1.047544	0.578187	-0.380855
C25	C	-1.180944	0.578169	-0.380844
C26	C	-1.734582	0.265125	-0.380867
C27	C	-1.734616	0.131725	-0.380877
C28	C	-1.657941	0.654647	-1.046337
C29	C	-1.811491	0.501151	-1.046352
C30	C	-1.811459	0.501177	-0.963806
C31	C	-1.734668	0.577940	-0.922522
C32	C	-1.657909	0.654677	-0.963783
C33	C	-1.888225	0.424449	-0.922538
C34	C	-1.888197	0.424473	-0.839987
C35	C	-1.811399	0.501230	-0.798702
C36	C	-1.734636	0.577970	-0.839968
C37	C	-1.657846	0.654733	-0.798684
C38	C	-1.581076	0.731467	-0.839949
C39	C	-1.581112	0.731435	-0.922498
C40	C	-1.811363	0.501263	-0.716153
C41	C	-1.657814	0.654763	-0.716130
C42	C	-1.734521	0.578180	-0.175478
C43	C	-1.734732	0.577884	-0.087621
H44	H	-1.595270	0.717263	-0.682522
H45	H	-1.518558	0.793973	-0.806325
Cl46	Cl	-1.484617	0.827898	-0.974378
Cl47	Cl	-1.984764	0.327963	-0.974442
H48	H	-1.595434	0.717119	-1.079939
H49	H	-1.874017	0.438661	-1.079971
H50	H	-1.950707	0.361990	-0.806396
H51	H	-1.873871	0.438790	-0.682559
