data_functionalizedCrystal
_audit_creation_method	'MofGen! by Chris Wilmer'
_symmetry_space_group_name_H-M	'P1'
_symmetry_Int_Tables_number	1
_symmetry_cell_setting	triclinic
loop_
_symmetry_equiv_pos_as_xyz
  x,y,z
_cell_length_a	33.510554
_cell_length_b	33.509711
_cell_length_c	33.506470
_cell_angle_alpha	60.004186
_cell_angle_beta	60.008358
_cell_angle_gamma	59.994760
loop_
_atom_site_label
_atom_site_type_symbol
_atom_site_fract_x
_atom_site_fract_y
_atom_site_fract_z
O1	O	0.055430	-0.583081	0.487524
O2	O	0.020931	-0.453975	0.392819
O3	O	0.102693	-0.535652	0.392731
O4	O	-0.026332	-0.501404	0.487613
O5	O	0.129823	-0.508526	0.419767
O6	O	0.048062	-0.426850	0.419856
O7	O	0.082561	-0.555956	0.514561
Cu8	Cu	0.067789	-0.488926	0.469677
Cu9	Cu	0.035703	-0.521005	0.437703
O10	O	0.000799	-0.474279	0.514649
N11	N	0.090357	-0.466366	0.492168
N12	N	0.013139	-0.543569	0.415212
C13	C	0.143028	-0.279707	0.544737
C14	C	0.143165	-0.413746	0.678712
C15	C	0.143043	-0.413725	0.544739
C16	C	0.277090	-0.413694	0.544637
C17	C	0.157791	-0.323929	0.559462
C18	C	0.157869	-0.398994	0.634489
C19	C	0.232865	-0.398963	0.559407
C20	C	0.157801	-0.398982	0.559463
C21	C	0.124237	-0.223419	0.525994
C22	C	0.124262	-0.432490	0.525997
C23	C	0.176583	-0.380217	0.578205
C24	C	0.358938	-0.399566	0.501510
C25	C	0.410104	-0.416609	0.484423
C26	C	0.410135	-0.499402	0.515995
C27	C	0.358969	-0.482358	0.533084
C28	C	0.136554	-0.197822	0.475693
C29	C	0.119469	-0.146653	0.458657
C30	C	0.077755	-0.146680	0.542223
C31	C	0.094840	-0.197850	0.559260
C32	C	0.073954	-0.420144	0.538396
C33	C	0.056884	-0.437203	0.521352
C34	C	0.140427	-0.478952	0.479524
C35	C	0.157498	-0.461894	0.496561
C36	C	0.074158	-0.420182	0.760618
C37	C	0.057149	-0.437256	0.811786
C38	C	0.140732	-0.479014	0.811717
C39	C	0.157740	-0.461942	0.760547
C40	C	0.124452	-0.432525	0.734999
C41	C	0.333372	-0.432439	0.525839
C42	C	-0.020612	-0.577650	0.170305
C43	C	-0.020943	-0.788098	0.380897
C44	C	-0.020912	-0.577638	0.380991
C45	C	-0.231336	-0.577418	0.380585
C46	C	-0.129735	-0.611383	0.346870
C47	C	-0.054722	-0.611464	0.347017
C48	C	-0.073450	-0.630202	0.328195
C49	C	-0.087616	-0.712029	0.371239
C50	C	-0.070599	-0.763199	0.388315
C51	C	0.012191	-0.763282	0.356872
C52	C	-0.004828	-0.712113	0.339795
C53	C	-0.155381	-0.623711	0.397158
C54	C	-0.206547	-0.606601	0.414133
C55	C	-0.206417	-0.564839	0.330529
C56	C	-0.155251	-0.581949	0.313554
C57	C	-0.067051	-0.561160	0.334643
C58	C	-0.050026	-0.544131	0.351759
C59	C	-0.008343	-0.627704	0.393612
C60	C	-0.025368	-0.644736	0.376502
C61	C	-0.066922	-0.561168	0.246303
C62	C	-0.049794	-0.544141	0.195134
C63	C	-0.008048	-0.627719	0.195183
C64	C	-0.025175	-0.644745	0.246352
C65	C	-0.054614	-0.611468	0.271911
C66	C	-0.054732	-0.686488	0.346980
C67	C	-0.002117	-0.558258	0.114025
C68	C	-0.002879	-0.844379	0.399940
C69	C	-0.002504	-0.558243	0.399473
C70	C	-0.287615	-0.558285	0.398601
N71	N	0.434975	-0.466279	0.491900
O72	O	0.591199	-0.470749	0.375150
O73	O	0.591395	-0.565767	0.504116
O74	O	0.591311	-0.565550	0.422329
O75	O	0.591283	-0.470966	0.456937
O76	O	0.510024	-0.538522	0.449509
O77	O	0.510108	-0.538739	0.531297
O78	O	0.509913	-0.443721	0.402330
Cu79	Cu	0.502588	-0.488762	0.469295
Cu80	Cu	0.598719	-0.520726	0.437151
O81	O	0.509997	-0.443938	0.484117
N82	N	0.666332	-0.543209	0.414541
N83	N	0.090323	-0.121809	0.492157
O84	O	-0.026342	0.034503	0.487582
O85	O	0.102626	0.034543	0.392540
O86	O	0.020797	0.034507	0.392812
O87	O	0.055487	0.034539	0.487310
O88	O	0.047933	-0.046785	0.419900
O89	O	0.129763	-0.046749	0.419628
O90	O	0.000794	-0.046789	0.514670
Cu91	Cu	0.067756	-0.054192	0.469623
Cu92	Cu	0.035664	0.041946	0.437588
O93	O	0.082623	-0.046753	0.514399
N94	N	0.013091	0.109564	0.415054
N95	N	0.090671	-0.466416	0.836606
O96	O	0.086120	-0.583065	0.992910
O97	O	-0.008880	-0.454051	0.992954
O98	O	-0.008658	-0.535864	0.992931
O99	O	0.085897	-0.501252	0.992933
O100	O	0.018407	-0.508749	0.911642
O101	O	0.018185	-0.426936	0.911665
O102	O	0.113185	-0.555949	0.911621
Cu103	Cu	0.068156	-0.488967	0.904221
Cu104	Cu	0.036148	-0.521034	1.000355
O105	O	0.112963	-0.474136	0.911644
N106	N	0.013633	-0.543590	1.067970
C107	C	0.031262	-0.424144	0.393290
C108	C	0.132513	-0.525291	0.393180
C109	C	0.072229	-0.585787	0.514090
C110	C	-0.029022	-0.484640	0.514200
C111	C	0.550775	-0.565338	0.533954
C112	C	0.550672	-0.565070	0.432670
C113	C	0.550530	-0.444149	0.372492
C114	C	0.550635	-0.444418	0.473776
C115	C	0.132408	-0.005998	0.392963
C116	C	0.031106	-0.006142	0.393333
C117	C	-0.029021	-0.006147	0.514213
C118	C	0.072314	-0.006104	0.513878
C119	C	-0.008430	-0.424240	0.952316
C120	C	-0.008150	-0.525550	0.952271
C121	C	0.112735	-0.585760	0.952260
C122	C	0.112461	-0.484444	0.952286
H123	H	0.016194	-0.427197	0.832639
H124	H	0.129496	-0.125810	0.417697
H125	H	0.079602	-0.622875	0.543835
H126	H	0.023891	-0.387055	0.363546
O127	O	-0.073251	-0.475990	0.549732
C128	C	-0.094915	-0.509569	0.562909
H129	H	-0.078754	-0.523828	0.531555
H130	H	-0.087471	-0.541425	0.596873
C131	C	-0.170314	-0.466440	0.612284
C132	C	-0.150468	-0.483951	0.573773
H133	H	-0.204583	-0.450639	0.618988
H134	H	-0.155719	-0.443818	0.603408
H135	H	-0.164106	-0.492991	0.640583
H136	H	-0.156671	-0.457399	0.545473
H137	H	-0.165066	-0.506567	0.582644
H138	H	0.338156	-0.509129	0.552896
H139	H	0.430973	-0.540048	0.521891
O140	O	-0.073171	-0.006243	0.549851
C141	C	-0.066699	-0.048335	0.591037
H142	H	-0.030909	-0.077757	0.579251
H143	H	-0.065556	-0.038807	0.618613
C144	C	-0.153476	-0.031303	0.629172
C145	C	-0.109521	-0.067441	0.614695
H146	H	-0.179892	-0.043088	0.643767
H147	H	-0.157837	-0.002944	0.601425
H148	H	-0.152517	-0.023366	0.652149
H149	H	-0.110478	-0.075373	0.591714
H150	H	-0.105161	-0.095802	0.642439
O151	O	0.550647	-0.408923	0.482517
C152	C	0.550565	-0.366727	0.440565
H153	H	0.565924	-0.377388	0.406956
H154	H	0.511550	-0.340170	0.444552
C155	C	0.563566	-0.329010	0.476030
C156	C	0.582434	-0.342106	0.434751
H157	H	0.583222	-0.313821	0.472444
H158	H	0.563619	-0.357438	0.504295
H159	H	0.531054	-0.306882	0.479348
H160	H	0.614943	-0.364238	0.431437
H161	H	0.582387	-0.313681	0.406485
O162	O	0.550620	-0.600536	0.423919
C163	C	0.508552	-0.613720	0.457447
H164	H	0.494543	-0.603990	0.491327
H165	H	0.479037	-0.593106	0.439765
C166	C	0.538597	-0.681063	0.430580
C167	C	0.521394	-0.669116	0.472193
H168	H	0.546517	-0.715233	0.439675
H169	H	0.566938	-0.672179	0.407990
H170	H	0.513999	-0.663880	0.415849
H171	H	0.545994	-0.686293	0.486920
H172	H	0.493057	-0.678003	0.494786
O173	O	0.550478	-0.408618	0.328274
C174	C	0.550443	-0.426212	0.297869
H175	H	0.565878	-0.467846	0.311081
H176	H	0.511432	-0.413822	0.299237
C177	C	0.563293	-0.354794	0.228736
C178	C	0.582255	-0.405929	0.244961
H179	H	0.582914	-0.342281	0.196099
H180	H	0.563314	-0.342939	0.249221
H181	H	0.530785	-0.344475	0.229880
H182	H	0.614760	-0.416247	0.243823
H183	H	0.582239	-0.417785	0.224475
H184	H	0.053825	-0.125861	0.569312
H185	H	0.169370	-0.005761	0.363053
H186	H	0.550826	-0.595166	0.570996
O187	O	0.022178	-0.006188	0.357978
C188	C	-0.025868	-0.006200	0.375804
H189	H	-0.038704	-0.021578	0.417437
H190	H	-0.051173	0.032791	0.363441
C191	C	-0.011060	-0.019223	0.304602
C192	C	-0.026825	-0.038115	0.355737
H193	H	-0.011651	-0.038908	0.292223
H194	H	0.021309	-0.019213	0.292591
H195	H	-0.032150	0.013269	0.294307
H196	H	-0.005731	-0.070604	0.366031
H197	H	-0.059190	-0.038131	0.367749
O198	O	0.081265	-0.006125	0.549255
C199	C	0.129305	-0.006098	0.531424
H200	H	0.152410	-0.021479	0.500042
H201	H	0.128574	0.032905	0.517792
C202	C	0.123182	-0.019090	0.611295
C203	C	0.151560	-0.037984	0.572755
H204	H	0.136909	-0.038756	0.636790
H205	H	0.090815	-0.019106	0.623308
H206	H	0.122575	0.013413	0.599929
H207	H	0.152162	-0.070483	0.584119
H208	H	0.183927	-0.037974	0.560744
O209	O	-0.043967	-0.380018	0.952353
C210	C	-0.026370	-0.349596	0.952346
H211	H	0.005014	-0.373098	0.967727
H212	H	-0.012813	-0.324907	0.913351
C213	C	-0.106403	-0.289103	0.965348
C214	C	-0.067859	-0.317969	0.984243
H215	H	-0.131995	-0.269592	0.985021
H216	H	-0.118258	-0.309598	0.965350
H217	H	-0.095099	-0.268533	0.932852
H218	H	-0.079161	-0.338542	1.016736
H219	H	-0.056006	-0.297476	0.984247
H220	H	-0.037843	-0.532946	0.952238
H221	H	0.142562	-0.622811	0.952240
O222	O	0.147856	-0.475523	0.952258
C223	C	0.130046	-0.427480	0.952284
H224	H	0.098660	-0.404354	0.936907
H225	H	0.116428	-0.428204	0.991285
C226	C	0.209934	-0.433664	0.939287
C227	C	0.171387	-0.405259	0.920397
H228	H	0.235435	-0.419957	0.919619
H229	H	0.221932	-0.466032	0.939271
H230	H	0.198579	-0.434265	0.971788
H231	H	0.182741	-0.404663	0.887899
H232	H	0.159392	-0.372890	0.920406
H233	H	0.047048	-0.396226	0.739820
H234	H	0.167840	-0.502959	0.832516
H235	H	0.198696	-0.471996	0.739692
H236	H	0.046887	-0.396202	0.562361
H237	H	0.167497	-0.502899	0.455559
O238	O	0.008011	-0.425275	0.533479
C239	C	-0.013193	-0.442788	0.584732
H240	H	0.015969	-0.474342	0.601195
H241	H	-0.029345	-0.412099	0.599901
C242	C	-0.089748	-0.421995	0.577770
C243	C	-0.053931	-0.460753	0.597990
H244	H	-0.114879	-0.433075	0.585948
H245	H	-0.075463	-0.410194	0.543239
H246	H	-0.103202	-0.396425	0.590412
H247	H	-0.040473	-0.486320	0.585342
H248	H	-0.068215	-0.472558	0.632518
O249	O	0.206384	-0.473941	0.484484
C250	C	0.232058	-0.503537	0.454835
H251	H	0.207661	-0.522154	0.461387
H252	H	0.243043	-0.479913	0.414759
C253	C	0.308187	-0.519761	0.459686
C254	C	0.278223	-0.542631	0.467736
H255	H	0.336665	-0.543875	0.467642
H256	H	0.290890	-0.499820	0.479659
H257	H	0.317335	-0.500076	0.426289
H258	H	0.269070	-0.562311	0.501134
H259	H	0.295520	-0.562576	0.447768
H260	H	0.430920	-0.389838	0.464614
H261	H	0.160490	-0.218637	0.448603
O262	O	0.334125	-0.351054	0.494389
C263	C	0.346579	-0.324648	0.443870
H264	H	0.383723	-0.346998	0.423704
H265	H	0.317763	-0.317019	0.429947
C266	C	0.303315	-0.248466	0.459500
C267	C	0.348937	-0.275915	0.434733
H268	H	0.304767	-0.218404	0.453863
H269	H	0.294922	-0.266256	0.493536
H270	H	0.279306	-0.242114	0.447895
H271	H	0.372944	-0.282273	0.446342
H272	H	0.357334	-0.258125	0.400698
O273	O	0.082848	-0.222637	0.608138
C274	C	0.053226	-0.189094	0.633843
H275	H	0.059732	-0.152611	0.609439
H276	H	0.013148	-0.183665	0.644900
C277	C	0.058229	-0.253877	0.709923
C278	C	0.066223	-0.209069	0.679951
H279	H	0.066244	-0.266199	0.738367
H280	H	0.078185	-0.276477	0.692606
H281	H	0.024831	-0.249348	0.719133
H282	H	0.099622	-0.213601	0.670738
H283	H	0.046274	-0.186471	0.697268
H284	H	-0.059824	-0.503179	0.174290
H285	H	-0.090896	-0.534066	0.267110
H286	H	0.015913	-0.654818	0.174378
H287	H	-0.090949	-0.534065	0.310634
O288	O	-0.013276	-0.693614	0.271206
C289	C	-0.030743	-0.714840	0.258640
H290	H	-0.062262	-0.685682	0.244513
H291	H	-0.000020	-0.731022	0.228971
C292	C	-0.010037	-0.791367	0.321430
C293	C	-0.048751	-0.755555	0.304082
H294	H	-0.021143	-0.816483	0.349460
H295	H	0.001733	-0.777068	0.329895
H296	H	0.015563	-0.804846	0.296701
H297	H	-0.074347	-0.742072	0.328809
H298	H	-0.060526	-0.769853	0.295623
O299	O	-0.062016	-0.495250	0.339666
C300	C	-0.091577	-0.469533	0.309975
H301	H	-0.085036	-0.493944	0.291372
H302	H	-0.131672	-0.458441	0.333516
C303	C	-0.086578	-0.393470	0.293720
C304	C	-0.078540	-0.423451	0.270868
H305	H	-0.078538	-0.365043	0.269599
H306	H	-0.066663	-0.410796	0.313725
H307	H	-0.119990	-0.384232	0.313337
H308	H	-0.045128	-0.432694	0.251257
H309	H	-0.098449	-0.406126	0.250859
H310	H	-0.015331	-0.685697	0.386578
O311	O	0.020223	-0.660073	0.422192
C312	C	0.063156	-0.689685	0.396400
H313	H	0.056339	-0.690179	0.366577
H314	H	0.093944	-0.674334	0.379090
C315	C	0.086045	-0.741494	0.468527
C316	C	0.077671	-0.742104	0.431900
H317	H	0.095001	-0.773829	0.490425
H318	H	0.057121	-0.721544	0.485904
H319	H	0.111701	-0.728700	0.454096
H320	H	0.052012	-0.754893	0.446331
H321	H	0.106591	-0.762058	0.414527
O322	O	0.027110	-0.687279	0.316152
C323	C	0.025169	-0.657681	0.268569
H324	H	0.010608	-0.673084	0.256937
H325	H	-0.000079	-0.618888	0.268162
C326	C	0.094712	-0.638031	0.247140
C327	C	0.076831	-0.656951	0.232852
H328	H	0.126579	-0.637578	0.225108
H329	H	0.096019	-0.657970	0.279198
H330	H	0.073667	-0.605705	0.246801
H331	H	0.097872	-0.689278	0.233197
H332	H	0.075529	-0.637018	0.200793
O333	O	0.060685	-0.788156	0.349809
C334	C	0.087144	-0.775676	0.299304
H335	H	0.062043	-0.761587	0.278109
H336	H	0.101851	-0.746002	0.287902
C337	C	0.160918	-0.838466	0.314201
C338	C	0.130090	-0.821166	0.288169
H339	H	0.187411	-0.866525	0.307332
H340	H	0.143093	-0.846873	0.348227
H341	H	0.173169	-0.813733	0.304696
H342	H	0.117835	-0.845897	0.297678
H343	H	0.147914	-0.812764	0.254144
O344	O	-0.102608	-0.787933	0.411857
C345	C	-0.126551	-0.775429	0.380520
H346	H	-0.125303	-0.738312	0.351356
H347	H	-0.107482	-0.804266	0.362249
C348	C	-0.181685	-0.818544	0.446187
C349	C	-0.180155	-0.772954	0.410370
H350	H	-0.214750	-0.817019	0.464599
H351	H	-0.165553	-0.826970	0.467299
H352	H	-0.165792	-0.842570	0.430956
H353	H	-0.196043	-0.748930	0.425602
H354	H	-0.196291	-0.764524	0.389261
O355	O	-0.130669	-0.652279	0.429585
C356	C	-0.164279	-0.659497	0.477612
H357	H	-0.200730	-0.628617	0.477463
H358	H	-0.169748	-0.695929	0.492259
C359	C	-0.099596	-0.697805	0.510674
C360	C	-0.144364	-0.659876	0.510491
H361	H	-0.087311	-0.698042	0.530956
H362	H	-0.076952	-0.692945	0.478317
H363	H	-0.104160	-0.728162	0.522878
H364	H	-0.139799	-0.629521	0.498282
H365	H	-0.167007	-0.664732	0.542847
O366	O	0.176723	-0.533914	0.357616
C367	C	0.198399	-0.500352	0.344457
H368	H	0.168782	-0.466538	0.354306
H369	H	0.225060	-0.518053	0.364987
C370	C	0.262447	-0.526988	0.276945
C371	C	0.226070	-0.485455	0.289039
H372	H	0.279517	-0.517800	0.242761
H373	H	0.247844	-0.549601	0.285811
H374	H	0.284659	-0.541735	0.294058
H375	H	0.203855	-0.470712	0.271931
H376	H	0.240669	-0.462839	0.280168
H377	H	-0.227429	-0.616637	0.455084
O378	O	-0.231131	-0.536240	0.298102
C379	C	-0.197523	-0.529047	0.250074
H380	H	-0.161065	-0.534800	0.250228
H381	H	-0.192071	-0.556284	0.235409
C382	C	-0.262203	-0.469559	0.217021
C383	C	-0.217426	-0.476622	0.217211
H384	H	-0.274480	-0.437222	0.196749
H385	H	-0.284846	-0.474407	0.249378
H386	H	-0.257653	-0.492260	0.204802
H387	H	-0.221977	-0.453925	0.229435
H388	H	-0.194784	-0.471769	0.184855
H389	H	-0.128252	-0.691169	0.377093
H390	H	-0.134369	-0.571905	0.272603
