data_functionalizedCrystal
_audit_creation_method	'MofGen! by Chris Wilmer'
_symmetry_space_group_name_H-M	'P1'
_symmetry_Int_Tables_number	1
_symmetry_cell_setting	triclinic
loop_
_symmetry_equiv_pos_as_xyz
  x,y,z
_cell_length_a	23.532355
_cell_length_b	23.532407
_cell_length_c	22.610064
_cell_angle_alpha	89.995564
_cell_angle_beta	89.997644
_cell_angle_gamma	82.838123
loop_
_atom_site_label
_atom_site_type_symbol
_atom_site_fract_x
_atom_site_fract_y
_atom_site_fract_z
O1	O	0.755283	0.068986	-0.049115
O2	O	0.589415	0.079020	-0.049135
O3	O	0.677351	-0.008929	-0.049108
O4	O	0.667347	0.156936	-0.049142
O5	O	0.677335	-0.008916	0.049261
O6	O	0.589400	0.079033	0.049234
O7	O	0.755267	0.068999	0.049254
Zn8	Zn	0.672331	0.074018	0.064862
Zn9	Zn	0.672351	0.074001	-0.064743
O10	O	0.667332	0.156949	0.049227
C11	C	0.568191	0.078776	0.000047
C12	C	0.504972	0.078022	0.000040
C13	C	0.677088	-0.030139	0.000080
C14	C	0.676322	-0.093356	0.000089
C15	C	0.112950	0.073291	0.053687
C16	C	0.053550	0.072573	0.053689
O17	O	0.022825	0.072189	0.099291
N18	N	0.023850	0.072211	0.000068
C19	C	0.053554	0.072560	-0.053558
O20	O	0.022837	0.072185	-0.099167
C21	C	0.112953	0.073273	-0.053560
C22	C	0.142649	0.073641	0.000064
C23	C	0.142646	0.073659	0.107307
C24	C	0.202041	0.074377	0.107304
C25	C	0.231740	0.074728	0.053681
C26	C	0.202044	0.074360	0.000062
C27	C	0.142655	0.073618	-0.107186
C28	C	0.202058	0.074331	-0.107183
C29	C	0.231754	0.074699	-0.053559
C30	C	0.291138	0.075429	-0.053564
N31	N	0.320838	0.075792	0.000057
C32	C	0.291139	0.075441	0.053680
C33	C	-0.071188	0.071061	-0.053550
C34	C	-0.130586	0.070351	-0.053549
C35	C	-0.130585	0.070364	0.053699
C36	C	-0.071186	0.071077	0.053697
C37	C	-0.041488	0.071423	0.000070
C38	C	0.415873	0.076951	0.053670
C39	C	0.475273	0.077671	0.053663
C40	C	0.475268	0.077656	-0.053585
C41	C	0.415872	0.076938	-0.053578
C42	C	0.386177	0.076583	0.000055
O43	O	0.321902	0.075812	-0.099142
O44	O	0.321864	0.075809	0.099280
C45	C	0.621125	-0.359513	0.000045
C46	C	0.621837	-0.300113	0.000050
O47	O	0.578050	-0.263360	0.000025
N48	N	0.674114	-0.277496	0.000063
C49	C	0.725684	-0.314283	0.000065
O50	O	0.770216	-0.289592	0.000076
C51	C	0.724972	-0.373682	0.000056
C52	C	0.672691	-0.396295	0.000049
C53	C	0.568849	-0.382126	0.000037
C54	C	0.568137	-0.441522	0.000033
C55	C	0.619703	-0.478305	0.000038
C56	C	0.671980	-0.455691	0.000046
C57	C	0.776541	-0.410468	0.000055
C58	C	0.775824	-0.469871	0.000045
C59	C	0.723543	-0.492484	0.000038
C60	C	0.722834	-0.551870	0.000047
N61	N	0.670556	-0.574486	0.000033
C62	C	0.618991	-0.537704	0.000029
C63	C	0.727175	-0.189541	0.000083
C64	C	0.727888	-0.130143	0.000096
C65	C	0.624041	-0.115977	0.000079
C66	C	0.623329	-0.175376	0.000070
C67	C	0.674898	-0.212158	0.000070
C68	C	0.617501	-0.662440	0.000022
C69	C	0.616795	-0.721842	0.000021
C70	C	0.720642	-0.736004	0.000035
C71	C	0.721349	-0.676607	0.000039
C72	C	0.669774	-0.639826	0.000031
O73	O	0.766598	-0.588657	0.000068
O74	O	0.574467	-0.562403	0.000010
C75	C	0.776492	0.069244	0.000071
C76	C	0.839710	0.069998	0.000074
C77	C	0.667594	0.178158	0.000038
C78	C	0.668360	0.241375	0.000025
N79	N	0.672321	0.074029	0.153315
N80	N	0.672366	0.073986	-0.153196
C81	C	0.711291	0.035063	0.561968
C82	C	0.711294	0.035059	0.623888
O83	O	0.744403	0.001937	0.655917
N84	N	0.672351	0.073990	0.654852
C85	C	0.633399	0.112923	0.623893
O86	O	0.600275	0.146036	0.655915
C87	C	0.633394	0.112924	0.561974
C88	C	0.672343	0.073995	0.531013
C89	C	0.750237	-0.003863	0.531008
C90	C	0.750234	-0.003858	0.469092
C91	C	0.711286	0.035073	0.438137
C92	C	0.672341	0.074000	0.469098
C93	C	0.594439	0.151854	0.531016
C94	C	0.594437	0.151851	0.469093
C95	C	0.633386	0.112922	0.438132
C96	C	0.633390	0.112936	0.376227
N97	N	0.672333	0.074006	0.345263
C98	C	0.711281	0.035074	0.376218
C99	C	0.633412	0.112917	0.753926
C100	C	0.633419	0.112919	0.815844
C101	C	0.711314	0.035055	0.815835
C102	C	0.711309	0.035056	0.753916
C103	C	0.672355	0.073987	0.722962
C104	C	0.711273	0.035088	0.246191
C105	C	0.711269	0.035098	0.184270
C106	C	0.633373	0.112960	0.184284
C107	C	0.633379	0.112953	0.246200
C108	C	0.672331	0.074012	0.277152
O109	O	0.600296	0.146040	0.344159
O110	O	0.744395	0.001962	0.344188
H111	H	0.499449	0.077973	0.097332
H112	H	-0.154777	0.070078	0.097361
H113	H	-0.047012	0.071348	-0.097222
C114	C	0.560766	-0.621990	0.000017
N115	N	0.518033	-0.591523	0.000017
C116	C	0.383216	0.076566	0.112668
N117	N	0.358618	0.076282	0.157106
H118	H	0.601668	0.144658	0.271408
C119	C	-0.163246	0.069951	-0.112540
N120	N	-0.187842	0.069644	-0.156974
C121	C	0.590583	0.155773	0.719882
N122	N	0.558331	0.188060	0.694244
H123	H	0.118487	0.073317	-0.150853
C124	C	0.234723	0.074713	-0.166178
N125	N	0.259324	0.075003	-0.210613
C126	C	0.783910	-0.229997	0.000095
N127	N	0.826642	-0.260465	0.000105
H128	H	0.391691	0.076647	-0.097243
H129	H	0.226215	0.074674	0.150971
H130	H	0.817819	-0.499816	0.000042
H131	H	0.525565	-0.459928	0.000023
H132	H	0.562723	0.183553	0.556215
H133	H	0.601663	0.144660	0.159071
C134	C	0.777361	-0.776475	0.000038
N135	N	0.820082	-0.806960	0.000037
C136	C	0.778860	-0.651732	0.000050
N137	N	0.822179	-0.633000	0.000052
C138	C	0.559279	-0.746712	0.000011
N139	N	0.515960	-0.765442	0.000002
C140	C	0.507948	0.078037	-0.112567
N141	N	0.532566	0.078320	-0.156992
C142	C	0.512117	-0.341674	0.000032
N143	N	0.469383	-0.311208	0.000032
H144	H	-0.047012	0.071378	0.097362
H145	H	0.743024	0.003356	0.728712
C146	C	0.565816	-0.200244	0.000057
N147	N	0.522495	-0.218971	0.000045
C148	C	0.109986	0.073281	0.166301
N149	N	0.085389	0.073003	0.210740
H150	H	0.819114	-0.392068	0.000060
H151	H	0.582053	-0.086017	0.000076
C152	C	0.785401	-0.105276	0.000112
N153	N	0.828722	-0.086549	0.000120
H154	H	0.742988	0.003397	0.159064
H155	H	0.742991	0.003378	0.271385
H156	H	0.781953	-0.035569	0.556206
C157	C	0.793076	-0.046690	0.435044
N158	N	0.825344	-0.078956	0.409402
C159	C	0.754154	-0.007775	0.849898
N160	N	0.786419	-0.040033	0.875555
C161	C	0.590576	0.155749	0.849893
N162	N	0.558302	0.188006	0.875537
C163	C	0.551589	0.194686	0.435047
N164	N	0.519320	0.226952	0.409405
