data_functionalizedCrystal
_audit_creation_method	'MofGen! by Chris Wilmer'
_symmetry_space_group_name_H-M	'P1'
_symmetry_Int_Tables_number	1
_symmetry_cell_setting	triclinic
loop_
_symmetry_equiv_pos_as_xyz
  x,y,z
_cell_length_a	17.699097
_cell_length_b	9.730223
_cell_length_c	17.699083
_cell_angle_alpha	89.997786
_cell_angle_beta	96.714278
_cell_angle_gamma	90.003793
loop_
_atom_site_label
_atom_site_type_symbol
_atom_site_fract_x
_atom_site_fract_y
_atom_site_fract_z
O1	O	1.004065	0.114407	-0.095756
O2	O	0.783688	0.114385	-0.108198
O3	O	0.900103	0.114384	0.008212
O4	O	0.887650	0.114407	-0.212166
O5	O	0.900101	-0.114196	0.008209
O6	O	0.783687	-0.114195	-0.108201
O7	O	1.004064	-0.114173	-0.095759
Zn8	Zn	0.893875	-0.150476	-0.101980
Zn9	Zn	0.893877	0.150688	-0.101976
O10	O	0.887649	-0.114173	-0.212169
C11	C	0.755491	0.000092	-0.107752
C12	C	0.671473	0.000083	-0.106409
C13	C	0.155756	0.124737	-0.098178
C14	C	0.234700	0.124730	-0.099434
C15	C	0.274165	0.000126	-0.100065
C16	C	0.234683	-0.124480	-0.099432
C17	C	0.155741	-0.124472	-0.098171
C18	C	0.553047	-0.124516	-0.104520
C19	C	0.631994	-0.124515	-0.105784
C20	C	0.632006	0.124686	-0.105783
C21	C	0.553064	0.124694	-0.104522
C22	C	0.513589	0.000089	-0.103885
C23	C	0.427989	0.000098	-0.102521
C24	C	0.359763	0.000115	-0.101434
N25	N	0.893879	-0.356013	-0.101982
C26	C	0.945441	-0.427939	-0.050453
C27	C	0.945439	-0.571822	-0.050444
C28	C	0.842312	-0.571840	-0.153500
C29	C	0.842310	-0.427959	-0.153505
C30	C	0.997010	-0.355992	0.001069
C31	C	1.048576	-0.427919	0.052602
C32	C	1.048574	-0.571802	0.052611
C33	C	0.997006	-0.643758	0.001087
C34	C	1.032261	0.000123	-0.096205
C35	C	1.116279	0.000140	-0.097547
C36	C	0.899656	0.000094	0.036408
C37	C	0.898317	0.000093	0.120426
N38	N	0.893879	0.356224	-0.101968
C39	C	0.888096	0.000121	-0.240364
C40	C	0.889435	0.000130	-0.324382
C41	C	0.966650	0.000098	0.169044
C42	C	0.965388	0.000110	0.247987
C43	C	0.895792	0.000108	0.278311
C44	C	0.827454	0.000107	0.229687
C45	C	0.828717	0.000105	0.150745
C46	C	0.822359	0.000117	0.548050
C47	C	0.821101	0.000116	0.626998
C48	C	0.959030	0.000123	0.645292
C49	C	0.960293	0.000121	0.566350
C50	C	0.891955	0.000127	0.517733
C51	C	0.893325	0.000117	0.432134
C52	C	0.894422	0.000108	0.363909
H53	H	0.520935	0.226160	-0.104012
O54	O	0.117487	-0.245593	-0.097460
C55	C	0.101983	-0.458553	-0.031503
C56	C	0.145375	-0.321446	-0.032228
H57	H	0.124503	-0.519907	0.021240
H58	H	0.110495	-0.520095	-0.084661
H59	H	0.038782	-0.437112	-0.030527
H60	H	0.208590	-0.342762	-0.033177
H61	H	0.136801	-0.259946	0.020927
H62	H	0.800327	-0.630436	-0.195449
H63	H	0.266822	-0.225936	-0.099941
H64	H	1.090556	-0.630363	0.094575
H65	H	0.664156	0.226146	-0.106299
O66	O	0.273113	0.245679	-0.100154
C67	C	0.353512	0.390349	-0.167148
C68	C	0.310060	0.253304	-0.166420
H69	H	0.383382	0.396571	-0.220727
H70	H	0.397539	0.396606	-0.114828
H71	H	0.311732	0.479379	-0.166448
H72	H	0.351783	0.164196	-0.167146
H73	H	0.266023	0.247167	-0.218736
H74	H	0.800324	-0.369396	-0.195464
H75	H	1.021032	0.000111	0.287569
H76	H	0.123628	0.226204	-0.097670
H77	H	1.014674	0.000125	0.684886
O78	O	0.670221	-0.245686	-0.106355
C79	C	0.661879	-0.492869	-0.106253
C80	C	0.618496	-0.355754	-0.105587
H81	H	0.620077	-0.581894	-0.105649
H82	H	0.705843	-0.499185	-0.053885
H83	H	0.691835	-0.499028	-0.159779
H84	H	0.588495	-0.349502	-0.052096
H85	H	0.574575	-0.349495	-0.157990
O86	O	0.514698	-0.245522	-0.103764
C87	C	0.434245	-0.390132	-0.036799
C88	C	0.477654	-0.253048	-0.037555
H89	H	0.404271	-0.396249	0.016717
H90	H	0.475993	-0.479232	-0.037417
H91	H	0.390288	-0.396362	-0.089174
H92	H	0.521611	-0.246684	0.014811
H93	H	0.435860	-0.164014	-0.036976
H94	H	0.764424	0.000111	0.651685
O95	O	1.098610	-0.357814	0.102604
C96	C	1.144226	-0.136152	0.148357
C97	C	1.087551	-0.215368	0.091659
H98	H	1.135295	-0.020971	0.139539
H99	H	1.204857	-0.164299	0.138607
H100	H	1.134449	-0.164555	0.208946
H101	H	1.097259	-0.187007	0.031048
H102	H	1.026941	-0.187215	0.101476
H103	H	1.016965	0.000116	0.541665
O104	O	1.034210	0.000285	0.139500
C105	C	1.115706	0.118758	0.061028
C106	C	1.039160	0.118695	0.094418
H107	H	1.119740	0.214496	0.024585
H108	H	1.119759	0.023163	0.024480
H109	H	1.164315	0.118701	0.109352
H110	H	0.990506	0.118800	0.046143
H111	H	1.035173	0.214282	0.130986
O112	O	0.755908	0.000045	0.500939
C113	C	0.618964	0.000094	0.491131
C114	C	0.694166	0.000152	0.544576
H115	H	0.569025	0.000210	0.526391
H116	H	0.616055	-0.095591	0.453733
H117	H	0.616142	0.095730	0.453696
H118	H	0.697038	-0.095419	0.582059
H119	H	0.697043	0.095900	0.581923
O120	O	0.759914	0.000044	0.259267
C121	C	0.696836	0.000117	0.372771
C122	C	0.773379	0.000162	0.339375
H123	H	0.707696	0.000241	0.437542
H124	H	0.663063	-0.095569	0.352793
H125	H	0.663077	0.095752	0.352691
H126	H	0.807200	-0.095409	0.359440
H127	H	0.807095	0.095910	0.359349
O128	O	0.762268	0.000039	0.103623
C129	C	0.625323	0.000126	0.093804
C130	C	0.700521	0.000157	0.147255
H131	H	0.575381	0.000251	0.129059
H132	H	0.622409	-0.095554	0.056402
H133	H	0.622513	0.095767	0.056373
H134	H	0.703382	-0.095418	0.184733
H135	H	0.703404	0.095901	0.184606
H136	H	0.997017	-0.238836	0.001065
H137	H	0.997004	-0.760917	0.001104
