data_functionalizedCrystal
_audit_creation_method	'MofGen! by Chris Wilmer'
_symmetry_space_group_name_H-M	'P1'
_symmetry_Int_Tables_number	1
_symmetry_cell_setting	triclinic
loop_
_symmetry_equiv_pos_as_xyz
  x,y,z
_cell_length_a	14.853566
_cell_length_b	11.792241
_cell_length_c	13.330367
_cell_angle_alpha	89.995231
_cell_angle_beta	89.995295
_cell_angle_gamma	83.913915
loop_
_atom_site_label
_atom_site_type_symbol
_atom_site_fract_x
_atom_site_fract_y
_atom_site_fract_z
O1	O	1.196946	0.148174	-0.083358
O2	O	1.696946	0.648174	0.416642
O3	O	0.934555	0.165828	-0.083374
O4	O	1.434555	0.665828	0.416626
O5	O	1.072118	-0.008209	-0.083358
O6	O	1.572118	0.491791	0.416642
O7	O	1.059383	0.322211	-0.083373
O8	O	1.559383	0.822211	0.416627
O9	O	1.072098	-0.008213	0.083489
O10	O	1.572098	0.491787	0.583489
O11	O	0.934535	0.165824	0.083473
O12	O	1.434535	0.665824	0.583473
O13	O	1.196926	0.148171	0.083490
O14	O	1.696926	0.648171	0.583490
Cu15	Cu	1.065729	0.156997	0.098716
Cu16	Cu	1.565729	0.656997	0.598716
Cu17	Cu	1.065753	0.157002	-0.098600
Cu18	Cu	1.565753	0.657002	0.401400
O19	O	1.059363	0.322207	0.083474
O20	O	1.559363	0.822207	0.583474
C21	C	0.900954	0.165026	0.000047
C22	C	1.400954	0.665026	0.500047
C23	C	0.800860	0.162630	0.000041
C24	C	1.300860	0.662630	0.500041
C25	C	0.377647	0.152497	-0.090889
C26	C	0.877647	0.652497	0.409111
C27	C	0.377647	0.152493	0.091014
C28	C	0.877647	0.652493	0.591014
C29	C	0.471689	0.154744	0.091011
C30	C	0.971689	0.654744	0.591011
C31	C	0.518715	0.155872	0.000056
C32	C	1.018715	0.655872	0.500056
C33	C	0.471698	0.154751	-0.090895
C34	C	0.971698	0.654751	0.409105
C35	C	0.518712	0.155877	0.181961
C36	C	1.018712	0.655877	0.681961
C37	C	0.612761	0.158129	0.181961
C38	C	1.112761	0.658129	0.681961
C39	C	0.659789	0.159249	0.091005
C40	C	1.159789	0.659249	0.591005
C41	C	0.612766	0.158126	0.000050
C42	C	1.112766	0.658126	0.500050
C43	C	0.659792	0.159255	-0.090904
C44	C	1.159792	0.659255	0.409096
C45	C	0.612772	0.158124	-0.181860
C46	C	1.112772	0.658124	0.318140
C47	C	0.518727	0.155871	-0.181851
C48	C	1.018727	0.655871	0.318149
C49	C	0.753835	0.161501	0.090996
C50	C	1.253835	0.661501	0.590996
C51	C	0.753844	0.161509	-0.090910
C52	C	1.253844	0.661509	0.409090
C53	C	1.071308	-0.050497	0.000065
C54	C	1.571308	0.449503	0.500065
C55	C	1.068914	-0.176496	0.000064
C56	C	1.568914	0.323504	0.500064
C57	C	1.064511	-0.407181	0.000047
C58	C	1.564511	0.092819	0.500047
C59	C	1.066958	-0.278810	0.000056
C60	C	1.566958	0.221190	0.500056
C61	C	1.230528	0.148972	0.000066
C62	C	1.730528	0.648972	0.500066
C63	C	1.330621	0.151368	0.000065
C64	C	1.830621	0.651368	0.500065
C65	C	1.060173	0.364495	0.000048
C66	C	1.560173	0.864495	0.500048
C67	C	1.062568	0.490494	0.000043
C68	C	1.562568	0.990494	0.500043
N69	N	1.065719	0.156993	0.237497
N70	N	1.565719	0.656993	0.737497
N71	N	1.065770	0.156996	-0.237382
N72	N	1.565770	0.656996	0.262618
C73	C	1.004837	0.234035	0.710113
C74	C	1.504837	0.734035	1.210113
C75	C	1.126693	0.079960	0.710095
C76	C	1.626693	0.579960	1.210095
C77	C	1.126682	0.079956	0.605077
C78	C	1.626682	0.579956	1.105077
C79	C	1.065750	0.156994	0.552572
C80	C	1.565750	0.656994	1.052572
C81	C	1.004827	0.234036	0.605085
C82	C	1.504827	0.734036	1.105085
C83	C	1.187610	0.002924	0.552556
C84	C	1.687610	0.502924	1.052556
C85	C	1.187603	0.002918	0.447531
C86	C	1.687603	0.502918	0.947531
C87	C	1.126665	0.079951	0.395024
C88	C	1.626665	0.579951	0.895024
C89	C	1.065739	0.156995	0.447544
C90	C	1.565739	0.656995	0.947544
C91	C	1.004806	0.234033	0.395039
C92	C	1.504806	0.734033	0.895039
C93	C	0.943875	0.311073	0.447557
C94	C	1.443875	0.811073	0.947557
C95	C	0.943889	0.311069	0.552578
C96	C	1.443889	0.811069	1.052578
C97	C	1.126652	0.079955	0.290002
C98	C	1.626652	0.579955	0.790002
C99	C	1.004796	0.234035	0.290011
C100	C	1.504796	0.734035	0.790011
H101	H	0.480435	0.154949	-0.255902
H102	H	0.980435	0.654949	0.244098
O103	O	1.253307	-0.080181	0.390887
O104	O	1.753307	0.419819	0.890887
H105	H	1.295672	-0.133756	0.445043
H106	H	1.795672	0.366244	0.945043
O107	O	1.192358	-0.003128	0.233354
O108	O	1.692358	0.496872	0.733354
H109	H	1.234728	-0.056700	0.287508
H110	H	1.734728	0.443300	0.787508
H111	H	0.894282	0.373793	0.595345
H112	H	1.394282	0.873793	1.095345
O113	O	0.939124	0.317132	0.766746
O114	O	1.439124	0.817132	1.266746
H115	H	0.949367	0.304199	0.848596
H116	H	1.449367	0.804199	1.348596
H117	H	0.792113	0.162434	0.165051
H118	H	1.292113	0.662434	0.665051
H119	H	0.651072	0.159051	-0.255916
H120	H	1.151072	0.659051	0.244084
H121	H	0.955174	0.296765	0.247267
H122	H	1.455174	0.796765	0.747267
H123	H	0.894267	0.373803	0.404795
H124	H	1.394267	0.873803	0.904795
H125	H	0.651037	0.159047	0.256023
H126	H	1.151037	0.659047	0.756023
H127	H	1.176307	0.017243	0.752848
H128	H	1.676307	0.517243	1.252848
O129	O	0.326942	0.151284	-0.188991
O130	O	0.826942	0.651284	0.311009
H131	H	0.253644	0.149533	-0.173713
H132	H	0.753644	0.649533	0.326287
O133	O	1.253330	-0.080162	0.609180
O134	O	1.753330	0.419838	1.109180
H135	H	1.243092	-0.067228	0.691031
H136	H	1.743092	0.432772	1.191031
H137	H	0.792126	0.162424	-0.164978
H138	H	1.292126	0.662424	0.335022
H139	H	0.480416	0.154966	0.256011
H140	H	0.980416	0.654966	0.756011
O141	O	0.326853	0.152101	0.189110
O142	O	0.826853	0.652101	0.689110
H143	H	0.253529	0.150642	0.173833
H144	H	0.753529	0.650642	0.673833
