data_functionalizedCrystal
_audit_creation_method	'MofGen! by Chris Wilmer'
_symmetry_space_group_name_H-M	'P1'
_symmetry_Int_Tables_number	1
_symmetry_cell_setting	triclinic
loop_
_symmetry_equiv_pos_as_xyz
  x,y,z
_cell_length_a	12.594517
_cell_length_b	25.639239
_cell_length_c	12.594509
_cell_angle_alpha	89.965872
_cell_angle_beta	89.988522
_cell_angle_gamma	90.034573
loop_
_atom_site_label
_atom_site_type_symbol
_atom_site_fract_x
_atom_site_fract_y
_atom_site_fract_z
Zn1	Zn	1.627099	-0.208192	-0.601537
Zn2	Zn	1.626920	-0.295635	-0.423540
Zn3	Zn	1.449103	-0.208209	-0.423596
Zn4	Zn	1.449015	-0.295592	-0.601500
O5	O	1.538034	-0.251907	-0.512543
O6	O	1.776021	-0.219803	-0.577917
O7	O	1.603294	-0.284062	-0.274601
O8	O	1.472827	-0.135041	-0.447239
O9	O	1.775890	-0.284046	-0.447143
O10	O	1.603600	-0.135029	-0.577971
O11	O	1.472653	-0.219831	-0.274643
O12	O	1.300146	-0.219790	-0.447204
O13	O	1.472677	-0.283974	-0.750451
O14	O	1.300081	-0.283990	-0.577909
O15	O	1.603514	-0.219762	-0.750478
O16	O	1.603209	-0.368794	-0.447108
O17	O	1.472503	-0.368763	-0.577855
C18	C	1.261494	-0.251887	-0.512559
C19	C	1.143188	-0.251891	-0.512592
C20	C	1.073931	-0.286878	-0.583545
C21	C	1.003160	-0.239208	-0.609733
C22	C	1.003159	-0.299602	-0.486380
C23	C	1.073976	-0.204195	-0.538831
C24	C	1.073981	-0.264622	-0.415432
C25	C	1.003243	-0.216918	-0.441583
C26	C	1.537855	-0.387750	-0.512495
C27	C	1.537876	-0.445864	-0.512509
C28	C	1.606271	-0.806230	-0.444579
C29	C	1.606312	-0.860835	-0.444594
O30	O	1.664278	-0.889074	-0.386784
N31	N	1.538222	-0.888146	-0.512614
C32	C	1.470093	-0.860851	-0.580632
O33	O	1.412182	-0.889095	-0.638490
C34	C	1.470058	-0.806247	-0.580622
C35	C	1.538145	-0.778939	-0.512590
C36	C	1.674353	-0.778922	-0.376553
C37	C	1.674310	-0.724321	-0.376538
C38	C	1.606185	-0.697029	-0.444549
C39	C	1.538102	-0.724338	-0.512574
C40	C	1.401936	-0.778953	-0.648645
C41	C	1.401907	-0.724346	-0.648630
C42	C	1.469994	-0.697037	-0.580598
C43	C	1.469934	-0.642446	-0.580570
N44	N	1.538024	-0.615134	-0.512549
C45	C	1.606150	-0.642426	-0.444539
C46	C	1.470173	-0.975521	-0.580648
C47	C	1.470202	-1.030123	-0.580653
C48	C	1.606423	-1.030104	-0.444616
C49	C	1.606388	-0.975501	-0.444606
C50	C	1.538264	-0.948210	-0.512628
C51	C	1.606054	-0.527761	-0.444511
C52	C	1.606002	-0.473156	-0.444499
C53	C	1.469786	-0.473180	-0.580539
C54	C	1.469833	-0.527781	-0.580548
C55	C	1.537976	-0.555070	-0.512531
O56	O	1.412001	-0.614171	-0.638353
O57	O	1.664061	-0.614175	-0.386700
C58	C	1.815655	-0.251927	-0.512528
C59	C	1.933961	-0.251936	-0.512521
C60	C	1.538106	-0.251861	-0.790164
C61	C	1.538136	-0.251842	-0.908470
C62	C	1.538243	-0.115534	-0.512615
C63	C	1.538332	-0.057420	-0.512646
C64	C	1.466996	-0.286747	-0.977709
C65	C	1.564106	-0.299525	-1.048480
C66	C	1.441102	-0.239032	-1.048498
C67	C	1.635297	-0.264645	-0.977683
C68	C	1.512227	-0.204130	-0.977695
C69	C	1.609405	-0.216890	-1.048434
C70	C	1.538025	-0.251915	-0.236002
C71	C	1.538201	-0.251787	-0.117697
H72	H	1.104952	-0.163854	-0.561064
H73	H	1.359014	-0.228220	-1.079604
H74	H	1.104972	-0.316409	-0.643625
H75	H	1.729756	-0.702090	-0.321144
H76	H	1.661898	-1.052335	-0.389242
O77	O	0.966310	-0.181572	-0.370099
C78	C	0.861633	-0.104183	-0.341736
C79	C	0.903369	-0.144184	-0.422790
H80	H	0.810755	-0.073938	-0.384308
H81	H	0.811731	-0.125025	-0.279205
H82	H	0.931588	-0.083951	-0.301691
H83	H	0.833478	-0.164428	-0.462913
H84	H	0.953303	-0.123313	-0.485254
O85	O	0.965924	-0.347673	-0.459831
C86	C	0.862368	-0.398559	-0.336606
C87	C	0.904440	-0.344088	-0.366553
H88	H	0.812668	-0.395681	-0.261177
H89	H	0.811210	-0.414343	-0.404002
H90	H	0.932153	-0.425990	-0.322435
H91	H	0.834721	-0.316618	-0.380708
H92	H	0.955630	-0.328347	-0.299141
O93	O	1.672095	-0.446686	-0.378263
C94	C	1.723811	-0.430002	-0.197241
C95	C	1.648914	-0.460017	-0.272128
H96	H	1.705081	-0.440760	-0.111414
H97	H	1.809651	-0.440701	-0.215915
H98	H	1.712101	-0.386289	-0.208960
H99	H	1.660529	-0.503736	-0.260450
H100	H	1.563102	-0.449274	-0.253436
H101	H	0.972052	-0.228456	-0.691869
O102	O	1.111257	-0.277524	-0.317556
C103	C	1.214832	-0.337904	-0.213802
C104	C	1.172706	-0.323338	-0.324708
H105	H	1.264503	-0.374952	-0.219543
H106	H	1.266030	-0.304747	-0.181908
H107	H	1.145074	-0.344814	-0.157829
H108	H	1.242398	-0.316437	-0.380761
H109	H	1.121476	-0.356503	-0.356515
H110	H	1.661830	-0.953269	-0.389209
H111	H	1.414690	-0.953304	-0.636036
O112	O	1.672398	-0.554203	-0.378488
C113	C	1.853502	-0.570838	-0.326996
C114	C	1.778491	-0.540855	-0.401821
H115	H	1.939295	-0.560065	-0.345848
H116	H	1.834932	-0.560124	-0.241141
H117	H	1.841805	-0.614555	-0.338652
H118	H	1.790146	-0.497130	-0.390259
H119	H	1.797079	-0.551612	-0.487648
H120	H	1.729835	-0.801137	-0.321171
H121	H	1.414749	-1.052354	-0.636042
O122	O	1.485825	-0.156052	-0.940610
C123	C	1.353646	-0.088207	-0.934604
C124	C	1.383417	-0.142663	-0.976656
H125	H	1.270857	-0.077360	-0.963749
H126	H	1.354568	-0.088593	-0.844093
H127	H	1.413518	-0.058335	-0.964901
H128	H	1.323574	-0.172566	-0.946439
H129	H	1.382529	-0.142234	-1.067166
H130	H	1.346434	-0.702128	-0.704025
H131	H	1.346487	-0.801178	-0.704039
O132	O	1.403805	-0.554289	-0.646780
C133	C	1.352019	-0.570928	-0.827799
C134	C	1.426867	-0.540888	-0.752904
H135	H	1.370623	-0.560096	-0.913615
H136	H	1.363761	-0.614649	-0.816227
H137	H	1.266200	-0.560251	-0.808987
H138	H	1.512715	-0.551522	-0.771669
H139	H	1.415033	-0.497175	-0.764490
O140	O	1.403714	-0.446582	-0.646569
C141	C	1.343264	-0.362465	-0.706789
C142	C	1.418154	-0.392523	-0.631967
H143	H	1.354897	-0.318752	-0.694993
H144	H	1.361924	-0.373121	-0.792654
H145	H	1.257464	-0.373275	-0.688059
H146	H	1.503980	-0.381729	-0.650602
H147	H	1.399403	-0.381864	-0.546124
H148	H	1.406882	-0.316311	-0.946655
O149	O	1.681431	-0.181706	-1.085208
C150	C	1.865081	-0.155427	-1.090599
C151	C	1.783626	-0.195312	-1.048899
H152	H	1.947721	-0.166407	-1.061241
H153	H	1.864186	-0.155419	-1.181113
H154	H	1.843618	-0.114899	-1.060251
H155	H	1.805033	-0.235859	-1.079168
H156	H	1.784537	-0.195274	-0.958386
H157	H	1.586055	-0.339851	-1.079572
O158	O	1.733181	-0.277617	-0.940561
C159	C	1.842976	-0.292168	-0.786716
C160	C	1.732073	-0.277480	-0.828614
H161	H	1.842124	-0.292052	-0.696203
H162	H	1.865252	-0.332705	-0.816427
H163	H	1.903684	-0.262584	-0.816512
H164	H	1.671291	-0.307030	-0.798836
H165	H	1.709888	-0.236931	-0.798912
