data_functionalizedCrystal
_audit_creation_method	'MofGen! by Chris Wilmer'
_symmetry_space_group_name_H-M	'P1'
_symmetry_Int_Tables_number	1
_symmetry_cell_setting	triclinic
loop_
_symmetry_equiv_pos_as_xyz
  x,y,z
_cell_length_a	12.837943
_cell_length_b	11.792241
_cell_length_c	11.295483
_cell_angle_alpha	94.123059
_cell_angle_beta	85.461227
_cell_angle_gamma	89.511178
loop_
_atom_site_label
_atom_site_type_symbol
_atom_site_fract_x
_atom_site_fract_y
_atom_site_fract_z
O1	O	1.384055	0.288341	-0.099005
O2	O	1.082168	0.273757	-0.099012
O3	O	1.240437	0.116622	-0.099000
O4	O	1.225787	0.445476	-0.099017
O5	O	1.226536	0.130400	0.099050
O6	O	1.068267	0.287535	0.099038
O7	O	1.370154	0.302119	0.099045
Cu8	Cu	1.217941	0.296085	0.117125
Cu9	Cu	1.234381	0.279791	-0.117092
O10	O	1.211885	0.459254	0.099033
C11	C	1.036570	0.275719	0.000012
C12	C	0.921410	0.261025	0.000010
C13	C	0.681444	0.437671	0.000018
C14	C	0.573241	0.423870	0.000016
C15	C	0.596797	0.219624	0.000014
C16	C	0.705001	0.233425	0.000016
C17	C	0.747320	0.342452	0.000016
C18	C	0.855526	0.356251	0.000008
C19	C	0.879080	0.152006	0.000015
C20	C	0.770877	0.138205	0.000013
C21	C	1.232566	0.081127	0.000025
C22	C	1.229812	-0.045167	0.000023
C23	C	1.224748	-0.276394	0.000003
C24	C	1.227561	-0.147723	0.000014
C25	C	1.415753	0.300157	0.000018
C26	C	1.530913	0.314850	0.000013
C27	C	1.219756	0.494749	0.000006
C28	C	1.222512	0.621042	-0.000001
N29	N	1.206386	0.307545	0.281860
N30	N	1.245945	0.268322	-0.281827
C31	C	1.329126	0.185760	0.531159
C32	C	1.320401	0.194430	0.655822
C33	C	1.180207	0.333547	0.655852
C34	C	1.188932	0.324878	0.531189
C35	C	1.263395	0.250983	0.468847
C36	C	1.272124	0.242320	0.344181
C37	C	1.131925	0.381431	0.344213
C38	C	1.123200	0.390100	0.468876
H39	H	0.736404	0.049439	0.000027
H40	H	0.715901	0.526445	0.000016
O41	O	1.068222	0.444853	0.283555
C42	C	1.129218	0.515964	0.211464
H43	H	1.211431	0.478249	0.192767
H44	H	1.133381	0.603999	0.259516
C45	C	0.978191	0.571987	0.116025
C46	C	1.079164	0.525660	0.093052
H47	H	0.947315	0.577973	0.042985
H48	H	0.937096	0.524082	0.164597
H49	H	0.981675	0.645345	0.156071
H50	H	1.075679	0.452298	0.053021
H51	H	1.120258	0.573553	0.044471
H52	H	0.889980	0.445026	0.000010
O53	O	1.384289	0.131244	0.716482
C54	C	1.443596	0.204032	0.788553
H55	H	1.401480	0.289708	0.807240
H56	H	1.523659	0.216739	0.740488
C57	C	1.508845	0.045415	0.884013
C58	C	1.457113	0.150640	0.906972
H59	H	1.517188	0.012480	0.957058
H60	H	1.468892	-0.003625	0.835455
H61	H	1.575559	0.056019	0.843956
H62	H	1.390396	0.140034	0.947015
H63	H	1.497055	0.199678	0.955540
H64	H	0.519607	0.501409	0.000021
O65	O	1.401353	0.113836	0.470633
C66	C	1.381769	0.001691	0.501102
H67	H	1.296329	-0.005533	0.535402
H68	H	1.434022	-0.020386	0.573436
C69	C	1.510144	-0.072355	0.348212
C70	C	1.405203	-0.081231	0.390330
H71	H	1.524604	-0.123507	0.279885
H72	H	1.523342	0.003198	0.327686
H73	H	1.553676	-0.090751	0.408500
H74	H	1.361674	-0.062821	0.330048
H75	H	1.391999	-0.156784	0.410844
O76	O	1.050922	0.462028	0.529305
C77	C	1.070565	0.574168	0.498861
H78	H	1.116886	0.572081	0.408342
H79	H	1.117476	0.619780	0.569015
C80	C	0.909186	0.640435	0.604294
C81	C	0.966071	0.637871	0.493111
H82	H	0.844731	0.679733	0.600752
H83	H	0.895954	0.564885	0.624809
H84	H	0.948291	0.678442	0.662743
H85	H	0.926972	0.599852	0.434667
H86	H	0.979295	0.713417	0.472586
H87	H	0.562315	0.130866	0.000112
H88	H	0.932729	0.074471	0.000005
H89	H	1.119573	0.393702	0.706627
O90	O	1.344343	0.170356	0.283699
C91	C	1.324697	0.058242	0.314231
H92	H	1.239244	0.051076	0.348502
H93	H	1.376912	0.036180	0.386606
C94	C	1.453091	-0.015941	0.161430
C95	C	1.348133	-0.024745	0.203512
H96	H	1.467551	-0.067133	0.093136
H97	H	1.466330	0.059592	0.140862
H98	H	1.496591	-0.034324	0.221753
H99	H	1.304635	-0.006348	0.143195
H100	H	1.334887	-0.100278	0.224067
