data_functionalizedCrystal
_audit_creation_method	'MofGen! by Chris Wilmer'
_symmetry_space_group_name_H-M	'P1'
_symmetry_Int_Tables_number	1
_symmetry_cell_setting	triclinic
loop_
_symmetry_equiv_pos_as_xyz
  x,y,z
_cell_length_a	23.532407
_cell_length_b	10.540539
_cell_length_c	9.616153
_cell_angle_alpha	90.000094
_cell_angle_beta	90.001509
_cell_angle_gamma	83.687084
loop_
_atom_site_label
_atom_site_type_symbol
_atom_site_fract_x
_atom_site_fract_y
_atom_site_fract_z
O1	O	-0.756279	-0.154076	-0.115466
O2	O	-0.590563	-0.176370	-0.115506
O3	O	-0.677202	0.019607	-0.115483
O4	O	-0.669641	-0.350054	-0.115489
O5	O	-0.677190	0.019603	0.115808
O6	O	-0.590551	-0.176375	0.115786
O7	O	-0.756268	-0.154081	0.115825
Zn8	Zn	-0.673408	-0.165228	0.152528
Zn9	Zn	-0.673423	-0.165223	-0.152208
O10	O	-0.669629	-0.350058	0.115803
C11	C	-0.569338	-0.175805	0.000135
C12	C	-0.506109	-0.174098	0.000119
C13	C	-0.676629	0.066889	0.000160
C14	C	-0.674933	0.207782	0.000152
C15	C	-0.777493	-0.154646	0.000182
C16	C	-0.840722	-0.156353	0.000188
C17	C	-0.107702	-0.279368	0.000181
C18	C	-0.048291	-0.277782	0.000189
O19	O	-0.012191	-0.375368	0.000238
N20	N	-0.024895	-0.161273	0.000189
C21	C	-0.060914	-0.046343	0.000194
O22	O	-0.035558	0.052903	0.000195
C23	C	-0.120323	-0.047930	0.000195
C24	C	-0.143715	-0.164446	0.000181
C25	C	-0.131094	-0.395874	0.000169
C26	C	-0.190501	-0.397459	0.000158
C27	C	-0.226515	-0.282538	0.000158
C28	C	-0.203122	-0.166031	0.000170
C29	C	-0.156340	0.066999	0.000210
C30	C	-0.215753	0.065402	0.000212
C31	C	-0.239146	-0.051114	0.000199
C32	C	-0.298542	-0.052694	0.000160
N33	N	-0.321938	-0.169203	0.000161
C34	C	-0.285924	-0.284125	0.000160
C35	C	0.063851	-0.043019	0.000193
C36	C	0.123259	-0.041431	0.000182
C37	C	0.135878	-0.272870	0.000180
C38	C	0.076468	-0.274457	0.000181
C39	C	0.040455	-0.159528	0.000194
C40	C	-0.410683	-0.287445	0.000135
C41	C	-0.470095	-0.289020	0.000118
C42	C	-0.482709	-0.057581	0.000127
C43	C	-0.423302	-0.056005	0.000137
C44	C	-0.387290	-0.170947	0.000146
O45	O	-0.334677	0.044840	0.000117
O46	O	-0.311288	-0.383354	0.000177
C47	C	-0.670202	-0.397340	0.000157
C48	C	-0.671898	-0.538233	0.000155
N49	N	-0.673401	-0.165231	0.360503
C50	C	-0.609924	0.389075	-0.000383
C51	C	-0.611644	0.242514	0.000138
C52	C	-0.705383	0.270437	0.132238
C53	C	-0.703223	0.416910	0.132349
C54	C	-0.704524	0.417476	-0.130673
C55	C	-0.705107	0.270513	-0.132419
N56	N	-0.673434	-0.165209	-0.360183
C57	C	-0.626913	-0.269724	0.580860
C58	C	-0.627016	-0.270107	0.419693
C59	C	-0.732940	-0.193411	0.418966
C60	C	-0.732687	-0.194148	0.580184
C61	C	-0.660943	-0.032202	0.580412
C62	C	-0.659576	-0.033111	0.419185
H63	H	-0.381368	-0.381042	0.000147
O64	O	-0.576932	0.427975	0.124376
H65	H	-0.604484	0.498854	0.186767
H66	H	-0.750237	0.466202	-0.131550
H67	H	-0.744109	-0.289282	0.378577
O68	O	-0.568414	-0.248039	0.367331
H69	H	-0.550770	-0.330840	0.303433
O70	O	-0.637406	-0.399759	0.634499
H71	H	-0.644730	-0.462926	0.545421
O72	O	-0.766231	0.240447	-0.142981
H73	H	-0.790306	0.277658	-0.049620
O74	O	-0.779957	-0.097108	0.631847
H75	H	-0.780129	-0.096904	0.747271
O76	O	-0.701489	0.074652	0.365827
H77	H	-0.678084	0.143152	0.307017
H78	H	-0.587505	0.199964	0.094969
O79	O	-0.673399	0.453288	0.263120
H80	H	-0.671567	0.558054	0.264502
H81	H	-0.618444	-0.004917	0.621139
O82	O	-0.568128	-0.248036	0.632270
H83	H	-0.571437	-0.162539	0.700399
O84	O	-0.637651	-0.400869	0.368569
H85	H	-0.679667	-0.424123	0.407619
O86	O	-0.747158	-0.322603	0.629994
H87	H	-0.754267	-0.383614	0.538934
O88	O	-0.763510	0.482444	0.140334
H89	H	-0.794077	0.409474	0.144111
H90	H	-0.682827	0.228925	-0.230132
H91	H	0.142300	0.053449	0.000171
H92	H	-0.587683	0.199126	-0.094547
O93	O	-0.576808	0.425899	-0.125836
H94	H	-0.599254	0.401143	-0.221970
O95	O	-0.131118	0.192671	0.000230
H96	H	-0.104351	0.198919	0.094502
O97	O	-0.705857	0.070797	0.631012
H98	H	-0.685050	0.142483	0.691644
O99	O	0.174727	-0.396829	0.000203
H100	H	0.219966	-0.376141	0.000224
O101	O	-0.495327	-0.414695	0.000126
H102	H	-0.460300	-0.494337	0.000149
H103	H	-0.209541	-0.492339	0.000146
H104	H	-0.101777	-0.489463	0.000173
H105	H	-0.768403	-0.119284	0.380623
H106	H	0.057427	-0.369335	0.000178
O107	O	-0.601555	-0.004754	0.368599
H108	H	-0.582639	-0.084412	0.301929
H109	H	0.034532	0.050577	0.000191
H110	H	-0.245073	0.158995	0.000223
H111	H	-0.684221	0.227141	0.230522
O112	O	-0.398065	0.069661	0.000147
H113	H	-0.433091	0.149305	0.000152
H114	H	-0.684046	0.448358	-0.230785
O115	O	-0.521560	0.066364	0.000150
H116	H	-0.548936	0.071181	-0.094111
O117	O	-0.766947	0.242841	0.138787
H118	H	-0.776515	0.184031	0.047752
