data_functionalizedCrystal
_audit_creation_method	'MofGen! by Chris Wilmer'
_symmetry_space_group_name_H-M	'P1'
_symmetry_Int_Tables_number	1
_symmetry_cell_setting	triclinic
loop_
_symmetry_equiv_pos_as_xyz
  x,y,z
_cell_length_a	31.640172
_cell_length_b	14.560438
_cell_length_c	14.560438
_cell_angle_alpha	59.997945
_cell_angle_beta	90.003589
_cell_angle_gamma	60.003969
loop_
_atom_site_label
_atom_site_type_symbol
_atom_site_fract_x
_atom_site_fract_y
_atom_site_fract_z
Zr1	Zr	0.407239	1.005106	-0.120392
O2	O	0.339760	1.196717	-0.267057
O3	O	0.427917	0.813510	-0.075434
O4	O	0.427928	1.005103	-0.267035
O5	O	0.339749	1.005121	0.075685
O6	O	0.497485	1.005084	-0.267015
O7	O	0.339749	1.005124	-0.075456
O8	O	0.497466	0.662360	0.075725
O9	O	0.339768	1.347846	-0.267055
O10	O	0.488655	0.892297	-0.056242
O11	O	0.436745	0.892309	0.056538
O12	O	0.436758	1.117885	-0.169048
O13	O	0.384848	1.117897	-0.056268
Zr14	Zr	0.518174	1.005072	0.120692
Zr15	Zr	0.518174	1.005076	-0.120360
Zr16	Zr	0.407239	1.005102	0.120660
Zr17	Zr	0.407252	1.246140	-0.120388
Zr18	Zr	0.518161	0.764038	0.120688
O19	O	0.497496	1.196668	0.075733
O20	O	0.497496	1.196673	-0.267012
O21	O	0.339760	1.196711	0.075688
O22	O	0.585653	0.813461	0.267357
O23	O	0.585653	0.813467	-0.075388
O24	O	0.427917	0.813505	0.267312
O25	O	0.585664	1.005057	-0.075385
O26	O	0.497485	1.005075	0.267335
O27	O	0.427928	1.005094	0.267315
O28	O	0.585664	1.005054	0.075756
O29	O	0.427947	1.347822	-0.267029
O30	O	0.497466	0.662356	0.267329
O31	O	0.585645	0.662332	0.267355
O32	O	0.585644	0.662336	0.075750
O33	O	0.339768	1.347842	-0.075451
O34	O	0.427947	1.347818	-0.075425
O35	O	0.488655	0.892293	0.169348
O36	O	0.540564	0.892281	0.056568
O37	O	0.488667	1.117869	-0.056238
O38	O	0.436758	1.117881	0.056542
C39	C	0.462689	0.703593	0.000145
C40	C	0.462684	0.601268	0.000143
C41	C	0.501012	0.469940	0.083420
C42	C	0.501034	0.373760	0.083429
C43	C	0.424397	0.540251	-0.083125
C44	C	0.424373	0.636429	-0.083128
C45	C	0.545259	0.373816	0.179576
C46	C	0.545281	0.277636	0.179585
C47	C	0.323943	1.005127	0.000110
C48	C	0.276848	1.005140	0.000096
C49	C	0.011932	0.887322	0.059056
C50	C	-0.165053	0.887300	0.059078
O51	O	-0.164900	0.787153	0.109198
N52	N	-0.214273	1.005053	0.000193
C53	C	-0.219245	1.122821	-0.058696
O54	O	-0.265170	1.222977	-0.108771
C55	C	-0.042261	1.122842	-0.058710
C56	C	0.006958	1.005081	0.000169
C57	C	0.061148	0.769570	0.117932
C58	C	0.105392	0.769577	0.117921
C59	C	0.100418	0.887336	0.059034
C60	C	0.051202	1.005088	0.000158
C61	C	-0.047233	1.240609	-0.117592
C62	C	-0.002982	1.240603	-0.117588
C63	C	0.046237	1.122842	-0.058709
C64	C	0.090472	1.122853	-0.058740
N65	N	0.139691	1.005099	0.000145
C66	C	0.144664	0.887341	0.059032
C67	C	-0.312163	1.122802	-0.058685
C68	C	-0.356409	1.122797	-0.058683
C69	C	-0.302214	0.887275	0.059093
C70	C	-0.257967	0.887281	0.059083
C71	C	-0.262943	1.005048	0.000200
C72	C	0.237577	0.887364	0.059003
C73	C	0.281821	0.887381	0.058983
C74	C	0.227623	1.122902	-0.058788
C75	C	0.183382	1.122886	-0.058773
C76	C	0.188362	1.005106	0.000131
O77	O	0.090358	1.222947	-0.108823
O78	O	0.190594	0.787199	0.109120
C79	C	-0.032312	0.887315	0.059067
C80	C	-0.081528	1.005067	0.000192
C81	C	-0.086502	1.122826	-0.058696
C82	C	-0.125774	1.005062	0.000193
C83	C	-0.120801	0.887304	0.059081
C84	C	-0.071582	0.769550	0.117966
C85	C	-0.027338	0.769557	0.117955
C86	C	-0.135721	1.240580	-0.117581
C87	C	-0.179962	1.240563	-0.117566
C88	C	-0.174989	1.122804	-0.058679
C89	C	0.601470	1.005051	0.000190
C90	C	0.648565	1.005038	0.000204
C91	C	0.462706	1.005094	-0.301370
C92	C	0.462706	1.005096	-0.403703
C93	C	0.462723	1.306585	0.000155
C94	C	0.462729	1.408910	0.000156
C95	C	0.435614	1.122848	-0.510663
C96	C	0.435616	1.122842	-0.606811
C97	C	0.489802	0.887321	-0.489026
C98	C	0.489803	0.887328	-0.392880
C99	C	0.404329	1.258825	-0.578666
C100	C	0.404330	1.258819	-0.674814
C101	C	0.462706	1.005084	0.301669
C102	C	0.462707	1.005082	0.404002
C103	C	0.601453	0.703555	0.000185
C104	C	0.648542	0.601217	0.000197
C105	C	0.462689	0.703588	0.301665
C106	C	0.462684	0.601261	0.403996
C107	C	0.601453	0.703550	0.301705
C108	C	0.648542	0.601210	0.404050
C109	C	0.323960	1.306628	-0.301405
C110	C	0.276871	1.408968	-0.403750
C111	C	0.323960	1.306623	0.000114
C112	C	0.276871	1.408961	0.000102
C113	C	0.462723	1.306590	-0.301365
C114	C	0.462729	1.408917	-0.403696
C115	C	0.643559	0.553166	-0.058693
C116	C	0.687800	0.457022	-0.058704
C117	C	0.737024	0.408924	0.000182
C118	C	0.742005	0.456984	0.059074
C119	C	0.697765	0.553133	0.059078
C120	C	0.697757	0.553144	0.393242
C121	C	0.742006	0.456998	0.489397
C122	C	0.737040	0.408914	0.596358
C123	C	0.687820	0.456990	0.607164
C124	C	0.643572	0.553140	0.511010
C125	C	0.227656	1.457046	-0.392942
C126	C	0.183406	1.553221	-0.489097
C127	C	0.188372	1.601310	-0.596058
C128	C	0.237592	1.553229	-0.606864
C129	C	0.281841	1.457061	-0.510710
C130	C	0.281853	1.457022	0.058982
C131	C	0.237612	1.553192	0.058967
C132	C	0.188389	1.601294	0.000078
C133	C	0.183407	1.553229	-0.058810
C134	C	0.227648	1.457067	-0.058800
C135	C	0.489778	0.553174	0.510957
C136	C	0.489769	0.457033	0.607104
C137	C	0.435570	0.457069	0.489316
C138	C	0.435576	0.553215	0.393171
C139	C	0.521071	0.553149	0.578962
C140	C	0.521062	0.457007	0.675109
H141	H	0.393206	0.568865	-0.150922
O142	O	0.498009	0.672437	0.578892
H143	H	0.521400	0.647007	0.655133
O144	O	0.795094	0.405139	0.477756
H145	H	0.799600	0.361311	0.431090
H146	H	0.321912	1.417917	-0.519523
O147	O	0.334939	1.405173	0.122496
H148	H	0.356393	1.299112	0.187596
O149	O	-0.233047	1.367592	-0.181086
H150	H	-0.262983	1.347819	-0.171200
O151	O	0.493698	0.504870	0.742536
H152	H	0.479205	0.607991	0.700540
O153	O	0.130292	1.249894	-0.122279
H154	H	0.134270	1.331779	-0.163224
O155	O	0.784768	0.305190	0.700064
H156	H	0.808138	0.342082	0.699997
O157	O	0.242996	1.605000	0.122502
H158	H	0.203966	1.679959	0.112601
H159	H	0.143324	1.592408	-0.106756
H160	H	0.541439	0.362986	0.261693
O161	O	0.591861	0.373872	0.157330
H162	H	0.616589	0.296117	0.145544
O163	O	0.431676	1.314703	-0.742269
H164	H	0.430554	1.312381	-0.817235
H165	H	0.413499	0.417939	0.480516
H166	H	0.145465	0.673683	0.165862
H167	H	0.683785	0.417825	0.694264
O168	O	0.242952	0.760332	0.122529
H169	H	0.224084	0.754701	0.063089
O170	O	0.575933	0.337735	0.744262
H171	H	0.585847	0.316192	0.828948
O172	O	0.383035	0.778079	-0.172949
H173	H	0.356406	0.786364	-0.230858
H174	H	0.537557	0.217951	0.256063
H175	H	0.223603	1.417897	-0.305858
H176	H	0.241630	1.592395	-0.693963
H177	H	0.683734	0.417904	-0.106660
O178	O	0.066518	0.642549	0.181437
H179	H	0.108178	0.560684	0.222360
O180	O	0.590490	0.604954	0.522672
H181	H	0.594476	0.555342	0.613205
O182	O	0.590473	0.605040	-0.122226
H183	H	0.560541	0.679970	-0.112336
O184	O	0.574131	0.505298	0.567397
H185	H	0.572866	0.513663	0.487227
O186	O	0.595339	0.194211	0.168601
H187	H	0.628387	0.147825	0.240495
O188	O	0.406457	0.604861	0.277802
H189	H	0.387650	0.555204	0.286433
H190	H	0.152370	1.679595	0.000079
O191	O	0.222272	1.405225	-0.122303
H192	H	0.200782	1.361435	-0.088269
O193	O	0.334909	0.760363	0.122488
H194	H	0.339416	0.703897	0.212988
O195	O	-0.204882	0.760270	0.122596
H196	H	-0.208864	0.678391	0.163545
H197	H	-0.298171	0.791391	0.107034
H198	H	0.143334	1.592353	-0.480277
H199	H	-0.316223	1.218707	-0.106643
O200	O	0.351268	1.314717	-0.567107
H201	H	0.353457	1.312407	-0.489824
H202	H	-0.396482	1.218690	-0.106644
O203	O	0.140645	1.705048	-0.699765
H204	H	0.105591	1.730391	-0.674269
H205	H	-0.087303	1.336503	-0.165537
H206	H	-0.007040	1.336506	-0.165525
H207	H	0.223582	1.218778	-0.106736
H208	H	0.012735	0.673663	0.165903
O209	O	-0.066220	0.642533	0.181484
H210	H	-0.105258	0.662328	0.171598
H211	H	-0.139779	1.336475	-0.165537
H212	H	0.511870	0.791443	-0.305791
H213	H	0.511863	0.791438	-0.480229
H214	H	0.421735	1.311032	-0.578682
O215	O	0.784739	0.305210	0.000184
H216	H	0.773000	0.279875	-0.050652
H217	H	0.362900	1.311028	-0.727020
H218	H	0.701810	0.592280	0.306158
O219	O	0.795097	0.405101	0.122591
H220	H	0.816540	0.299036	0.187666
O221	O	0.703141	0.604937	0.122617
H222	H	0.744803	0.555319	0.163571
