data_functionalizedCrystal
_audit_creation_method	'MofGen! by Chris Wilmer'
_symmetry_space_group_name_H-M	'P1'
_symmetry_Int_Tables_number	1
_symmetry_cell_setting	triclinic
loop_
_symmetry_equiv_pos_as_xyz
  x,y,z
_cell_length_a	15.297475
_cell_length_b	16.625546
_cell_length_c	15.296720
_cell_angle_alpha	80.357530
_cell_angle_beta	88.382886
_cell_angle_gamma	80.324704
loop_
_atom_site_label
_atom_site_type_symbol
_atom_site_fract_x
_atom_site_fract_y
_atom_site_fract_z
Zn1	Zn	1.253404	-0.627523	0.726565
Zn2	Zn	1.753404	-0.127523	1.226565
Zn3	Zn	1.278668	-0.743625	0.580074
Zn4	Zn	1.778668	-0.243625	1.080074
Zn5	Zn	1.132282	-0.582227	0.554808
Zn6	Zn	1.632282	-0.082227	1.054808
Zn7	Zn	1.106894	-0.735700	0.701203
Zn8	Zn	1.606894	-0.235700	1.201203
O9	O	1.192812	-0.672269	0.640662
O10	O	1.692812	-0.172269	1.140662
O11	O	1.379334	-0.665198	0.728320
O12	O	1.879334	-0.165198	1.228320
O13	O	1.280447	-0.706576	0.454149
O14	O	1.780447	-0.206576	0.954149
O15	O	1.148401	-0.475417	0.577632
O16	O	1.648401	0.024583	1.077632
O17	O	1.397894	-0.750498	0.620694
O18	O	1.897894	-0.250498	1.120694
O19	O	1.237389	-0.508696	0.703821
O20	O	1.737389	-0.008696	1.203821
O21	O	1.172898	-0.587997	0.435586
O22	O	1.672898	-0.087997	0.935586
O23	O	1.006336	-0.580312	0.553039
O24	O	1.506336	-0.080312	1.053039
O25	O	1.105131	-0.736989	0.827141
O26	O	1.605131	-0.236989	1.327141
O27	O	0.987683	-0.693068	0.660595
O28	O	1.487683	-0.193068	1.160595
O29	O	1.212772	-0.657513	0.845774
O30	O	1.712772	-0.157513	1.345774
O31	O	1.255829	-0.855392	0.596102
O32	O	1.755829	-0.355392	1.096102
O33	O	1.129628	-0.849569	0.685095
O34	O	1.629628	-0.349569	1.185095
C35	C	0.965226	-0.630915	0.601324
C36	C	1.465226	-0.130915	1.101324
C37	C	0.867861	-0.613246	0.584516
C38	C	1.367861	-0.113246	1.084516
C39	C	0.554716	-0.798559	0.760796
C40	C	1.054716	-0.298559	1.260796
C41	C	0.646196	-0.815166	0.776586
C42	C	1.146196	-0.315166	1.276586
C43	C	0.701616	-0.764687	0.728570
C44	C	1.201616	-0.264687	1.228570
C45	C	0.665548	-0.697599	0.664761
C46	C	1.165548	-0.197599	1.164761
C47	C	0.574060	-0.680995	0.648965
C48	C	1.074060	-0.180995	1.148965
C49	C	0.720961	-0.647123	0.616739
C50	C	1.220961	-0.147123	1.116739
C51	C	0.684892	-0.580034	0.552930
C52	C	1.184892	-0.080034	1.052930
C53	C	0.593412	-0.563433	0.537137
C54	C	1.093412	-0.063433	1.037137
C55	C	0.537992	-0.613911	0.585153
C56	C	1.037992	-0.113911	1.085153
C57	C	0.812449	-0.663727	0.632535
C58	C	1.312449	-0.163727	1.132535
C59	C	0.831793	-0.546163	0.520704
C60	C	1.331793	-0.046163	1.020704
C61	C	0.740313	-0.529556	0.504914
C62	C	1.240313	-0.029556	1.004914
C63	C	1.192735	-0.881740	0.640611
C64	C	1.692735	-0.381740	1.140611
C65	C	1.192778	-0.971371	0.640633
C66	C	1.692778	-0.471371	1.140633
C67	C	1.192915	-1.299586	0.640750
C68	C	1.692915	-0.799586	1.140750
C69	C	1.192873	-1.208266	0.640720
C70	C	1.692873	-0.708266	1.140720
C71	C	1.192845	-1.135481	0.640691
C72	C	1.692845	-0.635481	1.140691
C73	C	1.192805	-1.044156	0.640661
C74	C	1.692805	-0.544156	1.140661
C75	C	1.421286	-0.713785	0.680155
C76	C	1.921286	-0.213785	1.180155
C77	C	1.518648	-0.731476	0.696984
C78	C	2.018648	-0.231476	1.196984
C79	C	1.153301	-0.701420	0.869128
C80	C	1.653301	-0.201420	1.369128
C81	C	1.136464	-0.713842	0.966487
C82	C	1.636464	-0.213842	1.466487
C83	C	1.192909	-0.461986	0.640737
C84	C	1.692909	0.038014	1.140737
C85	C	1.192951	-0.372377	0.640769
C86	C	1.692951	0.127623	1.140769
C87	C	1.232219	-0.643182	0.413094
C88	C	1.732219	-0.143182	0.913094
C89	C	1.249226	-0.630564	0.315765
C90	C	1.749226	-0.130564	0.815765
C91	C	1.313182	-0.583349	1.279731
C92	C	1.813182	-0.083349	1.779731
C93	C	1.329006	-0.571680	1.188259
C94	C	1.829006	-0.071680	1.688259
C95	C	1.280872	-0.607219	1.132811
C96	C	1.780872	-0.107219	1.632811
C97	C	1.216911	-0.654430	1.168845
C98	C	1.716911	-0.154430	1.668845
C99	C	1.201089	-0.666105	1.260327
C100	C	1.701089	-0.166105	1.760327
C101	C	1.168779	-0.689976	1.113407
C102	C	1.668779	-0.189976	1.613407
C103	C	1.104818	-0.737187	1.149441
C104	C	1.604818	-0.237187	1.649441
C105	C	1.088999	-0.748860	1.240914
C106	C	1.588999	-0.248860	1.740914
C107	C	1.137133	-0.713320	1.296362
C108	C	1.637133	-0.213320	1.796362
C109	C	1.184601	-0.678300	1.021925
C110	C	1.684601	-0.178300	1.521925
C111	C	1.072508	-0.761057	1.002521
C112	C	1.572508	-0.261057	1.502521
C113	C	1.056684	-0.772726	1.093994
C114	C	1.556684	-0.272726	1.593994
H115	H	0.509586	-0.839656	0.799878
H116	H	1.009586	-0.339656	1.299878
N117	N	1.120073	-0.725913	1.395025
N118	N	1.620073	-0.225913	1.895025
H119	H	1.072255	-0.761218	1.409442
H120	H	1.572255	-0.261218	1.909442
H121	H	1.100225	-0.670463	1.414232
H122	H	1.600225	-0.170463	1.914232
H123	H	1.381086	-0.533243	1.158927
H124	H	1.881086	-0.033243	1.658927
H125	H	0.710933	-0.474932	0.452960
H126	H	1.210933	0.025068	0.952960
N127	N	1.365099	-0.545029	1.339532
N128	N	1.865099	-0.045029	1.839532
H129	H	1.345371	-0.559592	1.402949
H130	H	1.845371	-0.059592	1.902949
H131	H	1.354262	-0.482932	1.321214
H132	H	1.854262	0.017068	1.821214
N133	N	0.554519	-0.491072	0.468315
N134	N	1.054519	0.008928	0.968315
H135	H	0.510413	-0.451426	0.497439
H136	H	1.010413	0.048574	0.997439
H137	H	0.523624	-0.511761	0.421117
H138	H	1.023624	-0.011761	0.921117
N139	N	0.800284	-0.782585	0.745602
N140	N	1.300284	-0.282585	1.245602
H141	H	0.832703	-0.793641	0.689287
H142	H	1.332703	-0.293641	1.189287
H143	H	0.814650	-0.832728	0.793338
H144	H	1.314650	-0.332728	1.293338
H145	H	1.004605	-0.811165	1.123345
H146	H	1.504605	-0.311165	1.623345
N147	N	1.020018	-0.799786	1.279777
N148	N	1.520018	-0.299786	1.779777
H149	H	0.972878	-0.764491	1.310729
H150	H	1.472878	-0.264491	1.810729
H151	H	1.049106	-0.848454	1.323828
H152	H	1.549106	-0.348454	1.823828
N153	N	1.020569	-0.799370	0.942723
N154	N	1.520569	-0.299370	1.442723
H155	H	0.977649	-0.831049	0.979429
H156	H	1.477649	-0.331049	1.479429
H157	H	1.062759	-0.838315	0.910905
H158	H	1.562759	-0.338315	1.410905
N159	N	1.297936	-0.594635	1.034152
N160	N	1.797936	-0.094635	1.534152
H161	H	1.345758	-0.559334	1.019737
H162	H	1.845758	-0.059334	1.519737
H163	H	1.241623	-0.566108	1.001802
H164	H	1.741623	-0.066108	1.501802
N165	N	0.851341	-0.736083	0.701353
N166	N	1.351341	-0.236083	1.201353
H167	H	0.824608	-0.728754	0.761215
H168	H	1.324608	-0.228754	1.261215
H169	H	0.917702	-0.738910	0.703999
H170	H	1.417702	-0.238910	1.203999
H171	H	0.675556	-0.869791	0.828537
H172	H	1.175556	-0.369791	1.328537
H173	H	0.876917	-0.505060	0.481604
H174	H	1.376917	-0.005060	0.981604
N175	N	0.439323	-0.596008	0.568108
N176	N	0.939323	-0.096008	1.068108
H177	H	0.409692	-0.638168	0.608208
H178	H	0.909692	-0.138168	1.108208
H179	H	0.427757	-0.599061	0.504165
H180	H	0.927757	-0.099061	1.004165
H181	H	1.236678	-0.639860	0.992596
H182	H	1.736678	-0.139860	1.492596
