data_functionalizedCrystal
_audit_creation_method	'MofGen! by Chris Wilmer'
_symmetry_space_group_name_H-M	'P1'
_symmetry_Int_Tables_number	1
_symmetry_cell_setting	triclinic
loop_
_symmetry_equiv_pos_as_xyz
  x,y,z
_cell_length_a	21.395362
_cell_length_b	13.032868
_cell_length_c	21.395356
_cell_angle_alpha	82.845906
_cell_angle_beta	89.957023
_cell_angle_gamma	82.769555
loop_
_atom_site_label
_atom_site_type_symbol
_atom_site_fract_x
_atom_site_fract_y
_atom_site_fract_z
Zn1	Zn	0.926214	0.415642	-0.386214
Zn2	Zn	0.912814	0.590407	-0.294735
Zn3	Zn	0.821425	0.415719	-0.281421
Zn4	Zn	0.808095	0.590401	-0.399439
O5	O	0.867137	0.503042	-0.340452
O6	O	1.012117	0.438796	-0.374116
O7	O	0.900662	0.567269	-0.205293
O8	O	0.846511	0.269463	-0.284215
O9	O	1.002272	0.567195	-0.306907
O10	O	0.923500	0.269407	-0.361206
O11	O	0.833519	0.438926	-0.195512
O12	O	0.731976	0.438920	-0.297039
O13	O	0.823793	0.567184	-0.485360
O14	O	0.722183	0.567258	-0.383747
O15	O	0.910574	0.438789	-0.475643
O16	O	0.887737	0.736651	-0.319731
O17	O	0.810800	0.736647	-0.396657
C18	C	0.704345	0.503097	-0.340384
C19	C	0.634700	0.503146	-0.340371
C20	C	0.596897	0.570061	-0.385466
C21	C	0.531464	0.570035	-0.385492
C22	C	0.503835	0.503106	-0.340413
C23	C	0.541647	0.436179	-0.295314
C24	C	0.607079	0.436199	-0.295293
C25	C	0.400751	0.494702	-0.283368
C26	C	0.335319	0.494689	-0.283388
C27	C	0.302019	0.503038	-0.340477
C28	C	0.334158	0.511421	-0.397548
C29	C	0.399591	0.511441	-0.397527
C30	C	0.432885	0.503076	-0.340430
C31	C	0.193266	0.569928	-0.385604
C32	C	0.127832	0.569895	-0.385630
C33	C	0.138015	0.436044	-0.295446
C34	C	0.203449	0.436072	-0.295425
C35	C	0.231070	0.503019	-0.340503
C36	C	0.846385	0.774569	-0.361087
C37	C	0.837564	0.890729	-0.369936
C38	C	0.871733	0.942485	-0.335848
C39	C	0.862617	1.062542	-0.344993
C40	C	1.030564	0.502987	-0.340521
C41	C	1.100208	0.502964	-0.340551
C42	C	0.887966	1.230455	-0.319743
C43	C	0.896790	1.114295	-0.310901
C44	C	0.867191	0.502977	-0.503870
C45	C	0.867214	0.502950	-0.573510
C46	C	0.832264	0.436114	-0.601119
C47	C	0.832263	0.436095	-0.666553
C48	C	0.867225	0.502900	-0.704374
C49	C	0.902177	0.569749	-0.676758
C50	C	0.902172	0.569774	-0.611326
C51	C	0.923054	0.511090	-0.808703
C52	C	0.923060	0.511058	-0.874133
C53	C	0.867241	0.502829	-0.906190
C54	C	0.811414	0.494611	-0.872806
C55	C	0.811408	0.494636	-0.807374
C56	C	0.867234	0.502881	-0.775325
C57	C	0.832286	0.435969	-1.004750
C58	C	0.832284	0.435957	-1.070186
C59	C	0.902204	0.569606	-1.080389
C60	C	0.902200	0.569623	-1.014955
C61	C	0.867243	0.502799	-0.977139
C62	C	0.867125	0.503031	-0.177664
C63	C	0.867245	0.502764	-0.108002
H64	H	0.500679	0.624524	-0.422217
H65	H	0.427858	0.487899	-0.236876
O66	O	0.939910	0.641702	-0.985178
H67	H	0.907800	0.694905	-0.959390
H68	H	0.803796	0.381705	-0.570333
H69	H	0.215756	0.624435	-0.422312
H70	H	0.765952	0.487946	-0.780195
O71	O	0.244230	0.363910	-0.246783
H72	H	0.270426	0.410633	-0.218407
H73	H	0.097053	0.624383	-0.422356
H74	H	0.801566	0.935301	-0.405893
O75	O	0.298248	0.520408	-0.459125
H76	H	0.315943	0.454026	-0.484898
O77	O	0.794589	0.363863	-1.099969
H78	H	0.770287	0.317396	-1.062677
H79	H	0.968518	0.517745	-0.901309
O80	O	0.939916	0.641662	-1.121171
H81	H	0.934052	0.630414	-1.171309
H82	H	0.765961	0.487903	-0.898904
H83	H	0.803821	0.381558	-0.973958
H84	H	0.803804	0.381664	-0.689037
H85	H	0.968513	0.517782	-0.782608
H86	H	0.930643	0.624142	-0.707556
O87	O	0.939883	0.641851	-0.581545
H88	H	0.922871	0.723874	-0.600325
O89	O	0.626691	0.642250	-0.434092
H90	H	0.589408	0.688768	-0.465458
H91	H	0.907737	0.897915	-0.299896
O92	O	0.108226	0.363862	-0.246817
H93	H	0.056375	0.375095	-0.254403
H94	H	0.425756	0.518264	-0.443997
H95	H	0.637859	0.381706	-0.258570
O96	O	0.300661	0.485641	-0.221834
H97	H	0.308100	0.552017	-0.196039
O98	O	0.511851	0.364011	-0.246678
H99	H	0.459999	0.375254	-0.254260
O100	O	0.814919	1.121564	-0.392618
H101	H	0.815238	1.206599	-0.392322
H102	H	0.932796	1.069728	-0.274946
