data_functionalizedCrystal
_audit_creation_method	'MofGen! by Chris Wilmer'
_symmetry_space_group_name_H-M	'P1'
_symmetry_Int_Tables_number	1
_symmetry_cell_setting	triclinic
loop_
_symmetry_equiv_pos_as_xyz
  x,y,z
_cell_length_a	6.817900
_cell_length_b	16.305681
_cell_length_c	19.453114
_cell_angle_alpha	95.861614
_cell_angle_beta	101.709288
_cell_angle_gamma	103.457389
loop_
_atom_site_label
_atom_site_type_symbol
_atom_site_fract_x
_atom_site_fract_y
_atom_site_fract_z
V1	V	-4.006701	-0.117596	-0.219241
O2	O	-3.994747	0.004747	-0.214820
O3	O	-3.958211	-0.232303	-0.217980
O4	O	-3.949617	-0.116183	-0.314751
O5	O	-4.003400	-0.112176	-0.117379
V6	V	-4.491466	-0.102915	-0.207029
O7	O	-4.265235	-0.149798	-0.246030
O8	O	-4.683129	-0.070712	-0.180240
O9	O	-4.316750	0.011792	-0.208290
O10	O	-4.620818	-0.225258	-0.211449
O11	O	-4.612164	-0.108334	-0.308891
O12	O	-4.325343	-0.104327	-0.111519
C13	C	-3.803471	-0.260254	-0.214582
C14	C	-3.845053	-0.354031	-0.214187
C15	C	-3.921258	-0.525732	-0.213483
C16	C	-3.717430	-0.556245	-0.209088
C17	C	-3.760756	-0.653838	-0.208952
C18	C	-3.996283	-0.694784	-0.212789
C19	C	-4.126241	-0.674824	-0.282335
C20	C	-4.081535	-0.577226	-0.282766
C21	C	-4.012998	-0.551539	-0.148580
C22	C	-4.051724	-0.648854	-0.147215
C23	C	-4.038697	-0.790325	-0.212399
C24	C	-3.878853	-0.430192	-0.213878
C25	C	-3.792508	-0.112130	-0.338023
C26	C	-3.827119	-0.111735	-0.416105
C27	C	-4.025157	-0.115783	-0.456370
C28	C	-4.057678	-0.115412	-0.529736
C29	C	-3.892157	-0.111008	-0.562836
C30	C	-3.694088	-0.106954	-0.522561
C31	C	-3.661569	-0.107318	-0.449195
N32	N	-3.832379	-0.155559	-0.681717
N33	N	-3.863284	-0.155216	-0.751412
C34	C	-3.990124	-0.109912	-0.783882
N35	N	-4.084927	-0.064975	-0.744027
N36	N	-4.054027	-0.065322	-0.674326
C37	C	-3.927398	-0.110613	-0.642388
C38	C	-4.223438	-0.113556	-0.903700
C39	C	-4.255949	-0.113179	-0.977066
C40	C	-3.892357	-0.104730	-0.969890
C41	C	-3.859848	-0.105099	-0.896524
C42	C	-4.025397	-0.109516	-0.863434
C43	C	-4.134832	0.039739	-0.211686
C44	C	-4.072487	0.133515	-0.212085
C45	C	-4.145795	-0.108383	-0.088243
C46	C	-4.090423	-0.108774	-0.010161
H47	H	-3.711370	-0.684430	-0.255709
Br48	Br	-3.981223	-0.552340	-0.364580
H49	H	-4.088651	-0.707089	-0.331036
Br50	Br	-4.524737	-0.118670	-1.031714
Br51	Br	-3.600029	-0.527435	-0.286831
H52	H	-4.220566	-0.676197	-0.145951
Br53	Br	-3.592130	-0.674999	-0.125642
Br54	Br	-4.335523	-0.545236	-0.293529
H55	H	-3.559320	-0.103367	-0.549515
H56	H	-4.299387	-0.702276	-0.287677
H57	H	-3.594550	-0.521512	-0.159269
H58	H	-3.904021	-0.515509	-0.096304
Br59	Br	-4.326463	-0.120898	-0.584393
H60	H	-3.955398	-0.660600	-0.095799
H61	H	-4.164228	-0.532149	-0.151155
Br62	Br	-4.249830	-0.121775	-0.411465
Br63	Br	-3.667702	-0.098734	-1.014800
H64	H	-3.698589	-0.101811	-0.863740
H65	H	-3.500296	-0.104014	-0.416410
Br66	Br	-4.448101	-0.119545	-0.858786
