data_functionalizedCrystal
_audit_creation_method	'MofGen! by Chris Wilmer'
_symmetry_space_group_name_H-M	'P1'
_symmetry_Int_Tables_number	1
_symmetry_cell_setting	triclinic
loop_
_symmetry_equiv_pos_as_xyz
  x,y,z
_cell_length_a	14.971486
_cell_length_b	13.448316
_cell_length_c	14.971486
_cell_angle_alpha	89.993189
_cell_angle_beta	83.614129
_cell_angle_gamma	89.998199
loop_
_atom_site_label
_atom_site_type_symbol
_atom_site_fract_x
_atom_site_fract_y
_atom_site_fract_z
O1	O	1.186947	-0.082578	0.116565
O2	O	0.926547	-0.082605	0.130524
O3	O	1.063727	-0.082584	-0.006656
O4	O	1.049768	-0.082599	0.253744
O5	O	1.063709	0.082800	-0.006664
O6	O	0.926530	0.082779	0.130515
O7	O	1.186930	0.082806	0.116556
Cu8	Cu	1.056728	0.097893	0.123535
Cu9	Cu	1.056749	-0.097692	0.123545
O10	O	1.049751	0.082784	0.253736
C11	C	0.893214	0.000083	0.129895
C12	C	0.793917	0.000073	0.128024
C13	C	0.736692	0.000070	0.208614
C14	C	0.643392	0.000085	0.206850
C15	C	0.607320	0.000096	0.124497
C16	C	0.664552	0.000102	0.043902
C17	C	0.757850	0.000095	0.045666
C18	C	0.470090	0.000116	0.040231
C19	C	0.376786	0.000122	0.038466
C20	C	0.355632	0.000106	0.201415
C21	C	0.448930	0.000099	0.203179
C22	C	0.506156	0.000103	0.122584
C23	C	1.063094	0.000108	-0.039985
C24	C	1.061223	0.000107	-0.139282
C25	C	1.220263	0.000115	0.117185
C26	C	1.319561	0.000119	0.119056
N27	N	1.056721	0.235457	0.123527
N28	N	1.056764	-0.235257	0.123545
C29	C	1.117483	0.287507	0.062809
C30	C	1.117488	0.391610	0.062809
C31	C	1.056735	0.443662	0.123531
C32	C	0.995967	0.391605	0.184252
C33	C	0.995958	0.287504	0.184248
C34	C	0.995992	0.608585	0.184258
C35	C	0.996002	0.712693	0.184264
C36	C	1.117522	0.712692	0.062819
C37	C	1.117513	0.608591	0.062815
C38	C	1.056745	0.556541	0.123537
C39	C	1.141812	0.000116	-0.196507
C40	C	1.140049	0.000106	-0.289807
C41	C	1.057696	0.000093	-0.325879
C42	C	0.977101	0.000081	-0.268646
C43	C	0.978865	0.000084	-0.175349
C44	C	0.973430	0.000077	-0.463109
C45	C	0.971665	0.000076	-0.556413
C46	C	1.134614	0.000099	-0.577567
C47	C	1.136378	0.000102	-0.484269
C48	C	1.055782	0.000091	-0.427043
C49	C	1.050384	0.000091	0.287065
C50	C	1.052254	0.000085	0.386362
H51	H	0.478296	0.000080	0.270239
F52	F	1.182150	0.232120	-0.001817
F53	F	0.582492	0.000077	0.292625
H54	H	0.913240	0.000077	-0.128756
F55	F	0.887650	0.000064	-0.402206
H56	H	0.910047	0.000065	-0.298024
F57	F	0.818754	0.000102	-0.040108
H58	H	0.309033	0.000107	0.267039
F59	F	1.182177	0.553193	-0.001807
F60	F	0.884016	0.000064	-0.594802
F61	F	0.775073	0.000051	0.296267
F62	F	0.338397	0.000160	-0.049183
H63	H	0.946505	0.566209	0.233702
H64	H	1.166964	0.433989	0.013367
H65	H	0.946530	0.755069	0.233709
F66	F	0.530993	0.000124	-0.045549
F67	F	1.182196	0.768091	-0.001805
F68	F	1.225824	0.000117	-0.350707
H69	H	0.946496	0.433991	0.233690
H70	H	1.208874	0.000132	-0.167145
F71	F	0.931284	0.232110	0.248870
H72	H	0.635175	0.000126	-0.023152
H73	H	1.203437	0.000119	-0.454903
F74	F	1.220391	0.000105	-0.638472
