data_functionalizedCrystal
_audit_creation_method	'MofGen! by Chris Wilmer'
_symmetry_space_group_name_H-M	'P1'
_symmetry_Int_Tables_number	1
_symmetry_cell_setting	triclinic
loop_
_symmetry_equiv_pos_as_xyz
  x,y,z
_cell_length_a	25.639243
_cell_length_b	25.639240
_cell_length_c	13.897441
_cell_angle_alpha	90.041488
_cell_angle_beta	90.024451
_cell_angle_gamma	90.035481
loop_
_atom_site_label
_atom_site_type_symbol
_atom_site_fract_x
_atom_site_fract_y
_atom_site_fract_z
Zn1	Zn	0.799290	-0.208096	0.545404
Zn2	Zn	0.799210	-0.295539	0.384075
Zn3	Zn	0.711854	-0.208123	0.384112
Zn4	Zn	0.711821	-0.295506	0.545317
O5	O	0.755544	-0.251816	0.464727
O6	O	0.872445	-0.219698	0.524024
O7	O	0.787602	-0.283968	0.249098
O8	O	0.723500	-0.134954	0.405560
O9	O	0.872386	-0.283941	0.405496
O10	O	0.787739	-0.134934	0.524060
O11	O	0.723422	-0.219744	0.249125
O12	O	0.638684	-0.219713	0.405475
O13	O	0.723444	-0.283887	0.680310
O14	O	0.638660	-0.283913	0.523912
O15	O	0.787707	-0.219666	0.680374
O16	O	0.787570	-0.368700	0.405412
O17	O	0.723366	-0.368676	0.523876
C18	C	0.619701	-0.251813	0.464689
C19	C	0.561587	-0.251824	0.464695
C20	C	0.201249	-0.218417	0.526547
C21	C	0.146645	-0.218417	0.526553
O22	O	0.118430	-0.190003	0.579094
N23	N	0.119305	-0.251815	0.464753
C24	C	0.146572	-0.285212	0.402936
O25	O	0.118303	-0.313619	0.350371
C26	C	0.201175	-0.285209	0.402926
C27	C	0.228512	-0.251812	0.464737
C28	C	0.228587	-0.185023	0.588352
C29	C	0.283187	-0.185024	0.588347
C30	C	0.310450	-0.218420	0.526537
C31	C	0.283113	-0.251814	0.464732
C32	C	0.228441	-0.318603	0.341105
C33	C	0.283048	-0.318597	0.341100
C34	C	0.310385	-0.285201	0.402911
C35	C	0.364976	-0.285210	0.402917
N36	N	0.392317	-0.251812	0.464717
C37	C	0.365054	-0.218417	0.526527
C38	C	0.031901	-0.285214	0.402961
C39	C	-0.022701	-0.285219	0.402976
C40	C	-0.022624	-0.218424	0.526591
C41	C	0.031979	-0.218421	0.526581
C42	C	0.059241	-0.251816	0.464761
C43	C	0.479719	-0.218422	0.526513
C44	C	0.534324	-0.218428	0.526505
C45	C	0.534242	-0.285222	0.402886
C46	C	0.479642	-0.285218	0.402897
C47	C	0.452381	-0.251814	0.464713
O48	O	0.393226	-0.313608	0.350400
O49	O	0.393329	-0.190010	0.579075
C50	C	0.755470	-0.387659	0.464651
C51	C	0.755486	-0.445773	0.464651
C52	C	0.789010	-0.806087	0.526541
C53	C	0.789025	-0.860691	0.526561
O54	O	0.817440	-0.888886	0.579105
N55	N	0.755616	-0.888055	0.464820
C56	C	0.722186	-0.860812	0.403062
O57	O	0.693770	-0.889101	0.350549
C58	C	0.722168	-0.806209	0.403048
C59	C	0.755583	-0.778848	0.464786
C60	C	0.822422	-0.778726	0.588275
C61	C	0.822407	-0.724125	0.588254
C62	C	0.788980	-0.696886	0.526499
C63	C	0.755568	-0.724247	0.464765
C64	C	0.688736	-0.778966	0.341296
C65	C	0.688721	-0.724359	0.341288
C66	C	0.722136	-0.696998	0.403026
C67	C	0.722127	-0.642407	0.402989
N68	N	0.755536	-0.615043	0.464730
C69	C	0.788962	-0.642283	0.526485
C70	C	0.722225	-0.975483	0.403098
C71	C	0.722245	-1.030085	0.403106
C72	C	0.789084	-1.029960	0.526606
C73	C	0.789066	-0.975357	0.526592
C74	C	0.755634	-0.948119	0.464839
C75	C	0.788929	-0.527617	0.526435
C76	C	0.788913	-0.473012	0.526406
C77	C	0.722072	-0.473141	0.402910
C78	C	0.722090	-0.527742	0.402935
C79	C	0.755520	-0.554979	0.464706
O80	O	0.693725	-0.614177	0.350475
O81	O	0.817369	-0.613987	0.578998
C82	C	0.891917	-0.251820	0.464766
C83	C	0.950031	-0.251822	0.464782
C84	C	0.755581	-0.251770	0.716320
C85	C	0.755597	-0.251750	0.823534
C86	C	0.755632	-0.115443	0.464824
C87	C	0.755670	-0.057329	0.464865
C88	C	0.755537	-0.251824	0.214112
C89	C	0.755622	-0.251697	0.106899
C90	C	0.755611	-0.251715	1.019829
C91	C	0.755601	-0.251736	0.910597
H92	H	0.305441	-0.157828	0.638678
H93	H	0.816125	-0.450736	0.576680
H94	H	0.054234	-0.191225	0.576911
C95	C	0.685342	-0.557845	0.335015
C96	C	0.689642	-0.550391	0.225365
C97	C	0.652890	-0.580491	0.157449
C98	C	0.611838	-0.618044	0.199185
C99	C	0.607537	-0.625500	0.308842
C100	C	0.644288	-0.595400	0.376757
H101	H	0.720032	-0.522590	0.194464
H102	H	0.656075	-0.574972	0.076274
H103	H	0.584633	-0.640326	0.148911
H104	H	0.577146	-0.653301	0.339743
H105	H	0.641104	-0.600919	0.457932
H106	H	0.661526	-0.801234	0.291022
H107	H	0.457382	-0.312418	0.352577
H108	H	0.694858	-0.450955	0.352627
C109	C	0.449737	-0.181681	0.594514
C110	C	0.457277	-0.186026	0.704151
C111	C	0.427295	-0.149288	0.772157
C112	C	0.389773	-0.108206	0.730526
C113	C	0.382232	-0.103860	0.620883
C114	C	0.412214	-0.140597	0.552877
H115	H	0.485054	-0.216439	0.734974
H116	H	0.432878	-0.152506	0.853322
H117	H	0.367579	-0.081010	0.780868
H118	H	0.354454	-0.073446	0.590060
H119	H	0.406631	-0.137379	0.471712
H120	H	0.305242	-0.345791	0.290756
C121	C	-0.052618	-0.181685	0.594584
C122	C	-0.090152	-0.204393	0.670233
C123	C	-0.120146	-0.167658	0.738224
C124	C	-0.112608	-0.108215	0.730567
C125	C	-0.075073	-0.085504	0.654915
C126	C	-0.045078	-0.122239	0.586923
H127	H	-0.095733	-0.248400	0.675904
H128	H	-0.147932	-0.184471	0.794227
H129	H	-0.134812	-0.081022	0.780898
H130	H	-0.069491	-0.041498	0.649244
H131	H	-0.017293	-0.105426	0.530921
C132	C	0.859157	-0.694030	0.656177
C133	C	0.836465	-0.656479	0.731857
C134	C	0.873215	-0.626388	0.799787
C135	C	0.932657	-0.633847	0.792037
C136	C	0.955353	-0.671400	0.716354
C137	C	0.918603	-0.701491	0.648424
H138	H	0.792459	-0.650956	0.737597
H139	H	0.856414	-0.598589	0.855813
H140	H	0.959862	-0.611571	0.842323
H141	H	0.999358	-0.676923	0.710614
H142	H	0.935403	-0.729290	0.592398
C143	C	-0.052769	-0.321961	0.334991
C144	C	-0.045282	-0.317622	0.225351
C145	C	-0.075347	-0.354362	0.157359
C146	C	-0.112898	-0.395442	0.199007
C147	C	-0.120386	-0.399783	0.308652
C148	C	-0.090321	-0.363042	0.376644
H149	H	-0.017483	-0.287211	0.194515
H150	H	-0.069804	-0.351149	0.076192
H151	H	-0.135153	-0.422639	0.148675
H152	H	-0.148185	-0.430194	0.339488
H153	H	-0.095864	-0.366256	0.457811
C154	C	0.685491	-1.060178	0.335186
C155	C	0.689787	-1.052716	0.225537
C156	C	0.653029	-1.082806	0.157619
C157	C	0.611976	-1.120359	0.199351
C158	C	0.607678	-1.127822	0.309006
C159	C	0.644436	-1.097732	0.376924
H160	H	0.720179	-1.024915	0.194639
H161	H	0.656210	-1.077280	0.076445
H162	H	0.584765	-1.142633	0.149075
H163	H	0.577286	-1.155623	0.339904
H164	H	0.641255	-1.103258	0.458098
C165	C	0.198381	-0.355339	0.273106
C166	C	0.205872	-0.350991	0.163468
C167	C	0.175814	-0.387729	0.095462
C168	C	0.138265	-0.428815	0.137092
C169	C	0.130772	-0.433165	0.246735
C170	C	0.160830	-0.396427	0.314742
H171	H	0.233670	-0.320574	0.132645
H172	H	0.181361	-0.384508	0.014296
H173	H	0.116014	-0.456011	0.086750
H174	H	0.102974	-0.463581	0.277558
H175	H	0.155283	-0.399647	0.395907
H176	H	0.695002	-0.953308	0.352802
C177	C	0.859198	-0.808682	0.656208
C178	C	0.900276	-0.846196	0.614493
C179	C	0.937060	-0.876147	0.682423
C180	C	0.932766	-0.868585	0.792068
C181	C	0.891687	-0.831069	0.833789
C182	C	0.854903	-0.801118	0.765859
H183	H	0.903456	-0.851795	0.533322
H184	H	0.967470	-0.903918	0.651538
H185	H	0.959996	-0.890756	0.842354
H186	H	0.888506	-0.825470	0.914960
H187	H	0.824493	-0.773347	0.796744
H188	H	0.556580	-0.191232	0.576842
H189	H	0.661495	-0.702184	0.291002
H190	H	0.556450	-0.312413	0.352564
C191	C	0.198605	-0.148286	0.656357
C192	C	0.206154	-0.152633	0.765991
C193	C	0.176178	-0.115897	0.834009
C194	C	0.138652	-0.074814	0.792392
C195	C	0.131102	-0.070465	0.682751
C196	C	0.161078	-0.107201	0.614734
H197	H	0.233934	-0.183047	0.796804
H198	H	0.181768	-0.119117	0.915172
H199	H	0.116462	-0.047620	0.842742
H200	H	0.103322	-0.040051	0.651939
H201	H	0.155488	-0.103981	0.533571
H202	H	0.054094	-0.312412	0.352623
H203	H	0.816147	-0.549787	0.576742
H204	H	0.816301	-1.052149	0.576892
H205	H	0.816275	-0.953083	0.576865
