data_functionalizedCrystal
_audit_creation_method	'MofGen! by Chris Wilmer'
_symmetry_space_group_name_H-M	'P1'
_symmetry_Int_Tables_number	1
_symmetry_cell_setting	triclinic
loop_
_symmetry_equiv_pos_as_xyz
  x,y,z
_cell_length_a	18.760487
_cell_length_b	21.606444
_cell_length_c	18.760492
_cell_angle_alpha	60.000422
_cell_angle_beta	90.032780
_cell_angle_gamma	60.019231
loop_
_atom_site_label
_atom_site_type_symbol
_atom_site_fract_x
_atom_site_fract_y
_atom_site_fract_z
Zr1	Zr	0.686679	0.677447	-0.093094
O2	O	0.572866	0.806565	-0.206976
O3	O	0.721570	0.548328	-0.058187
O4	O	0.721575	0.677446	-0.206889
O5	O	0.572856	0.677447	0.059029
O6	O	0.838877	0.677446	-0.206817
O7	O	0.572861	0.677447	-0.058274
O8	O	0.838869	0.446478	0.059184
O9	O	0.572864	0.908416	-0.206972
O10	O	0.823991	0.601436	-0.043241
O11	O	0.736445	0.601437	0.044246
O12	O	0.736451	0.753457	-0.130831
O13	O	0.648905	0.753457	-0.043343
Zr14	Zr	0.873755	0.677447	0.094105
Zr15	Zr	0.873763	0.677446	-0.092979
Zr16	Zr	0.686671	0.677447	0.093990
Zr17	Zr	0.686677	0.839887	-0.093088
Zr18	Zr	0.873757	0.515006	0.094099
O19	O	0.838864	0.806565	0.059198
O20	O	0.838876	0.806565	-0.206812
O21	O	0.572854	0.806565	0.059034
O22	O	0.987568	0.548328	0.207986
O23	O	0.987580	0.548328	-0.058023
O24	O	0.721558	0.548329	0.207823
O25	O	0.987578	0.677446	-0.058018
O26	O	0.838860	0.677447	0.207900
O27	O	0.721557	0.677447	0.207828
O28	O	0.987573	0.677446	0.059284
O29	O	0.721572	0.908416	-0.206880
O30	O	0.838862	0.446478	0.207891
O31	O	0.987570	0.446478	0.207983
O32	O	0.987576	0.446477	0.059276
O33	O	0.572858	0.908416	-0.058265
O34	O	0.721565	0.908416	-0.058173
O35	O	0.823983	0.601437	0.131842
O36	O	0.911529	0.601436	0.044354
O37	O	0.823989	0.753457	-0.043236
O38	O	0.736443	0.753457	0.044252
C39	C	0.780219	0.474259	0.000498
C40	C	0.780220	0.405298	0.000495
C41	C	0.546203	0.677447	0.000361
C42	C	0.466780	0.677447	0.000313
C43	C	0.825916	0.372901	-0.045174
C44	C	0.825919	0.308101	-0.045168
C45	C	0.780221	0.275704	0.000502
C46	C	0.734524	0.308104	0.046177
C47	C	0.734526	0.372899	0.046176
C48	C	0.734513	0.046795	0.046184
C49	C	0.734512	-0.018002	0.046180
C50	C	0.825907	-0.018003	-0.045159
C51	C	0.825909	0.046792	-0.045161
C52	C	0.780216	0.079183	0.000517
C53	C	0.780214	0.149445	0.000512
C54	C	0.780217	0.205447	0.000503
C55	C	0.085269	0.756803	-0.045064
C56	C	0.176666	0.598091	0.046382
C57	C	0.251288	0.598090	0.046307
C58	C	0.242903	0.677446	0.000545
C59	C	0.159896	0.756804	-0.045142
C60	C	0.334300	0.518733	0.091985
C61	C	0.408929	0.518729	0.091911
C62	C	0.400544	0.598086	0.046154
C63	C	0.317531	0.677447	0.000466
C64	C	0.309146	0.756804	-0.045296
C65	C	0.226133	0.836166	-0.090979
C66	C	0.151512	0.836161	-0.090900
C67	C	0.475165	0.598091	0.046074
C68	C	0.383773	0.756805	-0.045374
C69	C	1.014231	0.677446	0.000649
C70	C	1.093654	0.677446	0.000698
C71	C	0.780227	0.677446	-0.233509
C72	C	0.780231	0.677446	-0.312931
C73	C	0.780215	0.880635	0.000513
C74	C	0.780214	0.949595	0.000516
C75	C	0.825903	0.598091	-0.603024
C76	C	0.734509	0.756802	-0.694465
C77	C	0.734515	0.756804	-0.619844
C78	C	0.780214	0.677447	-0.536809
C79	C	0.825908	0.598089	-0.528395
C80	C	0.688815	0.836160	-0.628252
C81	C	0.688819	0.836165	-0.553629
C82	C	0.734524	0.756807	-0.470592
C83	C	0.780220	0.677446	-0.462180
C84	C	0.825919	0.598090	-0.379145
C85	C	0.871621	0.518728	-0.370732
C86	C	0.871613	0.518732	-0.445358
C87	C	0.734531	0.756803	-0.395966
C88	C	0.825924	0.598088	-0.304516
C89	C	0.780207	0.677447	0.234519
C90	C	0.780204	0.677447	0.313941
C91	C	1.014234	0.474258	0.000642
C92	C	1.093657	0.405298	0.000688
C93	C	0.780209	0.474259	0.234512
C94	C	0.780207	0.405299	0.313931
C95	C	1.014224	0.474259	0.234656
C96	C	1.093643	0.405298	0.314124
C97	C	0.546210	0.880635	-0.233645
C98	C	0.466791	0.949595	-0.313113
C99	C	0.546200	0.880635	0.000369
C100	C	0.466777	0.949595	0.000323
C101	C	0.780225	0.880634	-0.233501
C102	C	0.780227	0.949594	-0.312921
C103	C	1.085261	0.372914	-0.045022
C104	C	1.159880	0.308127	-0.044996
C105	C	1.242895	0.275722	0.000746
C106	C	1.251289	0.308113	0.046457
C107	C	1.176671	0.372903	0.046425
C108	C	0.825900	0.372915	0.396959
C109	C	0.825894	0.308128	0.471590
C110	C	0.780200	0.275723	0.463190
C111	C	0.734502	0.308114	0.380153
C112	C	0.734503	0.372903	0.305525
C113	C	1.176646	0.372914	0.305776
C114	C	1.251276	0.308128	0.380437
C115	C	1.242902	0.275723	0.463447
C116	C	1.159892	0.308113	0.471794
C117	C	1.085263	0.372903	0.397133
C118	C	0.383789	0.981987	-0.304765
C119	C	0.309158	1.046794	-0.379427
C120	C	0.317532	1.079202	-0.462436
C121	C	0.400543	1.046807	-0.470783
C122	C	0.475171	0.982006	-0.396122
C123	C	0.475173	0.981986	0.046025
C124	C	0.400554	1.046791	0.045978
C125	C	0.317539	1.079198	0.000234
C126	C	0.309145	1.046804	-0.045474
C127	C	0.383763	0.982006	-0.045432
C128	C	0.825930	0.981979	-0.304493
C129	C	0.825950	1.046766	-0.379109
C130	C	0.780261	1.079171	-0.462152
C131	C	0.734556	1.046780	-0.470578
C132	C	0.734543	0.981990	-0.395962
H133	H	0.863125	0.399278	-0.082368
F134	F	0.685875	0.273616	0.371227
F135	F	0.563506	0.947534	-0.405021
H136	H	0.219316	0.900778	-0.128243
F137	F	0.685886	0.081258	0.094802
H138	H	0.376915	0.955635	-0.082646
H139	H	0.863109	0.399292	0.403815
F140	F	0.685872	0.407359	0.217162
H141	H	0.256757	1.131967	-0.523223
H142	H	0.863116	-0.044386	-0.082350
F143	F	0.685872	-0.052480	0.094792
H144	H	0.908821	0.454120	-0.438517
H145	H	0.697358	1.073175	-0.538201
F146	F	0.409506	1.081252	0.094632
F147	F	0.343217	0.434283	0.140681
H148	H	0.376935	0.821427	-0.082630
F149	F	0.238130	1.148163	0.000198
H150	H	0.476514	0.454107	0.129108
F151	F	1.339614	0.273664	0.371536
F152	F	0.685889	0.947537	-0.404945
F153	F	0.874541	0.513632	-0.594071
F154	F	0.685899	0.273613	0.094795
H155	H	0.241545	1.073201	-0.082718
H156	H	0.863129	0.281722	-0.082354
H157	H	0.697299	0.821411	-0.762074
H158	H	1.183519	0.399262	0.083653
F159	F	0.874543	0.081271	-0.093774
H160	H	0.697315	0.821418	-0.402818
H161	H	1.017682	0.399262	0.403943
F162	F	1.322337	0.206766	0.542902
H163	H	0.697313	0.399278	0.083362
H164	H	1.303647	0.222965	0.000765
F165	F	0.374857	0.947506	-0.216427
F166	F	0.063164	0.920616	-0.139515
F167	F	0.220820	1.081257	-0.370525
F168	F	-0.003076	0.841261	-0.093676
H169	H	0.183487	0.533483	0.083636
F170	F	0.874562	0.947502	-0.216119
H171	H	1.183480	0.399289	0.238192
H172	H	1.153087	0.281720	0.539390
F173	F	0.874592	1.081231	-0.370123
H174	H	1.153028	0.281762	-0.082220
H175	H	0.542750	0.533475	0.083277
H176	H	0.407350	1.073203	-0.538378
H177	H	0.908824	0.454116	-0.303115
H178	H	0.780206	0.222967	0.523964
F179	F	0.563517	0.947510	0.094714
F180	F	0.874537	0.273665	0.559955
F181	F	0.780281	1.148129	-0.541557
H182	H	0.863141	0.533466	-0.236908
F183	F	1.339647	0.273614	0.095138
H184	H	0.651608	0.900768	-0.695862
H185	H	1.017673	0.399297	-0.082281
F186	F	0.640171	0.920627	-0.562589
