data_functionalizedCrystal
_audit_creation_method	'MofGen! by Chris Wilmer'
_symmetry_space_group_name_H-M	'P1'
_symmetry_Int_Tables_number	1
_symmetry_cell_setting	triclinic
loop_
_symmetry_equiv_pos_as_xyz
  x,y,z
_cell_length_a	14.519709
_cell_length_b	14.519731
_cell_length_c	14.586319
_cell_angle_alpha	89.995223
_cell_angle_beta	90.002108
_cell_angle_gamma	83.684499
loop_
_atom_site_label
_atom_site_type_symbol
_atom_site_fract_x
_atom_site_fract_y
_atom_site_fract_z
O1	O	1.223876	0.120889	-0.076123
O2	O	1.473876	0.370889	0.173877
O3	O	1.723876	0.620889	0.423877
O4	O	1.973876	0.870889	0.673877
O5	O	0.955400	0.135125	-0.076151
O6	O	1.205400	0.385125	0.173849
O7	O	1.455400	0.635125	0.423849
O8	O	1.705400	0.885125	0.673849
O9	O	1.096746	-0.006230	-0.076128
O10	O	1.346746	0.243770	0.173872
O11	O	1.596746	0.493770	0.423872
O12	O	1.846746	0.743770	0.673872
O13	O	1.082530	0.262244	-0.076146
O14	O	1.332530	0.512244	0.173854
O15	O	1.582530	0.762244	0.423854
O16	O	1.832530	1.012244	0.673854
O17	O	1.096736	-0.006232	0.076353
O18	O	1.346736	0.243768	0.326353
O19	O	1.596736	0.493768	0.576353
O20	O	1.846736	0.743768	0.826353
O21	O	0.955390	0.135123	0.076329
O22	O	1.205390	0.385123	0.326329
O23	O	1.455390	0.635123	0.576329
O24	O	1.705390	0.885123	0.826329
O25	O	1.223866	0.120887	0.076358
O26	O	1.473866	0.370887	0.326358
O27	O	1.723866	0.620887	0.576358
O28	O	1.973866	0.870887	0.826358
Cu29	Cu	1.089627	0.128005	0.090266
Cu30	Cu	1.339627	0.378005	0.340266
Cu31	Cu	1.589627	0.628005	0.590266
Cu32	Cu	1.839627	0.878005	0.840266
Cu33	Cu	1.089639	0.128007	-0.090060
Cu34	Cu	1.339639	0.378007	0.159940
Cu35	Cu	1.589639	0.628007	0.409940
Cu36	Cu	1.839639	0.878007	0.659940
O37	O	1.082520	0.262242	0.076335
O38	O	1.332520	0.512242	0.326335
O39	O	1.582520	0.762242	0.576335
O40	O	1.832520	1.012242	0.826335
C41	C	0.921035	0.134461	0.000086
C42	C	1.171035	0.384461	0.250086
C43	C	1.421035	0.634461	0.500086
C44	C	1.671035	0.884461	0.750086
C45	C	0.818654	0.132473	0.000075
C46	C	1.068654	0.382473	0.250075
C47	C	1.318654	0.632473	0.500075
C48	C	1.568654	0.882473	0.750075
C49	C	1.096075	-0.040591	0.000112
C50	C	1.346075	0.209409	0.250112
C51	C	1.596075	0.459409	0.500112
C52	C	1.846075	0.709409	0.750112
C53	C	1.094079	-0.142971	0.000113
C54	C	1.344079	0.107029	0.250113
C55	C	1.594079	0.357029	0.500113
C56	C	1.844079	0.607029	0.750113
C57	C	0.443757	0.125153	0.000117
C58	C	0.693757	0.375153	0.250117
C59	C	0.943757	0.625153	0.500117
C60	C	1.193757	0.875153	0.750117
C61	C	0.548065	0.127186	0.000105
C62	C	0.798065	0.377186	0.250105
C63	C	1.048065	0.627186	0.500105
C64	C	1.298065	0.877186	0.750105
C65	C	0.631202	0.128813	0.000095
C66	C	0.881202	0.378813	0.250095
C67	C	1.131202	0.628813	0.500095
C68	C	1.381202	0.878813	0.750095
C69	C	0.735517	0.130846	0.000085
C70	C	0.985517	0.380846	0.250085
C71	C	1.235517	0.630846	0.500085
C72	C	1.485517	0.880846	0.750085
C73	C	1.092457	-0.226115	0.000110
C74	C	1.342457	0.023885	0.250110
C75	C	1.592457	0.273885	0.500110
C76	C	1.842457	0.523885	0.750110
C77	C	1.090430	-0.330424	0.000103
C78	C	1.340430	-0.080424	0.250103
C79	C	1.590430	0.169576	0.500103
C80	C	1.840430	0.419576	0.750103
C81	C	1.088822	-0.413563	0.000097
C82	C	1.338822	-0.163563	0.250097
C83	C	1.588822	0.086437	0.500097
C84	C	1.838822	0.336437	0.750097
C85	C	1.086795	-0.517878	0.000092
C86	C	1.336795	-0.267878	0.250092
C87	C	1.586795	-0.017878	0.500092
C88	C	1.836795	0.232122	0.750092
C89	C	1.258230	0.121551	0.000119
C90	C	1.508230	0.371551	0.250119
C91	C	1.758230	0.621551	0.500119
C92	C	2.008230	0.871551	0.750119
C93	C	1.360612	0.123539	0.000123
C94	C	1.610612	0.373539	0.250123
C95	C	1.860612	0.623539	0.500123
C96	C	2.110612	0.873539	0.750123
C97	C	1.083191	0.296603	0.000092
C98	C	1.333191	0.546603	0.250092
C99	C	1.583191	0.796603	0.500092
C100	C	1.833191	1.046603	0.750092
C101	C	1.085187	0.398983	0.000086
C102	C	1.335187	0.648983	0.250086
C103	C	1.585187	0.898983	0.500086
C104	C	1.835187	1.148983	0.750086
N105	N	1.089625	0.128002	0.217098
N106	N	1.339625	0.378002	0.467098
N107	N	1.589625	0.628002	0.717098
N108	N	1.839625	0.878002	0.967098
N109	N	1.089647	0.128002	-0.216892
N110	N	1.339647	0.378002	0.033108
N111	N	1.589647	0.628002	0.283108
N112	N	1.839647	0.878002	0.533108
C113	C	1.152234	0.065431	0.452115
C114	C	1.402234	0.315431	0.702115
C115	C	1.652234	0.565431	0.952115
C116	C	1.902234	0.815431	1.202115
C117	C	1.152237	0.065429	0.548096
C118	C	1.402237	0.315429	0.798096
C119	C	1.652237	0.565429	1.048096
C120	C	1.902237	0.815429	1.298096
C121	C	1.027032	0.190576	0.548085
C122	C	1.277032	0.440576	0.798085
C123	C	1.527032	0.690576	1.048085
C124	C	1.777032	0.940576	1.298085
C125	C	1.027026	0.190573	0.452105
C126	C	1.277026	0.440573	0.702105
C127	C	1.527026	0.690573	0.952105
C128	C	1.777026	0.940573	1.202105
C129	C	1.089632	0.128002	0.404123
C130	C	1.339632	0.378002	0.654123
C131	C	1.589632	0.628002	0.904123
C132	C	1.839632	0.878002	1.154123
C133	C	1.089641	0.128003	0.596084
C134	C	1.339641	0.378003	0.846084
C135	C	1.589641	0.628003	1.096084
C136	C	1.839641	0.878003	1.346084
C137	C	1.089643	0.128001	0.700151
C138	C	1.339643	0.378001	0.950151
C139	C	1.589643	0.628001	1.200151
C140	C	1.839643	0.878001	1.450151
C141	C	1.089629	0.128003	0.300049
C142	C	1.339629	0.378003	0.550049
C143	C	1.589629	0.628003	0.800049
C144	C	1.839629	0.878003	1.050049
H145	H	1.203211	0.014481	0.413050
H146	H	1.453211	0.264481	0.663050
H147	H	1.703211	0.514481	0.913050
H148	H	1.953211	0.764481	1.163050
C149	C	1.206130	-0.094101	0.577651
C150	C	1.456130	0.155899	0.827651
C151	C	1.706130	0.405899	1.077651
C152	C	1.956130	0.655899	1.327651
C153	C	1.221055	-0.003349	0.600847
C154	C	1.471055	0.246651	0.850847
C155	C	1.721055	0.496651	1.100847
C156	C	1.971055	0.746651	1.350847
H157	H	1.248621	-0.136563	0.610214
H158	H	1.498621	0.113437	0.860214
H159	H	1.748621	0.363437	1.110214
H160	H	1.998621	0.613437	1.360214
H161	H	1.144576	-0.104249	0.593388
H162	H	1.394576	0.145751	0.843388
H163	H	1.644576	0.395751	1.093388
H164	H	1.894576	0.645751	1.343388
H165	H	1.215086	-0.103042	0.513620
H166	H	1.465086	0.146958	0.763620
H167	H	1.715086	0.396958	1.013620
H168	H	1.965086	0.646958	1.263620
H169	H	1.212092	0.005594	0.664878
H170	H	1.462092	0.255594	0.914878
H171	H	1.712092	0.505594	1.164878
H172	H	1.962092	0.755594	1.414878
H173	H	1.282623	0.006803	0.585116
H174	H	1.532623	0.256803	0.835116
H175	H	1.782623	0.506803	1.085116
H176	H	2.032623	0.756803	1.335116
C177	C	0.971455	0.246157	0.695211
C178	C	1.221455	0.496157	0.945211
C179	C	1.471455	0.746157	1.195211
C180	C	1.721455	0.996157	1.445211
C181	C	0.958226	0.259361	0.600831
C182	C	1.208226	0.509361	0.850831
C183	C	1.458226	0.759361	1.100831
C184	C	1.708226	1.009361	1.350831
H185	H	0.928981	0.288630	0.727770
H186	H	1.178981	0.538630	0.977770
H187	H	1.428981	0.788630	1.227770
H188	H	1.678981	1.038630	1.477770
H189	H	0.961331	0.184595	0.710945
H190	H	1.211331	0.434595	0.960945
H191	H	1.461331	0.684595	1.210945
H192	H	1.711331	0.934595	1.460945
H193	H	1.033023	0.256308	0.710925
H194	H	1.283023	0.506308	0.960925
H195	H	1.533023	0.756308	1.210925
H196	H	1.783023	1.006308	1.460925
H197	H	0.896659	0.249204	0.585116
H198	H	1.146659	0.499204	0.835116
H199	H	1.396659	0.749204	1.085116
H200	H	1.646659	0.999204	1.335116
H201	H	0.968343	0.320938	0.585090
H202	H	1.218343	0.570938	0.835090
H203	H	1.468343	0.820938	1.085090
H204	H	1.718343	1.070938	1.335090
H205	H	0.976043	0.241526	0.413028
H206	H	1.226043	0.491526	0.663028
H207	H	1.476043	0.741526	0.913028
H208	H	1.726043	0.991526	1.163028
