data_functionalizedCrystal
_audit_creation_method	'MofGen! by Chris Wilmer'
_symmetry_space_group_name_H-M	'P1'
_symmetry_Int_Tables_number	1
_symmetry_cell_setting	triclinic
loop_
_symmetry_equiv_pos_as_xyz
  x,y,z
_cell_length_a	14.519709
_cell_length_b	13.596369
_cell_length_c	11.792241
_cell_angle_alpha	89.993871
_cell_angle_beta	83.936780
_cell_angle_gamma	90.000816
loop_
_atom_site_label
_atom_site_type_symbol
_atom_site_fract_x
_atom_site_fract_y
_atom_site_fract_z
O1	O	-1.224413	0.081652	-0.148782
O2	O	-0.891080	0.414985	0.184551
O3	O	-0.557746	0.748318	0.517885
O4	O	-0.956000	0.081684	-0.166303
O5	O	-0.622667	0.415018	0.167030
O6	O	-0.289334	0.748351	0.500364
O7	O	-1.096720	0.081660	0.007664
O8	O	-0.763387	0.414994	0.340997
O9	O	-0.430054	0.748327	0.674331
O10	O	-1.083693	0.081676	-0.322749
O11	O	-0.750360	0.415009	0.010584
O12	O	-0.417026	0.748342	0.343917
O13	O	-1.096706	-0.081923	0.007673
O14	O	-0.763373	0.251411	0.341007
O15	O	-0.430039	0.584744	0.674340
O16	O	-0.955986	-0.081898	-0.166294
O17	O	-0.622653	0.251435	0.167040
O18	O	-0.289319	0.584768	0.500373
O19	O	-1.224399	-0.081931	-0.148773
O20	O	-0.891065	0.251402	0.184560
O21	O	-0.557732	0.584735	0.517894
Zn22	Zn	-1.090190	-0.107887	-0.157532
Zn23	Zn	-0.756857	0.225446	0.175801
Zn24	Zn	-0.423524	0.558779	0.509135
Zn25	Zn	-1.090209	0.107640	-0.157544
Zn26	Zn	-0.756875	0.440974	0.175789
Zn27	Zn	-0.423542	0.774307	0.509123
O28	O	-1.083679	-0.081907	-0.322740
O29	O	-0.750345	0.251426	0.010593
O30	O	-0.417012	0.584759	0.343927
C31	C	-0.921630	-0.000103	-0.165482
C32	C	-0.588297	0.333230	0.167852
C33	C	-0.254964	0.666564	0.501185
C34	C	-0.819240	-0.000091	-0.163035
C35	C	-0.485907	0.333243	0.170298
C36	C	-0.152573	0.666576	0.503632
C37	C	-0.444311	-0.000132	-0.154027
C38	C	-0.110978	0.333201	0.179306
C39	C	0.222355	0.666535	0.512640
C40	C	-0.548628	-0.000120	-0.156528
C41	C	-0.215295	0.333213	0.176805
C42	C	0.118038	0.666546	0.510138
C43	C	-0.631772	-0.000110	-0.158531
C44	C	-0.298439	0.333223	0.174803
C45	C	0.034894	0.666556	0.508136
C46	C	-0.736096	-0.000100	-0.161033
C47	C	-0.402763	0.333233	0.172301
C48	C	-0.069429	0.666566	0.505634
N49	N	-1.090184	-0.254979	-0.157523
N50	N	-0.756851	0.078354	0.175810
N51	N	-0.423518	0.411688	0.509144
C52	C	-1.090208	-0.656270	-0.157545
C53	C	-0.756874	-0.322937	0.175788
C54	C	-0.423541	0.010397	0.509121
C55	C	-1.090198	-0.544619	-0.157543
C56	C	-0.756865	-0.211285	0.175790
C57	C	-0.423532	0.122048	0.509124
C58	C	-1.090196	-0.455628	-0.157535
C59	C	-0.756863	-0.122295	0.175798
C60	C	-0.423530	0.211039	0.509132
C61	C	-1.090186	-0.343970	-0.157531
C62	C	-0.756853	-0.010636	0.175803
C63	C	-0.423520	0.322697	0.509136
C64	C	-0.258769	-0.000139	-0.149594
C65	C	0.074565	0.333194	0.183739
C66	C	0.407898	0.666527	0.517073
C67	C	-0.361159	-0.000138	-0.152041
C68	C	-0.027826	0.333195	0.181292
C69	C	0.305508	0.666529	0.514626
C70	C	-1.095895	-0.000131	0.049955
C71	C	-0.762562	0.333203	0.383288
C72	C	-0.429228	0.666536	0.716622
C73	C	-1.093446	-0.000129	0.175955
C74	C	-0.760112	0.333204	0.509289
C75	C	-0.426779	0.666537	0.842622
N76	N	-1.090222	0.254732	-0.157544
N77	N	-0.756889	0.588066	0.175789
N78	N	-0.423555	0.921399	0.509123
C79	C	-1.084504	-0.000114	-0.365031
C80	C	-0.751171	0.333219	-0.031698
C81	C	-0.417838	0.666553	0.301636
C82	C	-1.086954	-0.000109	-0.491031
C83	C	-0.753620	0.333225	-0.157698
C84	C	-0.420287	0.666558	0.175636
C85	C	-1.088942	-0.000112	0.406642
C86	C	-0.755608	0.333221	0.739976
C87	C	-0.422275	0.666554	1.073309
C88	C	-1.091444	-0.000122	0.278271
C89	C	-0.758111	0.333212	0.611604
C90	C	-0.424777	0.666545	0.944938
