data_functionalizedCrystal
_audit_creation_method	'MofGen! by Chris Wilmer'
_symmetry_space_group_name_H-M	'P1'
_symmetry_Int_Tables_number	1
_symmetry_cell_setting	triclinic
loop_
_symmetry_equiv_pos_as_xyz
  x,y,z
_cell_length_a	11.026607
_cell_length_b	7.540329
_cell_length_c	9.065218
_cell_angle_alpha	89.998243
_cell_angle_beta	96.800951
_cell_angle_gamma	89.997535
loop_
_atom_site_label
_atom_site_type_symbol
_atom_site_fract_x
_atom_site_fract_y
_atom_site_fract_z
O1	O	1.616971	-0.147471	0.619586
O2	O	1.262889	-0.147474	0.549033
O3	O	1.447249	-0.147469	0.371492
O4	O	1.432611	-0.147476	0.797127
O5	O	1.447238	0.147496	0.371486
O6	O	1.262878	0.147491	0.549027
O7	O	1.616960	0.147494	0.619580
Cu8	Cu	1.439918	0.174425	0.584303
Cu9	Cu	1.439931	-0.174405	0.584310
O10	O	1.432600	0.147489	0.797121
C11	C	1.217530	0.000008	0.536015
C12	C	1.082389	0.000006	0.497214
N13	N	1.439917	0.419774	0.584300
N14	N	1.439941	-0.419754	0.584304
C15	C	1.009761	0.000003	0.604348
C16	C	0.870086	0.000001	0.564249
C17	C	1.662319	0.000008	0.632598
C18	C	1.797460	-0.000002	0.671399
C19	C	1.445836	0.000011	0.316152
C20	C	1.441630	0.000002	0.151260
C21	C	1.434012	0.000005	0.852461
C22	C	1.438219	0.000002	1.017353
H23	H	1.050987	0.000011	0.725756
H24	H	0.838678	0.000008	0.792815
N25	N	1.027787	0.000025	0.336395
H26	H	0.975672	-0.109316	0.315511
H27	H	1.095509	0.000097	0.270507
N28	N	0.815500	0.000026	0.403417
H29	H	0.723459	0.000029	0.397568
H30	H	0.843325	-0.109318	0.352554
