data_functionalizedCrystal
_audit_creation_method	'MofGen! by Chris Wilmer'
_symmetry_space_group_name_H-M	'P1'
_symmetry_Int_Tables_number	1
_symmetry_cell_setting	triclinic
loop_
_symmetry_equiv_pos_as_xyz
  x,y,z
_cell_length_a	21.395362
_cell_length_b	16.120444
_cell_length_c	21.395355
_cell_angle_alpha	92.881464
_cell_angle_beta	89.956060
_cell_angle_gamma	92.943436
loop_
_atom_site_label
_atom_site_type_symbol
_atom_site_fract_x
_atom_site_fract_y
_atom_site_fract_z
Zn1	Zn	0.945240	-0.331660	-0.367218
Zn2	Zn	1.278573	0.001673	-0.033885
Zn3	Zn	1.611907	0.335007	0.299448
Zn4	Zn	0.939838	-0.471059	-0.267751
Zn5	Zn	1.273172	-0.137726	0.065583
Zn6	Zn	1.606505	0.195607	0.398916
Zn7	Zn	0.840453	-0.331699	-0.262421
Zn8	Zn	1.173787	0.001634	0.070912
Zn9	Zn	1.507120	0.334968	0.404245
Zn10	Zn	0.835119	-0.471077	-0.372456
Zn11	Zn	1.168453	-0.137743	-0.039123
Zn12	Zn	1.501786	0.195590	0.294211
O13	O	0.890163	-0.401374	-0.317462
O14	O	1.223496	-0.068040	0.015872
O15	O	1.556829	0.265293	0.349205
O16	O	1.032202	-0.350128	-0.354062
O17	O	1.365536	-0.016795	-0.020729
O18	O	1.698869	0.316538	0.312604
O19	O	0.926626	-0.452582	-0.179366
O20	O	1.259960	-0.119249	0.153967
O21	O	1.593293	0.214085	0.487301
O22	O	0.858846	-0.215025	-0.271900
O23	O	1.192180	0.118309	0.061433
O24	O	1.525513	0.451642	0.394766
O25	O	1.028234	-0.452544	-0.280984
O26	O	1.361567	-0.119211	0.052350
O27	O	1.694900	0.214122	0.385683
O28	O	0.935833	-0.214996	-0.348895
O29	O	1.269166	0.118337	-0.015561
O30	O	1.602499	0.451671	0.317772
O31	O	0.853609	-0.350194	-0.175451
O32	O	1.186942	-0.016861	0.157883
O33	O	1.520275	0.316472	0.491216
O34	O	0.752067	-0.350211	-0.276979
O35	O	1.085400	-0.016878	0.056354
O36	O	1.418734	0.316456	0.389688
O37	O	0.849755	-0.452574	-0.459439
O38	O	1.183089	-0.119240	-0.126105
O39	O	1.516422	0.214093	0.207228
O40	O	0.748148	-0.452611	-0.357821
O41	O	1.081481	-0.119278	-0.024488
O42	O	1.414815	0.214055	0.308845
O43	O	0.930660	-0.350145	-0.455591
O44	O	1.263994	-0.016812	-0.122257
O45	O	1.597327	0.316522	0.211076
O46	O	0.921454	-0.587731	-0.286062
O47	O	1.254788	-0.254398	0.047271
O48	O	1.588121	0.078936	0.380604
O49	O	0.844518	-0.587743	-0.362989
O50	O	1.177851	-0.254410	-0.029656
O51	O	1.511184	0.078923	0.303678
C52	C	0.727373	-0.401418	-0.317391
C53	C	1.060707	-0.068085	0.015943
C54	C	1.394040	0.265249	0.349276
C55	C	0.657731	-0.401457	-0.317376
C56	C	0.991064	-0.068123	0.015958
C57	C	1.324397	0.265210	0.349291
C58	C	0.622991	-0.454847	-0.359413
C59	C	0.956324	-0.121514	-0.026080
C60	C	1.289657	0.211819	0.307254
C61	C	0.557556	-0.454827	-0.359440
C62	C	0.890889	-0.121493	-0.026107
C63	C	1.224223	0.211840	0.307227
C64	C	0.526864	-0.401425	-0.317419
C65	C	0.860197	-0.068091	0.015914
C66	C	1.193530	0.265242	0.349247
C67	C	0.561612	-0.348024	-0.275379
C68	C	0.894945	-0.014691	0.057954
C69	C	1.228279	0.318643	0.391288
C70	C	0.627045	-0.348040	-0.275357
C71	C	0.960379	-0.014707	0.057976
C72	C	1.293712	0.318627	0.391310
C73	C	0.423394	-0.394708	-0.260758
C74	C	0.756728	-0.061375	0.072575
C75	C	1.090061	0.271958	0.405908
C76	C	0.357962	-0.394698	-0.260779
C77	C	0.691295	-0.061365	0.072554
C78	C	1.024628	0.271969	0.405888
C79	C	0.325045	-0.401370	-0.317486
C80	C	0.658378	-0.068037	0.015847
C81	C	0.991712	0.265296	0.349180
C82	C	0.357568	-0.408070	-0.374175
C83	C	0.690901	-0.074737	-0.040842
C84	C	1.024235	0.258596	0.292492
C85	C	0.423002	-0.408086	-0.374153
C86	C	0.756335	-0.074753	-0.040820
C87	C	1.089668	0.258580	0.292513
C88	C	0.455912	-0.401401	-0.317438
C89	C	0.789245	-0.068068	0.015895
C90	C	1.122579	0.265266	0.349228
C91	C	0.219353	-0.454741	-0.359556
C92	C	0.552686	-0.121408	-0.026223
C93	C	0.886020	0.211925	0.307110
C94	C	0.153918	-0.454715	-0.359584
C95	C	0.487251	-0.121382	-0.026251
C96	C	0.820584	0.211952	0.307082
C97	C	0.157975	-0.347917	-0.275518
C98	C	0.491308	-0.014583	0.057816
C99	C	0.824641	0.318750	0.391149
C100	C	0.223409	-0.347939	-0.275495
C101	C	0.556742	-0.014605	0.057838
C102	C	0.890076	0.318728	0.391172
C103	C	0.254094	-0.401355	-0.317514
C104	C	0.587428	-0.068022	0.015820
C105	C	0.920761	0.265311	0.349153
C106	C	0.881838	-0.617988	-0.325686
C107	C	1.215171	-0.284655	0.007647
C108	C	1.548505	0.048678	0.340981
C109	C	0.878334	-0.710657	-0.329225
C110	C	1.211667	-0.377323	0.004108
C111	C	1.545000	-0.043990	0.337441
C112	C	0.908494	-0.921578	-0.299236
C113	C	1.241827	-0.588245	0.034098
C114	C	1.575160	-0.254912	0.367431
C115	C	0.871948	-0.880318	-0.335694
C116	C	1.205281	-0.546985	-0.002361
C117	C	1.538615	-0.213651	0.330973
C118	C	0.875502	-0.785910	-0.332094
C119	C	1.208835	-0.452576	0.001240
C120	C	1.542169	-0.119243	0.334573
C121	C	0.904940	-1.015995	-0.302835
C122	C	1.238274	-0.682662	0.030498
C123	C	1.571607	-0.349329	0.363832
C124	C	1.053588	-0.401330	-0.317533
C125	C	1.386921	-0.067997	0.015800
C126	C	1.720254	0.265337	0.349133
C127	C	1.123230	-0.401312	-0.317564
C128	C	1.456563	-0.067978	0.015770
C129	C	1.789896	0.265355	0.349103
C130	C	0.890215	-0.401357	-0.480884
C131	C	1.223549	-0.068024	-0.147551
C132	C	1.556882	0.265310	0.185782
C133	C	0.890238	-0.401350	-0.550525
C134	C	1.223571	-0.068016	-0.217192
C135	C	1.556904	0.265317	0.116141
C136	C	0.898537	-0.183914	-0.309219
C137	C	1.231870	0.149420	0.024115
C138	C	1.565204	0.482753	0.357448
C139	C	0.902106	-0.091245	-0.305706
C140	C	1.235439	0.242088	0.027627
C141	C	1.568772	0.575422	0.360960
C142	C	0.932363	-0.348013	-0.581236
C143	C	1.265697	-0.014679	-0.247902
C144	C	1.599030	0.318654	0.085431
C145	C	0.932364	-0.347977	-0.646670
C146	C	1.265697	-0.014644	-0.313336
C147	C	1.599031	0.318690	0.019997
C148	C	0.890245	-0.401293	-0.681392
C149	C	1.223578	-0.067960	-0.348058
C150	C	1.556912	0.265374	-0.014725
C151	C	0.848111	-0.454633	-0.650673
C152	C	1.181445	-0.121300	-0.317340
C153	C	1.514778	0.212033	0.015993
C154	C	0.848108	-0.454662	-0.585240
C155	C	1.181441	-0.121329	-0.251907
C156	C	1.514774	0.212005	0.081426
C157	C	0.882412	-0.476364	-0.787915
C158	C	1.215746	-0.143031	-0.454581
C159	C	1.549079	0.190303	-0.121248
C160	C	0.882420	-0.476337	-0.853347
C161	C	1.215754	-0.143004	-0.520013
C162	C	1.549087	0.190330	-0.186680
C163	C	0.890252	-0.401205	-0.883209
C164	C	1.223585	-0.067871	-0.549876
C165	C	1.556919	0.265462	-0.216542
C166	C	0.898089	-0.326097	-0.847631
C167	C	1.231423	0.007236	-0.514298
C168	C	1.564756	0.340570	-0.180965
C169	C	0.898086	-0.326126	-0.782198
C170	C	1.231419	0.007208	-0.448865
C171	C	1.564752	0.340541	-0.115531
C172	C	0.890244	-0.401268	-0.752343
C173	C	1.223577	-0.067934	-0.419010
C174	C	1.556910	0.265399	-0.085676
C175	C	0.932381	-0.347825	-0.984870
C176	C	1.265714	-0.014491	-0.651537
C177	C	1.599047	0.318842	-0.318204
C178	C	0.932377	-0.347787	-1.050306
C179	C	1.265710	-0.014454	-0.716972
C180	C	1.599043	0.318879	-0.383639
C181	C	0.848127	-0.454451	-1.054308
C182	C	1.181460	-0.121118	-0.720975
C183	C	1.514794	0.212215	-0.387642
C184	C	0.848128	-0.454481	-0.988874
C185	C	1.181461	-0.121148	-0.655541
C186	C	1.514795	0.212186	-0.322207
C187	C	0.890258	-0.401169	-0.954159
C188	C	1.223591	-0.067836	-0.620826
C189	C	1.556925	0.265498	-0.287492
C190	C	0.890149	-0.401330	-0.154672
C191	C	1.223482	-0.067997	0.178661
C192	C	1.556815	0.265336	0.511994
C193	C	0.890257	-0.401103	-0.085023
C194	C	1.223590	-0.067769	0.248311
C195	C	1.556923	0.265564	0.581644
H196	H	0.132986	-0.304432	-0.241306
H197	H	0.466319	0.028902	0.092027
H198	H	0.799652	0.362235	0.425360
H199	H	0.450190	-0.389271	-0.214577
H200	H	0.783523	-0.055938	0.118756
H201	H	1.116857	0.277395	0.452090
O202	O	0.802683	-0.512138	-0.688122
O203	O	1.136016	-0.178805	-0.354788
O204	O	1.469349	0.154528	-0.021455
H205	H	0.754059	-0.497848	-0.674987
H206	H	1.087392	-0.164514	-0.341653
H207	H	1.420726	0.168819	-0.008320
O208	O	0.873961	-0.557403	-0.755706
O209	O	1.207294	-0.224070	-0.422373
O210	O	1.540628	0.109264	-0.089040
H211	H	0.828187	-0.588514	-0.769422
H212	H	1.161520	-0.255180	-0.436089
H213	H	1.494854	0.078153	-0.102756
O214	O	0.826961	-0.927443	-0.380614
O215	O	1.160294	-0.594110	-0.047281
O216	O	1.493627	-0.260777	0.286052
H217	H	0.838294	-0.910749	-0.429181
H218	H	1.171627	-0.577416	-0.095848
H219	H	1.504961	-0.244082	0.237486
O220	O	0.953481	-0.874461	-0.254317
O221	O	1.286814	-0.541128	0.079016
O222	O	1.620147	-0.207795	0.412350
H223	H	0.949246	-0.806630	-0.258507
H224	H	1.282579	-0.473297	0.074827
H225	H	1.615913	-0.139963	0.408160
H226	H	0.529265	-0.498303	-0.393674
H227	H	0.862599	-0.164970	-0.060341
H228	H	1.195932	0.168363	0.272992
O229	O	0.260885	-0.290375	-0.230139
O230	O	0.594218	0.042958	0.103194
O231	O	0.927551	0.376292	0.436527
H232	H	0.228551	-0.253246	-0.200916
H233	H	0.561884	0.080087	0.132417
H234	H	0.895218	0.413421	0.465750
O235	O	0.906537	-0.245124	-0.743824
O236	O	1.239871	0.088209	-0.410490
O237	O	1.573204	0.421543	-0.077157
H238	H	0.868272	-0.204194	-0.754788
H239	H	1.201606	0.129140	-0.421454
H240	H	1.534939	0.462473	-0.088121
H241	H	0.536618	-0.304542	-0.241166
H242	H	0.869951	0.028791	0.092167
H243	H	1.203285	0.362125	0.425500
O244	O	0.977799	-0.290512	-0.543791
O245	O	1.311133	0.042821	-0.210458
O246	O	1.644466	0.376155	0.122875
H247	H	1.007090	-0.253413	-0.576144
H248	H	1.340423	0.079920	-0.242810
H249	H	1.673756	0.413253	0.090523
H250	H	0.966667	-0.304539	-0.671679
H251	H	1.300000	0.028794	-0.338346
H252	H	1.633333	0.362128	-0.005012
H253	H	0.904468	-0.264917	-0.871943
H254	H	1.237801	0.068416	-0.538610
H255	H	1.571134	0.401749	-0.205277
H256	H	0.813801	-0.498094	-0.560236
H257	H	1.147134	-0.164761	-0.226903
H258	H	1.480468	0.168573	0.106430
H259	H	0.647970	-0.498342	-0.393629
H260	H	0.981304	-0.165009	-0.060295
H261	H	1.314637	0.168324	0.273038
O262	O	0.977811	-0.290318	-0.947420
O263	O	1.311144	0.043015	-0.614087
O264	O	1.644477	0.376348	-0.280753
H265	H	1.007097	-0.253212	-0.979770
H266	H	1.340431	0.080122	-0.646437
H267	H	1.673764	0.413455	-0.313104
O268	O	0.977815	-0.290259	-1.083434
O269	O	1.311149	0.043075	-0.750101
O270	O	1.644482	0.376408	-0.416768
H271	H	1.007113	-0.253201	-1.048299
H272	H	1.340446	0.080132	-0.714966
H273	H	1.673779	0.413465	-0.381633
O274	O	0.873966	-0.557346	-0.891711
O275	O	1.207299	-0.224013	-0.558378
O276	O	1.540633	0.109321	-0.225045
H277	H	0.915615	-0.565845	-0.921872
H278	H	1.248948	-0.232512	-0.588538
H279	H	1.582281	0.100822	-0.255205
H280	H	0.331486	-0.389248	-0.214620
H281	H	0.664820	-0.055914	0.118714
H282	H	0.998153	0.277419	0.452047
H283	H	0.244339	-0.498232	-0.393774
H284	H	0.577672	-0.164899	-0.060440
H285	H	0.911005	0.168434	0.272893
H286	H	0.655331	-0.304561	-0.241125
H287	H	0.988664	0.028773	0.092208
H288	H	1.321997	0.362106	0.425541
O289	O	0.802696	-0.512006	-0.955737
O290	O	1.136029	-0.178672	-0.622403
O291	O	1.469362	0.154661	-0.289070
H292	H	0.772259	-0.474694	-0.924487
H293	H	1.105593	-0.141361	-0.591154
H294	H	1.438926	0.191972	-0.257821
H295	H	0.449479	-0.413539	-0.420311
H296	H	0.782813	-0.080206	-0.086978
H297	H	1.116146	0.253127	0.246355
O298	O	0.802696	-0.511959	-1.091747
O299	O	1.136029	-0.178625	-0.758414
O300	O	1.469362	0.154708	-0.425081
H301	H	0.809776	-0.502982	-1.142407
H302	H	1.143110	-0.169648	-0.809074
H303	H	1.476443	0.163685	-0.475741
H304	H	0.125633	-0.498190	-0.393820
H305	H	0.458967	-0.164857	-0.060487
H306	H	0.792300	0.168476	0.272847
H307	H	0.330769	-0.413502	-0.420352
H308	H	0.664102	-0.080169	-0.087018
H309	H	0.997435	0.253165	0.246315
