data_functionalizedCrystal
_audit_creation_method	'MofGen! by Chris Wilmer'
_symmetry_space_group_name_H-M	'P1'
_symmetry_Int_Tables_number	1
_symmetry_cell_setting	triclinic
loop_
_symmetry_equiv_pos_as_xyz
  x,y,z
_cell_length_a	23.096457
_cell_length_b	23.096457
_cell_length_c	14.560438
_cell_angle_alpha	60.000030
_cell_angle_beta	59.995918
_cell_angle_gamma	89.991472
loop_
_atom_site_label
_atom_site_type_symbol
_atom_site_fract_x
_atom_site_fract_y
_atom_site_fract_z
Zr1	Zr	-0.075960	0.557813	1.005223
O2	O	-0.168408	0.586169	1.005219
O3	O	-0.047621	0.465358	1.005230
O4	O	-0.168408	0.465381	1.196825
O5	O	0.047660	0.681411	0.662485
O6	O	-0.168407	0.465384	1.347960
O7	O	-0.047621	0.586146	0.813624
O8	O	0.047659	0.465343	1.005232
O9	O	-0.168406	0.681452	1.005213
O10	O	-0.035532	0.527129	1.118017
O11	O	0.035574	0.598222	0.892433
O12	O	-0.106637	0.598249	1.118011
O13	O	-0.035532	0.669342	0.892426
Zr14	Zr	0.076004	0.709755	1.005218
Zr15	Zr	-0.075957	0.557818	1.246267
Zr16	Zr	0.076002	0.709750	0.764174
Zr17	Zr	-0.075957	0.709779	1.005214
Zr18	Zr	0.076001	0.557790	1.005227
O19	O	0.047665	0.802211	1.005211
O20	O	-0.168404	0.586176	1.347953
O21	O	0.047662	0.802203	0.662477
O22	O	0.168452	0.681399	1.005222
O23	O	-0.047618	0.465365	1.347964
O24	O	0.168449	0.681392	0.662488
O25	O	-0.047615	0.586157	1.347956
O26	O	0.168452	0.802188	0.813616
O27	O	0.168451	0.802185	0.662481
O28	O	0.047665	0.681422	1.196817
O29	O	-0.168404	0.681456	1.196811
O30	O	0.168448	0.586112	0.813630
O31	O	0.168450	0.586116	1.005228
O32	O	0.047661	0.465347	1.196830
O33	O	-0.047617	0.802221	0.813611
O34	O	-0.047615	0.802225	1.005209
O35	O	0.106682	0.669320	0.892430
O36	O	0.035576	0.598227	1.118015
O37	O	-0.035529	0.669346	1.118008
O38	O	0.035576	0.740439	0.892424
C39	C	0.000019	0.443699	1.005232
C40	C	0.000017	0.379185	1.005237
C41	C	-0.037082	-0.118426	1.122957
C42	C	-0.037089	-0.057812	1.122964
C43	C	0.000028	0.009610	1.005213
C44	C	0.037139	0.016417	0.887445
C45	C	0.037138	-0.044197	0.887441
N46	N	0.060432	0.132399	0.917569
N47	N	0.060431	0.189976	0.917581
C48	C	0.000030	0.192238	1.005218
N49	N	-0.060370	0.134740	1.092863
N50	N	-0.060368	0.077155	1.092855
C51	C	0.000032	0.075340	1.005204
C52	C	-0.037090	0.251150	1.122986
C53	C	-0.037099	0.311766	1.122989
C54	C	0.037136	0.385996	0.887467
C55	C	0.037137	0.325379	0.887467
C56	C	0.000026	0.257959	1.005231
C57	C	-0.190058	0.633814	1.005215
C58	C	-0.254570	0.633824	1.005214
C59	C	-0.247759	0.670923	0.887464
C60	C	-0.308374	0.670919	0.887463
C61	C	-0.375800	0.633801	1.005217
C62	C	-0.382609	0.596700	1.122982
C63	C	-0.321993	0.596712	1.122980
N64	N	-0.498588	0.573383	1.092870
N65	N	-0.556168	0.573373	1.092863
C66	C	-0.558433	0.633766	1.005228
N67	N	-0.500937	0.694168	0.917581
N68	N	-0.443351	0.694176	0.917584
C69	C	-0.441532	0.633785	1.005231
C70	C	-0.617346	0.670864	0.887469
C71	C	-0.677964	0.670861	0.887472
C72	C	-0.752198	0.596636	1.122994
C73	C	-0.691580	0.596645	1.122988
C74	C	-0.624157	0.633758	1.005222
C75	C	0.190102	0.633754	1.005226
C76	C	0.254614	0.633744	1.005227
C77	C	0.000019	0.633778	0.703711
C78	C	0.000018	0.633776	0.601381
C79	C	0.000026	0.823870	1.005209
C80	C	0.000027	0.888383	1.005204
C81	C	0.037134	0.596653	0.553307
C82	C	0.037140	0.596663	0.457141
C83	C	-0.037091	0.670920	0.457138
C84	C	-0.037093	0.670913	0.553295
C85	C	0.074245	0.559516	0.601393
C86	C	0.111363	0.522389	0.553319
C87	C	0.111370	0.522400	0.457154
C88	C	0.074258	0.559536	0.409063
C89	C	0.000025	0.633790	1.306730
C90	C	0.000026	0.633793	1.409060
C91	C	-0.190059	0.443734	1.306737
C92	C	-0.254570	0.379233	1.409069
C93	C	0.000022	0.443705	1.306742
C94	C	0.000021	0.379194	1.409076
C95	C	0.190099	0.633748	0.703716
C96	C	0.254610	0.633736	0.601388
C97	C	0.000023	0.823864	0.703699
C98	C	0.000023	0.888375	0.601365
C99	C	0.190103	0.823834	0.703704
C100	C	0.254615	0.888335	0.601372
C101	C	-0.190055	0.633820	1.306725
C102	C	-0.254566	0.633832	1.409053
C103	C	-0.321988	0.386067	1.457132
C104	C	-0.382610	0.325467	1.553298
C105	C	-0.375812	0.258034	1.601392
C106	C	-0.308387	0.251202	1.553324
C107	C	-0.247767	0.311802	1.457167
C108	C	-0.037103	0.311780	1.457144
C109	C	-0.037117	0.251159	1.553311
C110	C	-0.000003	0.257953	1.601401
C111	C	0.037122	0.325374	1.553328
C112	C	0.037132	0.385994	1.457170
C113	C	0.322029	0.670849	0.553322
C114	C	0.382649	0.670852	0.457161
C115	C	0.375849	0.633737	0.409074
C116	C	0.308423	0.596623	0.457144
C117	C	0.247804	0.596625	0.553297
C118	C	0.037141	0.955788	0.553307
C119	C	0.037138	1.016409	0.457167
C120	C	0.000022	1.009615	0.409080
C121	C	-0.037101	0.942194	0.457148
C122	C	-0.037102	0.881575	0.553293
C123	C	0.247794	0.955756	0.553302
C124	C	0.308404	1.016367	0.457137
C125	C	0.375834	1.009556	0.409050
C126	C	0.382653	0.942129	0.457124
C127	C	0.322044	0.881519	0.553281
C128	C	-0.247743	0.670951	1.457115
C129	C	-0.308351	0.670960	1.553276
C130	C	-0.375782	0.633855	1.601366
C131	C	-0.382604	0.596732	1.553299
C132	C	-0.321996	0.596719	1.457147
H133	H	-0.067311	0.196253	1.218877
H134	H	0.067370	0.961334	0.592441
Br135	Br	-0.458030	0.633881	1.731858
Br136	Br	0.458126	0.633742	0.278578
Br137	Br	-0.087478	0.790087	0.618497
Br138	Br	0.331314	0.790022	0.618511
Br139	Br	0.074232	0.559493	0.731912
H140	H	0.067370	1.071300	0.418041
Br141	Br	0.000031	1.091893	0.278596
Br142	Br	-0.458090	0.175799	1.731892
H143	H	-0.437510	0.566480	1.218859
Br144	Br	-0.087465	-0.209922	1.282777
H145	H	0.067358	-0.038647	0.791550
Br146	Br	0.474171	0.932898	0.391850
Br147	Br	-0.087455	-0.067048	1.282782
H148	H	-0.437504	0.331044	1.592417
H149	H	0.067358	0.071317	0.791571
H150	H	-0.067349	0.196268	1.592436
Br151	Br	0.161741	0.472007	0.618559
H152	H	0.067339	0.330896	1.592498
H153	H	-0.067320	0.936673	0.417982
Br154	Br	0.161754	0.472026	0.391895
Br155	Br	0.331277	0.721221	0.618568
H156	H	-0.302862	0.196291	1.592498
Br157	Br	0.074275	0.559557	0.278539
H158	H	0.302897	0.566406	0.417976
Br159	Br	0.458083	1.091821	0.278550
Br160	Br	-0.700823	0.546289	1.282800
H161	H	0.302837	1.071264	0.418011
H162	H	0.067353	0.440891	0.791591
H163	H	0.067367	0.440883	1.418035
H164	H	-0.192843	0.701169	1.417971
H165	H	-0.302783	0.701193	1.592395
H166	H	-0.437514	0.566522	1.592468
Br167	Br	-0.156273	0.302515	1.391934
H168	H	-0.067307	0.701153	0.417978
Br169	Br	-0.000023	0.175676	1.731903
Br170	Br	0.156289	0.965018	0.618545
Br171	Br	-0.087475	0.302522	1.282810
Br172	Br	0.087506	0.334620	0.727652
Br173	Br	-0.331237	0.546359	1.282795
Br174	Br	-0.331268	0.546345	1.391921
H175	H	-0.562446	0.701080	0.791577
H176	H	-0.192864	0.701147	0.791570
H177	H	-0.302829	0.701130	0.791574
H178	H	-0.672412	0.701077	0.791582
H179	H	-0.067302	0.701155	0.592417
H180	H	-0.067334	0.306234	1.418013
Br181	Br	-0.331234	0.477575	1.391894
H182	H	0.192911	0.566399	0.592430
H183	H	-0.807096	0.566418	1.218872
Br184	Br	0.474146	0.721223	0.391946
