data_functionalizedCrystal
_audit_creation_method	'MofGen! by Chris Wilmer'
_symmetry_space_group_name_H-M	'P1'
_symmetry_Int_Tables_number	1
_symmetry_cell_setting	triclinic
loop_
_symmetry_equiv_pos_as_xyz
  x,y,z
_cell_length_a	11.026607
_cell_length_b	16.776229
_cell_length_c	17.699083
_cell_angle_alpha	89.992455
_cell_angle_beta	95.934516
_cell_angle_gamma	89.994019
loop_
_atom_site_label
_atom_site_type_symbol
_atom_site_fract_x
_atom_site_fract_y
_atom_site_fract_z
O1	O	1.609234	-0.066299	0.316812
O2	O	1.256034	-0.066298	0.280737
O3	O	1.442612	-0.066291	0.189956
O4	O	1.422655	-0.066306	0.407592
O5	O	1.442588	0.066285	0.189945
O6	O	1.256009	0.066278	0.280726
O7	O	1.609209	0.066278	0.316801
Zn8	Zn	1.432605	0.087327	0.298762
Zn9	Zn	1.432638	-0.087348	0.298776
O10	O	1.422630	0.066271	0.407582
C11	C	1.210830	-0.000010	0.274076
C12	C	1.076175	-0.000010	0.254237
N13	N	1.432592	0.206539	0.298753
N14	N	1.432661	-0.206559	0.298780
C15	C	1.002207	-0.000014	0.309017
C16	C	0.863034	-0.000014	0.288513
C17	C	1.654412	-0.000012	0.323461
C18	C	1.789068	-0.000018	0.343301
C19	C	1.441885	-0.000003	0.161655
C20	C	1.439740	-0.000003	0.077343
C21	C	1.515234	0.248259	0.258580
C22	C	1.515240	0.331711	0.258580
C23	C	1.432610	0.373441	0.298759
C24	C	1.349959	0.331715	0.338933
C25	C	1.349947	0.248265	0.338928
C26	C	1.350003	0.668263	0.338954
C27	C	1.350023	0.751719	0.338958
C28	C	1.515296	0.751709	0.258606
C29	C	1.515284	0.668258	0.258601
C30	C	1.432630	0.626539	0.298772
C31	C	1.432622	0.536051	0.298770
C32	C	1.432623	0.463928	0.298765
C33	C	1.549257	-0.000002	0.043769
C34	C	1.547234	-0.000009	-0.035453
C35	C	1.435692	-0.000011	-0.081099
C36	C	1.326166	-0.000015	-0.047520
C37	C	1.328190	-0.000013	0.031700
C38	C	1.318000	-0.000021	-0.367005
C39	C	1.315984	-0.000020	-0.446230
C40	C	1.537044	-0.000017	-0.434158
C41	C	1.539068	-0.000015	-0.354938
C42	C	1.429543	-0.000023	-0.321366
C43	C	1.431738	-0.000017	-0.235465
C44	C	1.433496	-0.000012	-0.166998
C45	C	1.423358	-0.000019	0.435882
C46	C	1.425503	-0.000025	0.520195
H47	H	0.823331	-0.000030	0.226431
O48	O	1.217919	0.000018	-0.091969
C49	C	1.239613	-0.000000	-0.169091
H50	H	1.334325	0.025100	-0.174729
H51	H	1.168245	0.038491	-0.203056
H52	H	1.233811	-0.063603	-0.191850
O53	O	1.211529	-0.000126	-0.334490
C54	C	1.143816	-0.068796	-0.357500
H55	H	1.173791	-0.091689	-0.413296
H56	H	1.042628	-0.053349	-0.365741
H57	H	1.160272	-0.116876	-0.312069
H58	H	0.828769	-0.000016	0.405384
H59	H	1.239010	-0.000014	0.059035
H60	H	1.582526	0.214287	0.225866
O61	O	1.028959	-0.000113	0.180148
C62	C	1.068701	-0.068784	0.143947
H63	H	1.156454	-0.091677	0.176454
H64	H	1.086311	-0.053339	0.083311
H65	H	0.995476	-0.116864	0.142801
H66	H	1.282650	0.214297	0.371640
H67	H	1.582594	0.785685	0.225894
H68	H	1.582533	0.365679	0.225868
H69	H	1.282674	0.365697	0.371644
H70	H	1.640088	0.000005	0.080929
O71	O	1.595597	0.627846	0.219505
C72	C	1.668561	0.682565	0.184060
H73	H	1.618845	0.742060	0.176416
H74	H	1.687242	0.658462	0.126166
H75	H	1.758596	0.691420	0.220934
H76	H	1.626225	-0.000014	-0.461501
O77	O	1.269626	0.792134	0.377996
C78	C	1.196686	0.737419	0.413464
H79	H	1.195402	0.677937	0.382257
H80	H	1.099789	0.761548	0.411765
H81	H	1.235885	0.728527	0.475050
H82	H	1.041916	-0.000013	0.371095
O83	O	1.269894	0.627661	0.378041
C84	C	1.334710	0.579390	0.433601
H85	H	1.429707	0.566869	0.416427
H86	H	1.284030	0.520717	0.438663
H87	H	1.342804	0.611548	0.490640
H88	H	1.636415	-0.000006	-0.062784
H89	H	1.225148	-0.000020	-0.483393
O90	O	1.647526	-0.000049	-0.310709
C91	C	1.743759	-0.000031	-0.357331
H92	H	1.709918	-0.025130	-0.415568
H93	H	1.821654	-0.038522	-0.330216
H94	H	1.777521	0.063573	-0.363909
