data_functionalizedCrystal
_audit_creation_method	'MofGen! by Chris Wilmer'
_symmetry_space_group_name_H-M	'P1'
_symmetry_Int_Tables_number	1
_symmetry_cell_setting	triclinic
loop_
_symmetry_equiv_pos_as_xyz
  x,y,z
_cell_length_a	18.215407
_cell_length_b	18.215399
_cell_length_c	12.759400
_cell_angle_alpha	89.975454
_cell_angle_beta	90.012128
_cell_angle_gamma	89.982632
loop_
_atom_site_label
_atom_site_type_symbol
_atom_site_fract_x
_atom_site_fract_y
_atom_site_fract_z
Zn1	Zn	1.125124	-0.416085	-0.418349
Zn2	Zn	1.625124	0.083915	0.081651
Zn3	Zn	1.125054	-0.293026	-0.594046
Zn4	Zn	1.625054	0.206974	-0.094046
Zn5	Zn	1.002057	-0.293038	-0.418374
Zn6	Zn	1.502057	0.206962	0.081626
Zn7	Zn	1.002044	-0.416056	-0.593978
Zn8	Zn	1.502044	0.083944	-0.093978
O9	O	1.063570	-0.354551	-0.506187
O10	O	1.563570	0.145449	-0.006187
O11	O	1.228099	-0.399768	-0.441673
O12	O	1.728099	0.100232	0.058327
O13	O	1.108714	-0.190043	-0.570782
O14	O	1.608714	0.309957	-0.070782
O15	O	1.018416	-0.309377	-0.271350
O16	O	1.518416	0.190623	0.228650
O17	O	1.228048	-0.309357	-0.570757
O18	O	1.728048	0.190643	-0.070757
O19	O	1.108833	-0.399779	-0.271331
O20	O	1.608833	0.100221	0.228669
O21	O	1.018349	-0.190052	-0.441716
O22	O	1.518349	0.309948	0.058284
O23	O	0.899071	-0.309349	-0.441650
O24	O	1.399071	0.190651	0.058350
O25	O	1.018395	-0.519044	-0.570642
O26	O	1.518395	-0.019044	-0.070642
O27	O	0.899062	-0.399730	-0.570666
O28	O	1.399062	0.100270	-0.070666
O29	O	1.108821	-0.519065	-0.441608
O30	O	1.608821	-0.019065	0.058392
O31	O	1.108703	-0.309329	-0.741058
O32	O	1.608703	0.190671	-0.241058
O33	O	1.018328	-0.399719	-0.741008
O34	O	1.518328	0.100281	-0.241008
C35	C	0.872364	-0.354538	-0.506155
C36	C	1.372364	0.145462	-0.006155
C37	C	0.790565	-0.354550	-0.506166
C38	C	1.290565	0.145450	-0.006166
C39	C	0.602396	-0.401701	-0.439090
C40	C	1.102396	0.098299	0.060910
C41	C	0.525538	-0.401704	-0.439099
C42	C	1.025538	0.098296	0.060901
C43	C	0.525495	-0.307414	-0.573313
C44	C	1.025495	0.192586	-0.073313
C45	C	0.602353	-0.307408	-0.573298
C46	C	1.102353	0.192592	-0.073298
C47	C	0.640801	-0.354556	-0.506188
C48	C	1.140801	0.145444	-0.006188
C49	C	0.487085	-0.354564	-0.506212
C50	C	0.987085	0.145436	-0.006212
C51	C	0.403752	-0.354567	-0.506222
C52	C	0.903752	0.145433	-0.006222
C53	C	0.724140	-0.354553	-0.506176
C54	C	1.224140	0.145447	-0.006176
C55	C	1.063615	-0.546504	-0.506114
C56	C	1.563615	-0.046504	-0.006114
C57	C	1.063634	-0.628303	-0.506084
C58	C	1.563634	-0.128303	-0.006084
C59	C	1.110736	-0.816509	-0.438832
C60	C	1.610736	-0.316509	0.061168
C61	C	1.110744	-0.893368	-0.438802
C62	C	1.610744	-0.393368	0.061198
C63	C	1.016584	-0.893335	-0.573172
C64	C	1.516584	-0.393335	-0.073172
C65	C	1.016572	-0.816477	-0.573197
C66	C	1.516572	-0.316477	-0.073197
C67	C	1.063652	-0.778067	-0.506028
C68	C	1.563652	-0.278067	-0.006028
C69	C	1.063673	-0.931783	-0.505973
C70	C	1.563673	-0.431783	-0.005973
C71	C	1.063682	-1.015116	-0.505941
C72	C	1.563682	-0.515116	-0.005941
C73	C	1.063642	-0.694728	-0.506059
C74	C	1.563642	-0.194728	-0.006059
C75	C	1.255523	-0.354564	-0.506220
C76	C	1.755523	0.145436	-0.006220
C77	C	1.337322	-0.354570	-0.506234
C78	C	1.837322	0.145430	-0.006234
C79	C	1.063526	-0.354536	-0.779154
C80	C	1.563526	0.145464	-0.279154
C81	C	1.063575	-0.354554	-0.895931
C82	C	1.563575	0.145446	-0.395931
C83	C	1.063568	-0.163345	-0.506183
C84	C	1.563568	0.336655	-0.006183
C85	C	1.063691	-0.081546	-0.505918
C86	C	1.563691	0.418454	-0.005918
C87	C	1.110685	-0.307540	-0.950784
C88	C	1.610685	0.192460	-0.450784
C89	C	1.110730	-0.307563	-1.060508
C90	C	1.610730	0.192437	-0.560508
C91	C	1.016549	-0.401615	-1.060516
C92	C	1.516549	0.098385	-0.560516
C93	C	1.016508	-0.401596	-0.950794
C94	C	1.516508	0.098404	-0.450794
C95	C	1.165058	-0.253237	-0.950780
C96	C	1.665058	0.246763	-0.450780
C97	C	1.165104	-0.253260	-1.060504
C98	C	1.665104	0.246740	-0.560504
C99	C	1.063634	-0.354583	-0.232154
C100	C	1.563634	0.145417	0.267846
C101	C	1.063661	-0.354596	-0.115377
C102	C	1.563661	0.145404	0.384623
H103	H	0.494272	-0.440093	-0.384460
H104	H	0.994272	0.059907	0.115540
O105	O	0.643866	-0.452541	-0.366694
O106	O	1.143866	0.047459	0.133306
H107	H	0.629131	-0.510281	-0.384804
H108	H	1.129131	-0.010281	0.115196
O109	O	0.965782	-0.775012	-0.645676
O110	O	1.465782	-0.275012	-0.145676
H111	H	0.973678	-0.715115	-0.634397
H112	H	1.473678	-0.215115	-0.134397
H113	H	0.494181	-0.269028	-0.627952
H114	H	0.994181	0.230972	-0.127952
H115	H	0.633623	-0.269013	-0.627938
H116	H	1.133623	0.230987	-0.127938
O117	O	1.161506	-0.775077	-0.366383
O118	O	1.661506	-0.275077	0.133617
H119	H	1.194242	-0.814724	-0.319646
H120	H	1.694242	-0.314724	0.180354
H121	H	0.978229	-0.439916	-1.105199
H122	H	1.478229	0.060084	-0.605199
O123	O	1.161531	-0.934834	-0.366333
O124	O	1.661531	-0.434834	0.133667
H125	H	1.194268	-0.895210	-0.319640
H126	H	1.694268	-0.395210	0.180360
H127	H	0.978255	-0.924618	-0.627860
H128	H	1.478255	-0.424618	-0.127860
O129	O	0.965688	-0.452295	-0.891626
O130	O	1.465688	0.047705	-0.391626
H131	H	0.932959	-0.484997	-0.948212
H132	H	1.432959	0.015003	-0.448212
O133	O	1.240527	-0.273515	-0.911222
O134	O	1.740527	0.226485	-0.411222
H135	H	1.277506	-0.283467	-0.978873
H136	H	1.777506	0.216533	-0.478873
H137	H	1.144659	-0.199072	-0.916822
H138	H	1.644659	0.300928	-0.416822
H139	H	1.219252	-0.273723	-1.094456
H140	H	1.719252	0.226277	-0.594456
H141	H	1.149879	-0.196255	-1.090355
H142	H	1.649879	0.303745	-0.590355
