data_functionalizedCrystal
_audit_creation_method	'MofGen! by Chris Wilmer'
_symmetry_space_group_name_H-M	'P1'
_symmetry_Int_Tables_number	1
_symmetry_cell_setting	triclinic
loop_
_symmetry_equiv_pos_as_xyz
  x,y,z
_cell_length_a	15.297475
_cell_length_b	16.959454
_cell_length_c	15.296720
_cell_angle_alpha	99.648278
_cell_angle_beta	91.617114
_cell_angle_gamma	80.323279
loop_
_atom_site_label
_atom_site_type_symbol
_atom_site_fract_x
_atom_site_fract_y
_atom_site_fract_z
Zn1	Zn	1.253421	-0.615181	-0.726635
Zn2	Zn	1.753421	-0.115181	-0.226635
Zn3	Zn	1.278688	-0.729000	-0.580157
Zn4	Zn	1.778688	-0.229000	-0.080157
Zn5	Zn	1.132298	-0.570776	-0.554873
Zn6	Zn	1.632298	-0.070776	-0.054873
Zn7	Zn	1.106914	-0.721230	-0.701285
Zn8	Zn	1.606914	-0.221230	-0.201285
O9	O	1.192830	-0.659047	-0.640738
O10	O	1.692830	-0.159047	-0.140738
O11	O	1.379352	-0.652115	-0.728395
O12	O	1.879352	-0.152115	-0.228395
O13	O	1.280466	-0.692679	-0.454228
O14	O	1.780466	-0.192679	0.045772
O15	O	1.148414	-0.466067	-0.577685
O16	O	1.648414	0.033933	-0.077685
O17	O	1.397915	-0.735737	-0.620778
O18	O	1.897915	-0.235737	-0.120778
O19	O	1.237403	-0.498691	-0.703878
O20	O	1.737403	0.001309	-0.203878
O21	O	1.172914	-0.576432	-0.435651
O22	O	1.672914	-0.076432	0.064349
O23	O	1.006352	-0.568898	-0.553104
O24	O	1.506352	-0.068898	-0.053104
O25	O	1.105151	-0.722495	-0.827223
O26	O	1.605151	-0.222495	-0.327223
O27	O	0.987702	-0.679437	-0.660673
O28	O	1.487702	-0.179437	-0.160673
O29	O	1.212790	-0.644581	-0.845848
O30	O	1.712790	-0.144581	-0.345848
O31	O	1.255853	-0.838569	-0.596198
O32	O	1.755853	-0.338569	-0.096198
O33	O	1.129651	-0.832860	-0.685190
O34	O	1.629651	-0.332860	-0.185190
C35	C	0.965244	-0.618506	-0.601395
C36	C	1.465244	-0.118506	-0.101395
C37	C	0.867878	-0.601185	-0.584584
C38	C	1.367878	-0.101185	-0.084584
C39	C	0.554738	-0.782854	-0.760885
C40	C	1.054738	-0.282854	-0.260885
C41	C	0.646218	-0.799134	-0.776677
C42	C	1.146218	-0.299134	-0.276677
C43	C	0.701637	-0.749648	-0.728655
C44	C	1.201637	-0.249648	-0.228655
C45	C	0.665567	-0.683879	-0.664839
C46	C	1.165567	-0.183879	-0.164839
C47	C	0.574078	-0.667601	-0.649041
C48	C	1.074078	-0.167601	-0.149041
C49	C	0.720978	-0.634395	-0.616811
C50	C	1.220978	-0.134395	-0.116811
C51	C	0.684908	-0.568627	-0.552995
C52	C	1.184908	-0.068627	-0.052995
C53	C	0.593428	-0.552351	-0.537200
C54	C	1.093428	-0.052351	-0.037200
C55	C	0.538009	-0.601837	-0.585221
C56	C	1.038009	-0.101837	-0.085221
C57	C	0.812467	-0.650673	-0.632609
C58	C	1.312467	-0.150673	-0.132609
C59	C	0.831808	-0.535421	-0.520765
C60	C	1.331808	-0.035421	-0.020765
C61	C	0.740327	-0.519141	-0.504973
C62	C	1.240327	-0.019141	-0.004973
C63	C	1.192759	-0.864398	-0.640710
C64	C	1.692759	-0.364398	-0.140710
C65	C	1.192804	-0.952266	-0.640741
C66	C	1.692804	-0.452266	-0.140741
C67	C	1.127199	-1.320817	-0.687084
C68	C	1.627199	-0.820817	-0.187084
C69	C	1.258690	-1.326729	-0.594523
C70	C	1.758690	-0.826729	-0.094523
C71	C	1.258660	-1.244176	-0.594509
C72	C	1.758660	-0.744176	-0.094509
C73	C	1.192899	-1.199940	-0.640783
C74	C	1.692899	-0.699940	-0.140783
C75	C	1.127167	-1.238256	-0.687070
C76	C	1.627167	-0.738256	-0.187070
C77	C	1.324386	-1.205852	-0.548216
C78	C	1.824386	-0.705852	-0.048216
C79	C	1.324359	-1.123295	-0.548200
C80	C	1.824359	-0.623295	-0.048200
C81	C	1.258601	-1.079058	-0.594479
C82	C	1.758601	-0.579058	-0.094479
C83	C	1.192866	-1.117379	-0.640769
C84	C	1.692866	-0.617379	-0.140769
C85	C	1.127105	-1.073143	-0.687042
C86	C	1.627105	-0.573143	-0.187042
C87	C	1.061373	-1.111464	-0.733338
C88	C	1.561373	-0.611464	-0.233338
C89	C	1.061408	-1.194019	-0.733349
C90	C	1.561408	-0.694019	-0.233349
C91	C	1.258566	-0.996503	-0.594468
C92	C	1.758566	-0.496503	-0.094468
C93	C	1.127072	-0.990582	-0.687028
C94	C	1.627072	-0.490582	-0.187028
C95	C	1.421305	-0.699746	-0.680234
C96	C	1.921305	-0.199746	-0.180234
C97	C	1.518668	-0.717090	-0.697066
C98	C	2.018668	-0.217090	-0.197066
C99	C	1.153320	-0.687624	-0.869207
C100	C	1.653320	-0.187624	-0.369207
C101	C	1.136484	-0.699803	-0.966567
C102	C	1.636484	-0.199803	-0.466567
C103	C	1.192922	-0.452900	-0.640788
C104	C	1.692922	0.047100	-0.140788
C105	C	1.192961	-0.365053	-0.640810
C106	C	1.692961	0.134947	-0.140810
C107	C	1.313198	-0.571876	-1.279796
C108	C	1.813198	-0.071876	-0.779796
C109	C	1.329022	-0.560436	-1.188322
C110	C	1.829022	-0.060436	-0.688322
C111	C	1.280889	-0.595276	-1.132879
C112	C	1.780889	-0.095276	-0.632879
C113	C	1.216928	-0.641559	-1.168918
C114	C	1.716928	-0.141559	-0.668918
C115	C	1.201107	-0.653005	-1.260401
C116	C	1.701107	-0.153005	-0.760401
C117	C	1.168798	-0.676406	-1.113484
C118	C	1.668798	-0.176406	-0.613484
C119	C	1.104838	-0.722688	-1.149523
C120	C	1.604838	-0.222688	-0.649523
C121	C	1.089019	-0.734131	-1.240998
C122	C	1.589019	-0.234131	-0.740998
C123	C	1.137153	-0.699291	-1.296441
C124	C	1.637153	-0.199291	-0.796441
C125	C	1.184620	-0.664960	-1.022001
C126	C	1.684620	-0.164960	-0.522001
C127	C	1.072529	-0.746089	-1.002606
C128	C	1.572529	-0.246089	-0.502606
C129	C	1.056705	-0.757528	-1.094080
C130	C	1.556705	-0.257528	-0.594080
C131	C	1.232237	-0.630532	-0.413166
C132	C	1.732237	-0.130532	0.086834
C133	C	1.249243	-0.618162	-0.315836
C134	C	1.749243	-0.118162	0.184164
H135	H	0.509609	-0.823142	-0.799972
H136	H	1.009609	-0.323142	-0.299972
F137	F	0.991457	-1.234808	-0.782614
F138	F	1.491457	-0.734808	-0.282614
H139	H	0.776125	-0.762907	-0.741517
H140	H	1.276125	-0.262907	-0.241517
H141	H	1.124272	-0.708603	-1.370927
H142	H	1.624272	-0.208603	-0.870927
H143	H	0.710946	-0.465591	-0.453013
H144	H	1.210946	0.034409	0.046987
F145	F	1.057250	-1.361601	-0.736357
F146	F	1.557250	-0.861601	-0.236357
H147	H	1.312225	-1.362749	-0.556843
H148	H	1.812225	-0.862749	-0.056843
H149	H	1.312080	-0.965304	-0.556770
H150	H	1.812080	-0.465304	-0.056770
H151	H	1.377920	-1.241873	-0.510535
H152	H	1.877920	-0.741873	-0.010535
F153	F	1.021303	-0.783175	-0.943604
F154	F	1.521303	-0.283175	-0.443604
H155	H	1.073523	-0.954571	-0.724714
H156	H	1.573523	-0.454571	-0.224714
F157	F	1.364424	-0.534809	-1.338808
F158	F	1.864424	-0.034809	-0.838808
H159	H	1.377882	-1.092099	-0.510505
H160	H	1.877882	-0.592099	-0.010505
F161	F	0.991384	-1.064374	-0.782579
F162	F	1.491384	-0.564374	-0.282579
H163	H	0.463516	-0.588584	-0.572369
H164	H	0.963516	-0.088584	-0.072369
H165	H	1.036946	-0.771825	-1.270339
H166	H	1.536946	-0.271825	-0.770339
F167	F	1.252689	-0.615704	-0.983656
F168	F	1.752689	-0.115704	-0.483656
F169	F	0.890785	-0.482753	-0.469650
F170	F	1.390785	0.017247	0.030350
F171	F	1.297731	-0.583099	-1.035524
F172	F	1.797731	-0.083099	-0.535524
H173	H	1.381101	-0.522755	-1.158987
H174	H	1.881101	-0.022755	-0.658987
H175	H	0.564064	-0.498805	-0.485228
H176	H	1.064064	0.001195	0.014772
H177	H	1.004627	-0.795212	-1.123436
H178	H	1.504627	-0.295212	-0.623436
H179	H	0.841826	-0.704223	-0.684570
H180	H	1.341826	-0.204223	-0.184570
H181	H	0.675580	-0.852684	-0.828634
H182	H	1.175580	-0.352684	-0.328634
