data_functionalizedCrystal
_audit_creation_method	'MofGen! by Chris Wilmer'
_symmetry_space_group_name_H-M	'P1'
_symmetry_Int_Tables_number	1
_symmetry_cell_setting	triclinic
loop_
_symmetry_equiv_pos_as_xyz
  x,y,z
_cell_length_a	17.038272
_cell_length_b	17.038272
_cell_length_c	15.500227
_cell_angle_alpha	86.966746
_cell_angle_beta	86.956295
_cell_angle_gamma	88.888444
loop_
_atom_site_label
_atom_site_type_symbol
_atom_site_fract_x
_atom_site_fract_y
_atom_site_fract_z
O1	O	1.052160	-0.167139	-0.071836
O2	O	0.824350	-0.164430	-0.071862
O3	O	0.936901	-0.051879	-0.071842
O4	O	0.939609	-0.279690	-0.071856
O5	O	0.930069	-0.058680	0.072045
O6	O	0.817518	-0.171231	0.072026
O7	O	1.045328	-0.173940	0.072051
Cu8	Cu	0.930799	-0.173207	0.085177
Cu9	Cu	0.938879	-0.165164	-0.084987
O10	O	0.932777	-0.286491	0.072032
C11	C	0.791641	-0.165368	0.000079
C12	C	0.704358	-0.158019	0.000069
C13	C	0.658749	-0.225482	0.000066
C14	C	0.576737	-0.218574	0.000078
C15	C	0.540335	-0.144201	0.000088
C16	C	0.585950	-0.076733	0.000094
C17	C	0.667961	-0.083642	0.000088
C18	C	0.292946	-0.119792	0.000112
C19	C	0.210929	-0.112887	0.000116
C20	C	0.201721	-0.254729	0.000102
C21	C	0.283734	-0.261632	0.000091
C22	C	0.329342	-0.194164	0.000101
C23	C	0.456505	-0.137138	0.000098
C24	C	0.413170	-0.201228	0.000098
C25	C	0.931022	-0.025987	0.000101
C26	C	0.923674	0.061297	0.000100
C27	C	1.078037	-0.173003	0.000109
C28	C	1.165320	-0.180351	0.000113
C29	C	0.938656	-0.312383	0.000087
C30	C	0.946004	-0.399667	0.000082
N31	N	0.925122	-0.178864	0.204861
C32	C	0.991137	0.106906	0.000108
C33	C	0.984229	0.188918	0.000100
C34	C	0.909856	0.225320	0.000088
C35	C	0.842388	0.179705	0.000077
C36	C	0.849297	0.097694	0.000080
C37	C	0.885446	0.472708	0.000074
C38	C	0.878541	0.554725	0.000074
C39	C	1.020383	0.563932	0.000094
C40	C	1.027286	0.481919	0.000102
C41	C	0.959818	0.436312	0.000087
C42	C	0.902792	0.309149	0.000082
C43	C	0.966882	0.352484	0.000087
N44	N	0.944561	-0.159501	-0.204671
C45	C	0.972833	-0.131192	0.250145
C46	C	0.968547	-0.135478	0.340718
C47	C	0.916555	-0.187440	0.386003
C48	C	0.868839	-0.235114	0.340712
C49	C	0.873121	-0.230823	0.250142
C50	C	0.901128	-0.202884	0.659467
C51	C	0.896851	-0.207172	0.750044
C52	C	0.996559	-0.107535	0.750044
C53	C	1.000840	-0.103252	0.659471
C54	C	0.953121	-0.150923	0.614188
C55	C	0.912174	-0.191824	0.478582
C56	C	0.957498	-0.146534	0.521610
H57	H	0.426857	-0.076584	0.000130
H58	H	0.556305	-0.016177	0.000114
H59	H	1.051699	0.077273	0.000123
N60	N	0.323003	-0.341845	0.000090
H61	H	0.359349	-0.345346	-0.053253
H62	H	0.281623	-0.383495	0.000124
N63	N	0.452430	-0.281441	0.000076
H64	H	0.411095	-0.323136	0.000070
H65	H	0.483733	-0.289922	0.053412
H66	H	1.043177	-0.060940	0.622602
N67	N	1.020035	-0.084090	0.389562
H68	H	1.053635	-0.050535	0.347130
H69	H	1.054962	-0.118296	0.427113
N70	N	0.152527	-0.327495	0.000121
H71	H	0.188032	-0.375657	0.000121
H72	H	0.120817	-0.325208	-0.053211
N73	N	0.171665	-0.032667	0.000121
H74	H	0.213001	0.009026	0.000127
H75	H	0.135309	-0.029236	0.053461
H76	H	0.830508	0.435584	0.000061
N77	N	0.762173	0.218969	0.000068
H78	H	0.729838	0.200163	0.053404
H79	H	0.734967	0.205192	-0.053310
N80	N	0.840760	-0.263212	0.798888
H81	H	0.845292	-0.258696	0.863135
H82	H	0.854275	-0.318785	0.783046
N83	N	1.093144	0.613130	0.000101
H84	H	1.127883	0.603388	-0.053235
H85	H	1.122757	0.598333	0.053479
N86	N	0.821660	-0.282245	0.201302
H87	H	0.855755	-0.317250	0.163710
H88	H	0.786677	-0.248067	0.163787
N89	N	0.776534	0.048498	0.000066
H90	H	0.728370	0.084001	0.000059
H91	H	0.773776	0.011751	0.053406
H92	H	0.705095	-0.028706	0.000090
H93	H	0.842237	0.338796	0.000075
H94	H	1.027437	0.322844	0.000077
H95	H	0.817974	0.584359	0.000078
H96	H	1.035409	-0.068723	0.786921
N97	N	1.028897	-0.075138	0.201295
H98	H	1.067442	-0.105694	0.163702
H99	H	1.058416	-0.045593	0.243777
N100	N	0.342131	-0.047026	0.000129
H101	H	0.306623	0.001135	0.000135
H102	H	0.378887	-0.044275	-0.053210
H103	H	1.039164	0.226049	0.000108
N104	N	0.849657	-0.254293	0.610633
H105	H	0.816073	-0.287861	0.653067
H106	H	0.883799	-0.289251	0.573038
H107	H	0.869842	-0.234135	0.515461
N108	N	1.107502	0.442659	0.000119
H109	H	1.149193	0.483997	0.000124
H110	H	1.115993	0.411348	-0.053218
N111	N	0.812754	-0.291154	0.389551
H112	H	0.817281	-0.286641	0.453799
H113	H	0.826275	-0.346725	0.373706
N114	N	1.013570	-0.090495	0.472758
H115	H	1.069165	-0.104025	0.488501
H116	H	1.000014	-0.034915	0.488543
H117	H	0.688381	-0.286045	0.000058
N118	N	0.527538	-0.291342	0.000173
H119	H	0.563042	-0.339506	0.000192
H120	H	0.495793	-0.289100	-0.053133
