data_functionalizedCrystal
_audit_creation_method	'MofGen! by Chris Wilmer'
_symmetry_space_group_name_H-M	'P1'
_symmetry_Int_Tables_number	1
_symmetry_cell_setting	triclinic
loop_
_symmetry_equiv_pos_as_xyz
  x,y,z
_cell_length_a	11.169417
_cell_length_b	25.639239
_cell_length_c	11.169409
_cell_angle_alpha	90.039281
_cell_angle_beta	90.019824
_cell_angle_gamma	90.039565
loop_
_atom_site_label
_atom_site_type_symbol
_atom_site_fract_x
_atom_site_fract_y
_atom_site_fract_z
Zn1	Zn	1.834726	-0.208096	0.678485
Zn2	Zn	1.834516	-0.295546	0.477777
Zn3	Zn	1.634012	-0.208128	0.477819
Zn4	Zn	1.633920	-0.295504	0.678422
O5	O	1.734293	-0.251819	0.578126
O6	O	2.002648	-0.219701	0.651869
O7	O	1.807869	-0.283981	0.309833
O8	O	1.660763	-0.134959	0.504482
O9	O	2.002494	-0.283950	0.504410
O10	O	1.808227	-0.134935	0.651910
O11	O	1.660560	-0.219755	0.309864
O12	O	1.466050	-0.219714	0.504421
O13	O	1.660607	-0.283878	0.846380
O14	O	1.465983	-0.283909	0.651803
O15	O	1.808138	-0.219660	0.846426
O16	O	1.807780	-0.368706	0.504350
O17	O	1.660403	-0.368675	0.651763
C18	C	1.422469	-0.251811	0.578110
C19	C	1.289069	-0.251820	0.578132
C20	C	1.734092	-0.387661	0.578071
C21	C	1.734115	-0.445775	0.578088
C22	C	1.811233	-0.806142	0.501499
C23	C	1.811279	-0.860746	0.501515
O24	O	1.876638	-0.888986	0.436336
N25	N	1.734504	-0.888058	0.578205
C26	C	1.657686	-0.860762	0.654894
O27	O	1.592388	-0.889006	0.720127
C28	C	1.657647	-0.806159	0.654883
C29	C	1.734418	-0.778850	0.578178
C30	C	1.887999	-0.778833	0.424802
C31	C	1.887951	-0.724233	0.424784
C32	C	1.811136	-0.696941	0.501464
C33	C	1.734370	-0.724249	0.578161
C34	C	1.580836	-0.778864	0.731576
C35	C	1.580804	-0.724257	0.731559
C36	C	1.657575	-0.696948	0.654855
C37	C	1.657507	-0.642357	0.654823
N38	N	1.734282	-0.615046	0.578133
C39	C	1.811097	-0.642338	0.501453
C40	C	1.657777	-0.975432	0.654912
C41	C	1.657809	-1.030035	0.654918
C42	C	1.811404	-1.030015	0.501540
C43	C	1.811365	-0.975412	0.501529
C44	C	1.734552	-0.948121	0.578221
C45	C	1.810988	-0.527673	0.501422
C46	C	1.810930	-0.473067	0.501408
C47	C	1.657340	-0.473091	0.654789
C48	C	1.657393	-0.527692	0.654799
C49	C	1.734228	-0.554981	0.578112
O50	O	1.592185	-0.614082	0.719973
O51	O	1.876395	-0.614086	0.436242
C52	C	2.047336	-0.251827	0.578142
C53	C	2.180736	-0.251830	0.578149
C54	C	1.734386	-0.251761	0.891168
C55	C	1.734425	-0.251736	1.024569
C56	C	1.734529	-0.115446	0.578207
C57	C	1.734629	-0.057331	0.578242
C58	C	1.734271	-0.251839	0.266301
C59	C	1.734464	-0.251716	0.132902
H60	H	1.873446	-0.450834	0.438942
H61	H	1.518254	-0.702039	0.794015
C62	C	1.454073	-0.456340	0.713103
C63	C	1.572916	-0.443087	0.739086
H64	H	1.401962	-0.437813	0.765149
H65	H	1.443113	-0.492763	0.724094
H66	H	1.436543	-0.447423	0.632448
H67	H	1.590449	-0.452007	0.819739
H68	H	1.583882	-0.406656	0.728105
C69	C	1.505946	-0.980945	0.806509
C70	C	1.573321	-0.945437	0.739205
H71	H	1.453804	-0.962428	0.858543
H72	H	1.558232	-1.002201	0.852464
H73	H	1.460093	-1.002282	0.754163
H74	H	1.619182	-0.924102	0.791552
H75	H	1.521028	-0.924172	0.693247
H76	H	1.873557	-0.549885	0.438978
C77	C	1.640688	-0.589050	0.816239
C78	C	1.573001	-0.557716	0.739101
H79	H	1.588590	-0.607586	0.868282
H80	H	1.692921	-0.567705	0.862181
H81	H	1.686444	-0.613117	0.770563
H82	H	1.527252	-0.533647	0.784776
H83	H	1.520748	-0.579063	0.693154
C84	C	2.014705	-1.046712	0.443315
C85	C	1.895897	-1.059998	0.417260
H86	H	2.066873	-1.065214	0.391281
H87	H	2.032205	-1.055631	0.523963
H88	H	2.025611	-1.010279	0.432349
H89	H	1.884988	-1.096430	0.428234
H90	H	1.878391	-1.051082	0.336592
H91	H	1.873879	-0.953181	0.439071
H92	H	1.950468	-0.702001	0.362329
H93	H	1.518314	-0.801089	0.794031
C94	C	2.039795	-0.773315	0.273185
C95	C	1.972437	-0.808826	0.340498
H96	H	2.091915	-0.791830	0.221126
H97	H	2.085659	-0.751984	0.325516
H98	H	1.987488	-0.752054	0.227247
H99	H	2.024744	-0.830086	0.386443
H100	H	1.926569	-0.830167	0.288160
H101	H	1.595283	-1.052265	0.717367
