data_functionalizedCrystal
_audit_creation_method	'MofGen! by Chris Wilmer'
_symmetry_space_group_name_H-M	'P1'
_symmetry_Int_Tables_number	1
_symmetry_cell_setting	triclinic
loop_
_symmetry_equiv_pos_as_xyz
  x,y,z
_cell_length_a	10.723024
_cell_length_b	19.188930
_cell_length_c	9.798715
_cell_angle_alpha	89.991738
_cell_angle_beta	89.996609
_cell_angle_gamma	83.806325
loop_
_atom_site_label
_atom_site_type_symbol
_atom_site_fract_x
_atom_site_fract_y
_atom_site_fract_z
O1	O	1.655155	0.097922	-0.113499
O2	O	1.291808	0.107295	-0.113506
O3	O	1.483967	0.001021	-0.113476
O4	O	1.462996	0.204196	-0.113529
O5	O	1.483952	0.001021	0.113507
O6	O	1.291793	0.107295	0.113477
O7	O	1.655140	0.097922	0.113483
Zn8	Zn	1.473465	0.102608	0.149518
Zn9	Zn	1.473483	0.102609	-0.149541
O10	O	1.462982	0.204196	0.113453
C11	C	1.245315	0.106613	-0.000015
C12	C	1.106803	0.104572	-0.000016
C13	C	1.030586	0.164037	-0.000033
C14	C	0.887427	0.161930	-0.000034
C15	C	1.483280	-0.024995	0.000019
C16	C	1.481242	-0.102512	0.000031
C17	C	1.593994	-0.146704	0.000040
C18	C	1.592079	-0.219540	0.000018
C19	C	1.477405	-0.248182	0.000015
C20	C	1.364638	-0.203981	-0.000001
C21	C	1.366556	-0.131146	0.000007
N22	N	1.389745	-0.356756	0.077260
N23	N	1.387931	-0.425947	0.077255
C24	C	1.471618	-0.467628	-0.000013
N25	N	1.557208	-0.437506	-0.077259
N26	N	1.559026	-0.368310	-0.077248
C27	C	1.475312	-0.327158	0.000005
C28	C	1.582302	-0.590797	-0.000030
C29	C	1.580382	-0.663634	-0.000061
C30	C	1.352937	-0.648073	-0.000066
C31	C	1.354860	-0.575238	-0.000049
C32	C	1.469546	-0.546604	-0.000025
C33	C	1.701633	0.098604	-0.000011
C34	C	1.840145	0.100645	-0.000019
C35	C	1.463668	0.230211	-0.000045
C36	C	1.465706	0.307729	-0.000066
N37	N	1.473461	0.102608	0.353618
N38	N	1.473497	0.102604	-0.353640
C39	C	1.554147	0.057789	0.421407
C40	C	1.554167	0.057787	0.578570
H41	H	1.066070	0.052101	-0.000037
H42	H	1.274736	-0.095165	0.000000
C43	C	1.226794	-0.679567	-0.000075
H44	H	1.159915	-0.642813	-0.000083
H45	H	1.221308	-0.707667	0.079072
H46	H	1.221327	-0.707646	-0.079246
C47	C	1.647451	0.005952	0.342648
H48	H	1.698070	-0.022170	0.405559
H49	H	1.699336	0.031272	0.286885
H50	H	1.602503	-0.023237	0.286929
C51	C	1.230834	-0.526622	-0.000050
H52	H	1.248400	-0.479143	-0.000057
H53	H	1.183783	-0.535368	0.079097
H54	H	1.183808	-0.535356	-0.079220
H55	H	1.675686	-0.567482	-0.000017
H56	H	1.404392	0.140974	0.411931
C57	C	1.704416	-0.712245	-0.000049
H58	H	1.772988	-0.684757	-0.000020
H59	H	1.708412	-0.740974	-0.079206
H60	H	1.708379	-0.740989	0.079112
C61	C	1.380170	0.154446	0.567631
H62	H	1.329568	0.182566	0.630549
H63	H	1.328271	0.129129	0.511902
H64	H	1.425105	0.183637	0.511878
C65	C	0.928593	0.031866	-0.000006
H66	H	0.880358	-0.006856	-0.000008
H67	H	0.979994	0.030006	0.079144
H68	H	0.979991	0.030012	-0.079173
H69	H	1.271269	-0.227305	-0.000007
C70	C	1.085600	0.234924	-0.000053
H71	H	1.174603	0.227041	-0.000059
H72	H	1.058068	0.260733	0.079090
H73	H	1.058081	0.260727	-0.079227
C74	C	0.798965	0.230703	-0.000052
H75	H	0.714351	0.220265	-0.000042
H76	H	0.813984	0.257138	-0.079210
H77	H	0.813973	0.257134	0.079107
H78	H	1.623251	0.019419	0.636866
C79	C	1.720140	-0.115207	0.000061
H80	H	1.705138	-0.065499	0.000077
H81	H	1.766564	-0.130332	-0.079086
H82	H	1.766534	-0.130348	0.079231
C83	C	1.716111	-0.268159	0.000037
H84	H	1.784687	-0.240674	0.000061
H85	H	1.720103	-0.296891	-0.079115
H86	H	1.720070	-0.296899	0.079202
