data_functionalizedCrystal
_audit_creation_method	'MofGen! by Chris Wilmer'
_symmetry_space_group_name_H-M	'P1'
_symmetry_Int_Tables_number	1
_symmetry_cell_setting	triclinic
loop_
_symmetry_equiv_pos_as_xyz
  x,y,z
_cell_length_a	21.295420
_cell_length_b	21.295417
_cell_length_c	19.805399
_cell_angle_alpha	89.967749
_cell_angle_beta	89.984007
_cell_angle_gamma	90.026289
loop_
_atom_site_label
_atom_site_type_symbol
_atom_site_fract_x
_atom_site_fract_y
_atom_site_fract_z
Zn1	Zn	0.962302	-0.250686	-0.382688
Zn2	Zn	1.462302	0.249314	0.117312
Zn3	Zn	0.962220	-0.355957	-0.269493
Zn4	Zn	1.462220	0.144043	0.230507
Zn5	Zn	0.857041	-0.250698	-0.269514
Zn6	Zn	1.357041	0.249302	0.230486
Zn7	Zn	0.856995	-0.355913	-0.382642
Zn8	Zn	1.356995	0.144087	0.117358
O9	O	0.909639	-0.303314	-0.326084
O10	O	1.409639	0.196686	0.173916
O11	O	1.050380	-0.264664	-0.367683
O12	O	1.550380	0.235336	0.132317
O13	O	0.948253	-0.342018	-0.174780
O14	O	1.448253	0.157982	0.325220
O15	O	0.871058	-0.162607	-0.284555
O16	O	1.371058	0.337393	0.215445
O17	O	1.050320	-0.342006	-0.284519
O18	O	1.550320	0.157994	0.215481
O19	O	0.948392	-0.162598	-0.367704
O20	O	1.448392	0.337402	0.132296
O21	O	0.870978	-0.264684	-0.174795
O22	O	1.370978	0.235316	0.325205
O23	O	0.768945	-0.264642	-0.284511
O24	O	1.268945	0.235358	0.215489
O25	O	0.870979	-0.341931	-0.477365
O26	O	1.370979	0.158069	0.022635
O27	O	0.768911	-0.341943	-0.367625
O28	O	1.268911	0.158057	0.132375
O29	O	0.948347	-0.264621	-0.477399
O30	O	1.448347	0.235379	0.022601
O31	O	0.948208	-0.444041	-0.284475
O32	O	1.448208	0.055959	0.215525
O33	O	0.870899	-0.444009	-0.367604
O34	O	1.370899	0.055991	0.132396
C35	C	0.746088	-0.303290	-0.326065
C36	C	1.246088	0.196710	0.173935
C37	C	0.676120	-0.303294	-0.326073
C38	C	1.176120	0.196706	0.173927
C39	C	0.176692	-0.263136	-0.369468
C40	C	0.676692	0.236864	0.130532
C41	C	0.242435	-0.263132	-0.369468
C42	C	0.742435	0.236868	0.130532
C43	C	0.275280	-0.303333	-0.326100
C44	C	0.775280	0.196667	0.173900
C45	C	0.242378	-0.343553	-0.282741
C46	C	0.742378	0.156447	0.217259
C47	C	0.176636	-0.343561	-0.282747
C48	C	0.676636	0.156439	0.217253
N49	N	0.378478	-0.308079	-0.266834
N50	N	0.878478	0.191921	0.233166
N51	N	0.440930	-0.308067	-0.266830
N52	N	0.940930	0.191933	0.233170
C53	C	0.473355	-0.303312	-0.326080
C54	C	0.973355	0.196688	0.173920
N55	N	0.440969	-0.298556	-0.385336
N56	N	0.940969	0.201444	0.114664
N57	N	0.378512	-0.298564	-0.385339
N58	N	0.878512	0.201436	0.114661
C59	C	0.346566	-0.303329	-0.326089
C60	C	0.846566	0.196671	0.173911
C61	C	0.577535	-0.263092	-0.369440
C62	C	1.077535	0.236908	0.130560
C63	C	0.643279	-0.263092	-0.369441
C64	C	1.143279	0.236908	0.130559
C65	C	0.643220	-0.343510	-0.282708
C66	C	1.143220	0.156490	0.217292
C67	C	0.577478	-0.343514	-0.282713
C68	C	1.077478	0.156486	0.217287
C69	C	0.544639	-0.303302	-0.326078
C70	C	1.044639	0.196698	0.173922
C71	C	0.909557	-0.466865	-0.326047
C72	C	1.409557	0.033135	0.173953
C73	C	0.909579	-0.536833	-0.326054
C74	C	1.409579	-0.036833	0.173946
C75	C	0.949870	-0.569696	-0.282812
C76	C	1.449870	-0.069696	0.217188
C77	C	0.949899	-0.635438	-0.282828
C78	C	1.449899	-0.135438	0.217172
C79	C	0.909627	-0.668316	-0.326077
C80	C	1.409627	-0.168316	0.173923
C81	C	0.869334	-0.635445	-0.369327
C82	C	1.369334	-0.135445	0.130673
C83	C	0.869310	-0.569704	-0.369315
C84	C	1.369310	-0.069704	0.130685
N85	N	0.854559	-0.771578	-0.331230
N86	N	1.354559	-0.271578	0.168770
N87	N	0.854584	-0.834029	-0.331238
N88	N	1.354584	-0.334029	0.168762
C89	C	0.909697	-0.866391	-0.326116
C90	C	1.409697	-0.366391	0.173884
N91	N	0.964787	-0.833941	-0.320973
N92	N	1.464787	-0.333941	0.179027
N93	N	0.964762	-0.771484	-0.320963
N94	N	1.464762	-0.271484	0.179037
C95	C	0.909649	-0.739601	-0.326095
C96	C	1.409649	-0.239601	0.173905
C97	C	0.950023	-0.970539	-0.282889
C98	C	1.450023	-0.470539	0.217111
C99	C	0.950054	-1.036282	-0.282909
C100	C	1.450054	-0.536282	0.217091
C101	C	0.869483	-1.036288	-0.369404
C102	C	1.369483	-0.536288	0.130596
C103	C	0.869458	-0.970546	-0.369388
C104	C	1.369458	-0.470546	0.130612
C105	C	0.909727	-0.937675	-0.326126
C106	C	1.409727	-0.437675	0.173874
C107	C	1.073830	-0.303338	-0.326104
C108	C	1.573830	0.196662	0.173896
C109	C	1.143798	-0.303349	-0.326112
C110	C	1.643798	0.196651	0.173888
C111	C	0.909739	-0.139123	-0.326137
C112	C	1.409739	0.360877	0.173863
C113	C	0.909782	-0.069155	-0.326159
C114	C	1.409782	0.430845	0.173841
C115	C	0.909667	-0.303270	-0.502627
C116	C	1.409667	0.196730	-0.002627
C117	C	0.909679	-0.303251	-0.577859
C118	C	1.409679	0.196749	-0.077859
C119	C	0.869453	-0.262980	-0.613211
C120	C	1.369453	0.237020	-0.113211
C121	C	0.869462	-0.262968	-0.683899
C122	C	1.369462	0.237032	-0.183899
C123	C	0.909700	-0.303224	-0.719235
C124	C	1.409700	0.196776	-0.219235
C125	C	0.949927	-0.343500	-0.683878
C126	C	1.449927	0.156500	-0.183878
C127	C	0.949915	-0.343515	-0.613191
C128	C	1.449915	0.156485	-0.113191
C129	C	0.949977	-0.343441	-0.968952
C130	C	1.449977	0.156559	-0.468952
C131	C	0.949987	-0.343422	-1.039644
C132	C	1.449987	0.156578	-0.539644
C133	C	0.869524	-0.262894	-1.039660
C134	C	1.369524	0.237106	-0.539660
C135	C	0.869512	-0.262909	-0.968973
C136	C	1.369512	0.237091	-0.468973
C137	C	0.909736	-0.303187	-0.933622
C138	C	1.409736	0.196813	-0.433622
C139	C	0.909726	-0.303200	-0.856974
C140	C	1.409726	0.196800	-0.356974
C141	C	0.909714	-0.303208	-0.795882
C142	C	1.409714	0.196792	-0.295882
C143	C	0.909648	-0.303312	-0.150229
C144	C	1.409648	0.196688	0.349771
C145	C	0.909758	-0.303153	-0.074997
C146	C	1.409758	0.196847	0.425003
H147	H	0.550796	-0.230349	-0.404750
H148	H	1.050796	0.269651	0.095250
O149	O	0.826136	-0.219454	-1.077792
O150	O	1.326136	0.280546	-0.577792
H151	H	0.798161	-0.191458	-1.041345
H152	H	1.298161	0.308542	-0.541345
O153	O	0.541993	-0.386882	-0.235945
O154	O	1.041993	0.113118	0.264055
H155	H	0.512036	-0.358668	-0.201572
H156	H	1.012036	0.141332	0.298428
H157	H	0.982755	-0.376206	-1.068412
H158	H	1.482755	0.123794	-0.568412
O159	O	0.993517	-1.071725	-0.236267
O160	O	1.493517	-0.571725	0.263733
H161	H	1.025545	-1.101621	-0.266598
H162	H	1.525545	-0.601621	0.233402
O163	O	0.993309	-0.534241	-0.236164
O164	O	1.493309	-0.034241	0.263836
H165	H	1.021336	-0.568141	-0.206103
H166	H	1.521336	-0.068141	0.293897
O167	O	0.993351	-0.670896	-0.236182
O168	O	1.493351	-0.170896	0.263818
H169	H	1.021345	-0.636994	-0.206094
H170	H	1.521345	-0.136994	0.293906
O171	O	0.678636	-0.386868	-0.235926
O172	O	1.178636	0.113132	0.264074
H173	H	0.708592	-0.418925	-0.266152
H174	H	1.208592	0.081075	0.233848
O175	O	0.141277	-0.219768	-0.416244
O176	O	0.641277	0.280232	0.083756
H177	H	0.090036	-0.226524	-0.408963
H178	H	0.590036	0.273476	0.091037
O179	O	0.993306	-0.386944	-0.575056
O180	O	1.493306	0.113056	-0.075056
H181	H	1.021294	-0.414929	-0.611501
H182	H	1.521294	0.085071	-0.111501
O183	O	0.826058	-0.219555	-0.575101
O184	O	1.326058	0.280445	-0.075101
H185	H	0.776647	-0.230342	-0.588653
H186	H	1.276647	0.269658	-0.088653
H187	H	0.836695	-1.063056	-0.404622
H188	H	1.336695	-0.563056	0.095378
H189	H	0.836647	-0.943787	-0.404596
H190	H	1.336647	-0.443787	0.095404
H191	H	0.982686	-0.376281	-0.712654
H192	H	1.482686	0.123719	-0.212654
O193	O	0.277924	-0.219755	-0.416230
O194	O	0.777924	0.280245	0.083770
H195	H	0.307877	-0.187698	-0.385986
H196	H	0.807877	0.312302	0.114014
H197	H	0.269125	-0.376287	-0.247433
H198	H	0.769125	0.123713	0.252567
O199	O	0.826082	-0.219527	-0.722032
O200	O	1.326082	0.280473	-0.222032
H201	H	0.798108	-0.191530	-0.685585
H202	H	1.298108	0.308470	-0.185585
O203	O	0.141154	-0.386928	-0.235973
O204	O	0.641154	0.113072	0.264027
H205	H	0.153758	-0.436346	-0.247478
H206	H	0.653758	0.063654	0.252522
O207	O	0.678763	-0.219714	-0.416200
O208	O	1.178763	0.280286	0.083800
H209	H	0.644881	-0.191749	-0.446347
H210	H	1.144881	0.308251	0.053653
O211	O	0.825889	-0.670900	-0.415969
O212	O	1.325889	-0.170900	0.084031
H213	H	0.832667	-0.722136	-0.408705
H214	H	1.332667	-0.222136	0.091295
O215	O	0.825840	-0.534253	-0.415943
O216	O	1.325840	-0.034253	0.084057
H217	H	0.797836	-0.568157	-0.446016
H218	H	1.297836	-0.068157	0.053984
O219	O	0.993462	-0.935077	-0.236241
O220	O	1.493462	-0.435077	0.263759
H221	H	1.021493	-0.968977	-0.206182
H222	H	1.521493	-0.468977	0.293818
H223	H	0.836748	-0.230126	-0.940206
H224	H	1.336748	0.269874	-0.440206
O225	O	0.993375	-0.386865	-0.930827
O226	O	1.493375	0.113135	-0.430827
H227	H	1.021365	-0.414844	-0.967276
H228	H	1.521365	0.085156	-0.467276
