data_functionalizedCrystal
_audit_creation_method	'MofGen! by Chris Wilmer'
_symmetry_space_group_name_H-M	'P1'
_symmetry_Int_Tables_number	1
_symmetry_cell_setting	triclinic
loop_
_symmetry_equiv_pos_as_xyz
  x,y,z
_cell_length_a	17.699104
_cell_length_b	14.185569
_cell_length_c	17.699083
_cell_angle_alpha	76.871494
_cell_angle_beta	96.712734
_cell_angle_gamma	76.872528
loop_
_atom_site_label
_atom_site_type_symbol
_atom_site_fract_x
_atom_site_fract_y
_atom_site_fract_z
O1	O	0.986861	0.083441	-0.112981
O2	O	0.766485	0.083438	-0.125417
O3	O	0.882901	0.083431	-0.009008
O4	O	0.870445	0.083448	-0.229389
O5	O	0.917291	-0.083406	0.025376
O6	O	0.800876	-0.083398	-0.091032
O7	O	1.021251	-0.083396	-0.078597
Cu8	Cu	0.914204	-0.098631	-0.081675
Cu9	Cu	0.873533	0.098673	-0.122339
O10	O	0.904836	-0.083389	-0.195005
C11	C	0.755484	0.000020	-0.107776
C12	C	0.671467	0.000019	-0.106431
N13	N	0.942815	-0.237404	-0.053074
C14	C	0.146593	0.000034	-0.167178
C15	C	0.225536	0.000037	-0.168438
C16	C	0.274155	0.000031	-0.100101
C17	C	0.243824	0.000033	-0.030503
C18	C	0.164881	0.000037	-0.029245
C19	C	0.562194	0.000017	-0.035573
C20	C	0.641142	0.000010	-0.036835
C21	C	0.622848	0.000017	-0.174765
C22	C	0.543905	0.000021	-0.173508
C23	C	0.513581	0.000028	-0.103911
C24	C	0.427981	0.000027	-0.102546
C25	C	0.359754	0.000025	-0.101464
C26	C	0.760869	-0.605042	-0.234930
C27	C	0.782547	-0.710065	-0.213270
C28	C	0.885654	-0.710032	-0.110229
C29	C	0.863982	-0.605007	-0.131878
C30	C	0.801590	-0.552520	-0.194229
C31	C	0.904703	-0.552486	-0.091177
C32	C	0.883036	-0.447470	-0.112827
C33	C	0.820648	-0.394975	-0.175177
C34	C	0.779923	-0.447504	-0.215879
C35	C	0.967099	-0.604975	-0.028829
C36	C	1.007820	-0.552454	0.011872
C37	C	0.986149	-0.447436	-0.009774
C38	C	0.923761	-0.394941	-0.072125
C39	C	1.026874	-0.394907	0.030927
C40	C	1.005207	-0.289891	0.009277
C41	C	0.902094	-0.289925	-0.093775
C42	C	1.032252	0.000025	-0.096238
C43	C	1.116268	0.000032	-0.097584
C44	C	0.899650	0.000012	0.036381
C45	C	0.898312	0.000012	0.120399
N46	N	0.844928	0.237446	-0.150933
C47	C	0.888086	0.000032	-0.240395
C48	C	0.889423	0.000039	-0.324414
C49	C	0.966645	0.000011	0.169015
C50	C	0.965380	0.000020	0.247957
C51	C	0.895784	0.000022	0.278282
C52	C	0.827445	0.000026	0.229659
C53	C	0.828709	0.000024	0.150718
C54	C	0.822349	0.000034	0.548021
C55	C	0.821091	0.000033	0.626969
C56	C	0.959020	0.000030	0.645260
C57	C	0.960284	0.000028	0.566318
C58	C	0.891944	0.000037	0.517701
C59	C	0.893315	0.000029	0.432104
C60	C	0.894414	0.000023	0.363880
H61	H	0.107014	0.000031	-0.222824
H62	H	0.140192	0.000038	0.027424
Cl63	Cl	0.733591	0.000038	0.665091
Cl64	Cl	0.823648	-0.223937	-0.172154
Cl65	Cl	1.047779	0.000028	0.528199
H66	H	0.647547	0.000016	-0.231435
Cl67	Cl	0.964089	-0.776023	-0.031848
Cl68	Cl	0.736435	0.000048	0.486912
H69	H	0.803009	-0.309465	-0.192806
Cl70	Cl	0.739950	0.000041	0.267780
Cl71	Cl	1.044933	0.000022	0.706383
H72	H	0.984740	-0.690486	-0.011207
Cl73	Cl	1.051290	0.000016	0.309072
H74	H	0.250220	0.000047	-0.225110
Cl75	Cl	0.742800	0.000029	0.089599
H76	H	0.504324	0.000021	-0.229153
H77	H	1.077679	-0.437656	0.081690
Cl78	Cl	0.524077	0.000049	0.051916
H79	H	0.283415	0.000034	0.025136
Cl80	Cl	0.682423	-0.539054	-0.313310
Cl81	Cl	0.701477	-0.381516	-0.294259
Cl82	Cl	0.731347	-0.776084	-0.264449
H83	H	0.680726	0.000008	0.018816
H84	H	1.058622	-0.595201	0.062637
H85	H	1.038367	-0.247128	0.042420
H86	H	1.023319	0.000003	0.144332
