data_functionalizedCrystal
_audit_creation_method	'MofGen! by Chris Wilmer'
_symmetry_space_group_name_H-M	'P1'
_symmetry_Int_Tables_number	1
_symmetry_cell_setting	triclinic
loop_
_symmetry_equiv_pos_as_xyz
  x,y,z
_cell_length_a	14.853567
_cell_length_b	14.853568
_cell_length_c	13.930277
_cell_angle_alpha	90.006322
_cell_angle_beta	90.013053
_cell_angle_gamma	83.635059
loop_
_atom_site_label
_atom_site_type_symbol
_atom_site_fract_x
_atom_site_fract_y
_atom_site_fract_z
O1	O	-1.196347	-0.117698	0.079755
O2	O	-0.933887	-0.131719	0.079770
O3	O	-1.072127	0.006521	0.079767
O4	O	-1.058107	-0.255938	0.079758
O5	O	-1.072152	0.006513	-0.079895
O6	O	-0.933912	-0.131728	-0.079892
O7	O	-1.196371	-0.117706	-0.079907
Zn8	Zn	-1.065146	-0.124718	-0.105249
Zn9	Zn	-1.065113	-0.124707	0.105112
O10	O	-1.058131	-0.255947	-0.079904
C11	C	-0.900311	-0.131088	-0.000059
C12	C	-0.800227	-0.129184	-0.000053
C13	C	-1.071504	0.040106	-0.000061
C14	C	-1.069600	0.140189	-0.000051
N15	N	-1.065174	-0.124726	-0.248815
C16	C	-1.229948	-0.118337	-0.000076
C17	C	-1.330031	-0.120241	-0.000076
C18	C	-0.387693	-0.039019	-0.000071
C19	C	-0.366413	-0.203251	-0.000076
C20	C	-0.460446	-0.205041	-0.000073
C21	C	-0.518108	-0.123819	-0.000067
C22	C	-0.481736	-0.040806	-0.000065
C23	C	-0.496826	-0.288053	-0.000065
C24	C	-0.590865	-0.289846	-0.000061
C25	C	-0.648528	-0.208623	-0.000063
C26	C	-0.612151	-0.125607	-0.000061
C27	C	-0.669812	-0.044384	-0.000056
C28	C	-0.633437	0.038633	-0.000062
C29	C	-0.539399	0.040417	-0.000067
C30	C	-0.742566	-0.210407	-0.000058
C31	C	-0.763855	-0.046172	-0.000050
C32	C	-0.979434	0.552723	-0.000058
C33	C	-1.143666	0.574004	-0.000067
C34	C	-1.145457	0.479970	-0.000063
C35	C	-1.064234	0.422309	-0.000058
C36	C	-0.981222	0.458680	-0.000057
C37	C	-1.228468	0.443591	-0.000074
C38	C	-1.230262	0.349552	-0.000071
C39	C	-1.149038	0.291889	-0.000059
C40	C	-1.066022	0.328266	-0.000056
C41	C	-0.984800	0.270604	-0.000051
C42	C	-0.901783	0.306979	-0.000042
C43	C	-0.899998	0.401017	-0.000044
C44	C	-1.150823	0.197851	-0.000056
C45	C	-0.986588	0.176561	-0.000050
C46	C	-1.058754	0.710469	-0.000071
C47	C	-1.060656	0.610385	-0.000063
N48	N	-1.065091	-0.124693	0.248678
C49	C	-1.003835	-0.185812	0.700949
C50	C	-1.126496	-0.063633	0.700915
C51	C	-1.126481	-0.063626	0.600420
C52	C	-1.065142	-0.124712	0.550184
C53	C	-1.003817	-0.185805	0.600444
C54	C	-1.187799	-0.002529	0.550152
C55	C	-1.187786	-0.002519	0.449650
C56	C	-1.126450	-0.063610	0.399413
C57	C	-1.065124	-0.124706	0.449679
C58	C	-1.003785	-0.185792	0.399443
C59	C	-0.942462	-0.246893	0.449707
C60	C	-0.942481	-0.246896	0.550206
C61	C	-1.126431	-0.063607	0.298914
C62	C	-1.003767	-0.185785	0.298938
H63	H	-0.810798	0.019971	-0.000050
H64	H	-1.218414	0.168238	-0.000070
H65	H	-0.680397	0.104764	-0.000051
Br66	Br	-0.490027	0.153073	-0.000071
H67	H	-0.920445	0.129618	-0.000041
H68	H	-0.358072	0.028572	-0.000079
H69	H	-0.892515	-0.296626	0.408794
H70	H	-0.319459	-0.269379	-0.000072
Br71	Br	-0.418569	-0.398276	-0.000052
H72	H	-0.953820	-0.235533	0.258042
H73	H	-0.832410	0.430642	-0.000038
H74	H	-0.911843	0.582344	-0.000047
Br75	Br	-0.640224	-0.402509	-0.000054
H76	H	-1.209794	0.620957	-0.000079
H77	H	-1.294595	0.490546	-0.000087
Br78	Br	-1.209640	0.019317	0.230704
Br79	Br	-0.791930	-0.323063	-0.000039
Br80	Br	-1.210206	0.018791	0.769091
H81	H	-1.237719	0.047232	0.408731
Br82	Br	-0.791557	0.228713	-0.000047
H83	H	-1.297859	0.319944	-0.000077
H84	H	-0.892554	-0.296642	0.591138
H85	H	-0.953909	-0.235562	0.741876
Br86	Br	-1.271848	0.079547	0.618328
