data_functionalizedCrystal
_audit_creation_method	'MofGen! by Chris Wilmer'
_symmetry_space_group_name_H-M	'P1'
_symmetry_Int_Tables_number	1
_symmetry_cell_setting	triclinic
loop_
_symmetry_equiv_pos_as_xyz
  x,y,z
_cell_length_a	14.971486
_cell_length_b	17.038272
_cell_length_c	13.448316
_cell_angle_alpha	89.993314
_cell_angle_beta	89.998199
_cell_angle_gamma	87.362843
loop_
_atom_site_label
_atom_site_type_symbol
_atom_site_fract_x
_atom_site_fract_y
_atom_site_fract_z
O1	O	1.194577	0.101898	-0.082578
O2	O	1.694577	0.601898	0.417422
O3	O	0.935090	0.114100	-0.082605
O4	O	1.435090	0.614100	0.417395
O5	O	1.063291	-0.005818	-0.082584
O6	O	1.563291	0.494182	0.417416
O7	O	1.066375	0.221816	-0.082599
O8	O	1.566375	0.721816	0.417401
O9	O	1.063273	-0.005826	0.082800
O10	O	1.563273	0.494174	0.582800
O11	O	0.935072	0.114093	0.082779
O12	O	1.435072	0.614093	0.582779
O13	O	1.194559	0.101890	0.082806
O14	O	1.694559	0.601890	0.582806
Cu15	Cu	1.064814	0.107991	0.097893
Cu16	Cu	1.564814	0.607991	0.597893
Cu17	Cu	1.064835	0.107999	-0.097692
Cu18	Cu	1.564835	0.607999	0.402308
O19	O	1.066358	0.221809	0.082785
O20	O	1.566358	0.721809	0.582785
C21	C	0.901716	0.113551	0.000083
C22	C	1.401716	0.613551	0.500083
C23	C	0.802296	0.111915	0.000073
C24	C	1.302296	0.611915	0.500073
C25	C	0.750345	0.182364	0.000070
C26	C	1.250345	0.682364	0.500070
C27	C	0.656930	0.180823	0.000085
C28	C	1.156930	0.680823	0.500085
C29	C	0.615468	0.108832	0.000096
C30	C	1.115468	0.608832	0.500096
C31	C	0.667426	0.038378	0.000102
C32	C	1.167426	0.538378	0.500102
C33	C	0.760839	0.039920	0.000095
C34	C	1.260839	0.539920	0.500095
C35	C	0.472723	0.035169	0.000116
C36	C	0.972723	0.535169	0.500116
C37	C	0.379303	0.033626	0.000122
C38	C	0.879303	0.533626	0.500122
C39	C	0.368815	0.176072	0.000107
C40	C	0.868815	0.676072	0.500107
C41	C	0.462228	0.177614	0.000099
C42	C	0.962228	0.677614	0.500099
C43	C	0.514179	0.107159	0.000103
C44	C	1.014179	0.607159	0.500103
C45	C	1.060477	-0.034954	0.000108
C46	C	1.560477	0.465046	0.500108
C47	C	1.052107	-0.121756	0.000107
C48	C	1.552107	0.378244	0.500107
C49	C	1.128951	-0.171781	0.000116
C50	C	1.628951	0.328219	0.500116
C51	C	1.121081	-0.253341	0.000105
C52	C	1.621081	0.246659	0.500105
C53	C	1.036367	-0.284874	0.000093
C54	C	1.536367	0.215126	0.500093
C55	C	0.959518	-0.234843	0.000081
C56	C	1.459518	0.265157	0.500081
C57	C	0.967388	-0.153285	0.000084
C58	C	1.467388	0.346715	0.500084
C59	C	1.008563	-0.530664	0.000077
C60	C	1.508563	-0.030664	0.500077
C61	C	1.000698	-0.612229	0.000077
C62	C	1.500698	-0.112229	0.500077
C63	C	1.162262	-0.630721	0.000099
C64	C	1.662262	-0.130721	0.500099
C65	C	1.170125	-0.549161	0.000108
C66	C	1.670125	-0.049161	0.500108
C67	C	1.093276	-0.499137	0.000091
C68	C	1.593276	0.000863	0.500091
C69	C	1.028321	-0.368241	0.000086
C70	C	1.528321	0.131759	0.500086
C71	C	1.101323	-0.415771	0.000091
C72	C	1.601323	0.084229	0.500091
C73	C	1.227933	0.102440	0.000115
C74	C	1.727933	0.602440	0.500115
C75	C	1.327353	0.104075	0.000119
C76	C	1.827353	0.604075	0.500119
C77	C	1.069172	0.250944	0.000091
C78	C	1.569172	0.750944	0.500091
C79	C	1.077542	0.337746	0.000086
C80	C	1.577542	0.837746	0.500086
N81	N	1.064806	0.107984	0.235458
N82	N	1.564806	0.607984	0.735458
N83	N	1.064850	0.108000	-0.235257
N84	N	1.564850	0.608000	0.264743
C85	C	1.121593	0.054906	0.287507
C86	C	1.621593	0.554906	0.787507
C87	C	1.121599	0.054905	0.391611
C88	C	1.621599	0.554905	0.891611
C89	C	1.064821	0.107987	0.443662
C90	C	1.564821	0.607987	0.943662
C91	C	1.008026	0.161068	0.391605
C92	C	1.508026	0.661068	0.891605
C93	C	1.008017	0.161064	0.287504
C94	C	1.508017	0.661064	0.787504
C95	C	1.008052	0.161073	0.608585
C96	C	1.508052	0.661073	1.108585
C97	C	1.008062	0.161078	0.712694
C98	C	1.508062	0.661078	1.212694
C99	C	1.121634	0.054914	0.712692
C100	C	1.621634	0.554914	1.212692
C101	C	1.121624	0.054911	0.608591
C102	C	1.621624	0.554911	1.108591
C103	C	1.064831	0.107992	0.556541
C104	C	1.564831	0.607992	1.056541
H105	H	0.345548	-0.024995	0.000133
H106	H	0.845548	0.475005	0.500133
H107	H	0.803137	-0.017447	0.000097
H108	H	1.303137	0.482553	0.500097
H109	H	0.961791	0.204285	0.433991
H110	H	1.461791	0.704285	0.933991
O111	O	1.203967	-0.307292	0.000131
O112	O	1.703967	0.192708	0.500131
H113	H	1.244233	-0.296060	-0.067261
H114	H	1.744233	0.203940	0.432739
H115	H	0.931710	-0.637900	0.000083
H116	H	1.431710	-0.137900	0.500083
H117	H	0.961773	0.204284	0.245126
H118	H	1.461773	0.704284	0.745126
H119	H	0.961801	0.204295	0.566210
H120	H	1.461801	0.704295	1.066210
O121	O	0.795065	0.260012	0.000068
O122	O	1.295065	0.760012	0.500068
H123	H	0.743242	0.308740	0.000081
H124	H	1.243242	0.808740	0.500081
H125	H	0.515019	-0.022203	0.000121
H126	H	1.015019	0.477797	0.500121
O127	O	1.182886	-0.002346	0.768822
O128	O	1.682886	0.497654	1.268822
H129	H	1.173347	0.006564	0.849955
H130	H	1.673347	0.506564	1.349955
O131	O	0.946805	0.218312	0.768842
O132	O	1.446805	0.718312	1.268842
H133	H	0.907296	0.255210	0.715161
H134	H	1.407296	0.755210	1.215161
H135	H	0.614636	0.238189	0.000081
H136	H	1.114636	0.738189	0.500081
H137	H	0.495983	0.236235	0.000080
H138	H	0.995983	0.736235	0.500080
O139	O	1.261495	-0.515149	0.000097
O140	O	1.761495	-0.015149	0.500097
H141	H	1.313609	-0.563637	0.000087
H142	H	1.813609	-0.063637	0.500087
H143	H	1.224829	-0.671459	0.000111
H144	H	1.724829	-0.171459	0.500111
H145	H	0.633660	-0.020239	0.000126
H146	H	1.133660	0.479761	0.500126
H147	H	0.945986	-0.489944	0.000063
H148	H	1.445986	0.010056	0.500063
O149	O	0.884503	-0.099329	0.000079
O150	O	1.384503	0.400671	0.500079
H151	H	0.904207	-0.037320	0.000073
H152	H	1.404207	0.462680	0.500073
O153	O	1.182859	-0.002342	0.552443
O154	O	1.682859	0.497658	1.052443
H155	H	1.222345	-0.039259	0.606123
H156	H	1.722345	0.460741	1.106123
H157	H	0.326511	0.233438	0.000107
H158	H	0.826511	0.733438	0.500107
H159	H	1.167839	0.011685	0.433989
H160	H	1.667839	0.511685	0.933989
O161	O	1.220322	-0.137771	0.000119
O162	O	1.720322	0.362229	0.500119
H163	H	1.272433	-0.186261	0.000111
H164	H	1.772433	0.313739	0.500111
H165	H	0.890541	-0.260524	0.000065
H166	H	1.390541	0.239476	0.500065
O167	O	1.192693	-0.381768	0.000100
O168	O	1.692693	0.118232	0.500100
H169	H	1.200133	-0.345063	0.067513
H170	H	1.700133	0.154937	0.567513
O171	O	0.936954	-0.402258	0.000094
O172	O	1.436954	0.097742	0.500094
H173	H	0.929512	-0.438973	-0.067309
H174	H	1.429512	0.061027	0.432691
H175	H	1.167833	0.011684	0.245134
H176	H	1.667833	0.511684	0.745134
