data_functionalizedCrystal
_audit_creation_method	'MofGen! by Chris Wilmer'
_symmetry_space_group_name_H-M	'P1'
_symmetry_Int_Tables_number	1
_symmetry_cell_setting	triclinic
loop_
_symmetry_equiv_pos_as_xyz
  x,y,z
_cell_length_a	14.908558
_cell_length_b	14.908579
_cell_length_c	17.077396
_cell_angle_alpha	86.730024
_cell_angle_beta	86.690453
_cell_angle_gamma	89.793522
loop_
_atom_site_label
_atom_site_type_symbol
_atom_site_fract_x
_atom_site_fract_y
_atom_site_fract_z
Zn1	Zn	1.353928	0.437421	-0.533660
Zn2	Zn	1.345148	0.587787	-0.409506
Zn3	Zn	1.203570	0.428763	-0.394438
Zn4	Zn	1.194853	0.579043	-0.532759
O5	O	1.274375	0.508254	-0.467591
O6	O	1.478588	0.464651	-0.523873
O7	O	1.326341	0.566728	-0.297661
O8	O	1.230838	0.304090	-0.406977
O9	O	1.472137	0.575125	-0.432658
O10	O	1.341306	0.310451	-0.509263
O11	O	1.222324	0.449894	-0.286590
O12	O	1.076589	0.441414	-0.406104
O13	O	1.215981	0.560220	-0.642725
O14	O	1.070185	0.551824	-0.507728
O15	O	1.332853	0.456172	-0.643387
O16	O	1.317888	0.712449	-0.431785
O17	O	1.207467	0.706024	-0.522338
C18	C	1.040762	0.494731	-0.455183
C19	C	0.940820	0.488968	-0.449895
C20	C	1.260803	0.741862	-0.478617
C21	C	1.255079	0.841805	-0.483365
C22	C	0.803270	0.423276	-0.389610
C23	C	0.897175	0.428687	-0.394575
C24	C	0.890555	0.543841	-0.500255
C25	C	0.796651	0.538430	-0.495289
C26	C	0.753012	0.478147	-0.439964
C27	C	0.659105	0.472742	-0.434996
C28	C	0.652488	0.587890	-0.540678
C29	C	0.746392	0.593301	-0.545644
C30	C	1.359423	1.036246	-0.398081
C31	C	1.354048	1.130152	-0.402539
C32	C	1.238959	1.123525	-0.496745
C33	C	1.244334	1.029619	-0.492286
C34	C	1.304567	0.985983	-0.442952
C35	C	1.309937	0.892075	-0.438489
C36	C	1.194853	0.885451	-0.532698
C37	C	1.189478	0.979357	-0.537157
C38	C	1.508899	0.521829	-0.480047
C39	C	1.608840	0.527614	-0.485355
C40	C	1.274424	0.508186	-0.672334
C41	C	1.274445	0.508158	-0.759584
C42	C	1.288018	1.273734	-0.456549
C43	C	1.293817	1.173795	-0.451869
C44	C	1.220301	0.447316	-0.794809
C45	C	1.220317	0.447297	-0.876790
C46	C	1.274482	0.508115	-0.923543
C47	C	1.328628	0.568963	-0.888312
C48	C	1.328606	0.568987	-0.806333
C49	C	1.328670	0.568910	-1.059181
C50	C	1.328692	0.568886	-1.141166
C51	C	1.220381	0.447219	-1.129638
C52	C	1.220359	0.447243	-1.047659
C53	C	1.274506	0.508090	-1.012434
C54	C	1.274381	0.508258	-0.263643
C55	C	1.274549	0.508044	-0.176392
H56	H	0.623576	0.423655	-0.389948
H57	H	1.358979	0.856547	-0.398317
H58	H	1.140441	1.014898	-0.577326
H59	H	0.926103	0.592916	-0.545301
H60	H	0.767739	0.374193	-0.344561
Br61	Br	1.428503	1.198364	-0.341645
H62	H	0.781936	0.642380	-0.590689
H63	H	1.150183	0.844516	-0.569233
H64	H	0.611557	0.632571	-0.581680
H65	H	1.189926	1.159071	-0.536916
H66	H	1.176200	0.397786	-0.756748
H67	H	1.176225	0.397756	-0.905466
Br68	Br	1.441148	0.977019	-0.331114
Br69	Br	1.146858	0.364694	-0.984209
H70	H	1.176293	0.397674	-1.158323
H71	H	1.372725	0.618487	-0.926385
Br72	Br	1.402082	0.651567	-0.758525
Br73	Br	1.402211	0.651418	-1.204617
H74	H	0.938092	0.384002	-0.353574
Br75	Br	1.402150	0.651494	-1.011376
