data_functionalizedCrystal
_audit_creation_method	'MofGen! by Chris Wilmer'
_symmetry_space_group_name_H-M	'P1'
_symmetry_Int_Tables_number	1
_symmetry_cell_setting	triclinic
loop_
_symmetry_equiv_pos_as_xyz
  x,y,z
_cell_length_a	18.627263
_cell_length_b	18.627226
_cell_length_c	18.627297
_cell_angle_alpha	120.004257
_cell_angle_beta	89.999758
_cell_angle_gamma	60.000314
loop_
_atom_site_label
_atom_site_type_symbol
_atom_site_fract_x
_atom_site_fract_y
_atom_site_fract_z
O1	O	-0.492472	-0.633254	-0.021364
O2	O	-0.388078	-0.486243	0.021251
O3	O	-0.388073	-0.633252	-0.125763
O4	O	-0.492476	-0.486246	0.125650
O5	O	-0.507480	-0.513842	-0.125750
O6	O	-0.507484	-0.366834	0.021264
O7	O	-0.611878	-0.513845	-0.021351
Zn8	Zn	-0.578640	-0.421380	-0.000042
Zn9	Zn	-0.421316	-0.578708	-0.000059
O10	O	-0.611883	-0.366836	0.125663
C11	C	-0.386972	-0.226052	0.030933
C12	C	-0.431269	-0.137457	0.024830
C13	C	-0.430378	-0.269043	0.031546
C14	C	-0.256974	-0.356049	0.030940
C15	C	-0.162277	-0.406446	0.024843
C16	C	-0.300578	-0.398842	0.031553
C17	C	-0.386977	-0.356045	0.030945
C18	C	-0.431279	-0.406439	0.024854
C19	C	-0.300573	-0.269046	0.031541
C20	C	-0.386972	-0.644049	-0.387063
C21	C	-0.431273	-0.593650	-0.431359
C22	C	-0.300570	-0.731061	-0.430476
C23	C	-0.386972	-0.644049	-0.257062
C24	C	-0.431274	-0.593649	-0.162360
C25	C	-0.300570	-0.731060	-0.300672
C26	C	-0.256967	-0.774057	-0.387075
C27	C	-0.162267	-0.862663	-0.431384
C28	C	-0.430378	-0.601250	-0.300660
C29	C	-0.612967	-0.774064	-0.031073
C30	C	-0.568663	-0.862671	-0.024986
C31	C	-0.699367	-0.731067	-0.031676
C32	C	-0.612973	-0.644053	-0.031059
C33	C	-0.568675	-0.593652	-0.024958
C34	C	-0.699373	-0.601254	-0.031662
C35	C	-0.742973	-0.644055	-0.031059
C36	C	-0.837671	-0.593656	-0.024957
C37	C	-0.569565	-0.731065	-0.031676
O38	O	0.125729	-0.513858	-0.021361
O39	O	-0.125673	-0.366850	0.021239
O40	O	0.021337	-0.513878	-0.125769
O41	O	-0.021281	-0.366830	0.125647
O42	O	0.021332	-0.633272	-0.125758
O43	O	-0.125678	-0.486244	0.021250
O44	O	0.125723	-0.633252	-0.021351
Zn45	Zn	0.000022	-0.578705	-0.000049
Zn46	Zn	0.000029	-0.421397	-0.000063
O47	O	-0.021286	-0.486224	0.125658
O48	O	-0.611861	0.104325	-0.021388
O49	O	-0.507471	-0.104455	0.021231
O50	O	-0.507458	-0.104488	-0.125785
O51	O	-0.611874	0.104358	0.125627
O52	O	-0.388054	-0.104491	-0.125790
O53	O	-0.388067	-0.104458	0.021226
O54	O	-0.492458	0.104323	-0.021393
Zn55	Zn	-0.421305	-0.000068	-0.000084
Zn56	Zn	-0.578624	-0.000065	-0.000078
O57	O	-0.492471	0.104355	0.125623
O58	O	0.125740	-1.104478	-0.492601
O59	O	-0.125666	-0.895666	-0.388186
O60	O	0.021333	-0.895665	-0.388184
O61	O	-0.021259	-1.104480	-0.492604
O62	O	0.021336	-0.895668	-0.507587
O63	O	-0.125662	-0.895670	-0.507590
O64	O	0.125743	-1.104481	-0.612004
Zn65	Zn	0.000041	-1.000076	-0.578755
Zn66	Zn	0.000036	-1.000072	-0.421436
O67	O	-0.021255	-1.104483	-0.612007
O68	O	-0.492482	-0.486240	-0.611947
O69	O	-0.388073	-0.633252	-0.507566
O70	O	-0.388080	-0.486241	-0.507549
O71	O	-0.492474	-0.633251	-0.611964
O72	O	-0.507485	-0.366833	-0.388135
O73	O	-0.507478	-0.513845	-0.388151
O74	O	-0.611886	-0.366832	-0.492533
Zn75	Zn	-0.578640	-0.421380	-0.421382
Zn76	Zn	-0.421319	-0.578705	-0.578716
O77	O	-0.611879	-0.513844	-0.492549
C78	C	-0.742991	-0.226029	0.386974
C79	C	-0.837691	-0.137423	0.431282
C80	C	-0.699388	-0.269025	0.430375
C81	C	-0.612985	-0.356038	0.256962
C82	C	-0.568682	-0.406439	0.162260
C83	C	-0.569580	-0.398837	0.300561
C84	C	-0.612987	-0.356036	0.386964
C85	C	-0.568686	-0.406435	0.431260
C86	C	-0.699387	-0.269027	0.300571
C87	C	0.031017	-0.774100	-0.387066
C88	C	0.024915	-0.862701	-0.431360
C89	C	0.031625	-0.731114	-0.430477
C90	C	0.031024	-0.644088	-0.257067
C91	C	0.024932	-0.593680	-0.162367
C92	C	0.031633	-0.601300	-0.300676
C93	C	0.031022	-0.644107	-0.387077
C94	C	0.024926	-0.593719	-0.431384
C95	C	0.031627	-0.731095	-0.300664
C96	C	-0.030971	-0.355995	0.386966
C97	C	-0.024876	-0.406382	0.431273
C98	C	-0.031574	-0.268988	0.430366
C99	C	-0.030974	-0.356014	0.256956
C100	C	-0.024881	-0.406422	0.162255
C101	C	-0.031576	-0.269007	0.300553
C102	C	-0.030965	-0.226002	0.386954
C103	C	-0.024863	-0.137402	0.431249
C104	C	-0.031582	-0.398802	0.300565
C105	C	-0.256934	-0.356141	-0.387100
C106	C	-0.162233	-0.406545	-0.431403
C107	C	-0.300533	-0.398945	-0.430504
C108	C	-0.386944	-0.226117	-0.257092
C109	C	-0.431252	-0.137499	-0.162391
C110	C	-0.430346	-0.269118	-0.300695
C111	C	-0.386935	-0.356140	-0.387097
C112	C	-0.431233	-0.406544	-0.431397
C113	C	-0.300542	-0.269119	-0.300697
O114	O	-0.021314	-0.366913	-0.492588
O115	O	0.021311	-0.513904	-0.388181
O116	O	-0.125701	-0.366928	-0.388190
O117	O	0.125699	-0.513889	-0.492578
O118	O	-0.125670	-0.486364	-0.507605
O119	O	0.021343	-0.633340	-0.507596
O120	O	-0.021282	-0.486349	-0.612002
Zn121	Zn	0.000035	-0.578808	-0.578759
Zn122	Zn	-0.000006	-0.421445	-0.421425
O123	O	0.125730	-0.633325	-0.611993
C124	C	-0.612996	0.356008	0.386935
C125	C	-0.568699	0.406412	0.431236
C126	C	-0.699398	0.398812	0.430342
C127	C	-0.612985	0.225984	0.256930
C128	C	-0.568677	0.137366	0.162229
C129	C	-0.699388	0.268986	0.300534
C130	C	-0.742997	0.356007	0.386937
C131	C	-0.837697	0.406411	0.431239
C132	C	-0.569585	0.268986	0.300533
H133	H	-0.265572	-0.233058	0.032521
H134	H	-0.734387	0.232993	0.265524
C135	C	-0.579427	-0.529063	-0.229163
C136	C	-0.526206	-0.506719	-0.253411
H137	H	-0.638582	-0.470699	-0.199995
H138	H	-0.576077	-0.583128	-0.280239
H139	H	-0.559724	-0.548500	-0.190797
H140	H	-0.545905	-0.487290	-0.291782
H141	H	-0.529561	-0.452637	-0.202327
H142	H	-0.734381	-0.531234	-0.032627
C143	C	-0.108450	-0.120598	0.579410
C144	C	-0.032881	-0.220419	0.526197
H145	H	-0.109254	-0.090625	0.638569
H146	H	-0.108179	-0.082513	0.559700
H147	H	-0.159166	-0.120961	0.576059
H148	H	0.017836	-0.220056	0.529543
H149	H	-0.033144	-0.258513	0.545914
C150	C	-0.420543	-0.808591	-0.108574
C151	C	-0.473732	-0.779641	-0.032999
H152	H	-0.361384	-0.838572	-0.109385
H153	H	-0.423893	-0.856319	-0.159285
H154	H	-0.440272	-0.750509	-0.108295
H155	H	-0.454007	-0.837725	-0.033281
H156	H	-0.470378	-0.731910	0.017725
C157	C	-0.770864	-0.808578	-0.108589
C158	C	-0.746632	-0.779639	-0.033010
H159	H	-0.800040	-0.838566	-0.109416
H160	H	-0.809206	-0.750500	-0.108308
H161	H	-0.719774	-0.856310	-0.159303
H162	H	-0.797722	-0.731902	0.017704
H163	H	-0.708288	-0.837725	-0.033283
C164	C	-0.770897	0.471017	0.579400
C165	C	-0.746645	0.493351	0.526173
H166	H	-0.800054	0.529382	0.638558
H167	H	-0.809261	0.451585	0.559704
H168	H	-0.719818	0.416945	0.576046
H169	H	-0.797725	0.547418	0.529522
H170	H	-0.708278	0.512797	0.545874
H171	H	0.032606	-0.531282	-0.265668
H172	H	-0.501371	-0.233048	0.032535
C173	C	-0.248864	-0.709261	-0.178158
C174	C	-0.253281	-0.779635	-0.253429
H175	H	-0.219666	-0.739248	-0.148995
H176	H	-0.217263	-0.689623	-0.194636
H177	H	-0.306672	-0.651193	-0.139790
H178	H	-0.195473	-0.837701	-0.291800
H179	H	-0.284882	-0.799288	-0.236953
C180	C	0.041875	-0.573018	0.248880
C181	C	-0.032901	-0.493318	0.253305
H182	H	0.041058	-0.631364	0.219706
H183	H	0.093124	-0.588182	0.217249
H184	H	0.042145	-0.553561	0.306688
H185	H	-0.033167	-0.512772	0.195496
H186	H	-0.084163	-0.478153	0.284935
C187	C	-0.420557	-0.471007	0.299931
C188	C	-0.473754	-0.493372	0.253307
H189	H	-0.361405	-0.529376	0.270763
H190	H	-0.423881	-0.416967	0.302901
H191	H	-0.440302	-0.451528	0.357744
H192	H	-0.454014	-0.512845	0.195495
H193	H	-0.470426	-0.547430	0.250327
C194	C	-0.041822	-0.709332	-0.531232
C195	C	0.032941	-0.779699	-0.526312
H196	H	-0.041004	-0.739325	-0.590395
H197	H	-0.093080	-0.689690	-0.495138
H198	H	-0.042076	-0.651265	-0.511512
H199	H	0.033192	-0.837764	-0.546025
H200	H	0.084212	-0.799356	-0.562419
H201	H	-0.501342	-0.233117	-0.265687
C202	C	-0.770809	-0.120627	0.579394
C203	C	-0.746593	-0.220436	0.526232
H204	H	-0.799938	-0.090630	0.638573
H205	H	-0.719726	-0.121017	0.575976
H206	H	-0.809198	-0.082542	0.559692
H207	H	-0.708198	-0.258523	0.545929
H208	H	-0.797683	-0.220053	0.529654
C209	C	-0.248862	-0.709325	-0.531252
C210	C	-0.253296	-0.779663	-0.526314
H211	H	-0.219669	-0.739340	-0.590417
H212	H	-0.306657	-0.651256	-0.511546
H213	H	-0.217240	-0.689690	-0.495152
H214	H	-0.284924	-0.799293	-0.562410
H215	H	-0.195490	-0.837751	-0.546031
C216	C	-0.229098	-0.470942	0.108463
C217	C	-0.253340	-0.493341	0.032890
H218	H	-0.199946	-0.529278	0.109292
H219	H	-0.190733	-0.451520	0.108171
H220	H	-0.280181	-0.416848	0.159181
H221	H	-0.202256	-0.547431	-0.017828
H222	H	-0.291707	-0.512778	0.033175
H223	H	-0.734395	-0.233037	0.265573
C224	C	0.108508	-0.879475	-0.300017
C225	C	0.032946	-0.779648	-0.253388
H226	H	0.109322	-0.909440	-0.270824
H227	H	0.108220	-0.917559	-0.357808
H228	H	0.159229	-0.879122	-0.303028
H229	H	-0.017775	-0.780002	-0.250383
H230	H	0.033227	-0.741554	-0.195582
H231	H	-0.032550	-0.233036	0.265537
H232	H	-0.265514	-0.468978	-0.501492
H233	H	-0.265534	-0.233135	-0.265694
C234	C	-0.420567	0.191461	0.299904
C235	C	-0.473746	0.220386	0.253267
H236	H	-0.361402	0.161449	0.270719
H237	H	-0.440286	0.249550	0.357696
H238	H	-0.423937	0.143754	0.302913
H239	H	-0.470381	0.268099	0.250264
H240	H	-0.454021	0.162290	0.195460
