data_functionalizedCrystal
_audit_creation_method	'MofGen! by Chris Wilmer'
_symmetry_space_group_name_H-M	'P1'
_symmetry_Int_Tables_number	1
_symmetry_cell_setting	triclinic
loop_
_symmetry_equiv_pos_as_xyz
  x,y,z
_cell_length_a	8.559649
_cell_length_b	13.339070
_cell_length_c	7.681481
_cell_angle_alpha	82.700297
_cell_angle_beta	94.913240
_cell_angle_gamma	92.703979
loop_
_atom_site_label
_atom_site_type_symbol
_atom_site_fract_x
_atom_site_fract_y
_atom_site_fract_z
O1	O	2.094922	-0.022785	-0.146401
O2	O	1.652108	0.027721	-0.146409
O3	O	1.822694	-0.140848	-0.146401
O4	O	1.924335	0.145783	-0.146409
O5	O	1.843672	-0.161637	0.146458
O6	O	1.673086	0.006931	0.146450
O7	O	2.115899	-0.043574	0.146458
Zn8	Zn	1.897823	-0.021623	0.192951
Zn9	Zn	1.870184	0.005769	-0.192903
O10	O	1.945313	0.124994	0.146449
C11	C	1.604764	0.021153	0.000020
C12	C	1.432434	0.032546	0.000017
C13	C	1.816014	-0.187598	0.000026
C14	C	1.764836	-0.295923	0.000018
C15	C	2.162764	-0.691632	0.000026
C16	C	2.210854	-0.589856	0.000043
C17	C	2.099353	-0.516368	0.000036
C18	C	1.939755	-0.544665	0.000013
C19	C	1.891662	-0.646451	0.000010
C20	C	1.828251	-0.471188	0.000020
C21	C	1.668653	-0.499485	-0.000003
C22	C	1.620567	-0.601262	-0.000008
C23	C	1.732068	-0.674750	-0.000001
C24	C	1.876344	-0.369401	0.000024
C25	C	1.605242	-0.324221	0.000008
C26	C	1.557152	-0.425997	-0.000010
C27	C	2.163243	-0.037007	0.000025
C28	C	2.335572	-0.048399	0.000017
C29	C	1.951993	0.171744	0.000019
C30	C	2.003170	0.280070	0.000015
N31	N	1.916697	-0.040318	0.456287
N32	N	1.851319	0.024455	-0.456238
H33	H	2.138518	-0.433499	0.000051
O34	O	1.771906	0.103447	0.454141
C35	C	1.753049	0.284513	0.397483
C36	C	1.843148	0.195148	0.499070
H37	H	1.810592	0.358674	0.433799
H38	H	1.755531	0.282161	0.249909
H39	H	1.626234	0.278852	0.433629
H40	H	1.969999	0.200750	0.463072
H41	H	1.840536	0.197530	0.646620
H42	H	1.384481	-0.126415	0.000010
H43	H	1.983457	-0.106431	0.531496
H44	H	1.383518	0.110568	0.000005
H45	H	2.006290	-0.346373	0.000043
H46	H	2.340798	-0.566825	0.000065
O47	O	2.271188	-0.762908	-0.000199
C48	C	2.477242	-0.821951	-0.151956
C49	C	2.354535	-0.741147	-0.151901
H50	H	2.544639	-0.804398	-0.274612
H51	H	2.562422	-0.821777	-0.029473
H52	H	2.415418	-0.899549	-0.151871
H53	H	2.416224	-0.663509	-0.152048
H54	H	2.269363	-0.741410	-0.274373
O55	O	1.496753	-0.252920	-0.000239
C56	C	1.268955	-0.172342	-0.152025
C57	C	1.391684	-0.253147	-0.151951
H58	H	1.183995	-0.172485	-0.274689
H59	H	1.201314	-0.189909	-0.029551
H60	H	1.330780	-0.094753	-0.151940
H61	H	1.329984	-0.330767	-0.152098
H62	H	1.459318	-0.235493	-0.274415
H63	H	1.692920	-0.757625	-0.000021
H64	H	1.490613	-0.624297	-0.000013
H65	H	1.427204	-0.449051	-0.000028
