data_functionalizedCrystal
_audit_creation_method	'MofGen! by Chris Wilmer'
_symmetry_space_group_name_H-M	'P1'
_symmetry_Int_Tables_number	1
_symmetry_cell_setting	triclinic
loop_
_symmetry_equiv_pos_as_xyz
  x,y,z
_cell_length_a	21.606444
_cell_length_b	12.970454
_cell_length_c	12.970454
_cell_angle_alpha	60.000396
_cell_angle_beta	90.000607
_cell_angle_gamma	60.000494
loop_
_atom_site_label
_atom_site_type_symbol
_atom_site_fract_x
_atom_site_fract_y
_atom_site_fract_z
Zr1	Zr	0.596237	1.128510	-0.135274
O2	O	0.497414	1.343598	-0.299899
O3	O	0.626532	0.913421	-0.084809
O4	O	0.626533	1.128509	-0.299897
O5	O	0.497412	1.128511	0.084856
O6	O	0.728385	1.128508	-0.299895
O7	O	0.497412	1.128510	-0.084811
O8	O	0.728383	0.743756	0.084858
O9	O	0.497414	1.513264	-0.299897
O10	O	0.715463	1.001890	-0.063283
O11	O	0.639452	1.001891	0.063335
O12	O	0.639453	1.255129	-0.189903
O13	O	0.563442	1.255130	-0.063285
Zr14	Zr	0.758678	1.128511	0.135328
Zr15	Zr	0.758679	1.128509	-0.135270
Zr16	Zr	0.596236	1.128511	0.135324
Zr17	Zr	0.596238	1.399107	-0.135272
Zr18	Zr	0.758678	0.857913	0.135326
O19	O	0.728384	1.343599	0.084863
O20	O	0.728385	1.343597	-0.299893
O21	O	0.497412	1.343600	0.084858
O22	O	0.857502	0.913422	0.299953
O23	O	0.857503	0.913420	-0.084803
O24	O	0.626530	0.913423	0.299947
O25	O	0.857504	1.128509	-0.084802
O26	O	0.728382	1.128512	0.299951
O27	O	0.626531	1.128512	0.299949
O28	O	0.857503	1.128510	0.084865
O29	O	0.626534	1.513264	-0.299894
O30	O	0.728382	0.743757	0.299948
O31	O	0.857501	0.743756	0.299951
O32	O	0.857502	0.743755	0.084862
O33	O	0.497413	1.513265	-0.084808
O34	O	0.626533	1.513265	-0.084804
O35	O	0.715462	1.001891	0.189957
O36	O	0.791474	1.001890	0.063339
O37	O	0.715464	1.255130	-0.063281
O38	O	0.639452	1.255130	0.063337
C39	C	0.677457	0.790034	0.000024
C40	C	0.677457	0.675158	0.000023
C41	C	0.474267	1.128510	0.000022
C42	C	0.405306	1.128511	0.000020
C43	C	0.372909	1.128514	-0.093454
C44	C	0.308115	1.128507	-0.093449
C45	C	0.275717	1.128506	0.000025
C46	C	0.308121	1.128498	0.093508
C47	C	0.372916	1.128495	0.093508
C48	C	0.046807	1.128509	0.093513
C49	C	-0.017995	1.128516	0.093504
C50	C	-0.017995	1.128521	-0.093445
C51	C	0.046801	1.128518	-0.093445
C52	C	0.079201	1.128502	0.000042
C53	C	0.149459	1.128507	0.000037
C54	C	0.205457	1.128512	0.000025
C55	C	0.880648	1.128510	0.000032
C56	C	0.949609	1.128510	0.000034
C57	C	0.677459	1.128508	-0.338450
C58	C	0.677460	1.128508	-0.453327
C59	C	0.677458	1.466986	0.000030
C60	C	0.677459	1.581862	0.000031
C61	C	0.677456	1.128512	0.338505
C62	C	0.677456	1.128513	0.453381
C63	C	0.880647	0.790033	0.000029
C64	C	0.949608	0.675158	0.000030
C65	C	0.677456	0.790036	0.338502
C66	C	0.677455	0.675160	0.453377
C67	C	0.880646	0.790035	0.338507
C68	C	0.949606	0.675160	0.453384
C69	C	0.474270	1.466985	-0.338453
C70	C	0.405309	1.581860	-0.453330
C71	C	0.474268	1.466987	0.000025
C72	C	0.405307	1.581863	0.000024
C73	C	0.677460	1.466985	-0.338448
C74	C	0.677461	1.581860	-0.453323
C75	C	0.942316	0.621210	-0.066076
C76	C	1.007106	0.513287	-0.066101
C77	C	1.079187	0.459306	-0.000011
C78	C	1.086477	0.513264	0.066098
C79	C	1.021688	0.621192	0.066114
C80	C	1.021675	0.621213	0.441238
C81	C	1.086476	0.513290	0.549167
C82	C	1.079208	0.459309	0.669240
C83	C	1.007132	0.513267	0.681384
C84	C	0.942332	0.621195	0.573456
C85	C	0.333241	1.635821	-0.441184
C86	C	0.268439	1.743777	-0.549113
C87	C	0.275708	1.797763	-0.669186
C88	C	0.347784	1.743798	-0.681330
C89	C	0.412584	1.635852	-0.573402
C90	C	0.412599	1.635821	0.066119
C91	C	0.347810	1.743774	0.066114
C92	C	0.275729	1.797759	0.000020
C93	C	0.268438	1.743796	-0.066083
C94	C	0.333227	1.635853	-0.066085
H95	H	0.399280	1.128524	-0.169576
O96	O	0.355612	1.802032	-0.810846
H97	H	0.387068	1.851224	-0.821849
O98	O	0.273176	1.128495	0.194327
H99	H	0.315277	1.029644	0.288569
O100	O	0.325390	1.577601	-0.311683
H101	H	0.353024	1.598294	-0.259336
O102	O	0.190689	1.802032	-0.137361
H103	H	0.196494	1.746392	-0.183336
H104	H	0.471263	1.591918	-0.583307
H105	H	1.001225	0.469300	0.779162
O106	O	0.205807	1.914199	-0.785581
H107	H	0.205834	1.872799	-0.842595
O108	O	0.490340	1.577627	0.137389
H109	H	0.484514	1.633316	0.183324
O110	O	0.864578	0.679426	-0.137377
H111	H	0.833163	0.798494	-0.210416
O112	O	1.029531	0.679422	0.311741
H113	H	0.972369	0.763530	0.238718
O114	O	-0.052933	1.128483	0.194343
H115	H	-0.019511	1.128449	0.259362
O116	O	0.205851	1.914144	0.000067
H117	H	0.223039	1.942563	0.057158
H118	H	1.145158	0.469369	0.539257
O119	O	0.999235	0.455089	-0.137394
H120	H	0.938226	0.510745	-0.183323
O121	O	0.190705	1.801944	-0.536002
H122	H	0.196544	1.746236	-0.434373
H123	H	0.883653	0.665105	0.583363
O124	O	0.325359	1.577644	-0.137363
H125	H	0.264350	1.633315	-0.183306
H126	H	0.281737	1.128509	-0.169562
O127	O	1.149102	0.342885	0.785646
H128	H	1.200435	0.314436	0.757014
H129	H	0.073175	1.128525	-0.169564
H130	H	-0.044380	1.128527	-0.169563
H131	H	1.145174	0.469296	0.119905
H132	H	0.073181	1.128500	0.169631
O133	O	1.029562	0.679355	0.137436
H134	H	1.001942	0.658628	0.210492
H135	H	1.131936	0.371422	-0.000033
O136	O	0.407867	1.128486	0.194328
H137	H	0.365771	1.227330	0.189731
H138	H	0.353761	1.787693	0.119948
