data_functionalizedCrystal
_audit_creation_method	'MofGen! by Chris Wilmer'
_symmetry_space_group_name_H-M	'P1'
_symmetry_Int_Tables_number	1
_symmetry_cell_setting	triclinic
loop_
_symmetry_equiv_pos_as_xyz
  x,y,z
_cell_length_a	12.827893
_cell_length_b	16.120484
_cell_length_c	12.827885
_cell_angle_alpha	87.136062
_cell_angle_beta	90.019462
_cell_angle_gamma	92.925431
loop_
_atom_site_label
_atom_site_type_symbol
_atom_site_fract_x
_atom_site_fract_y
_atom_site_fract_z
Zn1	Zn	1.576506	-0.331866	0.611895
Zn2	Zn	1.909839	0.001467	0.945229
Zn3	Zn	2.243172	0.334800	1.278562
Zn4	Zn	1.567506	-0.471301	0.445998
Zn5	Zn	1.900840	-0.137968	0.779332
Zn6	Zn	2.234173	0.195365	1.112665
Zn7	Zn	1.401744	-0.331907	0.437171
Zn8	Zn	1.735077	0.001426	0.770505
Zn9	Zn	2.068411	0.334760	1.103838
Zn10	Zn	1.392843	-0.471239	0.620694
Zn11	Zn	1.726177	-0.137906	0.954028
Zn12	Zn	2.059510	0.195427	1.287361
O13	O	1.484650	-0.401579	0.528940
O14	O	1.817983	-0.068245	0.862273
O15	O	2.151316	0.265088	1.195607
O16	O	1.721547	-0.350372	0.589900
O17	O	2.054881	-0.017038	0.923234
O18	O	2.388214	0.316295	1.256567
O19	O	1.545476	-0.452853	0.298594
O20	O	1.878810	-0.119520	0.631927
O21	O	2.212143	0.213813	0.965261
O22	O	1.432418	-0.215236	0.452972
O23	O	1.765751	0.118097	0.786306
O24	O	2.099084	0.451430	1.119639
O25	O	1.714936	-0.452814	0.468017
O26	O	2.048269	-0.119481	0.801350
O27	O	2.381602	0.213853	1.134683
O28	O	1.560814	-0.215206	0.581341
O29	O	1.894148	0.118127	0.914675
O30	O	2.227481	0.451460	1.248008
O31	O	1.423691	-0.350441	0.292109
O32	O	1.757025	-0.017107	0.625442
O33	O	2.090358	0.316226	0.958776
O34	O	1.254328	-0.350381	0.461505
O35	O	1.587661	-0.017047	0.794838
O36	O	1.920994	0.316286	1.128171
O37	O	1.417248	-0.452708	0.765761
O38	O	1.750581	-0.119375	1.099094
O39	O	2.083915	0.213958	1.432427
O40	O	1.247789	-0.452748	0.596338
O41	O	1.581122	-0.119414	0.929671
O42	O	1.914455	0.213919	1.263005
O43	O	1.552184	-0.350311	0.759296
O44	O	1.885517	-0.016978	1.092629
O45	O	2.218851	0.316355	1.425963
O46	O	1.536846	-0.587959	0.476549
O47	O	1.870179	-0.254625	0.809882
O48	O	2.203512	0.078708	1.143215
O49	O	1.408522	-0.587913	0.604897
O50	O	1.741855	-0.254580	0.938231
O51	O	2.075188	0.078754	1.271564
C52	C	1.213141	-0.401562	0.528919
C53	C	1.546474	-0.068229	0.862252
C54	C	1.879808	0.265104	1.195586
C55	C	1.096987	-0.401576	0.528936
C56	C	1.430320	-0.068242	0.862269
C57	C	1.763654	0.265091	1.195603
C58	C	1.470770	-0.618186	0.542658
C59	C	1.804103	-0.284852	0.875992
C60	C	2.137436	0.048481	1.209325
C61	C	1.464927	-0.710851	0.548562
C62	C	1.798261	-0.377518	0.881896
C63	C	2.131594	-0.044185	1.215229
C64	C	1.041989	-0.452309	0.595563
C65	C	1.375322	-0.118976	0.928896
C66	C	1.708656	0.214357	1.262230
C67	C	0.921938	-0.452324	0.595582
C68	C	1.255271	-0.118991	0.928916
C69	C	1.588604	0.214343	1.262249
C70	C	1.454267	-0.880512	0.559362
C71	C	1.787600	-0.547179	0.892696
C72	C	2.120933	-0.213846	1.226029
C73	C	1.515220	-0.921804	0.498534
C74	C	1.848554	-0.588471	0.831868
C75	C	2.181887	-0.255138	1.165201
C76	C	1.509289	-1.016209	0.504544
C77	C	1.842622	-0.682876	0.837877
C78	C	2.175955	-0.349543	1.171210
C79	C	1.460197	-0.786099	0.553355
C80	C	1.793530	-0.452765	0.886688
C81	C	2.126864	-0.119432	1.220021
C82	C	1.757219	-0.401595	0.528962
C83	C	2.090552	-0.068262	0.862295
C84	C	2.423886	0.265071	1.195628
C85	C	1.873372	-0.401602	0.528971
C86	C	2.206705	-0.068269	0.862304
C87	C	2.540038	0.265064	1.195637
C88	C	1.484727	-0.401498	0.801505
C89	C	1.818060	-0.068165	1.134838
C90	C	2.151394	0.265168	1.468172
C91	C	1.484760	-0.401464	0.917656
C92	C	1.818093	-0.068131	1.250990
C93	C	2.151426	0.265202	1.584323
C94	C	1.498613	-0.184125	0.515191
C95	C	1.831946	0.149208	0.848524
C96	C	2.165279	0.482541	1.181857
C97	C	1.504563	-0.091460	0.509332
C98	C	1.837896	0.241873	0.842665
C99	C	2.171230	0.575207	1.175998
C100	C	1.484637	-0.401598	0.257431
C101	C	1.817970	-0.068265	0.590765
C102	C	2.151304	0.265069	0.924098
C103	C	1.484822	-0.401397	0.141266
C104	C	1.818155	-0.068064	0.474599
C105	C	2.151488	0.265269	0.807933
C106	C	1.424518	-0.350777	0.966231
C107	C	1.757851	-0.017444	1.299565
C108	C	2.091184	0.315889	1.632898
C109	C	1.424550	-0.350741	1.086279
C110	C	1.757884	-0.017408	1.419613
C111	C	2.091217	0.315926	1.752946
H112	H	1.083781	-0.495730	0.652594
H113	H	1.417114	-0.162397	0.985927
H114	H	1.750448	0.170936	1.319261
H115	H	1.055196	-0.358148	0.471913
H116	H	1.388529	-0.024815	0.805246
H117	H	1.721862	0.308518	1.138579
H118	H	1.372980	-0.307342	1.128065
H119	H	1.706313	0.025991	1.461398
H120	H	2.039646	0.359324	1.794732
O121	O	1.379238	-0.927590	0.634316
O122	O	1.712571	-0.594256	0.967649
O123	O	2.045904	-0.260923	1.300983
H124	H	1.298256	-0.910999	0.615280
H125	H	1.631590	-0.577665	0.948613
H126	H	1.964923	-0.244332	1.281946
O127	O	1.590243	-0.874719	0.423571
O128	O	1.923577	-0.541386	0.756905
O129	O	2.256910	-0.208052	1.090238
H130	H	1.633985	-0.919533	0.379941
H131	H	1.967318	-0.586199	0.713274
H132	H	2.300651	-0.252866	1.046608
H133	H	1.372914	-0.307413	0.918943
H134	H	1.706247	0.025920	1.252277
H135	H	2.039580	0.359254	1.585610
O136	O	1.553154	-0.458885	1.085941
O137	O	1.886487	-0.125551	1.419274
O138	O	2.219821	0.207782	1.752608
H139	H	1.503606	-0.501284	1.038895
H140	H	1.836940	-0.167951	1.372228
H141	H	2.170273	0.165383	1.705561
O142	O	0.859318	-0.509861	0.671151
O143	O	1.192651	-0.176528	1.004485
O144	O	1.525984	0.156806	1.337818
H145	H	0.774852	-0.500839	0.659314
H146	H	1.108186	-0.167505	0.992647
H147	H	1.441519	0.165828	1.325981
O148	O	0.935979	-0.344062	0.453396
O149	O	1.269313	-0.010728	0.786729
O150	O	1.602646	0.322605	1.120062
H151	H	0.988433	-0.301712	0.497604
H152	H	1.321766	0.031621	0.830937
H153	H	1.655100	0.364955	1.164271
O154	O	1.553113	-0.458921	0.980274
O155	O	1.886447	-0.125587	1.313608
O156	O	2.219780	0.207746	1.646941
H157	H	1.608656	-0.421563	1.027640
H158	H	1.941989	-0.088230	1.360973
H159	H	2.275323	0.245104	1.694307
