data_functionalizedCrystal
_audit_creation_method	'MofGen! by Chris Wilmer'
_symmetry_space_group_name_H-M	'P1'
_symmetry_Int_Tables_number	1
_symmetry_cell_setting	triclinic
loop_
_symmetry_equiv_pos_as_xyz
  x,y,z
_cell_length_a	34.408637
_cell_length_b	34.407814
_cell_length_c	34.404193
_cell_angle_alpha	60.004510
_cell_angle_beta	60.009006
_cell_angle_gamma	59.994604
loop_
_atom_site_label
_atom_site_type_symbol
_atom_site_fract_x
_atom_site_fract_y
_atom_site_fract_z
O1	O	0.053973	-0.567860	0.474801
O2	O	0.020377	-0.442124	0.382567
O3	O	0.100004	-0.521670	0.382483
O4	O	-0.025653	-0.488314	0.474886
O5	O	0.126426	-0.495253	0.408816
O6	O	0.046800	-0.415707	0.408900
O7	O	0.080396	-0.541443	0.501134
Zn8	Zn	0.067793	-0.474381	0.459198
Zn9	Zn	0.032980	-0.509186	0.424503
O10	O	0.000769	-0.461897	0.501219
N11	N	0.091552	-0.450631	0.482879
N12	N	0.009225	-0.532940	0.400823
C13	C	0.142848	-0.268847	0.534081
C14	C	0.142979	-0.399386	0.664559
C15	C	0.142862	-0.399365	0.534081
C16	C	0.273409	-0.399338	0.533986
C17	C	0.157225	-0.311914	0.548422
C18	C	0.157300	-0.385019	0.621491
C19	C	0.230339	-0.384991	0.548370
C20	C	0.157235	-0.385007	0.548422
C21	C	0.124548	-0.214028	0.515827
C22	C	0.124571	-0.417639	0.515827
C23	C	0.175526	-0.366733	0.566676
C24	C	0.353121	-0.385580	0.491988
C25	C	0.402952	-0.402180	0.475348
C26	C	0.402981	-0.482812	0.506096
C27	C	0.353151	-0.466211	0.522737
C28	C	0.136544	-0.189099	0.466839
C29	C	0.119905	-0.139265	0.450247
C30	C	0.079280	-0.139291	0.531632
C31	C	0.095918	-0.189125	0.548224
C32	C	0.075577	-0.405615	0.527900
C33	C	0.058953	-0.422228	0.511301
C34	C	0.140315	-0.462889	0.470566
C35	C	0.156941	-0.446276	0.487159
C36	C	0.075772	-0.405653	0.744326
C37	C	0.059206	-0.422280	0.794159
C38	C	0.140607	-0.462951	0.794094
C39	C	0.157172	-0.446325	0.744260
C40	C	0.124753	-0.417674	0.719377
C41	C	0.328223	-0.417595	0.515681
C42	C	-0.172390	-0.583988	0.349141
C43	C	-0.041751	-0.584138	0.218783
C44	C	-0.041941	-0.584130	0.349402
C45	C	-0.041957	-0.714607	0.349338
C46	C	-0.129326	-0.598388	0.334853
C47	C	-0.056165	-0.598473	0.261852
C48	C	-0.056282	-0.671535	0.334962
C49	C	-0.056272	-0.598469	0.334999
C50	C	-0.227205	-0.565659	0.367327
C51	C	-0.023703	-0.565882	0.367734
C52	C	-0.074511	-0.616717	0.316667
C53	C	-0.055754	-0.794298	0.391257
C54	C	-0.039181	-0.844132	0.407888
C55	C	0.041447	-0.844215	0.377269
C56	C	0.024873	-0.794381	0.360637
C57	C	-0.252183	-0.577666	0.416302
C58	C	-0.302014	-0.561001	0.432833
C59	C	-0.301886	-0.520329	0.351410
C60	C	-0.252055	-0.536994	0.334880
C61	C	-0.035709	-0.516892	0.355682
C62	C	-0.019129	-0.500308	0.372353
C63	C	0.021465	-0.581700	0.413115
C64	C	0.004884	-0.598286	0.396450
C65	C	-0.035389	-0.516907	0.139026
C66	C	-0.018707	-0.500324	0.089193
C67	C	0.021949	-0.581721	0.089240
C68	C	0.005268	-0.598303	0.139074
C69	C	-0.023402	-0.565894	0.163965
C70	C	-0.023728	-0.769425	0.367633
N71	N	0.427173	-0.450553	0.482630
O72	O	0.589997	-0.458460	0.365361
O73	O	0.590185	-0.550997	0.490963
O74	O	0.590104	-0.550786	0.411309
O75	O	0.590077	-0.458671	0.445016
O76	O	0.510940	-0.524462	0.437777
O77	O	0.511020	-0.524674	0.517432
O78	O	0.510832	-0.432136	0.391830
Zn79	Zn	0.498357	-0.474225	0.458833
Zn80	Zn	0.602660	-0.508908	0.423960
O81	O	0.510913	-0.432348	0.471484
N82	N	0.673844	-0.532580	0.400158
N83	N	0.091520	-0.115070	0.482873
O84	O	-0.025663	0.047841	0.474857
O85	O	0.099940	0.047877	0.382299
O86	O	0.020247	0.047844	0.382560
O87	O	0.054030	0.047874	0.474596
O88	O	0.046674	-0.031326	0.408942
O89	O	0.126367	-0.031293	0.408680
O90	O	0.000764	-0.031329	0.501238
Zn91	Zn	0.067761	-0.043881	0.459148
Zn92	Zn	0.032943	0.060429	0.424389
O93	O	0.080457	-0.031296	0.500977
N94	N	0.009178	0.131618	0.400665
N95	N	0.091852	-0.450680	0.818332
O96	O	0.083862	-0.567845	0.981235
O97	O	-0.008657	-0.442198	0.981276
O98	O	-0.008441	-0.521875	0.981252
O99	O	0.083646	-0.488168	0.981258
O100	O	0.017919	-0.495468	0.902085
O101	O	0.017703	-0.415791	0.902109
O102	O	0.110222	-0.541438	0.902067
Zn103	Zn	0.068148	-0.474422	0.889518
Zn104	Zn	0.033417	-0.509214	0.993825
O105	O	0.110006	-0.461761	0.902091
N106	N	0.009712	-0.532961	1.065011
C107	C	0.030439	-0.413071	0.383027
C108	C	0.129046	-0.511580	0.382922
C109	C	0.070334	-0.570496	0.500675
C110	C	-0.028274	-0.471987	0.500780
C111	C	0.550625	-0.550579	0.520021
C112	C	0.550527	-0.550317	0.421379
C113	C	0.550389	-0.432554	0.362773
C114	C	0.550491	-0.432816	0.461414
C115	C	0.128944	0.008394	0.382712
C116	C	0.030287	0.008256	0.383068
C117	C	-0.028273	0.008252	0.500793
C118	C	0.070417	0.008292	0.500470
C119	C	-0.008218	-0.413165	0.941698
C120	C	-0.007945	-0.511830	0.941653
C121	C	0.109783	-0.570471	0.941646
C122	C	0.109516	-0.471800	0.941673
H123	H	0.049370	-0.382321	0.724071
H124	H	0.138447	-0.464586	0.941669
C125	C	0.020517	0.008246	0.344003
C126	C	0.023878	0.049358	0.296120
C127	C	0.014108	0.049348	0.257055
C128	C	0.000977	0.008226	0.265873
C129	C	-0.002384	-0.032890	0.313758
C130	C	0.007385	-0.032880	0.352823
H131	H	0.033599	0.079802	0.289590
H132	H	0.016597	0.079785	0.221607
H133	H	-0.006255	0.008218	0.236955
H134	H	-0.012105	-0.063334	0.320287
H135	H	0.004897	-0.063317	0.388270
H136	H	-0.064365	-0.464880	0.529794
C137	C	0.550695	-0.589828	0.568753
C138	C	0.509624	-0.610349	0.599432
C139	C	0.509694	-0.649598	0.648163
C140	C	0.550835	-0.668326	0.666216
C141	C	0.591909	-0.647804	0.635537
C142	C	0.591839	-0.608555	0.586805
H143	H	0.479167	-0.596486	0.586068
H144	H	0.479288	-0.664789	0.670874
H145	H	0.550887	-0.697380	0.702290
H146	H	0.622367	-0.661667	0.648900
H147	H	0.622245	-0.593364	0.564094
C148	C	0.020744	-0.364278	0.343888
C149	C	0.051593	-0.333534	0.323370
C150	C	0.041899	-0.284741	0.284231
C151	C	0.001356	-0.266692	0.265610
C152	C	-0.029496	-0.297437	0.286128
C153	C	-0.019801	-0.346231	0.325267
H154	H	0.081608	-0.346894	0.337154
H155	H	0.064737	-0.261981	0.269043
H156	H	-0.005821	-0.230573	0.236638
H157	H	-0.059510	-0.284077	0.272344
H158	H	-0.042640	-0.368990	0.340456
H159	H	0.550540	-0.579254	0.414165
H160	H	0.019320	-0.412483	0.814467
H161	H	0.550329	-0.403500	0.326702
H162	H	0.014660	-0.638178	0.406265
H163	H	0.550485	-0.403881	0.468626
C164	C	-0.077002	0.008240	0.540049
C165	C	-0.116247	0.008223	0.530567
C166	C	-0.164976	0.008211	0.569823
C167	C	-0.174459	0.008216	0.618561
C168	C	-0.135212	0.008234	0.628046
C169	C	-0.086484	0.008246	0.588790
H170	H	-0.109228	0.008219	0.494486
H171	H	-0.194029	0.008198	0.562802
H172	H	-0.210531	0.008208	0.647621
H173	H	-0.142231	0.008238	0.664127
H174	H	-0.057431	0.008258	0.595811
C175	C	0.177571	0.008708	0.343356
C176	C	0.216766	0.008876	0.352788
C177	C	0.265393	0.009190	0.313432
C178	C	0.274826	0.009335	0.264644
C179	C	0.235630	0.009167	0.255209
C180	C	0.187002	0.008853	0.294565
H181	H	0.209785	0.008768	0.388906
H182	H	0.294409	0.009314	0.320416
H183	H	0.310823	0.009568	0.235510
H184	H	0.242611	0.009275	0.219091
H185	H	0.157987	0.008729	0.287581
H186	H	-0.028907	-0.460416	0.362542
C187	C	-0.031903	-0.446435	0.061763
C188	C	-0.017425	-0.415172	0.068666
C189	C	-0.030619	-0.361282	0.041237
C190	C	-0.058291	-0.338656	0.006904
C191	C	-0.072770	-0.369920	-0.000000
C192	C	-0.059576	-0.423809	0.027429
H193	H	0.003060	-0.431921	0.094082
H194	H	-0.019901	-0.338139	0.046348
H195	H	-0.068058	-0.298764	-0.013401
H196	H	-0.093256	-0.353171	-0.025417
H197	H	-0.070295	-0.446952	0.022318
H198	H	0.081021	-0.864532	0.371574
C199	C	0.080188	0.008299	0.539536
C200	C	0.129011	0.008316	0.529765
C201	C	0.138781	0.008324	0.568831
C202	C	0.099729	0.008315	0.617667
C203	C	0.050903	0.008298	0.627439
C204	C	0.041132	0.008290	0.588374
H205	H	0.157923	0.008323	0.493612
H206	H	0.174926	0.008337	0.561596
H207	H	0.106962	0.008321	0.646586
H208	H	0.021991	0.008291	0.663593
H209	H	0.004988	0.008278	0.595608
C210	C	-0.047461	-0.364417	0.941714
C211	C	-0.037953	-0.325187	0.941726
C212	C	-0.077196	-0.276439	0.941742
C213	C	-0.125947	-0.266922	0.941748
C214	C	-0.135456	-0.306153	0.941736
C215	C	-0.096214	-0.354901	0.941719
H216	H	-0.001863	-0.332231	0.941722
H217	H	-0.070156	-0.247398	0.941751
H218	H	-0.154996	-0.230836	0.941760
H219	H	-0.171546	-0.299109	0.941740
H220	H	-0.103254	-0.383943	0.941711
H221	H	0.166679	-0.486211	0.447227
C222	C	-0.047014	-0.521552	0.941604
C223	C	-0.037259	-0.570364	0.941566
C224	C	-0.076328	-0.580087	0.941517
C225	C	-0.125150	-0.540998	0.941507
C226	C	-0.134907	-0.492182	0.941546
C227	C	-0.095839	-0.482460	0.941594
H228	H	-0.001116	-0.599303	0.941573
H229	H	-0.069105	-0.616223	0.941489
H230	H	-0.154071	-0.548195	0.941471
H231	H	-0.171050	-0.463243	0.941538
H232	H	-0.103061	-0.446323	0.941623
C233	C	0.080027	-0.619290	0.539812
C234	C	0.076619	-0.622602	0.587679
C235	C	0.086312	-0.671397	0.626817
C236	C	0.099414	-0.716878	0.618088
C237	C	0.102822	-0.713567	0.570219
C238	C	0.093129	-0.664773	0.531081
H239	H	0.066920	-0.588933	0.594143
H240	H	0.083789	-0.673847	0.662253
H241	H	0.106589	-0.752999	0.647060
H242	H	0.112521	-0.747237	0.563755
H243	H	0.095653	-0.662323	0.495645
C244	C	0.149026	-0.619218	0.941629
C245	C	0.139518	-0.658449	0.941618
C246	C	0.178761	-0.707197	0.941601
C247	C	0.227511	-0.716714	0.941596
C248	C	0.237021	-0.677483	0.941608
C249	C	0.197779	-0.628735	0.941624
H250	H	0.103428	-0.651404	0.941622
H251	H	0.171721	-0.736238	0.941593
H252	H	0.256561	-0.752800	0.941584
H253	H	0.273111	-0.684527	0.941604
H254	H	0.204819	-0.599693	0.941632
H255	H	0.167007	-0.486271	0.814352
H256	H	0.049217	-0.382297	0.551240
C257	C	0.211055	-0.459548	0.716818
C258	C	0.246712	-0.491056	0.744190
C259	C	0.300594	-0.504279	0.716749
C260	C	0.318819	-0.485993	0.661936
C261	C	0.283162	-0.454483	0.634561
C262	C	0.229280	-0.441260	0.662002
H263	H	0.233221	-0.504594	0.784769
H264	H	0.326990	-0.527604	0.737014
H265	H	0.358706	-0.495781	0.641622
H266	H	0.296653	-0.440945	0.593982
H267	H	0.202884	-0.417934	0.641736
C268	C	0.082722	-0.216544	0.602112
C269	C	0.097247	-0.209693	0.633379
C270	C	0.084048	-0.237113	0.687268
C271	C	0.056324	-0.271383	0.709891
C272	C	0.041798	-0.278236	0.678624
C273	C	0.054996	-0.250817	0.624734
H274	H	0.117771	-0.184322	0.616632
H275	H	0.094802	-0.232039	0.710414
H276	H	0.046554	-0.291681	0.749784
H277	H	0.021273	-0.303607	0.695371
H278	H	0.044243	-0.255890	0.601588
H279	H	0.019058	-0.412426	0.521121
H280	H	0.332881	-0.492283	0.542031
C281	C	0.210836	-0.459502	0.473882
C282	C	0.246441	-0.491002	0.442350
C283	C	0.300336	-0.504230	0.429073
C284	C	0.318625	-0.485957	0.447328
C285	C	0.283019	-0.454455	0.478861
C286	C	0.229124	-0.441228	0.492139
H287	H	0.232903	-0.504530	0.428835
H288	H	0.326694	-0.527550	0.405730
H289	H	0.358521	-0.495749	0.437499
H290	H	0.296557	-0.440927	0.492376
H291	H	0.202766	-0.417908	0.515482
H292	H	0.423225	-0.376108	0.456057
C293	C	0.430403	-0.536289	0.513854
C294	C	0.403016	-0.571507	0.539917
C295	C	0.430441	-0.624984	0.547675
C296	C	0.485252	-0.643244	0.529370
C297	C	0.512642	-0.608025	0.503306
C298	C	0.485218	-0.554547	0.495548
H299	H	0.362438	-0.557991	0.553469
H300	H	0.410165	-0.651056	0.566970
H301	H	0.505554	-0.682831	0.535113
H302	H	0.553220	-0.621541	0.489754
H303	H	0.505494	-0.528476	0.476253
H304	H	0.332825	-0.345993	0.486242
H305	H	-0.231721	-0.527215	0.295000
H306	H	0.159856	-0.209371	0.440456
H307	H	0.129672	-0.118967	0.410356
C308	C	0.177800	-0.521178	0.343720
C309	C	0.208490	-0.490274	0.323200
C310	C	0.257244	-0.499872	0.283998
C311	C	0.275308	-0.540374	0.265316
C312	C	0.244618	-0.571281	0.285836
C313	C	0.195864	-0.561683	0.325038
H314	H	0.195118	-0.460290	0.337030
H315	H	0.279963	-0.476993	0.268808
H316	H	0.311399	-0.547479	0.236297
H317	H	0.257989	-0.601265	0.272007
H318	H	0.173145	-0.584562	0.340228
C319	C	0.047790	-0.111896	0.567268
C320	C	0.034602	-0.139317	0.621155
C321	C	0.003110	-0.111924	0.656792
C322	C	-0.015193	-0.057108	0.638543
C323	C	-0.002005	-0.029683	0.584654
C324	C	0.029487	-0.057077	0.549016
H325	H	0.048151	-0.179898	0.634667
H326	H	-0.006652	-0.132226	0.696685
H327	H	-0.038504	-0.036830	0.664924
H328	H	-0.015554	0.010897	0.571142
H329	H	0.039249	-0.036775	0.509124
H330	H	0.045284	-0.608113	0.068976
C331	C	-0.066928	-0.481255	0.166404
C332	C	-0.080113	-0.427369	0.138969
C333	C	-0.111650	-0.391718	0.166347
C334	C	-0.130001	-0.409953	0.221161
C335	C	-0.116815	-0.463842	0.248598
C336	C	-0.085279	-0.499493	0.221220
H337	H	-0.066529	-0.413868	0.098390
H338	H	-0.121410	-0.351826	0.146036
H339	H	-0.153346	-0.383562	0.241428
H340	H	-0.130400	-0.477343	0.289177
H341	H	-0.075519	-0.539385	0.241531
H342	H	-0.058984	-0.490504	0.332300
C343	C	0.018453	-0.652193	0.166507
C344	C	0.071065	-0.683528	0.159741
C345	C	0.084249	-0.737417	0.187173
C346	C	0.044821	-0.759971	0.221370
C347	C	-0.007795	-0.728636	0.228137
C348	C	-0.020979	-0.674747	0.200705
H349	H	0.100256	-0.666832	0.134425
H350	H	0.123199	-0.760613	0.182163
H351	H	0.054581	-0.799863	0.241676
H352	H	-0.036985	-0.745332	0.253453
H353	H	-0.059928	-0.651551	0.205715
C354	C	0.060105	-0.767022	0.334648
C355	C	0.113564	-0.794479	0.326957
C356	C	0.148798	-0.767120	0.300968
C357	C	0.130574	-0.712304	0.282670
C358	C	0.077112	-0.684845	0.290361
C359	C	0.041878	-0.712204	0.316350
H360	H	0.127058	-0.835059	0.340503
H361	H	0.188374	-0.787448	0.295275
H362	H	0.156656	-0.692052	0.263431
H363	H	0.063618	-0.644264	0.276815
H364	H	0.002302	-0.691876	0.322043
H365	H	0.044746	-0.608091	0.436494
C366	C	-0.074413	-0.871495	0.433879
C367	C	-0.115253	-0.864601	0.480128
C368	C	-0.150485	-0.891964	0.506123
C369	C	-0.144876	-0.926221	0.485870
C370	C	-0.104033	-0.933117	0.439619
C371	C	-0.068802	-0.905754	0.413624
H372	H	-0.119407	-0.839240	0.495123
H373	H	-0.180719	-0.886859	0.540361
H374	H	-0.170956	-0.946477	0.505113
H375	H	-0.099879	-0.958478	0.424624
H376	H	-0.038568	-0.910859	0.379386
H377	H	-0.095331	-0.773979	0.396956
H378	H	-0.231954	-0.601008	0.442726
H379	H	-0.322118	-0.496994	0.324987
H380	H	-0.322352	-0.570775	0.472713
