data_functionalizedCrystal
_audit_creation_method	'MofGen! by Chris Wilmer'
_symmetry_space_group_name_H-M	'P1'
_symmetry_Int_Tables_number	1
_symmetry_cell_setting	triclinic
loop_
_symmetry_equiv_pos_as_xyz
  x,y,z
_cell_length_a	10.654550
_cell_length_b	10.489716
_cell_length_c	9.130313
_cell_angle_alpha	90.002761
_cell_angle_beta	89.996220
_cell_angle_gamma	84.507019
loop_
_atom_site_label
_atom_site_type_symbol
_atom_site_fract_x
_atom_site_fract_y
_atom_site_fract_z
O1	O	1.667902	0.179158	-0.121906
O2	O	1.302430	0.196228	-0.121881
O3	O	1.493499	0.002089	-0.121899
O4	O	1.476834	0.373297	-0.121887
O5	O	1.493496	0.002094	0.121700
O6	O	1.302428	0.196233	0.121718
O7	O	1.667900	0.179163	0.121693
Cu8	Cu	1.485164	0.187699	0.143948
Cu9	Cu	1.485167	0.187692	-0.144136
O10	O	1.476832	0.373302	0.121712
C11	C	1.255631	0.194977	-0.000078
C12	C	1.116186	0.191227	-0.000069
C13	C	1.492245	-0.045440	-0.000104
C14	C	1.488499	-0.187069	-0.000117
C15	C	1.036744	0.305533	-0.000087
C16	C	0.905722	0.302002	-0.000113
C17	C	0.933597	0.069849	-0.000109
C18	C	1.064616	0.073382	-0.000073
C19	C	1.020650	0.439565	-0.000096
C20	C	0.889628	0.436034	-0.000121
C21	C	1.605668	-0.284800	-0.000112
C22	C	1.543755	-0.362133	-0.120211
C23	C	1.543725	-0.362092	0.119959
C24	C	1.426635	-0.262537	-0.120315
C25	C	1.426623	-0.262490	0.119962
C26	C	1.364623	-0.339775	-0.000166
C27	C	1.714700	0.180414	-0.000112
C28	C	1.854144	0.184164	-0.000131
C29	C	1.478085	0.420831	-0.000087
C30	C	1.481831	0.562460	-0.000083
N31	N	1.485171	0.187702	0.346571
N32	N	1.485169	0.187679	-0.346758
C33	C	1.569798	0.101767	0.423215
C34	C	1.569795	0.101752	0.576552
C35	C	1.400533	0.273618	0.576587
C36	C	1.400532	0.273626	0.423253
C37	C	1.667523	0.002545	0.423196
C38	C	1.667520	0.002530	0.576532
H39	H	1.129294	-0.019697	-0.000037
H40	H	1.764040	0.024386	0.618143
H41	H	1.050000	0.491986	0.101857
C42	C	1.743342	-0.251518	-0.000281
H43	H	1.784789	-0.285805	-0.085730
H44	H	1.785358	-0.287093	0.084175
H45	H	1.744806	-0.161110	0.000575
C46	C	1.790720	0.044501	0.358930
H47	H	1.845586	0.063173	0.436416
H48	H	1.772237	0.118779	0.300376
H49	H	1.830355	-0.022585	0.300364
H50	H	1.331611	0.343590	0.360851
C51	C	0.876865	-0.059770	-0.000127
H52	H	0.787456	-0.045505	-0.000159
H53	H	0.904044	-0.106885	0.084823
H54	H	0.904083	-0.106881	-0.085084
C55	C	1.626254	-0.122626	0.640783
H56	H	1.627649	-0.118361	0.744700
H57	H	1.682411	-0.192855	0.608646
H58	H	1.543223	-0.133854	0.608658
C59	C	1.610564	-0.420835	0.257129
H60	H	1.696136	-0.402373	0.256963
H61	H	1.607008	-0.510975	0.256630
H62	H	1.569797	-0.385371	0.342422
H63	H	1.593217	-0.405654	-0.221755
C64	C	1.307445	0.368134	0.660942
H65	H	1.319569	0.355827	0.763240
H66	H	1.223506	0.353492	0.635815
H67	H	1.321850	0.453404	0.635825
H68	H	1.056323	0.482240	-0.105266
H69	H	1.646043	-0.095501	0.381574
C70	C	0.827939	0.490755	0.141944
H71	H	0.891130	0.517576	0.205224
H72	H	0.785432	0.426581	0.189145
H73	H	0.769206	0.561889	0.119101
H74	H	0.847915	0.486532	-0.102073
C75	C	1.359877	-0.204021	-0.257648
H76	H	1.362738	-0.113780	-0.256849
H77	H	1.274522	-0.223170	-0.257995
H78	H	1.401213	-0.239001	-0.342832
C79	C	1.226846	-0.372726	-0.000241
H80	H	1.185421	-0.338314	-0.085635
H81	H	1.184945	-0.337096	0.084271
H82	H	1.225177	-0.463110	0.000563
C83	C	1.359868	-0.203653	0.257141
H84	H	1.401642	-0.237896	0.342401
H85	H	1.274704	-0.223412	0.258014
H86	H	1.362105	-0.113343	0.255657
