data_functionalizedCrystal
_audit_creation_method	'MofGen! by Chris Wilmer'
_symmetry_space_group_name_H-M	'P1'
_symmetry_Int_Tables_number	1
_symmetry_cell_setting	triclinic
loop_
_symmetry_equiv_pos_as_xyz
  x,y,z
_cell_length_a	21.395362
_cell_length_b	10.686285
_cell_length_c	21.395355
_cell_angle_alpha	85.619443
_cell_angle_beta	89.956060
_cell_angle_gamma	85.645931
loop_
_atom_site_label
_atom_site_type_symbol
_atom_site_fract_x
_atom_site_fract_y
_atom_site_fract_z
Zn1	Zn	0.977081	-0.501939	-0.335532
Zn2	Zn	1.477081	-0.001939	0.164468
Zn3	Zn	0.985062	-0.712908	-0.222746
Zn4	Zn	1.485062	-0.212908	0.277254
Zn5	Zn	0.872298	-0.501998	-0.230731
Zn6	Zn	1.372298	-0.001998	0.269269
Zn7	Zn	0.880345	-0.712934	-0.327450
Zn8	Zn	1.380345	-0.212934	0.172550
O9	O	0.928696	-0.607445	-0.279115
O10	O	1.428696	-0.107445	0.220885
O11	O	1.065816	-0.529889	-0.320611
O12	O	1.565816	-0.029889	0.179389
O13	O	0.970076	-0.684945	-0.136127
O14	O	1.470076	-0.184945	0.363873
O15	O	0.879490	-0.325422	-0.251357
O16	O	1.379490	0.174578	0.248643
O17	O	1.071680	-0.684888	-0.237748
O18	O	1.571680	-0.184888	0.262252
O19	O	0.956473	-0.325378	-0.328354
O20	O	1.456473	0.174622	0.171646
O21	O	0.887229	-0.529990	-0.141993
O22	O	1.387229	-0.029990	0.358007
O23	O	0.785689	-0.530015	-0.243520
O24	O	1.285689	-0.030015	0.256480
O25	O	0.893204	-0.684932	-0.416201
O26	O	1.393204	-0.184932	0.083799
O27	O	0.791601	-0.684989	-0.314579
O28	O	1.291601	-0.184989	0.185421
O29	O	0.964276	-0.529915	-0.422138
O30	O	1.464276	-0.029915	0.077862
O31	O	0.977879	-0.889481	-0.229911
O32	O	1.477879	-0.389481	0.270089
O33	O	0.900944	-0.889500	-0.306837
O34	O	1.400944	-0.389500	0.193163
C35	C	0.765911	-0.607512	-0.279040
C36	C	1.265911	-0.107512	0.220960
C37	C	0.696272	-0.607571	-0.279021
C38	C	1.196272	-0.107571	0.220979
C39	C	0.666658	-0.688373	-0.315957
C40	C	1.166658	-0.188373	0.184043
C41	C	0.601221	-0.688342	-0.315987
C42	C	1.101221	-0.188342	0.184013
C43	C	0.565402	-0.607522	-0.279068
C44	C	1.065402	-0.107522	0.220932
C45	C	0.595024	-0.526705	-0.242129
C46	C	1.095024	-0.026705	0.257871
C47	C	0.660459	-0.526729	-0.242106
C48	C	1.160459	-0.026729	0.257894
C49	C	0.461288	-0.597357	-0.223048
C50	C	0.961288	-0.097357	0.276952
C51	C	0.395855	-0.597342	-0.223070
C52	C	0.895855	-0.097342	0.276930
C53	C	0.363578	-0.607440	-0.279140
C54	C	0.863578	-0.107440	0.220860
C55	C	0.396745	-0.617580	-0.335189
C56	C	0.896745	-0.117580	0.164811
C57	C	0.462180	-0.617604	-0.335165
C58	C	0.962180	-0.117604	0.164835
C59	C	0.494448	-0.607486	-0.279089
C60	C	0.994448	-0.107486	0.220911
C61	C	0.263010	-0.688213	-0.316111
C62	C	0.763010	-0.188213	0.183889
C63	C	0.197572	-0.688173	-0.316141
C64	C	0.697572	-0.188173	0.183859
C65	C	0.191376	-0.526542	-0.242278
C66	C	0.691376	-0.026542	0.257722
C67	C	0.256813	-0.526575	-0.242254
C68	C	0.756813	-0.026575	0.257746
C69	C	0.292626	-0.607417	-0.279169
C70	C	0.792626	-0.107417	0.220831
C71	C	0.941168	-0.935273	-0.266644
C72	C	1.441168	-0.435273	0.233356
C73	C	0.946560	-1.075519	-0.261330
C74	C	1.446560	-0.575519	0.238670
C75	C	1.092117	-0.607379	-0.279191
C76	C	1.592117	-0.107379	0.220809
C77	C	1.161757	-0.607351	-0.279223
C78	C	1.661757	-0.107351	0.220777
C79	C	0.928747	-0.607420	-0.442539
C80	C	1.428747	-0.107420	0.057461
C81	C	0.928769	-0.607409	-0.512181
C82	C	1.428769	-0.107409	-0.012181
C83	C	0.916194	-0.278338	-0.291648
C84	C	1.416194	0.221662	0.208352
C85	C	0.910866	-0.138091	-0.296989
C86	C	1.410866	0.361909	0.203011
C87	C	0.965774	-0.526688	-0.547987
C88	C	1.465774	-0.026688	-0.047987
C89	C	0.965771	-0.526634	-0.613424
C90	C	1.465771	-0.026634	-0.113424
C91	C	0.928771	-0.607323	-0.643053
C92	C	1.428771	-0.107323	-0.143053
C93	C	0.891758	-0.688049	-0.607238
C94	C	1.391758	-0.188049	-0.107238
C95	C	0.891757	-0.688092	-0.541802
C96	C	1.391757	-0.188092	-0.041802
C97	C	0.928146	-0.720937	-0.742404
C98	C	1.428146	-0.220937	-0.242404
C99	C	0.928151	-0.720896	-0.807838
C100	C	1.428151	-0.220896	-0.307838
C101	C	0.928770	-0.607189	-0.844878
C102	C	1.428770	-0.107189	-0.344878
C103	C	0.929396	-0.493520	-0.816476
C104	C	1.429396	0.006480	-0.316476
C105	C	0.929395	-0.493563	-0.751040
C106	C	1.429395	0.006437	-0.251040
C107	C	0.928767	-0.607284	-0.714006
C108	C	1.428767	-0.107284	-0.214006
C109	C	0.965773	-0.526403	-0.951640
C110	C	1.465773	-0.026403	-0.451640
C111	C	0.965766	-0.526347	-1.017078
C112	C	1.465766	-0.026347	-0.517078
C113	C	0.891756	-0.687773	-1.010891
C114	C	1.391756	-0.187773	-0.510891
C115	C	0.891760	-0.687818	-0.945453
C116	C	1.391760	-0.187818	-0.445453
C117	C	0.928772	-0.607135	-0.915832
C118	C	1.428772	-0.107135	-0.415832
C119	C	0.928678	-0.607380	-0.116330
C120	C	1.428678	-0.107380	0.383670
C121	C	0.928764	-0.607035	-0.046702
C122	C	1.428764	-0.107035	0.453298
H123	H	0.162212	-0.460731	-0.212221
H124	H	0.662212	0.039269	0.287779
Cl125	Cl	0.857314	-1.055154	-0.350403
Cl126	Cl	1.357314	-0.555154	0.149597
Cl127	Cl	1.000107	-1.158461	-0.207906
Cl128	Cl	1.500107	-0.658461	0.292094
Cl129	Cl	0.845240	-0.789482	-0.644484
Cl130	Cl	1.345240	-0.289482	-0.144484
H131	H	0.995911	-0.460987	-0.523873
H132	H	1.495911	0.039013	-0.023873
Cl133	Cl	0.294044	-0.424993	-0.195815
Cl134	Cl	0.794044	0.075007	0.304185
H135	H	0.927645	-0.813452	-0.830958
H136	H	1.427645	-0.313452	-0.330958
Cl137	Cl	1.012282	-0.425123	-0.658448
Cl138	Cl	1.512282	0.074877	-0.158448
Cl139	Cl	0.501857	-0.584667	-0.152553
Cl140	Cl	1.001857	-0.084667	0.347447
H141	H	0.565855	-0.460899	-0.212071
H142	H	1.065855	0.039101	0.287929
H143	H	0.684570	-0.460927	-0.212028
H144	H	1.184570	0.039073	0.287972
H145	H	0.929904	-0.401010	-0.727918
H146	H	1.429904	0.098990	-0.227918
H147	H	0.929901	-0.400930	-0.846633
H148	H	1.429901	0.099070	-0.346633
Cl149	Cl	0.354167	-0.584594	-0.152610
Cl150	Cl	0.854167	-0.084594	0.347390
H151	H	0.995907	-0.460699	-0.927521
H152	H	1.495907	0.039301	-0.427521
H153	H	0.995899	-0.460607	-1.046231
H154	H	1.495899	0.039393	-0.546231
Cl155	Cl	0.845235	-0.789201	-1.048131
Cl156	Cl	1.345235	-0.289201	-0.548131
Cl157	Cl	0.845239	-0.789308	-0.900437
Cl158	Cl	1.345239	-0.289308	-0.400437
H159	H	0.927473	-0.813506	-0.712251
H160	H	1.427473	-0.313506	-0.212251
H161	H	0.861620	-0.753823	-0.512649
H162	H	1.361620	-0.253823	-0.012649
H163	H	0.577105	-0.754140	-0.346067
H164	H	1.077105	-0.254140	0.153933
Cl165	Cl	0.711677	-0.789997	-0.362368
Cl166	Cl	1.211677	-0.289997	0.137632
Cl167	Cl	0.308036	-0.789832	-0.362522
Cl168	Cl	0.808036	-0.289832	0.137478
Cl169	Cl	0.503872	-0.630342	-0.405623
Cl170	Cl	1.003872	-0.130342	0.094377
H171	H	0.173462	-0.753969	-0.346223
H172	H	0.673462	-0.253969	0.153777
Cl173	Cl	0.356176	-0.630267	-0.405682
Cl174	Cl	0.856176	-0.130267	0.094318
