data_functionalizedCrystal
_audit_creation_method	'MofGen! by Chris Wilmer'
_symmetry_space_group_name_H-M	'P1'
_symmetry_Int_Tables_number	1
_symmetry_cell_setting	triclinic
loop_
_symmetry_equiv_pos_as_xyz
  x,y,z
_cell_length_a	10.686220
_cell_length_b	10.685594
_cell_length_c	11.169409
_cell_angle_alpha	94.340176
_cell_angle_beta	94.348347
_cell_angle_gamma	98.404471
loop_
_atom_site_label
_atom_site_type_symbol
_atom_site_fract_x
_atom_site_fract_y
_atom_site_fract_z
Zn1	Zn	1.901845	-0.356181	-0.566005
Zn2	Zn	1.885446	-0.568495	-0.381996
Zn3	Zn	1.689571	-0.372559	-0.381993
Zn4	Zn	1.673311	-0.584682	-0.599271
O5	O	1.787543	-0.470479	-0.482316
O6	O	2.077286	-0.370717	-0.527675
O7	O	1.859405	-0.542583	-0.214056
O8	O	1.731398	-0.192758	-0.392479
O9	O	2.065238	-0.526703	-0.392485
O10	O	1.887354	-0.180726	-0.527672
O11	O	1.715496	-0.398630	-0.214053
O12	O	1.509797	-0.414326	-0.424736
O13	O	1.703685	-0.554291	-0.762798
O14	O	1.497851	-0.570172	-0.584369
O15	O	1.871588	-0.386413	-0.738357
O16	O	1.843638	-0.748270	-0.424741
O17	O	1.687783	-0.760163	-0.584372
C18	C	1.457770	-0.495783	-0.508162
C19	C	1.316690	-0.506639	-0.519250
C20	C	1.762201	-0.800271	-0.508190
C21	C	1.751476	-0.941348	-0.519290
C22	C	2.118604	-0.445077	-0.456370
C23	C	2.259682	-0.434252	-0.445313
C24	C	1.787652	-0.470331	-0.795340
C25	C	1.787698	-0.470268	-0.928732
C26	C	1.813019	-0.139397	-0.456364
C27	C	1.823875	0.001691	-0.445305
C28	C	1.787515	-0.470530	-0.170497
C29	C	1.787743	-0.470217	-0.037058
H30	H	1.257558	-0.576930	-0.591033
H31	H	1.318807	-0.363975	-0.373528
H32	H	1.681285	-1.000516	-0.591132
H33	H	1.894072	-0.939149	-0.373477
