data_functionalizedCrystal
_audit_creation_method	'MofGen! by Chris Wilmer'
_symmetry_space_group_name_H-M	'P1'
_symmetry_Int_Tables_number	1
_symmetry_cell_setting	triclinic
loop_
_symmetry_equiv_pos_as_xyz
  x,y,z
_cell_length_a	20.919320
_cell_length_b	19.851628
_cell_length_c	19.851628
_cell_angle_alpha	89.995365
_cell_angle_beta	62.584228
_cell_angle_gamma	57.445831
loop_
_atom_site_label
_atom_site_type_symbol
_atom_site_fract_x
_atom_site_fract_y
_atom_site_fract_z
Zr1	Zr	0.700853	0.620160	-0.059712
O2	O	0.834417	0.507130	-0.161798
O3	O	0.567289	0.658608	-0.032214
O4	O	0.700869	0.653133	-0.167280
O5	O	0.700825	0.512603	0.084130
O6	O	0.700881	0.763981	-0.167286
O7	O	0.700837	0.512605	-0.026732
O8	O	0.461932	0.773774	0.074323
O9	O	0.939774	0.502809	-0.157479
O10	O	0.622235	0.753141	-0.015904
O11	O	0.622217	0.670414	0.066835
O12	O	0.779489	0.663968	-0.092188
O13	O	0.779471	0.581242	-0.009449
Zr14	Zr	0.700853	0.796946	0.117090
Zr15	Zr	0.700873	0.796950	-0.059721
Zr16	Zr	0.700833	0.620156	0.117099
Zr17	Zr	0.868886	0.613268	-0.052824
Zr18	Zr	0.532820	0.803837	0.110202
O19	O	0.834417	0.758498	0.089592
O20	O	0.834445	0.758503	-0.161811
O21	O	0.834389	0.507125	0.089605
O22	O	0.567289	0.909975	0.219176
O23	O	0.567317	0.909980	-0.032227
O24	O	0.567261	0.658602	0.219188
O25	O	0.700881	0.904503	-0.026752
O26	O	0.700837	0.763973	0.224658
O27	O	0.700825	0.653125	0.224663
O28	O	0.700869	0.904500	0.084110
O29	O	0.939790	0.643334	-0.157486
O30	O	0.461916	0.773772	0.214864
O31	O	0.461932	0.914296	0.214857
O32	O	0.461948	0.914299	0.074316
O33	O	0.939758	0.502807	-0.016938
O34	O	0.939774	0.643331	-0.016945
O35	O	0.622217	0.753137	0.149565
O36	O	0.622235	0.835864	0.066827
O37	O	0.779489	0.746691	-0.009457
O38	O	0.779471	0.663965	0.073281
C39	C	0.490670	0.717173	0.020073
C40	C	0.419335	0.720098	0.017149
C41	C	0.015896	0.738813	-0.001585
C42	C	0.082924	0.736059	0.001165
C43	C	0.116420	0.691504	0.045734
C44	C	0.082891	0.649693	0.087550
C45	C	0.015870	0.652442	0.084795
C46	C	0.318785	0.681037	0.056209
C47	C	0.385810	0.678293	0.058963
C48	C	0.385839	0.764658	-0.027423
C49	C	0.318812	0.767407	-0.030171
C50	C	0.285293	0.725593	0.011641
C51	C	0.184931	0.688690	0.048548
C52	C	0.216788	0.728402	0.008822
C53	C	0.700828	0.487415	0.028700
C54	C	0.700820	0.412363	0.028704
C55	C	0.615099	0.279617	0.070288
C56	C	0.657952	0.210410	0.104743
C57	C	0.700843	0.274931	0.028695
C58	C	0.657984	0.210403	-0.005733
C59	C	0.700860	0.142181	0.028685
C60	C	0.743697	0.206712	0.063195
C61	C	0.743717	0.206716	-0.047325
C62	C	0.786633	0.137494	-0.012886
C63	C	0.700831	0.351406	0.028702
C64	C	0.700878	0.065704	0.028680
C65	C	0.911036	0.699933	0.037305
C66	C	0.982371	0.697007	0.040229
C67	C	0.700878	0.708557	-0.192475
C68	C	0.700886	0.708559	-0.267536
C69	C	0.700878	0.929690	0.028678
C70	C	0.700886	1.004742	0.028674
C71	C	0.786607	0.659927	-0.490475
C72	C	0.743754	0.739465	-0.514600
C73	C	0.700863	0.708557	-0.404943
C74	C	0.743722	0.629023	-0.514558
C75	C	0.700846	0.708548	-0.537676
C76	C	0.658009	0.788141	-0.428080
C77	C	0.657989	0.677642	-0.428040
C78	C	0.615073	0.757230	-0.452115
C79	C	0.700874	0.708561	-0.328480
C80	C	0.700828	0.708552	-0.614134
C81	C	0.700828	0.708548	0.249852
C82	C	0.700820	0.708547	0.324913
C83	C	0.490694	0.938310	0.020062
C84	C	0.419368	1.016288	0.017134
C85	C	0.490645	0.717168	0.241236
C86	C	0.419302	0.720092	0.313373
C87	C	0.490670	0.938306	0.241225
C88	C	0.419335	1.016282	0.313358
C89	C	0.911036	0.478800	-0.183847
C90	C	0.982371	0.400824	-0.255980
C91	C	0.911012	0.478795	0.037316
C92	C	0.982338	0.400817	0.040244
C93	C	0.911061	0.699937	-0.183859
C94	C	0.982404	0.697013	-0.255995
C95	C	0.385873	1.009727	-0.027433
C96	C	0.318864	1.082988	-0.030201
C97	C	0.285347	1.162810	0.011604
C98	C	0.318849	1.169369	0.056173
C99	C	0.385861	1.096109	0.058935
C100	C	0.385799	0.764646	0.390441
C101	C	0.318774	0.767390	0.458228
C102	C	0.285250	0.725585	0.448946
C103	C	0.318759	0.681025	0.371870
C104	C	0.385787	0.678277	0.304084
C105	C	0.385846	1.096090	0.304044
C106	C	0.318829	1.169363	0.371814
C107	C	0.285298	1.162827	0.448897
C108	C	0.318795	1.083010	0.458210
C109	C	0.385815	1.009738	0.390441
C110	C	1.015869	0.321015	-0.246665
C111	C	1.082906	0.247741	-0.314435
C112	C	1.116440	0.254278	-0.391518
C113	C	1.082940	0.334094	-0.400831
C114	C	1.015908	0.407367	-0.333063
C115	C	1.015840	0.407379	0.084804
C116	C	1.082868	0.334117	0.087553
C117	C	1.116387	0.254295	0.045746
C118	C	1.082882	0.247735	0.001180
C119	C	1.015860	0.320996	-0.001572
C120	C	1.015907	0.738828	-0.246687
C121	C	1.082932	0.736097	-0.314461
C122	C	1.116457	0.691546	-0.391542
C123	C	1.082947	0.649730	-0.400849
C124	C	1.015919	0.652467	-0.333076
H125	H	0.413137	0.798700	-0.061466
H126	H	1.171037	0.689324	-0.446720
H127	H	0.413088	0.642001	0.095251
H128	H	0.779999	0.765612	-0.551931
Cl129	Cl	0.276658	0.823415	0.555114
H130	H	0.189517	0.764675	-0.027470
Cl131	Cl	0.503046	0.820797	-0.427986
Cl132	Cl	0.602080	0.637239	-0.370405
Cl133	Cl	0.799687	0.525186	-0.572160
H134	H	0.988584	0.315642	-0.037856
Cl135	Cl	0.427998	0.909388	-0.079999
Cl136	Cl	0.201100	1.254902	0.008125
H137	H	0.291595	1.077630	-0.066493
Cl138	Cl	0.973798	0.507695	-0.344787
Cl139	Cl	1.125004	0.147411	-0.302708
H140	H	0.413136	1.101429	0.241284
Cl141	Cl	1.200708	0.162155	-0.476706
Cl142	Cl	0.276700	1.269724	0.108727
H143	H	0.859108	0.618871	-0.505951
Cl144	Cl	0.602109	0.892026	-0.370645
H145	H	0.291484	1.077700	0.520981
Cl146	Cl	0.898658	0.043751	-0.067182
H147	H	0.413125	1.101463	0.095231
H148	H	0.413087	0.798690	0.398015
Cl149	Cl	0.427902	0.909411	0.402165
Cl150	Cl	0.973774	0.794843	-0.149793
H151	H	1.110136	0.339474	0.123845
Cl152	Cl	1.200642	0.162202	0.049216
Cl153	Cl	0.973720	0.507717	0.137365
Cl154	Cl	1.125103	0.342298	-0.497743
Cl155	Cl	0.276729	1.269694	0.360087
Cl156	Cl	0.200983	0.729050	0.534171
Cl157	Cl	1.125026	0.147381	-0.051369
Cl158	Cl	1.125111	0.593717	-0.497756
Cl159	Cl	1.125051	0.788664	-0.302742
Cl160	Cl	0.276651	0.628476	0.108778
H161	H	0.988648	0.618412	-0.340666
H162	H	-0.011376	0.775098	-0.037874
H163	H	0.110173	0.613411	0.123835
H164	H	0.291454	0.646989	0.364323
H165	H	0.110221	0.770099	-0.032884
H166	H	0.230726	1.222496	0.504073
Cl167	Cl	0.427892	0.622267	0.207201
Cl168	Cl	0.973725	0.312775	-0.149768
Cl169	Cl	0.503166	0.373499	0.124667
H170	H	-0.011424	0.618398	0.118842
Cl171	Cl	0.276730	0.823396	-0.086226
H172	H	0.212209	0.652415	0.084839
H173	H	0.779905	0.205826	0.092382
Cl174	Cl	0.601998	0.211664	0.203995
Cl175	Cl	0.602019	0.211678	-0.050683
Cl176	Cl	0.799628	0.205515	-0.146558
