data_functionalizedCrystal
_audit_creation_method	'MofGen! by Chris Wilmer'
_symmetry_space_group_name_H-M	'P1'
_symmetry_Int_Tables_number	1
_symmetry_cell_setting	triclinic
loop_
_symmetry_equiv_pos_as_xyz
  x,y,z
_cell_length_a	19.188930
_cell_length_b	14.519709
_cell_length_c	13.596369
_cell_angle_alpha	90.006934
_cell_angle_beta	90.019208
_cell_angle_gamma	83.412462
loop_
_atom_site_label
_atom_site_type_symbol
_atom_site_fract_x
_atom_site_fract_y
_atom_site_fract_z
O1	O	-0.926555	-0.115137	-0.082110
O2	O	-0.593222	0.218196	0.251224
O3	O	-0.259889	0.551530	0.584557
O4	O	-0.723299	-0.130636	-0.082043
O5	O	-0.389966	0.202697	0.251291
O6	O	-0.056633	0.536031	0.584624
O7	O	-0.830316	0.011385	-0.082069
O8	O	-0.496983	0.344719	0.251264
O9	O	-0.163650	0.678052	0.584598
O10	O	-0.819538	-0.257158	-0.082083
O11	O	-0.486205	0.076175	0.251250
O12	O	-0.152872	0.409508	0.584583
O13	O	-0.830306	0.011393	0.081514
O14	O	-0.496972	0.344726	0.414847
O15	O	-0.163639	0.678059	0.748180
O16	O	-0.723289	-0.130629	0.081540
O17	O	-0.389955	0.202705	0.414874
O18	O	-0.056622	0.536038	0.748207
O19	O	-0.926545	-0.115130	0.081473
O20	O	-0.593211	0.218204	0.414806
O21	O	-0.259878	0.551537	0.748140
Zn22	Zn	-0.824915	-0.122878	0.107479
Zn23	Zn	-0.491582	0.210455	0.440812
Zn24	Zn	-0.158248	0.543789	0.774146
Zn25	Zn	-0.824929	-0.122888	-0.108049
Zn26	Zn	-0.491596	0.210446	0.225285
Zn27	Zn	-0.158262	0.543779	0.558618
O28	O	-0.819528	-0.257151	0.081500
O29	O	-0.486194	0.076182	0.414833
O30	O	-0.152861	0.409516	0.748166
C31	C	-0.829809	0.045746	-0.000277
C32	C	-0.496475	0.379079	0.333056
C33	C	-0.163142	0.712412	0.666389
C34	C	-0.828304	0.148118	-0.000276
C35	C	-0.494970	0.481451	0.333057
C36	C	-0.161637	0.814784	0.666390
C37	C	-0.697281	-0.130131	-0.000242
C38	C	-0.363948	0.203203	0.333091
C39	C	-0.030615	0.536536	0.666424
C40	C	-0.619771	-0.128624	-0.000217
C41	C	-0.286438	0.204710	0.333117
C42	C	0.046895	0.538043	0.666450
C43	C	-0.952563	-0.115635	-0.000329
C44	C	-0.619230	0.217698	0.333004
C45	C	-0.285896	0.551032	0.666338
C46	C	-1.030073	-0.117142	-0.000361
C47	C	-0.696739	0.216191	0.332972
C48	C	-0.363406	0.549525	0.666305
C49	C	-0.575144	-0.211957	-0.000236
C50	C	-0.241811	0.121376	0.333097
C51	C	0.091523	0.454709	0.666430
C52	C	-0.502315	-0.210542	-0.000247
C53	C	-0.168982	0.122791	0.333086
C54	C	0.164351	0.456125	0.666419
C55	C	-0.474117	-0.125788	-0.000258
C56	C	-0.140784	0.207545	0.333076
C57	C	0.192550	0.540879	0.666409
C58	C	-0.518754	-0.042444	-0.000232
C59	C	-0.185421	0.290890	0.333101
C60	C	0.147913	0.624223	0.666434
C61	C	-0.591581	-0.043861	-0.000212
C62	C	-0.258248	0.289472	0.333121
C63	C	0.075085	0.622805	0.666455
N64	N	-0.365910	-0.061007	-0.055968
N65	N	-0.032576	0.272326	0.277365
N66	N	0.300757	0.605660	0.610698
N67	N	-0.296726	-0.059666	-0.055990
N68	N	0.036607	0.273668	0.277343
N69	N	0.369940	0.607001	0.610677
C70	C	-0.254693	-0.121511	-0.000318
C71	C	0.078640	0.211822	0.333016
C72	C	0.411974	0.545156	0.666349
N73	N	-0.284455	-0.184762	0.055365
N74	N	0.048878	0.148571	0.388698
N75	N	0.382211	0.481904	0.722031
N76	N	-0.353645	-0.186106	0.055382
N77	N	-0.020312	0.147227	0.388715
N78	N	0.313022	0.480560	0.722049
C79	C	-0.395149	-0.124241	-0.000280
C80	C	-0.061816	0.209092	0.333054
C81	C	0.271518	0.542425	0.666387
C82	C	-0.131096	-0.203315	-0.000348
C83	C	0.202237	0.130018	0.332986
C84	C	0.535571	0.463351	0.666319
C85	C	-0.058266	-0.201896	-0.000352
C86	C	0.275067	0.131437	0.332981
C87	C	0.608401	0.464770	0.666314
C88	C	-0.074706	-0.033796	-0.000348
C89	C	0.258627	0.299538	0.332986
C90	C	0.591960	0.632871	0.666319
C91	C	-0.147535	-0.035217	-0.000333
C92	C	0.185799	0.298116	0.333000
C93	C	0.519132	0.631450	0.666334
C94	C	-0.175725	-0.119980	-0.000338
C95	C	0.157609	0.213354	0.332995
C96	C	0.490942	0.546687	0.666329
C97	C	-0.820035	-0.291511	-0.000294
C98	C	-0.486702	0.041822	0.333039
C99	C	-0.153369	0.375155	0.666372
C100	C	-0.821541	-0.393883	-0.000302
C101	C	-0.488207	-0.060550	0.333032
C102	C	-0.154874	0.272783	0.666365
N103	N	-0.824911	-0.122871	0.254571
N104	N	-0.491577	0.210463	0.587904
N105	N	-0.158244	0.543796	0.921238
C106	C	-0.822762	0.522979	-0.000300
C107	C	-0.489429	0.856312	0.333033
C108	C	-0.156096	1.189646	0.666367
C109	C	-0.824301	0.418681	-0.000293
C110	C	-0.490968	0.752014	0.333040
C111	C	-0.157634	1.085347	0.666374
C112	C	-0.825533	0.335552	-0.000287
C113	C	-0.492199	0.668885	0.333046
C114	C	-0.158866	1.002218	0.666379
C115	C	-0.827072	0.231247	-0.000282
C116	C	-0.493739	0.564580	0.333051
C117	C	-0.160405	0.897913	0.666384
N118	N	-0.824939	-0.122888	-0.255140
N119	N	-0.491606	0.210446	0.078193
N120	N	-0.158272	0.543779	0.411526
C121	C	-0.824928	-0.122889	0.655862
C122	C	-0.491595	0.210445	0.989195
C123	C	-0.158262	0.543778	1.322528
C124	C	-0.824921	-0.122887	0.544210
C125	C	-0.491588	0.210447	0.877544
C126	C	-0.158255	0.543780	1.210877
C127	C	-0.824920	-0.122880	0.455220
C128	C	-0.491586	0.210453	0.788553
C129	C	-0.158253	0.543786	1.121887
C130	C	-0.824912	-0.122877	0.343561
C131	C	-0.491579	0.210456	0.676895
C132	C	-0.158245	0.543790	1.010228
H133	H	-0.598091	-0.280978	-0.000242
H134	H	-0.264758	0.052356	0.333091
H135	H	0.068575	0.385689	0.666424
O136	O	-0.488347	0.048973	-0.000244
O137	O	-0.155014	0.382306	0.333089
O138	O	0.178320	0.715640	0.666422
H139	H	-0.430207	0.035960	-0.000272
H140	H	-0.096874	0.369293	0.333062
H141	H	0.236459	0.702626	0.666395
O142	O	-0.195675	0.054665	-0.000316
O143	O	0.137659	0.387998	0.333017
O144	O	0.470992	0.721332	0.666351
H145	H	-0.185669	0.095236	-0.066995
H146	H	0.147664	0.428569	0.266339
H147	H	0.480998	0.761903	0.599672
H148	H	-0.465973	-0.278404	-0.000261
H149	H	-0.132640	0.054929	0.333073
H150	H	0.200694	0.388262	0.666406
H151	H	-0.051748	0.035213	-0.000417
H152	H	0.281585	0.368546	0.332916
H153	H	0.614918	0.701879	0.666249
O154	O	-0.639722	0.046023	-0.000195
O155	O	-0.306389	0.379356	0.333138
O156	O	0.026944	0.712689	0.666471
H157	H	-0.607883	0.105198	-0.000207
H158	H	-0.274549	0.438532	0.333126
H159	H	0.058784	0.771865	0.666460
O160	O	-0.010129	-0.291784	-0.000363
O161	O	0.323204	0.041549	0.332970
O162	O	0.656537	0.374882	0.666303
H163	H	0.023427	-0.295157	-0.067038
H164	H	0.356761	0.038177	0.266295
H165	H	0.690094	0.371510	0.599629
O166	O	-0.161510	-0.294731	-0.000333
O167	O	0.171823	0.038602	0.333000
O168	O	0.505156	0.371936	0.666334
H169	H	-0.118239	-0.352443	-0.000330
H170	H	0.215094	-0.019110	0.333004
H171	H	0.548428	0.314224	0.666337
