data_functionalizedCrystal
_audit_creation_method	'MofGen! by Chris Wilmer'
_symmetry_space_group_name_H-M	'P1'
_symmetry_Int_Tables_number	1
_symmetry_cell_setting	triclinic
loop_
_symmetry_equiv_pos_as_xyz
  x,y,z
_cell_length_a	10.540539
_cell_length_b	9.065218
_cell_length_c	7.540329
_cell_angle_alpha	89.998243
_cell_angle_beta	89.999095
_cell_angle_gamma	84.770688
loop_
_atom_site_label
_atom_site_type_symbol
_atom_site_fract_x
_atom_site_fract_y
_atom_site_fract_z
O1	O	1.686653	0.207930	-0.147391
O2	O	1.317313	0.227521	-0.147412
O3	O	1.509617	0.003045	-0.147398
O4	O	1.494349	0.432406	-0.147406
O5	O	1.509606	0.003042	0.147568
O6	O	1.317301	0.227519	0.147553
O7	O	1.686642	0.207927	0.147574
Cu8	Cu	1.501970	0.217723	0.174496
Cu9	Cu	1.501984	0.217726	-0.174334
O10	O	1.494337	0.432403	0.147559
C11	C	1.508144	-0.051936	0.000082
C12	C	1.503757	-0.215757	0.000073
C13	C	1.269999	0.226051	0.000068
C14	C	1.129034	0.221655	0.000059
C15	C	0.944985	0.053221	0.000751
C16	C	1.091619	0.057677	0.000068
C17	C	1.067660	0.300570	-0.168375
C18	C	0.921095	0.294974	-0.168498
C19	C	0.920606	0.298306	0.166933
C20	C	1.067593	0.299817	0.169141
C21	C	1.733956	0.209398	0.000090
C22	C	1.874920	0.213794	0.000087
C23	C	1.495811	0.487384	0.000076
C24	C	1.500198	0.651205	0.000073
N25	N	1.501970	0.217719	0.419845
N26	N	1.501995	0.217718	-0.419683
H27	H	0.916155	-0.011561	0.121545
N28	N	0.858125	0.451177	-0.178670
H29	H	0.762516	0.448762	-0.178835
H30	H	0.884362	0.509504	-0.072800
H31	H	1.133138	-0.004852	-0.120880
H32	H	0.892674	0.236651	-0.294402
N33	N	1.123781	0.227942	-0.334422
H34	H	1.083677	0.279494	-0.442084
H35	H	1.218779	0.235494	-0.336201
N36	N	0.858611	0.455183	0.168444
H37	H	0.806525	0.472346	0.280195
H38	H	0.926619	0.526716	0.164432
H39	H	0.914544	-0.011285	-0.119368
H40	H	1.108337	0.242166	0.293748
N41	N	0.878562	0.228018	0.336057
H42	H	0.829466	0.140670	0.306226
H43	H	0.955872	0.193297	0.409138
H44	H	1.090458	0.420991	-0.174644
H45	H	1.133999	-0.004416	0.120809
N46	N	1.100252	0.458181	0.182621
H47	H	1.195760	0.460074	0.190123
H48	H	1.067292	0.514991	0.074332
