data_functionalizedCrystal
_audit_creation_method	'MofGen! by Chris Wilmer'
_symmetry_space_group_name_H-M	'P1'
_symmetry_Int_Tables_number	1
_symmetry_cell_setting	triclinic
loop_
_symmetry_equiv_pos_as_xyz
  x,y,z
_cell_length_a	19.902436
_cell_length_b	14.560438
_cell_length_c	14.560438
_cell_angle_alpha	59.996306
_cell_angle_beta	89.997035
_cell_angle_gamma	60.003397
loop_
_atom_site_label
_atom_site_type_symbol
_atom_site_fract_x
_atom_site_fract_y
_atom_site_fract_z
Zr1	Zr	0.647248	1.005420	-0.120695
O2	O	0.539968	1.197014	-0.267338
O3	O	0.680135	0.813817	-0.075732
O4	O	0.680134	1.005428	-0.267349
O5	O	0.539971	1.005399	0.075419
O6	O	0.790699	1.005446	-0.267366
O7	O	0.539969	1.005402	-0.075722
O8	O	0.790701	0.662688	0.075401
O9	O	0.539969	1.348158	-0.267348
O10	O	0.776675	0.892643	-0.056579
O11	O	0.694163	0.892628	0.056229
O12	O	0.694161	1.118226	-0.169375
O13	O	0.611648	1.118210	-0.056567
Zr14	Zr	0.823591	1.005444	0.120329
Zr15	Zr	0.823588	1.005449	-0.120723
Zr16	Zr	0.647251	1.005416	0.120358
Zr17	Zr	0.647250	1.246477	-0.120710
Zr18	Zr	0.823589	0.764387	0.120345
O19	O	0.790704	1.197048	0.075367
O20	O	0.790700	1.197054	-0.267379
O21	O	0.539972	1.197008	0.075407
O22	O	0.930871	0.813851	0.266973
O23	O	0.930867	0.813857	-0.075772
O24	O	0.680139	0.813810	0.267013
O25	O	0.930868	1.005465	-0.075784
O26	O	0.790705	1.005436	0.266983
O27	O	0.680140	1.005418	0.267001
O28	O	0.930870	1.005462	0.075357
O29	O	0.680135	1.348180	-0.267371
O30	O	0.790704	0.662684	0.267005
O31	O	0.930870	0.662707	0.266983
O32	O	0.930868	0.662710	0.075379
O33	O	0.539971	1.348154	-0.075744
O34	O	0.680138	1.348177	-0.075766
O35	O	0.776678	0.892639	0.169010
O36	O	0.859191	0.892654	0.056202
O37	O	0.776676	1.118237	-0.056594
O38	O	0.694164	1.118222	0.056214
C39	C	0.735418	0.703907	-0.000163
C40	C	0.735417	0.601572	-0.000157
C41	C	0.674503	0.636777	-0.083429
C42	C	0.674507	0.540638	-0.083458
C43	C	0.796342	0.374087	0.083069
C44	C	0.796341	0.470226	0.083092
C45	C	0.514845	1.005397	-0.000147
C46	C	0.439985	1.005385	-0.000135
C47	C	0.167936	1.005449	-0.000198
C48	C	0.248478	0.863147	0.070617
C49	C	0.326381	0.863057	0.071015
C50	C	0.302903	1.005416	-0.000167
C51	C	0.248784	1.076084	0.051721
C52	C	0.171222	1.075175	0.052239
C53	C	0.170081	1.078100	-0.122931
C54	C	0.248958	1.075426	-0.122737
C55	C	0.379178	1.005405	-0.000150
C56	C	0.091660	1.005464	-0.000211
C57	C	0.955994	1.005468	-0.000218
C58	C	1.030854	1.005480	-0.000230
C59	C	0.735416	1.005438	-0.301702
C60	C	0.735415	1.005440	-0.404035
C61	C	0.735421	1.306958	-0.000202
C62	C	0.735422	1.409293	-0.000209
C63	C	0.692350	1.123182	-0.607144
C64	C	0.692343	1.123190	-0.510996
C65	C	0.778490	0.887674	-0.393223
C66	C	0.778492	0.887667	-0.489370
C67	C	0.735423	1.005427	0.301337
C68	C	0.735424	1.005425	0.403670
C69	C	0.955992	0.703942	-0.000199
C70	C	1.030852	0.601619	-0.000204
C71	C	0.735421	0.703901	0.301356
C72	C	0.735422	0.601564	0.403696
C73	C	0.955995	0.703937	0.301321
C74	C	1.030857	0.601612	0.403649
C75	C	0.514844	1.306928	-0.301686
C76	C	0.439982	1.409253	-0.404014
C77	C	0.514847	1.306922	-0.000167
C78	C	0.439987	1.409245	-0.000161
C79	C	0.735418	1.306963	-0.301722
C80	C	0.735417	1.409300	-0.404061
C81	C	1.022935	0.553562	-0.059087
C82	C	1.093268	0.457432	-0.059115
C83	C	1.171516	0.409355	-0.000252
C84	C	1.179432	0.457422	0.058633
C85	C	1.109100	0.553557	0.058654
C86	C	1.109091	0.553567	0.392818
C87	C	1.179438	0.457436	0.488957
C88	C	1.171549	0.409344	0.595924
C89	C	1.093307	0.457398	0.606753
C90	C	1.022962	0.553535	0.510615
C91	C	0.361748	1.457309	-0.393183
C92	C	0.291401	1.553470	-0.489322
C93	C	0.299290	1.601567	-0.596290
C94	C	0.377532	1.553507	-0.607118
C95	C	0.447877	1.457354	-0.510981
C96	C	0.447904	1.457313	0.058712
C97	C	0.377571	1.553470	0.058713
C98	C	0.299323	1.601550	-0.000153
C99	C	0.291407	1.553478	-0.059034
C100	C	0.361739	1.457330	-0.059041
C101	C	0.778494	0.553490	0.510646
C102	C	0.778485	0.457343	0.606801
C103	C	0.692332	0.457349	0.489042
C104	C	0.692336	0.553501	0.392890
H105	H	0.624891	0.743721	-0.151210
H106	H	0.657254	0.418202	0.480258
H107	H	0.227700	1.592585	-0.480483
H108	H	0.242004	1.679861	-0.674562
H109	H	1.243151	0.418264	0.106557
H110	H	1.086807	0.418307	-0.107066
O111	O	0.645999	0.605198	0.277523
H112	H	0.616092	0.555550	0.286160
H113	H	0.845949	0.441549	0.150905
H114	H	0.624905	0.569315	-0.151268
O115	O	0.095664	1.213462	-0.011667
H116	H	0.060228	1.225857	0.044986
O117	O	1.247371	0.305668	-0.000281
H118	H	1.284521	0.218051	0.087391
O119	O	0.645882	1.250198	-0.522657
H120	H	0.670777	1.306668	-0.569343
O121	O	0.824951	0.405473	0.722158
H122	H	0.854917	0.455041	0.713512
H123	H	0.365768	0.807632	0.036196
O124	O	0.862045	0.232425	0.172864
H125	H	0.851808	0.171486	0.158868
H126	H	1.243139	0.418320	0.480120
O127	O	0.250735	0.789142	0.024766
H128	H	0.194475	0.852985	-0.048980
H129	H	0.959228	0.592705	-0.107035
O130	O	0.386037	1.605378	-0.722493
H131	H	0.323973	1.680298	-0.787513
O132	O	0.824943	0.760672	-0.277858
H133	H	0.854888	0.678787	-0.286493
O134	O	0.223463	1.705246	-0.000140
H135	H	0.186323	1.668328	0.036708
H136	H	0.813574	0.592625	0.519451
H137	H	0.249227	0.807571	0.160609
H138	H	0.511577	1.418227	-0.519812
H139	H	1.228835	0.331063	0.674196
O140	O	0.378099	0.789153	0.190939
H141	H	0.347495	0.753349	0.248874
H142	H	1.115558	0.592673	0.106610
O143	O	0.171479	1.008630	0.171869
H144	H	0.226893	0.977397	0.228808
O145	O	0.222627	1.214719	-0.013270
H146	H	0.247982	1.234771	-0.083411
H147	H	0.227688	1.592640	-0.106961
H148	H	0.286239	1.027003	0.141179
O149	O	0.166242	1.017593	-0.180220
H150	H	0.108342	1.023685	-0.184573
H151	H	0.511611	1.418173	0.106656
O152	O	0.298399	1.007212	-0.174111
H153	H	0.361132	0.923794	-0.112616
H154	H	0.384032	1.592593	0.106665
H155	H	0.230435	1.179285	-0.179938
O156	O	1.117609	0.605443	0.277451
H157	H	1.183834	0.555886	0.286090
O158	O	0.353196	1.405475	-0.122531
H159	H	0.286967	1.455059	-0.163449
H160	H	1.086896	0.418228	0.693859
H161	H	0.959263	0.592640	0.519450
H162	H	0.113310	1.182930	-0.175941
O163	O	0.645892	1.250184	-0.722509
H164	H	0.615932	1.332068	-0.713871
H165	H	0.813568	0.791770	-0.480556
O166	O	0.353230	1.405450	-0.277816
H167	H	0.287005	1.455047	-0.286455
