data_functionalizedCrystal
_audit_creation_method	'MofGen! by Chris Wilmer'
_symmetry_space_group_name_H-M	'P1'
_symmetry_Int_Tables_number	1
_symmetry_cell_setting	triclinic
loop_
_symmetry_equiv_pos_as_xyz
  x,y,z
_cell_length_a	8.497365
_cell_length_b	21.395361
_cell_length_c	21.395362
_cell_angle_alpha	90.046585
_cell_angle_beta	90.053775
_cell_angle_gamma	90.058682
loop_
_atom_site_label
_atom_site_type_symbol
_atom_site_fract_x
_atom_site_fract_y
_atom_site_fract_z
Zn1	Zn	-0.892772	0.249015	-0.957921
Zn2	Zn	-0.628941	0.353843	-0.957805
Zn3	Zn	-0.628901	0.249113	-0.853117
Zn4	Zn	-0.892575	0.353788	-0.853105
O5	O	-0.760797	0.301440	-0.905487
O6	O	-0.857873	0.262903	-1.045583
O7	O	-0.408173	0.340014	-0.943875
O8	O	-0.663970	0.161422	-0.867074
O9	O	-0.664038	0.339920	-1.045498
O10	O	-0.857835	0.161350	-0.944072
O11	O	-0.408144	0.263069	-0.866961
O12	O	-0.663779	0.263016	-0.765438
O13	O	-1.113364	0.339826	-0.867052
O14	O	-0.857499	0.339920	-0.765428
O15	O	-1.113509	0.262850	-0.944059
O16	O	-0.663847	0.441514	-0.943863
O17	O	-0.857538	0.441474	-0.866940
C18	C	-0.760709	0.464228	-0.905404
C19	C	-0.760725	0.533869	-0.905426
C20	C	-0.760614	0.301473	-0.742699
C21	C	-0.760573	0.301502	-0.673058
C22	C	-0.760982	0.301407	-1.068910
C23	C	-0.761061	0.301393	-1.138552
C24	C	-0.350917	0.301508	-0.905442
C25	C	-0.172274	0.301380	-0.905531
C26	C	-0.760920	0.138017	-0.905587
C27	C	-0.760972	0.068375	-0.905630
C28	C	-0.659973	0.566582	-0.945515
C29	C	-0.660008	0.632018	-0.945545
C30	C	-0.760779	0.664737	-0.905473
C31	C	-0.861550	0.632016	-0.865381
C32	C	-0.861523	0.566582	-0.865358
C33	C	-0.773093	0.768465	-0.849059
C34	C	-0.773109	0.833898	-0.849082
C35	C	-0.760871	0.866558	-0.905546
C36	C	-0.748584	0.833777	-0.961990
C37	C	-0.748557	0.768343	-0.961966
C38	C	-0.760820	0.735689	-0.905495
C39	C	-0.660153	0.970224	-0.945670
C40	C	-0.660199	1.035660	-0.945701
C41	C	-0.861732	1.035657	-0.865532
C42	C	-0.861694	0.970222	-0.865507
C43	C	-0.760896	0.937509	-0.905576
C44	C	-0.861292	0.341600	-0.640356
C45	C	-0.861363	0.341584	-0.574921
C46	C	-0.760686	0.301478	-0.542190
C47	C	-0.659960	0.261373	-0.574899
C48	C	-0.659904	0.261385	-0.640333
C49	C	-0.618665	0.296467	-0.438455
C50	C	-0.618718	0.296460	-0.373022
C51	C	-0.760860	0.301437	-0.340369
C52	C	-0.902953	0.306436	-0.373157
C53	C	-0.902896	0.306448	-0.438591
C54	C	-0.760736	0.301460	-0.471237
C55	C	-0.861664	0.341520	-0.236715
C56	C	-0.861737	0.341500	-0.171278
C57	C	-0.660320	0.261292	-0.171258
C58	C	-0.660261	0.261309	-0.236693
C59	C	-0.760931	0.301426	-0.269418
H60	H	-0.577901	0.539949	-0.978143
H61	H	-0.738620	0.860367	-1.007969
H62	H	-0.578081	0.943588	-0.978299
H63	H	-0.738557	0.741654	-1.007924
H64	H	-0.577965	0.658658	-0.978192
H65	H	-0.578158	1.062294	-0.978350
C66	C	-0.972584	1.071645	-0.821454
N67	N	-1.056084	1.098754	-0.788254
H68	H	-0.943764	0.374151	-0.144654
H69	H	-0.783099	0.860583	-0.803122
H70	H	-0.783065	0.741879	-0.803076
H71	H	-0.943386	0.374236	-0.548290
C72	C	-0.972563	0.934236	-0.821418
N73	N	-1.056092	0.907131	-0.788215
H74	H	-0.943601	0.658660	-0.832756
C75	C	-0.972382	0.530596	-0.821262
N76	N	-1.055890	0.503491	-0.788051
C77	C	-0.972038	0.385728	-0.676350
N78	N	-1.055454	0.418965	-0.703461
C79	C	-1.059195	0.311945	-0.474655
N80	N	-1.176921	0.316085	-0.501818
H81	H	-1.018698	0.310488	-0.346572
H82	H	-0.943643	0.374183	-0.263361
H83	H	-0.578354	0.228634	-0.144609
H84	H	-0.578236	0.228660	-0.263319
H85	H	-0.577886	0.228731	-0.666959
H86	H	-0.503018	0.292393	-0.346332
H87	H	-0.502908	0.292411	-0.465036
C88	C	-0.549215	0.217256	-0.538894
N89	N	-0.465802	0.184024	-0.511774
