data_functionalizedCrystal
_audit_creation_method	'MofGen! by Chris Wilmer'
_symmetry_space_group_name_H-M	'P1'
_symmetry_Int_Tables_number	1
_symmetry_cell_setting	triclinic
loop_
_symmetry_equiv_pos_as_xyz
  x,y,z
_cell_length_a	19.288864
_cell_length_b	15.944551
_cell_length_c	17.766277
_cell_angle_alpha	89.992686
_cell_angle_beta	89.976791
_cell_angle_gamma	83.317492
loop_
_atom_site_label
_atom_site_type_symbol
_atom_site_fract_x
_atom_site_fract_y
_atom_site_fract_z
O1	O	0.921629	0.104784	-0.062837
O2	O	0.719406	0.118919	-0.062786
O3	O	0.826040	-0.010445	-0.062806
O4	O	0.814995	0.234147	-0.062817
O5	O	0.826021	-0.010451	0.062382
O6	O	0.719387	0.118912	0.062403
O7	O	0.921610	0.104777	0.062351
Cu8	Cu	0.820497	0.111844	0.073808
Cu9	Cu	0.820519	0.111852	-0.074242
O10	O	0.814976	0.234141	0.062372
C11	C	0.693519	0.118461	-0.000185
C12	C	0.616411	0.117095	-0.000165
C13	C	0.571915	0.193000	-0.000181
C14	C	0.499465	0.191717	-0.000189
C15	C	0.471514	0.114526	-0.000197
C16	C	0.516020	0.038611	-0.000178
C17	C	0.588469	0.039896	-0.000162
C18	C	0.363099	0.053847	-0.044079
C19	C	0.290651	0.052565	-0.044099
C20	C	0.248058	0.110560	-0.000242
C21	C	0.277920	0.169850	0.043625
C22	C	0.350369	0.171135	0.043641
C23	C	0.392956	0.113124	-0.000214
C24	C	0.125002	0.185079	-0.000265
C25	C	0.052550	0.183793	-0.000269
C26	C	0.069107	0.030684	-0.000265
C27	C	0.141557	0.031972	-0.000254
C28	C	0.169500	0.109172	-0.000258
C29	C	0.825572	-0.041740	-0.000212
C30	C	0.824197	-0.134981	-0.000211
C31	C	0.754815	-0.349571	-0.000204
C32	C	0.787024	-0.410715	0.061514
C33	C	0.821710	-0.305697	-0.000216
C34	C	0.787059	-0.410692	-0.061912
C35	C	0.819303	-0.470601	-0.000224
C36	C	0.853938	-0.365614	0.061552
C37	C	0.853963	-0.365585	-0.061929
C38	C	0.886222	-0.426712	-0.000197
C39	C	0.823095	-0.210700	-0.000211
C40	C	0.817924	-0.565597	-0.000224
C41	C	0.947497	0.105235	-0.000251
C42	C	1.024605	0.106600	-0.000276
C43	C	0.815444	0.265436	-0.000225
C44	C	0.816819	0.358677	-0.000230
N45	N	0.820486	0.111838	0.177938
N46	N	0.820535	0.111851	-0.178373
C47	C	0.867719	0.054584	0.217316
C48	C	0.867723	0.054580	0.296118
C49	C	0.820501	0.111845	0.335539
C50	C	0.773259	0.169103	0.296151
C51	C	0.773252	0.169100	0.217351
C52	C	0.811404	0.188378	0.460375
C53	C	0.811416	0.188382	0.539173
C54	C	0.820520	0.111855	0.578585
C55	C	0.829626	0.035319	0.539188
C56	C	0.829618	0.035316	0.460387
C57	C	0.820503	0.111854	0.420984
C58	C	0.867759	0.054592	0.703409
C59	C	0.867759	0.054587	0.782212
C60	C	0.773298	0.169117	0.782244
C61	C	0.773295	0.169115	0.703442
C62	C	0.820530	0.111853	0.664029
H63	H	0.177787	-0.029838	-0.000246
N64	N	0.751535	-0.435817	0.126993
N65	N	0.773702	-0.420494	0.191049
H66	H	0.748634	-0.438220	0.237292
N67	N	0.955936	-0.468587	-0.000191
N68	N	0.996675	-0.456171	-0.052697
H69	H	1.045910	-0.485748	-0.052692
N70	N	0.889395	-0.340670	0.127075
N71	N	0.896149	-0.264547	0.137666
H72	H	0.921188	-0.246928	0.183942
N73	N	0.040568	-0.048168	-0.000254
N74	N	0.001964	-0.065966	0.052514
H75	H	-0.018194	-0.121659	0.052528
N76	N	0.007092	0.261330	-0.000291
N77	N	-0.035159	0.277693	-0.053066
H78	H	-0.067266	0.332454	-0.053080
N79	N	0.802102	0.266551	0.420115
N80	N	0.751641	0.281995	0.376168
H81	H	0.745072	0.337203	0.347736
H82	H	0.266342	0.004291	-0.079822
N83	N	0.685156	-0.307525	-0.000107
N84	N	0.644663	-0.319229	0.052822
H85	H	0.595467	-0.289534	0.052893
H86	H	0.243242	0.217075	0.079338
N87	N	0.889434	-0.340470	-0.127411
N88	N	0.866644	-0.354655	-0.191449
H89	H	0.891691	-0.336917	-0.237702
H90	H	0.758764	-0.430657	-0.114093
N91	N	0.916029	-0.003841	0.177070
N92	N	0.958238	-0.054911	0.212245
H93	H	0.992379	-0.096148	0.183820
N94	N	0.406593	-0.005411	-0.088877
N95	N	0.379924	-0.058339	-0.128043
H96	H	0.410641	-0.100191	-0.159679
H97	H	0.906187	0.007955	0.328185
N98	N	0.487461	-0.040231	-0.000178
N99	N	0.422774	-0.041369	-0.000193
H100	H	0.402604	-0.097054	-0.000189
H101	H	0.837031	-0.027001	0.428314
N102	N	0.838915	-0.042852	0.579446
N103	N	0.838908	-0.042842	0.649803
H104	H	0.845465	-0.098048	0.678239
N105	N	0.454012	0.269263	-0.000200
N106	N	0.478970	0.338183	-0.000199
H107	H	0.446871	0.392951	-0.000207
N108	N	0.915923	-0.004007	0.663156
N109	N	0.958031	-0.055200	0.698328
H110	H	0.992015	-0.096626	0.669902
H111	H	0.734788	0.215724	0.185289
N112	N	0.916008	-0.003913	0.822427
N113	N	0.958173	-0.055033	0.787223
H114	H	0.992250	-0.096351	0.815625
N115	N	0.725059	0.227599	0.822513
N116	N	0.725067	0.227592	0.892870
H117	H	0.690994	0.268893	0.921314
H118	H	0.734837	0.215740	0.671378
N119	N	0.380862	0.231699	0.088451
N120	N	0.342832	0.283481	0.127605
H121	H	0.364367	0.326254	0.159254
N122	N	0.633915	-0.037651	-0.000143
N123	N	0.608955	-0.106569	-0.000142
H124	H	0.641052	-0.161338	-0.000129
H125	H	0.804006	0.250702	0.571244
N126	N	0.600445	0.271862	-0.000186
N127	N	0.560702	0.339630	-0.000201
H128	H	0.580852	0.395328	-0.000205
N129	N	0.725023	0.227587	0.336426
N130	N	0.725036	0.227583	0.406783
H131	H	0.690965	0.268887	0.435228
H132	H	0.147754	0.247939	-0.000257
