data_functionalizedCrystal
_audit_creation_method	'MofGen! by Chris Wilmer'
_symmetry_space_group_name_H-M	'P1'
_symmetry_Int_Tables_number	1
_symmetry_cell_setting	triclinic
loop_
_symmetry_equiv_pos_as_xyz
  x,y,z
_cell_length_a	16.974800
_cell_length_b	15.021413
_cell_length_c	16.992695
_cell_angle_alpha	89.996007
_cell_angle_beta	87.021674
_cell_angle_gamma	86.350491
loop_
_atom_site_label
_atom_site_type_symbol
_atom_site_fract_x
_atom_site_fract_y
_atom_site_fract_z
O1	O	1.055459	-0.002038	0.099874
O2	O	1.555459	0.497962	0.599874
O3	O	0.826058	0.014497	0.112612
O4	O	1.326058	0.514497	0.612612
O5	O	0.939839	0.006289	-0.007899
O6	O	1.439839	0.506289	0.492101
O7	O	0.941678	0.006170	0.220384
O8	O	1.441678	0.506170	0.720384
O9	O	0.939821	-0.141774	-0.007882
O10	O	1.439821	0.358226	0.492118
O11	O	0.826040	-0.133566	0.112629
O12	O	1.326040	0.366434	0.612629
O13	O	1.055441	-0.150101	0.099891
O14	O	1.555441	0.349899	0.599891
Zn15	Zn	0.940738	-0.165342	0.106263
Zn16	Zn	1.440738	0.334658	0.606263
Zn17	Zn	0.940762	0.029738	0.106240
Zn18	Zn	1.440762	0.529738	0.606240
O19	O	0.941660	-0.141893	0.220401
O20	O	1.441660	0.358107	0.720401
C21	C	0.796560	-0.057409	0.112137
C22	C	1.296560	0.442591	0.612137
C23	C	0.708692	-0.051075	0.110689
C24	C	1.208692	0.448925	0.610689
C25	C	0.667407	-0.128811	0.110016
C26	C	1.167407	0.371189	0.610016
C27	C	0.584846	-0.122862	0.108643
C28	C	1.084846	0.377138	0.608643
C29	C	0.543573	-0.039177	0.107948
C30	C	1.043573	0.460823	0.607948
C31	C	0.584864	0.038564	0.108619
C32	C	1.084864	0.538564	0.608619
C33	C	0.667424	0.032615	0.109987
C34	C	1.167424	0.532615	0.609987
C35	C	0.296658	-0.012729	0.103852
C36	C	0.796658	0.487271	0.603852
C37	C	0.214093	-0.006786	0.102486
C38	C	0.714093	0.493214	0.602486
C39	C	0.214080	-0.168213	0.102509
C40	C	0.714080	0.331787	0.602509
C41	C	0.296641	-0.174155	0.103881
C42	C	0.796641	0.325845	0.603881
C43	C	0.337926	-0.096413	0.104548
C44	C	0.837926	0.403587	0.604548
N45	N	0.459183	-0.033095	0.106547
N46	N	0.959183	0.466905	0.606547
N47	N	0.422315	-0.102497	0.105943
N48	N	0.922315	0.397503	0.605943
N49	N	0.940727	-0.298478	0.106278
N50	N	1.440727	0.201522	0.606278
C51	C	0.888104	-0.534365	0.161976
C52	C	1.388104	-0.034365	0.661976
C53	C	0.960508	-0.598918	0.177113
C54	C	1.460508	-0.098918	0.677113
C55	C	0.940746	-0.480087	0.106258
C56	C	1.440746	0.019913	0.606258
C57	C	0.868363	-0.592278	0.091138
C58	C	1.368363	-0.092278	0.591138
C59	C	0.940758	-0.655512	0.106241
C60	C	1.440758	-0.155512	0.606241
C61	C	1.013188	-0.543335	0.121430
C62	C	1.513188	-0.043335	0.621430
C63	C	0.920993	-0.536687	0.035425
C64	C	1.420993	-0.036687	0.535425
C65	C	0.993447	-0.601216	0.050532
C66	C	1.493447	-0.101216	0.550532
C67	C	0.940738	-0.379029	0.106270
C68	C	1.440738	0.120971	0.606270
C69	C	0.940774	-0.756568	0.106228
C70	C	1.440774	-0.256568	0.606228
C71	C	1.084939	-0.078194	0.100365
C72	C	1.584939	0.421806	0.600365
C73	C	1.172807	-0.084521	0.101813
C74	C	1.672807	0.415479	0.601813
C75	C	0.937464	-0.067572	-0.037100
C76	C	1.437464	0.432428	0.462900
C77	C	0.930404	-0.067063	-0.124137
C78	C	1.430404	0.432937	0.375863
N79	N	0.940778	0.162874	0.106219
N80	N	1.440778	0.662874	0.606219
C81	C	0.998520	-0.071974	-0.174453
C82	C	1.498520	0.428026	0.325547
C83	C	0.991882	-0.071487	-0.256233
C84	C	1.491882	0.428513	0.243767
C85	C	0.917128	-0.066095	-0.287693
C86	C	1.417128	0.433905	0.212307
C87	C	0.849008	-0.061182	-0.237370
C88	C	1.349008	0.438818	0.262630
C89	C	0.855646	-0.061662	-0.155592
C90	C	1.355646	0.438338	0.344408
C91	C	0.889613	-0.064100	-0.531260
C92	C	1.389613	0.435900	-0.031260
C93	C	0.882980	-0.063622	-0.613044
C94	C	1.382980	0.436378	-0.113044
C95	C	1.025855	-0.073926	-0.631901
C96	C	1.525855	0.426074	-0.131901
C97	C	1.032487	-0.074412	-0.550121
C98	C	1.532487	0.425588	-0.050121
C99	C	0.964366	-0.069493	-0.499805
C100	C	1.464366	0.430507	0.000195
N101	N	0.910341	-0.065600	-0.371284
N102	N	1.410341	0.434400	0.128716
N103	N	0.971154	-0.069982	-0.416215
N104	N	1.471154	0.430018	0.083785
C105	C	0.944035	-0.068030	0.249603
C106	C	1.444035	0.431970	0.749603
C107	C	0.951095	-0.068533	0.336639
C108	C	1.451095	0.431467	0.836639
H109	H	0.180457	-0.231505	0.101965
H110	H	0.680457	0.268495	0.601965
F111	F	0.783149	-0.056433	-0.102041
F112	F	1.283149	0.443567	0.397959
H113	H	0.807144	-0.613951	0.078358
H114	H	1.307144	-0.113951	0.578358
F115	F	0.899115	-0.500987	-0.042837
F116	F	1.399115	-0.000987	0.457163
H117	H	1.047349	-0.075488	-0.297198
H118	H	1.547349	0.424512	0.202802
F119	F	1.078083	-0.077721	-0.140979
F120	F	1.578083	0.422279	0.359021
F121	F	0.540938	0.127629	0.107856
F122	F	1.040938	0.627629	0.607856
F123	F	0.803413	-0.057888	-0.646524
F124	F	1.303413	0.442112	-0.146524
H125	H	0.843638	-0.505142	0.209132
H126	H	1.343638	-0.005142	0.709132
F127	F	0.711325	-0.217880	0.110761
F128	F	1.211325	0.282120	0.610761
F129	F	0.711363	0.115352	0.110700
F130	F	1.211363	0.615352	0.610700
F131	F	1.098348	-0.079159	-0.685456
F132	F	1.598348	0.420841	-0.185456
H133	H	0.834145	-0.060095	-0.490302
H134	H	1.334145	0.439905	0.009698
H135	H	0.180490	0.061364	0.101923
H136	H	0.680490	0.561364	0.601923
F137	F	0.340561	-0.263224	0.104625
F138	F	0.840561	0.236776	0.604625
H139	H	1.038021	-0.630284	0.003403
H140	H	1.538021	-0.130284	0.503403
F141	F	0.982361	-0.634587	0.255398
F142	F	1.482361	-0.134587	0.755398
F143	F	1.093230	-0.515159	0.138227
F144	F	1.593230	-0.015159	0.638227
H145	H	0.330262	0.050573	0.104392
H146	H	0.830262	0.550573	0.604392
H147	H	1.093359	-0.078802	-0.524513
H148	H	1.593359	0.421198	-0.024513
F149	F	0.540910	-0.205599	0.107938
F150	F	1.040910	0.294401	0.607938
H151	H	0.788141	-0.056786	-0.262991
H152	H	1.288141	0.443214	0.237009
