data_functionalizedCrystal
_audit_creation_method	'MofGen! by Chris Wilmer'
_symmetry_space_group_name_H-M	'P1'
_symmetry_Int_Tables_number	1
_symmetry_cell_setting	triclinic
loop_
_symmetry_equiv_pos_as_xyz
  x,y,z
_cell_length_a	17.019282
_cell_length_b	15.500215
_cell_length_c	10.654550
_cell_angle_alpha	86.843021
_cell_angle_beta	96.064404
_cell_angle_gamma	89.309895
loop_
_atom_site_label
_atom_site_type_symbol
_atom_site_fract_x
_atom_site_fract_y
_atom_site_fract_z
O1	O	1.047275	-0.006110	-0.159461
O2	O	0.818504	0.010942	-0.181115
O3	O	0.938149	0.002021	0.012563
O4	O	0.927630	0.002811	-0.353139
O5	O	0.931562	-0.141378	0.022935
O6	O	0.811916	-0.132457	-0.170743
O7	O	1.040688	-0.149508	-0.149089
Cu8	Cu	0.925701	-0.154076	-0.158969
Cu9	Cu	0.933491	0.015509	-0.171235
O10	O	0.921042	-0.140587	-0.342767
C11	C	0.785917	-0.058574	-0.175315
C12	C	0.698632	-0.052068	-0.173473
N13	N	0.920227	-0.273353	-0.150341
C14	C	0.966249	-0.322055	-0.222942
C15	C	0.962120	-0.412321	-0.216409
C16	C	0.911964	-0.453882	-0.137280
C17	C	0.865940	-0.405174	-0.064671
C18	C	0.870074	-0.314910	-0.071198
C19	C	0.897081	-0.726242	-0.113771
C20	C	0.892948	-0.816512	-0.107252
C21	C	0.989130	-0.823652	-0.258989
C22	C	0.993256	-0.733386	-0.265515
C23	C	0.947235	-0.684686	-0.192900
C24	C	0.907740	-0.546148	-0.130603
C25	C	0.951464	-0.592422	-0.199571
C26	C	0.654040	-0.127180	-0.166950
C27	C	0.572028	-0.121070	-0.165199
C28	C	0.534610	-0.039847	-0.169979
C29	C	0.579208	0.035271	-0.176499
C30	C	0.661219	0.029160	-0.178241
C31	C	0.287170	-0.017484	-0.164993
C32	C	0.205152	-0.011378	-0.163254
C33	C	0.197978	-0.167720	-0.151952
C34	C	0.279990	-0.173824	-0.153703
C35	C	0.324582	-0.098707	-0.160215
C36	C	0.450780	-0.033599	-0.168193
C37	C	0.408411	-0.104955	-0.161992
C38	C	1.073275	-0.079990	-0.154889
C39	C	1.160560	-0.086491	-0.156731
C40	C	0.934083	-0.069620	0.064531
C41	C	0.931772	-0.069445	0.203925
N42	N	0.938971	0.134787	-0.179853
C43	C	0.925109	-0.068945	-0.394735
C44	C	0.927420	-0.069114	-0.534129
C45	C	1.002218	-0.074698	0.284903
C46	C	1.000042	-0.074530	0.415877
C47	C	0.856969	-0.063858	0.384882
C48	C	0.859146	-0.064020	0.253910
C49	C	1.074844	-0.080122	0.234918
C50	C	1.145295	-0.085377	0.315898
C51	C	1.143120	-0.085209	0.446872
C52	C	1.070493	-0.079786	0.496867
H53	H	1.007087	-0.288222	-0.287385
O54	O	1.006709	-0.459720	-0.286997
C55	C	0.956849	-0.508388	-0.369228
H56	H	0.897691	-0.517558	-0.329535
H57	H	0.985621	-0.574217	-0.378419
H58	H	0.946918	-0.472747	-0.466222
H59	H	0.801783	-0.059744	0.187974
H60	H	0.866903	-0.579997	-0.066177
H61	H	0.684499	-0.193321	-0.163068
O62	O	0.330425	0.055511	-0.171549
C63	C	0.304237	0.105190	-0.283302
H64	H	0.273788	0.061565	-0.355533
H65	H	0.357005	0.136848	-0.323511
H66	H	0.260743	0.157330	-0.261229
O67	O	0.528824	-0.194120	-0.158923
C68	C	0.579438	-0.267119	-0.155056
H69	H	0.635910	-0.248328	-0.197711
H70	H	0.548570	-0.319673	-0.211571
H71	H	0.594761	-0.292387	-0.052765
O72	O	0.844316	-0.856851	-0.030191
C73	C	0.866409	-0.836357	0.095816
H74	H	0.930875	-0.816255	0.106561
H75	H	0.858776	-0.895357	0.161857
H76	H	0.827442	-0.780888	0.120925
H77	H	1.076624	-0.080262	0.128274
H78	H	0.992303	-0.558579	-0.263993
H79	H	0.310450	-0.239965	-0.149804
H80	H	0.161662	-0.228876	-0.146648
O81	O	0.168747	0.067506	-0.168114
C82	C	0.113196	0.076328	-0.276186
H83	H	0.130072	0.030570	-0.349519
H84	H	0.112641	0.145745	-0.317666
H85	H	0.051959	0.059805	-0.248767
O86	O	0.542991	0.114240	-0.181103
C87	C	0.599937	0.179226	-0.187268
H88	H	0.660383	0.151728	-0.147086
H89	H	0.583410	0.235318	-0.129764
H90	H	0.602064	0.203180	-0.289935
H91	H	1.204427	-0.089771	0.275182
O92	O	0.704611	0.102062	-0.184748
C93	C	0.743935	0.103837	-0.294864
H94	H	0.750329	0.035260	-0.326475
H95	H	0.804995	0.132481	-0.274019
H96	H	0.708279	0.145205	-0.373137
H97	H	1.026598	-0.863314	-0.318106
O98	O	0.414485	0.045320	-0.172635
C99	C	0.445034	0.090781	-0.067773
H100	H	0.471293	0.042939	0.011080
H101	H	0.395517	0.130050	-0.032698
H102	H	0.492993	0.136116	-0.096907
O103	O	0.444857	-0.183805	-0.157186
C104	C	0.500382	-0.192648	-0.049084
H105	H	0.518550	-0.125902	-0.017987
H106	H	0.554667	-0.229880	-0.072379
H107	H	0.472830	-0.229313	0.030527
H108	H	1.034101	-0.699554	-0.329946
O109	O	1.211623	-0.090352	0.525361
C110	C	1.276188	-0.095151	0.453149
H111	H	1.255518	-0.120853	0.357211
H112	H	1.323676	-0.140468	0.504843
H113	H	1.301580	-0.028014	0.439003
O114	O	1.068273	-0.079726	0.624082
C115	C	1.024913	-0.151024	0.664727
H116	H	0.983258	-0.172768	0.581998
H117	H	0.989058	-0.131587	0.743522
H118	H	1.067359	-0.206369	0.701528
H119	H	0.859607	-0.686600	-0.054642
O120	O	0.825325	-0.267501	-0.000864
C121	C	0.774477	-0.211342	-0.081551
H122	H	0.800065	-0.199672	-0.175553
H123	H	0.768355	-0.147199	-0.035711
H124	H	0.713896	-0.241741	-0.098633
H125	H	0.797839	-0.059444	0.425598
H126	H	0.825106	-0.439021	-0.000236
