data_functionalizedCrystal
_audit_creation_method	'MofGen! by Chris Wilmer'
_symmetry_space_group_name_H-M	'P1'
_symmetry_Int_Tables_number	1
_symmetry_cell_setting	triclinic
loop_
_symmetry_equiv_pos_as_xyz
  x,y,z
_cell_length_a	17.699097
_cell_length_b	13.262508
_cell_length_c	16.776229
_cell_angle_alpha	105.911687
_cell_angle_beta	89.989262
_cell_angle_gamma	83.885149
loop_
_atom_site_label
_atom_site_type_symbol
_atom_site_fract_x
_atom_site_fract_y
_atom_site_fract_z
O1	O	1.004664	0.132793	-0.037562
O2	O	0.784364	0.150046	-0.033808
O3	O	0.900059	-0.011381	-0.068811
O4	O	0.888968	0.294220	-0.002559
O5	O	0.900044	-0.011391	0.063764
O6	O	0.784348	0.150036	0.098766
O7	O	1.004648	0.132783	0.095012
Zn8	Zn	0.894496	0.141408	0.117938
Zn9	Zn	0.894516	0.141421	-0.056734
O10	O	0.888953	0.294210	0.130015
C11	C	0.756156	0.149421	0.032346
C12	C	0.672130	0.147559	0.031948
C13	C	0.156370	0.136152	-0.042825
C14	C	0.235322	0.137895	-0.042443
C15	C	0.274783	0.138762	0.030015
C16	C	0.235289	0.137876	0.102095
C17	C	0.156340	0.136127	0.101711
C18	C	0.553685	0.144931	0.103645
C19	C	0.632640	0.146684	0.104025
C20	C	0.632667	0.146699	-0.040509
C21	C	0.553717	0.144949	-0.040893
C22	C	0.514231	0.144058	0.031185
C23	C	0.428623	0.142167	0.030770
C24	C	0.360389	0.140660	0.030433
C25	C	0.899431	-0.050487	-0.011002
C26	C	0.897574	-0.166996	-0.036265
C27	C	0.892300	-0.495450	0.181598
C28	C	0.894039	-0.385983	0.205335
C29	C	0.894923	-0.331231	0.144937
C30	C	0.894067	-0.385957	0.060799
C31	C	0.892321	-0.495434	0.037060
C32	C	0.894945	-0.331214	0.000399
C33	C	0.894089	-0.385940	-0.083740
C34	C	0.892344	-0.495406	-0.107475
C35	C	0.891460	-0.550158	-0.047077
C36	C	0.896690	-0.221738	0.024137
C37	C	0.896712	-0.221721	-0.120401
C38	C	0.894973	-0.331188	-0.144138
C39	C	1.032856	0.133408	0.028856
C40	C	1.116881	0.135270	0.029250
C41	C	0.889581	0.333316	0.072204
C42	C	0.891438	0.449825	0.097462
N43	N	0.894487	0.141398	0.237147
N44	N	0.894530	0.141422	-0.175945
C45	C	0.945733	0.069948	0.263372
C46	C	0.945737	0.069947	0.346824
C47	C	0.894499	0.141402	0.404051
C48	C	0.843247	0.212857	0.377822
C49	C	0.843240	0.212852	0.294370
C50	C	0.843275	0.212877	0.714373
C51	C	0.843288	0.212879	0.797830
C52	C	0.945772	0.069972	0.766827
C53	C	0.945765	0.069967	0.683375
C54	C	0.894511	0.141417	0.657152
C55	C	0.894506	0.141416	0.566664
C56	C	0.894507	0.141410	0.494540
H57	H	0.267426	0.138576	0.161091
Br58	Br	0.773702	0.309827	0.455483
H59	H	0.894275	-0.375761	-0.212645
Br60	Br	0.897280	-0.182665	0.177152
H61	H	0.801510	0.271033	0.273020
H62	H	0.267470	0.138606	-0.101135
Br63	Br	0.500104	0.143750	0.201471
Br64	Br	0.686260	0.147904	-0.138332
Br65	Br	1.015283	-0.027027	0.382416
H66	H	0.987461	0.011765	0.216782
H67	H	0.897426	-0.177141	-0.169582
Br68	Br	0.500165	0.143780	-0.139231
H69	H	0.987490	0.011785	0.636783
H70	H	0.987503	0.011791	0.788185
Br71	Br	0.686195	0.147863	0.202369
H72	H	0.801560	0.271068	0.844426
H73	H	0.891640	-0.539959	-0.175985
Br74	Br	0.891081	-0.569756	0.263557
Br75	Br	0.773720	0.309844	0.678789
Br76	Br	0.102749	0.134915	0.199527
Br77	Br	0.895184	-0.311717	0.319518
H78	H	0.124245	0.135454	-0.101828
Br79	Br	0.889102	-0.698728	-0.079288
H80	H	0.897380	-0.177189	0.092644
