data_functionalizedCrystal
_audit_creation_method	'MofGen! by Chris Wilmer'
_symmetry_space_group_name_H-M	'P1'
_symmetry_Int_Tables_number	1
_symmetry_cell_setting	triclinic
loop_
_symmetry_equiv_pos_as_xyz
  x,y,z
_cell_length_a	14.519709
_cell_length_b	12.996460
_cell_length_c	10.723023
_cell_angle_alpha	90.004801
_cell_angle_beta	95.926154
_cell_angle_gamma	90.000558
loop_
_atom_site_label
_atom_site_type_symbol
_atom_site_fract_x
_atom_site_fract_y
_atom_site_fract_z
O1	O	-1.224704	0.085417	0.163577
O2	O	-0.891371	0.418750	0.496910
O3	O	-0.558037	0.752084	0.830243
O4	O	-0.956325	0.085451	0.182840
O5	O	-0.622992	0.418784	0.516173
O6	O	-0.289659	0.752118	0.849506
O7	O	-1.096706	0.085430	-0.008426
O8	O	-0.763372	0.418763	0.324907
O9	O	-0.430039	0.752097	0.658241
O10	O	-1.084324	0.085438	0.354842
O11	O	-0.750990	0.418772	0.688176
O12	O	-0.417657	0.752105	1.021509
O13	O	-1.096691	-0.085704	-0.008437
O14	O	-0.763357	0.247629	0.324897
O15	O	-0.430024	0.580963	0.658230
O16	O	-0.956311	-0.085683	0.182829
O17	O	-0.622977	0.247651	0.516162
O18	O	-0.289644	0.580984	0.849496
O19	O	-1.224689	-0.085717	0.163566
O20	O	-0.891356	0.247617	0.496899
O21	O	-0.558022	0.580950	0.830233
Cu22	Cu	-1.090498	-0.101326	0.173197
Cu23	Cu	-0.757165	0.232008	0.506530
Cu24	Cu	-0.423832	0.565341	0.839863
Cu25	Cu	-1.090516	0.101060	0.173209
Cu26	Cu	-0.757183	0.434393	0.506543
Cu27	Cu	-0.423849	0.767727	0.839876
O28	O	-1.084309	-0.085696	0.354832
O29	O	-0.750976	0.247638	0.688165
O30	O	-0.417642	0.580971	1.021498
C31	C	-0.921954	-0.000112	0.181937
C32	C	-0.588620	0.333222	0.515270
C33	C	-0.255287	0.666555	0.848603
C34	C	-0.819559	-0.000099	0.179247
C35	C	-0.486225	0.333235	0.512580
C36	C	-0.152892	0.666568	0.845913
N37	N	-1.090493	-0.243673	0.173187
N38	N	-0.757160	0.089661	0.506520
N39	N	-0.423826	0.422994	0.839854
C40	C	-1.090515	-0.663487	0.173210
C41	C	-0.757181	-0.330154	0.506544
C42	C	-0.423848	0.003180	0.839877
C43	C	-1.090506	-0.546682	0.173208
C44	C	-0.757173	-0.213349	0.506541
C45	C	-0.423839	0.119985	0.839875
C46	C	-1.090504	-0.453584	0.173200
C47	C	-0.757171	-0.120250	0.506533
C48	C	-0.423838	0.213083	0.839866
C49	C	-1.090495	-0.336771	0.173195
C50	C	-0.757161	-0.003438	0.506529
C51	C	-0.423828	0.329896	0.839862
C52	C	-0.444612	-0.000142	0.169343
C53	C	-0.111279	0.333192	0.502676
C54	C	0.222054	0.666525	0.836009
C55	C	-0.548934	-0.000129	0.172093
C56	C	-0.215601	0.333204	0.505426
C57	C	0.117732	0.666537	0.838760
C58	C	-0.632082	-0.000119	0.174294
C59	C	-0.298749	0.333214	0.507628
C60	C	0.034585	0.666547	0.840961
C61	C	-0.736411	-0.000109	0.177045
C62	C	-0.403077	0.333225	0.510379
C63	C	-0.069744	0.666558	0.843712
C64	C	-0.259061	-0.000149	0.164469
C65	C	0.074272	0.333184	0.497802
C66	C	0.407606	0.666517	0.831136
C67	C	-0.361456	-0.000148	0.167159
C68	C	-0.028123	0.333186	0.500493
C69	C	0.305211	0.666519	0.833826
C70	C	-1.095797	-0.000136	-0.054922
C71	C	-0.762464	0.333198	0.278411
C72	C	-0.429131	0.666531	0.611744
C73	C	-1.093102	-0.000131	-0.193452
C74	C	-0.759768	0.333202	0.139882
C75	C	-0.426435	0.666535	0.473215
N76	N	-1.090529	0.243407	0.173209
N77	N	-0.757195	0.576740	0.506542
N78	N	-0.423862	0.910074	0.839876
C79	C	-1.089122	0.088525	-0.398370
C80	C	-0.755789	0.421858	-0.065037
C81	C	-0.422455	0.755192	0.268296
C82	C	-1.091908	0.088523	-0.255193
C83	C	-0.758575	0.421856	0.078140
C84	C	-0.425241	0.755189	0.411473
C85	C	-1.085217	-0.000128	0.401328
C86	C	-0.751884	0.333206	0.734662
C87	C	-0.418551	0.666539	1.067995
C88	C	-1.087913	-0.000125	0.539857
C89	C	-0.754579	0.333208	0.873191
C90	C	-0.421246	0.666541	1.206524
H91	H	-1.088100	0.164424	-0.451484
H92	H	-0.754767	0.497757	-0.118151
H93	H	-0.421434	0.831090	0.215183
C94	C	-1.093317	0.191057	-0.183440
C95	C	-0.759984	0.524390	0.149893
C96	C	-0.426651	0.857724	0.483227
H97	H	-1.095013	0.177604	-0.096624
H98	H	-0.761679	0.510938	0.236709
H99	H	-0.428346	0.844271	0.570043
H100	H	-1.039224	0.229423	-0.195312
H101	H	-0.705890	0.562756	0.138021
H102	H	-0.372557	0.896089	0.471354
H103	H	-1.146602	0.229397	-0.214105
H104	H	-0.813269	0.562730	0.119228
H105	H	-0.479936	0.896064	0.452561
C106	C	-1.091694	-0.102672	-0.265191
C107	C	-0.758361	0.230661	0.068142
C108	C	-0.425028	0.563994	0.401475
H109	H	-1.092798	-0.158292	-0.207880
H110	H	-0.759464	0.175041	0.125453
H111	H	-0.426131	0.508374	0.458787
H112	H	-1.144389	-0.106505	-0.325373
H113	H	-0.811056	0.226828	0.007961
H114	H	-0.477723	0.560161	0.341294
H115	H	-1.037011	-0.106486	-0.306571
H116	H	-0.703677	0.226847	0.026762
H117	H	-0.370344	0.560180	0.360096
H118	H	-1.088944	-0.076024	-0.407031
H119	H	-0.755611	0.257309	-0.073698
H120	H	-0.422278	0.590643	0.259636
