data_functionalizedCrystal
_audit_creation_method	'MofGen! by Chris Wilmer'
_symmetry_space_group_name_H-M	'P1'
_symmetry_Int_Tables_number	1
_symmetry_cell_setting	triclinic
loop_
_symmetry_equiv_pos_as_xyz
  x,y,z
_cell_length_a	12.645331
_cell_length_b	18.050590
_cell_length_c	12.645324
_cell_angle_alpha	89.962529
_cell_angle_beta	89.983975
_cell_angle_gamma	90.017788
loop_
_atom_site_label
_atom_site_type_symbol
_atom_site_fract_x
_atom_site_fract_y
_atom_site_fract_z
Zn1	Zn	1.620728	-0.295618	-0.599208
Zn2	Zn	1.620606	-0.419832	-0.421930
Zn3	Zn	1.443442	-0.295659	-0.421974
Zn4	Zn	1.443422	-0.419769	-0.599167
O5	O	1.532049	-0.357720	-0.510570
O6	O	1.769059	-0.312105	-0.575691
O7	O	1.597062	-0.403404	-0.273589
O8	O	1.467018	-0.191729	-0.445520
O9	O	1.768969	-0.403364	-0.445446
O10	O	1.597270	-0.191699	-0.575733
O11	O	1.466900	-0.312174	-0.273621
O12	O	1.295092	-0.312113	-0.445480
O13	O	1.466984	-0.403257	-0.747520
O14	O	1.295077	-0.403296	-0.575663
O15	O	1.597250	-0.312044	-0.747550
O16	O	1.597043	-0.523748	-0.445406
O17	O	1.466866	-0.523702	-0.575621
C18	C	1.256620	-0.357703	-0.510573
C19	C	1.138789	-0.357714	-0.510599
C20	C	0.971252	-0.415392	-0.592070
C21	C	1.093812	-0.415205	-0.592411
C22	C	1.094313	-0.279491	-0.541131
C23	C	0.971715	-0.279843	-0.541705
C24	C	0.971543	-0.377628	-0.398337
C25	C	1.094149	-0.379338	-0.398942
C26	C	1.531968	-0.550672	-0.510528
C27	C	1.532030	-0.633218	-0.510545
C28	C	1.602967	-0.832666	-0.439833
C29	C	1.628868	-0.881988	-0.536583
C30	C	1.532090	-0.784348	-0.510587
C31	C	1.506297	-0.882107	-0.413881
C32	C	1.532150	-0.930333	-0.510620
C33	C	1.558040	-0.832583	-0.607388
C34	C	1.435425	-0.832697	-0.484621
C35	C	1.461289	-0.881997	-0.581438
C36	C	1.532058	-0.700250	-0.510567
C37	C	1.532182	-1.014429	-0.510651
C38	C	1.808554	-0.357737	-0.510568
C39	C	1.926384	-0.357744	-0.510567
C40	C	1.532129	-0.357639	-0.787075
C41	C	1.532163	-0.357604	-0.904905
C42	C	1.532160	-0.164014	-0.510636
C43	C	1.532207	-0.081468	-0.510663
C44	C	1.614432	-0.300388	-1.072488
C45	C	1.614168	-0.300182	-0.949928
C46	C	1.420481	-0.336336	-0.949400
C47	C	1.420980	-0.335902	-1.071999
C48	C	1.560668	-0.436172	-1.072089
C49	C	1.563112	-0.435777	-0.949483
C50	C	1.532031	-0.357746	-0.235140
C51	C	1.532203	-0.357572	-0.117311
H52	H	0.942526	-0.335638	-0.337609
H53	H	1.357628	-0.375739	-1.101648
H54	H	1.401376	-0.903521	-0.641355
H55	H	1.500782	-0.478780	-1.101083
H56	H	1.484457	-0.903860	-0.332084
H57	H	1.125039	-0.262320	-0.622288
H58	H	1.662926	-0.811005	-0.380060
H59	H	1.645300	-0.451815	-0.920400
H60	H	1.123230	-0.436899	-0.375914
H61	H	1.710642	-0.903642	-0.558566
H62	H	1.123161	-0.402046	-0.675569
H63	H	1.123883	-0.473211	-0.573274
H64	H	1.357546	-0.376706	-0.920235
H65	H	1.124766	-0.340398	-0.334957
H66	H	0.943141	-0.262979	-0.623751
H67	H	0.941759	-0.473590	-0.573145
H68	H	1.353675	-0.811028	-0.462609
H69	H	1.579800	-0.810922	-0.689255
H70	H	0.942035	-0.235352	-0.485065
H71	H	1.696982	-0.313501	-0.919846
H72	H	1.697520	-0.313541	-1.101969
H73	H	1.395909	-0.279521	-0.918716
H74	H	1.595827	-0.242485	-1.103322
H75	H	1.123446	-0.235372	-0.483623
H76	H	1.595321	-0.241956	-0.920626
H77	H	0.940461	-0.402402	-0.674745
H78	H	0.940620	-0.433695	-0.370587
H79	H	1.396851	-0.278445	-1.100619
H80	H	1.640683	-0.455535	-1.103062
H81	H	1.507573	-0.480676	-0.918831
