data_functionalizedCrystal
_audit_creation_method	'MofGen! by Chris Wilmer'
_symmetry_space_group_name_H-M	'P1'
_symmetry_Int_Tables_number	1
_symmetry_cell_setting	triclinic
loop_
_symmetry_equiv_pos_as_xyz
  x,y,z
_cell_length_a	21.295418
_cell_length_b	21.295417
_cell_length_c	21.295411
_cell_angle_alpha	90.021644
_cell_angle_beta	90.043738
_cell_angle_gamma	90.046319
loop_
_atom_site_label
_atom_site_type_symbol
_atom_site_fract_x
_atom_site_fract_y
_atom_site_fract_z
Zn1	Zn	0.962356	-0.250415	0.356234
Zn2	Zn	1.295689	0.082918	0.689567
Zn3	Zn	1.629022	0.416251	1.022900
Zn4	Zn	0.962258	-0.355667	0.250959
Zn5	Zn	1.295592	-0.022334	0.584292
Zn6	Zn	1.628925	0.311000	0.917626
Zn7	Zn	0.857079	-0.250445	0.250943
Zn8	Zn	1.190412	0.082889	0.584277
Zn9	Zn	1.523746	0.416222	0.917610
Zn10	Zn	0.857048	-0.355680	0.356155
Zn11	Zn	1.190382	-0.022346	0.689489
Zn12	Zn	1.523715	0.310987	1.022822
O13	O	0.909685	-0.303052	0.303573
O14	O	1.243019	0.030282	0.636906
O15	O	1.576352	0.363615	0.970240
O16	O	1.050432	-0.264360	0.342308
O17	O	1.383766	0.068974	0.675641
O18	O	1.717099	0.402307	1.008975
O19	O	0.948278	-0.341716	0.162867
O20	O	1.281611	-0.008383	0.496201
O21	O	1.614945	0.324950	0.829534
O22	O	0.871098	-0.162351	0.264937
O23	O	1.204431	0.170982	0.598270
O24	O	1.537764	0.504315	0.931603
O25	O	1.050361	-0.341688	0.264963
O26	O	1.383694	-0.008354	0.598296
O27	O	1.717027	0.324979	0.931630
O28	O	0.948444	-0.162330	0.342293
O29	O	1.281778	0.171004	0.675626
O30	O	1.615111	0.504337	1.008960
O31	O	0.871003	-0.264410	0.162856
O32	O	1.204337	0.068923	0.496189
O33	O	1.537670	0.402257	0.829523
O34	O	0.768985	-0.264422	0.264861
O35	O	1.102319	0.068911	0.598194
O36	O	1.435652	0.402245	0.931527
O37	O	0.871046	-0.341709	0.444255
O38	O	1.204379	-0.008376	0.777589
O39	O	1.537712	0.324958	1.110922
O40	O	0.768963	-0.341738	0.342160
O41	O	1.102296	-0.008404	0.675493
O42	O	1.435630	0.324929	1.008826
O43	O	0.948415	-0.264372	0.444313
O44	O	1.281748	0.068962	0.777646
O45	O	1.615081	0.402295	1.110979
O46	O	0.948248	-0.443758	0.264887
O47	O	1.281582	-0.110425	0.598221
O48	O	1.614915	0.222909	0.931554
O49	O	0.870951	-0.443767	0.342175
O50	O	1.204284	-0.110434	0.675508
O51	O	1.537618	0.222899	1.008841
C52	C	0.746134	-0.303085	0.303500
C53	C	1.079467	0.030249	0.636834
C54	C	1.412800	0.363582	0.970167
C55	C	0.676166	-0.303114	0.303484
C56	C	1.009499	0.030219	0.636818
C57	C	1.342832	0.363553	0.970151
C58	C	0.643304	-0.343426	0.343674
C59	C	0.976637	-0.010092	0.677007
C60	C	1.309970	0.323241	1.010340
C61	C	0.577561	-0.343410	0.343702
C62	C	0.910894	-0.010077	0.677035
C63	C	1.244228	0.323257	1.010369
C64	C	0.544683	-0.303090	0.303530
C65	C	0.878016	0.030244	0.636863
C66	C	1.211350	0.363577	0.970196
C67	C	0.577553	-0.262770	0.263337
C68	C	0.910886	0.070563	0.596671
C69	C	1.244220	0.403896	0.930004
C70	C	0.643294	-0.262783	0.263315
C71	C	0.976627	0.070551	0.596648
C72	C	1.309961	0.403884	0.929982
N73	N	0.441407	-0.298163	0.248472
N74	N	0.774740	0.035171	0.581805
N75	N	1.108074	0.368504	0.915139
N76	N	0.378956	-0.298155	0.248495
N77	N	0.712289	0.035179	0.581829
N78	N	1.045622	0.368512	0.915162
C79	C	0.346608	-0.303050	0.303596
C80	C	0.679942	0.030284	0.636930
C81	C	1.013275	0.363617	0.970263
N82	N	0.379072	-0.307965	0.358675
N83	N	0.712405	0.025368	0.692008
N84	N	1.045739	0.358702	1.025341
N85	N	0.441529	-0.307976	0.358650
N86	N	0.774862	0.025357	0.691984
N87	N	1.108196	0.358691	1.025317
C88	C	0.473398	-0.303072	0.303550
C89	C	0.806731	0.030262	0.636883
C90	C	1.140064	0.363595	0.970217
C91	C	0.242461	-0.343346	0.343820
C92	C	0.575794	-0.010013	0.677153
C93	C	0.909128	0.323320	1.010486
C94	C	0.176717	-0.343326	0.343849
C95	C	0.510051	-0.009993	0.677182
C96	C	0.843384	0.323340	1.010516
C97	C	0.176710	-0.262690	0.263479
C98	C	0.510044	0.070643	0.596812
C99	C	0.843377	0.403977	0.930146
C100	C	0.242453	-0.262707	0.263455
C101	C	0.575786	0.070627	0.596789
C102	C	0.909119	0.403960	0.930122
C103	C	0.275324	-0.303038	0.303625
C104	C	0.608657	0.030295	0.636958
C105	C	0.941991	0.363628	0.970291
C106	C	0.909603	-0.466603	0.303538
C107	C	1.242936	-0.133270	0.636871
C108	C	1.576269	0.200063	0.970205
C109	C	0.909625	-0.536571	0.303544
C110	C	1.242958	-0.203238	0.636877
C111	C	1.576292	0.130095	0.970211
C112	C	0.949910	-0.569412	0.263342
C113	C	1.283243	-0.236079	0.596675
C114	C	1.616576	0.097254	0.930009
C115	C	0.949939	-0.635155	0.263356
C116	C	1.283272	-0.301822	0.596689
C117	C	1.616606	0.031512	0.930023
C118	C	0.909673	-0.668054	0.303566
C119	C	1.243006	-0.334721	0.636899
C120	C	1.576340	-0.001387	0.970233
C121	C	0.869386	-0.635205	0.343776
C122	C	1.202719	-0.301872	0.677109
C123	C	1.536052	0.031462	1.010443
C124	C	0.869362	-0.569464	0.343765
C125	C	1.202695	-0.236130	0.677098
C126	C	1.536028	0.097203	1.010432
N127	N	0.854606	-0.771336	0.308340
N128	N	1.187939	-0.438002	0.641674
N129	N	1.521272	-0.104669	0.975007
N130	N	0.854630	-0.833787	0.308347
N131	N	1.187964	-0.500454	0.641680
N132	N	1.521297	-0.167120	0.975014
C133	C	0.909743	-0.866129	0.303602
C134	C	1.243077	-0.532795	0.636935
C135	C	1.576410	-0.199462	0.970269
N136	N	0.964832	-0.833659	0.298838
N137	N	1.298166	-0.500326	0.632171
N138	N	1.631499	-0.166993	0.965504
N139	N	0.964807	-0.771202	0.298828
N140	N	1.298140	-0.437869	0.632161
N141	N	1.631474	-0.104535	0.965494
C142	C	0.909695	-0.739339	0.303582
C143	C	1.243028	-0.406006	0.636916
C144	C	1.576361	-0.072673	0.970249
C145	C	0.950063	-0.970255	0.263413
C146	C	1.283397	-0.636922	0.596746
C147	C	1.616730	-0.303588	0.930080
C148	C	0.950094	-1.035999	0.263431
C149	C	1.283427	-0.702665	0.596765
C150	C	1.616760	-0.369332	0.930098
C151	C	0.869535	-1.036048	0.343848
C152	C	1.202868	-0.702714	0.677181
C153	C	1.536201	-0.369381	1.010515
C154	C	0.869510	-0.970305	0.343833
C155	C	1.202843	-0.636972	0.677166
C156	C	1.536176	-0.303638	1.010500
C157	C	0.909773	-0.937413	0.303612
C158	C	1.243106	-0.604079	0.636945
C159	C	1.576440	-0.270746	0.970279
C160	C	1.073876	-0.303019	0.303646
C161	C	1.407209	0.030314	0.636979
C162	C	1.740542	0.363648	0.970313
C163	C	1.143844	-0.303005	0.303677
C164	C	1.477177	0.030328	0.637010
C165	C	1.810510	0.363662	0.970344
C166	C	0.909738	-0.303038	0.467763
C167	C	1.243071	0.030295	0.801097
C168	C	1.576404	0.363628	1.134430
C169	C	0.909760	-0.303033	0.537731
C170	C	1.243093	0.030301	0.871065
C171	C	1.576427	0.363634	1.204398
C172	C	0.909785	-0.138861	0.303622
C173	C	1.243119	0.194472	0.636955
C174	C	1.576452	0.527805	0.970288
C175	C	0.909828	-0.068893	0.303642
C176	C	1.243161	0.264440	0.636976
C177	C	1.576495	0.597773	0.970309
C178	C	0.909670	-0.303019	0.140021
C179	C	1.243003	0.030314	0.473355
C180	C	1.576336	0.363647	0.806688
C181	C	0.909769	-0.302848	0.070054
C182	C	1.243103	0.030486	0.403387
C183	C	1.576436	0.363819	0.736720
C184	C	0.950044	-0.262761	0.570629
C185	C	1.283377	0.070572	0.903962
C186	C	1.616711	0.403905	1.237296
C187	C	0.950043	-0.262734	0.636371
C188	C	1.283377	0.070599	0.969705
C189	C	1.616710	0.403933	1.303038
C190	C	0.909765	-0.302989	0.669214
C191	C	1.243098	0.030344	1.002547
C192	C	1.576431	0.363677	1.335881
C193	C	0.869473	-0.343263	0.636308
C194	C	1.202806	-0.009930	0.969642
C195	C	1.536139	0.323403	1.302975
C196	C	0.869470	-0.343285	0.570567
C197	C	1.202804	-0.009952	0.903900
C198	C	1.536137	0.323382	1.237234
N199	N	0.904908	-0.358058	0.772428
N200	N	1.238241	-0.024725	1.105761
N201	N	1.571575	0.308608	1.439094
N202	N	0.904914	-0.358036	0.834879
N203	N	1.238247	-0.024703	1.168213
N204	N	1.571581	0.308631	1.501546
C205	C	0.909769	-0.302926	0.867289
C206	C	1.243102	0.030408	1.200622
C207	C	1.576435	0.363741	1.533955
N208	N	0.914629	-0.247837	0.834888
N209	N	1.247963	0.085496	1.168221
N210	N	1.581296	0.418830	1.501554
N211	N	0.914627	-0.247860	0.772430
N212	N	1.247960	0.085473	1.105764
N213	N	1.581293	0.418807	1.439097
C214	C	0.909763	-0.302970	0.740499
C215	C	1.243096	0.030363	1.073833
C216	C	1.576429	0.363697	1.407166
C217	C	0.950054	-0.262621	0.971472
C218	C	1.283388	0.070712	1.304805
C219	C	1.616721	0.404045	1.638139
C220	C	0.950049	-0.262593	1.037216
C221	C	1.283382	0.070740	1.370549
C222	C	1.616716	0.404074	1.703882
C223	C	0.869482	-0.343128	1.037151
C224	C	1.202815	-0.009795	1.370485
C225	C	1.536148	0.323539	1.703818
C226	C	0.869484	-0.343151	0.971409
C227	C	1.202817	-0.009817	1.304742
C228	C	1.536150	0.323516	1.638076
C229	C	0.909773	-0.302898	0.938573
C230	C	1.243107	0.030435	1.271906
C231	C	1.576440	0.363769	1.605240
H232	H	0.982696	-0.542633	0.230593
H233	H	1.316029	-0.209300	0.563927
H234	H	1.649363	0.124033	0.897260
C235	C	0.994249	-0.671288	0.219127
C236	C	1.327582	-0.337954	0.552460
C237	C	1.660915	-0.004621	0.885794
H238	H	1.018221	-0.642282	0.195169
H239	H	1.351554	-0.308949	0.528502
H240	H	1.684887	0.024384	0.861835
H241	H	1.021675	-0.696892	0.243240
H242	H	1.355008	-0.363558	0.576573
H243	H	1.688342	-0.030225	0.909907
H244	H	0.970180	-0.696973	0.191675
H245	H	1.303513	-0.363639	0.525008
H246	H	1.636846	-0.030306	0.858341
H247	H	0.269226	-0.376183	0.376531
H248	H	0.602560	-0.042850	0.709865
H249	H	0.935893	0.290483	1.043198
H250	H	0.982846	-0.229937	0.663162
H251	H	1.316180	0.103396	0.996495
H252	H	1.649513	0.436730	1.329829
C253	C	0.825243	-1.072226	0.388081
C254	C	1.158577	-0.738892	0.721415
C255	C	1.491910	-0.405559	1.054748
H256	H	0.801249	-1.043248	0.412025
H257	H	1.134582	-0.709914	0.745359
H258	H	1.467915	-0.376581	1.078692
H259	H	0.797837	-1.097919	0.363974
H260	H	1.131170	-0.764586	0.697307
H261	H	1.464504	-0.431252	1.030641
H262	H	0.849325	-1.097825	0.415547
H263	H	1.182658	-0.764492	0.748880
H264	H	1.515992	-0.431158	1.082213
C265	C	0.140569	-0.387680	0.388051
C266	C	0.473902	-0.054347	0.721384
C267	C	0.807236	0.278986	1.054718
H268	H	0.169564	-0.411707	0.411962
H269	H	0.502897	-0.078373	0.745296
H270	H	0.836231	0.254960	1.078629
H271	H	0.114974	-0.363647	0.415538
H272	H	0.448307	-0.030314	0.748872
H273	H	0.781641	0.303019	1.082205
H274	H	0.114873	-0.415064	0.363914
H275	H	0.448207	-0.081730	0.697248
H276	H	0.781540	0.251603	1.030581
H277	H	0.982857	-0.229842	0.944736
H278	H	1.316190	0.103492	1.278069
H279	H	1.649524	0.436825	1.611402
C280	C	0.140552	-0.218330	0.219298
C281	C	0.473886	0.115003	0.552631
C282	C	0.807219	0.448336	0.885965
H283	H	0.096692	-0.224096	0.225067
H284	H	0.430026	0.109238	0.558400
H285	H	0.763359	0.442571	0.891734
H286	H	0.151384	-0.176054	0.228591
H287	H	0.484717	0.157280	0.561924
H288	H	0.818051	0.490613	0.895257
H289	H	0.151266	-0.227481	0.176977
H290	H	0.484599	0.105853	0.510311
H291	H	0.817932	0.439186	0.843644
H292	H	0.836676	-0.376038	0.663053
H293	H	1.170009	-0.042704	0.996386
H294	H	1.503342	0.290629	1.329720
C295	C	0.825093	-0.671391	0.388004
C296	C	1.158426	-0.338058	0.721338
C297	C	1.491760	-0.004724	1.054671
H298	H	0.830872	-0.715248	0.382249
H299	H	1.164205	-0.381915	0.715582
H300	H	1.497538	-0.048581	1.048915
H301	H	0.834280	-0.660585	0.430310
H302	H	1.167613	-0.327252	0.763643
H303	H	1.500947	0.006082	1.096976
H304	H	0.782796	-0.660670	0.378733
H305	H	1.116130	-0.327337	0.712066
H306	H	1.449463	0.005997	1.045400
C307	C	0.278606	-0.218369	0.219243
C308	C	0.611939	0.114964	0.552577
C309	C	0.945272	0.448298	0.885910
H310	H	0.322467	-0.224147	0.224986
H311	H	0.655800	0.109186	0.558320
H312	H	0.989134	0.442519	0.891653
H313	H	0.267776	-0.227515	0.176934
H314	H	0.601110	0.105818	0.510268
H315	H	0.934443	0.439151	0.843601
H316	H	0.267884	-0.176083	0.228543
H317	H	0.601217	0.157250	0.561876
H318	H	0.934550	0.490583	0.895210
H319	H	0.836663	-0.376078	0.543782
H320	H	1.169996	-0.042745	0.877116
H321	H	1.503330	0.290589	1.210449
C322	C	0.825044	-0.533337	0.387986
C323	C	1.158377	-0.200004	0.721319
C324	C	1.491710	0.133329	1.054653
H325	H	0.801064	-0.562344	0.411935
H326	H	1.134397	-0.229011	0.745268
H327	H	1.467730	0.104323	1.078602
H328	H	0.849099	-0.507645	0.415438
H329	H	1.182433	-0.174312	0.748771
H330	H	1.515766	0.159021	1.082104
H331	H	0.797615	-0.507740	0.363861
H332	H	1.130948	-0.174407	0.697195
H333	H	1.464282	0.158926	1.030528
C334	C	0.994364	-0.218292	1.073403
C335	C	1.327698	0.115041	1.406737
C336	C	1.661031	0.448374	1.740070
H337	H	1.018361	-0.194329	1.044429
H338	H	1.351695	0.139004	1.377763
H339	H	1.685028	0.472338	1.711096
H340	H	0.970306	-0.190858	1.099032
H341	H	1.303639	0.142476	1.432365
H342	H	1.636972	0.475809	1.765699
H343	H	1.021777	-0.242366	1.099068
H344	H	1.355111	0.090968	1.432401
H345	H	1.688444	0.424301	1.765735
C346	C	0.825180	-0.387412	1.073270
C347	C	1.158513	-0.054079	1.406603
C348	C	1.491847	0.279255	1.739937
H349	H	0.830954	-0.381636	1.117136
H350	H	1.164287	-0.048302	1.450469
H351	H	1.497621	0.285031	1.783802
H352	H	0.782889	-0.378217	1.062467
H353	H	1.116222	-0.044884	1.395800
H354	H	1.449555	0.288449	1.729134
H355	H	0.834376	-0.429710	1.062499
H356	H	1.167709	-0.096377	1.395833
H357	H	1.501042	0.236957	1.729166
C358	C	0.994357	-0.934071	0.219180
C359	C	1.327690	-0.600737	0.552513
C360	C	1.661023	-0.267404	0.885846
H361	H	1.018361	-0.963048	0.195245
H362	H	1.351694	-0.629715	0.528578
H363	H	1.685028	-0.296382	0.861911
H364	H	0.970283	-0.908469	0.191715
H365	H	1.303616	-0.575136	0.525049
H366	H	1.636949	-0.241802	0.858382
H367	H	1.021764	-0.908380	0.243295
H368	H	1.355097	-0.575046	0.576628
H369	H	1.688430	-0.241713	0.909962
C370	C	0.825175	-0.387454	0.935220
C371	C	1.158508	-0.054121	1.268553
C372	C	1.491842	0.279212	1.601886
H373	H	0.801189	-0.411429	0.964193
H374	H	1.134522	-0.078096	1.297527
H375	H	1.467855	0.255238	1.630860
H376	H	0.797762	-0.363388	0.909555
H377	H	1.131095	-0.030055	1.242888
H378	H	1.464429	0.303278	1.576221
H379	H	0.849241	-0.414889	0.909591
H380	H	1.182575	-0.081555	1.242925
H381	H	1.515908	0.251778	1.576258
H382	H	0.670063	-0.376266	0.376384
H383	H	1.003397	-0.042932	0.709717
H384	H	1.336730	0.290401	1.043050
C385	C	0.994409	-1.072124	0.219206
C386	C	1.327742	-0.738791	0.552539
C387	C	1.661075	-0.405457	0.885873
H388	H	1.018378	-1.043116	0.195248
H389	H	1.351712	-0.709783	0.528582
H390	H	1.685045	-0.376450	0.861915
H391	H	1.021837	-1.097724	0.243321
H392	H	1.355170	-0.764390	0.576655
H393	H	1.688504	-0.431057	0.909988
H394	H	0.970345	-1.097813	0.191754
H395	H	1.303678	-0.764480	0.525087
H396	H	1.637011	-0.431146	0.858420
H397	H	0.550779	-0.229940	0.230630
H398	H	0.884113	0.103393	0.563963
H399	H	1.217446	0.436727	0.897297
C400	C	0.541405	-0.387718	0.387948
C401	C	0.874739	-0.054385	0.721282
C402	C	1.208072	0.278949	1.054615
H403	H	0.570398	-0.411730	0.411878
H404	H	0.903732	-0.078396	0.745211
H405	H	1.237065	0.254937	1.078544
H406	H	0.515832	-0.363640	0.415417
H407	H	0.849166	-0.030307	0.748750
H408	H	1.182499	0.303027	1.082083
H409	H	0.515688	-0.415118	0.363854
H410	H	0.849021	-0.081785	0.697188
H411	H	1.182354	0.251549	1.030521
H412	H	0.670050	-0.229954	0.230588
H413	H	1.003383	0.103379	0.563921
H414	H	1.336717	0.436713	0.897254
H415	H	0.836704	-0.943564	0.376567
H416	H	1.170037	-0.610231	0.709900
H417	H	1.503370	-0.276898	1.043233
C418	C	0.994356	-0.218481	0.534513
C419	C	1.327689	0.114853	0.867846
C420	C	1.661022	0.448186	1.201180
H421	H	1.018344	-0.194489	0.563525
H422	H	1.351677	0.138845	0.896859
H423	H	1.685011	0.472178	1.230192
H424	H	1.021767	-0.242562	0.508884
H425	H	1.355100	0.090771	0.842218
H426	H	1.688434	0.424105	1.175551
H427	H	0.970288	-0.191062	0.508854
H428	H	1.303621	0.142272	0.842187
H429	H	1.636954	0.475605	1.175520
