data_functionalizedCrystal
_audit_creation_method	'MofGen! by Chris Wilmer'
_symmetry_space_group_name_H-M	'P1'
_symmetry_Int_Tables_number	1
_symmetry_cell_setting	triclinic
loop_
_symmetry_equiv_pos_as_xyz
  x,y,z
_cell_length_a	16.109318
_cell_length_b	14.044190
_cell_length_c	14.586319
_cell_angle_alpha	89.991348
_cell_angle_beta	90.000075
_cell_angle_gamma	88.330170
loop_
_atom_site_label
_atom_site_type_symbol
_atom_site_fract_x
_atom_site_fract_y
_atom_site_fract_z
O1	O	1.112195	0.121914	-0.076174
O2	O	1.612195	0.621914	0.423826
O3	O	0.871262	0.137059	-0.076194
O4	O	1.371262	0.637059	0.423806
O5	O	0.988109	-0.008498	-0.076166
O6	O	1.488109	0.491502	0.423834
O7	O	0.995348	0.267470	-0.076202
O8	O	1.495348	0.767470	0.423798
O9	O	0.988100	-0.008500	0.076315
O10	O	1.488100	0.491500	0.576315
O11	O	0.871253	0.137057	0.076287
O12	O	1.371253	0.637057	0.576287
O13	O	1.112186	0.121911	0.076307
O14	O	1.612186	0.621911	0.576307
Cu15	Cu	0.991719	0.129484	0.090220
Cu16	Cu	1.491719	0.629484	0.590220
Cu17	Cu	0.991729	0.129486	-0.090107
Cu18	Cu	1.491729	0.629486	0.409893
O19	O	0.995339	0.267468	0.076279
O20	O	1.495339	0.767468	0.576279
C21	C	0.840237	0.136441	0.000044
C22	C	1.340237	0.636441	0.500044
C23	C	0.747805	0.134593	0.000038
C24	C	1.247805	0.634593	0.500038
C25	C	0.984938	-0.043813	0.000077
C26	C	1.484938	0.456187	0.500077
C27	C	0.975492	-0.149036	0.000084
C28	C	1.475492	0.350964	0.500084
C29	C	0.448292	0.128626	-0.083063
C30	C	0.948292	0.628626	0.416937
C31	C	0.535142	0.130356	-0.083069
C32	C	1.035142	0.630356	0.416931
C33	C	0.535150	0.130341	0.083174
C34	C	1.035150	0.630341	0.583174
C35	C	0.448302	0.128604	0.083179
C36	C	0.948302	0.628604	0.583179
C37	C	0.404875	0.127752	0.000058
C38	C	0.904875	0.627752	0.500058
C39	C	0.578573	0.131218	0.000047
C40	C	1.078573	0.631218	0.500047
C41	C	0.672740	0.133094	0.000041
C42	C	1.172740	0.633094	0.500041
C43	C	0.310702	0.125874	0.000063
C44	C	0.810702	0.625874	0.500063
C45	C	1.025216	-0.399335	0.000052
C46	C	1.525216	0.100665	0.500052
C47	C	0.958235	-0.341690	0.000053
C48	C	1.458235	0.158310	0.500053
C49	C	0.967839	-0.234488	0.000070
C50	C	1.467839	0.265512	0.500070
C51	C	1.015614	-0.506547	0.000035
C52	C	1.515614	-0.006547	0.500035
C53	C	1.143211	0.122529	0.000067
C54	C	1.643211	0.622529	0.500067
C55	C	1.235643	0.124377	0.000068
C56	C	1.735643	0.624377	0.500068
C57	C	0.998510	0.302783	0.000034
C58	C	1.498510	0.802783	0.500034
C59	C	1.007956	0.408006	0.000021
C60	C	1.507956	0.908006	0.500021
N61	N	0.991717	0.129481	0.217051
N62	N	1.491717	0.629481	0.717051
N63	N	0.991737	0.129481	-0.216938
N64	N	1.491737	0.629481	0.283062
C65	C	1.043477	0.065051	0.452070
C66	C	1.543477	0.565051	0.952070
C67	C	1.043479	0.065048	0.548051
C68	C	1.543479	0.565048	1.048051
C69	C	0.939971	0.193915	0.548036
C70	C	1.439971	0.693915	1.048036
C71	C	0.939965	0.193912	0.452057
C72	C	1.439965	0.693912	0.952057
C73	C	0.991723	0.129481	0.404076
C74	C	1.491723	0.629481	0.904076
C75	C	0.991731	0.129482	0.596037
C76	C	1.491731	0.629482	1.096037
C77	C	0.991733	0.129480	0.700104
C78	C	1.491733	0.629480	1.200104
C79	C	0.991720	0.129481	0.300002
C80	C	1.491720	0.629481	0.800002
H81	H	0.570488	0.131067	-0.150754
H82	H	1.070488	0.631067	0.349246
H83	H	1.089767	-0.368176	0.000067
H84	H	1.589767	0.131824	0.500067
H85	H	0.893679	-0.372850	0.000042
H86	H	1.393679	0.127150	0.500042
H87	H	0.412936	0.127931	-0.150746
H88	H	0.912936	0.627931	0.349254
H89	H	1.085620	0.012586	0.413007
H90	H	1.585620	0.512586	0.913007
H91	H	0.570519	0.131037	0.150849
H92	H	1.070519	0.631037	0.650849
O93	O	1.099311	-0.004432	0.599820
O94	O	1.599311	0.495568	1.099820
H95	H	1.135305	-0.049224	0.550328
H96	H	1.635305	0.450776	1.050328
O97	O	0.884157	0.263418	0.599785
O98	O	1.384157	0.763418	1.099785
H99	H	0.892863	0.252606	0.674589
H100	H	1.392863	0.752606	1.174589
H101	H	0.897816	0.246379	0.412978
H102	H	1.397816	0.746379	0.912978
H103	H	0.412951	0.127891	0.150870
H104	H	0.912951	0.627891	0.650870
