data_functionalizedCrystal
_audit_creation_method	'MofGen! by Chris Wilmer'
_symmetry_space_group_name_H-M	'P1'
_symmetry_Int_Tables_number	1
_symmetry_cell_setting	triclinic
loop_
_symmetry_equiv_pos_as_xyz
  x,y,z
_cell_length_a	16.120530
_cell_length_b	13.897448
_cell_length_c	13.897441
_cell_angle_alpha	90.030599
_cell_angle_beta	87.080937
_cell_angle_gamma	92.886725
loop_
_atom_site_label
_atom_site_type_symbol
_atom_site_fract_x
_atom_site_fract_y
_atom_site_fract_z
Zn1	Zn	1.274607	0.458859	-0.620100
Zn2	Zn	1.524607	0.708859	-0.370100
Zn3	Zn	1.774607	0.958859	-0.120100
Zn4	Zn	2.024607	1.208859	0.129900
Zn5	Zn	1.274515	0.620175	-0.458796
Zn6	Zn	1.524515	0.870175	-0.208796
Zn7	Zn	1.774515	1.120175	0.041204
Zn8	Zn	2.024515	1.370175	0.291204
Zn9	Zn	1.135184	0.450711	-0.450646
Zn10	Zn	1.385184	0.700711	-0.200646
Zn11	Zn	1.635184	0.950711	0.049354
Zn12	Zn	1.885184	1.200711	0.299354
Zn13	Zn	1.135168	0.611923	-0.611880
Zn14	Zn	1.385168	0.861923	-0.361880
Zn15	Zn	1.635168	1.111923	-0.111880
Zn16	Zn	1.885168	1.361923	0.138120
O17	O	1.204869	0.535417	-0.535356
O18	O	1.454869	0.785417	-0.285356
O19	O	1.704869	1.035417	-0.035356
O20	O	1.954869	1.285417	0.214644
O21	O	1.391262	0.487122	-0.605554
O22	O	1.641262	0.737122	-0.355554
O23	O	1.891262	0.987122	-0.105554
O24	O	2.141262	1.237122	0.144446
O25	O	1.256001	0.597739	-0.322732
O26	O	1.506001	0.847739	-0.072732
O27	O	1.756001	1.097739	0.177268
O28	O	2.006001	1.347739	0.427268
O29	O	1.153724	0.316813	-0.473153
O30	O	1.403724	0.566813	-0.223153
O31	O	1.653724	0.816813	0.026847
O32	O	1.903724	1.066813	0.276847
O33	O	1.391194	0.605640	-0.487045
O34	O	1.641194	0.855640	-0.237045
O35	O	1.891194	1.105640	0.012955
O36	O	2.141194	1.355640	0.262955
O37	O	1.256157	0.322799	-0.597651
O38	O	1.506157	0.572799	-0.347651
O39	O	1.756157	0.822799	-0.097651
O40	O	2.006157	1.072799	0.152349
O41	O	1.153635	0.473235	-0.316743
O42	O	1.403635	0.723235	-0.066743
O43	O	1.653635	0.973235	0.183257
O44	O	1.903635	1.223235	0.433257
O45	O	1.018515	0.465232	-0.465182
O46	O	1.268515	0.715232	-0.215182
O47	O	1.518515	0.965232	0.034818
O48	O	1.768515	1.215232	0.284818
O49	O	1.153697	0.591574	-0.747954
O50	O	1.403697	0.841574	-0.497954
O51	O	1.653697	1.091574	-0.247954
O52	O	1.903697	1.341574	0.002046
O53	O	1.018503	0.583674	-0.583641
O54	O	1.268503	0.833674	-0.333641
O55	O	1.518503	1.083674	-0.083641
O56	O	1.768503	1.333674	0.166359
O57	O	1.256142	0.479119	-0.753994
O58	O	1.506142	0.729119	-0.503994
O59	O	1.756142	0.979119	-0.253994
O60	O	2.006142	1.229119	-0.003994
O61	O	1.255986	0.754060	-0.479074
O62	O	1.505986	1.004060	-0.229074
O63	O	1.755986	1.254060	0.020926
O64	O	2.005986	1.504060	0.270926
O65	O	1.153608	0.747996	-0.591544
O66	O	1.403608	0.997996	-0.341544
O67	O	1.653608	1.247996	-0.091544
O68	O	1.903608	1.497996	0.158456
C69	C	1.204808	0.786028	-0.535324
C70	C	1.454808	1.036028	-0.285324
C71	C	1.704808	1.286028	-0.035324
C72	C	1.954808	1.536028	0.214676
C73	C	1.204858	0.893245	-0.535347
C74	C	1.454858	1.143245	-0.285347
C75	C	1.704858	1.393245	-0.035347
C76	C	1.954858	1.643245	0.214653
C77	C	0.988259	0.522674	-0.522636
C78	C	1.238259	0.772674	-0.272636
C79	C	1.488259	1.022674	-0.022636
C80	C	1.738259	1.272674	0.227364
C81	C	0.895592	0.517246	-0.517217
C82	C	1.145592	0.767246	-0.267217
C83	C	1.395592	1.017246	-0.017217
C84	C	1.645592	1.267246	0.232783
C85	C	1.204928	0.535335	-0.786952
C86	C	1.454928	0.785335	-0.536952
C87	C	1.704928	1.035335	-0.286952
C88	C	1.954928	1.285335	-0.036952
C89	C	1.204953	0.535300	-0.894168
C90	C	1.454953	0.785300	-0.644168
C91	C	1.704953	1.035300	-0.394168
C92	C	1.954953	1.285300	-0.144168
C93	C	0.725929	0.507313	-0.507332
C94	C	0.975929	0.757313	-0.257332
C95	C	1.225929	1.007313	-0.007332
C96	C	1.475929	1.257313	0.242668
C97	C	0.684648	0.563592	-0.563450
C98	C	0.934648	0.813592	-0.313450
C99	C	1.184648	1.063592	-0.063450
C100	C	1.434648	1.313592	0.186550
C101	C	0.590242	0.558065	-0.557950
C102	C	0.840242	0.808065	-0.307950
C103	C	1.090242	1.058065	-0.057950
C104	C	1.340242	1.308065	0.192050
C105	C	0.820344	0.512838	-0.512831
C106	C	1.070344	0.762838	-0.262831
C107	C	1.320344	1.012838	-0.012831
C108	C	1.570344	1.262838	0.237169
C109	C	1.422324	0.548210	-0.548126
C110	C	1.672324	0.798210	-0.298126
C111	C	1.922324	1.048210	-0.048126
C112	C	2.172324	1.298210	0.201874
C113	C	1.514991	0.553662	-0.553568
C114	C	1.764991	0.803662	-0.303568
C115	C	2.014991	1.053662	-0.053568
C116	C	2.264991	1.303662	0.196432
C117	C	1.204952	0.283829	-0.535410
C118	C	1.454952	0.533829	-0.285410
C119	C	1.704952	0.783829	-0.035410
C120	C	1.954952	1.033829	0.214590
C121	C	1.204988	0.176617	-0.535433
C122	C	1.454988	0.426617	-0.285433
C123	C	1.704988	0.676617	-0.035433
C124	C	1.954988	0.926617	0.214567
C125	C	1.204945	1.089545	-0.535413
C126	C	1.454945	1.339545	-0.285413
C127	C	1.704945	1.589545	-0.035413
C128	C	1.954945	1.839545	0.214587
C129	C	1.204894	0.980309	-0.535379
C130	C	1.454894	1.230309	-0.285379
C131	C	1.704894	1.480309	-0.035379
C132	C	1.954894	1.730309	0.214621
C133	C	1.204976	0.535236	-1.090464
C134	C	1.454976	0.785236	-0.840464
C135	C	1.704976	1.035236	-0.590464
C136	C	1.954976	1.285236	-0.340464
C137	C	1.204960	0.535275	-0.981231
C138	C	1.454960	0.785275	-0.731231
C139	C	1.704960	1.035275	-0.481231
C140	C	1.954960	1.285275	-0.231231
C141	C	1.204858	0.535432	-0.284741
C142	C	1.454858	0.785432	-0.034741
C143	C	1.704858	1.035432	0.215259
C144	C	1.954858	1.285432	0.465259
C145	C	1.204994	0.535204	-0.177535
C146	C	1.454994	0.785204	0.072465
C147	C	1.704994	1.035204	0.322465
C148	C	1.954994	1.285204	0.572465
H149	H	0.720207	0.615924	-0.615626
H150	H	0.970207	0.865924	-0.365626
H151	H	1.220207	1.115924	-0.115626
H152	H	1.470207	1.365924	0.134374
Cl153	Cl	0.671032	0.426521	-0.426781
Cl154	Cl	0.921032	0.676521	-0.176781
Cl155	Cl	1.171032	0.926521	0.073219
Cl156	Cl	1.421032	1.176521	0.323219
