data_functionalizedCrystal
_audit_creation_method	'MofGen! by Chris Wilmer'
_symmetry_space_group_name_H-M	'P1'
_symmetry_Int_Tables_number	1
_symmetry_cell_setting	triclinic
loop_
_symmetry_equiv_pos_as_xyz
  x,y,z
_cell_length_a	10.540539
_cell_length_b	9.730223
_cell_length_c	10.540558
_cell_angle_alpha	90.005446
_cell_angle_beta	95.470697
_cell_angle_gamma	89.998168
loop_
_atom_site_label
_atom_site_type_symbol
_atom_site_fract_x
_atom_site_fract_y
_atom_site_fract_z
O1	O	1.685892	0.114202	-0.178893
O2	O	1.316480	0.114217	-0.195749
O3	O	1.509602	0.114224	-0.002616
O4	O	1.492770	0.114195	-0.372026
O5	O	1.509599	-0.114356	-0.002621
O6	O	1.316478	-0.114363	-0.195754
O7	O	1.685890	-0.114378	-0.178898
Zn8	Zn	1.501183	-0.150662	-0.187327
Zn9	Zn	1.501186	0.150502	-0.187321
O10	O	1.492768	-0.114385	-0.372031
C11	C	1.269176	-0.000071	-0.194488
C12	C	1.128228	-0.000064	-0.190706
N13	N	1.501191	-0.356199	-0.187331
C14	C	1.508333	-0.000059	0.044684
C15	C	1.504542	-0.000039	0.185631
C16	C	0.944791	-0.000586	-0.045790
C17	C	1.091409	-0.000057	-0.049623
C18	C	1.066561	0.130456	-0.258598
C19	C	0.920016	0.130552	-0.253783
C20	C	0.919525	-0.129387	-0.256658
C21	C	1.066507	-0.131098	-0.257958
C22	C	1.733194	-0.000087	-0.180160
C23	C	1.874142	-0.000085	-0.183942
C24	C	1.586727	-0.428122	-0.101841
C25	C	1.586724	-0.572005	-0.101825
C26	C	1.415643	-0.572029	-0.272801
C27	C	1.415642	-0.428149	-0.272809
C28	C	1.672276	-0.356172	-0.016362
C29	C	1.757820	-0.428095	0.069134
C30	C	1.757817	-0.571978	0.069149
C31	C	1.672269	-0.643938	-0.016331
N32	N	1.501189	0.356038	-0.187307
C33	C	1.359612	0.000496	0.369056
C34	C	1.363456	-0.000031	0.222439
C35	C	1.572432	-0.130567	0.247285
C36	C	1.567607	-0.130664	0.393828
C37	C	1.570479	0.129274	0.394352
C38	C	1.571789	0.130987	0.247372
C39	C	1.494020	-0.000076	0.580667
C40	C	1.497761	-0.000021	0.439714
H41	H	1.134019	-0.093620	0.003797
H42	H	1.672380	0.130151	0.441578
H43	H	1.827464	-0.369498	0.138737
H44	H	0.916201	-0.094189	0.009944
H45	H	0.891803	0.228125	-0.203600
H46	H	1.088920	0.135305	-0.362205
H47	H	1.672289	-0.239015	-0.016369
H48	H	1.304105	-0.092580	0.399261
H49	H	1.827462	-0.630536	0.138772
H50	H	1.674651	0.138862	0.223151
H51	H	1.672265	-0.761097	-0.016303
H52	H	1.310036	0.093537	0.179838
H53	H	1.345989	-0.369588	-0.342422
H54	H	0.914581	0.092504	0.009712
H55	H	1.345995	-0.630628	-0.342397
H56	H	1.522113	0.227548	0.206516
H57	H	1.133152	0.093675	0.004177
H58	H	0.872054	0.136468	-0.355247
H59	H	1.303880	0.094107	0.397658
H60	H	1.309660	-0.093758	0.180681
H61	H	1.517427	-0.228234	0.422026
H62	H	1.107465	-0.227656	-0.208360
H63	H	0.887975	-0.228321	-0.211003
H64	H	1.109147	0.227600	-0.211432
H65	H	1.090740	-0.138987	-0.360816
H66	H	0.872305	-0.130276	-0.358561
H67	H	1.669069	-0.136586	0.441796
H68	H	1.676041	-0.135427	0.224931
H69	H	1.525270	-0.227705	0.204684
H70	H	1.524816	0.228212	0.425907
