data_functionalizedCrystal
_audit_creation_method	'MofGen! by Chris Wilmer'
_symmetry_space_group_name_H-M	'P1'
_symmetry_Int_Tables_number	1
_symmetry_cell_setting	triclinic
loop_
_symmetry_equiv_pos_as_xyz
  x,y,z
_cell_length_a	14.853566
_cell_length_b	10.654550
_cell_length_c	9.130313
_cell_angle_alpha	90.004369
_cell_angle_beta	89.999325
_cell_angle_gamma	95.940328
loop_
_atom_site_label
_atom_site_type_symbol
_atom_site_fract_x
_atom_site_fract_y
_atom_site_fract_z
O1	O	1.197242	-0.163953	-0.121702
O2	O	0.934887	-0.183486	-0.121726
O3	O	1.072096	0.009082	-0.121704
O4	O	1.060032	-0.356522	-0.121724
O5	O	1.072087	0.009088	0.121894
O6	O	0.934877	-0.183481	0.121873
O7	O	1.197232	-0.163948	0.121897
Cu8	Cu	1.066054	-0.173714	0.144127
Cu9	Cu	1.066065	-0.173720	-0.143957
O10	O	1.060023	-0.356516	0.121875
C11	C	0.901289	-0.182599	0.000070
C12	C	0.801191	-0.179948	0.000061
C13	C	0.377951	-0.168736	-0.132698
C14	C	0.377962	-0.168731	0.132883
C15	C	0.472009	-0.171221	0.132878
C16	C	0.519032	-0.172470	0.000083
C17	C	0.472007	-0.171230	-0.132707
C18	C	0.519040	-0.172474	0.265666
C19	C	0.613093	-0.174965	0.265666
C20	C	0.660118	-0.176206	0.132870
C21	C	0.613088	-0.174964	0.000074
C22	C	0.660110	-0.176213	-0.132720
C23	C	0.613082	-0.174963	-0.265517
C24	C	0.519032	-0.172470	-0.265503
C25	C	0.754168	-0.178698	0.132856
C26	C	0.754166	-0.178707	-0.132729
C27	C	1.071206	0.055874	0.000094
C28	C	1.068556	0.195289	0.000092
C29	C	1.230831	-0.164835	0.000097
C30	C	1.330929	-0.167487	0.000097
C31	C	1.060913	-0.403308	0.000073
C32	C	1.063564	-0.542723	0.000066
N33	N	1.066053	-0.173708	0.346750
C34	C	1.149343	0.275615	0.000099
C35	C	1.146847	0.406610	0.000080
C36	C	0.982771	0.376941	0.000055
C37	C	0.985267	0.245949	0.000062
N38	N	1.066074	-0.173716	-0.346579
C39	C	1.126830	-0.088475	0.423411
C40	C	1.126839	-0.088475	0.576748
C41	C	1.005290	-0.258953	0.576748
C42	C	1.005278	-0.258946	0.423414
H43	H	0.480747	-0.171465	0.373780
C44	C	0.939210	-0.351552	0.659723
C45	C	0.885962	-0.426170	0.559761
C46	C	0.825070	-0.511476	0.636140
H47	H	0.971860	-0.404040	0.719529
H48	H	0.901360	-0.306308	0.719522
H49	H	0.923808	-0.471411	0.499987
H50	H	0.853293	-0.373717	0.499952
H51	H	0.787220	-0.466232	0.695939
H52	H	0.857728	-0.563955	0.695943
H53	H	0.788929	-0.562106	0.568328
C54	C	1.234631	0.493670	-0.000135
C55	C	1.284751	0.470713	-0.125429
C56	C	1.365631	0.550877	-0.125670
H57	H	1.221349	0.578984	-0.000224
H58	H	1.268789	0.478288	0.084779
H59	H	1.250599	0.486105	-0.210321
H60	H	1.298057	0.385415	-0.125366
H61	H	1.399790	0.535494	-0.040756
H62	H	1.352340	0.636186	-0.125755
H63	H	1.399652	0.535303	-0.210673
C64	C	1.239703	0.220437	-0.000116
C65	C	1.245922	0.146063	-0.125419
C66	C	1.329146	0.095204	-0.125662
H67	H	1.287538	0.286911	-0.000193
H68	H	1.244095	0.169892	0.084792
H69	H	1.241540	0.196606	-0.210304
H70	H	1.198107	0.079570	-0.125368
H71	H	1.333538	0.044658	-0.040754
H72	H	1.376974	0.161685	-0.125735
H73	H	1.333373	0.044726	-0.210670
H74	H	1.176328	-0.019068	0.639162
H75	H	0.955781	-0.328354	0.360992
H76	H	0.914960	0.418204	0.000034
C77	C	1.192700	0.004307	0.340290
C78	C	1.177275	0.127732	0.377633
C79	C	1.237928	0.213254	0.301099
H80	H	1.252991	-0.009306	0.365354
H81	H	1.184002	-0.007778	0.237968
H82	H	1.185980	0.139812	0.479933
H83	H	1.116996	0.141385	0.352566
H84	H	1.229230	0.201168	0.198776
H85	H	1.298216	0.199629	0.326168
H86	H	1.227465	0.297006	0.326415
C87	C	0.326826	-0.167641	-0.276827
C88	C	0.263376	-0.274180	-0.284604
C89	C	0.216270	-0.273224	-0.417361
H90	H	0.296475	-0.093574	-0.282484
H91	H	0.368267	-0.168812	-0.355956
H92	H	0.221940	-0.272998	-0.205497
H93	H	0.293702	-0.348264	-0.278972
H94	H	0.257711	-0.274395	-0.496491
H95	H	0.185925	-0.199153	-0.423007
H96	H	0.173219	-0.345515	-0.422662
C97	C	0.805071	-0.179985	0.277171
C98	C	0.743763	-0.178334	0.393468
C99	C	0.790622	-0.179498	0.526439
H100	H	0.835351	-0.254110	0.282889
H101	H	0.848158	-0.107749	0.282775
H102	H	0.700692	-0.250563	0.387867
H103	H	0.713480	-0.104214	0.387798
H104	H	0.833709	-0.107261	0.532043
H105	H	0.820901	-0.253624	0.532142
H106	H	0.749033	-0.178366	0.605362
C107	C	0.467897	-0.171386	-0.409624
C108	C	0.404456	-0.277936	-0.417383
C109	C	0.357337	-0.276993	-0.550130
H110	H	0.437539	-0.097326	-0.415278
H111	H	0.509333	-0.172553	-0.488763
H112	H	0.363026	-0.276757	-0.338267
H113	H	0.434790	-0.352012	-0.411755
H114	H	0.398773	-0.278160	-0.629268
H115	H	0.326985	-0.202929	-0.555772
H116	H	0.314293	-0.349291	-0.555418
H117	H	0.651376	-0.175981	0.373798
H118	H	0.919477	0.180544	0.000052
H119	H	0.792445	-0.179721	-0.240868
H120	H	0.651379	-0.175989	-0.373639
H121	H	0.339670	-0.167722	0.240998
