data_functionalizedCrystal
_audit_creation_method	'MofGen! by Chris Wilmer'
_symmetry_space_group_name_H-M	'P1'
_symmetry_Int_Tables_number	1
_symmetry_cell_setting	triclinic
loop_
_symmetry_equiv_pos_as_xyz
  x,y,z
_cell_length_a	14.519709
_cell_length_b	12.996460
_cell_length_c	17.699083
_cell_angle_alpha	89.992964
_cell_angle_beta	96.518420
_cell_angle_gamma	89.999966
loop_
_atom_site_label
_atom_site_type_symbol
_atom_site_fract_x
_atom_site_fract_y
_atom_site_fract_z
O1	O	1.223447	0.085435	-0.099215
O2	O	1.723447	0.585435	0.400785
O3	O	0.954920	0.085467	-0.110899
O4	O	1.454920	0.585467	0.389101
O5	O	1.096770	0.085441	0.005111
O6	O	1.596770	0.585441	0.505111
O7	O	1.081597	0.085461	-0.215224
O8	O	1.581597	0.585461	0.284776
O9	O	1.096756	-0.085693	0.005117
O10	O	1.596756	0.414307	0.505117
O11	O	0.954906	-0.085667	-0.110892
O12	O	1.454906	0.414333	0.389108
O13	O	1.223432	-0.085699	-0.099209
O14	O	1.723432	0.414301	0.400791
Cu15	Cu	1.089168	-0.101309	-0.105050
Cu16	Cu	1.589168	0.398691	0.394950
Cu17	Cu	1.089185	0.101077	-0.105057
Cu18	Cu	1.589185	0.601077	0.394943
O19	O	1.081583	-0.085673	-0.215218
O20	O	1.581583	0.414327	0.284782
C21	C	0.920556	-0.000096	-0.110351
C22	C	1.420556	0.499904	0.389649
C23	C	0.818181	-0.000084	-0.108719
C24	C	1.318181	0.499916	0.391281
C25	C	0.443311	-0.000132	-0.102712
C26	C	0.943311	0.499868	0.397288
C27	C	0.547612	-0.000118	-0.104380
C28	C	1.047612	0.499882	0.395620
C29	C	0.630743	-0.000107	-0.105716
C30	C	1.130743	0.499893	0.394284
C31	C	0.735050	-0.000096	-0.107384
C32	C	1.235050	0.499904	0.392616
N33	N	1.089162	-0.243656	-0.105044
N34	N	1.589162	0.256344	0.394956
C35	C	1.089184	-0.663470	-0.105058
C36	C	1.589184	-0.163470	0.394942
C37	C	1.089175	-0.546665	-0.105057
C38	C	1.589175	-0.046665	0.394943
C39	C	1.089173	-0.453567	-0.105052
C40	C	1.589173	0.046433	0.394948
C41	C	1.089164	-0.336754	-0.105049
C42	C	1.589164	0.163246	0.394951
C43	C	1.257797	-0.000134	-0.099756
C44	C	1.757797	0.499866	0.400244
C45	C	1.360171	-0.000139	-0.101388
C46	C	1.860171	0.499861	0.398612
C47	C	1.096219	-0.000126	0.033312
C48	C	1.596219	0.499874	0.533312
C49	C	1.094588	-0.000126	0.117335
C50	C	1.594588	0.499874	0.617335
N51	N	1.089198	0.243424	-0.105057
N52	N	1.589198	0.743424	0.394943
C53	C	1.082134	-0.000104	-0.243420
C54	C	1.582134	0.499896	0.256580
C55	C	1.083765	-0.000097	-0.327442
C56	C	1.583765	0.499903	0.172558
C57	C	1.177851	-0.000138	0.165718
C58	C	1.677851	0.499862	0.665718
C59	C	1.176313	-0.000128	0.244665
C60	C	1.676313	0.499872	0.744665
C61	C	1.091511	-0.000115	0.275229
C62	C	1.591511	0.499885	0.775229
C63	C	1.008242	-0.000101	0.226840
C64	C	1.508242	0.499899	0.726840
C65	C	1.009781	-0.000103	0.147894
C66	C	1.509781	0.499897	0.647894
C67	C	1.002033	-0.000092	0.545221
C68	C	1.502033	0.499908	1.045221
C69	C	1.000501	-0.000093	0.624173
C70	C	1.500501	0.499907	1.124173
C71	C	1.168566	-0.000117	0.641992
C72	C	1.668566	0.499883	1.141992
C73	C	1.170105	-0.000119	0.563046
C74	C	1.670105	0.499881	1.063046
C75	C	1.086836	-0.000099	0.514664
C76	C	1.586836	0.499901	1.014664
C77	C	1.088505	-0.000108	0.429060
C78	C	1.588505	0.499892	0.929060
C79	C	1.089841	-0.000114	0.360831
C80	C	1.589841	0.499886	0.860831
H81	H	1.246907	-0.000155	0.140840
H82	H	1.746907	0.499845	0.640840
H83	H	1.244114	-0.000140	0.284056
H84	H	1.744114	0.499860	0.784056
C85	C	0.918195	-0.000090	0.094670
C86	C	1.418195	0.499910	0.594670
H87	H	0.931256	-0.000082	0.043275
H88	H	1.431256	0.499918	0.543275
H89	H	0.883404	-0.059761	0.103949
H90	H	1.383404	0.440239	0.603949
H91	H	0.883425	0.059603	0.103943
H92	H	1.383425	0.559603	0.603943
C93	C	1.263386	-0.000129	0.529430
C94	C	1.763386	0.499871	1.029430
H95	H	1.312756	-0.000124	0.569553
H96	H	1.812756	0.499876	1.069553
H97	H	1.267478	-0.059806	0.499007
H98	H	1.767478	0.440194	0.999007
H99	H	1.267479	0.059558	0.499001
H100	H	1.767479	0.559558	0.999001
C101	C	0.914959	-0.000078	0.260454
C102	C	1.414959	0.499922	0.760454
H103	H	0.865591	-0.000060	0.220330
H104	H	1.365591	0.499940	0.720330
H105	H	0.910854	-0.059753	0.290887
H106	H	1.410854	0.440247	0.790887
H107	H	0.910876	0.059611	0.290873
H108	H	1.410876	0.559611	0.790873
C109	C	1.260161	-0.000122	0.695214
C110	C	1.760161	0.499878	1.195214
H111	H	1.247104	-0.000107	0.746610
H112	H	1.747104	0.499893	1.246610
H113	H	1.294937	-0.059805	0.685945
H114	H	1.794937	0.440195	1.185945
H115	H	1.294943	0.059559	0.685928
H116	H	1.794943	0.559559	1.185928
C117	C	0.907215	-0.000065	0.657792
C118	C	1.407215	0.499935	1.157792
H119	H	0.857842	-0.000042	0.617671
H120	H	1.357842	0.499958	1.117671
H121	H	0.903109	-0.059740	0.688224
H122	H	1.403109	0.440260	1.188224
H123	H	0.903139	0.059623	0.688213
H124	H	1.403139	0.559623	1.188213
H125	H	0.934231	-0.000076	0.505837
H126	H	1.434231	0.499924	1.005837
