data_functionalizedCrystal
_audit_creation_method	'MofGen! by Chris Wilmer'
_symmetry_space_group_name_H-M	'P1'
_symmetry_Int_Tables_number	1
_symmetry_cell_setting	triclinic
loop_
_symmetry_equiv_pos_as_xyz
  x,y,z
_cell_length_a	16.120530
_cell_length_b	16.120484
_cell_length_c	18.215399
_cell_angle_alpha	92.869789
_cell_angle_beta	87.083352
_cell_angle_gamma	90.167327
loop_
_atom_site_label
_atom_site_type_symbol
_atom_site_fract_x
_atom_site_fract_y
_atom_site_fract_z
Zn1	Zn	1.254472	-0.395614	-0.489889
Zn2	Zn	1.754472	0.104386	0.010111
Zn3	Zn	1.247316	-0.534672	-0.372722
Zn4	Zn	1.747316	-0.034672	0.127278
Zn5	Zn	1.115412	-0.388579	-0.360305
Zn6	Zn	1.615412	0.111421	0.139695
Zn7	Zn	1.108324	-0.527567	-0.489215
Zn8	Zn	1.608324	-0.027567	0.010785
O9	O	1.181381	-0.461608	-0.428033
O10	O	1.681381	0.038392	0.071967
O11	O	1.369888	-0.419978	-0.479825
O12	O	1.869888	0.080022	0.020175
O13	O	1.229790	-0.515322	-0.268090
O14	O	1.729790	-0.015322	0.231910
O15	O	1.139820	-0.273149	-0.372580
O16	O	1.639820	0.226851	0.127420
O17	O	1.364630	-0.522143	-0.393742
O18	O	1.864630	-0.022143	0.106258
O19	O	1.241987	-0.278317	-0.467785
O20	O	1.741987	0.221683	0.032215
O21	O	1.132881	-0.407988	-0.258968
O22	O	1.632881	0.092012	0.241032
O23	O	0.998106	-0.401099	-0.371927
O24	O	1.498106	0.098901	0.128073
O25	O	1.127740	-0.510034	-0.592289
O26	O	1.627740	-0.010034	-0.092289
O27	O	0.992899	-0.503212	-0.466637
O28	O	1.492899	-0.003212	0.033363
O29	O	1.235114	-0.413088	-0.592784
O30	O	1.735114	0.086912	-0.092784
O31	O	1.222917	-0.650093	-0.393090
O32	O	1.722917	-0.150093	0.106910
O33	O	1.120801	-0.644873	-0.478677
O34	O	1.620801	-0.144873	0.021323
C35	C	0.965330	-0.450622	-0.417862
C36	C	1.465330	0.049378	0.082138
C37	C	0.872902	-0.445942	-0.413529
C38	C	1.372902	0.054058	0.086471
C39	C	1.170336	-0.677655	-0.437175
C40	C	1.670336	-0.177655	0.062825
C41	C	1.165686	-0.770085	-0.441114
C42	C	1.665686	-0.270085	0.058886
C43	C	0.703675	-0.437378	-0.405624
C44	C	1.203675	0.062622	0.094376
C45	C	0.659925	-0.485899	-0.450498
C46	C	1.159925	0.014101	0.049502
C47	C	0.565761	-0.481134	-0.446099
C48	C	1.065761	0.018866	0.053901
C49	C	0.797847	-0.442142	-0.410022
C50	C	1.297847	0.057858	0.089978
C51	C	1.157203	-0.939316	-0.448321
C52	C	1.657203	-0.439316	0.051679
C53	C	1.205708	-0.983066	-0.407764
C54	C	1.705708	-0.483066	0.092236
C55	C	1.200988	-1.077232	-0.411774
C56	C	1.700988	-0.577232	0.088226
C57	C	1.161922	-0.845142	-0.444312
C58	C	1.661922	-0.345142	0.055688
C59	C	1.398275	-0.472638	-0.438244
C60	C	1.898275	0.027362	0.061756
C61	C	1.490703	-0.477338	-0.442595
C62	C	1.990703	0.022662	0.057405
C63	C	1.181435	-0.461553	-0.619986
C64	C	1.681435	0.038447	-0.119986
C65	C	1.181457	-0.461530	-0.701785
C66	C	1.681457	0.038470	-0.201785
C67	C	1.192492	-0.244718	-0.418872
C68	C	1.692492	0.255282	0.081128
C69	C	1.197227	-0.152292	-0.414969
C70	C	1.697227	0.347708	0.085031
C71	C	1.237389	-0.411002	-0.890236
C72	C	1.737389	0.088998	-0.390236
C73	C	1.237400	-0.410978	-0.967094
C74	C	1.737400	0.089022	-0.467094
C75	C	1.125591	-0.511932	-0.966568
C76	C	1.625591	-0.011932	-0.466568
C77	C	1.125577	-0.511951	-0.889711
C78	C	1.625577	-0.011951	-0.389711
C79	C	1.181480	-0.461487	-0.851547
C80	C	1.681480	0.038513	-0.351547
C81	C	1.181506	-0.461445	-1.005263
C82	C	1.681506	0.038555	-0.505263
C83	C	1.181518	-0.461419	-1.088596
C84	C	1.681518	0.038581	-0.588596
C85	C	1.181468	-0.461511	-0.768209
C86	C	1.681468	0.038489	-0.268209
C87	C	1.181379	-0.461605	-0.236826
C88	C	1.681379	0.038395	0.263174
C89	C	1.181529	-0.461402	-0.155025
C90	C	1.681529	0.038598	0.344975
H91	H	0.670413	-0.392264	-0.363906
H92	H	1.170413	0.107736	0.136094
H93	H	0.693188	-0.531017	-0.492219
H94	H	1.193188	-0.031017	0.007781
H95	H	1.282925	-0.369866	-0.998591
H96	H	1.782925	0.130134	-0.498591
H97	H	1.250779	-0.949801	-0.370029
H98	H	1.750779	-0.449801	0.129971
N99	N	1.100670	-0.981053	-0.495653
N100	N	1.600670	-0.481053	0.004347
N101	N	1.096872	-1.058598	-0.498881
N102	N	1.596872	-0.558598	0.001119
H103	H	1.056945	-1.088085	-0.532308
H104	H	1.556945	-0.588085	-0.032308
H105	H	1.282907	-0.369908	-0.859165
H106	H	1.782907	0.130092	-0.359165
N107	N	1.068495	-0.563472	-1.005564
N108	N	1.568495	-0.063472	-0.505564
N109	N	1.068515	-0.563449	-1.074186
N110	N	1.568515	-0.063449	-0.574186
H111	H	1.028191	-0.599851	-1.101728
H112	H	1.528191	-0.099851	-0.601728
H113	H	1.080044	-0.553062	-0.858209
H114	H	1.580044	-0.053062	-0.358209
