data_functionalizedCrystal
_audit_creation_method	'MofGen! by Chris Wilmer'
_symmetry_space_group_name_H-M	'P1'
_symmetry_Int_Tables_number	1
_symmetry_cell_setting	triclinic
loop_
_symmetry_equiv_pos_as_xyz
  x,y,z
_cell_length_a	11.026607
_cell_length_b	10.489741
_cell_length_c	10.065875
_cell_angle_alpha	98.879541
_cell_angle_beta	79.302338
_cell_angle_gamma	96.562595
loop_
_atom_site_label
_atom_site_type_symbol
_atom_site_fract_x
_atom_site_fract_y
_atom_site_fract_z
O1	O	1.632468	0.520484	-0.113500
O2	O	2.132468	1.020484	0.386500
O3	O	1.278630	0.459543	-0.113501
O4	O	1.778630	0.959543	0.386499
O5	O	1.463599	0.306188	-0.113492
O6	O	1.963599	0.806188	0.386508
O7	O	1.447499	0.673839	-0.113509
O8	O	1.947499	1.173839	0.386491
O9	O	1.428329	0.335581	0.113495
O10	O	1.928329	0.835581	0.613495
O11	O	1.243360	0.488935	0.113486
O12	O	1.743360	0.988935	0.613486
O13	O	1.597198	0.549877	0.113487
O14	O	2.097198	1.049877	0.613487
Zn15	Zn	1.414679	0.524073	0.149526
Zn16	Zn	1.914679	1.024073	0.649526
Zn17	Zn	1.461149	0.485347	-0.149540
Zn18	Zn	1.961149	0.985347	0.350460
O19	O	1.412229	0.703232	0.113478
O20	O	1.912229	1.203232	0.613478
C21	C	1.215686	0.462996	-0.000008
C22	C	1.715686	0.962996	0.499992
C23	C	1.080679	0.429482	-0.000008
C24	C	1.580679	0.929482	0.499992
C25	C	1.007682	0.522021	-0.000013
C26	C	1.507682	1.022021	0.499987
C27	C	0.868146	0.487384	-0.000013
C28	C	1.368146	0.987384	0.499987
C29	C	1.444748	0.273085	0.000000
C30	C	1.944748	0.773085	0.500000
C31	C	1.441110	0.130655	-0.000002
C32	C	1.941110	0.630655	0.499998
C33	C	1.323420	0.036624	-0.000012
C34	C	1.823420	0.536624	0.499988
C35	C	1.361626	-0.028776	0.111904
C36	C	1.861626	0.471224	0.611904
C37	C	1.396427	-0.057724	-0.111887
C38	C	1.896427	0.442276	0.388113
C39	C	1.479350	0.067142	0.112007
C40	C	1.979350	0.567142	0.612007
C41	C	1.514151	0.038187	-0.111885
C42	C	2.014151	0.538187	0.388115
C43	C	1.552438	-0.027164	0.000059
C44	C	2.052438	0.472836	0.500059
C45	C	1.660143	0.546423	-0.000009
C46	C	2.160143	1.046423	0.499991
C47	C	1.795151	0.579937	-0.000018
C48	C	2.295151	1.079937	0.499982
C49	C	1.431080	0.736334	-0.000017
C50	C	1.931080	1.236334	0.499983
C51	C	1.434720	0.878763	-0.000024
C52	C	1.934720	1.378763	0.499976
N53	N	1.382974	0.550504	0.353630
N54	N	1.882974	1.050504	0.853630
N55	N	1.492864	0.458908	-0.353644
N56	N	1.992864	0.958908	0.146356
C57	C	1.450110	0.494533	0.421412
C58	C	1.950110	0.994533	0.921412
C59	C	1.425718	0.514887	0.578578
C60	C	1.925718	1.014887	1.078578
H61	H	1.297126	-0.058490	0.206521
H62	H	1.797126	0.441510	0.706521
O63	O	0.849179	0.718861	-0.000028
O64	O	1.349179	1.218861	0.499972
H65	H	0.950299	0.724269	-0.000038
H66	H	1.450299	1.224269	0.499962
H67	H	1.514387	0.121184	0.206730
H68	H	2.014387	0.621184	0.706730
O69	O	1.061721	0.660938	-0.000005
O70	O	1.561721	1.160938	0.499995
H71	H	1.045347	0.697206	-0.092516
H72	H	1.545347	1.197206	0.407484
O73	O	1.680710	-0.064425	0.000133
O74	O	2.180710	0.435575	0.500133
H75	H	1.714804	-0.013674	0.093124
H76	H	2.214804	0.486326	0.593124
H77	H	1.307434	0.613486	0.411952
H78	H	1.807434	1.113486	0.911952
O79	O	1.599534	0.077601	-0.237214
O80	O	2.099534	0.577601	0.262786
H81	H	1.564910	0.027080	-0.329985
H82	H	2.064910	0.527080	0.170015
H83	H	1.361318	-0.111898	-0.206513
H84	H	1.861318	0.388102	0.293487
O85	O	0.814115	0.348460	0.000002
O86	O	1.314115	0.848460	0.500002
H87	H	0.771332	0.316789	-0.092517
H88	H	1.271332	0.816789	0.407483
H89	H	1.039875	0.324609	-0.000038
H90	H	1.539875	0.824609	0.499962
O91	O	1.195231	0.074237	0.000126
O92	O	1.695231	0.574237	0.500126
H93	H	1.132213	0.047732	0.093173
H94	H	1.632213	0.547732	0.593173
O95	O	1.550135	0.411050	0.344176
O96	O	2.050135	0.911050	0.844176
H97	H	1.553583	0.408147	0.232851
H98	H	2.053583	0.908147	0.732851
O99	O	1.592919	0.375456	0.569119
O100	O	2.092919	0.875456	1.069119
H101	H	1.683701	0.416802	0.596446
H102	H	2.183701	0.916802	1.096446
O103	O	1.325657	0.598335	0.655809
O104	O	1.825657	1.098335	1.155809
H105	H	1.322208	0.601237	0.767133
H106	H	1.822208	1.101237	1.267133
