data_functionalizedCrystal
_audit_creation_method	'MofGen! by Chris Wilmer'
_symmetry_space_group_name_H-M	'P1'
_symmetry_Int_Tables_number	1
_symmetry_cell_setting	triclinic
loop_
_symmetry_equiv_pos_as_xyz
  x,y,z
_cell_length_a	18.050589
_cell_length_b	25.639242
_cell_length_c	18.050582
_cell_angle_alpha	90.017537
_cell_angle_beta	89.981795
_cell_angle_gamma	89.980850
loop_
_atom_site_label
_atom_site_type_symbol
_atom_site_fract_x
_atom_site_fract_y
_atom_site_fract_z
Zn1	Zn	-0.295886	-0.799271	-0.419987
Zn2	Zn	-0.420070	-0.799208	-0.295806
Zn3	Zn	-0.295878	-0.711845	-0.295805
Zn4	Zn	-0.420019	-0.711808	-0.419949
O5	O	-0.357963	-0.755533	-0.357887
O6	O	-0.312384	-0.872428	-0.403530
O7	O	-0.403613	-0.787608	-0.191882
O8	O	-0.191955	-0.723484	-0.312294
O9	O	-0.403621	-0.872382	-0.312295
O10	O	-0.191961	-0.787715	-0.403529
O11	O	-0.312370	-0.723423	-0.191881
O12	O	-0.312322	-0.638675	-0.312257
O13	O	-0.403535	-0.723421	-0.523879
O14	O	-0.403527	-0.638648	-0.403465
O15	O	-0.312335	-0.787680	-0.523906
O16	O	-0.523988	-0.787573	-0.312259
O17	O	-0.523951	-0.723360	-0.403466
C18	C	-0.357919	-0.619690	-0.357857
C19	C	-0.357917	-0.561576	-0.357862
C20	C	-0.310526	-0.310415	-0.405461
C21	C	-0.310520	-0.365019	-0.405459
O22	O	-0.270202	-0.393283	-0.445934
N23	N	-0.357942	-0.392303	-0.357880
C24	C	-0.405379	-0.364979	-0.310306
O25	O	-0.445715	-0.393199	-0.269836
C26	C	-0.405387	-0.310375	-0.310312
C27	C	-0.357957	-0.283095	-0.357889
C28	C	-0.263099	-0.283135	-0.453034
C29	C	-0.263104	-0.228534	-0.453035
C30	C	-0.310535	-0.201214	-0.405463
C31	C	-0.357961	-0.228494	-0.357889
C32	C	-0.452827	-0.283052	-0.262742
C33	C	-0.452832	-0.228445	-0.262752
C34	C	-0.405401	-0.201165	-0.310329
C35	C	-0.405397	-0.146574	-0.310318
N36	N	-0.357975	-0.119290	-0.357896
C37	C	-0.310544	-0.146611	-0.405469
C38	C	-0.405358	-0.479649	-0.310297
C39	C	-0.405346	-0.534251	-0.310286
C40	C	-0.310488	-0.534289	-0.405441
C41	C	-0.310497	-0.479685	-0.405447
C42	C	-0.357935	-0.452366	-0.357876
C43	C	-0.310557	-0.031946	-0.405467
C44	C	-0.310563	0.022660	-0.405461
C45	C	-0.405423	0.022692	-0.310309
C46	C	-0.405414	-0.031908	-0.310312
C47	C	-0.357978	-0.059226	-0.357897
O48	O	-0.445697	-0.118275	-0.269865
O49	O	-0.270221	-0.118384	-0.445938
C50	C	-0.550916	-0.755470	-0.357875
C51	C	-0.633461	-0.755491	-0.357894
C52	C	-0.832919	-0.720606	-0.407475
C53	C	-0.882350	-0.707865	-0.339707
C54	C	-0.784592	-0.755542	-0.357904
C55	C	-0.882242	-0.768309	-0.425680
C56	C	-0.930577	-0.755591	-0.357919
C57	C	-0.832936	-0.742776	-0.290100
C58	C	-0.832824	-0.803242	-0.376118
C59	C	-0.882232	-0.790519	-0.308303
C60	C	-0.700493	-0.755513	-0.357896
C61	C	-1.014673	-0.755620	-0.357919
C62	C	-0.164258	-0.755611	-0.357916
C63	C	-0.081712	-0.755644	-0.357928
C64	C	-0.357930	-0.755553	-0.551593
C65	C	-0.357916	-0.755562	-0.634138
C66	C	-0.358000	0.108094	-0.357907
C67	C	-0.357994	0.049980	-0.357888
C68	C	-0.407443	-0.720645	-0.833574
C69	C	-0.425608	-0.768346	-0.882970
C70	C	-0.357860	-0.755588	-0.785269
C71	C	-0.339675	-0.707913	-0.882955
C72	C	-0.357806	-0.755609	-0.931254
C73	C	-0.376060	-0.803314	-0.833577
C74	C	-0.290095	-0.742849	-0.833558
C75	C	-0.308234	-0.790583	-0.882931
C76	C	-0.357892	-0.755575	-0.701171
C77	C	-0.357774	-0.755627	-1.015351
C78	C	-0.357943	-0.755543	-0.164935
C79	C	-0.357748	-0.755635	-0.082389
H80	H	-0.443961	-0.556459	-0.271537
C81	C	-0.911501	-0.782874	-0.503101
C82	C	-0.890834	-0.835772	-0.537867
C83	C	-0.920089	-0.850332	-0.615290
C84	C	-0.970012	-0.811995	-0.657947
C85	C	-0.990682	-0.759094	-0.623182
C86	C	-0.961426	-0.744534	-0.545759
H87	H	-0.853876	-0.864154	-0.506290
H88	H	-0.904788	-0.889493	-0.641026
H89	H	-0.991668	-0.822773	-0.715261
H90	H	-1.027640	-0.730712	-0.654759
H91	H	-0.976728	-0.705373	-0.520023
C92	C	-0.457536	-0.449601	-0.257955
C93	C	-0.451350	-0.457093	-0.173541
C94	C	-0.503528	-0.427048	-0.121200
C95	C	-0.561892	-0.389511	-0.153273
C96	C	-0.568081	-0.382016	-0.237692
C97	C	-0.515903	-0.412061	-0.290033
H98	H	-0.408143	-0.484882	-0.149794
H99	H	-0.498946	-0.432596	-0.058707
H100	H	-0.600517	-0.367270	-0.114527
H101	H	-0.611288	-0.354227	-0.261438
H102	H	-0.520484	-0.406513	-0.352525
C103	C	-0.212732	-0.728258	-0.804208
C104	C	-0.145080	-0.761887	-0.824782
C105	C	-0.067716	-0.747289	-0.795431
C106	C	-0.058004	-0.699062	-0.745504
C107	C	-0.125658	-0.665430	-0.724927
C108	C	-0.203022	-0.680028	-0.754279
H109	H	-0.152267	-0.797590	-0.861743
H110	H	-0.017634	-0.772186	-0.810663
H111	H	-0.000735	-0.688255	-0.723777
H112	H	-0.118471	-0.629726	-0.687967
H113	H	-0.253104	-0.655131	-0.739046
C114	C	-0.464158	-0.680763	-0.804288
C115	C	-0.456643	-0.622722	-0.824869
C116	C	-0.513358	-0.582844	-0.795581
C117	C	-0.577590	-0.601006	-0.745711
C118	C	-0.585109	-0.659050	-0.725127
C119	C	-0.528393	-0.698929	-0.754415
H120	H	-0.409092	-0.609275	-0.861789
H121	H	-0.507792	-0.539876	-0.810820
H122	H	-0.619575	-0.571486	-0.724030
H123	H	-0.632659	-0.672498	-0.688208
H124	H	-0.533959	-0.741897	-0.739177
C125	C	-0.396902	-0.857810	-0.804410
C126	C	-0.348791	-0.905367	-0.824515
C127	C	-0.369634	-0.959861	-0.795348
C128	C	-0.438589	-0.966800	-0.746076
C129	C	-0.486704	-0.919242	-0.725969
C130	C	-0.465860	-0.864747	-0.755136
H131	H	-0.297743	-0.900232	-0.860991
H132	H	-0.334016	-0.995067	-0.810233
H133	H	-0.454019	-1.007140	-0.724485
H134	H	-0.537752	-0.924377	-0.689493
H135	H	-0.501479	-0.829542	-0.740251
C136	C	-0.502990	-0.782919	-0.912301
C137	C	-0.570392	-0.748721	-0.892829
C138	C	-0.647775	-0.763289	-0.922159
C139	C	-0.657757	-0.812056	-0.970962
C140	C	-0.590353	-0.846257	-0.990437
C141	C	-0.512970	-0.831689	-0.961107
H142	H	-0.563004	-0.712618	-0.856700
H143	H	-0.697672	-0.737971	-0.907742
H144	H	-0.715041	-0.822840	-0.992673
H145	H	-0.597741	-0.882360	-1.026565
H146	H	-0.463073	-0.857007	-0.975524
C147	C	-0.911742	-0.653400	-0.318897
C148	C	-0.857079	-0.608758	-0.302555
C149	C	-0.886467	-0.554292	-0.281752
C150	C	-0.970518	-0.544468	-0.277290
C151	C	-1.025186	-0.589111	-0.293632
C152	C	-0.995798	-0.643577	-0.314436
H153	H	-0.794855	-0.616030	-0.305858
H154	H	-0.845997	-0.521244	-0.269654
H155	H	-0.992272	-0.504149	-0.261890
H156	H	-1.087410	-0.581840	-0.290329
H157	H	-1.036267	-0.676625	-0.326533
C158	C	-0.251565	-0.830561	-0.912038
C159	C	-0.205880	-0.863405	-0.857149
C160	C	-0.149219	-0.903387	-0.886260
C161	C	-0.138244	-0.910524	-0.970260
C162	C	-0.183930	-0.877679	-1.025155
C163	C	-0.240591	-0.837698	-0.996044
H164	H	-0.214004	-0.858123	-0.794962
H165	H	-0.115399	-0.927701	-0.845623
H166	H	-0.096300	-0.940121	-0.991810
H167	H	-0.175807	-0.882962	-1.087342
H168	H	-0.274411	-0.813383	-1.036681
H169	H	-0.224484	-0.206327	-0.491780
C170	C	-0.258322	-0.564347	-0.457783
C171	C	-0.258326	-0.624409	-0.457780
C172	C	-0.206166	-0.654469	-0.510120
C173	C	-0.154000	-0.624468	-0.562463
C174	C	-0.153993	-0.564403	-0.562468
C175	C	-0.206154	-0.534343	-0.510128
H176	H	-0.296944	-0.646621	-0.419030
H177	H	-0.206171	-0.698934	-0.510116
H178	H	-0.115387	-0.646721	-0.601209
H179	H	-0.115376	-0.542192	-0.601218
H180	H	-0.206149	-0.489879	-0.510132
C181	C	-0.803407	-0.857692	-0.396952
C182	C	-0.719351	-0.867745	-0.400087
C183	C	-0.689933	-0.922195	-0.420929
C184	C	-0.744570	-0.966593	-0.438637
C185	C	-0.828632	-0.956542	-0.435503
C186	C	-0.858050	-0.902092	-0.414660
H187	H	-0.678900	-0.834877	-0.386978
H188	H	-0.627705	-0.929635	-0.423250
H189	H	-0.722793	-1.006901	-0.454066
H190	H	-0.869083	-0.989410	-0.448612
H191	H	-0.920278	-0.894652	-0.412340
H192	H	-0.444030	-0.054121	-0.271565
C193	C	-0.318917	-0.653436	-0.912255
C194	C	-0.302655	-0.608808	-0.857517
C195	C	-0.281904	-0.554330	-0.886814
C196	C	-0.277415	-0.544480	-0.970848
C197	C	-0.293677	-0.589110	-1.025591
C198	C	-0.314428	-0.643588	-0.996294
H199	H	-0.305978	-0.616098	-0.795305
H200	H	-0.269866	-0.521292	-0.846289
H201	H	-0.262053	-0.504152	-0.992535
H202	H	-0.290354	-0.581820	-1.087802
H203	H	-0.326467	-0.676625	-1.036819
C204	C	-0.803658	-0.680640	-0.464027
C205	C	-0.754811	-0.698831	-0.529053
C206	C	-0.725549	-0.658864	-0.585601
C207	C	-0.745133	-0.600705	-0.577122
C208	C	-0.793983	-0.582510	-0.512094
C209	C	-0.823245	-0.622478	-0.455547
H210	H	-0.740311	-0.741886	-0.535332
H211	H	-0.689387	-0.672332	-0.633739
H212	H	-0.723471	-0.571118	-0.618982
H213	H	-0.808483	-0.539455	-0.505816
H214	H	-0.859407	-0.609009	-0.407408
C215	C	-0.258390	0.052667	-0.457803
C216	C	-0.290655	0.090197	-0.516056
C217	C	-0.238485	0.120201	-0.568398
C218	C	-0.154051	0.112675	-0.562487
C219	C	-0.121782	0.075143	-0.504232
C220	C	-0.173951	0.045139	-0.451890
H221	H	-0.353162	0.095769	-0.520434
H222	H	-0.262373	0.147984	-0.611523
H223	H	-0.115431	0.134885	-0.601234
H224	H	-0.059274	0.069570	-0.499854
H225	H	-0.150063	0.017355	-0.408765
C226	C	-0.258373	-0.061990	-0.457804
C227	C	-0.264544	-0.054496	-0.542219
C228	C	-0.212357	-0.084540	-0.594552
C229	C	-0.154000	-0.122080	-0.562469
C230	C	-0.147827	-0.129576	-0.478050
C231	C	-0.200014	-0.099531	-0.425717
H232	H	-0.307745	-0.026705	-0.565973
H233	H	-0.216927	-0.078991	-0.657045
H234	H	-0.115368	-0.144320	-0.601209
H235	H	-0.104626	-0.157366	-0.454296
H236	H	-0.195444	-0.105080	-0.363224
H237	H	-0.491450	-0.305254	-0.223999
C238	C	-0.911308	-0.830459	-0.251619
C239	C	-0.960027	-0.876254	-0.277532
C240	C	-0.989105	-0.916191	-0.220846
C241	C	-0.969464	-0.910333	-0.138248
C242	C	-0.920743	-0.864535	-0.112332
C243	C	-0.891665	-0.824598	-0.169017
H244	H	-0.974568	-0.880593	-0.338679
H245	H	-1.025171	-0.950094	-0.240032
H246	H	-0.990990	-0.939897	-0.096286
H247	H	-0.906202	-0.860197	-0.051184
H248	H	-0.855599	-0.790696	-0.149832
H249	H	-0.444038	0.044946	-0.271574
H250	H	-0.811367	-0.731950	-0.232773
C251	C	-0.505014	-0.198394	-0.210419
C252	C	-0.498837	-0.205886	-0.126004
C253	C	-0.551016	-0.175836	-0.073669
C254	C	-0.609372	-0.138295	-0.105750
C255	C	-0.615551	-0.130802	-0.190170
C256	C	-0.563372	-0.160852	-0.242504
H257	H	-0.455636	-0.233677	-0.102251
H258	H	-0.546442	-0.181383	-0.011176
H259	H	-0.647999	-0.116051	-0.067009
H260	H	-0.658752	-0.103011	-0.213922
H261	H	-0.567947	-0.155305	-0.304997
H262	H	-0.224475	-0.305373	-0.491778
H263	H	-0.271874	-0.457477	-0.444188
