data_functionalizedCrystal
_audit_creation_method	'MofGen! by Chris Wilmer'
_symmetry_space_group_name_H-M	'P1'
_symmetry_Int_Tables_number	1
_symmetry_cell_setting	triclinic
loop_
_symmetry_equiv_pos_as_xyz
  x,y,z
_cell_length_a	11.792254
_cell_length_b	9.565339
_cell_length_c	11.792241
_cell_angle_alpha	89.999915
_cell_angle_beta	95.803993
_cell_angle_gamma	89.995220
loop_
_atom_site_label
_atom_site_type_symbol
_atom_site_fract_x
_atom_site_fract_y
_atom_site_fract_z
O1	O	-1.506900	0.116300	0.155628
O2	O	-1.176560	0.116294	0.171646
O3	O	-1.349746	0.116287	-0.001533
O4	O	-1.333714	0.116307	0.328807
O5	O	-1.349733	-0.116233	-0.001522
O6	O	-1.176547	-0.116226	0.171657
O7	O	-1.506886	-0.116220	0.155639
Zn8	Zn	-1.341714	-0.153141	0.163650
Zn9	Zn	-1.341732	0.153215	0.163635
O10	O	-1.333700	-0.116213	0.328818
C11	C	-1.134263	0.000033	0.170642
C12	C	-1.008250	0.000031	0.167622
C13	C	-0.905913	0.000034	0.165168
C14	C	-0.777527	0.000031	0.162100
N15	N	-1.341710	-0.362220	0.163659
C16	C	-1.261593	-0.453420	0.243721
C17	C	-1.364293	-0.546596	0.266381
C18	C	-1.239054	-0.546600	0.141008
C19	C	-1.444463	-0.453344	0.186370
C20	C	-1.319155	-0.453340	0.060952
C21	C	-1.421930	-0.546473	0.083568
C22	C	-0.549183	0.000037	0.156643
C23	C	-0.675196	0.000029	0.159663
C24	C	-1.348732	0.000028	-0.043819
C25	C	-1.345718	0.000029	-0.169832
N26	N	-1.341745	0.362294	0.163617
C27	C	-1.340175	0.000052	-0.400545
C28	C	-1.343255	0.000040	-0.272160
C29	C	-1.334714	0.000049	0.371104
C30	C	-1.337728	0.000057	0.497118
H31	H	-1.193902	-0.412562	0.311491
O32	O	-1.135513	-0.595397	0.117959
C33	C	-1.111073	-0.545813	0.010491
H34	H	-1.194021	-0.518176	-0.042990
H35	H	-1.054981	-0.448784	0.022244
C36	C	-0.946221	-0.693999	0.015151
C37	C	-1.048100	-0.660065	-0.050539
H38	H	-0.907371	-0.764471	-0.022494
H39	H	-0.962683	-0.727401	0.087556
H40	H	-0.899491	-0.613131	0.024940
H41	H	-1.094833	-0.740928	-0.060315
H42	H	-1.031643	-0.626679	-0.122947
H43	H	-1.383395	-0.587557	0.353220
O44	O	-1.502794	-0.594752	0.002631
C45	C	-1.479723	-0.545161	-0.105266
H46	H	-1.425461	-0.446533	-0.094287
H47	H	-1.431712	-0.628692	-0.150156
C48	C	-1.659319	-0.632522	-0.190801
C49	C	-1.592682	-0.511378	-0.177317
H50	H	-1.728996	-0.611688	-0.235248
H51	H	-1.674862	-0.665937	-0.118110
H52	H	-1.619297	-0.702119	-0.228205
H53	H	-1.632698	-0.441789	-0.139900
H54	H	-1.577148	-0.477950	-0.250004
H55	H	-1.531311	-0.412553	0.205614
O56	O	-1.296197	-0.404252	-0.042517
C57	C	-1.196992	-0.321157	-0.029241
H58	H	-1.183451	-0.280352	0.061953
H59	H	-1.120347	-0.386736	-0.048009
C60	C	-1.227083	-0.247043	-0.224580
C61	C	-1.210457	-0.196915	-0.112577
H62	H	-1.235385	-0.170407	-0.275988
H63	H	-1.293917	-0.303029	-0.233526
H64	H	-1.163209	-0.301692	-0.240204
H65	H	-1.274336	-0.142282	-0.096950
H66	H	-1.143634	-0.140916	-0.103630
