data_functionalizedCrystal
_audit_creation_method	'MofGen! by Chris Wilmer'
_symmetry_space_group_name_H-M	'P1'
_symmetry_Int_Tables_number	1
_symmetry_cell_setting	triclinic
loop_
_symmetry_equiv_pos_as_xyz
  x,y,z
_cell_length_a	17.077404
_cell_length_b	18.050589
_cell_length_c	17.077396
_cell_angle_alpha	89.974523
_cell_angle_beta	89.983895
_cell_angle_gamma	90.026191
loop_
_atom_site_label
_atom_site_type_symbol
_atom_site_fract_x
_atom_site_fract_y
_atom_site_fract_z
Zn1	Zn	1.200008	-0.295694	-0.443840
Zn2	Zn	1.199908	-0.419893	-0.312583
Zn3	Zn	1.068745	-0.295717	-0.312590
Zn4	Zn	1.068696	-0.419842	-0.443809
O5	O	1.134339	-0.357786	-0.378205
O6	O	1.309842	-0.312180	-0.426438
O7	O	1.182488	-0.403451	-0.202737
O8	O	1.086220	-0.191789	-0.330017
O9	O	1.309768	-0.403429	-0.330004
O10	O	1.182658	-0.191772	-0.426445
O11	O	1.086123	-0.312220	-0.202742
O12	O	0.958892	-0.312170	-0.329987
O13	O	1.086136	-0.403342	-0.553660
O14	O	0.958855	-0.403365	-0.426393
O15	O	1.182610	-0.312131	-0.553683
O16	O	1.182440	-0.523810	-0.329974
O17	O	1.086039	-0.523773	-0.426385
C18	C	0.930391	-0.357765	-0.378188
C19	C	0.843142	-0.357774	-0.378199
C20	C	0.802190	-0.310345	-0.428489
C21	C	0.720210	-0.310350	-0.428492
C22	C	0.679182	-0.357788	-0.378209
C23	C	0.720139	-0.405219	-0.327914
C24	C	0.802118	-0.405209	-0.327907
C25	C	0.549269	-0.405235	-0.327933
C26	C	0.467284	-0.405246	-0.327941
C27	C	0.467361	-0.310376	-0.428519
C28	C	0.549340	-0.310367	-0.428512
C29	C	0.590291	-0.357799	-0.378217
C30	C	1.134244	-0.550738	-0.378192
C31	C	1.134276	-0.633284	-0.378213
C32	C	1.081904	-0.832741	-0.430623
C33	C	1.062772	-0.882183	-0.358994
C34	C	1.134353	-0.784414	-0.378223
C35	C	1.153524	-0.882054	-0.449860
C36	C	1.134426	-0.930399	-0.378239
C37	C	1.115183	-0.832769	-0.306557
C38	C	1.205968	-0.832636	-0.397471
C39	C	1.186863	-0.882055	-0.325793
C40	C	1.134309	-0.700316	-0.378215
C41	C	1.134470	-1.014496	-0.378240
C42	C	1.339083	-0.357808	-0.378223
C43	C	1.426333	-0.357817	-0.378231
C44	C	1.134379	-0.357729	-0.582950
C45	C	1.134395	-0.357704	-0.670200
C46	C	1.134456	-0.164081	-0.378236
C47	C	1.134505	-0.081535	-0.378249
C48	C	1.084233	-0.310194	-0.711192
C49	C	1.084246	-0.310177	-0.793173
C50	C	1.134426	-0.357667	-0.834159
C51	C	1.184590	-0.405182	-0.793161
C52	C	1.184572	-0.405202	-0.711182
C53	C	1.184624	-0.405136	-0.964031
C54	C	1.184642	-0.405115	-1.046016
C55	C	1.084298	-0.310111	-1.046022
C56	C	1.084280	-0.310131	-0.964043
C57	C	1.134446	-0.357645	-0.923050
C58	C	1.134345	-0.357790	-0.174258
C59	C	1.134480	-0.357605	-0.087008
H60	H	0.434014	-0.271754	-0.469469
C61	C	1.287717	-0.803207	-0.419488
C62	C	1.354375	-0.857835	-0.438203
C63	C	1.436125	-0.828404	-0.460231
C64	C	1.451217	-0.744346	-0.463545
C65	C	1.384557	-0.689713	-0.444831
C66	C	1.302807	-0.719143	-0.422802
H67	H	1.343205	-0.920064	-0.435750
H68	H	1.485471	-0.868848	-0.474085
H69	H	1.511733	-0.722560	-0.479852
H70	H	1.395727	-0.627483	-0.447284
H71	H	1.253462	-0.678700	-0.408948
C72	C	1.029087	-0.257891	-0.918953
C73	C	0.967433	-0.290080	-0.862579
C74	C	0.912238	-0.237841	-0.817489
C75	C	0.918698	-0.153412	-0.828773
C76	C	0.980355	-0.121219	-0.885149
C77	C	1.035549	-0.173458	-0.930240
H78	H	0.962648	-0.352583	-0.854224
H79	H	0.866596	-0.261673	-0.775755
H80	H	0.877840	-0.114742	-0.795394
H81	H	0.985139	-0.058716	-0.893504
H82	H	1.081192	-0.149626	-0.971973
C83	C	0.847316	-0.258160	-0.483801
C84	C	0.903683	-0.199809	-0.449885
C85	C	0.948805	-0.147619	-0.505196
C86	C	0.937561	-0.153781	-0.594423
C87	C	0.881192	-0.212135	-0.628343
C88	C	0.836070	-0.264325	-0.573032
H89	H	0.912009	-0.195245	-0.383830
H90	H	0.990534	-0.104421	-0.480086
H91	H	0.970964	-0.115148	-0.635368
H92	H	0.872866	-0.216699	-0.694399
H93	H	0.794341	-0.307523	-0.598143
H94	H	0.582742	-0.271743	-0.469461
H95	H	0.433882	-0.443874	-0.286997
C96	C	1.239833	-0.457373	-1.091085
C97	C	1.301511	-0.425215	-1.147453
C98	C	1.356701	-0.477480	-1.192515
C99	C	1.350213	-0.561904	-1.181209
C100	C	1.288533	-0.594066	-1.124838
C101	C	1.233343	-0.541801	-1.079777
H102	H	1.306316	-0.362715	-1.155825
H103	H	1.402361	-0.453671	-1.234244
H104	H	1.391068	-0.600594	-1.214566
H105	H	1.283728	-0.656566	-1.116467
H106	H	1.187683	-0.565610	-1.038048
C107	C	0.594319	-0.457410	-0.272611
C108	C	0.583018	-0.451250	-0.183385
C109	C	0.628068	-0.503425	-0.128068
C110	C	0.684420	-0.561762	-0.161975
C111	C	0.695724	-0.567925	-0.251205
C112	C	0.650673	-0.515750	-0.306523
H113	H	0.541301	-0.408063	-0.158281
H114	H	0.619701	-0.498863	-0.062014
H115	H	0.717769	-0.600386	-0.121026
H116	H	0.737441	-0.611112	-0.276310
H117	H	0.659041	-0.520312	-0.372577
H118	H	1.231248	-0.903572	-0.281435
H119	H	0.686871	-0.271730	-0.469445
H120	H	1.043396	-0.271493	-0.826545
H121	H	0.686728	-0.443840	-0.286969
H122	H	1.169709	-0.903703	-0.510436
C123	C	0.847168	-0.457383	-0.272588
C124	C	0.802043	-0.509565	-0.217278
C125	C	0.847091	-0.561736	-0.161954
C126	C	0.937265	-0.561725	-0.161940
C127	C	0.982395	-0.509541	-0.217252
C128	C	0.937346	-0.457370	-0.272576
H129	H	0.735286	-0.509575	-0.217286
H130	H	0.813682	-0.600367	-0.121008
H131	H	0.970613	-0.600346	-0.120985
H132	H	1.049151	-0.509531	-0.217244
H133	H	0.970755	-0.418739	-0.313522
H134	H	1.043452	-0.271422	-1.079402
H135	H	1.225425	-0.443884	-0.677807
H136	H	1.037485	-0.811088	-0.474873
C137	C	0.981001	-0.911590	-0.337002
C138	C	0.909712	-0.892154	-0.388234
C139	C	0.827940	-0.921557	-0.366248
C140	C	0.817457	-0.970398	-0.293031
C141	C	0.888749	-0.989837	-0.241795
C142	C	0.970521	-0.960433	-0.263781
H143	H	0.917470	-0.855997	-0.442437
H144	H	0.775166	-0.907167	-0.404177
H145	H	0.756925	-0.992164	-0.276756
H146	H	0.880991	-1.025993	-0.187592
H147	H	1.023295	-0.974823	-0.225852
H148	H	1.098927	-0.811210	-0.245964
C149	C	1.239802	-0.457401	-0.918931
C150	C	1.329046	-0.451348	-0.930200
C151	C	1.384223	-0.503608	-0.885096
C152	C	1.350156	-0.561920	-0.828724
C153	C	1.260907	-0.567975	-0.817452
C154	C	1.205730	-0.515715	-0.862556
H155	H	1.354269	-0.408179	-0.971933
H156	H	1.450291	-0.499125	-0.893441
H157	H	1.391001	-0.600606	-0.795336
H158	H	1.235684	-0.611144	-0.775720
H159	H	1.139662	-0.520198	-0.854211
H160	H	1.043376	-0.271518	-0.677827
H161	H	1.225443	-0.443853	-0.826538
