data_functionalizedCrystal
_audit_creation_method	'MofGen! by Chris Wilmer'
_symmetry_space_group_name_H-M	'P1'
_symmetry_Int_Tables_number	1
_symmetry_cell_setting	triclinic
loop_
_symmetry_equiv_pos_as_xyz
  x,y,z
_cell_length_a	15.995350
_cell_length_b	10.540539
_cell_length_c	9.016244
_cell_angle_alpha	89.999933
_cell_angle_beta	89.996308
_cell_angle_gamma	84.008933
loop_
_atom_site_label
_atom_site_type_symbol
_atom_site_fract_x
_atom_site_fract_y
_atom_site_fract_z
O1	O	1.111968	0.163613	-0.123207
O2	O	0.868313	0.183817	-0.123237
O3	O	0.995699	-0.011068	-0.123220
O4	O	0.984582	0.358498	-0.123225
O5	O	0.995681	-0.011064	0.123461
O6	O	0.868295	0.183822	0.123444
O7	O	1.111949	0.163617	0.123473
Cu8	Cu	0.990120	0.173720	0.145982
Cu9	Cu	0.990142	0.173714	-0.145746
O10	O	0.984563	0.358502	0.123456
C11	C	0.994856	-0.058357	0.000118
C12	C	0.992362	-0.199271	0.000109
C13	C	0.837104	0.182984	0.000099
C14	C	0.744139	0.180480	0.000088
C15	C	0.896779	-0.381384	-0.000456
C16	C	0.899307	-0.234801	0.000100
C17	C	1.037133	-0.261542	0.140982
C18	C	1.033957	-0.408042	0.141100
C19	C	1.035871	-0.408592	-0.139422
C20	C	1.036728	-0.261622	-0.141284
C21	C	0.406337	0.171487	0.000119
C22	C	0.452942	0.032693	0.000671
C23	C	0.549647	0.035198	0.000105
C24	C	0.573925	0.175948	0.000104
C25	C	0.533258	0.244403	-0.140758
C26	C	0.436601	0.240916	-0.140865
C27	C	0.436258	0.243789	0.139657
C28	C	0.533203	0.243756	0.141508
C29	C	0.668637	0.178476	0.000091
C30	C	0.311625	0.168962	0.000122
C31	C	1.143158	0.164450	0.000133
C32	C	1.236123	0.166954	0.000135
C33	C	0.985406	0.405792	0.000115
C34	C	0.987900	0.546705	0.000114
N35	N	0.990111	0.173723	0.351168
N36	N	0.990158	0.173701	-0.350932
C37	C	0.921758	0.277630	0.586192
C38	C	0.921910	0.278013	0.414301
C39	C	1.077651	0.202653	0.413517
C40	C	1.077278	0.203388	0.585462
C41	C	0.971792	0.040536	0.585711
C42	C	0.969783	0.041428	0.413757
H43	H	0.864078	-0.191715	-0.100883
F44	F	0.885608	0.012728	0.360497
F45	F	0.585626	-0.035328	-0.132316
F46	F	0.848739	-0.418105	-0.132501
F47	F	1.123723	-0.471528	-0.140653
F48	F	0.412288	0.175661	-0.278495
F49	F	0.936996	0.406073	0.642623
F50	F	0.848792	-0.420634	0.130476
F51	F	1.099118	0.328147	0.357215
F52	F	0.554082	0.377918	0.152628
F53	F	0.990685	-0.444307	0.278727
F54	F	0.586377	-0.035137	0.132086
H55	H	0.909306	0.012716	0.629151
H56	H	0.863816	-0.192555	0.101243
H57	H	0.404962	0.342816	-0.147258
H58	H	0.548001	0.347808	-0.145996
H59	H	1.100880	-0.456931	0.147499
H60	H	0.405108	0.346120	0.140609
H61	H	0.433025	-0.022533	-0.099788
H62	H	0.856510	0.260674	0.627577
H63	H	0.434080	-0.022784	0.101689
H64	H	1.105469	-0.240127	0.146228
H65	H	0.561356	0.196853	-0.245589
F66	F	0.836880	0.255548	0.359201
H67	H	0.415443	0.198416	0.246427
H68	H	0.933716	0.376835	0.373154
H69	H	1.003970	-0.220315	-0.245498
H70	H	1.093341	0.300504	0.625552
H71	H	1.104573	-0.238333	-0.149782
H72	H	1.005762	-0.439733	-0.246194
F73	F	0.996463	-0.205304	0.277998
F74	F	0.568423	0.178337	0.277717
F75	F	1.145796	0.108112	0.639828
F76	F	1.030591	-0.064394	0.357609
H77	H	1.129793	0.128973	0.372620
H78	H	1.021663	-0.036804	0.626370
