data_functionalizedCrystal
_audit_creation_method	'MofGen! by Chris Wilmer'
_symmetry_space_group_name_H-M	'P1'
_symmetry_Int_Tables_number	1
_symmetry_cell_setting	triclinic
loop_
_symmetry_equiv_pos_as_xyz
  x,y,z
_cell_length_a	12.827893
_cell_length_b	19.121063
_cell_length_c	12.827885
_cell_angle_alpha	87.596033
_cell_angle_beta	90.019272
_cell_angle_gamma	92.468878
loop_
_atom_site_label
_atom_site_type_symbol
_atom_site_fract_x
_atom_site_fract_y
_atom_site_fract_z
Zn1	Zn	1.579835	-0.279579	0.608539
Zn2	Zn	1.572236	-0.397046	0.441232
Zn3	Zn	1.405075	-0.279614	0.433815
Zn4	Zn	1.397572	-0.396994	0.615928
O5	O	1.488680	-0.338308	0.524878
O6	O	1.725063	-0.295169	0.586357
O7	O	1.550022	-0.381505	0.294014
O8	O	1.434577	-0.181325	0.450796
O9	O	1.719480	-0.381471	0.463437
O10	O	1.562973	-0.181300	0.579165
O11	O	1.427209	-0.295227	0.288565
O12	O	1.257844	-0.295177	0.457961
O13	O	1.421790	-0.381382	0.761182
O14	O	1.252332	-0.381415	0.591759
O15	O	1.555698	-0.295118	0.755753
O16	O	1.542747	-0.495323	0.470602
O17	O	1.414422	-0.495285	0.598951
C18	C	1.217171	-0.338295	0.524858
C19	C	1.101017	-0.338306	0.524875
C20	C	1.046528	-0.381046	0.590989
C21	C	0.926477	-0.381059	0.591008
C22	C	1.476974	-0.520788	0.536406
C23	C	1.472062	-0.598854	0.541373
C24	C	1.536618	-0.635526	0.476937
C25	C	1.532005	-0.708877	0.481615
C26	C	1.462829	-0.745554	0.550723
C27	C	1.398270	-0.708877	0.615166
C28	C	1.402890	-0.635528	0.610493
C29	C	1.445540	-0.967023	0.568177
C30	C	1.440923	-1.040378	0.572842
C31	C	1.574660	-1.040373	0.439292
C32	C	1.579269	-0.967021	0.434621
C33	C	1.514714	-0.930351	0.499067
C34	C	1.458109	-0.820531	0.555503
C35	C	1.519440	-0.855375	0.494292
C36	C	1.761249	-0.338322	0.524900
C37	C	1.877402	-0.338328	0.524909
C38	C	1.488755	-0.338241	0.797445
C39	C	1.488787	-0.338212	0.913596
C40	C	1.500460	-0.155116	0.513328
C41	C	1.505479	-0.077050	0.508407
C42	C	1.488668	-0.338325	0.253370
C43	C	1.488851	-0.338156	0.137206
C44	C	1.555057	-0.295518	0.962694
C45	C	1.555091	-0.295487	1.082742
H46	H	1.058790	-0.301721	0.468290
H47	H	1.384604	-1.070239	0.629137
H48	H	1.635597	-0.937160	0.378347
O49	O	0.864434	-0.429530	0.665995
H50	H	0.779878	-0.421929	0.654249
O51	O	1.611234	-0.595967	0.402403
H52	H	1.655357	-0.633794	0.358392
O53	O	1.375885	-0.927474	0.637651
H54	H	1.326991	-0.965304	0.686471
H55	H	1.575767	-0.825511	0.438028
O56	O	1.383482	-0.860097	0.630018
H57	H	1.428117	-0.893469	0.685347
O58	O	1.323644	-0.748431	0.689695
H59	H	1.331263	-0.805597	0.682108
H60	H	1.611763	-0.258986	0.915852
H61	H	1.611830	-0.258937	1.124975
H62	H	1.350322	-0.605670	0.662965
O63	O	1.601630	-0.748432	0.412113
H64	H	1.584620	-0.734413	0.329189
H65	H	0.924244	-0.301737	0.468300
H66	H	1.627218	-1.070238	0.386825
O67	O	1.413673	-0.386574	1.081293
H68	H	1.458163	-0.422296	1.033810
O69	O	1.102448	-0.429491	0.665978
H70	H	1.187966	-0.421873	0.654204
H71	H	1.432071	-0.374737	0.960437
