data_functionalizedCrystal
_audit_creation_method	'MofGen! by Chris Wilmer'
_symmetry_space_group_name_H-M	'P1'
_symmetry_Int_Tables_number	1
_symmetry_cell_setting	triclinic
loop_
_symmetry_equiv_pos_as_xyz
  x,y,z
_cell_length_a	10.654550
_cell_length_b	14.044220
_cell_length_c	9.130313
_cell_angle_alpha	89.997493
_cell_angle_beta	89.996220
_cell_angle_gamma	88.836890
loop_
_atom_site_label
_atom_site_type_symbol
_atom_site_fract_x
_atom_site_fract_y
_atom_site_fract_z
O1	O	1.681222	0.133227	-0.121925
O2	O	1.317019	0.145921	-0.121902
O3	O	1.493654	0.001554	-0.121899
O4	O	1.504587	0.277595	-0.121929
O5	O	1.493652	0.001557	0.121700
O6	O	1.317017	0.145925	0.121696
O7	O	1.681220	0.133231	0.121673
Cu8	Cu	1.499119	0.139578	0.143927
Cu9	Cu	1.499121	0.139574	-0.144156
O10	O	1.504585	0.277598	0.121670
C11	C	1.270127	0.144991	-0.000100
C12	C	1.130403	0.142202	-0.000091
C13	C	1.059459	0.227203	-0.000121
C14	C	0.928175	0.224578	-0.000146
C15	C	0.938790	0.051942	-0.000116
C16	C	1.070072	0.054569	-0.000081
C17	C	1.053329	0.326873	-0.000145
C18	C	0.922045	0.324247	-0.000170
C19	C	1.488867	-0.033790	-0.000099
C20	C	1.474592	-0.139110	-0.000096
C21	C	1.448493	-0.331943	-0.000116
C22	C	1.549741	-0.388911	-0.000126
C23	C	1.535219	-0.496210	-0.000137
C24	C	1.463013	-0.224634	-0.000105
C25	C	1.728113	0.134161	-0.000132
C26	C	1.867836	0.136950	-0.000151
C27	C	1.509372	0.312942	-0.000133
C28	C	1.523648	0.418262	-0.000146
N29	N	1.499126	0.139581	0.346550
N30	N	1.499122	0.139564	-0.346779
C31	C	1.577364	0.075677	0.423203
C32	C	1.577359	0.075666	0.576540
C33	C	1.420876	0.203470	0.576557
C34	C	1.420875	0.203477	0.423223
C35	C	1.667713	0.001893	0.423195
C36	C	1.667708	0.001881	0.576532
H37	H	0.889652	-0.019406	-0.000131
N38	N	0.868555	0.362027	0.131767
N39	N	0.938280	0.392518	0.230592
H40	H	0.900503	0.419196	0.323774
H41	H	1.350913	-0.363754	-0.000113
H42	H	0.884087	0.361800	-0.102127
N43	N	1.340928	0.268744	0.344945
N44	N	1.271067	0.325783	0.413425
H45	H	1.214597	0.371879	0.358142
H46	H	1.647328	-0.357098	-0.000231
H47	H	1.765853	0.018134	0.618140
N48	N	1.142521	-0.032266	-0.000022
N49	N	1.088635	-0.110500	-0.000012
H50	H	1.139801	-0.171832	0.000031
H51	H	1.357165	0.255492	0.639000
N52	N	1.102029	0.366763	-0.132044
N53	N	1.166824	0.439887	-0.126722
H54	H	1.201204	0.468080	-0.219871
H55	H	1.638943	-0.071017	0.381585
N56	N	1.095064	0.375724	0.127780
N57	N	1.068590	0.344711	0.252094
H58	H	1.098077	0.379194	0.342450
N59	N	1.785002	0.030909	0.363532
N60	N	1.872839	0.052630	0.447076
H61	H	1.955670	0.073137	0.404940
H62	H	1.630271	-0.067018	0.624089
