data_functionalizedCrystal
_audit_creation_method	'MofGen! by Chris Wilmer'
_symmetry_space_group_name_H-M	'P1'
_symmetry_Int_Tables_number	1
_symmetry_cell_setting	triclinic
loop_
_symmetry_equiv_pos_as_xyz
  x,y,z
_cell_length_a	25.639242
_cell_length_b	25.639240
_cell_length_c	17.077404
_cell_angle_alpha	90.020723
_cell_angle_beta	90.017180
_cell_angle_gamma	90.028283
loop_
_atom_site_label
_atom_site_type_symbol
_atom_site_fract_x
_atom_site_fract_y
_atom_site_fract_z
Zn1	Zn	0.799221	-0.208304	0.443975
Zn2	Zn	0.799161	-0.295714	0.312686
Zn3	Zn	0.711805	-0.208288	0.312702
Zn4	Zn	0.711751	-0.295703	0.443890
O5	O	0.755484	-0.252002	0.378313
O6	O	0.872378	-0.219910	0.426588
O7	O	0.787570	-0.284115	0.202842
O8	O	0.723448	-0.135125	0.330158
O9	O	0.872334	-0.284131	0.330131
O10	O	0.787672	-0.135136	0.426603
O11	O	0.723390	-0.219884	0.202853
O12	O	0.638632	-0.219873	0.330076
O13	O	0.723357	-0.284111	0.553748
O14	O	0.638593	-0.284096	0.426458
O15	O	0.787621	-0.219899	0.553810
O16	O	0.787518	-0.368878	0.330048
O17	O	0.723299	-0.368870	0.426443
C18	C	0.619642	-0.251982	0.378260
C19	C	0.561528	-0.251985	0.378256
C20	C	0.201153	-0.285499	0.428452
C21	C	0.146549	-0.285503	0.428464
O22	O	0.118302	-0.313972	0.471098
N23	N	0.119245	-0.252017	0.378364
C24	C	0.146549	-0.218522	0.328254
O25	O	0.118311	-0.190039	0.285642
C26	C	0.201152	-0.218516	0.328247
C27	C	0.228453	-0.252008	0.378344
C28	C	0.228454	-0.318988	0.478546
C29	C	0.283055	-0.318985	0.478533
C30	C	0.310354	-0.285494	0.428425
C31	C	0.283054	-0.252005	0.378331
C32	C	0.228455	-0.185019	0.278141
C33	C	0.283062	-0.185016	0.278138
C34	C	0.310363	-0.218508	0.328236
C35	C	0.364954	-0.218512	0.328209
N36	N	0.392257	-0.251997	0.378309
C37	C	0.364958	-0.285489	0.428417
C38	C	0.031878	-0.218535	0.328276
C39	C	-0.022724	-0.218543	0.328279
C40	C	-0.022720	-0.285523	0.428490
C41	C	0.031883	-0.285518	0.428482
C42	C	0.059182	-0.252021	0.378376
C43	C	0.479623	-0.285481	0.428384
C44	C	0.534228	-0.285477	0.428364
C45	C	0.534220	-0.218495	0.328156
C46	C	0.479619	-0.218501	0.328173
C47	C	0.452322	-0.251995	0.378293
O48	O	0.393235	-0.190056	0.285600
O49	O	0.393202	-0.313961	0.471029
C50	C	0.755411	-0.387845	0.378252
C51	C	0.755427	-0.445959	0.378252
C52	C	0.788943	-0.806289	0.428623
C53	C	0.788958	-0.860894	0.428639
O54	O	0.817366	-0.889103	0.471403
N55	N	0.755557	-0.888241	0.378389
C56	C	0.722135	-0.860982	0.328126
O57	O	0.693726	-0.889257	0.285387
C58	C	0.722117	-0.806379	0.328114
C59	C	0.755524	-0.779034	0.378362
C60	C	0.822346	-0.778945	0.478867
C61	C	0.822332	-0.724344	0.478849
C62	C	0.788913	-0.697088	0.428588
C63	C	0.755509	-0.724433	0.378345
C64	C	0.688692	-0.779120	0.277856
C65	C	0.688677	-0.724513	0.277849
C66	C	0.722084	-0.697168	0.328096
C67	C	0.722076	-0.642577	0.328066
N68	N	0.755477	-0.615229	0.378316
C69	C	0.788895	-0.642485	0.428577
C70	C	0.722174	-0.975652	0.328155
C71	C	0.722194	-1.030255	0.328161
C72	C	0.789016	-1.030163	0.428676
C73	C	0.788999	-0.975560	0.428664
C74	C	0.755575	-0.948305	0.378404
C75	C	0.788862	-0.527820	0.428537
C76	C	0.788846	-0.473215	0.428513
C77	C	0.722021	-0.473311	0.328002
C78	C	0.722039	-0.527912	0.328022
C79	C	0.755461	-0.555165	0.378296
O80	O	0.693680	-0.614333	0.285326
O81	O	0.817295	-0.614203	0.471316
C82	C	0.891857	-0.252023	0.378367
C83	C	0.949971	-0.252032	0.378390
C84	C	0.755489	-0.252006	0.583057
C85	C	0.755492	-0.252007	0.670307
C86	C	0.755573	-0.115629	0.378392
C87	C	0.755611	-0.057515	0.378426
C88	C	0.788949	-0.218577	0.711331
C89	C	0.788945	-0.218577	0.793312
C90	C	0.755485	-0.252009	0.834267
C91	C	0.722024	-0.285440	0.793237
C92	C	0.722026	-0.285437	0.711258
C93	C	0.722022	-0.285443	0.964107
C94	C	0.722021	-0.285446	1.046092
C95	C	0.788942	-0.218582	1.046161
C96	C	0.788944	-0.218580	0.964182
C97	C	0.755483	-0.252012	0.923158
C98	C	0.755477	-0.252013	1.174365
C99	C	0.755479	-0.252017	1.087116
H100	H	0.556454	-0.312752	0.469160
H101	H	0.694813	-0.451111	0.287077
Br102	Br	0.676709	-0.565024	0.259817
Br103	Br	0.320097	-0.364439	0.546530
Br104	Br	0.834371	-1.067163	0.496887
Br105	Br	0.676863	-1.067359	0.259953
Br106	Br	0.867704	-0.815924	0.547092
H107	H	0.694767	-0.312659	0.930708
Br108	Br	0.676811	-0.938669	0.259934
Br109	Br	0.571280	-0.173045	0.260155
Br110	Br	0.320107	-0.139552	0.210134
H111	H	0.206232	-0.346261	0.519354
H112	H	0.457390	-0.191230	0.287378
Br113	Br	0.676605	-0.330813	1.101674
H114	H	0.694778	-0.312659	0.826589
Br115	Br	0.643350	-0.816217	0.209660
H116	H	0.816198	-0.191355	0.677992
Br117	Br	0.834379	-0.173230	0.848984
Br118	Br	0.834359	-0.173212	0.908600
H119	H	0.661458	-0.702325	0.236922
Br120	Br	0.834355	-0.173213	1.101835
Br121	Br	-0.059768	-0.173096	0.260274
H122	H	0.694776	-0.312654	0.677857
Br123	Br	0.834189	-0.436107	0.496707
Br124	Br	0.191418	-0.139560	0.210151
H125	H	0.054108	-0.312789	0.469278
Br126	Br	-0.059780	-0.330972	0.496501
Br127	Br	0.442585	-0.330938	0.496406
Br128	Br	0.068921	-0.173074	0.260262
H129	H	0.816074	-0.550003	0.469480
H130	H	0.816201	-0.953299	0.469580
Br131	Br	0.867669	-0.687242	0.547051
