data_functionalizedCrystal
_audit_creation_method	'MofGen! by Chris Wilmer'
_symmetry_space_group_name_H-M	'P1'
_symmetry_Int_Tables_number	1
_symmetry_cell_setting	triclinic
loop_
_symmetry_equiv_pos_as_xyz
  x,y,z
_cell_length_a	13.897448
_cell_length_b	12.827893
_cell_length_c	12.827885
_cell_angle_alpha	89.980728
_cell_angle_beta	90.032276
_cell_angle_gamma	89.982337
loop_
_atom_site_label
_atom_site_type_symbol
_atom_site_fract_x
_atom_site_fract_y
_atom_site_fract_z
Zn1	Zn	-0.383969	-1.597653	0.590831
Zn2	Zn	-0.545295	-1.597540	0.416083
Zn3	Zn	-0.384016	-1.422894	0.416104
Zn4	Zn	-0.545224	-1.422873	0.590783
O5	O	-0.464626	-1.510240	0.503450
O6	O	-0.405380	-1.743874	0.567661
O7	O	-0.523951	-1.574335	0.269850
O8	O	-0.249028	-1.446133	0.439311
O9	O	-0.523905	-1.743791	0.439275
O10	O	-0.248994	-1.574527	0.567681
O11	O	-0.405460	-1.446023	0.269865
O12	O	-0.405390	-1.276655	0.439265
O13	O	-0.523783	-1.446096	0.737026
O14	O	-0.523829	-1.276639	0.567601
O15	O	-0.405310	-1.574506	0.737060
O16	O	-0.680267	-1.574314	0.439229
O17	O	-0.680215	-1.445986	0.567580
C18	C	-0.464607	-1.238730	0.503430
C19	C	-0.464623	-1.122577	0.503447
C20	C	-0.715240	-1.510164	0.503420
C21	C	-0.822454	-1.510227	0.503442
C22	C	-0.464533	-1.510311	0.776021
C23	C	-0.464494	-1.510341	0.892174
C24	C	-1.018749	-1.510336	0.503508
C25	C	-0.909517	-1.510272	0.503474
C26	C	-0.213033	-1.510345	0.503504
C27	C	-0.105819	-1.510390	0.503526
C28	C	-0.464645	-1.782810	0.503471
C29	C	-0.464654	-1.898963	0.503480
C30	C	-0.523321	-1.070812	0.566853
C31	C	-0.523338	-0.950762	0.566872
C32	C	-0.464649	-1.510229	0.231940
C33	C	-0.464416	-1.510401	0.115788
C34	C	-0.405858	-1.573890	0.943976
C35	C	-0.405816	-1.573923	1.064026
H36	H	-0.573559	-1.115371	0.621128
H37	H	-0.514623	-1.455996	1.071246
N38	N	-0.339305	-1.645989	1.123017
H39	H	-0.354277	-1.720661	1.104078
H40	H	-0.348725	-1.635710	1.200396
N41	N	-0.589917	-0.891806	0.638776
H42	H	-0.580494	-0.814404	0.628595
H43	H	-0.575000	-0.910866	0.713453
H44	H	-0.414400	-0.943473	0.449188
N45	N	-0.398075	-1.063567	0.431545
H46	H	-0.353464	-1.018304	0.474139
H47	H	-0.437345	-1.018315	0.383111
N48	N	-0.530947	-1.438307	0.951156
H49	H	-0.599892	-1.454483	0.932209
H50	H	-0.515902	-1.363653	0.932194
N51	N	-0.339421	-1.645953	0.885008
H52	H	-0.348880	-1.635727	0.807607
H53	H	-0.354445	-1.720593	0.904049
