data_functionalizedCrystal
_audit_creation_method	'MofGen! by Chris Wilmer'
_symmetry_space_group_name_H-M	'P1'
_symmetry_Int_Tables_number	1
_symmetry_cell_setting	triclinic
loop_
_symmetry_equiv_pos_as_xyz
  x,y,z
_cell_length_a	16.959454
_cell_length_b	19.077105
_cell_length_c	19.077271
_cell_angle_alpha	89.912562
_cell_angle_beta	92.296319
_cell_angle_gamma	92.302281
loop_
_atom_site_label
_atom_site_type_symbol
_atom_site_fract_x
_atom_site_fract_y
_atom_site_fract_z
Zn1	Zn	0.382532	1.058326	0.440471
Zn2	Zn	0.509592	1.063033	0.322984
Zn3	Zn	0.371908	0.945563	0.318263
Zn4	Zn	0.509147	0.940834	0.435735
O5	O	0.443295	1.001939	0.379363
O6	O	0.404019	1.157283	0.428843
O7	O	0.487067	1.051399	0.224026
O8	O	0.262707	0.960530	0.334481
O9	O	0.497369	1.160741	0.342526
O10	O	0.270512	1.043377	0.424266
O11	O	0.385912	0.965094	0.220558
O12	O	0.385481	0.846603	0.329889
O13	O	0.496612	0.952470	0.534694
O14	O	0.486310	0.843128	0.416195
O15	O	0.403588	1.038791	0.538174
O16	O	0.620143	1.046814	0.337934
O17	O	0.619816	0.957035	0.420772
C18	C	0.434695	0.819369	0.372016
C19	C	0.431036	0.741264	0.368890
C20	C	0.237128	1.001956	0.379375
C21	C	0.149272	1.001963	0.379380
C22	C	0.481886	0.702783	0.412286
C23	C	0.478438	0.629395	0.409352
C24	C	0.424142	0.594489	0.363018
C25	C	0.373286	0.632976	0.319621
C26	C	0.376731	0.706363	0.322559
C27	C	0.408197	0.375199	0.349423
C28	C	0.404757	0.301807	0.346487
C29	C	0.509908	0.298231	0.436219
C30	C	0.513352	0.371619	0.439150
C31	C	0.462493	0.410099	0.395755
N32	N	0.420617	0.519475	0.360016
N33	N	0.466015	0.485112	0.398761
C34	C	-0.218140	1.045136	0.426141
C35	C	-0.226263	0.958867	0.332647
C36	C	-0.143718	0.958857	0.332644
C37	C	-0.098380	1.001987	0.379389
C38	C	-0.135587	1.045128	0.426138
C39	C	-0.106504	0.915722	0.285891
C40	C	-0.023954	0.915710	0.285886
C41	C	0.021386	0.958838	0.332635
C42	C	-0.015827	1.001980	0.379386
C43	C	0.029511	1.045111	0.426132
C44	C	-0.007699	1.088250	0.472887
C45	C	-0.090247	1.088256	0.472887
C46	C	0.103934	0.958832	0.332635
C47	C	0.112064	1.045104	0.426129
C48	C	0.648661	1.001941	0.379367
C49	C	0.736522	1.002005	0.379395
C50	C	0.451235	0.994578	0.562643
C51	C	0.454619	0.991442	0.640746
C52	C	0.451929	1.185222	0.386739
C53	C	0.455608	1.263326	0.389882
C54	C	0.407779	1.034908	0.679251
C55	C	0.410955	1.031953	0.752637
C56	C	0.460976	0.985533	0.787516
C57	C	0.507818	0.942062	0.749006
C58	C	0.504638	0.945014	0.675621
C59	C	0.475678	0.971880	1.006798
C60	C	0.478857	0.968932	1.080188
C61	C	0.381992	1.058822	1.083814
C62	C	0.378819	1.061774	1.010428
C63	C	0.425659	1.018300	0.971924
N64	N	0.464226	0.982512	0.862528
N65	N	0.422404	1.021317	0.896913
C66	C	0.435402	1.009265	1.196796
C67	C	0.432017	1.012398	1.118693
H68	H	0.526102	0.731197	0.450013
C69	C	0.041436	1.135025	0.523753
C70	C	0.023640	1.116939	0.592662
C71	C	0.068885	1.160015	0.639538
H72	H	0.095944	1.128879	0.517146
H73	H	0.029677	1.182666	0.515421
H74	H	0.035404	1.069310	0.600991
H75	H	-0.030859	1.123089	0.599292
H76	H	0.057127	1.207655	0.631206
H77	H	0.123390	1.153865	0.632924
H78	H	0.056812	1.147753	0.686298
C79	C	-0.275440	0.912128	0.281785
C80	C	-0.257664	0.930224	0.212873
C81	C	-0.302959	0.887185	0.166000
H82	H	-0.263729	0.864480	0.290079
H83	H	-0.329942	0.918317	0.288432
H84	H	-0.203174	0.924029	0.206229
H85	H	-0.269379	0.977864	0.204556
H86	H	-0.357462	0.893374	0.172648
H87	H	-0.291244	0.839539	0.174302
H88	H	-0.290910	0.899461	0.119239
H89	H	0.513830	0.936490	0.975457
C90	C	0.345736	0.263825	0.296302
C91	C	0.294915	0.220093	0.334492
C92	C	0.240537	0.185090	0.288292
H93	H	0.315860	0.297180	0.270870
H94	H	0.373202	0.236377	0.264494
H95	H	0.267451	0.247539	0.366288
H96	H	0.324769	0.186725	0.359922
H97	H	0.268004	0.157643	0.256484
H98	H	0.210667	0.218451	0.262863
H99	H	0.206054	0.155410	0.314197
C100	C	-0.130795	1.135071	0.523563
C101	C	-0.212791	1.125861	0.513543
C102	C	-0.250172	1.168984	0.560203
H103	H	-0.115804	1.122936	0.570394
H104	H	-0.115531	1.182711	0.515170
H105	H	-0.228049	1.078232	0.521941
H106	H	-0.227804	1.138001	0.466722
H107	H	-0.234907	1.216624	0.551810
H108	H	-0.235175	1.156846	0.607031
H109	H	-0.305809	1.162746	0.553406
C110	C	0.352941	0.416848	0.302229
C111	C	0.304670	0.370569	0.261012
C112	C	0.253762	0.408914	0.217521
H113	H	0.320984	0.444400	0.330229
H114	H	0.383112	0.446692	0.272674
H115	H	0.274501	0.340738	0.290563
H116	H	0.336606	0.343016	0.232997
H117	H	0.283933	0.438758	0.187966
H118	H	0.221810	0.436465	0.245527
H119	H	0.221009	0.377520	0.189546
H120	H	0.519846	0.598066	0.444688
H121	H	0.148973	1.080221	0.464200
H122	H	-0.248439	1.080257	0.464210
H123	H	-0.143421	0.880609	0.247829
C124	C	0.324356	1.112080	0.972612
C125	C	0.246210	1.096041	0.989855
C126	C	0.196012	1.142363	0.955032
H127	H	0.338560	1.158835	0.986517
H128	H	0.329101	1.107618	0.923382
H129	H	0.241469	1.100509	1.039074
H130	H	0.231982	1.049294	0.975948
H131	H	0.200756	1.137902	0.905802
H132	H	0.210222	1.189115	0.968940
H133	H	0.142983	1.131483	0.966721
H134	H	0.343857	1.094215	1.115172
C135	C	0.016295	0.868795	0.235101
C136	C	-0.041079	0.831013	0.194176
C137	C	-0.004030	0.787780	0.147394
H138	H	0.048439	0.896823	0.205499
H139	H	0.048195	0.837057	0.260733
H140	H	-0.072966	0.862747	0.168546
H141	H	-0.073226	0.802972	0.223758
H142	H	0.027870	0.756042	0.173026
H143	H	0.028112	0.815813	0.117797
H144	H	-0.042953	0.762135	0.119625
C145	C	0.533036	0.918477	1.118141
C146	C	0.487979	0.871765	1.158473
C147	C	0.537858	0.825284	1.193451
H148	H	0.560491	0.892937	1.084775
H149	H	0.569977	0.944176	1.147890
H150	H	0.451052	0.846069	1.128727
H151	H	0.460526	0.897285	1.191852
H152	H	0.574799	0.850983	1.223199
H153	H	0.565310	0.799750	1.160079
H154	H	0.507295	0.793589	1.220825
H155	H	0.134227	0.923711	0.294565
C156	C	0.562106	0.891732	0.787002
C157	C	0.554884	0.898462	0.859511
C158	C	0.604891	0.852117	0.894534
H159	H	0.547844	0.844972	0.773157
H160	H	0.615197	0.902500	0.775425
H161	H	0.501805	0.887690	0.871082
H162	H	0.569152	0.945213	0.873377
H163	H	0.657982	0.862885	0.882958
H164	H	0.590624	0.805360	0.880683
H165	H	0.600003	0.856682	0.943735
C166	C	0.353388	1.085330	0.641514
C167	C	0.313032	1.122749	0.690946
C168	C	0.262910	1.169195	0.656210
H169	H	0.383739	1.117159	0.614119
H170	H	0.316400	1.059618	0.611821
H171	H	0.350015	1.148458	0.720626
H172	H	0.282665	1.090937	0.718343
H173	H	0.225922	1.143484	0.626518
H174	H	0.293267	1.201021	0.628816
H175	H	0.235516	1.194585	0.689744
C176	C	0.314380	0.595174	0.269206
C177	C	0.329278	0.615817	0.200372
C178	C	0.275024	0.581016	0.153910
H179	H	0.319558	0.545949	0.273575
H180	H	0.262288	0.606799	0.280007
H181	H	0.381358	0.604187	0.189574
H182	H	0.324094	0.665036	0.195981
H183	H	0.222932	0.592642	0.164711
H184	H	0.280207	0.531794	0.158285
H185	H	0.285121	0.595023	0.107202
C186	C	0.555597	0.897800	0.633938
C187	C	0.600105	0.856533	0.680189
C188	C	0.647069	0.813038	0.641818
H189	H	0.522770	0.868272	0.604070
H190	H	0.590102	0.925821	0.606411
H191	H	0.565604	0.828514	0.707705
H192	H	0.632947	0.886042	0.710059
H193	H	0.681574	0.841059	0.614291
H194	H	0.614236	0.783515	0.611951
H195	H	0.677279	0.785038	0.673194
H196	H	0.372814	1.067349	0.783985
H197	H	0.335319	0.737693	0.287225
H198	H	0.557567	0.400034	0.476878
H199	H	0.551313	0.266892	0.471549
