data_functionalizedCrystal
_audit_creation_method	'MofGen! by Chris Wilmer'
_symmetry_space_group_name_H-M	'P1'
_symmetry_Int_Tables_number	1
_symmetry_cell_setting	triclinic
loop_
_symmetry_equiv_pos_as_xyz
  x,y,z
_cell_length_a	14.044220
_cell_length_b	11.026607
_cell_length_c	10.065875
_cell_angle_alpha	100.731764
_cell_angle_beta	80.449472
_cell_angle_gamma	100.887447
loop_
_atom_site_label
_atom_site_type_symbol
_atom_site_fract_x
_atom_site_fract_y
_atom_site_fract_z
O1	O	1.319580	0.281448	-0.113335
O2	O	1.041779	0.270687	-0.113370
O3	O	1.157655	0.096922	-0.113350
O4	O	1.203704	0.455212	-0.113354
O5	O	1.135584	0.130202	0.113635
O6	O	1.019708	0.303966	0.113615
O7	O	1.297509	0.314727	0.113650
Zn8	Zn	1.155104	0.314631	0.149672
Zn9	Zn	1.184184	0.270783	-0.149391
O10	O	1.181633	0.488492	0.113631
C11	C	0.994626	0.282618	0.000118
C12	C	0.887005	0.268572	0.000105
C13	C	1.138125	0.067431	0.000140
C14	C	1.112801	-0.070025	0.000132
C15	C	1.182725	-0.136261	0.000139
C16	C	1.156554	-0.278330	0.000130
C17	C	0.689960	0.242901	0.000132
C18	C	0.649322	0.342506	0.000137
C19	C	0.539680	0.328222	0.000152
C20	C	0.799612	0.257183	0.000117
C21	C	1.344662	0.302796	0.000160
C22	C	1.452284	0.316840	0.000164
C23	C	1.201163	0.517982	0.000138
C24	C	1.226488	0.655438	0.000137
N25	N	1.135265	0.344556	0.353774
N26	N	1.204029	0.240849	-0.353493
C27	C	1.177274	0.281186	0.421560
C28	C	1.162014	0.304228	0.578725
H29	H	1.261964	-0.087789	0.000157
C30	C	1.050826	-0.342748	0.000324
C31	C	0.993645	-0.291138	0.117080
C32	C	0.896245	-0.350438	0.117295
H33	H	1.047135	-0.429647	0.000389
H34	H	1.027228	-0.331062	-0.078793
H35	H	1.017237	-0.302836	0.196177
H36	H	0.997307	-0.204246	0.117040
H37	H	0.872647	-0.338752	0.038178
H38	H	0.892565	-0.437335	0.117356
H39	H	0.857435	-0.315422	0.196506
C40	C	1.332091	-0.279715	0.000219
C41	C	1.337054	-0.151690	0.000255
C42	C	1.434315	-0.091912	0.000347
H43	H	1.371129	-0.314421	-0.078911
H44	H	1.355658	-0.291287	0.079409
H45	H	1.313499	-0.140127	-0.078927
H46	H	1.298037	-0.116949	0.079379
H47	H	1.457882	-0.103483	0.079537
H48	H	1.473345	-0.126627	-0.078784
H49	H	1.437694	-0.005039	0.000384
C50	C	0.712655	0.470582	0.000387
C51	C	0.681486	0.551770	0.117174
C52	C	0.739820	0.669750	0.117451
H53	H	0.707037	0.502774	-0.078681
H54	H	0.778992	0.463349	0.000446
H55	H	0.615165	0.559007	0.117103
H56	H	0.687107	0.519619	0.196261
H57	H	0.806157	0.662517	0.117510
H58	H	0.734198	0.701929	0.038378
H59	H	0.718686	0.724847	0.196695
H60	H	1.033562	-0.118497	0.000113
H61	H	0.642410	0.146907	0.000141
H62	H	1.114744	0.375538	0.637037
C63	C	1.240152	0.185921	0.343849
C64	C	1.200174	0.067813	0.378443
C65	C	1.258069	-0.019970	0.306858
H66	H	1.304677	0.209382	0.367117
H67	H	1.242002	0.183015	0.248544
H68	H	1.198335	0.070722	0.473727
H69	H	1.135656	0.044314	0.355172
H70	H	1.259919	-0.022876	0.211552
H71	H	1.322591	0.003503	0.330131
H72	H	1.230948	-0.100118	0.330310
H73	H	1.251291	0.169529	0.588194
H74	H	1.087998	0.415862	0.412092
