data_functionalizedCrystal
_audit_creation_method	'MofGen! by Chris Wilmer'
_symmetry_space_group_name_H-M	'P1'
_symmetry_Int_Tables_number	1
_symmetry_cell_setting	triclinic
loop_
_symmetry_equiv_pos_as_xyz
  x,y,z
_cell_length_a	15.538191
_cell_length_b	12.811445
_cell_length_c	11.892095
_cell_angle_alpha	80.666316
_cell_angle_beta	92.341637
_cell_angle_gamma	65.748776
loop_
_atom_site_label
_atom_site_type_symbol
_atom_site_fract_x
_atom_site_fract_y
_atom_site_fract_z
O1	O	0.111811	1.366789	-0.234098
O2	O	0.127630	1.052882	-0.201921
O3	O	-0.017570	1.270941	-0.224278
O4	O	0.257011	1.148730	-0.211741
O5	O	-0.005482	1.252766	-0.034407
O6	O	0.139717	1.034707	-0.012050
O7	O	0.123899	1.348615	-0.044227
Zn8	Zn	0.133727	1.188776	0.002007
Zn9	Zn	0.117801	1.212721	-0.248156
O10	O	0.269098	1.130556	-0.021870
C11	C	0.133157	1.004600	-0.102968
C12	C	0.131605	0.887819	-0.090998
C13	C	0.115527	0.688179	-0.275523
C14	C	0.114070	0.578453	-0.264281
C15	C	0.127238	0.558635	-0.057273
C16	C	0.128696	0.668362	-0.068515
C17	C	0.122839	0.733131	-0.177644
C18	C	0.124290	0.842862	-0.188885
C19	C	0.137465	0.823039	0.018122
C20	C	0.136007	0.713313	0.029364
C21	C	-0.046655	1.274640	-0.130657
C22	C	-0.151330	1.312728	-0.134573
C23	C	-0.438125	0.934348	-0.095763
C24	C	-0.536485	0.970162	-0.099432
C25	C	-0.559457	1.171611	-0.120081
C26	C	-0.461097	1.135814	-0.116420
C27	C	-0.400439	1.017181	-0.104260
C28	C	-0.423411	1.218647	-0.124917
C29	C	-0.325060	1.182852	-0.121250
C30	C	-0.264395	1.064224	-0.109086
C31	C	-0.302088	0.981386	-0.100593
C32	C	-0.484071	1.337279	-0.137069
C33	C	-0.446385	1.420112	-0.145566
C34	C	-0.348032	1.384318	-0.141907
C35	C	-0.287367	1.265690	-0.129743
C36	C	-0.310340	1.467156	-0.150400
C37	C	-0.211988	1.431361	-0.146733
C38	C	-0.189016	1.229895	-0.126076
C39	C	0.298184	1.126857	-0.115493
C40	C	0.402858	1.088770	-0.111585
C41	C	0.118372	1.396896	-0.143182
C42	C	0.119923	1.513678	-0.155160
N43	N	0.144596	1.172442	0.172736
N44	N	0.106925	1.229066	-0.418886
C45	C	0.031242	1.342747	0.391923
C46	C	0.038846	1.331335	0.511435
C47	C	0.167403	1.138202	0.531275
C48	C	0.159799	1.149614	0.411763
C49	C	0.091717	1.251891	0.342091
C50	C	0.084118	1.263306	0.222576
C51	C	0.212670	1.070171	0.242418
C52	C	0.220274	1.058758	0.361930
H53	H	-0.139624	1.133293	-0.116182
C54	C	-0.625220	1.300464	-0.133472
C55	C	-0.614432	1.361876	-0.236485
C56	C	-0.674987	1.480581	-0.248856
H57	H	-0.689229	1.310087	-0.134513
H58	H	-0.609593	1.329711	-0.070946
H59	H	-0.630065	1.332637	-0.298995
H60	H	-0.550437	1.352287	-0.235468
H61	H	-0.659360	1.509828	-0.186331
H62	H	-0.738991	1.490192	-0.249894
H63	H	-0.667669	1.522265	-0.318746
H64	H	0.143417	0.859651	0.097823
H65	H	-0.252696	0.884784	-0.090699
H66	H	-0.010400	1.405318	0.552004
C67	C	0.117744	0.913337	-0.307345
C68	C	0.037077	1.019920	-0.324288
C69	C	0.031012	1.084859	-0.433408
H70	H	0.172944	0.927522	-0.313159
H71	H	0.113131	0.870906	-0.364065
H72	H	0.041697	1.062343	-0.267584
H73	H	-0.018138	1.005771	-0.318498
H74	H	0.026400	1.042428	-0.490128
H75	H	0.086217	1.099035	-0.439212
H76	H	-0.023724	1.157178	-0.444922
C77	C	0.106077	0.529874	-0.370692
C78	C	0.101239	0.610097	-0.468664
C79	C	0.093865	0.565392	-0.566715
H80	H	0.160185	0.458340	-0.367776
H81	H	0.050234	0.516683	-0.373672
H82	H	0.157076	0.623273	-0.465684
H83	H	0.047133	0.681635	-0.471618
H84	H	0.038022	0.552202	-0.569695
H85	H	0.147974	0.493858	-0.563787
H86	H	0.090572	0.619821	-0.633200
C87	C	0.241331	1.027042	0.606738
C88	C	0.292650	0.949894	0.537523
C89	C	0.360747	0.847472	0.607001
H90	H	0.283560	1.045417	0.651031
H91	H	0.210476	0.991508	0.656518
H92	H	0.323504	0.985422	0.487764
H93	H	0.250447	0.931486	0.493231
H94	H	0.329892	0.811938	0.656780
H95	H	0.402969	0.865859	0.651290
H96	H	0.395569	0.795111	0.560049
H97	H	0.132015	0.505878	0.031575
H98	H	0.275703	0.975485	0.418671
C99	C	-0.512308	1.548915	-0.159005
C100	C	-0.575650	1.584701	-0.259412
C101	C	-0.636383	1.703352	-0.271842
H102	H	-0.547029	1.560876	-0.094744
H103	H	-0.475814	1.593171	-0.163609
H104	H	-0.612141	1.540459	-0.254799
H105	H	-0.540957	1.572769	-0.323691
H106	H	-0.599889	1.747608	-0.276446
H107	H	-0.671097	1.715302	-0.207576
H108	H	-0.679362	1.727650	-0.339973
H109	H	0.110754	0.740917	-0.364380
C110	C	-0.376265	1.595958	-0.163829
C111	C	-0.439613	1.631753	-0.264231
C112	C	-0.500348	1.750401	-0.276646
H113	H	-0.410980	1.607909	-0.099563
H114	H	-0.339771	1.640216	-0.168432
H115	H	-0.476103	1.587508	-0.259620
H116	H	-0.404925	1.619831	-0.328515
H117	H	-0.463855	1.794659	-0.281248
H118	H	-0.535056	1.762341	-0.212375
H119	H	-0.543331	1.774706	-0.344774
H120	H	0.140779	0.660562	0.118214
C121	C	-0.157619	1.025500	-0.104944
C122	C	-0.125113	1.059216	-0.011691
C123	C	-0.026760	1.023577	-0.007848
H124	H	-0.126774	0.942999	-0.096428
H125	H	-0.143798	1.060976	-0.174111
H126	H	-0.138925	1.023736	0.057459
H127	H	-0.155932	1.141712	-0.020185
H128	H	-0.012939	1.059053	-0.077015
H129	H	0.004076	0.941077	0.000664
H130	H	-0.004693	1.046458	0.055416
C131	C	-0.372105	0.805605	-0.082628
C132	C	-0.277910	0.791996	-0.081261
C133	C	-0.217068	0.673423	-0.069177
H134	H	-0.379162	0.763617	-0.012781
H135	H	-0.387664	0.776394	-0.145224
H136	H	-0.262356	0.821192	-0.018670
H137	H	-0.270823	0.833957	-0.151100
H138	H	-0.232627	0.644213	-0.131774
H139	H	-0.224133	0.631445	0.000670
H140	H	-0.153151	0.664175	-0.068259
H141	H	0.028685	1.346586	0.165850
C142	C	-0.577546	0.880367	-0.090402
C143	C	-0.639580	0.904400	-0.189574
C144	C	-0.677435	0.821719	-0.181287
H145	H	-0.527435	0.804541	-0.082686
H146	H	-0.611274	0.883823	-0.025226
H147	H	-0.605854	0.900933	-0.254732
H148	H	-0.689707	0.980212	-0.197309
H149	H	-0.711162	0.825175	-0.116111
H150	H	-0.627317	0.745898	-0.173569
H151	H	-0.719535	0.838020	-0.248568
C152	C	-0.171130	1.521362	-0.156209
C153	C	-0.208183	1.600167	-0.261032
C154	C	-0.170554	1.683083	-0.269805
H155	H	-0.187725	1.562411	-0.094934
H156	H	-0.103868	1.483096	-0.152348
H157	H	-0.275429	1.638430	-0.264882
H158	H	-0.191590	1.559153	-0.322325
H159	H	-0.103293	1.644817	-0.265944
H160	H	-0.187152	1.724123	-0.208525
H161	H	-0.195682	1.736556	-0.340931
C162	C	-0.042760	1.453855	0.316469
C163	C	-0.094108	1.530975	0.385692
C164	C	-0.162294	1.633335	0.316226
H165	H	-0.012007	1.489475	0.266639
H166	H	-0.084951	1.435354	0.272231
H167	H	-0.051924	1.549477	0.429910
H168	H	-0.124881	1.495392	0.435520
H169	H	-0.204485	1.614834	0.271989
H170	H	-0.131533	1.668944	0.266400
H171	H	-0.197148	1.685668	0.363184
C172	C	0.278493	0.971574	0.188372
C173	C	0.372964	0.950423	0.219318
C174	C	0.433627	0.859619	0.169542
H175	H	0.269779	0.902918	0.214770
H176	H	0.264284	0.992994	0.107207
H177	H	0.387168	0.928997	0.300466
H178	H	0.381708	1.019053	0.192920
H179	H	0.419418	0.881040	0.088377
H180	H	0.424904	0.790971	0.195943
H181	H	0.497731	0.845264	0.190523
H182	H	-0.564155	1.366420	-0.140065
