data_functionalizedCrystal
_audit_creation_method	'MofGen! by Chris Wilmer'
_symmetry_space_group_name_H-M	'P1'
_symmetry_Int_Tables_number	1
_symmetry_cell_setting	triclinic
loop_
_symmetry_equiv_pos_as_xyz
  x,y,z
_cell_length_a	10.686285
_cell_length_b	16.120530
_cell_length_c	10.685314
_cell_angle_alpha	91.675659
_cell_angle_beta	90.303498
_cell_angle_gamma	82.519283
loop_
_atom_site_label
_atom_site_type_symbol
_atom_site_fract_x
_atom_site_fract_y
_atom_site_fract_z
Zn1	Zn	-0.658092	1.269519	-0.760424
Zn2	Zn	-0.158092	1.769519	-0.260424
Zn3	Zn	-0.853577	1.290724	-0.536090
Zn4	Zn	-0.353577	1.790724	-0.036090
Zn5	Zn	-0.631421	1.139829	-0.541541
Zn6	Zn	-0.131421	1.639829	-0.041541
Zn7	Zn	-0.857274	1.141472	-0.735302
Zn8	Zn	-0.357274	1.641472	-0.235302
O9	O	-0.750091	1.210386	-0.643339
O10	O	-0.250091	1.710386	-0.143339
O11	O	-0.693638	1.389070	-0.738897
O12	O	-0.193638	1.889070	-0.238897
O13	O	-0.811398	1.278895	-0.361839
O14	O	-0.311398	1.778895	0.138161
O15	O	-0.458628	1.147471	-0.583372
O16	O	0.041372	1.647471	-0.083372
O17	O	-0.837260	1.404649	-0.574080
O18	O	-0.337260	1.904649	-0.074080
O19	O	-0.478223	1.242753	-0.744183
O20	O	0.021777	1.742753	-0.244183
O21	O	-0.648182	1.168033	-0.365844
O22	O	-0.148182	1.668033	0.134156
O23	O	-0.651767	1.023309	-0.559012
O24	O	-0.151767	1.523309	-0.059012
O25	O	-0.843561	1.150271	-0.913608
O26	O	-0.343561	1.650271	-0.413608
O27	O	-0.817700	1.024516	-0.701367
O28	O	-0.317700	1.524516	-0.201367
O29	O	-0.697223	1.244346	-0.932065
O30	O	-0.197223	1.744346	-0.432065
O31	O	-1.030399	1.280488	-0.549721
O32	O	-0.530399	1.780488	-0.049721
O33	O	-1.033115	1.170833	-0.696081
O34	O	-0.533115	1.670833	-0.196081
C35	C	-1.077481	1.228161	-0.619612
C36	C	-0.577481	1.728161	-0.119612
C37	C	-1.217549	1.235840	-0.609509
C38	C	-0.717549	1.735840	-0.109509
C39	C	-0.732241	0.993644	-0.628056
C40	C	-0.232241	1.493644	-0.128056
C41	C	-0.724637	0.900921	-0.621545
C42	C	-0.224637	1.400921	-0.121545
C43	C	-0.710726	0.731153	-0.609670
C44	C	-0.210726	1.231153	-0.109670
C45	C	-0.789556	0.690461	-0.677093
C46	C	-0.289556	1.190461	-0.177093
C47	C	-0.781815	0.595996	-0.670486
C48	C	-0.281815	1.095996	-0.170486
C49	C	-0.718465	0.825626	-0.616276
C50	C	-0.218465	1.325626	-0.116276
C51	C	-0.421426	1.192563	-0.667188
C52	C	0.078574	1.692563	-0.167188
C53	C	-0.281369	1.184968	-0.677351
C54	C	0.218631	1.684968	-0.177351
C55	C	-0.773780	1.195126	-0.969474
C56	C	-0.273780	1.695126	-0.469474
C57	C	-0.783874	1.188623	-1.108453
C58	C	-0.283874	1.688623	-0.608453
C59	C	-0.768012	1.427975	-0.658683
C60	C	-0.268012	1.927975	-0.158683
C61	C	-0.775649	1.520698	-0.665222
C62	C	-0.275649	2.020698	-0.165222
C63	C	-0.726408	1.225630	-0.318483
C64	C	-0.226408	1.725630	0.181517
C65	C	-0.715971	1.232275	-0.179542
C66	C	-0.215971	1.732275	0.320458
H67	H	-1.270072	1.285265	-0.543682
H68	H	-0.770072	1.785265	-0.043682
H69	H	-0.650097	1.274616	-1.134076
H70	H	-0.150097	1.774616	-0.634076
H71	H	-0.862856	0.726568	-0.739778
H72	H	-0.362856	1.226568	-0.239778
N73	N	-1.215480	1.122975	-0.759929
N74	N	-0.715480	1.622975	-0.259929
N75	N	-1.150148	1.144575	-0.846952
N76	N	-0.650148	1.644575	-0.346952
H77	H	-1.103605	1.100793	-0.905276
H78	H	-0.603605	1.600793	-0.405276
H79	H	-0.637431	0.695047	-0.546991
H80	H	-0.137431	1.195047	-0.046991
H81	H	-0.849730	1.146275	-1.153914
H82	H	-0.349730	1.646275	-0.653914
