data_functionalizedCrystal
_audit_creation_method	'MofGen! by Chris Wilmer'
_symmetry_space_group_name_H-M	'P1'
_symmetry_Int_Tables_number	1
_symmetry_cell_setting	triclinic
loop_
_symmetry_equiv_pos_as_xyz
  x,y,z
_cell_length_a	21.395364
_cell_length_b	18.050590
_cell_length_c	18.050582
_cell_angle_alpha	90.024044
_cell_angle_beta	90.015777
_cell_angle_gamma	90.014317
loop_
_atom_site_label
_atom_site_type_symbol
_atom_site_fract_x
_atom_site_fract_y
_atom_site_fract_z
Zn1	Zn	0.957858	-0.295785	0.419908
Zn2	Zn	1.457858	0.204215	0.919908
Zn3	Zn	0.957799	-0.419970	0.295716
Zn4	Zn	1.457799	0.080030	0.795716
Zn5	Zn	0.853089	-0.295789	0.295732
Zn6	Zn	1.353089	0.204211	0.795732
Zn7	Zn	0.853064	-0.419929	0.419865
Zn8	Zn	1.353064	0.080071	0.919865
O9	O	0.905452	-0.357868	0.357805
O10	O	1.405452	0.142132	0.857805
O11	O	1.045528	-0.312274	0.403445
O12	O	1.545528	0.187726	0.903445
O13	O	0.943894	-0.403516	0.191794
O14	O	1.443894	0.096484	0.691794
O15	O	0.867022	-0.191864	0.312229
O16	O	1.367022	0.308136	0.812229
O17	O	1.045484	-0.403512	0.312202
O18	O	1.545484	0.096488	0.812202
O19	O	0.943995	-0.191861	0.403460
O20	O	1.443995	0.308139	0.903460
O21	O	0.866964	-0.312281	0.191805
O22	O	1.366964	0.187719	0.691805
O23	O	0.765408	-0.312241	0.312187
O24	O	1.265408	0.187759	0.812187
O25	O	0.866980	-0.403442	0.523795
O26	O	1.366980	0.096558	1.023795
O27	O	0.765390	-0.403446	0.403387
O28	O	1.265390	0.096554	0.903387
O29	O	0.943971	-0.312234	0.523827
O30	O	1.443971	0.187766	1.023827
O31	O	0.943870	-0.523889	0.312160
O32	O	1.443870	-0.023889	0.812160
O33	O	0.866922	-0.523859	0.403371
O34	O	1.366922	-0.023859	0.903371
C35	C	0.742665	-0.357840	0.357784
C36	C	1.242665	0.142160	0.857784
C37	C	0.673024	-0.357846	0.357793
C38	C	1.173024	0.142154	0.857793
C39	C	0.171249	-0.310473	0.405403
C40	C	0.671249	0.189527	0.905403
C41	C	0.236685	-0.310467	0.405403
C42	C	0.736685	0.189533	0.905403
C43	C	0.269385	-0.357891	0.357822
C44	C	0.769385	0.142109	0.857822
C45	C	0.236645	-0.405337	0.310251
C46	C	0.736645	0.094663	0.810251
C47	C	0.171211	-0.405347	0.310257
C48	C	0.671211	0.094653	0.810257
C49	C	0.373031	-0.363649	0.290891
C50	C	0.873031	0.136351	0.790891
C51	C	0.438464	-0.363634	0.290883
C52	C	0.938464	0.136366	0.790883
C53	C	0.471206	-0.357866	0.357801
C54	C	0.971206	0.142134	0.857801
C55	C	0.438507	-0.352098	0.424729
C56	C	0.938507	0.147902	0.924729
C57	C	0.373073	-0.352107	0.424736
C58	C	0.873073	0.147893	0.924736
C59	C	0.340338	-0.357887	0.357810
C60	C	0.840338	0.142113	0.857810
C61	C	0.574891	-0.310421	0.405373
C62	C	1.074891	0.189579	0.905373
C63	C	0.640328	-0.310421	0.405374
C64	C	1.140328	0.189579	0.905374
C65	C	0.640286	-0.405287	0.310215
C66	C	1.140286	0.094713	0.810215
C67	C	0.574851	-0.405291	0.310220
C68	C	1.074851	0.094709	0.810220
C69	C	0.542157	-0.357854	0.357799
C70	C	1.042157	0.142146	0.857799
C71	C	0.905404	-0.550821	0.357776
C72	C	1.405404	-0.050821	0.857776
C73	C	0.905441	-0.633366	0.357788
C74	C	1.405441	-0.133366	0.857788
C75	C	0.947372	-0.832806	0.308256
C76	C	1.447372	-0.332806	0.808256
C77	C	0.962674	-0.882146	0.376036
C78	C	1.462674	-0.382146	0.876036
C79	C	0.905477	-0.784497	0.357817
C80	C	1.405477	-0.284497	0.857817
C81	C	0.890239	-0.882239	0.290068
C82	C	1.390239	-0.382239	0.790068
C83	C	0.905512	-0.930482	0.357840
C84	C	1.405512	-0.430482	0.857840
C85	C	0.920807	-0.832749	0.425633
C86	C	1.420807	-0.332749	0.925633
C87	C	0.848346	-0.832838	0.339619
C88	C	1.348346	-0.332838	0.839619
C89	C	0.863626	-0.882155	0.407446
C90	C	1.363626	-0.382155	0.907446
C91	C	0.905458	-0.700398	0.357803
C92	C	1.405458	-0.200398	0.857803
C93	C	0.905531	-1.014578	0.357862
C94	C	1.405531	-0.514578	0.857862
C95	C	1.068876	-0.357898	0.357826
C96	C	1.568876	0.142102	0.857826
C97	C	1.138517	-0.357910	0.357835
C98	C	1.638517	0.142090	0.857835
C99	C	0.905480	-0.357833	0.551511
C100	C	1.405480	0.142167	1.051511
C101	C	0.905491	-0.357818	0.634057
C102	C	1.405491	0.142182	1.134057
C103	C	0.905518	-0.164163	0.357851
C104	C	1.405518	0.335837	0.857851
C105	C	0.905546	-0.081617	0.357871
C106	C	1.405546	0.418383	0.857871
C107	C	0.905462	-0.357850	0.164853
C108	C	1.405462	0.142150	0.664853
C109	C	0.905571	-0.357656	0.082308
C110	C	1.405571	0.142344	0.582308
C111	C	0.863662	-0.407336	0.882865
C112	C	1.363662	0.092664	1.382865
C113	C	0.848348	-0.339597	0.833478
C114	C	1.348348	0.160403	1.333478
C115	C	0.905544	-0.357709	0.931177
C116	C	1.405544	0.142291	1.431177
C117	C	0.920802	-0.425498	0.833482
C118	C	1.420802	0.074502	1.333482
C119	C	0.905516	-0.357766	0.785192
C120	C	1.405516	0.142234	1.285192
C121	C	0.890201	-0.289934	0.882878
C122	C	1.390201	0.210066	1.382878
C123	C	0.962681	-0.375880	0.882886
C124	C	1.462681	0.124120	1.382886
C125	C	0.947389	-0.308095	0.833521
C126	C	1.447389	0.191905	1.333521
C127	C	0.905558	-0.357677	1.015276
C128	C	1.405558	0.142323	1.515276
C129	C	0.905502	-0.357790	0.701095
C130	C	1.405502	0.142210	1.201095
H131	H	0.263341	-0.271835	0.444138
H132	H	0.763341	0.228165	0.944138
C133	C	0.938591	-0.501896	0.726628
C134	C	1.438591	-0.001896	1.226628
C135	C	0.938243	-0.502855	0.804194
C136	C	1.438243	-0.002855	1.304194
H137	H	0.949351	-0.549657	0.708551
H138	H	1.449351	-0.049657	1.208551
H139	H	0.968378	-0.466728	0.709738
H140	H	1.468378	0.033272	1.209738
H141	H	0.898276	-0.488666	0.708993
H142	H	1.398276	0.011334	1.208993
H143	H	0.978560	-0.516080	0.821830
H144	H	1.478560	-0.016080	1.321830
H145	H	0.908455	-0.538036	0.821091
H146	H	1.408455	-0.038036	1.321091
H147	H	0.263274	-0.443952	0.271512
H148	H	0.763274	0.056048	0.771512
C149	C	0.299427	-0.307235	0.207838
C150	C	0.799427	0.192765	0.707838
C151	C	0.337046	-0.369985	0.217327
C152	C	0.837046	0.130015	0.717327
H153	H	0.277210	-0.311150	0.162426
H154	H	0.777210	0.188850	0.662426
H155	H	0.324960	-0.264191	0.206949
H156	H	0.824960	0.235809	0.706949
H157	H	0.270591	-0.303815	0.247700
H158	H	0.770591	0.196185	0.747700
H159	H	0.365885	-0.373402	0.177468
H160	H	0.865885	0.126598	0.677468
H161	H	0.311511	-0.413040	0.218210
H162	H	0.811511	0.086960	0.718210
H163	H	1.010999	-0.391250	0.904605
H164	H	1.510999	0.108750	1.404605
H165	H	0.465083	-0.368327	0.236386
H166	H	0.965083	0.131673	0.736386
C167	C	0.816733	-0.463734	0.989691
C168	C	1.316733	0.036266	1.489691
C169	C	0.815833	-0.463885	0.912125
C170	C	1.315833	0.036115	1.412125
H171	H	0.787206	-0.498645	1.007755
H172	H	1.287206	0.001355	1.507755
H173	H	0.806281	-0.415725	1.007321
H174	H	1.306281	0.084275	1.507321
H175	H	0.857320	-0.476741	1.006600
H176	H	1.357320	0.023259	1.506600
H177	H	0.775246	-0.450872	0.895216
H178	H	1.275246	0.049128	1.395216
H179	H	0.826280	-0.511905	0.894488
H180	H	1.326280	-0.011905	1.394488
C181	C	0.995141	-0.252325	0.726879
C182	C	1.495141	0.247675	1.226879
C183	C	0.995186	-0.251412	0.804447
C184	C	1.495186	0.248588	1.304447
H185	H	1.024649	-0.217333	0.708930
H186	H	1.524649	0.282667	1.208930
H187	H	0.954669	-0.239845	0.709220
H188	H	1.454669	0.260155	1.209220
H189	H	1.006086	-0.300415	0.709882
H190	H	1.506086	0.199585	1.209882
H191	H	0.984236	-0.203323	0.821444
H192	H	1.484236	0.296677	1.321444
H193	H	1.035666	-0.263887	0.822113
H194	H	1.535666	0.236113	1.322113
H195	H	0.144634	-0.271849	0.444148
H196	H	0.644634	0.228151	0.944148
H197	H	0.144560	-0.443977	0.271521
H198	H	0.644560	0.056023	0.771521
H199	H	0.465163	-0.347397	0.479220
H200	H	0.965163	0.152603	0.979220
H201	H	0.548270	-0.271795	0.444114
H202	H	1.048270	0.228205	0.944114
C203	C	0.379679	-0.340715	0.557039
C204	C	0.879679	0.159285	1.057039
C205	C	0.337129	-0.345778	0.498300
C206	C	0.837129	0.154222	0.998300
H207	H	0.357487	-0.336815	0.602454
H208	H	0.857487	0.163185	1.102454
H209	H	0.405200	-0.298142	0.550588
H210	H	0.905200	0.201858	1.050588
H211	H	0.405200	-0.383763	0.557917
H212	H	0.905200	0.116237	1.057917
H213	H	0.311611	-0.302728	0.497418
H214	H	0.811611	0.197272	0.997418
H215	H	0.311597	-0.388356	0.504752
H216	H	0.811597	0.111644	1.004752
C217	C	0.742704	-0.306723	0.863965
C218	C	1.242704	0.193277	1.363965
C219	C	0.783105	-0.318881	0.804171
C220	C	1.283105	0.181119	1.304171
H221	H	0.702424	-0.293943	0.845871
H222	H	1.202424	0.206057	1.345871
H223	H	0.758418	-0.267453	0.893656
H224	H	1.258418	0.232547	1.393656
H225	H	0.739864	-0.350532	0.892913
H226	H	1.239864	0.149468	1.392913
H227	H	0.785948	-0.275070	0.775226
H228	H	1.285948	0.224930	1.275226
H229	H	0.767387	-0.358154	0.774468
H230	H	1.267387	0.141846	1.274468
C231	C	1.025128	-0.863371	0.217359
C232	C	1.525128	-0.363371	0.717359
C233	C	0.995214	-0.803548	0.251735
C234	C	1.495214	-0.303548	0.751735
H235	H	1.054666	-0.845305	0.182473
H236	H	1.554666	-0.345305	0.682473
H237	H	0.994997	-0.893078	0.192610
H238	H	1.494997	-0.393078	0.692610
H239	H	1.046015	-0.892292	0.253683
H240	H	1.546015	-0.392292	0.753683
H241	H	0.974323	-0.774629	0.215412
H242	H	1.474323	-0.274629	0.715412
H243	H	1.025349	-0.773828	0.276485
H244	H	1.525349	-0.273828	0.776485
H245	H	1.011003	-0.903806	0.391443
H246	H	1.511003	-0.403806	0.891443
H247	H	0.666977	-0.271794	0.444115
H248	H	1.166977	0.228206	0.944115
C249	C	0.949067	-0.863387	0.550661
C250	C	1.449067	-0.363387	1.050661
C251	C	0.938304	-0.803534	0.503016
C252	C	1.438304	-0.303534	1.003016
H253	H	0.959866	-0.845349	0.598433
H254	H	1.459866	-0.345349	1.098433
H255	H	0.982330	-0.892697	0.531826
H256	H	1.482330	-0.392697	1.031826
H257	H	0.912298	-0.892699	0.554045
H258	H	1.412298	-0.392699	1.054045
H259	H	0.975075	-0.774225	0.499628
H260	H	1.475075	-0.274225	0.999628
H261	H	0.905038	-0.774212	0.521855
H262	H	1.405038	-0.274212	1.021855
H263	H	0.666910	-0.443906	0.271479
H264	H	1.166910	0.056094	0.771479
C265	C	0.818333	-0.954296	0.217615
C266	C	1.318333	-0.454296	0.717615
C267	C	0.872816	-0.911587	0.212712
C268	C	1.372816	-0.411587	0.712712
H269	H	0.807584	-0.972415	0.169858
H270	H	1.307584	-0.472415	0.669858
H271	H	0.785196	-0.924609	0.236173
H272	H	1.285196	-0.424609	0.736173
H273	H	0.825273	-0.994836	0.250132
H274	H	1.325273	-0.494836	0.750132
H275	H	0.865875	-0.871044	0.180199
H276	H	1.365875	-0.371044	0.680199
H277	H	0.905960	-0.941275	0.194143
H278	H	1.405960	-0.441275	0.694143
H279	H	0.828211	-0.903686	0.449416
H280	H	1.328211	-0.403686	0.949416
H281	H	0.548200	-0.443916	0.271482
H282	H	1.048200	0.056084	0.771482
C283	C	0.872821	-0.213236	0.989608
C284	C	1.372821	0.286764	1.489608
C285	C	0.872676	-0.212555	0.912038
C286	C	1.372676	0.287445	1.412038
H287	H	0.861995	-0.165468	1.007609
H288	H	1.361995	0.334532	1.507609
H289	H	0.913289	-0.226193	1.006932
H290	H	1.413289	0.273807	1.506932
H291	H	0.843267	-0.248501	1.006888
H292	H	1.343267	0.251499	1.506888
H293	H	0.902234	-0.177293	0.894758
H294	H	1.402234	0.322707	1.394758
H295	H	0.832203	-0.199589	0.894707
H296	H	1.332203	0.300411	1.394707
C297	C	0.739128	-0.829572	0.369983
C298	C	1.239128	-0.329572	0.869983
C299	C	0.783122	-0.803571	0.318794
C300	C	1.283122	-0.303571	0.818794
H301	H	0.698861	-0.811506	0.357116
H302	H	1.198861	-0.311506	0.857116
H303	H	0.749911	-0.812651	0.418153
H304	H	1.249911	-0.312651	0.918153
H305	H	0.738768	-0.882194	0.369385
H306	H	1.238768	-0.382194	0.869385
H307	H	0.783485	-0.750948	0.319395
H308	H	1.283485	-0.250948	0.819395
H309	H	0.772336	-0.820487	0.270612
H310	H	1.272336	-0.320487	0.770612
