data_functionalizedCrystal
_audit_creation_method	'MofGen! by Chris Wilmer'
_symmetry_space_group_name_H-M	'P1'
_symmetry_Int_Tables_number	1
_symmetry_cell_setting	triclinic
loop_
_symmetry_equiv_pos_as_xyz
  x,y,z
_cell_length_a	16.109301
_cell_length_b	16.109301
_cell_length_c	8.140239
_cell_angle_alpha	89.996472
_cell_angle_beta	89.999998
_cell_angle_gamma	83.461532
loop_
_atom_site_label
_atom_site_type_symbol
_atom_site_fract_x
_atom_site_fract_y
_atom_site_fract_z
O1	O	1.103130	0.106866	-0.136510
O2	O	1.603130	0.606866	0.363490
O3	O	0.861068	0.120165	-0.136536
O4	O	1.361068	0.620165	0.363464
O5	O	0.988749	-0.007515	-0.136511
O6	O	1.488749	0.492485	0.363489
O7	O	0.975449	0.234546	-0.136534
O8	O	1.475449	0.734546	0.363466
O9	O	0.988742	-0.007517	0.136716
O10	O	1.488742	0.492483	0.636716
O11	O	0.861061	0.120164	0.136691
O12	O	1.361061	0.620164	0.636691
O13	O	1.103123	0.106864	0.136717
O14	O	1.603123	0.606864	0.636717
Zn15	Zn	0.982091	0.113514	0.180085
Zn16	Zn	1.482091	0.613514	0.680085
Zn17	Zn	0.982100	0.113516	-0.179903
Zn18	Zn	1.482100	0.613516	0.320097
O19	O	0.975442	0.234545	0.136693
O20	O	1.475442	0.734545	0.636693
C21	C	0.830090	0.119626	0.000075
C22	C	1.330090	0.619626	0.500075
C23	C	0.737794	0.118011	0.000065
C24	C	1.237794	0.618011	0.500065
C25	C	0.515522	0.190018	0.000077
C26	C	1.015522	0.690018	0.500077
C27	C	0.428802	0.188494	0.000088
C28	C	0.928802	0.688494	0.500088
C29	C	0.448676	0.037006	0.000095
C30	C	0.948676	0.537006	0.500095
C31	C	0.535395	0.038530	0.000096
C32	C	1.035395	0.538530	0.500096
C33	C	0.568815	0.115039	0.000079
C34	C	1.068815	0.615039	0.500079
C35	C	0.395376	0.111990	0.000089
C36	C	0.895376	0.611990	0.500089
C37	C	0.301350	0.110337	0.000100
C38	C	0.801350	0.610337	0.500100
C39	C	0.662847	0.116693	0.000070
C40	C	1.162847	0.616693	0.500070
C41	C	0.988206	-0.038491	0.000102
C42	C	1.488206	0.461509	0.500102
C43	C	0.986591	-0.130786	0.000099
C44	C	1.486591	0.369214	0.500099
C45	C	1.057074	-0.439785	0.000079
C46	C	1.557074	0.060215	0.500079
C47	C	1.058600	-0.353064	0.000088
C48	C	1.558600	0.146936	0.500088
C49	C	0.907111	-0.333191	0.000094
C50	C	1.407111	0.166809	0.500094
C51	C	0.905586	-0.419910	0.000096
C52	C	1.405586	0.080090	0.500096
C53	C	0.980571	-0.473205	0.000080
C54	C	1.480571	0.026795	0.500080
C55	C	0.983620	-0.299766	0.000087
C56	C	1.483620	0.200234	0.500087
C57	C	0.985274	-0.205740	0.000098
C58	C	1.485274	0.294260	0.500098
C59	C	0.978917	-0.567237	0.000073
C60	C	1.478917	-0.067237	0.500073
C61	C	1.134101	0.107404	0.000104
C62	C	1.634101	0.607404	0.500104
C63	C	1.226397	0.109019	0.000103
C64	C	1.726397	0.609019	0.500103
C65	C	0.975985	0.265521	0.000076
C66	C	1.475985	0.765521	0.500076
C67	C	0.977600	0.357816	0.000068
C68	C	1.477600	0.857816	0.500068
N69	N	0.982091	0.113512	0.425768
N70	N	1.482091	0.613512	0.925768
N71	N	0.982107	0.113511	-0.425586
N72	N	1.482107	0.613511	0.074414
H73	H	0.578788	-0.022530	0.000103
H74	H	1.078788	0.477470	0.500103
C75	C	0.362688	-0.052588	-0.140370
C76	C	0.862688	0.447412	0.359630
C77	C	0.411937	-0.047091	0.000092
C78	C	0.911937	0.452909	0.500092
H79	H	0.340013	-0.104509	-0.140378
H80	H	0.840013	0.395491	0.359622
H81	H	0.318540	-0.008157	-0.140360
H82	H	0.818540	0.491843	0.359640
H83	H	0.396116	-0.048840	-0.235636
H84	H	0.896116	0.451160	0.264364
H85	H	0.378508	-0.050832	0.095358
H86	H	0.878508	0.449168	0.595358
H87	H	0.456091	-0.091534	0.000097
H88	H	0.956091	0.408466	0.500097
H89	H	0.542730	0.252317	0.000075
H90	H	1.042730	0.752317	0.500075
C91	C	1.143242	-0.548844	0.140528
C92	C	1.643242	-0.048844	0.640528
C93	C	1.139494	-0.498369	0.000076
C94	C	1.639494	0.001631	0.500076
H95	H	1.194124	-0.585013	0.140521
H96	H	1.694124	-0.085013	0.640521
H97	H	1.140691	-0.514604	0.235791
H98	H	1.640691	-0.014604	0.735791
H99	H	1.097457	-0.581157	0.140508
H100	H	1.597457	-0.081157	0.640508
H101	H	1.185275	-0.466051	0.000102
H102	H	1.685275	0.033949	0.500102
H103	H	1.142053	-0.532613	-0.095211
H104	H	1.642053	-0.032613	0.404789
C105	C	1.208184	-0.381424	0.000057
C106	C	1.708184	0.118576	0.500057
C107	C	1.142695	-0.316329	0.000075
C108	C	1.642695	0.183671	0.500075
H109	H	1.260102	-0.358744	0.000040
H110	H	1.760102	0.141256	0.500040
H111	H	1.204442	-0.414836	0.095331
H112	H	1.704442	0.085164	0.595331
H113	H	1.204427	-0.414831	-0.095231
H114	H	1.704427	0.085169	0.404769
H115	H	1.146448	-0.282926	0.095369
H116	H	1.646448	0.217074	0.595369
H117	H	1.146439	-0.282903	-0.095209
H118	H	1.646439	0.217097	0.404791
H119	H	0.843284	-0.447120	0.000104
H120	H	1.343284	0.052880	0.500104
C121	C	0.820942	-0.224141	-0.140375
C122	C	1.320942	0.275859	0.359625
C123	C	0.824691	-0.274607	0.000088
C124	C	1.324691	0.225393	0.500088
H125	H	0.770056	-0.187979	-0.140384
H126	H	1.270056	0.312021	0.359616
H127	H	0.866718	-0.191828	-0.140364
H128	H	1.366718	0.308172	0.359636
H129	H	0.823497	-0.258393	-0.235640
H130	H	1.323497	0.241607	0.264360
H131	H	0.822142	-0.240355	0.095354
H132	H	1.322142	0.259645	0.595354
H133	H	0.778903	-0.306923	0.000092
H134	H	1.278903	0.193077	0.500092
C135	C	0.417873	0.338385	0.000055
C136	C	0.917873	0.838385	0.500055
C137	C	0.370222	0.270914	0.000074
C138	C	0.870222	0.770914	0.500074
H139	H	0.381707	0.389269	0.000037
H140	H	0.881707	0.889269	0.500037
H141	H	0.452109	0.335829	0.095328
H142	H	0.952109	0.835829	0.595328
H143	H	0.452112	0.335821	-0.095233
H144	H	0.952112	0.835821	0.404767
H145	H	0.335987	0.273475	0.095369
H146	H	0.835987	0.773475	0.595369
H147	H	0.335972	0.273471	-0.095209
H148	H	0.835972	0.773471	0.404791
