data_functionalizedCrystal
_audit_creation_method	'MofGen! by Chris Wilmer'
_symmetry_space_group_name_H-M	'P1'
_symmetry_Int_Tables_number	1
_symmetry_cell_setting	triclinic
loop_
_symmetry_equiv_pos_as_xyz
  x,y,z
_cell_length_a	10.654541
_cell_length_b	19.188924
_cell_length_c	9.730217
_cell_angle_alpha	89.994694
_cell_angle_beta	89.999932
_cell_angle_gamma	83.812946
loop_
_atom_site_label
_atom_site_type_symbol
_atom_site_fract_x
_atom_site_fract_y
_atom_site_fract_z
O1	O	1.665759	0.098053	-0.114255
O2	O	1.300082	0.107397	-0.114268
O3	O	1.493478	0.001138	-0.114245
O4	O	1.472364	0.204312	-0.114278
O5	O	1.493472	0.001137	0.114335
O6	O	1.300076	0.107396	0.114313
O7	O	1.665753	0.098052	0.114325
Zn8	Zn	1.482914	0.102724	0.150611
Zn9	Zn	1.482922	0.102725	-0.150553
O10	O	1.472358	0.204311	0.114302
C11	C	1.253296	0.106711	0.000021
C12	C	1.113896	0.104660	0.000017
C13	C	1.083230	0.231721	-0.000021
C14	C	1.002410	0.294285	-0.000045
C15	C	0.871433	0.292353	-0.000046
C16	C	0.821275	0.227850	-0.000019
C17	C	0.902096	0.165286	0.000005
C18	C	1.033074	0.167225	0.000002
C19	C	0.932761	0.038226	0.000053
C20	C	1.063738	0.040156	0.000044
C21	C	0.882603	-0.026277	0.000081
C22	C	0.963425	-0.088843	0.000095
C23	C	1.094409	-0.086908	0.000095
C24	C	1.144559	-0.022408	0.000069
C25	C	1.492793	-0.024878	0.000047
C26	C	1.490744	-0.102396	0.000050
C27	C	1.489792	-0.138801	-0.124549
C28	C	1.487849	-0.211636	-0.124560
C29	C	1.486885	-0.248066	0.000036
C30	C	1.487831	-0.211652	0.124652
C31	C	1.489761	-0.138817	0.124659
N32	N	1.555316	-0.367282	0.092773
N33	N	1.553485	-0.436472	0.092757
C34	C	1.481068	-0.467513	0.000023
N35	N	1.410567	-0.426750	-0.092717
N36	N	1.412403	-0.357554	-0.092706
C37	C	1.484792	-0.327043	0.000043
C38	C	1.478008	-0.582894	-0.124596
C39	C	1.476057	-0.655730	-0.124602
C40	C	1.476052	-0.655745	0.124614
C41	C	1.477989	-0.582910	0.124615
C42	C	1.478973	-0.546489	0.000006
C43	C	1.712540	0.098738	0.000034
C44	C	1.851940	0.100790	0.000029
C45	C	1.473043	0.230327	0.000008
C46	C	1.475091	0.307845	-0.000005
N47	N	1.482918	0.102723	0.356147
N48	N	1.482928	0.102721	-0.356090
C49	C	1.654239	0.008658	0.356158
C50	C	1.739908	-0.038372	0.428104
C51	C	1.739921	-0.038373	0.571983
C52	C	1.654253	0.008661	0.643921
C53	C	1.568584	0.055691	0.571976
C54	C	1.568583	0.055688	0.428093
C55	C	1.397259	0.149752	0.571965
C56	C	1.397250	0.149757	0.428085
C57	C	1.311591	0.196785	0.643903
C58	C	1.225926	0.243820	0.571957
C59	C	1.225918	0.243819	0.428069
C60	C	1.311581	0.196787	0.356140
H61	H	0.714625	0.226283	-0.000003
C62	C	0.908242	-0.159788	0.000129
N63	N	0.866673	-0.213226	0.000151
C64	C	1.227307	0.233852	-0.000034
N65	N	1.335828	0.235459	-0.000042
C66	C	0.738524	-0.028401	0.000081
N67	N	0.630003	-0.030001	0.000075
H68	H	1.043262	0.346803	-0.000064
C69	C	1.479071	-0.542827	-0.261667
N70	N	1.479868	-0.512650	-0.364910
C71	C	1.654249	0.008645	0.802193
N72	N	1.654241	0.008631	0.921405
C73	C	1.479051	-0.542864	0.261686
N74	N	1.479848	-0.512702	0.364935
H75	H	1.160208	-0.137856	0.000120
H76	H	1.251206	-0.020826	0.000052
C77	C	1.654241	0.008658	0.197887
N78	N	1.654243	0.008657	0.078674
C79	C	1.490862	-0.098741	-0.261623
N80	N	1.491665	-0.068567	-0.364868
C81	C	1.486794	-0.251689	-0.261634
N82	N	1.485997	-0.281854	-0.364879
H83	H	1.475275	-0.685369	-0.226070
C84	C	1.131693	0.295569	0.348940
N85	N	1.060730	0.334553	0.289346
C86	C	1.834159	-0.090109	0.651125
N87	N	1.905142	-0.129075	0.710735
H88	H	0.805627	0.343298	-0.000057
H89	H	1.475257	-0.685405	0.226062
H90	H	1.809656	-0.076668	0.369519
C91	C	1.486767	-0.251726	0.261708
N92	N	1.485961	-0.281909	0.364943
H93	H	1.311600	0.196780	0.761057
C94	C	1.131692	0.295546	0.651097
N95	N	1.060713	0.334506	0.710711
H96	H	1.490531	-0.109176	0.226126
H97	H	1.311586	0.196784	0.238985
