data_functionalizedCrystal
_audit_creation_method	'MofGen! by Chris Wilmer'
_symmetry_space_group_name_H-M	'P1'
_symmetry_Int_Tables_number	1
_symmetry_cell_setting	triclinic
loop_
_symmetry_equiv_pos_as_xyz
  x,y,z
_cell_length_a	18.101398
_cell_length_b	11.169416
_cell_length_c	11.169409
_cell_angle_alpha	90.030874
_cell_angle_beta	90.013915
_cell_angle_gamma	90.005896
loop_
_atom_site_label
_atom_site_type_symbol
_atom_site_fract_x
_atom_site_fract_y
_atom_site_fract_z
Zn1	Zn	1.132258	-0.477852	0.678366
Zn2	Zn	1.465592	-0.144519	1.011699
Zn3	Zn	1.798925	0.188814	1.345032
Zn4	Zn	1.132190	-0.678593	0.477688
Zn5	Zn	1.465523	-0.345260	0.811021
Zn6	Zn	1.798857	-0.011926	1.144354
Zn7	Zn	1.008408	-0.477907	0.477721
Zn8	Zn	1.341742	-0.144574	0.811054
Zn9	Zn	1.675075	0.188760	1.144387
Zn10	Zn	1.008413	-0.678477	0.678353
Zn11	Zn	1.341746	-0.345143	1.011687
Zn12	Zn	1.675080	-0.011810	1.345020
O13	O	1.070317	-0.578207	0.578032
O14	O	1.403651	-0.244874	0.911365
O15	O	1.736984	0.088459	1.244698
O16	O	1.235882	-0.504507	0.651737
O17	O	1.569215	-0.171174	0.985070
O18	O	1.902549	0.162160	1.318403
O19	O	1.115740	-0.652043	0.309742
O20	O	1.449073	-0.318710	0.643076
O21	O	1.782406	0.014624	0.976409
O22	O	1.024864	-0.309950	0.504356
O23	O	1.358197	0.023383	0.837689
O24	O	1.691530	0.356717	1.171022
O25	O	1.235832	-0.651990	0.504299
O26	O	1.569165	-0.318657	0.837633
O27	O	1.902499	0.014677	1.170966
O28	O	1.115856	-0.309910	0.651769
O29	O	1.449189	0.023423	0.985102
O30	O	1.782523	0.356757	1.318435
O31	O	1.024798	-0.504600	0.309766
O32	O	1.358131	-0.171266	0.643100
O33	O	1.691464	0.162067	0.976433
O34	O	0.904776	-0.504487	0.504344
O35	O	1.238109	-0.171154	0.837677
O36	O	1.571443	0.162180	1.171010
O37	O	1.024872	-0.651792	0.846305
O38	O	1.358205	-0.318458	1.179638
O39	O	1.691538	0.014875	1.512971
O40	O	0.904779	-0.651845	0.651748
O41	O	1.238113	-0.318511	0.985081
O42	O	1.571446	0.014822	1.318414
O43	O	1.115860	-0.504394	0.846314
O44	O	1.449194	-0.171061	1.179647
O45	O	1.782527	0.162273	1.512980
O46	O	1.115744	-0.846527	0.504287
O47	O	1.449077	-0.513194	0.837621
O48	O	1.782411	-0.179860	1.170954
O49	O	1.024806	-0.846442	0.651715
O50	O	1.358139	-0.513108	0.985049
O51	O	1.691472	-0.179775	1.318382
C52	C	1.070288	-0.890032	0.578023
C53	C	1.403621	-0.556699	0.911356
C54	C	1.736955	-0.223365	1.244689
C55	C	1.070343	-1.023432	0.578059
C56	C	1.403677	-0.690098	0.911392
C57	C	1.737010	-0.356765	1.244726
C58	C	0.877907	-0.578160	0.578049
C59	C	1.211240	-0.244827	0.911382
C60	C	1.544573	0.088507	1.244715
C61	C	0.795593	-0.578169	0.578084
C62	C	1.128926	-0.244835	0.911417
C63	C	1.462259	0.088498	1.244751
C64	C	0.496502	-0.578239	0.578034
C65	C	0.829835	-0.244906	0.911367
C66	C	1.163168	0.088427	1.244701
C67	C	0.527854	-0.671401	0.670319
C68	C	0.861187	-0.338068	1.003652
C69	C	1.194521	-0.004735	1.336986
C70	C	0.613472	-0.671109	0.670698
C71	C	0.946806	-0.337776	1.004031
C72	C	1.280139	-0.004443	1.337365
C73	C	0.644884	-0.578205	0.578059
C74	C	0.978218	-0.244872	0.911392
C75	C	1.311551	0.088461	1.244726
C76	C	0.613803	-0.451788	0.612609
C77	C	0.947136	-0.118454	0.945942
C78	C	1.280470	0.214879	1.279276
C79	C	0.528158	-0.452347	0.613265
C80	C	0.861492	-0.119014	0.946599
C81	C	1.194825	0.214319	1.279932
C82	C	0.528051	-0.610381	0.450976
C83	C	0.861384	-0.277047	0.784310
C84	C	1.194717	0.056286	1.117643
C85	C	0.613701	-0.613154	0.451656
C86	C	0.947035	-0.279821	0.784989
C87	C	1.280368	0.053512	1.118322
C88	C	0.728744	-0.578178	0.578071
C89	C	1.062077	-0.244845	0.911404
C90	C	1.395410	0.088488	1.244738
C91	C	0.412642	-0.578258	0.578025
C92	C	0.745976	-0.244925	0.911358
C93	C	1.079309	0.088409	1.244692
C94	C	1.263479	-0.578255	0.578016
C95	C	1.596813	-0.244922	0.911349
C96	C	1.930146	0.088411	1.244682
C97	C	1.345793	-0.578276	0.578009
C98	C	1.679127	-0.244943	0.911342
C99	C	2.012460	0.088391	1.244675
C100	C	1.070374	-0.578074	0.891074
C101	C	1.403708	-0.244741	1.224408
C102	C	1.737041	0.088593	1.557741
C103	C	1.070398	-0.578017	1.024474
C104	C	1.403732	-0.244684	1.357808
C105	C	1.737065	0.088650	1.691141
C106	C	1.070367	-0.265165	0.578067
C107	C	1.403700	0.068169	0.911401
C108	C	1.737034	0.401502	1.244734
C109	C	1.070388	-0.131765	0.578082
C110	C	1.403721	0.201569	0.911416
C111	C	1.737055	0.534902	1.244749
C112	C	1.070303	-0.578253	0.266207
C113	C	1.403637	-0.244920	0.599540
C114	C	1.736970	0.088413	0.932874
C115	C	1.070423	-0.577972	0.132808
C116	C	1.403756	-0.244639	0.466141
C117	C	1.737089	0.088695	0.799474
H118	H	0.634487	-0.764854	0.649045
H119	H	0.967821	-0.431521	0.982379
H120	H	1.301154	-0.098188	1.315712
H121	H	0.507417	-0.380446	0.549131
H122	H	0.840751	-0.047113	0.882464
H123	H	1.174084	0.286220	1.215797
Cl124	Cl	0.496051	-0.816613	0.637276
Cl125	Cl	0.829384	-0.483280	0.970609
Cl126	Cl	1.162718	-0.149946	1.303942
H127	H	0.506456	-0.700988	0.419576
H128	H	0.839789	-0.367655	0.752909
H129	H	1.173123	-0.034322	1.086242
H130	H	0.508195	-0.425088	0.706150
H131	H	0.841528	-0.091755	1.039483
H132	H	1.174862	0.241578	1.372816
H133	H	0.635266	-0.424037	0.704484
H134	H	0.968599	-0.090704	1.037817
H135	H	1.301932	0.242630	1.371150
H136	H	0.634025	-0.706179	0.425598
H137	H	0.967358	-0.372846	0.758931
H138	H	1.300692	-0.039512	1.092264
H139	H	0.633974	-0.649841	0.764840
H140	H	0.967307	-0.316508	1.098173
H141	H	1.300641	0.016825	1.431506
Cl142	Cl	0.646707	-0.515995	0.339793
Cl143	Cl	0.980041	-0.182661	0.673126
Cl144	Cl	1.313374	0.150672	1.006460
Cl145	Cl	0.645216	-0.341707	0.512078
Cl146	Cl	0.978550	-0.008373	0.845411
Cl147	Cl	1.311883	0.324960	1.178744
Cl148	Cl	0.496743	-0.505618	0.344814
Cl149	Cl	0.830076	-0.172285	0.678147
Cl150	Cl	1.163410	0.161049	1.011480
H151	H	0.506343	-0.650404	0.763916
H152	H	0.839676	-0.317070	1.097250
H153	H	1.173010	0.016263	1.430583
