data_functionalizedCrystal
_audit_creation_method	'MofGen! by Chris Wilmer'
_symmetry_space_group_name_H-M	'P1'
_symmetry_Int_Tables_number	1
_symmetry_cell_setting	triclinic
loop_
_symmetry_equiv_pos_as_xyz
  x,y,z
_cell_length_a	13.897449
_cell_length_b	16.120444
_cell_length_c	13.897441
_cell_angle_alpha	87.133622
_cell_angle_beta	90.023394
_cell_angle_gamma	92.927498
loop_
_atom_site_label
_atom_site_type_symbol
_atom_site_fract_x
_atom_site_fract_y
_atom_site_fract_z
Zn1	Zn	1.455175	-0.331863	0.564897
Zn2	Zn	1.446864	-0.471295	0.411769
Zn3	Zn	1.293861	-0.331902	0.403610
Zn4	Zn	1.285644	-0.471239	0.573011
O5	O	1.370386	-0.401575	0.488322
O6	O	1.589053	-0.350366	0.544603
O7	O	1.426529	-0.452844	0.275707
O8	O	1.322177	-0.215231	0.418195
O9	O	1.582947	-0.452806	0.432100
O10	O	1.440693	-0.215202	0.536691
O11	O	1.314119	-0.350432	0.269713
O12	O	1.157790	-0.350378	0.426062
O13	O	1.308172	-0.452711	0.706914
O14	O	1.151753	-0.452749	0.550520
O15	O	1.432725	-0.350312	0.700952
O16	O	1.418561	-0.587954	0.439968
O17	O	1.300113	-0.587913	0.558432
C18	C	1.119772	-0.401562	0.488287
C19	C	1.012558	-0.401577	0.488296
C20	C	0.925488	-0.401579	0.488313
C21	C	0.816255	-0.401585	0.488342
C22	C	1.357570	-0.618183	0.500987
C23	C	1.352175	-0.710850	0.506437
C24	C	1.398607	-0.921792	0.460254
C25	C	1.342343	-0.880506	0.516399
C26	C	1.347815	-0.786100	0.510855
C27	C	1.393137	-1.016206	0.465797
C28	C	1.621978	-0.401588	0.488357
C29	C	1.729192	-0.401594	0.488372
C30	C	1.370459	-0.401501	0.739910
C31	C	1.370490	-0.401470	0.847122
C32	C	1.383279	-0.184120	0.475628
C33	C	1.388773	-0.091454	0.470219
C34	C	1.370373	-0.401588	0.237708
C35	C	1.370542	-0.401385	0.130483
C36	C	1.370519	-0.401413	1.043414
C37	C	1.370500	-0.401447	0.934184
H38	H	1.290064	-0.916061	0.568629
F39	F	1.466934	-0.875322	0.391988
