data_functionalizedCrystal
_audit_creation_method	'MofGen! by Chris Wilmer'
_symmetry_space_group_name_H-M	'P1'
_symmetry_Int_Tables_number	1
_symmetry_cell_setting	triclinic
loop_
_symmetry_equiv_pos_as_xyz
  x,y,z
_cell_length_a	17.038272
_cell_length_b	10.540539
_cell_length_c	16.098613
_cell_angle_alpha	93.033437
_cell_angle_beta	87.126362
_cell_angle_gamma	92.181476
loop_
_atom_site_label
_atom_site_type_symbol
_atom_site_fract_x
_atom_site_fract_y
_atom_site_fract_z
O1	O	1.035805	-0.270413	0.069145
O2	O	0.808148	-0.266031	0.069170
O3	O	0.927170	-0.084000	0.069156
O4	O	0.916782	-0.452444	0.069159
O5	O	0.933463	-0.094810	-0.069356
O6	O	0.814441	-0.276841	-0.069342
O7	O	1.042098	-0.281222	-0.069367
Zn8	Zn	0.929269	-0.280748	-0.091346
Zn9	Zn	0.920977	-0.266506	0.091149
O10	O	0.923075	-0.463253	-0.069353
C11	C	0.782143	-0.267453	-0.000083
C12	C	0.695281	-0.255568	-0.000073
C13	C	0.929538	-0.042029	-0.000098
C14	C	0.927207	0.099137	-0.000094
N15	N	0.934933	-0.290467	-0.215894
C16	C	0.645794	-0.364678	-0.000073
C17	C	0.564180	-0.353505	-0.000085
C18	C	0.532054	-0.233220	-0.000091
C19	C	0.581548	-0.124102	-0.000093
C20	C	0.663161	-0.135276	-0.000088
C21	C	0.286071	-0.193742	-0.000113
C22	C	0.204451	-0.182575	-0.000116
C23	C	0.187089	-0.411980	-0.000109
C24	C	0.268704	-0.423143	-0.000099
C25	C	0.318190	-0.314025	-0.000106
C26	C	0.448631	-0.221796	-0.000100
C27	C	0.401612	-0.325451	-0.000103
C28	C	1.068102	-0.279801	-0.000112
C29	C	1.154964	-0.291685	-0.000116
C30	C	0.920708	-0.505224	-0.000097
C31	C	0.923038	-0.646390	-0.000096
C32	C	0.837885	0.290919	0.000227
C33	C	0.840262	0.144056	-0.000085
C34	C	0.972642	0.150718	-0.079195
C35	C	0.969678	0.297534	-0.079262
C36	C	0.964290	0.310180	0.078252
C37	C	0.965043	0.163205	0.079298
N38	N	0.915319	-0.256777	0.215697
C39	C	0.889134	-0.211532	0.740513
C40	C	0.893084	-0.218369	0.653324
C41	C	0.942838	-0.304136	0.609731
C42	C	0.988638	-0.383080	0.653330
C43	C	0.984684	-0.376248	0.740516
C44	C	0.957164	-0.328889	0.346483
C45	C	0.961117	-0.335712	0.259290
C46	C	0.865562	-0.171002	0.259291
C47	C	0.861615	-0.164173	0.346479
C48	C	0.907413	-0.243121	0.390071
C49	C	0.946878	-0.311124	0.520610
C50	C	0.903367	-0.236139	0.479190
H51	H	0.671944	-0.462627	-0.000068
H52	H	0.821103	-0.094329	0.381968
C53	C	1.007552	-0.415722	0.394422
N54	N	1.045509	-0.481126	0.430533
H55	H	1.032371	0.339390	-0.082857
C56	C	1.049095	0.366130	0.078966
N57	N	1.112967	0.408279	0.079498
H58	H	1.028215	0.133443	0.084067
C59	C	0.436953	-0.457761	-0.000096
N60	N	0.463578	-0.557417	-0.000087
H61	H	0.422467	-0.123861	-0.000128
C62	C	0.717597	-0.015246	-0.000086
N63	N	0.758598	0.075165	-0.000086
H64	H	1.029145	-0.452918	0.617829
H65	H	1.036626	0.122178	-0.082143
C66	C	0.815181	-0.084177	0.211334
N67	N	0.777228	-0.018782	0.175212
C68	C	0.792297	0.096624	0.076515
N69	N	0.756164	0.060904	0.134210
C70	C	0.848707	-0.141697	0.527146
N71	N	0.807563	-0.070521	0.563273
C72	C	0.169116	-0.050247	-0.000122
N73	N	0.142501	0.049418	-0.000124
C74	C	0.936985	0.090637	-0.158712
N75	N	0.910123	0.045387	-0.218602
C76	C	1.015863	-0.430049	0.211339
N77	N	1.057101	-0.501092	0.175222
H78	H	1.021976	-0.440529	0.776009
C79	C	0.132647	-0.532002	-0.000112
N80	N	0.091642	-0.622407	-0.000118
H81	H	0.326353	-0.104890	-0.000120
C82	C	0.304035	-0.555467	-0.000105
N83	N	0.330647	-0.655135	-0.000112
C84	C	0.920131	0.117958	0.158355
N85	N	0.886296	0.083882	0.217900
H86	H	0.523890	-0.442354	-0.000084
C87	C	0.795145	0.330049	-0.075985
N88	N	0.762960	0.359511	-0.133395
C89	C	0.787998	0.339878	0.076855
N90	N	0.750421	0.376767	0.134571
H91	H	0.809688	0.100961	-0.056876
C92	C	0.546207	0.008213	-0.000102
N93	N	0.519589	0.107876	-0.000104
C94	C	0.931522	0.333297	-0.159129
N95	N	0.902780	0.360226	-0.219286
H96	H	0.933426	0.349037	0.138206
H97	H	0.848622	-0.141688	0.776001
H98	H	0.855790	-0.154091	0.617835
H99	H	0.987390	-0.380952	0.485106
