data_functionalizedCrystal
_audit_creation_method	'MofGen! by Chris Wilmer'
_symmetry_space_group_name_H-M	'P1'
_symmetry_Int_Tables_number	1
_symmetry_cell_setting	triclinic
loop_
_symmetry_equiv_pos_as_xyz
  x,y,z
_cell_length_a	18.215407
_cell_length_b	16.625546
_cell_length_c	18.215399
_cell_angle_alpha	89.970824
_cell_angle_beta	89.980167
_cell_angle_gamma	90.022916
loop_
_atom_site_label
_atom_site_type_symbol
_atom_site_fract_x
_atom_site_fract_y
_atom_site_fract_z
Zn1	Zn	1.125084	-0.321000	-0.416110
Zn2	Zn	1.124998	-0.455841	-0.293041
Zn3	Zn	1.002017	-0.321027	-0.293057
Zn4	Zn	1.001988	-0.455796	-0.416066
O5	O	1.063522	-0.388416	-0.354568
O6	O	1.228057	-0.338895	-0.399796
O7	O	1.108660	-0.437987	-0.190059
O8	O	1.018390	-0.208191	-0.309405
O9	O	1.227994	-0.437961	-0.309378
O10	O	1.108807	-0.208171	-0.399812
O11	O	1.018307	-0.338940	-0.190070
O12	O	0.899029	-0.338896	-0.309363
O13	O	1.018341	-0.437885	-0.519056
O14	O	0.899008	-0.437910	-0.399737
O15	O	1.108779	-0.338851	-0.519088
O16	O	1.108632	-0.568667	-0.309335
O17	O	1.018257	-0.568634	-0.399721
C18	C	0.872315	-0.388402	-0.354547
C19	C	0.790517	-0.388415	-0.354556
C20	C	0.602331	-0.440053	-0.401554
C21	C	0.525472	-0.440056	-0.401563
C22	C	0.525465	-0.336793	-0.307598
C23	C	0.602322	-0.336787	-0.307593
C24	C	0.640753	-0.388422	-0.354570
C25	C	0.487037	-0.388430	-0.354584
C26	C	0.403703	-0.388433	-0.354594
C27	C	0.724092	-0.388418	-0.354562
C28	C	1.063452	-0.597907	-0.354537
C29	C	1.063490	-0.687528	-0.354549
C30	C	1.063618	-1.015703	-0.354625
C31	C	1.063580	-0.924395	-0.354606
C32	C	1.063553	-0.851618	-0.354587
C33	C	1.063516	-0.760304	-0.354568
C34	C	1.255475	-0.388430	-0.354590
C35	C	1.337274	-0.388436	-0.354599
C36	C	1.063567	-0.388360	-0.546521
C37	C	1.063586	-0.388336	-0.628320
C38	C	1.063612	-0.178107	-0.354615
C39	C	1.063650	-0.088486	-0.354635
C40	C	1.110694	-0.336721	-0.816532
C41	C	1.110703	-0.336698	-0.893391
C42	C	1.016530	-0.439827	-0.893346
C43	C	1.016518	-0.439846	-0.816489
C44	C	1.063604	-0.388294	-0.778084
C45	C	1.063625	-0.388252	-0.931800
C46	C	1.063634	-0.388227	-1.015134
C47	C	1.063594	-0.388318	-0.694745
C48	C	1.063519	-0.388413	-0.163362
C49	C	1.063643	-0.388209	-0.081563
H50	H	0.494192	-0.482098	-0.439823
O51	O	1.156517	-0.286576	-0.930626
C52	C	1.198057	-0.241068	-0.880244
H53	H	1.200583	-0.274111	-0.825451
H54	H	1.256047	-0.232464	-0.902465
H55	H	1.171132	-0.179831	-0.872078
H56	H	0.978166	-0.481842	-0.785183
O57	O	0.639550	-0.490229	-0.447260
C58	C	0.589152	-0.535813	-0.488719
H59	H	0.534377	-0.502794	-0.491321
H60	H	0.611378	-0.544488	-0.546688
H61	H	0.580948	-0.597016	-0.461675
O62	O	0.488017	-0.286715	-0.261990
C63	C	0.411942	-0.297776	-0.272081
H64	H	0.401435	-0.360036	-0.296080
H65	H	0.382710	-0.292228	-0.216968
H66	H	0.390163	-0.250007	-0.311353
O67	O	0.639536	-0.286604	-0.261880
C68	C	0.589137	-0.241022	-0.220427
H69	H	0.534339	-0.274047	-0.217825
H70	H	0.611326	-0.232339	-0.162457
H71	H	0.580993	-0.179822	-0.247476
O72	O	1.156323	-0.286599	-0.779146
C73	C	1.114433	-0.234519	-0.734710
H74	H	1.058651	-0.262962	-0.723174
H75	H	1.144405	-0.223720	-0.680673
H76	H	1.106369	-0.174761	-0.764347
H77	H	0.978195	-0.481800	-0.924625
