data_functionalizedCrystal
_audit_creation_method	'MofGen! by Chris Wilmer'
_symmetry_space_group_name_H-M	'P1'
_symmetry_Int_Tables_number	1
_symmetry_cell_setting	triclinic
loop_
_symmetry_equiv_pos_as_xyz
  x,y,z
_cell_length_a	16.120566
_cell_length_b	16.120531
_cell_length_c	16.120297
_cell_angle_alpha	84.389419
_cell_angle_beta	89.874982
_cell_angle_gamma	90.174626
loop_
_atom_site_label
_atom_site_type_symbol
_atom_site_fract_x
_atom_site_fract_y
_atom_site_fract_z
Zn1	Zn	-1.224936	0.422251	-0.554851
Zn2	Zn	-0.891603	0.755584	-0.221517
Zn3	Zn	-0.558269	1.088918	0.111816
Zn4	Zn	-1.224816	0.554934	-0.422147
Zn5	Zn	-0.891483	0.888267	-0.088813
Zn6	Zn	-0.558150	1.221601	0.244520
Zn7	Zn	-1.093677	0.408168	-0.408087
Zn8	Zn	-0.760344	0.741501	-0.074754
Zn9	Zn	-0.427011	1.074835	0.258579
Zn10	Zn	-1.078814	0.554167	-0.554071
Zn11	Zn	-0.745481	0.887501	-0.220738
Zn12	Zn	-0.412147	1.220834	0.112595
O13	O	-1.155561	0.484880	-0.484789
O14	O	-0.822228	0.818213	-0.151456
O15	O	-0.488894	1.151547	0.181878
O16	O	-1.340955	0.446066	-0.543457
O17	O	-1.007622	0.779400	-0.210124
O18	O	-0.674288	1.112733	0.123209
O19	O	-1.213591	0.529892	-0.303650
O20	O	-0.880257	0.863225	0.029684
O21	O	-0.546924	1.196559	0.363017
O22	O	-1.117359	0.293406	-0.421998
O23	O	-0.784026	0.626740	-0.088665
O24	O	-0.450693	0.960073	0.244669
O25	O	-1.340867	0.543548	-0.445960
O26	O	-1.007534	0.876881	-0.112627
O27	O	-0.674200	1.210215	0.220706
O28	O	-1.213795	0.303753	-0.529824
O29	O	-0.880461	0.637087	-0.196491
O30	O	-0.547128	0.970420	0.136842
O31	O	-1.117243	0.422064	-0.293320
O32	O	-0.783910	0.755397	0.040013
O33	O	-0.450577	1.088730	0.373346
O34	O	-0.975671	0.421320	-0.421242
O35	O	-0.642337	0.754654	-0.087909
O36	O	-0.309004	1.087987	0.245424
O37	O	-1.092027	0.542242	-0.670807
O38	O	-0.758694	0.875575	-0.337473
O39	O	-0.425361	1.208908	-0.004140
O40	O	-0.964751	0.528586	-0.528496
O41	O	-0.631418	0.861919	-0.195163
O42	O	-0.298084	1.195252	0.138170
O43	O	-1.199382	0.445323	-0.671379
O44	O	-0.866049	0.778656	-0.338046
O45	O	-0.532716	1.111990	-0.004713
O46	O	-1.199179	0.671462	-0.445205
O47	O	-0.865845	1.004795	-0.111871
O48	O	-0.532512	1.338128	0.221462
O49	O	-1.091911	0.670899	-0.542129
O50	O	-0.758578	1.004232	-0.208796
O51	O	-0.425245	1.337565	0.124538
C52	C	-0.940124	0.473342	-0.473260
C53	C	-0.606791	0.806676	-0.139926
C54	C	-0.273458	1.140009	0.193407
C55	C	-0.847957	0.468427	-0.468348
C56	C	-0.514624	0.801761	-0.135015
C57	C	-0.181291	1.135094	0.198319
C58	C	-0.679207	0.459435	-0.459387
C59	C	-0.345874	0.792768	-0.126053
C60	C	-0.012541	1.126102	0.207280
C61	C	-0.632751	0.510397	-0.510201
C62	C	-0.299417	0.843730	-0.176868
C63	C	0.033916	1.177064	0.156465
C64	C	-0.538852	0.505394	-0.505215
C65	C	-0.205519	0.838727	-0.171882
C66	C	0.127814	1.172060	0.161451
C67	C	-0.773114	0.464437	-0.464372
C68	C	-0.439781	0.797771	-0.131038
C69	C	-0.106448	1.131104	0.202295
C70	C	-0.371839	0.496465	-0.496351
C71	C	-0.038506	0.829799	-0.163017
C72	C	0.294827	1.163132	0.170316
C73	C	-0.464006	0.501407	-0.501243
C74	C	-0.130673	0.834741	-0.167910
C75	C	0.202661	1.168074	0.165424
C76	C	-1.143941	0.701423	-0.495127
C77	C	-0.810607	1.034756	-0.161794
C78	C	-0.477274	1.368090	0.171539
C79	C	-1.139044	0.794066	-0.499582
C80	C	-0.805710	1.127400	-0.166249
C81	C	-0.472377	1.460733	0.167085
C82	C	-1.130107	0.963688	-0.507732
C83	C	-0.796774	1.297021	-0.174399
C84	C	-0.463441	1.630355	0.158934
C85	C	-1.181048	1.005231	-0.461800
C86	C	-0.847715	1.338564	-0.128467
C87	C	-0.514382	1.671898	0.204867
C88	C	-1.176076	1.099614	-0.466335
C89	C	-0.842743	1.432948	-0.133002
C90	C	-0.509409	1.766281	0.200332
C91	C	-1.135078	0.869296	-0.503199
C92	C	-0.801745	1.202630	-0.169865
C93	C	-0.468412	1.535963	0.163468
C94	C	-1.144060	0.495268	-0.702180
C95	C	-0.810727	0.828601	-0.368847
C96	C	-0.477394	1.161934	-0.035513
C97	C	-1.139159	0.499694	-0.794819
C98	C	-0.805826	0.833028	-0.461486
C99	C	-0.472493	1.166361	-0.128152
C100	C	-1.167220	1.267491	-0.474413
C101	C	-0.833886	1.600825	-0.141080
C102	C	-0.500553	1.934158	0.192254
C103	C	-1.172115	1.174847	-0.469948
C104	C	-0.838781	1.508181	-0.136615
C105	C	-0.505448	1.841514	0.196719
C106	C	-1.130182	0.507756	-0.964429
C107	C	-0.796849	0.841089	-0.631096
C108	C	-0.463515	1.174423	-0.297763
C109	C	-1.181116	0.461763	-1.005997
C110	C	-0.847783	0.795096	-0.672664
C111	C	-0.514450	1.128430	-0.339331
C112	C	-1.176121	0.466249	-1.100374
C113	C	-0.842788	0.799582	-0.767041
C114	C	-0.509455	1.132915	-0.433708
C115	C	-1.135176	0.503272	-0.870044
C116	C	-0.801843	0.836605	-0.536710
C117	C	-0.468509	1.169938	-0.203377
C118	C	-1.167068	0.474475	-0.268243
C119	C	-0.833734	0.807809	0.065090
C120	C	-0.500401	1.141142	0.398423
C121	C	-1.172142	0.469822	-0.175602
C122	C	-0.838809	0.803156	0.157731
C123	C	-0.505475	1.136489	0.491064
H124	H	-0.648462	0.412052	-0.412142
H125	H	-0.315129	0.745385	-0.078808
H126	H	0.018204	1.078718	0.254525
H127	H	-1.228394	0.969912	-0.419070
H128	H	-0.895061	1.303246	-0.085737
H129	H	-0.561728	1.636579	0.247597
Cl130	Cl	-1.057010	1.018214	-0.573698
Cl131	Cl	-0.723677	1.351547	-0.240364
Cl132	Cl	-0.390343	1.684880	0.092969
H133	H	-0.663498	0.557784	-0.557451
H134	H	-0.330164	0.891117	-0.224117
H135	H	0.003169	1.224450	0.109216
H136	H	-1.228473	0.419017	-0.970706
H137	H	-0.895140	0.752351	-0.637372
H138	H	-0.561807	1.085684	-0.304039
Cl139	Cl	-1.057073	0.573751	-1.018915
Cl140	Cl	-0.723740	0.907084	-0.685581
Cl141	Cl	-0.390406	1.240418	-0.352248
