data_functionalizedCrystal
_audit_creation_method	'MofGen! by Chris Wilmer'
_symmetry_space_group_name_H-M	'P1'
_symmetry_Int_Tables_number	1
_symmetry_cell_setting	triclinic
loop_
_symmetry_equiv_pos_as_xyz
  x,y,z
_cell_length_a	17.699083
_cell_length_b	8.559649
_cell_length_c	16.776229
_cell_angle_alpha	89.994739
_cell_angle_beta	89.998886
_cell_angle_gamma	76.530840
loop_
_atom_site_label
_atom_site_type_symbol
_atom_site_fract_x
_atom_site_fract_y
_atom_site_fract_z
O1	O	0.992507	0.202110	-0.066174
O2	O	0.770623	0.228404	-0.066200
O3	O	0.901113	-0.017421	-0.066184
O4	O	0.862017	0.447935	-0.066190
O5	O	0.901098	-0.017436	0.066393
O6	O	0.770608	0.228389	0.066377
O7	O	0.992492	0.202095	0.066403
Zn8	Zn	0.881548	0.215240	0.087439
Zn9	Zn	0.881567	0.215259	-0.087236
O10	O	0.862002	0.447920	0.066387
C11	C	0.742473	0.227455	0.000085
C12	C	0.658616	0.224628	0.000075
C13	C	0.601734	0.368922	0.000074
C14	C	0.522943	0.366257	0.000084
C15	C	0.501037	0.219296	0.000090
C16	C	0.557926	0.074990	0.000094
C17	C	0.636715	0.077657	0.000090
C18	C	0.240179	0.064231	0.000114
C19	C	0.161383	0.061575	0.000116
C20	C	0.126407	0.352831	0.000108
C21	C	0.205196	0.355498	0.000104
C22	C	0.262078	0.211193	0.000112
C23	C	0.347512	0.214085	0.000102
C24	C	0.415605	0.216402	0.000094
C25	C	0.904069	-0.076970	0.000103
C26	C	0.912888	-0.254384	0.000100
C27	C	1.020643	0.203044	0.000116
C28	C	1.104499	0.205871	0.000120
C29	C	0.859047	0.507469	0.000098
C30	C	0.850227	0.684883	0.000096
N31	N	0.881540	0.215225	0.206650
N32	N	0.881581	0.215261	-0.206447
C33	C	0.939335	0.106418	0.248374
C34	C	0.939339	0.106417	0.331827
C35	C	0.881552	0.215231	0.373553
C36	C	0.823752	0.324043	0.331823
C37	C	0.823745	0.324036	0.248372
C38	C	0.823777	0.324075	0.668370
C39	C	0.823790	0.324077	0.751827
C40	C	0.939371	0.106456	0.751824
C41	C	0.939364	0.106448	0.668374
C42	C	0.881563	0.215254	0.626651
C43	C	0.881558	0.215252	0.536163
C44	C	0.881559	0.215242	0.464040
H45	H	0.223027	0.475168	0.000095
C46	C	1.003420	-0.464432	-0.068039
C47	C	0.994426	-0.367412	0.000110
H48	H	1.053759	-0.534202	-0.068034
H49	H	0.965298	-0.526302	-0.068032
H50	H	0.997315	-0.398586	-0.114269
H51	H	1.000525	-0.433259	0.046340
H52	H	1.032559	-0.305538	0.000111
H53	H	0.683029	-0.039842	0.000091
H54	H	0.776714	0.412671	0.634406
H55	H	0.986422	0.017847	0.634403
C56	C	0.990669	0.009783	0.459750
C57	C	1.002868	-0.013186	0.377691
H58	H	1.029889	-0.064068	0.488062
H59	H	0.992689	0.116415	0.473416
H60	H	0.941161	-0.007449	0.473423
H61	H	1.052375	0.004058	0.364017
H62	H	1.000856	-0.119843	0.364019
C63	C	0.763201	0.600839	0.357494
C64	C	0.760225	0.443654	0.377682
H65	H	0.723978	0.674681	0.385800
H66	H	0.812703	0.618063	0.371169
H67	H	0.754929	0.616380	0.301820
H68	H	0.768503	0.428109	0.433356
H69	H	0.710712	0.426424	0.364012
H70	H	0.789834	-0.231386	0.000091
C71	C	1.053581	-0.108708	0.256763
C72	C	1.002856	-0.013200	0.202513
H73	H	1.092793	-0.182565	0.228450
H74	H	1.076943	-0.042250	0.289301
H75	H	1.025409	-0.166103	0.289322
H76	H	1.031028	0.044205	0.169957
H77	H	0.979493	-0.079666	0.169961
H78	H	0.776682	0.412635	0.214401
C79	C	1.053624	-0.108672	0.743438
C80	C	1.002903	-0.013169	0.797688
H81	H	1.092846	-0.182513	0.771752
H82	H	1.025455	-0.166071	0.710896
H83	H	1.076978	-0.042196	0.710883
H84	H	0.979544	-0.079644	0.830239
H85	H	1.031075	0.044234	0.830243
C86	C	0.414048	0.532239	0.068230
C87	C	0.460415	0.524867	0.000075
H88	H	0.375448	0.630167	0.068224
H89	H	0.389730	0.444342	0.068234
H90	H	0.445520	0.527235	0.114456
H91	H	0.428943	0.529859	-0.046151
H92	H	0.484734	0.612788	0.000064
H93	H	0.776729	0.412690	0.785799
H94	H	0.080083	0.470330	0.000106
C95	C	0.596163	0.618017	-0.068084
C96	C	0.625806	0.530473	0.000066
H97	H	0.611018	0.717758	-0.068083
H98	H	0.616265	0.558627	-0.114308
H99	H	0.541098	0.637060	-0.068072
H100	H	0.680871	0.511420	0.000051
H101	H	0.605707	0.589876	0.046302
C102	C	0.203868	-0.226077	0.000143
C103	C	0.137303	-0.099978	0.000132
H104	H	0.188999	-0.325804	0.000157
H105	H	0.233871	-0.218992	-0.046088
H106	H	0.233871	-0.218966	0.046377
H107	H	0.107302	-0.107082	-0.046106
H108	H	0.107288	-0.107066	0.046367
H109	H	0.286484	-0.053271	0.000122
H110	H	0.540084	-0.044668	0.000111
