data_functionalizedCrystal
_audit_creation_method	'MofGen! by Chris Wilmer'
_symmetry_space_group_name_H-M	'P1'
_symmetry_Int_Tables_number	1
_symmetry_cell_setting	triclinic
loop_
_symmetry_equiv_pos_as_xyz
  x,y,z
_cell_length_a	14.853558
_cell_length_b	23.532357
_cell_length_c	13.330367
_cell_angle_alpha	89.989812
_cell_angle_beta	89.992972
_cell_angle_gamma	83.229713
loop_
_atom_site_label
_atom_site_type_symbol
_atom_site_fract_x
_atom_site_fract_y
_atom_site_fract_z
O1	O	1.195540	0.074329	-0.083424
O2	O	0.932980	0.083192	-0.083430
O3	O	1.072201	-0.004138	-0.083406
O4	O	1.056319	0.161660	-0.083448
O5	O	1.072181	-0.004140	0.083441
O6	O	0.932960	0.083190	0.083417
O7	O	1.195520	0.074327	0.083423
Cu8	Cu	1.064238	0.078759	0.098655
Cu9	Cu	1.064262	0.078761	-0.098661
O10	O	1.056299	0.161658	0.083399
C11	C	0.899385	0.082791	-0.000007
C12	C	0.799315	0.081590	-0.000008
C13	C	0.752312	0.081028	-0.090960
C14	C	0.752288	0.081019	0.090943
C15	C	0.658267	0.079888	0.090945
C16	C	0.611265	0.079326	-0.000007
C17	C	0.658283	0.079895	-0.090961
C18	C	0.611244	0.079313	0.181897
C19	C	0.517217	0.078181	0.181903
C20	C	0.470212	0.077624	0.090949
C21	C	0.517235	0.078193	-0.000008
C22	C	0.470232	0.077631	-0.090960
C23	C	0.517253	0.078205	-0.181919
C24	C	0.611277	0.079337	-0.181915
C25	C	0.376188	0.076491	0.090945
C26	C	0.376203	0.076499	-0.090961
C27	C	1.071794	-0.025358	0.000021
C28	C	1.070599	-0.088582	0.000030
C29	C	1.063112	-0.480624	-0.090973
C30	C	1.061977	-0.540029	-0.090979
O31	O	1.061368	-0.570747	-0.168327
N32	N	1.061403	-0.569743	-0.000031
C33	C	1.061955	-0.540050	0.090927
O34	O	1.061362	-0.570779	0.168284
C35	C	1.063084	-0.480646	0.090932
C36	C	1.063667	-0.450935	-0.000021
C37	C	1.063694	-0.450913	-0.181918
C38	C	1.064831	-0.391513	-0.181912
C39	C	1.065386	-0.361824	-0.090961
C40	C	1.064804	-0.391535	-0.000015
C41	C	1.063630	-0.450953	0.181890
C42	C	1.064758	-0.391545	0.181887
C43	C	1.065341	-0.361834	0.090934
C44	C	1.066496	-0.302446	0.090943
N45	N	1.067070	-0.272731	-0.000004
C46	C	1.066515	-0.302420	-0.090956
C47	C	1.059583	-0.664802	0.090911
C48	C	1.058460	-0.724205	0.090907
C49	C	1.058480	-0.724180	-0.090999
C50	C	1.059609	-0.664776	-0.090995
C51	C	1.060157	-0.635087	-0.000037
C52	C	1.068903	-0.177676	-0.090936
C53	C	1.070044	-0.118271	-0.090922
C54	C	1.070019	-0.118301	0.090984
C55	C	1.068883	-0.177701	0.090970
C56	C	1.068322	-0.207387	0.000002
O57	O	1.067101	-0.271690	0.168252
O58	O	1.067096	-0.271683	-0.168300
C59	C	1.229114	0.074729	-0.000002
C60	C	1.329185	0.075929	-0.000007
C61	C	1.056706	0.182877	-0.000030
C62	C	1.057900	0.246101	-0.000046
N63	N	1.064228	0.078757	0.237436
N64	N	1.064279	0.078758	-0.237443
C65	C	1.002612	0.117416	0.710048
C66	C	1.125936	0.040102	0.710038
C67	C	1.125925	0.040100	0.605019
C68	C	1.064259	0.078757	0.552511
C69	C	1.002602	0.117416	0.605020
C70	C	1.187587	0.001445	0.552502
C71	C	1.187580	0.001443	0.447477
C72	C	1.125908	0.040098	0.394966
C73	C	1.064248	0.078758	0.447483
C74	C	1.002581	0.117415	0.394974
C75	C	0.940917	0.156073	0.447488
C76	C	0.940930	0.156071	0.552510
C77	C	1.125895	0.040099	0.289945
C78	C	1.002571	0.117416	0.289946
H79	H	0.478972	0.077745	-0.255972
N80	N	0.659223	0.079898	0.274814
N81	N	0.657402	0.039666	0.335740
H82	H	0.691282	0.040086	0.401371
H83	H	0.337906	0.076030	0.165002
N84	N	0.659327	0.079917	-0.274807
N85	N	0.720483	0.040437	-0.295086
H86	H	0.754425	0.040846	-0.360690
H87	H	0.890725	0.187546	0.595273
N88	N	0.800349	0.081621	-0.183860
N89	N	0.884297	0.082638	-0.183853
H90	H	0.918225	0.083058	-0.249463
N91	N	0.877941	0.195561	0.393832
N92	N	0.877955	0.195556	0.300062
H93	H	0.833481	0.223444	0.262162
N94	N	0.469190	0.077617	0.274812
N95	N	0.408047	0.117104	0.295094
H96	H	0.374127	0.116710	0.360713
N97	N	0.800302	0.081616	0.183836
N98	N	0.781113	0.121611	0.244708
H99	H	0.815028	0.122039	0.310316
H100	H	1.237799	-0.030026	0.595258
H101	H	1.070521	-0.094083	-0.164990
H102	H	1.068417	-0.201894	0.165032
N103	N	1.070569	-0.087975	0.183894
N104	N	1.070040	-0.114504	0.265097
H105	H	1.070420	-0.093085	0.330716
H106	H	1.068442	-0.201838	-0.165011
H107	H	1.176105	0.008627	0.247192
H108	H	1.065302	-0.367328	-0.255976
N109	N	0.939578	0.156913	0.236330
N110	N	0.940322	0.209555	0.248052
H111	H	0.895833	0.237451	0.210187
N112	N	0.939623	0.156908	0.763668
N113	N	0.884570	0.191419	0.716769
H114	H	0.840081	0.219311	0.754637
H115	H	1.063239	-0.475080	-0.255986
H116	H	1.237790	-0.030035	0.404726
N117	N	1.188938	0.000633	0.763685
N118	N	1.188950	0.000647	0.857454
H119	H	1.233452	-0.027226	0.895348
H120	H	1.060083	-0.640589	-0.165057
N121	N	1.057932	-0.754511	-0.183911
N122	N	1.120866	-0.792859	-0.204198
H123	H	1.120484	-0.814282	-0.269814
N124	N	0.328207	0.075930	-0.183878
N125	N	0.370202	0.076444	-0.265076
H126	H	0.336306	0.076043	-0.330700
H127	H	1.057999	-0.748392	0.164970
H128	H	1.060031	-0.640633	0.164984
N129	N	1.063042	-0.481284	0.274807
N130	N	1.063535	-0.454757	0.355998
H131	H	1.063121	-0.476177	0.421628
N132	N	1.065308	-0.361228	0.274810
N133	N	1.064783	-0.387767	0.356003
H134	H	1.065171	-0.366357	0.421631
