data_functionalizedCrystal
_audit_creation_method	'MofGen! by Chris Wilmer'
_symmetry_space_group_name_H-M	'P1'
_symmetry_Int_Tables_number	1
_symmetry_cell_setting	triclinic
loop_
_symmetry_equiv_pos_as_xyz
  x,y,z
_cell_length_a	19.288864
_cell_length_b	14.853567
_cell_length_c	17.766277
_cell_angle_alpha	89.997439
_cell_angle_beta	89.976791
_cell_angle_gamma	83.385589
loop_
_atom_site_label
_atom_site_type_symbol
_atom_site_fract_x
_atom_site_fract_y
_atom_site_fract_z
O1	O	0.921733	0.112464	-0.062829
O2	O	0.719523	0.127636	-0.062777
O3	O	0.826029	-0.011211	-0.062807
O4	O	0.815227	0.251310	-0.062800
O5	O	0.826011	-0.011218	0.062382
O6	O	0.719504	0.127629	0.062411
O7	O	0.921714	0.112457	0.062359
Cu8	Cu	0.820607	0.120042	0.073816
Cu9	Cu	0.820630	0.120051	-0.074234
O10	O	0.815208	0.251303	0.062389
C11	C	0.693636	0.127144	-0.000176
C12	C	0.616527	0.125679	-0.000157
C13	C	0.572106	0.207147	-0.000166
C14	C	0.499654	0.205770	-0.000175
C15	C	0.471627	0.122920	-0.000188
C16	C	0.516058	0.041441	-0.000175
C17	C	0.588508	0.042820	-0.000159
C18	C	0.363152	0.057794	-0.044075
C19	C	0.290703	0.056418	-0.044095
C20	C	0.248167	0.118664	-0.000234
C21	C	0.278088	0.182300	0.043638
C22	C	0.350538	0.183679	0.043654
C23	C	0.393068	0.121416	-0.000205
C24	C	0.125185	0.198645	-0.000252
C25	C	0.052732	0.197265	-0.000255
C26	C	0.069138	0.032933	-0.000263
C27	C	0.141589	0.034316	-0.000252
C28	C	0.169608	0.117174	-0.000250
C29	C	0.825530	-0.044800	-0.000215
C30	C	0.824064	-0.144875	-0.000221
C31	C	0.754596	-0.557014	-0.000189
C32	C	0.881128	-0.579015	-0.000221
C33	C	0.882507	-0.484989	-0.000226
C34	C	0.819930	-0.426971	-0.000211
C35	C	0.755974	-0.462979	-0.000191
C36	C	0.946462	-0.448973	-0.000239
C37	C	0.947844	-0.354942	-0.000242
C38	C	0.885266	-0.296923	-0.000233
C39	C	0.821307	-0.332936	-0.000214
C40	C	0.758730	-0.274918	-0.000199
C41	C	0.694770	-0.310930	-0.000185
C42	C	0.693396	-0.404960	-0.000181
C43	C	0.886641	-0.202893	-0.000236
C44	C	0.760107	-0.180883	-0.000201
C45	C	0.947601	0.112949	-0.000243
C46	C	1.024710	0.114414	-0.000268
C47	C	0.815707	0.284893	-0.000205
C48	C	0.817174	0.384968	-0.000204
N49	N	0.820597	0.120036	0.177946
N50	N	0.820646	0.120050	-0.178364
C51	C	0.867773	0.058585	0.217320
C52	C	0.867777	0.058581	0.296122
C53	C	0.820612	0.120043	0.335547
C54	C	0.773427	0.181499	0.296164
C55	C	0.773419	0.181495	0.217363
C56	C	0.811590	0.202186	0.460389
C57	C	0.811602	0.202191	0.539187
C58	C	0.820630	0.120054	0.578593
C59	C	0.829661	0.037908	0.539190
C60	C	0.829653	0.037905	0.460390
C61	C	0.820614	0.120053	0.420992
C62	C	0.867813	0.058593	0.703413
C63	C	0.867813	0.058588	0.782216
C64	C	0.773465	0.181514	0.782256
C65	C	0.773463	0.181511	0.703455
C66	C	0.820640	0.120052	0.664038
H67	H	0.016564	0.263609	-0.000259
Br68	Br	0.667798	-0.605883	-0.000181
H69	H	0.046319	-0.034525	-0.000321
H70	H	0.463479	0.272114	-0.000180
H71	H	0.243457	0.232986	0.079354
H72	H	0.837012	-0.028976	0.571273
Br73	Br	0.966050	-0.657752	-0.000226
Br74	Br	1.031383	-0.527713	-0.000239
Br75	Br	0.610129	0.319597	-0.000162
H76	H	0.709148	-0.133651	-0.000192
H77	H	0.641323	-0.434289	-0.000169
H78	H	0.147999	0.266113	-0.000239
Br79	Br	0.478023	-0.070999	-0.000186
H80	H	0.906226	0.008547	0.671318
H81	H	0.837004	-0.028981	0.428312
Br82	Br	0.931807	-0.024825	0.349567
Br83	Br	0.973435	-0.154022	-0.000237
H84	H	0.177758	-0.032025	-0.000248
Br85	Br	0.420872	-0.026693	-0.103604
H86	H	0.266347	0.004605	-0.079821
Br87	Br	0.391144	0.270036	0.103193
H88	H	0.999924	-0.325630	-0.000255
Br89	Br	0.648799	-0.067753	-0.000144
H90	H	0.906186	0.008539	0.185229
H91	H	0.643820	-0.263680	-0.000167
Br92	Br	0.931836	-0.024824	0.835656
Br93	Br	0.709410	0.264907	0.349666
Br94	Br	0.709447	0.264918	0.835755
Br95	Br	0.709437	0.264916	0.650013
Br96	Br	0.799355	0.313672	0.592655
H97	H	0.804226	0.269077	0.428311
Br98	Br	0.709389	0.264898	0.163923
