data_functionalizedCrystal
_audit_creation_method	'MofGen! by Chris Wilmer'
_symmetry_space_group_name_H-M	'P1'
_symmetry_Int_Tables_number	1
_symmetry_cell_setting	triclinic
loop_
_symmetry_equiv_pos_as_xyz
  x,y,z
_cell_length_a	16.109301
_cell_length_b	15.186229
_cell_length_c	16.109301
_cell_angle_alpha	90.011978
_cell_angle_beta	83.461481
_cell_angle_gamma	90.002431
loop_
_atom_site_label
_atom_site_type_symbol
_atom_site_fract_x
_atom_site_fract_y
_atom_site_fract_z
O1	O	1.103132	0.073176	0.106874
O2	O	1.603132	0.573176	0.606874
O3	O	0.861070	0.073190	0.120173
O4	O	1.361070	0.573190	0.620173
O5	O	0.988751	0.073174	-0.007507
O6	O	1.488751	0.573174	0.492493
O7	O	0.975451	0.073192	0.234555
O8	O	1.475451	0.573192	0.734555
O9	O	0.988740	-0.073284	-0.007525
O10	O	1.488740	0.426716	0.492475
O11	O	0.861059	-0.073267	0.120156
O12	O	1.361059	0.426733	0.620156
O13	O	1.103121	-0.073282	0.106856
O14	O	1.603121	0.426718	0.606856
Zn15	Zn	0.982088	-0.096528	0.113503
Zn16	Zn	1.482088	0.403472	0.613503
Zn17	Zn	0.982103	0.096436	0.113527
Zn18	Zn	1.482103	0.596436	0.613527
O19	O	0.975440	-0.073265	0.234537
O20	O	1.475440	0.426735	0.734537
C21	C	0.830090	-0.000037	0.119626
C22	C	1.330090	0.499963	0.619626
C23	C	0.737794	-0.000032	0.118011
C24	C	1.237794	0.499968	0.618011
C25	C	0.515522	-0.000036	0.190018
C26	C	1.015522	0.499964	0.690018
C27	C	0.428801	-0.000042	0.188494
C28	C	0.928801	0.499958	0.688494
C29	C	0.448676	-0.000050	0.037006
C30	C	0.948676	0.499950	0.537006
C31	C	0.535394	-0.000051	0.038530
C32	C	1.035394	0.499949	0.538530
C33	C	0.568815	-0.000039	0.115039
C34	C	1.068815	0.499961	0.615039
C35	C	0.395376	-0.000045	0.111990
C36	C	0.895376	0.499955	0.611990
C37	C	0.301350	-0.000051	0.110337
C38	C	0.801350	0.499949	0.610337
C39	C	0.662847	-0.000035	0.116693
C40	C	1.162847	0.499965	0.616693
C41	C	0.988206	-0.000056	-0.038491
C42	C	1.488206	0.499944	0.461509
C43	C	0.986591	-0.000057	-0.130786
C44	C	1.486591	0.499943	0.369214
C45	C	1.134101	-0.000053	0.107404
C46	C	1.634101	0.499947	0.607404
C47	C	1.226397	-0.000052	0.109019
C48	C	1.726397	0.499948	0.609019
N49	N	0.982084	-0.228220	0.113486
N50	N	1.482084	0.271780	0.613486
N51	N	0.982113	0.228129	0.113537
N52	N	1.482113	0.728129	0.613537
C53	C	1.038744	0.546040	0.057089
C54	C	1.538744	1.046040	0.557089
C55	C	1.038748	0.453850	0.057096
C56	C	1.538748	0.953850	0.557096
C57	C	0.925448	0.453875	0.169936
C58	C	1.425448	0.953875	0.669936
C59	C	0.925440	0.546063	0.169925
C60	C	1.425440	1.046063	0.669925
C61	C	0.982093	0.592143	0.113503
C62	C	1.482093	1.092143	0.613503
C63	C	0.982104	0.407765	0.113520
C64	C	1.482104	0.907765	0.613520
C65	C	0.982108	0.307809	0.113528
C66	C	1.482108	0.807809	0.613528
C67	C	0.982088	0.692106	0.113494
C68	C	1.482088	1.192106	0.613494
C69	C	1.058599	-0.000047	-0.353059
C70	C	1.558599	0.499953	0.146941
C71	C	1.057075	-0.000040	-0.439779
C72	C	1.557075	0.499960	0.060221
C73	C	0.905586	-0.000034	-0.419905
C74	C	1.405586	0.499966	0.080095
C75	C	0.907111	-0.000035	-0.333186
C76	C	1.407111	0.499965	0.166814
C77	C	0.983620	-0.000046	-0.299766
C78	C	1.483620	0.499954	0.200234
C79	C	0.980571	-0.000038	-0.473205
C80	C	1.480571	0.499962	0.026795
C81	C	0.978918	-0.000030	-0.567231
C82	C	1.478918	0.499970	-0.067231
C83	C	0.985273	-0.000052	-0.205734
C84	C	1.485273	0.499948	0.294266
C85	C	0.975984	-0.000034	0.265521
C86	C	1.475984	0.499966	0.765521
C87	C	0.977600	-0.000027	0.357816
C88	C	1.477600	0.499973	0.857816
H89	H	0.421454	-0.000065	-0.025285
H90	H	0.921454	0.499935	0.474715
Cl91	Cl	0.557533	-0.000027	0.286200
Cl92	Cl	1.057533	0.499973	0.786200
Cl93	Cl	0.602397	-0.000061	-0.055737
Cl94	Cl	1.102397	0.499939	0.444263
Cl95	Cl	1.109961	0.603965	-0.013845
Cl96	Cl	1.609961	1.103965	0.486155
Cl97	Cl	0.854213	0.604027	0.240846
Cl98	Cl	1.354213	1.104027	0.740846
Cl99	Cl	1.154781	-0.000058	-0.311047
Cl100	Cl	1.654781	0.499942	0.188953
Cl101	Cl	1.109966	0.395894	-0.013828
Cl102	Cl	1.609966	0.895894	0.486172
Cl103	Cl	1.151339	-0.000039	-0.506773
Cl104	Cl	1.651339	0.499961	-0.006773
Cl105	Cl	0.809409	-0.000021	-0.461926
Cl106	Cl	1.309409	0.499979	0.038074
Cl107	Cl	0.812844	-0.000026	-0.266184
Cl108	Cl	1.312844	0.499974	0.233816
H109	H	0.385413	-0.000041	0.249550
H110	H	0.885413	0.499959	0.749550
Cl111	Cl	0.854234	0.395942	0.240868
Cl112	Cl	1.354234	0.895942	0.740868
