data_functionalizedCrystal
_audit_creation_method	'MofGen! by Chris Wilmer'
_symmetry_space_group_name_H-M	'P1'
_symmetry_Int_Tables_number	1
_symmetry_cell_setting	triclinic
loop_
_symmetry_equiv_pos_as_xyz
  x,y,z
_cell_length_a	27.440280
_cell_length_b	14.560438
_cell_length_c	14.560438
_cell_angle_alpha	89.999023
_cell_angle_beta	60.007584
_cell_angle_gamma	120.002364
loop_
_atom_site_label
_atom_site_type_symbol
_atom_site_fract_x
_atom_site_fract_y
_atom_site_fract_z
Zr1	Zr	0.533399	0.120500	0.884882
O2	O	0.635060	0.267149	0.738261
O3	O	0.431737	0.075546	0.929812
O4	O	0.533401	0.267148	0.929837
O5	O	0.533396	-0.075594	0.738236
O6	O	0.533402	0.267146	1.080975
O7	O	0.533397	0.075547	0.738236
O8	O	0.351545	-0.075596	1.080931
O9	O	0.715253	0.267147	0.738280
O10	O	0.473553	0.056370	1.061788
O11	O	0.473551	-0.056423	0.948995
O12	O	0.593247	0.169164	0.949024
O13	O	0.593245	0.056371	0.836232
Zr14	Zr	0.533399	-0.120556	1.125930
Zr15	Zr	0.533401	0.120496	1.125930
Zr16	Zr	0.533397	-0.120552	0.884882
Zr17	Zr	0.661297	0.120497	0.884913
Zr18	Zr	0.405501	-0.120553	1.125899
O19	O	0.635060	-0.075602	1.081000
O20	O	0.635064	0.267143	1.081000
O21	O	0.635057	-0.075596	0.738261
O22	O	0.431737	-0.267205	1.272552
O23	O	0.431740	0.075540	1.272552
O24	O	0.431734	-0.267199	0.929813
O25	O	0.533402	0.075538	1.272576
O26	O	0.533397	-0.267204	1.080976
O27	O	0.533396	-0.267202	0.929837
O28	O	0.533401	-0.075603	1.272576
O29	O	0.715255	0.267144	0.929881
O30	O	0.351543	-0.267200	1.080931
O31	O	0.351545	-0.267203	1.272532
O32	O	0.351547	-0.075599	1.272532
O33	O	0.715251	0.075543	0.738280
O34	O	0.715253	0.075540	0.929881
O35	O	0.473551	-0.169220	1.061788
O36	O	0.473553	-0.056427	1.174581
O37	O	0.593247	0.056367	1.061817
O38	O	0.593245	-0.056426	0.949024
C39	C	0.373418	-0.000024	1.005367
C40	C	0.319122	-0.000023	1.005354
C41	C	0.533402	0.301491	1.005406
C42	C	0.533402	0.403824	1.005406
C43	C	0.533396	-0.301548	1.005407
C44	C	0.533395	-0.403880	1.005407
C45	C	-0.017618	0.058839	1.064314
C46	C	-0.068642	0.058836	1.064324
O47	O	-0.095048	0.108874	1.114431
N48	N	-0.094160	-0.000039	1.005447
C49	C	-0.068655	-0.058923	0.946564
O50	O	-0.095045	-0.109002	0.896486
C51	C	-0.017636	-0.058926	0.946561
C52	C	0.007884	-0.000038	1.005434
C53	C	0.007901	0.117721	1.123182
C54	C	0.058922	0.117725	1.123170
C55	C	0.084424	0.058848	1.064290
C56	C	0.058905	-0.000034	1.005421
C57	C	0.007864	-0.117816	0.887686
C58	C	0.058887	-0.117815	0.887689
C59	C	0.084406	-0.058927	0.946561
C60	C	0.135429	-0.058907	0.946529
N61	N	0.160946	-0.000032	1.005406
C62	C	0.135444	0.058845	1.064287
C63	C	-0.175800	-0.058914	0.946577
C64	C	-0.226815	-0.058906	0.946573
C65	C	-0.226800	0.058852	1.064334
C66	C	-0.175781	0.058849	1.064331
C67	C	-0.150283	-0.000040	1.005454
C68	C	0.242592	0.058851	1.064256
C69	C	0.293620	0.058854	1.064235
C70	C	0.293598	-0.058908	0.946478
C71	C	0.242577	-0.058907	0.946494
C72	C	0.217074	-0.000025	1.005391
O73	O	0.161864	-0.108923	0.896451
O74	O	0.161833	0.108903	1.114369
C75	C	0.693379	-0.000032	1.005445
C76	C	0.747675	-0.000033	1.005458
C77	C	0.533396	-0.000023	0.703892
C78	C	0.533395	-0.000022	0.601561
C79	C	0.595880	0.510778	0.946540
C80	C	0.595877	0.606927	0.946543
C81	C	0.470913	0.489155	1.064280
C82	C	0.470917	0.393008	1.064283
C83	C	0.668027	0.578774	0.878561
C84	C	0.668024	0.674922	0.878564
C85	C	0.470918	-0.058898	0.612344
C86	C	0.470921	-0.058909	0.516189
C87	C	0.595885	0.058844	0.398471
C88	C	0.595881	0.058847	0.494625
C89	C	0.398771	-0.126878	0.680306
C90	C	0.398774	-0.126888	0.584152
C91	C	0.533402	-0.000033	1.306921
C92	C	0.533402	-0.000035	1.409252
C93	C	0.373421	-0.000029	1.306882
C94	C	0.319126	-0.000030	1.409200
C95	C	0.373416	-0.301544	1.005368
C96	C	0.319119	-0.403876	1.005355
C97	C	0.373418	-0.301549	1.306882
C98	C	0.319122	-0.403882	1.409200
C99	C	0.693379	0.301493	0.703930
C100	C	0.747675	0.403826	0.601612
C101	C	0.693377	-0.000027	0.703931
C102	C	0.747672	-0.000026	0.601613
C103	C	0.693382	0.301488	1.005445
C104	C	0.747679	0.403820	1.005458
C105	C	0.293629	0.058859	1.398373
C106	C	0.242620	0.058881	1.494502
C107	C	0.217106	0.000007	1.601458
C108	C	0.242608	-0.058883	1.612282
C109	C	0.293620	-0.058898	1.516154
C110	C	0.293620	-0.510821	1.064225
C111	C	0.242610	-0.606981	1.064209
C112	C	0.217095	-0.596195	1.005327
C113	C	0.242599	-0.489239	0.946450
C114	C	0.293612	-0.393080	0.946460
C115	C	0.293626	-0.393062	1.516137
C116	C	0.242616	-0.489206	1.612284
C117	C	0.217101	-0.596169	1.601494
C118	C	0.242602	-0.606987	1.494546
C119	C	0.293615	-0.510844	1.398400
C120	C	0.773178	0.393006	0.494676
C121	C	0.824204	0.489150	0.398528
C122	C	0.849722	0.596113	0.409319
C123	C	0.824217	0.606931	0.516267
C124	C	0.773196	0.510788	0.612412
C125	C	0.773174	-0.058905	0.612440
C126	C	0.824197	-0.058900	0.516310
C127	C	0.849713	-0.000023	0.409355
C128	C	0.824208	0.058863	0.398530
C129	C	0.773190	0.058864	0.494658
C130	C	0.773177	0.392997	1.064351
C131	C	0.824188	0.489139	1.064385
C132	C	0.849703	0.596103	1.005519
C133	C	0.824200	0.606924	0.946625
C134	C	0.773186	0.510782	0.946598
H135	H	0.314398	0.106811	1.112175
O136	O	0.851733	0.122357	0.283164
H137	H	0.825435	0.163312	0.291771
H138	H	0.752427	0.106807	0.485827
H139	H	0.420039	0.480362	1.112215
H140	H	0.752403	-0.106857	0.699520
H141	H	0.420042	0.305925	1.112230
O142	O	0.745695	0.522447	0.727758
H143	H	0.689417	0.481459	0.774385
H144	H	0.371114	-0.216898	0.732457
H145	H	0.314373	-0.106859	1.524985
H146	H	0.690415	0.570047	0.791518
O147	O	0.851728	0.722294	0.883122
H148	H	0.891491	0.787319	0.893030
O149	O	0.904759	0.699801	0.305608
H150	H	0.885180	0.699737	0.254829
H151	H	0.221828	-0.106816	1.699378
H152	H	0.752411	0.305911	1.112286
H153	H	0.695732	0.578795	0.916383
O154	O	0.745689	0.522471	0.883072
H155	H	0.705924	0.437656	0.892942
O156	O	0.697695	0.742404	0.937960
H157	H	0.713431	0.700429	0.969444
O158	O	0.215097	-0.722333	1.127735
H159	H	0.241400	-0.713669	1.168699
O160	O	0.215058	-0.477610	0.882980
H161	H	0.175290	-0.562449	0.892893
H162	H	-0.247574	0.106791	1.112280
O163	O	0.904723	-0.000072	0.305687
H164	H	0.951206	0.036745	0.305771
O165	O	0.215095	0.122369	1.127766
H166	H	0.241425	0.163320	1.168682
H167	H	0.844948	0.480307	1.112342
H168	H	0.314393	-0.305977	1.524944
O169	O	0.086441	0.181236	1.186673
H170	H	0.043618	0.147199	1.277157
O171	O	-0.019596	0.181241	1.186682
H172	H	0.006733	0.222187	1.227601
H173	H	0.752404	0.305921	0.485868
H174	H	0.845000	0.694031	0.525039
O175	O	0.215108	-0.477527	1.727627
H176	H	0.241413	-0.386995	1.718968
H177	H	0.844955	-0.106856	0.525146
H178	H	0.221862	0.106836	1.485666
H179	H	0.175568	0.000027	1.679722
O180	O	0.904734	0.699797	1.005536
H181	H	0.918181	0.674289	1.056368
O182	O	-0.148290	-0.122422	0.883069
H183	H	-0.125047	-0.088391	0.792583
H184	H	0.314401	0.106815	1.311293
O185	O	-0.148261	0.122354	1.127836
H186	H	-0.174573	0.163287	1.168780
H187	H	0.314366	-0.306005	0.898524
H188	H	-0.247581	-0.106843	0.898618
H189	H	-0.012906	-0.165771	0.839748
H190	H	0.079645	-0.165769	0.839741
O191	O	0.321090	-0.122432	0.882977
H192	H	0.278249	-0.212917	0.917014
O193	O	0.321138	-0.522468	1.127732
H194	H	0.294836	-0.612996	1.168648
H195	H	0.221806	-0.106843	0.898541
H196	H	0.175557	-0.674502	1.005328
H197	H	0.646756	0.106786	0.485836
O198	O	0.704705	0.744070	0.759330
H199	H	0.722659	0.701664	0.700954
H200	H	0.646758	0.106774	0.311394
O201	O	0.369123	-0.067452	0.747744
H202	H	0.315073	-0.110208	0.775092
O203	O	0.369103	-0.242202	0.572595
H204	H	0.353367	-0.303333	0.644231
O205	O	0.215068	-0.722362	1.482927
H206	H	0.257880	-0.732174	1.436263
H207	H	0.314368	-0.519669	1.311332
O208	O	0.362097	-0.076776	0.584114
H209	H	0.344144	-0.052223	0.660345
H210	H	0.175563	-0.674445	1.679791
H211	H	0.844962	0.480320	0.311456
