data_functionalizedCrystal
_audit_creation_method	'MofGen! by Chris Wilmer'
_symmetry_space_group_name_H-M	'P1'
_symmetry_Int_Tables_number	1
_symmetry_cell_setting	triclinic
loop_
_symmetry_equiv_pos_as_xyz
  x,y,z
_cell_length_a	12.827893
_cell_length_b	16.120297
_cell_length_c	12.827892
_cell_angle_alpha	87.123928
_cell_angle_beta	89.984637
_cell_angle_gamma	92.880435
loop_
_atom_site_label
_atom_site_type_symbol
_atom_site_fract_x
_atom_site_fract_y
_atom_site_fract_z
Zn1	Zn	1.567699	-0.471360	0.446020
Zn2	Zn	2.067699	0.028640	0.946020
Zn3	Zn	1.576457	-0.331957	0.611914
Zn4	Zn	2.076457	0.168043	1.111914
Zn5	Zn	1.401803	-0.331968	0.437188
Zn6	Zn	1.901803	0.168032	0.937188
Zn7	Zn	1.392927	-0.471328	0.620717
Zn8	Zn	1.892927	0.028672	1.120717
O9	O	1.484721	-0.401653	0.528960
O10	O	1.984721	0.098347	1.028960
O11	O	1.715096	-0.452876	0.468038
O12	O	2.215096	0.047124	0.968038
O13	O	1.560668	-0.215295	0.581356
O14	O	2.060668	0.284705	1.081356
O15	O	1.423859	-0.350476	0.292125
O16	O	1.923859	0.149524	0.792125
O17	O	1.721530	-0.350457	0.589919
O18	O	2.221530	0.149543	1.089919
O19	O	1.545742	-0.452887	0.298613
O20	O	2.045742	0.047113	0.798613
O21	O	1.432351	-0.215303	0.452985
O22	O	1.932351	0.284697	0.952985
O23	O	1.254390	-0.350446	0.461522
O24	O	1.754390	0.149554	0.961522
O25	O	1.408731	-0.587996	0.604923
O26	O	1.908731	-0.087996	1.104923
O27	O	1.247869	-0.452834	0.596360
O28	O	1.747869	0.047166	1.096360
O29	O	1.537135	-0.588019	0.476574
O30	O	2.037135	-0.088019	0.976574
O31	O	1.552062	-0.350427	0.759316
O32	O	2.052062	0.149573	1.259316
O33	O	1.417223	-0.452823	0.765784
O34	O	1.917223	0.047177	1.265784
C35	C	1.213212	-0.401638	0.528939
C36	C	1.713212	0.098362	1.028939
C37	C	1.097058	-0.401651	0.528956
C38	C	1.597058	0.098349	1.028956
C39	C	0.922039	-0.452423	0.468782
C40	C	1.422039	0.047577	0.968782
C41	C	1.042091	-0.452410	0.468763
C42	C	1.542091	0.047590	0.968763
C43	C	1.470966	-0.619103	0.542716
C44	C	1.970966	-0.119103	1.042716
C45	C	1.465105	-0.711767	0.548578
C46	C	1.965105	-0.211767	1.048578
C47	C	1.454364	-0.881425	0.559257
C48	C	1.954364	-0.381425	1.059257
C49	C	1.515284	-0.922733	0.498349
C50	C	2.015284	-0.422733	0.998349
C51	C	1.509308	-1.017137	0.504291
C52	C	2.009308	-0.517137	1.004291
C53	C	1.460339	-0.787013	0.553316
C54	C	1.960339	-0.287013	1.053316
C55	C	1.757290	-0.401669	0.528982
C56	C	2.257290	0.098331	1.028982
C57	C	1.873443	-0.401676	0.528991
C58	C	2.373443	0.098324	1.028991
C59	C	1.484657	-0.401638	0.800469
C60	C	1.984657	0.098362	1.300469
C61	C	1.484723	-0.401660	0.916623
C62	C	1.984723	0.098340	1.416623
C63	C	1.498483	-0.185050	0.515182
C64	C	1.998483	0.314950	1.015182
C65	C	1.504547	-0.092386	0.509025
C66	C	2.004547	0.407614	1.009025
C67	C	1.484813	-0.401686	0.256392
C68	C	1.984813	0.098314	0.756392
C69	C	1.484853	-0.401700	0.140239
C70	C	1.984853	0.098300	0.640239
C71	C	1.551517	-0.351048	0.965176
C72	C	2.051517	0.148952	1.465176
C73	C	1.551587	-0.351069	1.085228
C74	C	2.051587	0.148931	1.585228
H75	H	1.083895	-0.495853	0.417211
H76	H	1.583895	0.004147	0.917211
H77	H	1.608769	-0.307735	1.126995
H78	H	2.108769	0.192265	1.626995
O79	O	0.929721	-0.349715	0.590416
O80	O	1.429721	0.150285	1.090416
C81	C	0.908385	-0.266637	0.562172
C82	C	1.408385	0.233363	1.062172
H83	H	0.829225	-0.264913	0.521970
H84	H	1.329225	0.235087	1.021970
H85	H	0.907115	-0.229151	0.635152
H86	H	1.407115	0.270849	1.135152
H87	H	0.971563	-0.238669	0.506559
H88	H	1.471563	0.261331	1.006559
O89	O	1.582824	-0.880219	0.430893
O90	O	2.082824	-0.380219	0.930893
C91	C	1.573810	-0.794060	0.439879
C92	C	2.073810	-0.294060	0.939879
H93	H	1.540304	-0.782259	0.519800
H94	H	2.040304	-0.282259	1.019800
H95	H	1.654140	-0.760902	0.430730
H96	H	2.154140	-0.260902	0.930730
H97	H	1.519699	-0.769347	0.376373
H98	H	2.019699	-0.269347	0.876373
O99	O	1.386856	-0.923719	0.626933
O100	O	1.886856	-0.423719	1.126933
C101	C	1.411000	-0.902536	0.729780
C102	C	1.911000	-0.402536	1.229780
H103	H	1.455087	-0.839290	0.728046
H104	H	1.955087	-0.339290	1.228046
H105	H	1.335748	-0.899660	0.776465
H106	H	1.835748	-0.399660	1.276465
H107	H	1.461685	-0.951527	0.767995
H108	H	1.961685	-0.451527	1.267995
O109	O	1.619535	-0.299244	0.908692
O110	O	2.119535	0.200756	1.408692
C111	C	1.563404	-0.245407	0.842206
C112	C	2.063404	0.254593	1.342206
H113	H	1.481485	-0.240181	0.874907
H114	H	1.981485	0.259819	1.374907
H115	H	1.605318	-0.181275	0.836796
H116	H	2.105318	0.318725	1.336796
H117	H	1.558019	-0.271229	0.761152
H118	H	2.058019	0.228771	1.261152
O119	O	0.865691	-0.504388	0.407422
O120	O	1.365691	-0.004388	0.907422
C121	C	0.887071	-0.587463	0.435632
C122	C	1.387071	-0.087463	0.935632
H123	H	0.916878	-0.591576	0.519351
H124	H	1.416878	-0.091576	1.019351
H125	H	0.812651	-0.628619	0.429394
H126	H	1.312651	-0.128619	0.929394
H127	H	0.948968	-0.609371	0.380963
H128	H	1.448968	-0.109371	0.880963
O129	O	1.416769	-0.453488	1.090385
O130	O	1.916769	0.046512	1.590385
C131	C	1.472827	-0.507304	1.030556
C132	C	1.972827	-0.007304	1.530556
H133	H	1.554785	-0.512540	1.063772
H134	H	2.054785	-0.012540	1.563772
H135	H	1.430911	-0.571435	1.033268
H136	H	1.930911	-0.071435	1.533268
H137	H	1.478113	-0.481454	0.946251
H138	H	1.978113	0.018546	1.446251
H139	H	1.055262	-0.358201	0.580503
H140	H	1.555262	0.141799	1.080503
O141	O	1.416418	-0.453335	0.972936
O142	O	1.916418	0.046665	1.472936
C143	C	1.313399	-0.435043	0.945305
C144	C	1.813399	0.064957	1.445305
H145	H	1.313169	-0.403035	0.864024
H146	H	1.813169	0.096965	1.364024
H147	H	1.262670	-0.495180	0.945499
H148	H	1.762670	0.004820	1.445499
H149	H	1.281054	-0.392124	1.004049
H150	H	1.781054	0.107876	1.504049
