data_functionalizedCrystal
_audit_creation_method	'MofGen! by Chris Wilmer'
_symmetry_space_group_name_H-M	'P1'
_symmetry_Int_Tables_number	1
_symmetry_cell_setting	triclinic
loop_
_symmetry_equiv_pos_as_xyz
  x,y,z
_cell_length_a	12.837943
_cell_length_b	15.995292
_cell_length_c	11.892095
_cell_angle_alpha	93.891493
_cell_angle_beta	85.689438
_cell_angle_gamma	89.148778
loop_
_atom_site_label
_atom_site_type_symbol
_atom_site_fract_x
_atom_site_fract_y
_atom_site_fract_z
O1	O	1.382024	0.212848	-0.093967
O2	O	1.080222	0.202095	-0.093975
O3	O	1.239405	0.086242	-0.093973
O4	O	1.222842	0.328702	-0.093970
O5	O	1.226132	0.095885	0.094035
O6	O	1.066950	0.211739	0.094032
O7	O	1.368752	0.222492	0.094040
Zn8	Zn	1.215744	0.218646	0.123886
Zn9	Zn	1.233231	0.205941	-0.123821
O10	O	1.209569	0.338345	0.094038
C11	C	1.034966	0.203285	0.000028
C12	C	0.919892	0.192451	0.000025
C13	C	1.232095	0.059814	0.000028
C14	C	1.230074	-0.033301	0.000020
C15	C	0.678899	0.322690	0.000042
C16	C	0.570776	0.312515	0.000040
C17	C	0.595520	0.161926	0.000026
C18	C	0.703644	0.172102	0.000028
C19	C	0.745329	0.252486	0.000035
C20	C	0.853454	0.262660	0.000029
C21	C	0.878196	0.112072	0.000023
C22	C	0.770073	0.101897	0.000021
C23	C	1.222644	-0.371632	0.000030
C24	C	1.337508	-0.339130	0.000453
C25	C	1.339722	-0.242303	0.000025
C26	C	1.226331	-0.203782	0.000025
C27	C	1.176468	-0.242973	-0.107334
C28	C	1.175091	-0.339878	-0.107420
C29	C	1.157652	-0.328956	0.106380
C30	C	1.161810	-0.232051	0.107795
C31	C	1.228409	-0.108920	0.000019
C32	C	1.220563	-0.466494	0.000028
C33	C	1.414008	0.221302	0.000035
C34	C	1.529083	0.232136	0.000031
C35	C	1.216880	0.364773	0.000034
C36	C	1.218901	0.457887	0.000035
N37	N	1.203817	0.227317	0.292940
N38	N	1.245165	0.197264	-0.292875
C39	C	1.328157	0.136878	0.529590
C40	C	1.319828	0.142946	0.647932
C41	C	1.178825	0.245516	0.647968
C42	C	1.187154	0.239448	0.529626
C43	C	1.261824	0.185128	0.470441
C44	C	1.270157	0.179065	0.352097
C45	C	1.129150	0.281630	0.352136
C46	C	1.120821	0.287698	0.470477
H47	H	0.887392	0.328113	0.000036
F48	F	1.209144	-0.198093	0.211610
H49	H	1.075140	0.320921	0.303963
F50	F	0.725697	0.016351	0.000018
F51	F	1.041353	0.345504	0.533476
H52	H	0.516692	0.369683	0.000050
F53	F	0.723267	0.408239	0.000035
H54	H	1.373842	0.103655	0.696087
F55	F	0.551137	0.076383	0.000033
H56	H	1.330960	0.134838	0.303910
H57	H	0.932296	0.054907	0.000009
H58	H	1.386952	-0.368561	-0.076105
F59	F	1.234499	-0.376163	-0.212313
F60	F	1.067775	-0.210287	-0.112558
H61	H	1.390416	-0.224242	-0.077067
H62	H	1.118024	0.289735	0.696171
H63	H	1.376358	-0.359645	0.077445
F64	F	1.391399	-0.207580	0.100628
H65	H	1.091194	-0.361399	-0.112284
F66	F	1.407635	0.079076	0.466600
H67	H	1.188090	-0.349984	0.187758
F68	F	1.235979	-0.217953	-0.211767
H69	H	1.078588	-0.205353	0.114279
F70	F	1.047046	-0.356015	0.107328
