data_functionalizedCrystal
_audit_creation_method	'MofGen! by Chris Wilmer'
_symmetry_space_group_name_H-M	'P1'
_symmetry_Int_Tables_number	1
_symmetry_cell_setting	triclinic
loop_
_symmetry_equiv_pos_as_xyz
  x,y,z
_cell_length_a	10.723024
_cell_length_b	14.519731
_cell_length_c	9.198806
_cell_angle_alpha	90.004419
_cell_angle_beta	90.003396
_cell_angle_gamma	84.078361
loop_
_atom_site_label
_atom_site_type_symbol
_atom_site_fract_x
_atom_site_fract_y
_atom_site_fract_z
O1	O	1.655991	0.129347	0.120887
O2	O	1.292724	0.141728	0.120892
O3	O	1.483975	0.001349	0.120876
O4	O	1.464740	0.269725	0.120903
O5	O	1.483961	0.001348	-0.120909
O6	O	1.292710	0.141726	-0.120893
O7	O	1.655977	0.129345	-0.120898
Cu8	Cu	1.474342	0.135536	-0.142973
Cu9	Cu	1.474359	0.135537	0.142966
O10	O	1.464726	0.269724	-0.120882
C11	C	1.483067	-0.033016	-0.000017
C12	C	1.480366	-0.135410	-0.000018
C13	C	1.246226	0.140826	-0.000000
C14	C	1.107697	0.138130	0.000002
C15	C	0.916714	0.054394	-0.000004
C16	C	1.059891	0.057179	-0.000006
C17	C	1.478172	-0.218565	-0.000014
C18	C	1.475429	-0.322888	-0.000003
C19	C	1.473253	-0.406038	0.000006
C20	C	1.470511	-0.510367	0.000015
C21	C	1.702475	0.130247	-0.000003
C22	C	1.841005	0.132943	0.000005
C23	C	1.465634	0.304089	0.000014
C24	C	1.468335	0.406483	0.000024
N25	N	1.474340	0.135534	-0.344087
C26	C	1.554838	0.076466	-0.583694
C27	C	1.554822	0.076467	-0.416282
N28	N	1.474371	0.135531	0.344080
H29	H	0.875532	-0.014915	-0.000033
F30	F	1.384313	0.201636	-0.574752
H31	H	1.042649	0.205378	0.000015
H32	H	1.124946	-0.010065	-0.000004
F33	F	0.894824	0.223538	0.000002
F34	F	1.644865	0.010363	-0.335102
F35	F	1.644910	0.010369	-0.664859
H36	H	1.405440	0.186102	-0.406188
