data_functionalizedCrystal
_audit_creation_method	'MofGen! by Chris Wilmer'
_symmetry_space_group_name_H-M	'P1'
_symmetry_Int_Tables_number	1
_symmetry_cell_setting	triclinic
loop_
_symmetry_equiv_pos_as_xyz
  x,y,z
_cell_length_a	6.394989
_cell_length_b	16.974829
_cell_length_c	16.053802
_cell_angle_alpha	83.771117
_cell_angle_beta	87.356563
_cell_angle_gamma	95.055059
loop_
_atom_site_label
_atom_site_type_symbol
_atom_site_fract_x
_atom_site_fract_y
_atom_site_fract_z
O1	O	-0.248421	1.058392	-0.140935
O2	O	-0.284287	0.827795	-0.125355
O3	O	0.037748	0.946367	-0.133367
O4	O	-0.570455	0.939821	-0.132923
O5	O	0.020095	0.939840	0.005933
O6	O	-0.301940	0.821268	0.013945
O7	O	-0.266074	1.051865	-0.001635
Zn8	Zn	-0.286810	0.935530	0.028272
Zn9	Zn	-0.263551	0.944130	-0.155262
O10	O	-0.588108	0.933293	0.006377
C11	C	-0.292075	0.794967	-0.053708
C12	C	-0.288955	0.706873	-0.047757
C13	C	-0.272494	0.210614	-0.006105
C14	C	-0.275425	0.293388	-0.011699
C15	C	-0.267252	0.338333	-0.090429
C16	C	-0.256169	0.300500	-0.163571
C17	C	-0.253253	0.217728	-0.157976
C18	C	-0.274955	0.586268	-0.115304
C19	C	-0.277866	0.669046	-0.120893
C20	C	-0.297126	0.661927	0.030980
C21	C	-0.294196	0.579154	0.036568
C22	C	-0.283124	0.541328	-0.036574
N23	N	-0.270242	0.422941	-0.096149
N24	N	-0.280150	0.456721	-0.030853
C25	C	0.106728	0.941809	-0.063633
C26	C	0.342918	0.937853	-0.063366
C27	C	-0.258286	1.084693	-0.073284
C28	C	-0.261405	1.172787	-0.079241
N29	N	-0.302682	0.929667	0.153528
N30	N	-0.247663	0.950000	-0.280519
C31	C	-0.165704	0.980139	0.193812
C32	C	-0.176826	0.976045	0.281495
C33	C	-0.324938	0.921482	0.328893
C34	C	-0.461922	0.871005	0.288604
C35	C	-0.450788	0.875095	0.200922
C36	C	-0.373513	0.903613	0.591510
C37	C	-0.384640	0.899528	0.679197
C38	C	-0.099541	1.004567	0.672083
C39	C	-0.088428	1.008656	0.584400
C40	C	-0.225405	0.958176	0.544118
N41	N	-0.336315	0.917298	0.418520
N42	N	-0.214017	0.962357	0.454494
H43	H	-0.279159	0.174025	0.058006
H44	H	0.011981	1.045665	0.704889
C45	C	-0.262731	0.544672	-0.195762
N46	N	-0.253510	0.513340	-0.256368
H47	H	-0.244229	0.186930	-0.217532
H48	H	-0.505260	0.855094	0.717785
H49	H	-0.300806	0.542567	0.100678
H50	H	-0.485048	0.862511	0.558720
C51	C	-0.002767	1.040162	0.141682
N52	N	0.119969	1.085370	0.102420
H53	H	-0.306145	0.692734	0.090528
H54	H	0.032176	1.053085	0.545810
C55	C	-0.601492	0.819579	0.156610
N56	N	-0.715008	0.777762	0.123236
H57	H	-0.582511	0.826575	0.327200
C58	C	-0.026089	1.031549	0.325804
N59	N	0.087474	1.073349	0.359178
H60	H	-0.271227	0.705638	-0.185008
H61	H	-0.284450	0.324183	0.047857
C62	C	-0.247174	0.349944	-0.250176
N63	N	-0.240388	0.387184	-0.315408
