data_functionalizedCrystal
_audit_creation_method	'MofGen! by Chris Wilmer'
_symmetry_space_group_name_H-M	'P1'
_symmetry_Int_Tables_number	1
_symmetry_cell_setting	triclinic
loop_
_symmetry_equiv_pos_as_xyz
  x,y,z
_cell_length_a	17.019372
_cell_length_b	19.188940
_cell_length_c	15.500227
_cell_angle_alpha	92.818165
_cell_angle_beta	91.029586
_cell_angle_gamma	83.270614
loop_
_atom_site_label
_atom_site_type_symbol
_atom_site_fract_x
_atom_site_fract_y
_atom_site_fract_z
O1	O	1.046060	0.089193	0.005920
O2	O	1.546060	0.589193	0.505920
O3	O	0.817231	0.099773	-0.011115
O4	O	1.317231	0.599773	0.488885
O5	O	0.938245	-0.007139	-0.002099
O6	O	1.438245	0.492861	0.497901
O7	O	0.925046	0.196104	-0.003095
O8	O	1.425046	0.696104	0.496905
O9	O	0.930901	-0.000677	0.141242
O10	O	1.430901	0.499323	0.641242
O11	O	0.809887	0.106235	0.132227
O12	O	1.309887	0.606235	0.632227
O13	O	1.038717	0.095655	0.149262
O14	O	1.538717	0.595655	0.649262
Cu15	Cu	0.923631	0.101535	0.153832
Cu16	Cu	1.423631	0.601535	0.653832
Cu17	Cu	0.932316	0.093893	-0.015686
Cu18	Cu	1.432316	0.593893	0.484314
O19	O	0.917703	0.202566	0.140246
O20	O	1.417703	0.702566	0.640246
C21	C	0.784283	0.102476	0.058376
C22	C	1.284283	0.602476	0.558376
C23	C	0.697051	0.100895	0.051883
C24	C	1.197051	0.600895	0.551883
C25	C	0.203888	0.091752	0.011178
C26	C	0.703888	0.591752	0.511178
C27	C	0.285852	0.093238	0.017291
C28	C	0.785852	0.593238	0.517291
C29	C	0.322822	0.097509	0.098484
C30	C	0.822822	0.597509	0.598484
C31	C	0.277825	0.100287	0.173568
C32	C	0.777825	0.600287	0.673568
C33	C	0.195864	0.098796	0.167454
C34	C	0.695864	0.598796	0.667454
C35	C	0.570092	0.102182	0.120853
C36	C	1.070092	0.602182	0.620853
C37	C	0.652059	0.103675	0.126962
C38	C	1.152059	0.603675	0.626962
C39	C	0.660081	0.096625	-0.029317
C40	C	1.160081	0.596625	0.470683
C41	C	0.578117	0.095139	-0.035423
C42	C	1.078117	0.595139	0.464577
C43	C	0.533128	0.097913	0.039661
C44	C	1.033128	0.597913	0.539661
C45	C	0.406602	0.099030	0.104734
C46	C	0.906602	0.599030	0.604734
C47	C	0.449350	0.096387	0.033410
C48	C	0.949350	0.596387	0.533410
C49	C	0.934144	-0.029921	0.069539
C50	C	1.434144	0.470079	0.569539
C51	C	0.932857	-0.107431	0.069443
C52	C	1.432857	0.392569	0.569443
C53	C	0.919700	-0.657215	0.146877
C54	C	1.419700	-0.157215	0.646877
C55	C	0.920900	-0.584385	0.146971
C56	C	1.420900	-0.084385	0.646971
C57	C	0.925507	-0.551484	0.068881
C58	C	1.425507	-0.051484	0.568881
C59	C	0.928893	-0.591419	-0.009310
C60	C	1.428893	-0.091419	0.490690
C61	C	0.927685	-0.664247	-0.009402
C62	C	1.427685	-0.164247	0.490598
N63	N	0.975101	-0.444847	0.014194
N64	N	1.475101	0.055153	0.514194
N65	N	0.976250	-0.375663	0.014288
N66	N	1.476250	0.124337	0.514288
C67	C	0.929146	-0.332057	0.069155
C68	C	1.429146	0.167943	0.569155
N69	N	0.880859	-0.360248	0.123940
N70	N	1.380859	0.139752	0.623940
N71	N	0.879713	-0.429439	0.123849
N72	N	1.379713	0.070561	0.623849
C73	C	0.926817	-0.472515	0.068973
C74	C	1.426817	0.027485	0.568973
C75	C	0.927056	-0.213159	0.147443
C76	C	1.427056	0.286841	0.647443
C77	C	0.928252	-0.140327	0.147533
C78	C	1.428252	0.359673	0.647533
C79	C	0.936253	-0.147364	-0.008749
C80	C	1.436253	0.352636	0.491251
C81	C	0.935049	-0.220194	-0.008838
C82	C	1.435049	0.279806	0.491162
C83	C	0.930455	-0.253087	0.069261
C84	C	1.430455	0.246913	0.569261
C85	C	1.071664	0.092952	0.079768
C86	C	1.571664	0.592952	0.579768
C87	C	1.158897	0.094532	0.086257
C88	C	1.658897	0.594532	0.586257
C89	C	0.921803	0.225348	0.068606
C90	C	1.421803	0.725348	0.568606
C91	C	0.923090	0.302859	0.068696
C92	C	1.423090	0.802859	0.568696
N93	N	0.917529	0.106910	0.273063
N94	N	1.417529	0.606910	0.773063
N95	N	0.938424	0.088513	-0.134915
N96	N	1.438424	0.588513	0.365085
C97	C	0.968825	0.061624	0.322161
C98	C	1.468825	0.561624	0.822161
C99	C	0.964217	0.065696	0.412390
C100	C	1.464217	0.565696	0.912390
C101	C	0.908316	0.115056	0.453520
C102	C	1.408316	0.615056	0.953520
C103	C	0.857015	0.160343	0.404416
C104	C	1.357015	0.660343	0.904416
C105	C	0.861620	0.156268	0.314187
C106	C	1.361620	0.656268	0.814187
C107	C	0.891728	0.129725	0.725752
C108	C	1.391728	0.629725	1.225752
C109	C	0.887129	0.133798	0.815986
C110	C	1.387129	0.633798	1.315986
C111	C	0.994330	0.039149	0.823955
C112	C	1.494330	0.539149	1.323955
C113	C	0.998933	0.035081	0.733725
C114	C	1.498933	0.535081	1.233725
C115	C	0.947629	0.080366	0.684628
C116	C	1.447629	0.580366	1.184628
C117	C	0.903607	0.119220	0.545750
C118	C	1.403607	0.619220	1.045750
C119	C	0.952335	0.076198	0.592400
C120	C	1.452335	0.576198	1.092400
H121	H	0.682157	0.107158	0.193082
H122	H	1.182157	0.607158	0.693082
F123	F	1.028326	0.009091	0.278396
F124	F	1.528326	0.509091	0.778396
F125	F	1.058428	-0.017453	0.689953
F126	F	1.558428	0.482547	1.189953
H127	H	0.923308	-0.239942	0.211035
H128	H	1.423308	0.260058	0.711035
F129	F	0.844115	0.171754	0.589528
F130	F	1.344115	0.671754	1.089528
H131	H	1.005985	0.028820	0.452366
H132	H	1.505985	0.528820	0.952366
F133	F	0.931295	-0.706741	-0.092616
F134	F	1.431295	-0.206741	0.407384
H135	H	0.548022	0.091660	-0.101539
H136	H	1.048022	0.591660	0.398461
H137	H	0.937816	-0.252703	-0.072500
H138	H	1.437816	0.247297	0.427500
H139	H	0.173793	0.088280	-0.054938
H140	H	0.673793	0.588280	0.445062
F141	F	0.933799	-0.556404	-0.092418
F142	F	1.433799	-0.056404	0.407582
H143	H	0.159231	0.101067	0.228592
H144	H	0.659231	0.601067	0.728592
F145	F	1.048925	-0.009045	0.876213
F146	F	1.548925	0.490955	1.376213
H147	H	0.925489	-0.107820	0.211200
H148	H	1.425489	0.392180	0.711200
H149	H	0.939995	-0.120576	-0.072332
H150	H	1.439995	0.379424	0.427668
F151	F	0.522220	0.105149	0.200766
F152	F	1.022220	0.605149	0.700766
H153	H	0.841606	0.173996	0.849470
H154	H	1.341606	0.673996	1.349470
F155	F	0.837130	0.177922	0.673506
F156	F	1.337130	0.677922	1.173506
F157	F	0.797517	0.212874	0.448190
F158	F	1.297517	0.712874	0.948190
F159	F	0.807022	0.204466	0.261934
F160	F	1.307022	0.704466	0.761934
F161	F	1.011824	0.023663	0.548625
F162	F	1.511824	0.523663	1.048625
H163	H	0.696720	0.094366	-0.090446
H164	H	1.196720	0.594366	0.409554
F165	F	0.317174	0.104830	0.259980
F166	F	0.817174	0.604830	0.759980
H167	H	0.419246	0.092907	-0.032697
H168	H	0.919246	0.592907	0.467303
H169	H	0.915957	-0.683993	0.210471
H170	H	1.415957	-0.183993	0.710471
F171	F	0.333732	0.090276	-0.062619
F172	F	0.833732	0.590276	0.437381
F173	F	0.917297	-0.541885	0.230185
F174	F	1.417297	-0.041885	0.730185
H175	H	0.436712	0.102508	0.170842
H176	H	0.936712	0.602508	0.670842
