data_functionalizedCrystal
_audit_creation_method	'MofGen! by Chris Wilmer'
_symmetry_space_group_name_H-M	'P1'
_symmetry_Int_Tables_number	1
_symmetry_cell_setting	triclinic
loop_
_symmetry_equiv_pos_as_xyz
  x,y,z
_cell_length_a	23.532350
_cell_length_b	16.109301
_cell_length_c	15.186229
_cell_angle_alpha	89.986602
_cell_angle_beta	90.002376
_cell_angle_gamma	96.856638
loop_
_atom_site_label
_atom_site_type_symbol
_atom_site_fract_x
_atom_site_fract_y
_atom_site_fract_z
O1	O	-0.755654	0.100706	-0.073117
O2	O	-0.589840	0.115359	-0.073144
O3	O	-0.677303	-0.013035	-0.073121
O4	O	-0.668192	0.229101	-0.073140
O5	O	-0.677291	-0.013056	0.073337
O6	O	-0.589829	0.115339	0.073313
O7	O	-0.755643	0.100686	0.073341
Zn8	Zn	-0.672734	0.108009	0.096580
Zn9	Zn	-0.672749	0.108036	-0.096384
O10	O	-0.668181	0.229081	0.073317
C11	C	-0.568617	0.114984	0.000081
C12	C	-0.505394	0.113885	0.000071
C13	C	-0.113347	0.106968	0.079945
C14	C	-0.053943	0.105922	0.079949
O15	O	-0.023217	0.105344	0.147844
N16	N	-0.024239	0.105415	0.000116
C17	C	-0.053943	0.105945	-0.079727
O18	O	-0.023223	0.105417	-0.147631
C19	C	-0.113346	0.106985	-0.079730
C20	C	-0.143046	0.107500	0.000109
C21	C	-0.143047	0.107483	0.159777
C22	C	-0.202446	0.108530	0.159773
C23	C	-0.232145	0.109062	0.079937
C24	C	-0.202445	0.108547	0.000105
C25	C	-0.143048	0.107509	-0.159571
C26	C	-0.202455	0.108548	-0.159567
C27	C	-0.232155	0.109063	-0.079729
C28	C	-0.291543	0.110127	-0.079736
N29	N	-0.321247	0.110634	0.000097
C30	C	-0.291548	0.110102	0.079934
C31	C	0.070807	0.103760	-0.079714
C32	C	0.130210	0.102727	-0.079712
C33	C	0.130205	0.102702	0.079964
C34	C	0.070802	0.103742	0.079961
C35	C	0.041103	0.104267	0.000119
C36	C	-0.416291	0.112302	0.079919
C37	C	-0.475695	0.113352	0.079907
C38	C	-0.475685	0.113372	-0.079768
C39	C	-0.416286	0.112326	-0.079757
C40	C	-0.386590	0.111788	0.000093
O41	O	-0.322307	0.110703	-0.147596
O42	O	-0.322276	0.110619	0.147826
C43	C	-0.676928	-0.044017	0.000108
C44	C	-0.675821	-0.136304	0.000110
C45	C	-0.725147	-0.358979	0.000104
C46	C	-0.724103	-0.445691	0.000096
C47	C	-0.620332	-0.424969	0.000083
C48	C	-0.621377	-0.338259	0.000084
C49	C	-0.673786	-0.305266	0.000099
C50	C	-0.671697	-0.478688	0.000090
C51	C	-0.670565	-0.572705	0.000082
C52	C	-0.674918	-0.211244	0.000105
C53	C	0.223134	0.101069	0.000115
C54	C	0.159913	0.102190	0.000124
C55	C	-0.668555	0.260063	0.000086
C56	C	-0.669662	0.352349	0.000079
N57	N	-0.672727	0.107990	0.228273
N58	N	-0.672760	0.108049	-0.228076
C59	C	-0.638216	0.057869	0.546223
C60	C	-0.638211	0.057857	0.454034
C61	C	-0.707276	0.158172	0.453980
C62	C	-0.707283	0.158179	0.546168
C63	C	-0.672750	0.108029	0.592287
C64	C	-0.672738	0.108010	0.407910
C65	C	-0.672733	0.107997	0.307953
C66	C	-0.672756	0.108040	0.692250
H67	H	-0.499874	0.113775	0.144924
N68	N	-0.565980	-0.280314	0.000089
H69	H	-0.564104	-0.243864	-0.054203
H70	H	-0.532650	-0.314425	0.000121
H71	H	-0.577662	-0.451843	0.000072
N72	N	-0.779498	-0.503628	0.000106
H73	H	-0.802368	-0.493053	-0.054179
H74	H	-0.802311	-0.493053	0.054440
N75	N	-0.600977	0.003769	0.595962
H76	H	-0.625784	-0.037113	0.634218
H77	H	-0.573102	0.040242	0.634156
N78	N	-0.781672	-0.323394	0.000119
H79	H	-0.804177	-0.342999	-0.054171
H80	H	-0.774494	-0.260319	0.000156
N81	N	-0.600966	0.003753	0.404349
H82	H	-0.579093	-0.028015	0.447557
H83	H	-0.573118	0.040215	0.366091
H84	H	0.154396	0.102267	0.144971
H85	H	-0.226633	0.108976	-0.224586
H86	H	-0.735408	0.199025	0.583674
N87	N	-0.744521	0.212259	0.404237
H88	H	-0.739276	0.204646	0.338846
H89	H	-0.733261	0.272816	0.420333
N90	N	-0.384269	0.111720	0.166042
H91	H	-0.412155	0.111638	0.216605
H92	H	-0.355256	0.163121	0.169782
H93	H	-0.118873	0.107047	0.224793
N94	N	-0.234470	0.109082	0.245890
H95	H	-0.228757	0.057348	0.280792
H96	H	-0.276597	0.109856	0.233719
N97	N	0.038770	0.104300	0.166071
H98	H	0.066604	0.103807	0.216642
H99	H	0.009495	0.053183	0.169559
H100	H	0.046631	0.104196	-0.144735
N101	N	0.162241	0.102183	-0.165823
H102	H	0.134408	0.102679	-0.216395
H103	H	0.182255	0.050202	-0.169299
N104	N	-0.111024	0.106941	-0.245683
H105	H	-0.116735	0.158667	-0.280601
H106	H	-0.126016	0.055541	-0.280496
N107	N	-0.384242	0.111780	-0.165861
H108	H	-0.389944	0.163513	-0.200770
H109	H	-0.399228	0.060388	-0.200691
N110	N	-0.507723	0.113946	-0.165874
H111	H	-0.549860	0.114683	-0.153755
H112	H	-0.501972	0.062217	-0.200727
