data_functionalizedCrystal
_audit_creation_method	'MofGen! by Chris Wilmer'
_symmetry_space_group_name_H-M	'P1'
_symmetry_Int_Tables_number	1
_symmetry_cell_setting	triclinic
loop_
_symmetry_equiv_pos_as_xyz
  x,y,z
_cell_length_a	27.732048
_cell_length_b	15.995350
_cell_length_c	15.072220
_cell_angle_alpha	89.997847
_cell_angle_beta	90.001640
_cell_angle_gamma	96.932485
loop_
_atom_site_label
_atom_site_type_symbol
_atom_site_fract_x
_atom_site_fract_y
_atom_site_fract_z
O1	O	0.062299	-1.110182	0.073717
O2	O	0.069993	-0.866307	0.073737
O3	O	-0.004218	-0.995819	0.073709
O4	O	0.136510	-0.980671	0.073744
O5	O	-0.004209	-0.995802	-0.073856
O6	O	0.070002	-0.866291	-0.073828
O7	O	0.062308	-1.110165	-0.073848
Zn8	Zn	0.066156	-0.988225	-0.097267
Zn9	Zn	0.066144	-0.988247	0.097156
O10	O	0.136519	-0.980654	-0.073821
C11	C	0.069679	-0.835108	-0.000044
C12	C	0.068726	-0.742170	-0.000037
C13	C	-0.022222	-0.995493	-0.000076
C14	C	-0.075881	-0.994535	-0.000083
N15	N	0.066165	-0.988217	-0.229956
C16	C	-0.414392	-1.065040	-0.000043
C17	C	-0.616067	-1.061487	-0.000030
O18	O	-0.647045	-1.125959	0.000004
N19	N	-0.635522	-0.984692	-0.000025
C20	C	-0.604555	-0.908780	-0.000017
O21	O	-0.625730	-0.843380	-0.000003
C22	C	-0.402881	-0.912334	-0.000023
C23	C	-0.383429	-0.989134	-0.000037
C24	C	-0.394940	-1.141834	-0.000056
C25	C	-0.344524	-1.142721	-0.000064
C26	C	-0.313561	-1.066815	-0.000059
C27	C	-0.333013	-0.990021	-0.000045
C28	C	-0.371914	-0.836422	-0.000009
C29	C	-0.321493	-0.837317	-0.000008
C30	C	-0.302041	-0.914117	-0.000023
C31	C	-0.251634	-0.915002	-0.000048
N32	N	-0.232179	-0.991797	-0.000053
C33	C	-0.263142	-1.067703	-0.000059
C34	C	-0.710437	-0.906920	-0.000015
C35	C	-0.760855	-0.906031	-0.000015
C36	C	-0.772364	-1.058739	-0.000027
C37	C	-0.721945	-1.059627	-0.000033
C38	C	-0.690982	-0.983715	-0.000021
C39	C	-0.157265	-1.069561	-0.000076
C40	C	-0.106844	-1.070442	-0.000088
C41	C	-0.095340	-0.917734	-0.000072
C42	C	-0.145756	-0.916853	-0.000065
C43	C	-0.176718	-0.992773	-0.000064
O44	O	-0.220628	-0.850565	-0.000072
O45	O	-0.241958	-1.133094	-0.000053
C46	C	-0.464808	-1.064153	-0.000035
C47	C	-0.484260	-0.987359	-0.000022
C48	C	-0.453297	-0.911452	-0.000016
C49	C	-0.534679	-0.986470	-0.000022
C50	C	-0.565642	-1.062377	-0.000027
C51	C	-0.546187	-1.139172	-0.000032
C52	C	-0.495771	-1.140059	-0.000040
C53	C	-0.472752	-0.834657	-0.000011
C54	C	-0.523168	-0.833776	-0.000004
C55	C	-0.554132	-0.909683	-0.000009
C56	C	0.154523	-0.980980	-0.000034
C57	C	0.208182	-0.981938	-0.000021
C58	C	0.062621	-1.141364	-0.000066
C59	C	0.063575	-1.234303	-0.000066
C60	C	0.065301	-0.404467	-0.000056
C61	C	0.012449	-0.452585	-0.000399
C62	C	0.013403	-0.549263	-0.000060
C63	C	0.067000	-0.572006	-0.000047
C64	C	0.093063	-0.530591	0.084223
C65	C	0.091735	-0.433972	0.084287
C66	C	0.092837	-0.433600	-0.083522
C67	C	0.092825	-0.530546	-0.084630
C68	C	0.067962	-0.666691	-0.000039
C69	C	0.064340	-0.309782	-0.000058
C70	C	0.066153	-0.988232	-0.410954
C71	C	0.105848	-0.918922	-0.448608
C72	C	0.105739	-0.918688	-0.551433
C73	C	0.066143	-0.988247	-0.589158
C74	C	0.015648	-0.970176	-0.551826
C75	C	0.015886	-0.969670	-0.448968
C76	C	0.076499	-1.075831	-0.448846
C77	C	0.077639	-1.075237	-0.551710
C78	C	0.066134	-0.988258	-0.689871
C79	C	0.066159	-0.988220	-0.310240
N80	N	0.066132	-0.988263	0.229845
H81	H	-0.091010	-1.132984	-0.000102
F82	F	-0.781551	-0.824290	-0.000016
H83	H	0.130537	-0.401222	0.088120
H84	H	0.006799	-0.905816	-0.424991
F85	F	0.038668	-1.143234	-0.417011
F86	F	0.067918	-0.566480	-0.166115
H87	H	-0.685230	-0.845100	-0.000005
F88	F	0.144526	-0.548407	0.088347
H89	H	-0.479938	-1.202598	-0.000051
F90	F	0.155069	-0.932539	-0.416278
H91	H	-0.008673	-0.434329	-0.060832
F92	F	-0.579149	-1.219957	-0.000043
H93	H	0.131910	-0.545405	-0.089710
F94	F	-0.543864	-0.752029	0.000006
F95	F	-0.023895	-1.033210	-0.416406
H96	H	-0.447546	-0.772844	-0.000005
H97	H	-0.328691	-1.205260	-0.000072
F98	F	-0.023906	-1.034466	-0.583761
H99	H	-0.007084	-0.577950	-0.060468
H100	H	0.131805	-0.401334	-0.084083
H101	H	-0.008583	-0.433270	0.059692
F102	F	-0.427887	-1.222631	-0.000061
H103	H	-0.070121	-0.855933	-0.000071
F104	F	0.097306	-0.834404	-0.414842
F105	F	0.003481	-0.887683	-0.585511
F106	F	-0.013457	-0.586010	0.079149
F107	F	0.123617	-1.098846	-0.414938
H108	H	0.075563	-0.413281	-0.147396
F109	F	0.126195	-1.093192	-0.583598
F110	F	-0.701247	-1.141367	-0.000048
H111	H	0.072721	-0.415917	0.147272
H112	H	0.050615	-1.129161	-0.577389
H113	H	-0.387743	-0.773883	0.000008
F114	F	0.154793	-0.932559	-0.584429
F115	F	-0.190210	-1.150364	-0.000075
F116	F	-0.166459	-0.835115	-0.000066
F117	F	0.069392	-0.567991	0.166187
H118	H	0.099105	-0.853668	-0.576054
H119	H	-0.797583	-1.120545	-0.000032
H120	H	-0.296285	-0.775499	0.000003
