data_functionalizedCrystal
_audit_creation_method	'MofGen! by Chris Wilmer'
_symmetry_space_group_name_H-M	'P1'
_symmetry_Int_Tables_number	1
_symmetry_cell_setting	triclinic
loop_
_symmetry_equiv_pos_as_xyz
  x,y,z
_cell_length_a	14.971486
_cell_length_b	17.699083
_cell_length_c	14.048226
_cell_angle_alpha	89.992674
_cell_angle_beta	89.998499
_cell_angle_gamma	83.448572
loop_
_atom_site_label
_atom_site_type_symbol
_atom_site_fract_x
_atom_site_fract_y
_atom_site_fract_z
O1	O	1.186608	0.098633	-0.079053
O2	O	1.686608	0.598633	0.420947
O3	O	0.926167	0.110445	-0.079079
O4	O	1.426167	0.610445	0.420921
O5	O	1.063746	-0.005632	-0.079057
O6	O	1.563746	0.494368	0.420943
O7	O	1.049030	0.214710	-0.079075
O8	O	1.549030	0.714710	0.420925
O9	O	1.063729	-0.005639	0.079264
O10	O	1.563729	0.494361	0.579264
O11	O	0.926151	0.110438	0.079242
O12	O	1.426151	0.610438	0.579242
O13	O	1.186591	0.098626	0.079268
O14	O	1.686591	0.598626	0.579268
Zn15	Zn	1.056368	0.104531	0.104392
Zn16	Zn	1.556368	0.604531	0.604392
Zn17	Zn	1.056390	0.104540	-0.104203
Zn18	Zn	1.556390	0.604540	0.395797
O19	O	1.049013	0.214703	0.079246
O20	O	1.549013	0.714703	0.579246
C21	C	0.892836	0.109913	0.000078
C22	C	1.392836	0.609913	0.500078
C23	C	0.793544	0.108330	0.000068
C24	C	1.293544	0.608330	0.500068
C25	C	1.063210	-0.033834	0.000104
C26	C	1.563210	0.466166	0.500104
C27	C	1.061628	-0.117856	0.000104
C28	C	1.561628	0.382144	0.500104
C29	C	0.736085	0.176522	0.000064
C30	C	1.236085	0.676522	0.500064
C31	C	0.642790	0.175030	0.000078
C32	C	1.142790	0.675030	0.500078
C33	C	0.606958	0.105346	0.000090
C34	C	1.106958	0.605346	0.500090
C35	C	0.664425	0.037148	0.000097
C36	C	1.164425	0.537148	0.500097
C37	C	0.757717	0.038641	0.000090
C38	C	1.257717	0.538641	0.500090
C39	C	0.469973	0.034042	0.000111
C40	C	0.969973	0.534042	0.500111
C41	C	0.376674	0.032549	0.000117
C42	C	0.876674	0.532549	0.500117
C43	C	0.355046	0.170431	0.000099
C44	C	0.855046	0.670431	0.500099
C45	C	0.448339	0.171924	0.000092
C46	C	0.948339	0.671924	0.500092
C47	C	0.505799	0.103726	0.000097
C48	C	1.005799	0.603726	0.500097
C49	C	1.142384	-0.166278	0.000113
C50	C	1.642384	0.333722	0.500113
C51	C	1.140892	-0.245225	0.000105
C52	C	1.640892	0.254775	0.500105
C53	C	1.058644	-0.275748	0.000094
C54	C	1.558644	0.224252	0.500094
C55	C	0.977882	-0.227320	0.000081
C56	C	1.477882	0.272680	0.500081
C57	C	0.979375	-0.148374	0.000083
C58	C	1.479375	0.351626	0.500083
C59	C	0.971860	-0.545698	0.000073
C60	C	1.471860	-0.045698	0.500073
C61	C	0.970374	-0.624649	0.000074
C62	C	1.470374	-0.124649	0.500074
C63	C	1.133378	-0.642548	0.000095
C64	C	1.633378	-0.142548	0.500095
C65	C	1.134871	-0.563603	0.000096
C66	C	1.634871	-0.063603	0.500096
C67	C	1.054109	-0.515181	0.000079
C68	C	1.554109	-0.015181	0.500079
C69	C	1.055728	-0.429578	0.000087
C70	C	1.555728	0.070422	0.500087
C71	C	1.057024	-0.361350	0.000093
C72	C	1.557024	0.138650	0.500093
C73	C	1.219923	0.099158	0.000109
C74	C	1.719923	0.599158	0.500109
C75	C	1.319214	0.100741	0.000112
C76	C	1.819214	0.600741	0.500112
C77	C	1.049549	0.242905	0.000083
C78	C	1.549549	0.742905	0.500083
C79	C	1.051131	0.326927	0.000077
C80	C	1.551131	0.826927	0.500077
N81	N	1.056360	0.104524	0.246753
N82	N	1.556360	0.604524	0.746753
N83	N	1.056406	0.104541	-0.246564
N84	N	1.556406	0.604541	0.253436
C85	C	1.117299	0.053147	0.296581
C86	C	1.617299	0.553147	0.796581
C87	C	1.117305	0.053146	0.396238
C88	C	1.617305	0.553146	0.896238
C89	C	1.056376	0.104528	0.446066
C90	C	1.556376	0.604528	0.946066
C91	C	0.995431	0.155908	0.396231
C92	C	1.495431	0.655908	0.896231
C93	C	0.995421	0.155904	0.296576
C94	C	1.495421	0.655904	0.796576
C95	C	0.995456	0.155913	0.603946
C96	C	1.495456	0.655913	1.103946
C97	C	0.995467	0.155918	0.703608
C98	C	1.495467	0.655918	1.203608
C99	C	1.117340	0.053156	0.703608
C100	C	1.617340	0.553156	1.203608
C101	C	1.117331	0.053152	0.603953
C102	C	1.617331	0.553152	1.103953
C103	C	1.056386	0.104533	0.554125
C104	C	1.556386	0.604533	1.054125
H105	H	0.765252	0.233267	0.000054
H106	H	1.265252	0.733267	0.500054
C107	C	1.184346	-0.003362	0.451045
C108	C	1.684346	0.496638	0.951045
H109	H	1.220641	-0.033955	0.407096
H110	H	1.720641	0.466045	0.907096
H111	H	1.152256	-0.034918	0.489935
H112	H	1.652256	0.465082	0.989935
H113	H	1.221518	0.023930	0.489906
H114	H	1.721518	0.523930	0.989906
C115	C	0.579588	0.250041	0.000071
C116	C	1.079588	0.750041	0.500071
H117	H	0.614291	0.291756	0.000051
H118	H	1.114291	0.791756	0.500051
H119	H	0.542749	0.252327	0.055284
H120	H	1.042749	0.752327	0.555284
H121	H	0.542742	0.252325	-0.055143
H122	H	1.042742	0.752325	0.444857
C123	C	1.225341	-0.530027	0.000113
C124	C	1.725341	-0.030027	0.500113
H125	H	1.214663	-0.476075	0.000121
H126	H	1.714663	0.023925	0.500121
H127	H	1.258594	-0.546637	-0.055093
H128	H	1.758594	-0.046637	0.444907
H129	H	1.258575	-0.546649	0.055335
H130	H	1.758575	-0.046649	0.555335
C131	C	0.928381	0.212405	0.451035
C132	C	1.428381	0.712405	0.951035
H133	H	0.892074	0.242992	0.407083
H134	H	1.392074	0.742992	0.907083
H135	H	0.960461	0.243968	0.489914
H136	H	1.460461	0.743968	0.989914
H137	H	0.891223	0.185100	0.489907
H138	H	1.391223	0.685100	0.989907
H139	H	0.906099	-0.506282	0.000059
H140	H	1.406099	-0.006282	0.500059
C141	C	0.337254	-0.044100	0.000143
C142	C	0.837254	0.455900	0.500143
H143	H	0.273463	-0.035219	0.000137
H144	H	0.773463	0.464781	0.500137
H145	H	0.356987	-0.072178	0.055360
H146	H	0.856987	0.427822	0.555360
H147	H	0.356983	-0.072187	-0.055067
H148	H	0.856983	0.427813	0.444933
C149	C	0.887411	-0.260893	0.000072
C150	C	1.387411	0.239107	0.500072
H151	H	0.898086	-0.314846	0.000083
H152	H	1.398086	0.185154	0.500083
H153	H	0.854170	-0.244273	-0.055141
H154	H	1.354170	0.255727	0.444859
H155	H	0.854165	-0.244281	0.055287
H156	H	1.354165	0.255719	0.555287
C157	C	1.184371	-0.003368	0.758415
C158	C	1.684371	0.496632	1.258415
H159	H	1.175644	0.003984	0.824902
H160	H	1.675644	0.503984	1.324902
H161	H	1.244044	0.004934	0.742076
H162	H	1.744044	0.504934	1.242076
H163	H	1.174763	-0.053898	0.742090
H164	H	1.674763	0.446102	1.242090
C165	C	0.928392	0.212419	0.241760
C166	C	1.428392	0.712419	0.741760
H167	H	0.937106	0.205054	0.175273
H168	H	1.437106	0.705054	0.675273
H169	H	0.937991	0.262948	0.258077
H170	H	1.437991	0.762948	0.758077
H171	H	0.868718	0.204110	0.258104
H172	H	1.368718	0.704110	0.758104
C173	C	0.291844	0.245447	0.000096
C174	C	0.791844	0.745447	0.500096
H175	H	0.231150	0.234580	0.000113
H176	H	0.731150	0.734580	0.500113
H177	H	0.302686	0.274017	-0.055121
H178	H	0.802686	0.774017	0.444879
H179	H	0.302694	0.274018	0.055306
H180	H	0.802694	0.774018	0.555306
H181	H	1.206652	-0.284648	0.000115
H182	H	1.706652	0.215352	0.500115
H183	H	1.199138	-0.681983	0.000104
H184	H	1.699138	-0.181983	0.500104
C185	C	0.928390	0.212388	0.758418
C186	C	1.428390	0.712388	1.258418
H187	H	0.892068	0.242968	0.714471
H188	H	1.392068	0.742968	1.214471
H189	H	0.960441	0.243962	0.797312
H190	H	1.460441	0.743962	1.297312
H191	H	0.891249	0.185055	0.797275
H192	H	1.391249	0.685055	1.297275
H193	H	0.804501	-0.016888	0.000093
H194	H	1.304501	0.483112	0.500093
H195	H	0.945826	0.197751	0.563379
H196	H	1.445826	0.697751	1.063379
C197	C	0.879897	-0.658223	0.000049
C198	C	1.379897	-0.158223	0.500049
H199	H	0.832011	-0.618079	0.000028
H200	H	1.332011	-0.118079	0.500028
H201	H	0.875914	-0.688654	0.055257
H202	H	1.375914	-0.188654	0.555257
H203	H	0.875945	-0.688642	-0.055170
H204	H	1.375945	-0.188642	0.444830
H205	H	0.477510	0.228667	0.000073
H206	H	0.977510	0.728667	0.500073
H207	H	1.209360	-0.141433	0.000128
H208	H	1.709360	0.358567	0.500128
C209	C	0.625015	-0.039505	0.000109
C210	C	1.125015	0.460495	0.500109
H211	H	0.672601	-0.079904	0.000119
H212	H	1.172601	0.420096	0.500119
H213	H	0.589070	-0.042952	-0.055098
H214	H	1.089070	0.457048	0.444902
H215	H	0.589074	-0.042955	0.055329
H216	H	1.089074	0.457045	0.555329
H217	H	0.516756	-0.021492	0.000117
H218	H	1.016756	0.478508	0.500117
C219	C	0.890544	-0.095110	0.000075
C220	C	1.390544	0.404890	0.500075
H221	H	0.841345	-0.124594	0.000076
H222	H	1.341345	0.375406	0.500076
H223	H	0.887744	-0.063936	-0.055135
H224	H	1.387744	0.436064	0.444865
H225	H	0.887731	-0.063947	0.055292
H226	H	1.387731	0.436053	0.555292
C227	C	1.184321	-0.003375	0.241778
C228	C	1.684321	0.496625	0.741778
H229	H	1.220608	-0.033978	0.285731
H230	H	1.720608	0.466022	0.785731
H231	H	1.221489	0.023900	0.202889
H232	H	1.721489	0.523900	0.702889
H233	H	1.152206	-0.034930	0.202917
H234	H	1.652206	0.465070	0.702917
H235	H	1.166948	0.011317	0.563383
H236	H	1.666948	0.511317	1.063383
