data_functionalizedCrystal
_audit_creation_method	'MofGen! by Chris Wilmer'
_symmetry_space_group_name_H-M	'P1'
_symmetry_Int_Tables_number	1
_symmetry_cell_setting	triclinic
loop_
_symmetry_equiv_pos_as_xyz
  x,y,z
_cell_length_a	15.995350
_cell_length_b	17.699083
_cell_length_c	16.776229
_cell_angle_alpha	90.001114
_cell_angle_beta	89.995580
_cell_angle_gamma	96.612305
loop_
_atom_site_label
_atom_site_type_symbol
_atom_site_fract_x
_atom_site_fract_y
_atom_site_fract_z
O1	O	0.105885	-1.004255	-0.066173
O2	O	0.119661	-0.783899	-0.066198
O3	O	-0.009127	-0.900100	-0.066184
O4	O	0.234673	-0.888053	-0.066187
O5	O	-0.009135	-0.900085	0.066393
O6	O	0.119653	-0.783884	0.066378
O7	O	0.105877	-1.004239	0.066404
Zn8	Zn	0.112764	-0.894059	0.087441
Zn9	Zn	0.112774	-0.894079	-0.087235
O10	O	0.234665	-0.888038	0.066390
C11	C	-0.040324	-0.899595	0.000103
C12	C	-0.133272	-0.898101	0.000098
C13	C	0.119163	-0.755694	0.000087
C14	C	0.117683	-0.671673	0.000077
C15	C	0.106375	-1.032445	0.000117
C16	C	0.107856	-1.116465	0.000122
C17	C	-0.471008	-0.892739	0.000100
C18	C	-0.423406	-0.809983	-0.000207
C19	C	-0.326719	-0.811476	0.000092
C20	C	-0.303453	-0.895399	0.000099
C21	C	-0.344618	-0.936209	0.075810
C22	C	-0.441250	-0.934130	0.075873
C23	C	-0.441602	-0.935857	-0.074891
C24	C	-0.344657	-0.935837	-0.075892
C25	C	-0.208759	-0.896907	0.000101
C26	C	-0.565703	-0.891234	0.000104
C27	C	0.265863	-0.888544	0.000101
C28	C	0.358810	-0.890037	0.000101
N29	N	0.112756	-0.894051	0.206652
C30	C	0.193278	-0.623178	0.000076
C31	C	0.191882	-0.544232	0.000087
C32	C	0.114889	-0.513783	0.000092
C33	C	0.039287	-0.562285	0.000095
C34	C	0.040685	-0.641229	0.000090
C35	C	0.033651	-0.243912	0.000115
C36	C	0.032259	-0.164962	0.000117
C37	C	0.184848	-0.146916	0.000111
C38	C	0.186245	-0.225860	0.000106
C39	C	0.110644	-0.274354	0.000114
C40	C	0.112159	-0.359956	0.000104
C41	C	0.113373	-0.428183	0.000096
N42	N	0.112775	-0.894094	-0.206446
C43	C	0.055752	-0.945520	0.248375
C44	C	0.055752	-0.945524	0.331827
C45	C	0.112760	-0.894062	0.373555
C46	C	0.169766	-0.842587	0.331825
C47	C	0.169762	-0.842580	0.248375
C48	C	0.169783	-0.842614	0.668373
C49	C	0.169784	-0.842627	0.751829
C50	C	0.055772	-0.945559	0.751825
C51	C	0.055768	-0.945552	0.668375
C52	C	0.112771	-0.894074	0.626653
C53	C	0.112770	-0.894069	0.536164
C54	C	0.112765	-0.894070	0.464041
H55	H	-0.298228	-0.779397	-0.054181
H56	H	0.255975	-0.647962	0.000071
H57	H	0.216180	-0.800681	0.365805
C58	C	-0.448352	-0.765298	-0.073545
H59	H	-0.488026	-0.796708	-0.104634
H60	H	-0.399744	-0.750081	-0.104724
H61	H	-0.472700	-0.721541	-0.056518
H62	H	-0.027909	-0.283388	0.000121
C63	C	0.232470	-0.785966	0.202479
H64	H	0.266428	-0.755323	0.239281
H65	H	0.202392	-0.754461	0.169932
H66	H	0.267289	-0.813192	0.169918
C67	C	0.232490	-0.785998	0.622489
H68	H	0.266448	-0.755358	0.659294
H69	H	0.202417	-0.754489	0.589942
H70	H	0.267310	-0.813223	0.589928
C71	C	-0.449777	-0.765488	0.072724
H72	H	-0.489669	-0.797127	0.103360
H73	H	-0.474232	-0.721922	0.055314
H74	H	-0.401694	-0.749978	0.104501
C75	C	0.232480	-0.786002	0.797728
H76	H	0.266421	-0.755335	0.760929
H77	H	0.267306	-0.813216	0.830279
H78	H	0.202383	-0.754509	0.830285
C79	C	-0.465900	-0.893902	0.152313
H80	H	-0.416879	-0.878979	0.183034
H81	H	-0.503941	-0.927711	0.182587
H82	H	-0.492072	-0.850184	0.138474
H83	H	0.253440	-0.504750	0.000085
H84	H	0.009354	-0.987473	0.785804
H85	H	-0.298792	-0.779168	0.054450
C86	C	0.270937	-0.259349	0.000104
H87	H	0.315760	-0.219160	0.000113
H88	H	0.274659	-0.289771	-0.046128
H89	H	0.274646	-0.289770	0.046342
C90	C	-0.042470	-0.694574	0.000083
H91	H	-0.088525	-0.665134	0.000078
H92	H	-0.045103	-0.725749	0.046312
H93	H	-0.045091	-0.725740	-0.046158
H94	H	-0.462084	-0.908806	-0.132275
C95	C	0.268011	-0.093573	0.000108
H96	H	0.314064	-0.123015	0.000094
H97	H	0.270644	-0.062402	0.046341
H98	H	0.270636	-0.062402	-0.046129
C99	C	-0.484986	-1.016203	0.080535
H100	H	-0.443672	-1.050667	0.082389
H101	H	-0.519522	-1.026650	0.034886
H102	H	-0.518733	-1.021929	0.127224
H103	H	-0.030442	-0.140174	0.000122
C104	C	-0.325703	-1.019497	0.079629
H105	H	-0.292449	-1.030146	0.034979
H106	H	-0.377056	-1.052315	0.078931
H107	H	-0.295915	-1.027409	0.127332
C108	C	-0.045403	-0.528793	0.000099
H109	H	-0.035410	-0.474831	0.000093
H110	H	-0.076528	-0.545440	0.046331
H111	H	-0.076517	-0.545439	-0.046140
H112	H	0.009334	-0.987430	0.214406
C113	C	-0.307684	-0.895599	-0.151562
H114	H	-0.332858	-0.920324	-0.197328
H115	H	-0.248616	-0.897636	-0.152952
H116	H	-0.318779	-0.844013	-0.151094
C117	C	-0.306219	-0.897896	0.151918
H118	H	-0.265111	-0.857037	0.137716
H119	H	-0.280556	-0.934038	0.182554
H120	H	-0.349307	-0.878960	0.182430
C121	C	-0.324080	-1.018516	-0.082062
H122	H	-0.289943	-1.029505	-0.038176
H123	H	-0.294745	-1.024932	-0.130381
H124	H	-0.374865	-1.052122	-0.081416
C125	C	-0.484681	-1.018280	-0.075581
H126	H	-0.520419	-1.026407	-0.030416
H127	H	-0.443089	-1.052473	-0.073917
H128	H	-0.517132	-1.026801	-0.122830
C129	C	-0.006952	-1.002139	0.377724
H130	H	0.001206	-0.994767	0.433400
H131	H	0.002071	-1.052647	0.364043
H132	H	-0.062825	-0.993916	0.364051
C133	C	-0.006943	-1.002158	0.622479
H134	H	-0.040899	-1.032808	0.659281
H135	H	0.023129	-1.033658	0.589914
H136	H	-0.041763	-0.974923	0.589936
