data_functionalizedCrystal
_audit_creation_method	'MofGen! by Chris Wilmer'
_symmetry_space_group_name_H-M	'P1'
_symmetry_Int_Tables_number	1
_symmetry_cell_setting	triclinic
loop_
_symmetry_equiv_pos_as_xyz
  x,y,z
_cell_length_a	17.038272
_cell_length_b	9.065218
_cell_length_c	8.140239
_cell_angle_alpha	89.997198
_cell_angle_beta	90.003853
_cell_angle_gamma	91.936279
loop_
_atom_site_label
_atom_site_type_symbol
_atom_site_fract_x
_atom_site_fract_y
_atom_site_fract_z
O1	O	0.114742	-1.971908	0.136620
O2	O	0.124153	-1.543567	0.136623
O3	O	0.005614	-1.755192	0.136608
O4	O	0.233281	-1.760283	0.136634
O5	O	0.005612	-1.755179	-0.136619
O6	O	0.124152	-1.543555	-0.136605
O7	O	0.114740	-1.971895	-0.136607
Zn8	Zn	0.119446	-1.757723	-0.179986
Zn9	Zn	0.119448	-1.757740	0.180002
O10	O	0.233280	-1.760271	-0.136593
C11	C	-0.023549	-1.750555	-0.000005
C12	C	-0.110441	-1.736739	-0.000005
C13	C	0.123248	-1.488484	0.000009
C14	C	0.120544	-1.324369	0.000010
C15	C	0.115646	-2.026979	0.000010
C16	C	0.118350	-2.191093	0.000020
C17	C	-0.159639	-1.863587	-0.000007
C18	C	-0.241284	-1.850596	0.000009
C19	C	-0.273728	-1.710756	0.000015
C20	C	-0.224524	-1.583899	0.000022
C21	C	-0.142881	-1.596891	0.000019
C22	C	-0.519818	-1.664859	0.000038
C23	C	-0.601467	-1.651876	0.000037
C24	C	-0.618221	-1.918575	0.000026
C25	C	-0.536576	-1.931554	0.000012
C26	C	-0.487379	-1.804697	0.000028
C27	C	-0.357182	-1.697475	0.000026
C28	C	-0.403927	-1.817980	0.000029
C29	C	0.262442	-1.764908	0.000024
C30	C	0.349335	-1.778724	0.000034
N31	N	0.119444	-1.757722	-0.425669
N32	N	0.119443	-1.757751	0.425685
H33	H	-0.133230	-1.977459	-0.000022
H34	H	-0.102824	-1.493597	0.000021
C35	C	-0.295399	-1.990129	-0.000011
H36	H	-0.264383	-2.075272	-0.000039
H37	H	-0.327594	-1.990625	0.095269
H38	H	-0.327598	-1.990588	-0.095304
C39	C	-0.500893	-2.085378	0.000027
H40	H	-0.541888	-2.159066	0.000045
H41	H	-0.469394	-2.095991	-0.095250
H42	H	-0.469391	-2.095983	0.095322
C43	C	-0.392870	-1.543656	0.000033
H44	H	-0.351879	-1.469961	0.000042
H45	H	-0.424380	-1.533041	-0.095238
H46	H	-0.424362	-1.533062	0.095334
C47	C	-0.672339	-2.058104	0.000032
H48	H	-0.725610	-2.030345	0.000051
H49	H	-0.662407	-2.115026	-0.095244
H50	H	-0.662395	-2.115017	0.095328
C51	C	-0.637154	-1.498046	0.000072
H52	H	-0.596161	-1.424354	0.000101
H53	H	-0.668660	-1.487415	-0.095203
H54	H	-0.668650	-1.487465	0.095370
C55	C	-0.260207	-1.430075	0.000042
H56	H	-0.219210	-1.356390	0.000061
H57	H	-0.291712	-1.419449	-0.095233
H58	H	-0.291701	-1.419478	0.095339
H59	H	-0.479770	-1.561561	0.000050
H60	H	-0.377507	-1.931837	0.000060
