data_functionalizedCrystal
_audit_creation_method	'MofGen! by Chris Wilmer'
_symmetry_space_group_name_H-M	'P1'
_symmetry_Int_Tables_number	1
_symmetry_cell_setting	triclinic
loop_
_symmetry_equiv_pos_as_xyz
  x,y,z
_cell_length_a	18.050591
_cell_length_b	19.077068
_cell_length_c	19.077174
_cell_angle_alpha	85.342852
_cell_angle_beta	87.678658
_cell_angle_gamma	87.676702
loop_
_atom_site_label
_atom_site_type_symbol
_atom_site_fract_x
_atom_site_fract_y
_atom_site_fract_z
Zn1	Zn	1.140100	0.296758	-0.409971
Zn2	Zn	1.640100	0.796758	0.090029
Zn3	Zn	1.130417	0.409912	-0.296814
Zn4	Zn	1.630417	0.909912	0.203186
Zn5	Zn	1.011121	0.292035	-0.292087
Zn6	Zn	1.511121	0.792035	0.207913
Zn7	Zn	1.011071	0.414599	-0.414646
Zn8	Zn	1.511071	0.914599	0.085354
O9	O	1.073177	0.353326	-0.353379
O10	O	1.573177	0.853326	0.146621
O11	O	1.242740	0.311783	-0.394982
O12	O	1.742740	0.811783	0.105018
O13	O	1.110560	0.390337	-0.197538
O14	O	1.610560	0.890337	0.302462
O15	O	1.032303	0.194012	-0.303789
O16	O	1.532303	0.694012	0.196211
O17	O	1.235626	0.394917	-0.311846
O18	O	1.735626	0.894917	0.188154
O19	O	1.127064	0.197483	-0.390399
O20	O	1.627064	0.697483	0.109601
O21	O	1.022914	0.303733	-0.194065
O22	O	1.522914	0.803733	0.305935
O23	O	0.907189	0.308278	-0.308323
O24	O	1.407189	0.808278	0.191677
O25	O	1.032219	0.402905	-0.512674
O26	O	1.532219	0.902905	-0.012674
O27	O	0.907153	0.398325	-0.398366
O28	O	1.407153	0.898325	0.101634
O29	O	1.127016	0.316328	-0.509240
O30	O	1.627016	0.816328	-0.009240
O31	O	1.110512	0.509183	-0.316379
O32	O	1.610512	1.009183	0.183621
O33	O	1.022829	0.512626	-0.402950
O34	O	1.522829	1.012626	0.097050
C35	C	0.880224	0.353298	-0.353339
C36	C	1.380224	0.853298	0.146661
C37	C	0.797678	0.353304	-0.353340
C38	C	1.297678	0.853304	0.146660
C39	C	1.065635	0.536484	-0.360700
C40	C	1.565635	1.036484	0.139300
C41	C	1.062478	0.614840	-0.363856
C42	C	1.562478	1.114840	0.136144
C43	C	1.080692	0.360666	-0.537251
C44	C	1.580692	0.860666	-0.037251
C45	C	1.083894	0.363795	-0.615606
C46	C	1.583894	0.863795	-0.115606
C47	C	0.598233	0.304286	-0.304480
C48	C	1.098233	0.804286	0.195520
C49	C	0.545491	0.367888	-0.289711
C50	C	1.045491	0.867888	0.210289
C51	C	0.646548	0.353327	-0.353372
C52	C	1.146548	0.853327	0.146628
C53	C	0.552207	0.289746	-0.368141
C54	C	1.052207	0.789746	0.131859
C55	C	0.500564	0.353343	-0.353402
C56	C	1.000564	0.853343	0.146598
C57	C	0.594891	0.416961	-0.338571
C58	C	1.094891	0.916961	0.161429
C59	C	0.601615	0.338777	-0.417029
C60	C	1.101615	0.838777	0.082971
C61	C	0.548895	0.402425	-0.402286
C62	C	1.048895	0.902425	0.097714
C63	C	0.730646	0.353316	-0.353353
C64	C	1.230646	0.853316	0.146647
C65	C	0.416467	0.353360	-0.353422
C66	C	0.916467	0.853360	0.146578
C67	C	1.266883	0.353354	-0.353420
C68	C	1.766883	0.853354	0.146580
C69	C	1.349429	0.353367	-0.353437
C70	C	1.849429	0.853367	0.146563
C71	C	1.080769	0.169454	-0.346045
C72	C	1.580769	0.669454	0.153955
C73	C	1.084004	0.091098	-0.342920
C74	C	1.584004	0.591098	0.157080
C75	C	1.106684	0.649838	-0.320303
C76	C	1.606684	1.149838	0.179697
C77	C	1.103719	0.723462	-0.323275
C78	C	1.603719	1.223462	0.176725
C79	C	1.056543	0.762088	-0.369797
C80	C	1.556543	1.262088	0.130203
C81	C	1.012335	0.727086	-0.413354
C82	C	1.512335	1.227086	0.086646
C83	C	1.015304	0.653463	-0.410386
C84	C	1.515304	1.153463	0.089614
C85	C	1.042766	0.982473	-0.383509
C86	C	1.542766	1.482473	0.116491
C87	C	1.039798	1.056101	-0.386473
C88	C	1.539798	1.556101	0.113527
C89	C	1.131184	1.052472	-0.296394
C90	C	1.631184	1.552472	0.203606
C91	C	1.134146	0.978848	-0.293426
C92	C	1.634146	1.478848	0.206574
C93	C	1.089940	0.943852	-0.336986
C94	C	1.589940	1.443852	0.163014
N95	N	1.053509	0.837344	-0.372834
N96	N	1.553509	1.337344	0.127166
N97	N	1.092979	0.868597	-0.333952
N98	N	1.592979	1.368597	0.166048
C99	C	1.039768	0.320175	-0.650608
C100	C	1.539768	0.820175	-0.150608
C101	C	1.042774	0.323120	-0.724231
C102	C	1.542774	0.823120	-0.224231
C103	C	1.089911	0.369682	-0.762850
C104	C	1.589911	0.869682	-0.262850
C105	C	1.134039	0.413306	-0.727843
C106	C	1.634039	0.913306	-0.227843
C107	C	1.131028	0.410364	-0.654221
C108	C	1.631028	0.910364	-0.154221
C109	C	1.103803	0.383319	-0.983230
C110	C	1.603803	0.883319	-0.483230
C111	C	1.106812	0.386256	-1.056856
C112	C	1.606812	0.886256	-0.556856
C113	C	1.015546	0.296071	-1.053240
C114	C	1.515546	0.796071	-0.553240
C115	C	1.012543	0.293130	-0.979617
C116	C	1.512543	0.793130	-0.479617
C117	C	1.056668	0.336757	-0.944616
C118	C	1.556668	0.836757	-0.444616
N119	N	1.092986	0.372692	-0.838105
N120	N	1.592986	0.872692	-0.338105
N121	N	1.053588	0.333750	-0.869363
N122	N	1.553588	0.833750	-0.369363
C123	C	1.065736	0.345963	-0.170221
C124	C	1.565736	0.845963	0.329779
C125	C	1.062686	0.342636	-0.091859
C126	C	1.562686	0.842636	0.408141
H127	H	0.619891	0.262855	-0.263092
H128	H	1.119891	0.762855	0.236908
H129	H	0.520949	0.380206	-0.235890
H130	H	1.020949	0.880206	0.264110
H131	H	1.139725	0.418851	-0.954741
H132	H	1.639725	0.918851	-0.454741
F133	F	1.178230	1.089723	-0.250040
F134	F	1.678230	1.589723	0.249960
H135	H	0.979621	0.260553	-1.081746
H136	H	1.479621	0.760553	-0.581746
F137	F	0.989576	1.097208	-0.435983
F138	F	1.489576	1.597208	0.064017
H139	H	0.979308	0.624968	-0.445852
H140	H	1.479308	1.124968	0.054148
F141	F	0.962130	0.768196	-0.462871
F142	F	1.462130	1.268196	0.037129
H143	H	1.006770	0.953985	-0.418976
H144	H	1.506770	1.453985	0.081024
F145	F	0.995780	0.276720	-0.761481
F146	F	1.495780	0.776720	-0.261481
H147	H	1.139716	0.751954	-0.287809
H148	H	1.639716	1.251954	0.212191
H149	H	1.145199	0.424173	-1.088298
H150	H	1.645199	0.924173	-0.588298
H151	H	0.533307	0.235977	-0.380596
H152	H	1.033307	0.735977	0.119404
F153	F	1.184200	0.462865	-0.768946
F154	F	1.684200	0.962865	-0.268946
F155	F	0.520755	0.456699	-0.456349
F156	F	1.020755	0.956699	0.043651
H157	H	1.166966	0.445879	-0.625723
H158	H	1.666966	0.945879	-0.125723
F159	F	0.989602	0.270614	-0.609513
F160	F	1.489602	0.770614	-0.109513
H161	H	0.613658	0.470751	-0.326032
H162	H	1.113658	0.970751	0.173968
F163	F	0.962375	0.243571	-0.938521
F164	F	1.462375	0.743571	-0.438521
H165	H	0.626175	0.326439	-0.470832
H166	H	1.126175	0.826439	0.029168
F167	F	1.156892	0.608735	-0.270783
F168	F	1.656892	1.108735	0.229217
H169	H	1.172560	0.947400	-0.255544
H170	H	1.672560	1.447400	0.244456
