data_functionalizedCrystal
_audit_creation_method	'MofGen! by Chris Wilmer'
_symmetry_space_group_name_H-M	'P1'
_symmetry_Int_Tables_number	1
_symmetry_cell_setting	triclinic
loop_
_symmetry_equiv_pos_as_xyz
  x,y,z
_cell_length_a	10.968023
_cell_length_b	9.483290
_cell_length_c	11.026607
_cell_angle_alpha	81.850887
_cell_angle_beta	83.620757
_cell_angle_gamma	112.312746
loop_
_atom_site_label
_atom_site_type_symbol
_atom_site_fract_x
_atom_site_fract_y
_atom_site_fract_z
O1	O	-1.749662	-0.317317	0.215315
O2	O	-1.373497	-0.223105	0.218332
O3	O	-1.530404	-0.262409	0.038821
O4	O	-1.592755	-0.278014	0.394827
O5	O	-1.574818	-0.515307	0.074565
O6	O	-1.417911	-0.476004	0.254077
O7	O	-1.794075	-0.570216	0.251060
Cu8	Cu	-1.610049	-0.546201	0.255832
Cu9	Cu	-1.557524	-0.247120	0.213560
O10	O	-1.637168	-0.530912	0.430571
C11	C	-1.346799	-0.337306	0.233287
C12	C	-1.201072	-0.300808	0.224579
N13	N	-1.647001	-0.756562	0.285563
C14	C	-1.008482	-0.377812	0.230199
C15	C	-1.159102	-0.415550	0.239210
C16	C	-1.599174	-0.984215	0.247060
C17	C	-1.568395	-0.809101	0.222313
C18	C	-0.820776	-0.456021	0.236109
C19	C	-0.966506	-0.492537	0.244828
C20	C	-1.541108	-0.385975	0.010983
C21	C	-1.506817	-0.377381	-0.125217
N22	N	-1.520580	-0.036761	0.183819
C23	C	-1.601498	-0.401093	-0.194921
C24	C	-1.566058	-0.392211	-0.335691
C25	C	-1.626464	-0.407343	0.458408
C26	C	-1.660754	-0.415926	0.594607
H27	H	-0.932910	-0.251652	0.210996
H28	H	-1.234669	-0.541718	0.258401
H29	H	-1.430502	-0.952105	0.111362
H30	H	-1.125505	-0.174639	0.205384
H31	H	-1.737073	-0.841209	0.358040
H32	H	-1.042077	-0.618697	0.264017
Br33	Br	-1.749295	-1.125295	0.367857
Br34	Br	-1.418246	-0.668020	0.101538
H35	H	-1.708796	-0.427975	-0.150379
H36	H	-1.458753	-0.365327	-0.380228
Br37	Br	-1.839602	-0.460707	-0.331181
H38	H	-1.399518	-0.350498	-0.169759
