data_functionalizedCrystal
_audit_creation_method	'MofGen! by Chris Wilmer'
_symmetry_space_group_name_H-M	'P1'
_symmetry_Int_Tables_number	1
_symmetry_cell_setting	triclinic
loop_
_symmetry_equiv_pos_as_xyz
  x,y,z
_cell_length_a	10.540535
_cell_length_b	10.540539
_cell_length_c	9.730223
_cell_angle_alpha	90.000775
_cell_angle_beta	90.002158
_cell_angle_gamma	84.524567
loop_
_atom_site_label
_atom_site_type_symbol
_atom_site_fract_x
_atom_site_fract_y
_atom_site_fract_z
O1	O	1.685883	0.178868	-0.114208
O2	O	1.316470	0.195729	-0.114226
O3	O	1.509604	0.002592	-0.114215
O4	O	1.492748	0.372005	-0.114219
O5	O	1.509602	0.002597	0.114365
O6	O	1.316467	0.195734	0.114354
O7	O	1.685881	0.178872	0.114372
Zn8	Zn	1.501174	0.187304	0.150655
Zn9	Zn	1.501177	0.187298	-0.150509
O10	O	1.492746	0.372010	0.114361
C11	C	1.269165	0.194469	0.000061
C12	C	1.128217	0.190689	0.000054
C13	C	1.091546	0.049675	0.000061
C14	C	0.944946	0.045698	0.000594
C15	C	0.918880	0.255062	0.130346
C16	C	1.065645	0.258063	0.130442
C17	C	1.065532	0.260109	-0.129505
C18	C	0.919185	0.253587	-0.131204
C19	C	1.508339	-0.044709	0.000073
C20	C	1.504557	-0.185657	0.000065
C21	C	1.359640	-0.369081	-0.000455
C22	C	1.363474	-0.222463	0.000059
C23	C	1.572452	-0.247313	0.130599
C24	C	1.567637	-0.393857	0.130709
C25	C	1.570509	-0.394381	-0.129229
C26	C	1.571808	-0.247399	-0.130955
C27	C	1.733185	0.180133	0.000082
C28	C	1.874134	0.183913	0.000080
C29	C	1.494011	0.419311	0.000070
C30	C	1.497793	0.560259	0.000069
N31	N	1.501181	0.187308	0.356191
N32	N	1.501179	0.187284	-0.356045
C33	C	1.586723	0.101816	0.428122
C34	C	1.586720	0.101800	0.572005
C35	C	1.415628	0.272780	0.572014
C36	C	1.415626	0.272789	0.428133
C37	C	1.685506	0.003105	0.428119
C38	C	1.685503	0.003090	0.572002
H39	H	0.887977	0.206252	0.227665
Br40	Br	1.136298	0.186765	-0.294133
H41	H	1.310051	-0.179861	-0.093513
H42	H	0.871523	0.356828	0.134822
Br43	Br	1.161495	-0.040593	-0.155619
Br44	Br	1.489717	-0.178477	-0.291932
Br45	Br	1.634027	-0.150597	0.646378
Br46	Br	1.848106	0.039380	0.637111
Br47	Br	1.104040	0.430355	0.139699
H48	H	1.087716	0.363860	-0.130767
Br49	Br	0.871567	0.167259	-0.291837
H50	H	1.309674	-0.180704	0.093782
H51	H	0.915609	-0.009946	-0.092767
H52	H	1.345960	0.342392	0.369568
Br53	Br	0.837448	0.421726	-0.144991
Br54	Br	1.839128	0.054712	0.353732
Br55	Br	1.299520	0.388781	0.669656
Br56	Br	1.266854	-0.420030	0.154206
Br57	Br	1.163972	-0.039074	0.155533
Br58	Br	1.483998	-0.440860	0.293331
Br59	Br	0.897506	-0.046557	0.157174
H60	H	1.663797	-0.094475	0.389065
Br61	Br	1.266743	-0.416744	-0.156479
H62	H	1.105816	0.210016	0.228192
Br63	Br	1.736746	-0.473818	0.140604
H64	H	1.676060	-0.224960	0.135457
H65	H	1.524848	-0.425935	-0.228165
Br66	Br	1.493845	-0.176312	0.292501
Br67	Br	1.743250	-0.207024	-0.144099
Br68	Br	1.740354	-0.473095	-0.130688
