data_functionalizedCrystal
_audit_creation_method	'MofGen! by Chris Wilmer'
_symmetry_space_group_name_H-M	'P1'
_symmetry_Int_Tables_number	1
_symmetry_cell_setting	triclinic
loop_
_symmetry_equiv_pos_as_xyz
  x,y,z
_cell_length_a	21.295418
_cell_length_b	17.077402
_cell_length_c	17.077396
_cell_angle_alpha	89.970216
_cell_angle_beta	90.038791
_cell_angle_gamma	89.961304
loop_
_atom_site_label
_atom_site_type_symbol
_atom_site_fract_x
_atom_site_fract_y
_atom_site_fract_z
Zn1	Zn	0.962358	0.312177	0.444240
Zn2	Zn	0.962284	0.443452	0.312971
Zn3	Zn	0.857091	0.312240	0.312944
Zn4	Zn	0.857065	0.443441	0.444150
O5	O	0.909699	0.377827	0.378576
O6	O	1.050438	0.329569	0.426876
O7	O	0.948309	0.426077	0.203120
O8	O	0.871097	0.202385	0.330386
O9	O	1.050383	0.426016	0.330433
O10	O	0.948436	0.202338	0.426849
O11	O	0.871024	0.329677	0.203100
O12	O	0.768998	0.329666	0.330299
O13	O	0.871053	0.425997	0.554009
O14	O	0.768979	0.426059	0.426696
O15	O	0.948411	0.329558	0.554075
O16	O	0.948284	0.553297	0.330346
O17	O	0.870981	0.553289	0.426723
C18	C	0.746148	0.377869	0.378486
C19	C	0.676180	0.377905	0.378466
C20	C	0.909639	0.581775	0.378545
C21	C	0.909670	0.669025	0.378558
C22	C	0.909738	0.377769	0.583320
C23	C	0.909754	0.377745	0.670570
C24	C	0.643320	0.428163	0.428585
C25	C	0.577577	0.428144	0.428620
C26	C	0.544697	0.377875	0.378522
C27	C	0.577565	0.327607	0.328400
C28	C	0.643306	0.327622	0.328372
N29	N	0.441425	0.371744	0.309865
N30	N	0.378974	0.371735	0.309894
C31	C	0.346623	0.377825	0.378605
N32	N	0.379082	0.383940	0.447288
N33	N	0.441539	0.383954	0.447258
C34	C	0.473412	0.377852	0.378548
C35	C	0.242477	0.428064	0.428767
C36	C	0.176733	0.428040	0.428803
C37	C	0.176723	0.327507	0.328576
C38	C	0.242465	0.327527	0.328547
C39	C	0.275338	0.377810	0.378641
C40	C	1.073890	0.377786	0.378667
C41	C	1.143858	0.377769	0.378706
C42	C	0.909778	0.173083	0.378625
C43	C	0.909811	0.085833	0.378645
C44	C	0.949964	0.709993	0.328428
C45	C	0.949994	0.791974	0.328448
C46	C	0.909728	0.832984	0.378594
C47	C	0.869433	0.792010	0.428729
C48	C	0.869406	0.710031	0.428713
C49	C	0.869492	0.962880	0.428759
C50	C	0.869518	1.044865	0.428775
C51	C	0.950080	1.044822	0.328495
C52	C	0.950053	0.962844	0.328478
C53	C	0.909757	0.921875	0.378612
C54	C	0.909698	0.377828	0.174628
C55	C	0.909804	0.377632	0.087379
C56	C	0.950036	0.327525	0.711596
C57	C	0.950043	0.327499	0.793577
C58	C	0.909772	0.377697	0.834530
C59	C	0.869485	0.427919	0.793498
C60	C	0.869475	0.427941	0.711519
C61	C	0.869510	0.427872	0.964369
C62	C	0.869521	0.427852	1.046353
C63	C	0.950079	0.327430	1.046426
C64	C	0.950069	0.327451	0.964447
C65	C	0.909783	0.377675	0.923421
H66	H	0.670081	0.469107	0.469376
C67	C	0.278643	0.483364	0.483877
C68	C	0.350956	0.483386	0.483846
C69	C	0.387120	0.538684	0.538958
C70	C	0.350971	0.593959	0.594102
C71	C	0.278654	0.593938	0.594135
C72	C	0.242490	0.538641	0.539023
H73	H	0.377719	0.442467	0.443023
H74	H	0.440653	0.538699	0.538933
H75	H	0.377741	0.634894	0.634899
H76	H	0.251891	0.634858	0.634958
H77	H	0.188956	0.538625	0.539048
C78	C	0.140586	0.483329	0.483938
C79	C	0.095317	0.544897	0.449829
C80	C	0.059169	0.600189	0.504964
C81	C	0.068290	0.593911	0.594208
C82	C	0.113561	0.532340	0.628322
C83	C	0.149709	0.477049	0.573187
H84	H	0.088563	0.549547	0.383761
H85	H	0.025656	0.645768	0.479710
H86	H	0.041532	0.634841	0.635023
H87	H	0.120315	0.527691	0.694390
H88	H	0.183222	0.431470	0.598441
C89	C	0.825167	0.483186	0.666385
C90	C	0.753609	0.476797	0.677609
C91	C	0.709299	0.532040	0.632474
C92	C	0.736547	0.593672	0.576114
C93	C	0.808108	0.600064	0.564887
C94	C	0.852419	0.544820	0.610022
H95	H	0.733436	0.431170	0.719333
H96	H	0.656324	0.527308	0.640786
H97	H	0.703745	0.634567	0.542702
H98	H	0.828282	0.645690	0.523163
H99	H	0.905393	0.549552	0.601710
H100	H	0.982750	0.676608	0.287590
C101	C	0.825218	0.483064	1.091404
C102	C	0.825234	0.483040	1.181578
C103	C	0.780929	0.538251	1.226629
C104	C	0.736610	0.593487	1.181506
C105	C	0.736593	0.593513	1.091328
C106	C	0.780897	0.538301	1.046276
H107	H	0.858043	0.442149	1.214985
H108	H	0.780942	0.538232	1.293385
H109	H	0.703813	0.634358	1.214856
H110	H	0.703783	0.634404	1.057921
H111	H	0.780884	0.538321	0.979520
H112	H	0.982847	0.286606	0.826976
C113	C	0.541400	0.272309	0.273293
C114	C	0.577549	0.217022	0.218161
C115	C	0.541385	0.161717	0.163056
C116	C	0.469073	0.161700	0.163082
C117	C	0.432920	0.216989	0.218216
C118	C	0.469084	0.272293	0.273321
H119	H	0.631083	0.217033	0.218140
H120	H	0.568149	0.120788	0.122242
H121	H	0.442302	0.120760	0.122290
H122	H	0.379386	0.216978	0.218237
H123	H	0.442320	0.313222	0.314134
H124	H	0.836693	0.468789	0.826849
C125	C	0.994321	0.837034	0.273305
C126	C	0.989222	0.825835	0.184058
C127	C	1.033555	0.870892	0.128914
C128	C	1.082986	0.927149	0.163018
C129	C	1.088087	0.938350	0.252270
C130	C	1.043755	0.893293	0.307414
H131	H	0.952628	0.784188	0.158808
H132	H	1.029778	0.862600	0.062844
H133	H	1.115804	0.960503	0.122198
H134	H	1.124681	0.979997	0.277520
H135	H	1.047531	0.901585	0.373484
C136	C	0.994336	0.272305	0.666551
C137	C	0.989232	0.183066	0.677841
C138	C	1.033532	0.127842	0.632798
C139	C	1.082936	0.161857	0.576465
C140	C	1.088042	0.251100	0.565172
C141	C	1.043742	0.306324	0.610215
H142	H	0.952659	0.157883	0.719545
H143	H	1.029752	0.061779	0.641159
H144	H	1.115729	0.120977	0.543121
H145	H	1.124615	0.276284	0.523468
H146	H	1.047522	0.372387	0.601855
H147	H	0.836596	0.676676	0.469534
C148	C	0.825202	0.483131	0.919245
C149	C	0.852460	0.544768	0.862897
C150	C	0.808158	0.600033	0.817776
C151	C	0.736599	0.593662	0.829002
C152	C	0.709338	0.532023	0.885352
C153	C	0.753640	0.476757	0.930474
H154	H	0.905435	0.549486	0.854584
H155	H	0.828339	0.645663	0.776061
H156	H	0.703805	0.634573	0.795601
H157	H	0.656363	0.527304	0.893665
H158	H	0.733459	0.431128	0.972188
C159	C	0.825140	0.837121	0.483891
C160	C	0.753578	0.825950	0.477373
C161	C	0.709283	0.871060	0.532534
C162	C	0.736549	0.927342	0.594213
C163	C	0.808115	0.938515	0.600733
C164	C	0.852411	0.893405	0.545572
H165	H	0.733390	0.784285	0.431713
H166	H	0.656305	0.862789	0.527707
H167	H	0.703759	0.960735	0.635046
H168	H	0.828303	0.980180	0.646394
H169	H	0.905389	0.901677	0.550399
C170	C	0.541420	0.483435	0.483748
C171	C	0.550389	0.572665	0.477166
C172	C	0.514233	0.627957	0.532292
C173	C	0.469107	0.594018	0.594001
C174	C	0.460136	0.504783	0.600586
C175	C	0.496292	0.449492	0.545459
H176	H	0.583795	0.597793	0.431483
H177	H	0.520874	0.694014	0.527417
H178	H	0.442343	0.634948	0.634808
H179	H	0.426730	0.479656	0.646268
H180	H	0.489651	0.383434	0.550334
H181	H	0.670061	0.286693	0.287559
H182	H	0.982865	0.286580	0.931105
C183	C	0.140563	0.272207	0.273469
C184	C	0.068250	0.272186	0.273498
C185	C	0.032087	0.216881	0.218391
C186	C	0.068237	0.161599	0.163256
C187	C	0.140553	0.161619	0.163225
C188	C	0.176717	0.216923	0.218331
H189	H	0.041486	0.313111	0.314314
H190	H	-0.021447	0.216867	0.218414
H191	H	0.041467	0.120660	0.122463
H192	H	0.167317	0.120693	0.122408
H193	H	0.230250	0.216937	0.218308
C194	C	0.278618	0.272252	0.273406
C195	C	0.323740	0.306206	0.211703
C196	C	0.359895	0.250928	0.156561
C197	C	0.350928	0.161696	0.163124
C198	C	0.305804	0.127738	0.224831
C199	C	0.269649	0.183016	0.279972
H200	H	0.330380	0.372265	0.206842
H201	H	0.393299	0.276067	0.110882
H202	H	0.377691	0.120776	0.122305
H203	H	0.299163	0.061679	0.229691
H204	H	0.236245	0.157877	0.325651
H205	H	0.982837	0.929453	0.287641
H206	H	0.982892	1.078183	0.287676
H207	H	0.836741	1.078254	0.469623
H208	H	0.836680	0.929527	0.469587
H209	H	0.982880	0.286535	1.079833
