data_functionalizedCrystal
_audit_creation_method	'MofGen! by Chris Wilmer'
_symmetry_space_group_name_H-M	'P1'
_symmetry_Int_Tables_number	1
_symmetry_cell_setting	triclinic
loop_
_symmetry_equiv_pos_as_xyz
  x,y,z
_cell_length_a	10.685661
_cell_length_b	10.685194
_cell_length_c	12.759393
_cell_angle_alpha	94.402269
_cell_angle_beta	94.386597
_cell_angle_gamma	89.666413
loop_
_atom_site_label
_atom_site_type_symbol
_atom_site_fract_x
_atom_site_fract_y
_atom_site_fract_z
Zn1	Zn	1.879753	-0.646635	0.672497
Zn2	Zn	1.863563	-0.856458	0.482386
Zn3	Zn	1.669951	-0.630593	0.484489
Zn4	Zn	1.653893	-0.840271	0.645698
O5	O	1.766790	-0.743489	0.571267
O6	O	2.053156	-0.687957	0.657614
O7	O	1.837825	-0.826558	0.335637
O8	O	1.711277	-0.457158	0.521524
O9	O	2.041262	-0.842113	0.517940
O10	O	1.865418	-0.468944	0.659653
O11	O	1.695579	-0.660615	0.337181
O12	O	1.492270	-0.644919	0.495538
O13	O	1.683909	-0.814524	0.796281
O14	O	1.480472	-0.798969	0.613977
O15	O	1.849848	-0.672261	0.815971
O16	O	1.822254	-1.029874	0.491954
O17	O	1.668210	-1.017981	0.611938
C18	C	1.440853	-0.718447	0.552078
C19	C	1.301413	-0.707765	0.543892
C20	C	1.741767	-1.069452	0.548835
C21	C	1.731177	-1.208908	0.539280
C22	C	2.094000	-0.768630	0.590532
C23	C	2.233437	-0.779344	0.598742
C24	C	1.766893	-0.743376	0.845315
C25	C	1.766937	-0.743328	0.962097
C26	C	1.791945	-0.416257	0.593812
C27	C	1.802665	-0.276810	0.603420
C28	C	1.766766	-0.743517	0.298297
C29	C	1.766993	-0.743231	0.181553
C30	C	1.853348	-0.669239	1.027214
C31	C	1.853374	-0.669187	1.136944
C32	C	1.680572	-0.817323	1.116428
C33	C	1.680542	-0.817367	1.006701
H34	H	1.252935	-0.638302	0.490677
Br35	Br	1.970595	-0.568755	0.966684
Br36	Br	1.970660	-0.568643	1.225314
Br37	Br	1.563332	-0.917804	1.176968
Br38	Br	1.918184	-1.195887	0.707143
H39	H	1.661854	-1.257469	0.477057
Br40	Br	1.563251	-0.917912	0.918319
H41	H	1.281923	-0.848800	0.651970
