data_functionalizedCrystal
_audit_creation_method	'MofGen! by Chris Wilmer'
_symmetry_space_group_name_H-M	'P1'
_symmetry_Int_Tables_number	1
_symmetry_cell_setting	triclinic
loop_
_symmetry_equiv_pos_as_xyz
  x,y,z
_cell_length_a	21.295417
_cell_length_b	21.295419
_cell_length_c	12.759393
_cell_angle_alpha	90.021637
_cell_angle_beta	90.039220
_cell_angle_gamma	90.045308
loop_
_atom_site_label
_atom_site_type_symbol
_atom_site_fract_x
_atom_site_fract_y
_atom_site_fract_z
Zn1	Zn	-0.250323	0.962338	0.594015
Zn2	Zn	0.083010	1.295671	0.927349
Zn3	Zn	0.416344	1.629004	1.260682
Zn4	Zn	-0.355607	0.962245	0.418312
Zn5	Zn	-0.022274	1.295579	0.751645
Zn6	Zn	0.311059	1.628912	1.084979
Zn7	Zn	-0.250383	0.857066	0.418345
Zn8	Zn	0.082950	1.190399	0.751678
Zn9	Zn	0.416284	1.523733	1.085012
Zn10	Zn	-0.355586	0.857030	0.593944
Zn11	Zn	-0.022252	1.190364	0.927277
Zn12	Zn	0.311081	1.523697	1.260610
O13	O	-0.302975	0.909670	0.506154
O14	O	0.030359	1.243003	0.839487
O15	O	0.363692	1.576336	1.172821
O16	O	-0.264273	1.050415	0.570724
O17	O	0.069060	1.383748	0.904057
O18	O	0.402393	1.717081	1.237391
O19	O	-0.341683	0.948269	0.271295
O20	O	-0.008350	1.281603	0.604629
O21	O	0.324983	1.614936	0.937962
O22	O	-0.162286	0.871084	0.441692
O23	O	0.171048	1.204418	0.775025
O24	O	0.504381	1.537751	1.108358
O25	O	-0.341625	1.050347	0.441636
O26	O	-0.008292	1.383680	0.774969
O27	O	0.325042	1.717014	1.108302
O28	O	-0.162242	0.948427	0.570756
O29	O	0.171092	1.281760	0.904089
O30	O	0.504425	1.615093	1.237423
O31	O	-0.264375	0.870995	0.271319
O32	O	0.068958	1.204328	0.604653
O33	O	0.402291	1.537661	0.937986
O34	O	-0.264354	0.768972	0.441622
O35	O	0.068979	1.102305	0.774956
O36	O	0.402312	1.435639	1.108289
O37	O	-0.341588	0.871023	0.740974
O38	O	-0.008255	1.204356	1.074308
O39	O	0.325078	1.537690	1.407641
O40	O	-0.341646	0.768946	0.570634
O41	O	-0.008313	1.102279	0.903967
O42	O	0.325020	1.435612	1.237301
O43	O	-0.264252	0.948392	0.741027
O44	O	0.069081	1.281725	1.074360
O45	O	0.402414	1.615059	1.407694
O46	O	-0.443694	0.948235	0.441566
O47	O	-0.110361	1.281568	0.774900
O48	O	0.222973	1.614901	1.108233
O49	O	-0.443678	0.870934	0.570602
O50	O	-0.110345	1.204267	0.903936
O51	O	0.222989	1.537600	1.237269
C52	C	-0.303005	0.746118	0.506125
C53	C	0.030328	1.079451	0.839458
C54	C	0.363662	1.412785	1.172791
C55	C	-0.303033	0.676150	0.506137
C56	C	0.030300	1.009483	0.839470
C57	C	0.363634	1.342817	1.172804
C58	C	-0.262822	0.643341	0.573457
C59	C	0.070512	0.976674	0.906790
C60	C	0.403845	1.310008	1.240124
C61	C	-0.262805	0.577599	0.573461
C62	C	0.070528	0.910932	0.906794
C63	C	0.403862	1.244265	1.240128
C64	C	-0.303011	0.544668	0.506156
C65	C	0.030323	0.878001	0.839489
C66	C	0.363656	1.211334	1.172823
C67	C	-0.343225	0.577484	0.438823
C68	C	-0.009891	0.910818	0.772156
C69	C	0.323442	1.244151	1.105489
C70	C	-0.343236	0.643226	0.438813
C71	C	-0.009903	0.976559	0.772147
C72	C	0.323431	1.309892	1.105480
N73	N	-0.358089	0.441392	0.497945
N74	N	-0.024756	0.774726	0.831278
N75	N	0.308577	1.108059	1.164612
N76	N	-0.358077	0.378941	0.497960
N77	N	-0.024743	0.712274	0.831294
N78	N	0.308590	1.045608	1.164627
C79	C	-0.302978	0.346593	0.506179
C80	C	0.030355	0.679926	0.839513
C81	C	0.363689	1.013260	1.172846
N82	N	-0.247891	0.379055	0.514403
N83	N	0.085442	0.712389	0.847736
N84	N	0.418776	1.045722	1.181070
N85	N	-0.247904	0.441513	0.514393
N86	N	0.085429	0.774846	0.847726
N87	N	0.418763	1.108179	1.181060
C88	C	-0.303002	0.473382	0.506158
C89	C	0.030331	0.806716	0.839492
C90	C	0.363664	1.140049	1.172825
C91	C	-0.262745	0.242498	0.573507
C92	C	0.070588	0.575832	0.906841
C93	C	0.403922	0.909165	1.240174
C94	C	-0.262727	0.176755	0.573504
C95	C	0.070606	0.510088	0.906837
C96	C	0.403940	0.843421	1.240171
C97	C	-0.343152	0.176642	0.438871
C98	C	-0.009819	0.509975	0.772205
C99	C	0.323514	0.843308	1.105538
C100	C	-0.343165	0.242384	0.438869
C101	C	-0.009831	0.575717	0.772202
C102	C	0.323502	0.909051	1.105536
C103	C	-0.302962	0.275309	0.506193
C104	C	0.030372	0.608642	0.839526
C105	C	0.363705	0.941975	1.172859
C106	C	-0.466526	0.909587	0.506096
C107	C	-0.133193	1.242921	0.839429
C108	C	0.200140	1.576254	1.172763
C109	C	-0.536495	0.909610	0.506106
C110	C	-0.203161	1.242943	0.839439
C111	C	0.130172	1.576276	1.172773
C112	C	-0.569349	0.949896	0.438986
C113	C	-0.236015	1.283229	0.772319
C114	C	0.097318	1.616563	1.105653
C115	C	-0.635091	0.949925	0.439010
C116	C	-0.301758	1.283259	0.772343
C117	C	0.031576	1.616592	1.105676
C118	C	-0.667977	0.909657	0.506142
C119	C	-0.334644	1.242991	0.839476
C120	C	-0.001310	1.576324	1.172809
C121	C	-0.635115	0.869368	0.573276
C122	C	-0.301782	1.202701	0.906609
C123	C	0.031552	1.536035	1.239942
C124	C	-0.569374	0.869344	0.573257
C125	C	-0.236041	1.202677	0.906591
C126	C	0.097293	1.536011	1.239924
N127	N	-0.771256	0.854590	0.514142
N128	N	-0.437923	1.187923	0.847475
N129	N	-0.104590	1.521257	1.180808
N130	N	-0.833708	0.854615	0.514153
N131	N	-0.500375	1.187948	0.847486
N132	N	-0.167041	1.521281	1.180820
C133	C	-0.866052	0.909728	0.506203
C134	C	-0.532718	1.243061	0.839536
C135	C	-0.199385	1.576394	1.172869
N136	N	-0.833585	0.964817	0.498220
N137	N	-0.500252	1.298150	0.831554
N138	N	-0.166918	1.631484	1.164887
N139	N	-0.771128	0.964792	0.498204
N140	N	-0.437794	1.298125	0.831537
N141	N	-0.104461	1.631458	1.164870
C142	C	-0.739262	0.909679	0.506170
C143	C	-0.405929	1.243012	0.839503
C144	C	-0.072596	1.576346	1.172837
C145	C	-0.970191	0.950050	0.439104
C146	C	-0.636858	1.283383	0.772438
C147	C	-0.303525	1.616716	1.105771
C148	C	-1.035935	0.950080	0.439136
C149	C	-0.702602	1.283414	0.772469
C150	C	-0.369268	1.616747	1.105802
C151	C	-1.035958	0.869517	0.573396
C152	C	-0.702624	1.202850	0.906729
C153	C	-0.369291	1.536184	1.240063
C154	C	-0.970215	0.869492	0.573370
C155	C	-0.636882	1.202826	0.906704
C156	C	-0.303549	1.536159	1.240037
C157	C	-0.937336	0.909758	0.506219
C158	C	-0.604003	1.243091	0.839552
C159	C	-0.270669	1.576424	1.172886
C160	C	-0.138784	0.909770	0.506235
C161	C	0.194549	1.243103	0.839569
C162	C	0.527882	1.576436	1.172902
C163	C	-0.068816	0.909812	0.506270
C164	C	0.264517	1.243146	0.839603
C165	C	0.597850	1.576479	1.172937
C166	C	-0.302911	0.909714	0.780188
C167	C	0.030422	1.243047	1.113521
C168	C	0.363756	1.576380	1.446854
C169	C	-0.302884	0.909732	0.896964
C170	C	0.030449	1.243066	1.230298
C171	C	0.363783	1.576399	1.563631
C172	C	-0.302945	1.073860	0.506184
C173	C	0.030388	1.407193	0.839518
C174	C	0.363722	1.740527	1.172851
C175	C	-0.302932	1.143828	0.506197
C176	C	0.030401	1.477161	0.839530
C177	C	0.363734	1.810495	1.172864
C178	C	-0.302993	0.909662	0.233187
C179	C	0.030341	1.242996	0.566520
C180	C	0.363674	1.576329	0.899853
C181	C	-0.302843	0.909765	0.116411
C182	C	0.030491	1.243099	0.449744
C183	C	0.363824	1.576432	0.783077
C184	C	-0.262622	0.869510	0.951838
C185	C	0.070711	1.202843	1.285172
C186	C	0.404044	1.536177	1.618505
C187	C	-0.262603	0.869525	1.061562
C188	C	0.070730	1.202858	1.394896
C189	C	0.404064	1.536191	1.728229
C190	C	-0.343109	0.949990	1.061529
C191	C	-0.009775	1.283323	1.394862
C192	C	0.323558	1.616656	1.728195
C193	C	-0.343131	0.949971	0.951807
C194	C	-0.009797	1.283305	1.285140
C195	C	0.323536	1.616638	1.618473
C196	C	-0.240094	0.795324	1.211514
C197	C	0.093240	1.128658	1.544847
C198	C	0.426573	1.461991	1.878180
C199	C	-0.199822	0.755107	1.266391
C200	C	0.133511	1.088441	1.599725
C201	C	0.466844	1.421774	1.933058
C202	C	-0.138408	0.745475	1.230815
C203	C	0.194925	1.078809	1.564148
C204	C	0.528258	1.412142	1.897481
C205	C	-0.117253	0.776069	1.140362
C206	C	0.216080	1.109403	1.473695
C207	C	0.549413	1.442736	1.807029
C208	C	-0.157521	0.816291	1.085490
C209	C	0.175812	1.149624	1.418823
C210	C	0.509145	1.482958	1.752156
C211	C	-0.218944	0.825911	1.121065
C212	C	0.114389	1.159244	1.454398
C213	C	0.447723	1.492578	1.787732
C214	C	-0.365634	1.024173	0.801854
C215	C	-0.032300	1.357506	1.135187
C216	C	0.301033	1.690839	1.468520
C217	C	-0.405899	1.064398	0.746979
C218	C	-0.072566	1.397731	1.080313
C219	C	0.260768	1.731064	1.413646
C220	C	-0.467314	1.074036	0.782554
C221	C	-0.133981	1.407370	1.115887
C222	C	0.199353	1.740703	1.449221
C223	C	-0.488467	1.043453	0.873010
C224	C	-0.155133	1.376787	1.206344
C225	C	0.178200	1.710120	1.539677
C226	C	-0.448201	1.003228	0.927884
C227	C	-0.114868	1.336561	1.261218
C228	C	0.218465	1.669895	1.594551
C229	C	-0.386787	0.993589	0.892302
C230	C	-0.053454	1.326922	1.225636
C231	C	0.279880	1.660255	1.558969
H232	H	-0.375912	0.269097	0.384054
H233	H	-0.042578	0.602431	0.717387
H234	H	0.290755	0.935764	1.050720
O235	O	-0.934781	0.826022	0.645744
O236	O	-0.601447	1.159355	0.979078
O237	O	-0.268114	1.492689	1.312411
H238	H	-0.947346	0.836785	0.728225
H239	H	-0.614013	1.170118	1.061558
H240	H	-0.280680	1.503451	1.394891
H241	H	-0.140296	0.841203	1.011848
H242	H	0.193037	1.174536	1.345182
H243	H	0.526371	1.507870	1.678515
H244	H	-0.229851	0.836745	0.907189
H245	H	0.103482	1.170078	1.240522
H246	H	0.436815	1.503411	1.573856
H247	H	-0.500095	1.106797	0.737871
H248	H	-0.166762	1.440131	1.071204
H249	H	0.166572	1.773464	1.404538
O250	O	-0.306339	0.805702	1.249882
O251	O	0.026995	1.139036	1.583215
O252	O	0.360328	1.472369	1.916549
H253	H	-0.330791	0.838801	1.196523
H254	H	0.002542	1.172135	1.529856
H255	H	0.335875	1.505468	1.863189
O256	O	-0.934726	0.993498	0.366713
O257	O	-0.601393	1.326831	0.700046
O258	O	-0.268059	1.660164	1.033379
H259	H	-0.883492	0.986712	0.377974
H260	H	-0.550158	1.320046	0.711307
H261	H	-0.216825	1.653379	1.044640
H262	H	-1.062684	0.982890	0.384480
H263	H	-0.729350	1.316224	0.717814
H264	H	-0.396017	1.649557	1.051147
O265	O	-0.219457	0.678849	0.646065
O266	O	0.113876	1.012182	0.979398
O267	O	0.447210	1.345516	1.312731
H268	H	-0.226222	0.730076	0.634757
H269	H	0.107111	1.063409	0.968090
H270	H	0.440445	1.396743	1.301423
H271	H	-0.661846	0.982734	0.384353
H272	H	-0.328513	1.316067	0.717686
H273	H	0.004821	1.649400	1.051019
H274	H	-1.062733	0.836733	0.628061
H275	H	-0.729399	1.170066	0.961395
H276	H	-0.396066	1.503399	1.294728
H277	H	-0.375960	0.550668	0.384022
H278	H	-0.042626	0.884001	0.717355
H279	H	0.290707	1.217334	1.050688
H280	H	-0.230005	0.269307	0.628320
H281	H	0.103328	0.602640	0.961653
H282	H	0.436661	0.935974	1.294986
H283	H	-0.067241	0.768229	1.111410
H284	H	0.266092	1.101563	1.444743
H285	H	0.599426	1.434896	1.778076
H286	H	-0.105619	0.712730	1.275504
H287	H	0.227714	1.046063	1.608838
H288	H	0.561048	1.379396	1.942171
O289	O	-0.386608	0.678618	0.366199
O290	O	-0.053274	1.011951	0.699532
O291	O	0.280059	1.345285	1.032866
H292	H	-0.436024	0.665962	0.384066
H293	H	-0.102691	0.999295	0.717399
H294	H	0.230642	1.332628	1.050733
O295	O	-0.219438	0.542199	0.646081
O296	O	0.113896	0.875533	0.979414
O297	O	0.447229	1.208866	1.312747
H298	H	-0.191488	0.576139	0.692897
H299	H	0.141846	0.909472	1.026231
H300	H	0.475179	1.242805	1.359564
H301	H	-0.217053	0.730198	1.340038
H302	H	0.116281	1.063531	1.673372
H303	H	0.449614	1.396864	2.006705
O304	O	-0.386511	0.993395	1.120678
O305	O	-0.053177	1.326729	1.454012
O306	O	0.280156	1.660062	1.787345
H307	H	-0.379727	0.986657	1.206195
H308	H	-0.046394	1.319990	1.539528
H309	H	0.286940	1.653324	1.872861
H310	H	-0.542580	0.982684	0.384310
H311	H	-0.209247	1.316017	0.717643
H312	H	0.124086	1.649351	1.050977
O313	O	-0.471018	0.970239	1.025447
O314	O	-0.137685	1.303573	1.358780
O315	O	0.195649	1.636906	1.692114
H316	H	-0.432700	0.940654	1.057630
H317	H	-0.099366	1.273987	1.390963
H318	H	0.233967	1.607321	1.724297
O319	O	-0.670579	0.825927	0.645674
O320	O	-0.337246	1.159261	0.979007
O321	O	-0.003912	1.492594	1.312341
H322	H	-0.721813	0.832705	0.634400
H323	H	-0.388480	1.166038	0.967733
H324	H	-0.055147	1.499372	1.301066
H325	H	-0.542624	0.836538	0.627916
H326	H	-0.209290	1.169871	0.961249
H327	H	0.124043	1.503204	1.294583
O328	O	-0.554710	1.053839	0.911386
O329	O	-0.221377	1.387173	1.244720
O330	O	0.111957	1.720506	1.578053
H331	H	-0.579158	1.086941	0.858026
H332	H	-0.245824	1.420275	1.191359
H333	H	0.087509	1.753608	1.524692
O334	O	-0.383090	1.097383	0.649409
O335	O	-0.049756	1.430717	0.982742
O336	O	0.283577	1.764050	1.316076
H337	H	-0.333622	1.083916	0.633876
H338	H	-0.000289	1.417249	0.967209
H339	H	0.333045	1.750582	1.300542
H340	H	-0.315631	1.016310	0.772859
H341	H	0.017702	1.349644	1.106192
H342	H	0.351036	1.682977	1.439525
H343	H	-0.229978	0.150043	0.628323
H344	H	0.103355	0.483376	0.961656
H345	H	0.436688	0.816709	1.294989
H346	H	-0.375888	0.149830	0.384070
H347	H	-0.042555	0.483163	0.717403
H348	H	0.290778	0.816497	1.050737
