data_functionalizedCrystal
_audit_creation_method	'MofGen! by Chris Wilmer'
_symmetry_space_group_name_H-M	'P1'
_symmetry_Int_Tables_number	1
_symmetry_cell_setting	triclinic
loop_
_symmetry_equiv_pos_as_xyz
  x,y,z
_cell_length_a	17.038272
_cell_length_b	26.210047
_cell_length_c	17.038272
_cell_angle_alpha	89.995980
_cell_angle_beta	88.888444
_cell_angle_gamma	90.010815
loop_
_atom_site_label
_atom_site_type_symbol
_atom_site_fract_x
_atom_site_fract_y
_atom_site_fract_z
O1	O	1.048768	0.042366	-0.170536
O2	O	0.820957	0.042381	-0.167828
O3	O	0.933508	0.042369	-0.055276
O4	O	0.936216	0.042377	-0.283088
O5	O	0.933470	-0.042489	-0.055273
O6	O	0.820919	-0.042477	-0.167825
O7	O	1.048730	-0.042492	-0.170533
Cu8	Cu	0.934821	-0.050233	-0.169179
Cu9	Cu	0.934866	0.050121	-0.169182
O10	O	0.936178	-0.042481	-0.283085
C11	C	0.791645	-0.000047	-0.165364
C12	C	0.704361	-0.000041	-0.158016
C13	C	0.658752	-0.000039	-0.225479
C14	C	0.576740	-0.000046	-0.218570
C15	C	0.540339	-0.000052	-0.144197
C16	C	0.585954	-0.000055	-0.076728
C17	C	0.667965	-0.000052	-0.083638
C18	C	0.292951	-0.000066	-0.119787
C19	C	0.210935	-0.000068	-0.112882
C20	C	0.201726	-0.000060	-0.254725
C21	C	0.283739	-0.000054	-0.261628
C22	C	0.329347	-0.000060	-0.194159
C23	C	0.456510	-0.000058	-0.137133
C24	C	0.413174	-0.000058	-0.201224
N25	N	0.934795	-0.120817	-0.169177
C26	C	0.985655	-0.473333	-0.219999
C27	C	0.985678	-0.686991	-0.220000
O28	O	1.028902	-0.714615	-0.263202
N29	N	0.934884	-0.713711	-0.169176
C30	C	0.884084	-0.687013	-0.118343
O31	O	0.840887	-0.714642	-0.075108
C32	C	0.884066	-0.473355	-0.118339
C33	C	0.934857	-0.446638	-0.169173
C34	C	1.036443	-0.446616	-0.270828
C35	C	1.036434	-0.393204	-0.270831
C36	C	0.985636	-0.366510	-0.220004
C37	C	0.934848	-0.393227	-0.169175
C38	C	0.833270	-0.446658	-0.067503
C39	C	0.833272	-0.393240	-0.067505
C40	C	0.884063	-0.366523	-0.118339
C41	C	0.884041	-0.313121	-0.118350
N42	N	0.934835	-0.286401	-0.169175
C43	C	0.985633	-0.313096	-0.220002
C44	C	0.884097	-0.799186	-0.118350
C45	C	0.884100	-0.852600	-0.118352
C46	C	0.985695	-0.852575	-0.220008
C47	C	0.985687	-0.799160	-0.220010
C48	C	0.934891	-0.772466	-0.169175
C49	C	0.985609	-0.200928	-0.220003
C50	C	0.985593	-0.147512	-0.220003
C51	C	0.884001	-0.147541	-0.118344
C52	C	0.884014	-0.200953	-0.118347
C53	C	0.934824	-0.227645	-0.169179
O54	O	0.840846	-0.285465	-0.075165
O55	O	1.028835	-0.285457	-0.263219
C56	C	0.985664	-0.526744	-0.219997
C57	C	0.934876	-0.553461	-0.169168
C58	C	0.884078	-0.526767	-0.118341
C59	C	0.934879	-0.606875	-0.169170
C60	C	0.985677	-0.633570	-0.219997
C61	C	1.036471	-0.606850	-0.270822
C62	C	1.036462	-0.553439	-0.270824
C63	C	0.833285	-0.553486	-0.067517
C64	C	0.833297	-0.606898	-0.067519
C65	C	0.884095	-0.633592	-0.118346
C66	C	1.078042	-0.000064	-0.172997
C67	C	1.165326	-0.000066	-0.180346
C68	C	0.931027	-0.000060	-0.025982
C69	C	0.923679	-0.000059	0.061301
N70	N	0.934898	0.120705	-0.169179
C71	C	0.938660	-0.000051	-0.312379
C72	C	0.946008	-0.000048	-0.399663
C73	C	0.991142	-0.000064	0.106911
C74	C	0.984233	-0.000059	0.188923
C75	C	0.909860	-0.000052	0.225324
C76	C	0.842391	-0.000046	0.179708
C77	C	0.849301	-0.000047	0.097698
C78	C	0.885449	-0.000043	0.472712
C79	C	0.878545	-0.000043	0.554728
C80	C	1.020387	-0.000056	0.563937
C81	C	1.027291	-0.000060	0.481924
C82	C	0.959822	-0.000051	0.436316
C83	C	0.902796	-0.000048	0.309153
C84	C	0.966886	-0.000051	0.352488
H85	H	0.539608	-0.000044	-0.273507
O86	O	0.318970	-0.000074	-0.333934
C87	C	0.261127	-0.000061	-0.392000
H88	H	0.204014	-0.016130	-0.366285
H89	H	0.281597	-0.024695	-0.443596
H90	H	0.250997	0.040650	-0.413072
H91	H	1.027053	-0.874319	-0.261397
O92	O	0.806354	-0.000058	0.590215
C93	C	0.814727	-0.000049	0.672379
H94	H	0.874726	-0.016121	0.687535
H95	H	0.766798	-0.024682	0.700610
H96	H	0.809428	0.040661	0.695433
O97	O	1.085682	-0.472599	-0.320244
C98	C	1.041362	-0.503488	-0.370637
H99	H	0.981473	-0.511508	-0.342285
H100	H	1.073522	-0.541040	-0.381517
H101	H	1.033254	-0.482894	-0.428857
H102	H	0.426863	-0.000077	-0.076578
O103	O	0.830508	-0.000113	0.344423
C104	C	0.789038	-0.044066	0.321609
H105	H	0.814210	-0.058723	0.263376
H106	H	0.724399	-0.034179	0.314592
H107	H	0.794971	-0.074839	0.368411
O108	O	0.783854	-0.472626	-0.018230
C109	C	0.733455	-0.503542	-0.062502
H110	H	0.729164	-0.487450	-0.124431
H111	H	0.672636	-0.504154	-0.033424
H112	H	0.757810	-0.544021	-0.065450
H113	H	0.791929	-0.628646	-0.026126
O114	O	0.834645	-0.226829	-0.068899
C115	C	0.789792	-0.191809	-0.024058
H116	H	0.821990	-0.153727	-0.021665
H117	H	0.780819	-0.207241	0.038027
H118	H	0.730298	-0.186142	-0.052276
O119	O	1.085879	-0.527569	-0.320226
C120	C	1.130696	-0.562593	-0.365094
H121	H	1.133114	-0.600667	-0.332884
H122	H	1.192775	-0.547155	-0.374111
H123	H	1.102442	-0.568278	-0.424567
H124	H	1.077797	-0.371456	-0.312222
H125	H	1.027441	-0.000045	0.322847
H126	H	0.794365	-0.000043	0.060564
O127	O	1.085901	-0.632809	-0.320082
C128	C	1.136287	-0.663707	-0.275781
H129	H	1.140562	-0.647606	-0.213859
H130	H	1.197114	-0.664308	-0.304843
H131	H	1.111931	-0.704192	-0.272819
O132	O	0.819832	-0.000064	0.428532
C133	C	0.752710	-0.000049	0.478250
H134	H	0.768575	-0.016113	0.538062
H135	H	0.705096	-0.024685	0.451340
H136	H	0.730183	0.040662	0.485550
O137	O	0.175535	0.000013	-0.040650
C138	C	0.128368	0.043954	-0.032417
H139	H	0.150482	0.074677	-0.074736
H140	H	0.131506	0.058699	0.030389
H141	H	0.064975	0.034019	-0.046244
H142	H	0.688384	-0.000034	-0.286042
H143	H	0.330076	-0.000072	-0.064848
H144	H	0.164583	-0.000056	-0.309653
H145	H	0.791907	-0.371509	-0.026108
O146	O	0.550560	0.000029	-0.004499
C147	C	0.503392	0.043970	0.003733
H148	H	0.525501	0.074691	-0.038594
H149	H	0.506539	0.058720	0.066536
H150	H	0.439999	0.034034	-0.010085
O151	O	0.770188	0.000029	0.215157
C152	C	0.761961	0.043984	0.262300
H153	H	0.822508	0.058632	0.278583
H154	H	0.727083	0.034102	0.318022
H155	H	0.729639	0.074762	0.228418
O156	O	0.783860	-0.527639	-0.018118
C157	C	0.739050	-0.562682	0.026750
H158	H	0.736645	-0.600755	-0.005456
H159	H	0.676967	-0.547267	0.035762
H160	H	0.767303	-0.568359	0.086226
H161	H	1.027046	-0.777411	-0.261404
H162	H	0.705099	-0.000053	-0.028702
O163	O	0.448440	0.000017	-0.273511
C164	C	0.425626	0.043976	-0.314955
H165	H	0.367392	0.058623	-0.289777
H166	H	0.418610	0.034098	-0.379600
H167	H	0.472427	0.074751	-0.309003
O168	O	1.063449	-0.000047	0.071680
C169	C	1.121512	-0.000061	0.129527
H170	H	1.095800	0.016006	0.186633
H171	H	1.173118	0.024574	0.109052
H172	H	1.142568	-0.040772	0.139671
O173	O	0.834730	-0.878472	-0.068905
C174	C	0.789884	-0.843451	-0.024059
H175	H	0.822089	-0.805372	-0.021661
H176	H	0.780909	-0.858886	0.038025
H177	H	0.730391	-0.837778	-0.052275
O178	O	0.834696	-0.773208	-0.069085
C179	C	0.784274	-0.742333	-0.113384
H180	H	0.812599	-0.734312	-0.173285
H181	H	0.773396	-0.704780	-0.081221
H182	H	0.726056	-0.762939	-0.121468
O183	O	1.034898	-0.121617	-0.269494
C184	C	1.018425	-0.134663	-0.347746
H185	H	0.988194	-0.173450	-0.349068
H186	H	1.075547	-0.136483	-0.383599
H187	H	0.978216	-0.104608	-0.373849
O188	O	1.035071	-0.226795	-0.269346
C189	C	1.113335	-0.213735	-0.252925
H190	H	1.114672	-0.174956	-0.222685
H191	H	1.149146	-0.211891	-0.310071
H192	H	1.139471	-0.243795	-0.212743
O193	O	1.049708	-0.000131	0.233313
C194	C	1.049943	-0.044083	0.281025
H195	H	0.987325	-0.058730	0.289312
H196	H	1.075101	-0.034196	0.340643
H197	H	1.087590	-0.074862	0.251703
O198	O	0.834626	-0.121547	-0.069079
C199	C	0.784206	-0.090663	-0.113365
H200	H	0.812508	-0.082660	-0.173282
H201	H	0.773372	-0.053103	-0.081211
H202	H	0.725968	-0.111252	-0.121412
H203	H	1.087853	-0.000066	0.452293
H204	H	1.075316	-0.000062	0.601079
