data_functionalizedCrystal
_audit_creation_method	'MofGen! by Chris Wilmer'
_symmetry_space_group_name_H-M	'P1'
_symmetry_Int_Tables_number	1
_symmetry_cell_setting	triclinic
loop_
_symmetry_equiv_pos_as_xyz
  x,y,z
_cell_length_a	15.995292
_cell_length_b	15.995350
_cell_length_c	18.366186
_cell_angle_alpha	89.995992
_cell_angle_beta	89.989780
_cell_angle_gamma	83.480495
loop_
_atom_site_label
_atom_site_type_symbol
_atom_site_fract_x
_atom_site_fract_y
_atom_site_fract_z
O1	O	1.111021	0.107696	-0.060566
O2	O	0.867239	0.121074	-0.060562
O3	O	0.995794	-0.007504	-0.060563
O4	O	0.982466	0.236274	-0.060565
O5	O	0.995772	-0.007510	0.060536
O6	O	0.867217	0.121068	0.060537
O7	O	1.110999	0.107690	0.060534
Zn8	Zn	0.989105	0.114378	0.079762
Zn9	Zn	0.989134	0.114386	-0.079791
O10	O	0.982445	0.236268	0.060535
C11	C	0.836033	0.120527	-0.000012
C12	C	0.743080	0.118894	-0.000011
C13	C	0.405341	0.112893	-0.000019
C14	C	0.428654	0.205697	-0.000290
C15	C	0.525329	0.207461	-0.000014
C16	C	0.572897	0.115871	-0.000016
C17	C	0.543783	0.069469	0.069136
C18	C	0.446992	0.068352	0.069191
C19	C	0.447162	0.066464	-0.068522
C20	C	0.543655	0.069904	-0.069433
C21	C	0.667593	0.117549	-0.000011
C22	C	0.310646	0.111212	-0.000019
C23	C	0.995232	-0.038702	-0.000015
C24	C	0.993580	-0.131652	-0.000019
C25	C	0.987648	-0.469398	-0.000017
C26	C	0.896094	-0.421945	-0.000287
C27	C	0.897746	-0.325255	-0.000014
C28	C	0.990591	-0.301838	-0.000018
C29	C	1.035736	-0.342929	0.069133
C30	C	1.033436	-0.439564	0.069191
C31	C	1.035352	-0.439915	-0.068521
C32	C	1.035331	-0.342970	-0.069435
C33	C	0.992259	-0.207141	-0.000017
C34	C	0.985983	-0.564095	-0.000013
C35	C	1.142206	0.108237	-0.000018
C36	C	1.235159	0.109870	-0.000024
C37	C	0.983006	0.267466	-0.000015
C38	C	0.984658	0.360416	-0.000016
N39	N	0.989091	0.114372	0.188654
N40	N	0.989154	0.114386	-0.188682
C41	C	1.046034	0.057465	0.226754
C42	C	1.046040	0.057461	0.302981
C43	C	0.989110	0.114378	0.341106
C44	C	0.932157	0.171289	0.302997
C45	C	0.932147	0.171286	0.226771
C46	C	0.978140	0.190637	0.461866
C47	C	0.978155	0.190642	0.538091
C48	C	0.989134	0.114389	0.576214
C49	C	1.000115	0.038128	0.538102
C50	C	1.000106	0.038125	0.461876
C51	C	0.989113	0.114388	0.423761
C52	C	1.046086	0.057474	0.696969
C53	C	1.046085	0.057469	0.773198
C54	C	0.932206	0.171304	0.773212
C55	C	0.932203	0.171302	0.696985
C56	C	0.989147	0.114387	0.658867
H57	H	0.400667	0.241471	-0.049882
H58	H	1.005428	-0.460446	-0.120934
H59	H	1.092452	0.011124	0.804219
H60	H	0.576625	0.003052	-0.073611
H61	H	0.859509	-0.440466	-0.049877
C62	C	0.428256	-0.025818	-0.069157
N63	N	0.414009	-0.095323	-0.069630
H64	H	1.103946	-0.328817	0.071702
C65	C	1.012175	-0.045760	0.419956
N66	N	1.021260	-0.108944	0.388381
C67	C	0.570859	0.112999	0.138662
N68	N	0.591248	0.145792	0.191028
C69	C	0.849459	-0.287601	0.067071
N70	N	0.813089	-0.259241	0.117604
C71	C	0.389445	0.253752	0.066332
N72	N	0.359912	0.289944	0.116513
C73	C	1.012191	-0.045757	0.580031
N74	N	1.021287	-0.108937	0.611615
H75	H	1.002324	-0.315712	-0.120592
C76	C	0.849796	-0.286842	-0.066979
N77	N	0.813674	-0.257912	-0.117416
H78	H	1.000498	-0.457861	0.120886
C79	C	0.993348	-0.304589	0.138659
N80	N	0.961415	-0.275713	0.191025
C81	C	1.108717	-0.005140	0.655037
N82	N	1.155890	-0.052303	0.623456
C83	C	0.846873	-0.448382	0.066350
N84	N	0.809806	-0.468288	0.116548
C85	C	0.869583	0.233915	0.815145
N86	N	0.822413	0.281074	0.846733
C87	C	0.410747	0.111775	0.139018
N88	N	0.383450	0.144489	0.191611
H89	H	0.885838	0.217644	0.665962
H90	H	1.103038	-0.327622	-0.073614
C91	C	0.409009	0.105750	-0.139332
N92	N	0.380274	0.135352	-0.192663
H93	H	1.100653	-0.471826	0.072326
C94	C	1.126543	-0.482846	-0.069157
N95	N	1.195225	-0.515188	-0.069631
C96	C	1.108667	-0.005151	0.184829
N97	N	1.155839	-0.052316	0.153250
C98	C	1.108692	-0.005134	0.344900
N99	N	1.155885	-0.052278	0.376470
C100	C	0.966067	0.274530	0.580007
N101	N	0.956957	0.337716	0.611576
H102	H	0.969185	0.252736	0.430833
C103	C	0.550185	0.256831	0.067075
N104	N	0.568905	0.294014	0.117611
H105	H	0.885802	0.217631	0.334042
C106	C	0.869539	0.233926	0.184860
N107	N	0.822396	0.281122	0.153291
H108	H	0.544365	0.243796	-0.049586
H109	H	0.432442	0.000308	0.072331
C110	C	0.586863	-0.021572	0.072628
N111	N	0.619322	-0.090140	0.075262
H112	H	0.562233	0.103689	-0.120591
