data_functionalizedCrystal
_audit_creation_method	'MofGen! by Chris Wilmer'
_symmetry_space_group_name_H-M	'P1'
_symmetry_Int_Tables_number	1
_symmetry_cell_setting	triclinic
loop_
_symmetry_equiv_pos_as_xyz
  x,y,z
_cell_length_a	12.759401
_cell_length_b	19.121063
_cell_length_c	12.759393
_cell_angle_alpha	92.402917
_cell_angle_beta	89.981504
_cell_angle_gamma	92.469017
loop_
_atom_site_label
_atom_site_type_symbol
_atom_site_fract_x
_atom_site_fract_y
_atom_site_fract_z
Zn1	Zn	1.588321	-0.279568	-0.611771
Zn2	Zn	1.921655	0.053765	-0.278438
Zn3	Zn	2.254988	0.387098	0.054895
Zn4	Zn	1.580680	-0.397037	-0.443567
Zn5	Zn	1.914013	-0.063704	-0.110233
Zn6	Zn	2.247347	0.269630	0.223100
Zn7	Zn	1.412621	-0.279605	-0.436113
Zn8	Zn	1.745954	0.053728	-0.102780
Zn9	Zn	2.079288	0.387062	0.230554
Zn10	Zn	1.405080	-0.396983	-0.619205
Zn11	Zn	1.738413	-0.063650	-0.285871
Zn12	Zn	2.071746	0.269684	0.047462
O13	O	1.496676	-0.338298	-0.527664
O14	O	1.830009	-0.004965	-0.194331
O15	O	2.163342	0.328368	0.139003
O16	O	1.734328	-0.295158	-0.589467
O17	O	2.067662	0.038175	-0.256134
O18	O	2.400995	0.371509	0.077200
O19	O	1.558345	-0.381497	-0.295559
O20	O	1.891678	-0.048164	0.037774
O21	O	2.225011	0.285169	0.371108
O22	O	1.442282	-0.181316	-0.453184
O23	O	1.775615	0.152017	-0.119851
O24	O	2.108948	0.485351	0.213482
O25	O	1.728714	-0.381462	-0.465888
O26	O	2.062048	-0.048128	-0.132554
O27	O	2.395381	0.285205	0.200779
O28	O	1.571368	-0.181289	-0.582240
O29	O	1.904701	0.152044	-0.248907
O30	O	2.238035	0.485378	0.084427
O31	O	1.434872	-0.295221	-0.290083
O32	O	1.768206	0.038113	0.043250
O33	O	2.101539	0.371446	0.376584
O34	O	1.264600	-0.295168	-0.460392
O35	O	1.597933	0.038165	-0.127059
O36	O	1.931267	0.371498	0.206275
O37	O	1.429429	-0.381370	-0.765237
O38	O	1.762762	-0.048036	-0.431904
O39	O	2.096096	0.285297	-0.098571
O40	O	1.259060	-0.381405	-0.594909
O41	O	1.592393	-0.048072	-0.261575
O42	O	1.925726	0.285261	0.071758
O43	O	1.564056	-0.295106	-0.759776
O44	O	1.897389	0.038228	-0.426443
O45	O	2.230722	0.371561	-0.093109
O46	O	1.551032	-0.495314	-0.473095
O47	O	1.884366	-0.161981	-0.139762
O48	O	2.217699	0.171353	0.193571
O49	O	1.422020	-0.495274	-0.602136
O50	O	1.755353	-0.161941	-0.268802
O51	O	2.088686	0.171392	0.064531
C52	C	1.223709	-0.338285	-0.527649
C53	C	1.557042	-0.004952	-0.194315
C54	C	1.890376	0.328381	0.139018
C55	C	1.106932	-0.338297	-0.527668
C56	C	1.440265	-0.004963	-0.194335
C57	C	1.773598	0.328370	0.138998
C58	C	1.049208	-0.383272	-0.597605
C59	C	1.382541	-0.049939	-0.264271
C60	C	1.715874	0.283394	0.069062
C61	C	0.939483	-0.383281	-0.597616
C62	C	1.272816	-0.049948	-0.264283
C63	C	1.606150	0.283385	0.069050
C64	C	0.945216	-0.293337	-0.457747
C65	C	1.278550	0.039996	-0.124414
C66	C	1.611883	0.373330	0.208920
C67	C	1.054939	-0.293325	-0.457741
C68	C	1.388272	0.040008	-0.124408
C69	C	1.721606	0.373342	0.208926
C70	C	1.045897	-0.435203	-0.678354
C71	C	1.379230	-0.101870	-0.345021
C72	C	1.712563	0.231464	-0.011687
C73	C	0.936172	-0.435212	-0.678366
C74	C	1.269505	-0.101879	-0.345033
C75	C	1.602839	0.231455	-0.011699
C76	C	1.484907	-0.520778	-0.539254
C77	C	1.818240	-0.187445	-0.205921
C78	C	2.151574	0.145889	0.127413
C79	C	1.479969	-0.598844	-0.544247
C80	C	1.813302	-0.265510	-0.210914
C81	C	2.146635	0.067823	0.122419
C82	C	1.544871	-0.635516	-0.479464
C83	C	1.878204	-0.302183	-0.146131
C84	C	2.211538	0.031150	0.187202
C85	C	1.540233	-0.708867	-0.484167
C86	C	1.873566	-0.375534	-0.150833
C87	C	2.206899	-0.042201	0.182500
C88	C	1.470686	-0.745544	-0.553648
C89	C	1.804019	-0.412211	-0.220314
C90	C	2.137353	-0.078878	0.113019
C91	C	1.405781	-0.708866	-0.618438
C92	C	1.739115	-0.375533	-0.285104
C93	C	2.072448	-0.042200	0.048229
C94	C	1.410426	-0.635517	-0.613740
C95	C	1.743759	-0.302183	-0.280406
C96	C	2.077092	0.031150	0.052927
C97	C	1.453305	-0.967013	-0.571195
C98	C	1.786638	-0.633679	-0.237862
C99	C	2.119971	-0.300346	0.095471
C100	C	1.448663	-1.040368	-0.575886
C101	C	1.781996	-0.707034	-0.242553
C102	C	2.115330	-0.373701	0.090781
C103	C	1.583116	-1.040364	-0.441616
C104	C	1.916450	-0.707030	-0.108283
C105	C	2.249783	-0.373697	0.225051
C106	C	1.587750	-0.967013	-0.436920
C107	C	1.921083	-0.633679	-0.103587
C108	C	2.254417	-0.300346	0.229747
C109	C	1.522849	-0.930341	-0.501714
C110	C	1.856183	-0.597008	-0.168380
C111	C	2.189516	-0.263674	0.164953
C112	C	1.465941	-0.820521	-0.558454
C113	C	1.799274	-0.487187	-0.225120
C114	C	2.132608	-0.153854	0.108213
C115	C	1.527600	-0.855366	-0.496912
C116	C	1.860934	-0.522033	-0.163579
C117	C	2.194267	-0.188699	0.169754
C118	C	1.770708	-0.338312	-0.527680
C119	C	2.104041	-0.004978	-0.194346
C120	C	2.437375	0.328355	0.138987
C121	C	1.887484	-0.338318	-0.527686
C122	C	2.220818	-0.004984	-0.194353
C123	C	2.554151	0.328349	0.138980
C124	C	1.496754	-0.338227	-0.801693
C125	C	1.830087	-0.004894	-0.468359
C126	C	2.163420	0.328439	-0.135026
C127	C	1.496787	-0.338197	-0.918468
C128	C	1.830120	-0.004864	-0.585134
C129	C	2.163454	0.328469	-0.251801
C130	C	1.508518	-0.155106	-0.516052
C131	C	1.841852	0.178227	-0.182718
C132	C	2.175185	0.511561	0.150615
C133	C	1.513565	-0.077040	-0.511103
C134	C	1.846899	0.256293	-0.177770
C135	C	2.180232	0.589626	0.155563
C136	C	1.566897	-0.293275	-0.970488
C137	C	1.900230	0.040058	-0.637154
C138	C	2.233563	0.373391	-0.303821
C139	C	1.566923	-0.293250	-1.080210
C140	C	1.900257	0.040083	-0.746877
C141	C	2.233590	0.373417	-0.413543
C142	C	1.426727	-0.383075	-1.085884
C143	C	1.760060	-0.049741	-0.752550
C144	C	2.093394	0.283592	-0.419217
C145	C	1.426696	-0.383096	-0.976163
C146	C	1.760030	-0.049762	-0.642829
C147	C	2.093363	0.283571	-0.309496
C148	C	1.647841	-0.241418	-0.967213
C149	C	1.981174	0.091916	-0.633880
C150	C	2.314508	0.425249	-0.300546
C151	C	1.647867	-0.241392	-1.076936
C152	C	1.981201	0.091941	-0.743602
C153	C	2.314534	0.425274	-0.410269
C154	C	1.496661	-0.338318	-0.254698
C155	C	1.829995	-0.004985	0.078636
C156	C	2.163328	0.328348	0.411969
C157	C	1.496844	-0.338151	-0.137911
C158	C	1.830178	-0.004817	0.195422
C159	C	2.163511	0.328516	0.528756
H160	H	1.076598	-0.486846	-0.652356
H161	H	1.409931	-0.153513	-0.319023
H162	H	1.743264	0.179820	0.014311
H163	H	1.392042	-1.070228	-0.632484
H164	H	1.725376	-0.736894	-0.299151
H165	H	2.058709	-0.403561	0.034183
H166	H	1.357577	-0.605658	-0.666494
H167	H	1.690910	-0.272325	-0.333161
H168	H	2.024243	0.061008	0.000173
H169	H	1.723862	-0.260917	-0.934418
H170	H	2.057195	0.072416	-0.601085
H171	H	2.390528	0.405750	-0.267751
H172	H	1.369660	-0.419628	-1.132872
H173	H	1.702993	-0.086294	-0.799539
H174	H	2.036326	0.247039	-0.466205
H175	H	1.349159	-0.738734	-0.675015
H176	H	1.682493	-0.405401	-0.341682
H177	H	2.015826	-0.072068	-0.008348
H178	H	0.903420	-0.415796	-0.754482
H179	H	1.236753	-0.082463	-0.421149
H180	H	1.570086	0.250871	-0.087816
H181	H	0.902888	-0.489594	-0.659894
H182	H	1.236221	-0.156261	-0.326561
H183	H	1.569554	0.177072	0.006772
H184	H	1.601498	-0.605659	-0.422881
H185	H	1.934832	-0.272326	-0.089548
H186	H	2.268165	0.061008	0.243786
H187	H	1.584229	-0.825502	-0.440345
H188	H	1.917563	-0.492168	-0.107012
H189	H	2.250896	-0.158835	0.226322
H190	H	1.593082	-0.738723	-0.431413
H191	H	1.926415	-0.405390	-0.098079
H192	H	2.259749	-0.072056	0.235254
H193	H	1.629561	-0.187026	-0.933996
H194	H	1.962895	0.146308	-0.600663
H195	H	2.296228	0.479641	-0.267329
H196	H	1.728304	-0.255961	-1.107641
H197	H	2.061637	0.077373	-0.774308
H198	H	2.394970	0.410706	-0.440974
H199	H	1.076635	-0.420697	-0.758838
H200	H	1.409969	-0.087364	-0.425504
H201	H	1.743302	0.245970	-0.092171
H202	H	1.101934	-0.256697	-0.400799
H203	H	1.435268	0.076636	-0.067465
H204	H	1.768601	0.409970	0.265868
H205	H	1.644380	-0.937152	-0.380343
H206	H	1.977714	-0.603818	-0.047010
H207	H	2.311047	-0.270485	0.286323
H208	H	1.635956	-1.070229	-0.388866
H209	H	1.969290	-0.736896	-0.055533
H210	H	2.302623	-0.403563	0.277800
H211	H	1.409314	-0.850391	-0.615023
H212	H	1.742647	-0.517058	-0.281690
H213	H	2.075980	-0.183724	0.051644
H214	H	1.400458	-0.937161	-0.623951
H215	H	1.733791	-0.603827	-0.290618
H216	H	2.067125	-0.270494	0.042716
H217	H	1.369603	-0.419673	-0.933812
H218	H	1.702936	-0.086340	-0.600479
H219	H	2.036269	0.246994	-0.267146
H220	H	1.622069	-0.189711	-1.107695
H221	H	1.955402	0.143622	-0.774361
H222	H	2.288736	0.476956	-0.441028
H223	H	0.902870	-0.256722	-0.400815
H224	H	1.236204	0.076611	-0.067482
H225	H	1.569537	0.409944	0.265851
