data_functionalizedCrystal
_audit_creation_method	'MofGen! by Chris Wilmer'
_symmetry_space_group_name_H-M	'P1'
_symmetry_Int_Tables_number	1
_symmetry_cell_setting	triclinic
loop_
_symmetry_equiv_pos_as_xyz
  x,y,z
_cell_length_a	17.077404
_cell_length_b	16.625545
_cell_length_c	17.077396
_cell_angle_alpha	90.027926
_cell_angle_beta	90.019501
_cell_angle_gamma	90.025783
loop_
_atom_site_label
_atom_site_type_symbol
_atom_site_fract_x
_atom_site_fract_y
_atom_site_fract_z
Zn1	Zn	1.200040	-0.320997	0.443846
Zn2	Zn	1.199941	-0.455839	0.312581
Zn3	Zn	1.068772	-0.321025	0.312594
Zn4	Zn	1.068734	-0.455792	0.443805
O5	O	1.134372	-0.388413	0.378206
O6	O	1.309874	-0.338892	0.426445
O7	O	1.182516	-0.437988	0.202736
O8	O	1.086242	-0.208189	0.330027
O9	O	1.309801	-0.437960	0.330005
O10	O	1.182684	-0.208168	0.426457
O11	O	1.086146	-0.338940	0.202745
O12	O	0.958920	-0.338894	0.329987
O13	O	1.086177	-0.437879	0.553657
O14	O	0.958892	-0.437906	0.426387
O15	O	1.182647	-0.338846	0.553687
O16	O	1.182479	-0.568666	0.329966
O17	O	1.086081	-0.568630	0.426375
C18	C	0.930424	-0.388399	0.378185
C19	C	0.843174	-0.388412	0.378194
C20	C	0.802190	-0.440045	0.428309
C21	C	0.720209	-0.440047	0.428322
C22	C	0.679215	-0.388419	0.378214
C23	C	0.720205	-0.336780	0.328097
C24	C	0.802184	-0.336774	0.328089
C25	C	0.549335	-0.336795	0.328116
C26	C	0.467350	-0.336801	0.328123
C27	C	0.467360	-0.440068	0.428348
C28	C	0.549339	-0.440063	0.428340
C29	C	0.590324	-0.388425	0.378222
C30	C	1.134286	-0.597904	0.378182
C31	C	1.134322	-0.687525	0.378197
C32	C	1.134352	-0.760308	0.378213
C33	C	1.134398	-0.851616	0.378230
C34	C	1.134439	-0.924393	0.378240
C35	C	1.134484	-1.015707	0.378256
C36	C	1.339116	-0.388429	0.378228
C37	C	1.426366	-0.388435	0.378238
C38	C	1.134419	-0.388354	0.582951
C39	C	1.134439	-0.388329	0.670200
C40	C	1.134479	-0.178104	0.378248
C41	C	1.134524	-0.088483	0.378266
C42	C	1.134370	-0.388414	0.174258
C43	C	1.134501	-0.388212	0.087009
C44	C	1.184673	-0.336758	0.711208
C45	C	1.184683	-0.336731	0.793188
C46	C	1.134462	-0.388280	0.834160
C47	C	1.084222	-0.439853	0.793147
C48	C	1.084209	-0.439875	0.711168
C49	C	1.084254	-0.439804	0.964017
C50	C	1.084268	-0.439783	1.046002
C51	C	1.184727	-0.336660	1.046037
C52	C	1.184714	-0.336682	0.964058
C53	C	1.134476	-0.388257	0.923051
H54	H	0.835562	-0.482090	0.469109
H55	H	0.433974	-0.294752	0.287331
H56	H	0.582701	-0.294739	0.287311
N57	N	1.032936	-0.492399	1.087860
N58	N	0.960507	-0.487001	1.078695
H59	H	0.924245	-0.524149	1.108264
H60	H	1.043329	-0.481822	0.826513
N61	N	1.032909	-0.492567	0.669278
N62	N	1.060494	-0.543963	0.623528
H63	H	1.024260	-0.581178	0.593944
H64	H	0.686820	-0.294739	0.287303
N65	N	0.678350	-0.492811	0.479496
N66	N	0.632580	-0.544159	0.451785
H67	H	0.603018	-0.581430	0.487927
H68	H	0.582715	-0.482108	0.469138
H69	H	0.835552	-0.294725	0.287285
N70	N	1.236012	-0.284039	0.922191
N71	N	1.286005	-0.312429	0.876445
H72	H	1.322234	-0.275248	0.846873
H73	H	0.433987	-0.482112	0.469159
H74	H	1.225572	-0.294783	0.677854
H75	H	1.225590	-0.294739	0.826573
N76	N	1.236042	-0.283984	1.087933
N77	N	1.236047	-0.283967	1.161128
H78	H	1.272289	-0.246768	1.190720
H79	H	1.043332	-0.481789	0.930632
