data_functionalizedCrystal
_audit_creation_method	'MofGen! by Chris Wilmer'
_symmetry_space_group_name_H-M	'P1'
_symmetry_Int_Tables_number	1
_symmetry_cell_setting	triclinic
loop_
_symmetry_equiv_pos_as_xyz
  x,y,z
_cell_length_a	17.038272
_cell_length_b	19.188930
_cell_length_c	15.500227
_cell_angle_alpha	92.813384
_cell_angle_beta	86.956295
_cell_angle_gamma	87.128169
loop_
_atom_site_label
_atom_site_type_symbol
_atom_site_fract_x
_atom_site_fract_y
_atom_site_fract_z
O1	O	1.040536	0.148564	-0.071852
O2	O	1.540536	0.648564	0.428148
O3	O	0.812914	0.146156	-0.071877
O4	O	1.312914	0.646156	0.428123
O5	O	0.933292	0.046114	-0.071847
O6	O	1.433292	0.546114	0.428153
O7	O	0.920157	0.248607	-0.071882
O8	O	1.420157	0.748607	0.428118
O9	O	0.925988	0.052159	0.072040
O10	O	1.425988	0.552159	0.572040
O11	O	0.805609	0.152202	0.072009
O12	O	1.305609	0.652202	0.572009
O13	O	1.033231	0.154610	0.072035
O14	O	1.533231	0.654610	0.572035
Cu15	Cu	0.918753	0.153958	0.085160
Cu16	Cu	1.418753	0.653958	0.585160
Cu17	Cu	0.927392	0.146808	-0.085003
Cu18	Cu	1.427392	0.646808	0.414997
O19	O	0.912852	0.254653	0.072004
O20	O	1.412852	0.754653	0.572004
C21	C	0.780140	0.146990	0.000063
C22	C	1.280140	0.646990	0.500063
C23	C	0.693368	0.140458	0.000054
C24	C	1.193368	0.640458	0.500054
C25	C	0.643067	0.200424	0.000044
C26	C	1.143067	0.700424	0.500044
C27	C	0.561535	0.194283	0.000057
C28	C	1.061535	0.694283	0.500057
C29	C	0.530306	0.128176	0.000074
C30	C	1.030306	0.628176	0.500074
C31	C	0.580613	0.068205	0.000086
C32	C	1.080613	0.568205	0.500086
C33	C	0.662143	0.074347	0.000080
C34	C	1.162143	0.574347	0.500080
C35	C	0.284614	0.106479	0.000101
C36	C	0.784614	0.606479	0.500101
C37	C	0.203078	0.100342	0.000105
C38	C	0.703078	0.600342	0.500105
C39	C	0.184005	0.226421	0.000078
C40	C	0.684005	0.726421	0.500078
C41	C	0.265538	0.232556	0.000066
C42	C	0.765538	0.732556	0.500066
C43	C	0.315838	0.172586	0.000083
C44	C	0.815838	0.672586	0.500083
C45	C	0.446967	0.121897	0.000085
C46	C	0.946967	0.621897	0.500085
C47	C	0.399174	0.178865	0.000078
C48	C	0.899174	0.678865	0.500078
C49	C	0.929214	0.023099	0.000099
C50	C	1.429214	0.523099	0.500099
C51	C	0.927937	-0.054485	0.000106
C52	C	1.427937	0.445515	0.500106
C53	C	0.998572	-0.095020	0.000118
C54	C	1.498572	0.404980	0.500118
C55	C	0.997373	-0.167919	0.000104
C56	C	1.497373	0.332081	0.500104
C57	C	0.925534	-0.200279	0.000095
C58	C	1.425534	0.299721	0.500095
C59	C	0.854890	-0.159734	0.000079
C60	C	1.354890	0.340266	0.500079
C61	C	0.856092	-0.086837	0.000084
C62	C	1.356092	0.413163	0.500084
N63	N	0.868136	-0.309638	0.049057
N64	N	1.368136	0.190362	0.549057
N65	N	0.866999	-0.378887	0.049053
N66	N	1.366999	0.121113	0.549053
C67	C	0.921909	-0.419913	0.000077
C68	C	1.421909	0.080087	0.500077
N69	N	0.978011	-0.389074	-0.048884
N70	N	1.478011	0.110926	0.451116
N71	N	0.979150	-0.319818	-0.048877
N72	N	1.479150	0.180182	0.451123
C73	C	0.924223	-0.279323	0.000089
C74	C	1.424223	0.220677	0.500089
C75	C	0.991249	-0.539494	0.000073
C76	C	1.491249	-0.039494	0.500073
C77	C	0.990047	-0.612395	0.000054
C78	C	1.490047	-0.112395	0.500054
C79	C	0.847562	-0.604208	0.000037
C80	C	1.347562	-0.104208	0.500037
C81	C	0.848767	-0.531310	0.000048
C82	C	1.348767	-0.031310	0.500048
C83	C	0.920612	-0.498957	0.000070
C84	C	1.420612	0.001043	0.500070
C85	C	1.066004	0.153776	0.000092
C86	C	1.566004	0.653776	0.500092
C87	C	1.152777	0.160308	0.000095
C88	C	1.652777	0.660308	0.500095
C89	C	0.916930	0.277667	0.000057
C90	C	1.416930	0.777667	0.500057
C91	C	0.918208	0.355250	0.000044
C92	C	1.418208	0.855250	0.500044
N93	N	0.912682	0.158986	0.204843
N94	N	1.412682	0.658986	0.704843
N95	N	0.933468	0.141775	-0.204686
N96	N	1.433468	0.641775	0.295314
C97	C	0.963709	0.116612	0.250133
C98	C	1.463709	0.616612	0.750133
C99	C	0.959125	0.120422	0.340705
C100	C	1.459125	0.620422	0.840705
C101	C	0.903518	0.166610	0.385985
C102	C	1.403518	0.666610	0.885985
C103	C	0.852486	0.208985	0.340689
C104	C	1.352486	0.708985	0.840689
C105	C	0.857067	0.205171	0.250119
C106	C	1.357067	0.705171	0.750119
C107	C	0.887017	0.180337	0.659448
C108	C	1.387017	0.680337	1.159448
C109	C	0.882442	0.184149	0.750024
C110	C	1.382442	0.684149	1.250024
C111	C	0.989080	0.095584	0.750033
C112	C	1.489080	0.595584	1.250033
C113	C	0.993659	0.091778	0.659461
C114	C	1.493659	0.591778	1.159461
C115	C	0.942624	0.134150	0.614174
C116	C	1.442624	0.634150	1.114174
C117	C	0.898833	0.170506	0.478564
C118	C	1.398833	0.670506	0.978564
C119	C	0.947306	0.130250	0.521596
C120	C	1.447306	0.630250	1.021596
H121	H	0.325559	0.057647	0.000115
H122	H	0.825559	0.557647	0.500115
H123	H	0.789070	-0.630555	0.000026
H124	H	1.289070	-0.130555	0.500026
H125	H	0.791248	-0.498305	0.000043
H126	H	1.291248	0.001695	0.500043
O127	O	1.047582	0.046680	0.615711
O128	O	1.547582	0.546680	1.115711
C129	C	1.094998	-0.073241	0.588693
C130	C	1.594998	0.426759	1.088693
C131	C	1.033877	-0.022164	0.638151
C132	C	1.533877	0.477836	1.138151
H133	H	1.083949	-0.128911	0.606831
H134	H	1.583949	0.371089	1.106831
H135	H	1.089674	-0.068948	0.516117
H136	H	1.589674	0.431052	1.016117
H137	H	1.156660	-0.059664	0.606563
H138	H	1.656660	0.440336	1.106563
H139	H	0.972188	-0.035707	0.620353
H140	H	1.472188	0.464293	1.120353
H141	H	1.039270	-0.026466	0.710715
H142	H	1.539270	0.473534	1.210715
O143	O	1.061107	-0.508176	0.000041
O144	O	1.561107	-0.008176	0.500041
C145	C	1.202301	-0.523986	0.000090
C146	C	1.702301	-0.023986	0.500090
C147	C	1.123244	-0.559541	0.000111
C148	C	1.623244	-0.059541	0.500111
H149	H	1.252558	-0.565498	0.000166
H150	H	1.752558	-0.065498	0.500166
H151	H	1.209530	-0.492604	-0.060137
H152	H	1.709530	0.007396	0.439863
H153	H	1.203332	-0.487521	0.060296
H154	H	1.703332	0.012479	0.560296
H155	H	1.122157	-0.596039	-0.060053
H156	H	1.622157	-0.096039	0.439947
H157	H	1.116046	-0.590879	0.060379
H158	H	1.616046	-0.090879	0.560379
H159	H	1.054894	-0.200929	0.000110
H160	H	1.554894	0.299071	0.500110
H161	H	1.057074	-0.068683	0.000133
H162	H	1.557074	0.431317	0.500133
H163	H	0.837158	0.221763	0.786888
H164	H	1.337158	0.721763	1.286888
O165	O	0.710899	0.016023	0.000046
O166	O	1.210899	0.516023	0.500046
C167	C	0.721215	-0.109676	0.000121
C168	C	1.221215	0.390324	0.500121
C169	C	0.665913	-0.043681	0.000135
C170	C	1.165913	0.456319	0.500135
H171	H	0.684865	-0.157961	0.000212
H172	H	1.184865	0.342039	0.500212
H173	H	0.762898	-0.112533	-0.060112
H174	H	1.262898	0.387467	0.439888
H175	H	0.756831	-0.107382	0.060321
H176	H	1.256831	0.392618	0.560321
H177	H	0.630246	-0.045929	-0.060024
H178	H	1.130246	0.454071	0.439976
H179	H	0.624282	-0.040847	0.060408
H180	H	1.124282	0.459153	0.560408
H181	H	0.424604	0.232690	0.000070
H182	H	0.924604	0.732690	0.500070
H183	H	0.796399	-0.186087	0.000070
H184	H	1.296399	0.313913	0.500070
H185	H	1.030629	0.061085	0.786915
H186	H	1.530629	0.561085	1.286915
H187	H	0.845464	0.214840	0.622582
H188	H	1.345464	0.714840	1.122582
O189	O	0.416599	0.057691	-0.000059
O190	O	0.916599	0.557691	0.499941
C191	C	0.339337	-0.025514	-0.074557
C192	C	0.839337	0.474486	0.425443
C193	C	0.373702	0.047208	-0.074515
C194	C	0.873702	0.547208	0.425485
H195	H	0.304634	-0.034006	-0.134738
H196	H	0.804634	0.465994	0.365262
H197	H	0.389261	-0.067358	-0.074612
H198	H	0.889261	0.432642	0.425388
H199	H	0.298628	-0.028994	-0.014308
H200	H	0.798628	0.471006	0.485692
H201	H	0.414402	0.050757	-0.134753
H202	H	0.914402	0.550757	0.365247
H203	H	0.323739	0.089018	-0.074415
H204	H	0.823739	0.589018	0.425585
H205	H	0.798571	-0.053833	0.000074
H206	H	1.298571	0.446167	0.500074
H207	H	0.290958	0.286387	0.000042
H208	H	0.790958	0.786387	0.500042
O209	O	1.008783	0.079241	0.384564
O210	O	1.508783	0.579241	0.884564
C211	C	1.115025	-0.009016	0.375015
C212	C	1.615025	0.490984	0.875015
C213	C	1.058841	0.037592	0.325237
C214	C	1.558841	0.537592	0.825237
H215	H	1.155500	-0.042711	0.327071
H216	H	1.655500	0.457289	0.827071
H217	H	1.151873	0.025223	0.417375
H218	H	1.651873	0.525223	0.917375
H219	H	1.079250	-0.044100	0.417461
H220	H	1.579250	0.455900	0.917461
H221	H	1.094555	0.072683	0.282744
H222	H	1.594555	0.572683	0.782744
H223	H	1.021991	0.003312	0.282932
H224	H	1.521991	0.503312	0.782932
H225	H	1.008993	0.079004	0.213271
H226	H	1.508993	0.579004	0.713271
O227	O	0.798538	0.253836	0.384806
O228	O	1.298538	0.753836	0.884806
C229	C	0.744192	0.298936	0.524327
C230	C	1.244192	0.798936	1.024327
C231	C	0.805336	0.248121	0.474476
C232	C	1.305336	0.748121	0.974476
H233	H	0.749657	0.294322	0.596834
H234	H	1.249657	0.794322	1.096834
H235	H	0.755081	0.354725	0.506562
H236	H	1.255081	0.854725	1.006562
H237	H	0.682528	0.285344	0.506481
H238	H	1.182528	0.785344	1.006481
H239	H	0.867025	0.261649	0.492295
H240	H	1.367025	0.761649	0.992295
H241	H	0.794379	0.192346	0.492245
H242	H	1.294379	0.692346	0.992245
H243	H	0.668486	0.254256	0.000030
H244	H	1.168486	0.754256	0.500030
O245	O	0.172837	0.036080	0.000008
O246	O	0.672837	0.536080	0.500008
C247	C	0.167920	-0.076676	-0.074536
C248	C	0.667920	0.423324	0.425464
C249	C	0.202243	-0.003937	-0.074520
C250	C	0.702243	0.496063	0.425480
H251	H	0.191668	-0.109045	-0.134795
H252	H	0.691668	0.390955	0.365205
H253	H	0.185622	-0.104073	-0.014353
H254	H	0.685622	0.395927	0.485647
H255	H	0.101008	-0.070738	-0.074498
H256	H	0.601008	0.429262	0.425502
H257	H	0.269157	-0.009812	-0.074589
H258	H	0.769157	0.490188	0.425411
H259	H	0.184480	0.023434	-0.134697
H260	H	0.684480	0.523434	0.365303
H261	H	0.555180	0.014379	0.000112
H262	H	1.055180	0.514379	0.500112
O263	O	0.807466	0.246407	0.206256
O264	O	1.307466	0.746407	0.706256
C265	C	0.701182	0.334623	0.215800
C266	C	1.201182	0.834623	0.715800
C267	C	0.757324	0.287977	0.265581
C268	C	1.257324	0.787977	0.765581
H269	H	0.660616	0.368234	0.263742
H270	H	1.160616	0.868234	0.763742
H271	H	0.736909	0.369779	0.173404
H272	H	1.236909	0.869779	0.673404
H273	H	0.664419	0.300346	0.173391
H274	H	1.164419	0.800346	0.673391
H275	H	0.794099	0.322200	0.308037
H276	H	1.294099	0.822200	0.808037
H277	H	0.721550	0.252817	0.307923
H278	H	1.221550	0.752817	0.807923
H279	H	1.047569	-0.645398	0.000059
H280	H	1.547569	-0.145398	0.500059
H281	H	0.992579	0.092641	0.484726
H282	H	1.492579	0.592641	0.984726
H283	H	0.520582	0.243114	0.000048
H284	H	1.020582	0.743114	0.500048
O285	O	0.844786	0.215282	0.522650
O286	O	1.344786	0.715282	1.022650
C287	C	0.732792	0.228040	0.624891
C288	C	1.232792	0.728040	1.124891
C289	C	0.793965	0.177260	0.575029
C290	C	1.293965	0.677260	1.075029
H291	H	0.691678	0.197318	0.667238
H292	H	1.191678	0.697318	1.167238
H293	H	0.764236	0.266704	0.667339
H294	H	1.264236	0.766704	1.167339
H295	H	0.697141	0.257695	0.576955
H296	H	1.197141	0.757695	1.076955
H297	H	0.829634	0.147557	0.622902
H298	H	1.329634	0.647557	1.122902
H299	H	0.762474	0.138641	0.532568
H300	H	1.262474	0.638641	1.032568
H301	H	0.143042	0.275245	0.000066
H302	H	0.643042	0.775245	0.500066
