data_functionalizedCrystal
_audit_creation_method	'MofGen! by Chris Wilmer'
_symmetry_space_group_name_H-M	'P1'
_symmetry_Int_Tables_number	1
_symmetry_cell_setting	triclinic
loop_
_symmetry_equiv_pos_as_xyz
  x,y,z
_cell_length_a	23.532355
_cell_length_b	22.010155
_cell_length_c	23.532407
_cell_angle_alpha	90.000423
_cell_angle_beta	82.838088
_cell_angle_gamma	90.002586
loop_
_atom_site_label
_atom_site_type_symbol
_atom_site_fract_x
_atom_site_fract_y
_atom_site_fract_z
O1	O	0.755283	0.050449	0.068986
O2	O	1.255283	0.550449	0.568986
O3	O	0.589415	0.050469	0.079020
O4	O	1.089415	0.550469	0.579020
O5	O	0.677351	0.050447	-0.008929
O6	O	1.177351	0.550447	0.491071
O7	O	0.667347	0.050470	0.156936
O8	O	1.167347	0.550470	0.656936
O9	O	0.677335	-0.050603	-0.008916
O10	O	1.177335	0.449397	0.491084
O11	O	0.589399	-0.050582	0.079033
O12	O	1.089399	0.449418	0.579033
O13	O	0.755267	-0.050602	0.068999
O14	O	1.255267	0.449398	0.568999
Cu15	Cu	0.672332	-0.059818	0.074018
Cu16	Cu	1.172332	0.440182	0.574018
Cu17	Cu	0.672351	0.059685	0.074002
Cu18	Cu	1.172351	0.559685	0.574002
O19	O	0.667331	-0.050580	0.156949
O20	O	1.167331	0.449420	0.656949
C21	C	0.568191	-0.000054	0.078776
C22	C	1.068191	0.499946	0.578776
C23	C	0.504972	-0.000047	0.078022
C24	C	1.004972	0.499953	0.578022
N25	N	0.672323	-0.143871	0.074028
N26	N	1.172323	0.356129	0.574028
C27	C	0.112950	-0.055155	0.073291
C28	C	0.612950	0.444845	0.573291
C29	C	0.053550	-0.055158	0.072574
C30	C	0.553550	0.444842	0.572574
O31	O	0.022824	-0.102003	0.072189
O32	O	0.522824	0.397997	0.572189
N33	N	0.023850	-0.000076	0.072211
N34	N	0.523850	0.499924	0.572211
C35	C	0.053554	0.055013	0.072559
C36	C	0.553554	0.555013	0.572559
O37	O	0.022838	0.101864	0.072184
O38	O	0.522838	0.601864	0.572184
C39	C	0.112953	0.055015	0.073273
C40	C	0.612953	0.555015	0.573273
C41	C	0.142649	-0.000071	0.073641
C42	C	0.642649	0.499929	0.573641
C43	C	0.142646	-0.110237	0.073659
C44	C	0.642646	0.389763	0.573659
C45	C	0.202041	-0.110234	0.074378
C46	C	0.702041	0.389766	0.574378
C47	C	0.231740	-0.055150	0.074728
C48	C	0.731740	0.444850	0.574728
C49	C	0.202044	-0.000069	0.074360
C50	C	0.702044	0.499931	0.574360
C51	C	0.142656	0.110102	0.073617
C52	C	0.642656	0.610102	0.573617
C53	C	0.202059	0.110099	0.074330
C54	C	0.702059	0.610099	0.574330
C55	C	0.231755	0.055014	0.074699
C56	C	0.731755	0.555014	0.574699
C57	C	0.291138	0.055018	0.075429
C58	C	0.791138	0.555018	0.575429
N59	N	0.320838	-0.000064	0.075792
N60	N	0.820838	0.499936	0.575792
C61	C	0.291139	-0.055148	0.075441
C62	C	0.791139	0.444852	0.575441
C63	C	-0.071188	0.055005	0.071060
C64	C	0.428812	0.555005	0.571060
C65	C	-0.130586	0.055004	0.070351
C66	C	0.369414	0.555004	0.570351
C67	C	-0.130585	-0.055167	0.070364
C68	C	0.369415	0.444833	0.570364
C69	C	-0.071187	-0.055165	0.071078
C70	C	0.428813	0.444835	0.571078
C71	C	-0.041488	-0.000077	0.071423
C72	C	0.458512	0.499923	0.571423
C73	C	0.415873	-0.055138	0.076951
C74	C	0.915873	0.444862	0.576951
C75	C	0.475273	-0.055131	0.077672
C76	C	0.975273	0.444869	0.577672
C77	C	0.475268	0.055040	0.077655
C78	C	0.975268	0.555040	0.577655
C79	C	0.415872	0.055032	0.076938
C80	C	0.915872	0.555032	0.576938
C81	C	0.386177	-0.000061	0.076583
C82	C	0.886177	0.499939	0.576583
O83	O	0.321902	0.101839	0.075811
O84	O	0.821902	0.601839	0.575811
O85	O	0.321863	-0.101992	0.075809
O86	O	0.821863	0.398008	0.575809
C87	C	0.711291	-0.563660	0.035063
C88	C	1.211291	-0.063660	0.535063
C89	C	0.711293	-0.627267	0.035059
C90	C	1.211293	-0.127267	0.535059
O91	O	0.744402	-0.660167	0.001938
O92	O	1.244402	-0.160167	0.501938
N93	N	0.672350	-0.659078	0.073990
N94	N	1.172350	-0.159078	0.573990
C95	C	0.633398	-0.627277	0.112923
C96	C	1.133398	-0.127277	0.612923
O97	O	0.600274	-0.660175	0.146036
O98	O	1.100274	-0.160175	0.646036
C99	C	0.633393	-0.563671	0.112924
C100	C	1.133393	-0.063671	0.612924
C101	C	0.672343	-0.531864	0.073995
C102	C	1.172343	-0.031864	0.573995
C103	C	0.750236	-0.531853	-0.003863
C104	C	1.250236	-0.031853	0.496137
C105	C	0.750234	-0.468249	-0.003858
C106	C	1.250234	0.031751	0.496142
C107	C	0.711286	-0.436453	0.035073
C108	C	1.211286	0.063547	0.535073
C109	C	0.672341	-0.468261	0.074000
C110	C	1.172341	0.031739	0.574000
C111	C	0.594439	-0.531872	0.151854
C112	C	1.094439	-0.031872	0.651854
C113	C	0.594437	-0.468261	0.151851
C114	C	1.094437	0.031739	0.651851
C115	C	0.633387	-0.436454	0.112922
C116	C	1.133387	0.063546	0.612922
C117	C	0.633391	-0.372861	0.112936
C118	C	1.133391	0.127139	0.612936
N119	N	0.672334	-0.341051	0.074005
N120	N	1.172334	0.158949	0.574005
C121	C	0.711282	-0.372847	0.035074
C122	C	1.211282	0.127153	0.535074
C123	C	0.633411	-0.760855	0.112918
C124	C	1.133411	-0.260855	0.612918
C125	C	0.633418	-0.824461	0.112921
C126	C	1.133418	-0.324461	0.612921
C127	C	0.711313	-0.824446	0.035056
C128	C	1.211313	-0.324446	0.535056
C129	C	0.711308	-0.760840	0.035057
C130	C	1.211308	-0.260840	0.535057
C131	C	0.672354	-0.729045	0.073988
C132	C	1.172354	-0.229045	0.573988
C133	C	0.711275	-0.239276	0.035087
C134	C	1.211275	0.260724	0.535087
C135	C	0.711270	-0.175667	0.035097
C136	C	1.211270	0.324333	0.535097
C137	C	0.633374	-0.175687	0.112959
C138	C	1.133374	0.324313	0.612959
C139	C	0.633380	-0.239290	0.112952
C140	C	1.133380	0.260710	0.612952
C141	C	0.672332	-0.271083	0.074011
C142	C	1.172332	0.228917	0.574011
O143	O	0.600297	-0.339921	0.146039
O144	O	1.100297	0.160079	0.646039
O145	O	0.744395	-0.339941	0.001961
O146	O	1.244395	0.160059	0.501961
C147	C	0.776491	-0.000078	0.069244
C148	C	1.276491	0.499922	0.569244
C149	C	0.839710	-0.000081	0.069998
C150	C	1.339710	0.499919	0.569998
C151	C	0.677088	-0.000080	-0.030139
C152	C	1.177088	0.499920	0.469861
C153	C	0.676322	-0.000084	-0.093356
C154	C	1.176322	0.499916	0.406644
N155	N	0.672364	0.143738	0.073987
N156	N	1.172364	0.643738	0.573987
C157	C	0.723557	-0.000057	-0.492468
C158	C	1.223557	0.499943	0.007532
C159	C	0.722845	-0.000052	-0.551868
C160	C	1.222845	0.499948	-0.051868
O161	O	0.766632	-0.000035	-0.588620
O162	O	1.266632	0.499965	-0.088620
N163	N	0.670568	-0.000046	-0.574484
N164	N	1.170568	0.499954	-0.074484
C165	C	0.618998	-0.000039	-0.537697
C166	C	1.118998	0.499961	-0.037697
O167	O	0.574467	-0.000033	-0.562388
O168	O	1.074467	0.499967	-0.062388
C169	C	0.619710	-0.000039	-0.478298
C170	C	1.119710	0.499961	0.021702
C171	C	0.671991	-0.000051	-0.455685
C172	C	1.171991	0.499949	0.044315
C173	C	0.775834	-0.000068	-0.469854
C174	C	1.275834	0.499932	0.030146
C175	C	0.776545	-0.000074	-0.410458
C176	C	1.276545	0.499926	0.089542
C177	C	0.724979	-0.000068	-0.373676
C178	C	1.224979	0.499932	0.126324
C179	C	0.672703	-0.000057	-0.396289
C180	C	1.172703	0.499943	0.103711
C181	C	0.568141	-0.000027	-0.441512
C182	C	1.068141	0.499973	0.058488
C183	C	0.568858	-0.000027	-0.382110
C184	C	1.068858	0.499973	0.117890
C185	C	0.621139	-0.000039	-0.359497
C186	C	1.121139	0.499961	0.140503
C187	C	0.621848	-0.000057	-0.300110
C188	C	1.121848	0.499943	0.199890
N189	N	0.674126	-0.000063	-0.277494
N190	N	1.174126	0.499937	0.222506
C191	C	0.725691	-0.000069	-0.314277
C192	C	1.225691	0.499931	0.185723
C193	C	0.617507	-0.000037	-0.662439
C194	C	1.117507	0.499963	-0.162439
C195	C	0.616794	-0.000041	-0.721837
C196	C	1.116794	0.499959	-0.221837
C197	C	0.720642	-0.000053	-0.736004
C198	C	1.220642	0.499947	-0.236004
C199	C	0.721354	-0.000053	-0.676605
C200	C	1.221354	0.499947	-0.176605
C201	C	0.669784	-0.000043	-0.639823
C202	C	1.169784	0.499957	-0.139823
C203	C	0.727181	-0.000082	-0.189540
C204	C	1.227181	0.499918	0.310460
C205	C	0.727888	-0.000090	-0.130138
C206	C	1.227888	0.499910	0.369862
C207	C	0.624041	-0.000074	-0.115977
C208	C	1.124041	0.499926	0.384023
C209	C	0.623334	-0.000069	-0.175373
C210	C	1.123334	0.499931	0.324627
C211	C	0.674909	-0.000071	-0.212154
C212	C	1.174909	0.499929	0.287846
O213	O	0.578084	-0.000072	-0.263323
O214	O	1.078084	0.499928	0.236677
O215	O	0.770216	-0.000067	-0.289577
O216	O	1.270216	0.499933	0.210423
C217	C	0.667594	-0.000052	0.178158
C218	C	1.167594	0.499948	0.678158
C219	C	0.668360	-0.000043	0.241375
C220	C	1.168360	0.499957	0.741375
H221	H	0.499448	-0.099990	0.077974
H222	H	0.999448	0.400010	0.577974
H223	H	0.601708	-0.850354	0.144626
H224	H	1.101708	-0.350354	0.644626
O225	O	0.386958	-0.108617	0.076685
O226	O	0.886958	0.391383	0.576685
C227	C	0.345875	-0.111917	0.125609
C228	C	0.845875	0.388083	0.625609
H229	H	0.334725	-0.064089	0.141939
H230	H	0.834725	0.435911	0.641939
H231	H	0.305623	-0.135242	0.114014
H232	H	0.805623	0.364758	0.614014
H233	H	0.364054	-0.139088	0.160434
H234	H	0.864054	0.360912	0.660434
H235	H	0.770463	-0.000101	-0.111731
H236	H	1.270463	0.499899	0.388269
O237	O	-0.042289	0.108482	0.071483
O238	O	0.457711	0.608482	0.571483
C239	C	-0.014678	0.111795	0.121235
C240	C	0.485322	0.611795	0.621235
H241	H	-0.008019	0.063972	0.137791
H242	H	0.491981	0.563972	0.637791
H243	H	0.028603	0.135116	0.110642
H244	H	0.528603	0.635116	0.610642
H245	H	-0.042289	0.138977	0.155500
H246	H	0.457711	0.638977	0.655500
H247	H	-0.154777	-0.100020	0.070078
H248	H	0.345223	0.399980	0.570078
H249	H	0.743025	-0.850346	0.003355
H250	H	1.243025	-0.350346	0.503355
O251	O	0.787981	-0.437245	-0.041672
O252	O	1.287981	0.062755	0.458328
C253	C	0.822953	-0.400314	-0.011496
C254	C	1.322953	0.099686	0.488504
H255	H	0.823892	-0.419474	0.033384
H256	H	1.323892	0.080526	0.533384
H257	H	0.868279	-0.399434	-0.035135
H258	H	1.368279	0.100566	0.464865
H259	H	0.804967	-0.352171	-0.008335
H260	H	1.304967	0.147829	0.491665
H261	H	0.226214	-0.155091	0.074674
H262	H	0.726214	0.344909	0.574674
H263	H	0.762629	-0.000055	-0.765963
H264	H	1.262629	0.499945	-0.265963
H265	H	0.580762	-0.000076	-0.193785
H266	H	1.080762	0.499924	0.306215
H267	H	0.582057	-0.000072	-0.086018
H268	H	1.082057	0.499928	0.413982
H269	H	0.118471	-0.155095	0.073373
H270	H	0.618471	0.344905	0.573373
H271	H	0.763925	-0.000063	-0.658198
H272	H	1.263925	0.499937	-0.158198
H273	H	0.781953	-0.557735	-0.035568
H274	H	1.281953	-0.057735	0.464432
H275	H	0.819117	-0.000081	-0.392053
H276	H	1.319117	0.499919	0.107947
H277	H	0.574222	-0.000042	-0.740243
H278	H	1.074222	0.499958	-0.240243
O279	O	0.113766	0.163574	0.073178
O280	O	0.613766	0.663574	0.573178
C281	C	0.086156	0.166867	0.023424
C282	C	0.586156	0.666867	0.523424
H283	H	0.079494	0.119037	0.006883
H284	H	0.579494	0.619037	0.506883
H285	H	0.042877	0.190190	0.034007
H286	H	0.542877	0.690190	0.534007
H287	H	0.113771	0.194037	-0.010850
H288	H	0.613771	0.694037	0.489150
H289	H	0.743023	-0.734946	0.003357
H290	H	1.243023	-0.234946	0.503357
O291	O	0.230815	0.163668	0.074694
O292	O	0.730815	0.663668	0.574694
C293	C	0.191864	0.212282	0.074202
C294	C	0.691864	0.712282	0.574202
H295	H	0.147061	0.196131	0.091724
H296	H	0.647061	0.696131	0.591724
H297	H	0.205247	0.250814	0.102059
H298	H	0.705247	0.750814	0.602059
H299	H	0.191788	0.229212	0.028427
H300	H	0.691788	0.729212	0.528427
H301	H	0.575510	-0.000033	-0.632494
H302	H	1.075510	0.499967	-0.132494
H303	H	0.601691	-0.734971	0.144625
H304	H	1.101691	-0.234971	0.644625
H305	H	0.769178	-0.000080	-0.219481
H306	H	1.269178	0.499920	0.280519
H307	H	0.562723	-0.557760	0.183554
H308	H	1.062723	-0.057760	0.683554
H309	H	0.817827	-0.000070	-0.499797
H310	H	1.317827	0.499930	0.000203
O311	O	0.556576	-0.437471	0.189727
O312	O	1.056576	0.062529	0.689727
C313	C	0.522194	-0.479189	0.224072
C314	C	1.022194	0.020811	0.724072
H315	H	0.545543	-0.524528	0.224588
H316	H	1.045543	-0.024528	0.724588
H317	H	0.513242	-0.460818	0.269603
H318	H	1.013242	0.039182	0.769603
H319	H	0.479994	-0.485957	0.205800
H320	H	0.979994	0.014043	0.705800
H321	H	-0.047012	-0.100021	0.071378
H322	H	0.452988	0.399979	0.571378
O323	O	0.595490	-0.270097	0.150788
O324	O	1.095490	0.229903	0.650788
C325	C	0.561124	-0.228390	0.185161
C326	C	1.061124	0.271610	0.685161
H327	H	0.560622	-0.183045	0.161820
H328	H	1.060622	0.316955	0.661820
H329	H	0.515591	-0.246766	0.194079
H330	H	1.015591	0.253234	0.694079
H331	H	0.579368	-0.221634	0.227376
H332	H	1.079368	0.278366	0.727376
O333	O	-0.159339	0.108568	0.069976
O334	O	0.340661	0.608568	0.569976
C335	C	-0.120383	0.157183	0.070455
C336	C	0.379617	0.657183	0.570455
H337	H	-0.075582	0.141028	0.052936
H338	H	0.424418	0.641028	0.552936
H339	H	-0.133763	0.195707	0.042590
H340	H	0.366237	0.695707	0.542590
H341	H	-0.120303	0.174125	0.116226
H342	H	0.379697	0.674125	0.616226
H343	H	0.601665	-0.149789	0.144659
H344	H	1.101665	0.350211	0.644659
H345	H	0.391691	0.099888	0.076647
H346	H	0.891691	0.599888	0.576647
H347	H	0.525569	-0.000014	-0.459912
H348	H	1.025569	0.499986	0.040088
O349	O	0.504177	0.108506	0.078072
O350	O	1.004177	0.608506	0.578072
C351	C	0.531791	0.111817	0.127822
C352	C	1.031791	0.611817	0.627822
H353	H	0.538434	0.063994	0.144387
H354	H	1.038434	0.563994	0.644387
H355	H	0.575080	0.135120	0.117225
H356	H	1.075080	0.635120	0.617225
H357	H	0.504190	0.139013	0.162084
H358	H	1.004190	0.639013	0.662084
O359	O	0.518710	-0.000044	-0.346461
O360	O	1.018710	0.499956	0.153539
C361	C	0.472418	-0.000016	-0.379163
C362	C	0.972418	0.499984	0.120837
H363	H	0.487131	-0.019148	-0.423582
H364	H	0.987131	0.480852	0.076418
H365	H	0.436301	-0.029347	-0.357049
H366	H	0.936301	0.470653	0.142951
H367	H	0.456389	0.048467	-0.383301
H368	H	0.956389	0.548467	0.116699
H369	H	0.742990	-0.149771	0.003396
H370	H	1.242990	0.350229	0.503396
O371	O	0.749167	-0.270059	-0.002762
O372	O	1.249167	0.229941	0.497238
C373	C	0.783526	-0.228335	-0.037124
C374	C	1.283526	0.271665	0.462876
H375	H	0.784029	-0.182999	-0.013768
H376	H	1.284029	0.317001	0.486232
H377	H	0.829059	-0.246703	-0.046056
H378	H	1.329059	0.253297	0.453944
H379	H	0.765274	-0.221566	-0.079334
H380	H	1.265274	0.278434	0.420666
