data_functionalizedCrystal
_audit_creation_method	'MofGen! by Chris Wilmer'
_symmetry_space_group_name_H-M	'P1'
_symmetry_Int_Tables_number	1
_symmetry_cell_setting	triclinic
loop_
_symmetry_equiv_pos_as_xyz
  x,y,z
_cell_length_a	6.817900
_cell_length_b	15.866870
_cell_length_c	16.015572
_cell_angle_alpha	95.305972
_cell_angle_beta	104.485554
_cell_angle_gamma	102.655915
loop_
_atom_site_label
_atom_site_type_symbol
_atom_site_fract_x
_atom_site_fract_y
_atom_site_fract_z
V1	V	-3.996844	-0.034800	-0.280476
O2	O	-3.966447	0.088700	-0.236015
O3	O	-3.966340	-0.152703	-0.316185
O4	O	-3.927287	0.003921	-0.385636
O5	O	-4.005770	-0.069009	-0.166083
V6	V	-4.480895	-0.024540	-0.262223
O7	O	-4.256945	-0.057306	-0.320516
O8	O	-4.670991	-0.002034	-0.222183
O9	O	-4.288193	0.093362	-0.226515
O10	O	-4.628689	-0.148040	-0.306685
O11	O	-4.589366	0.009668	-0.376616
O12	O	-4.327246	-0.063262	-0.157064
C13	C	-3.816378	-0.182638	-0.321469
C14	C	-3.872583	-0.278779	-0.351366
C15	C	-3.766562	0.017152	-0.410059
C16	C	-3.791093	0.048031	-0.496274
C17	C	-3.917279	-0.657597	-0.074048
C18	C	-3.970096	-0.747931	-0.102166
C19	C	-4.026156	-0.722870	-0.252428
C20	C	-3.973333	-0.632531	-0.224321
C21	C	-3.918899	-0.599902	-0.135131
C22	C	-3.974953	-0.574837	-0.285404
C23	C	-3.922145	-0.484506	-0.257300
C24	C	-3.867716	-0.451870	-0.168113
C25	C	-3.866091	-0.509571	-0.107027
C26	C	-4.029402	-0.607468	-0.374595
C27	C	-4.031022	-0.549773	-0.435678
C28	C	-3.978199	-0.459441	-0.407574
C29	C	-3.923770	-0.426804	-0.318387
C30	C	-3.979824	-0.401739	-0.468660
C31	C	-3.927016	-0.311408	-0.440556
C32	C	-3.870962	-0.336474	-0.290283
C33	C	-4.121327	-0.226050	-0.961199
C34	C	-4.144378	-0.197007	-1.042199
C35	C	-4.044584	-0.046745	-0.969635
C36	C	-4.021514	-0.075776	-0.888628
C37	C	-4.059892	-0.165429	-0.884418
C38	C	-3.960078	-0.015155	-0.811846
C39	C	-3.937021	-0.044184	-0.730846
C40	C	-3.975400	-0.133834	-0.726628
C41	C	-4.036835	-0.194459	-0.803418
C42	C	-3.921715	0.074498	-0.816058
C43	C	-3.860280	0.135118	-0.739276
C44	C	-3.837207	0.106090	-0.658274
C45	C	-3.875586	0.016440	-0.654056
C46	C	-3.775772	0.166714	-0.581484
C47	C	-3.752715	0.137685	-0.500484
C48	C	-3.852529	-0.012589	-0.573056
C49	C	-4.101498	0.123292	-0.221230
C50	C	-4.024530	0.219434	-0.191339
C51	C	-4.151314	-0.076497	-0.132637
C52	C	-4.106021	-0.107372	-0.046420
H53	H	-3.826605	-0.309905	-0.217654
H54	H	-3.968765	-0.794905	-0.052418
H55	H	-4.072401	-0.681022	-0.397475
H56	H	-3.883753	-0.085593	-0.569629
C57	C	-3.867203	-0.691437	0.071678
C58	C	-3.857470	-0.621722	0.023993
H59	H	-3.830304	-0.669287	0.132200
H60	H	-3.772512	-0.724194	0.060984
H61	H	-4.005409	-0.728101	0.054199
H62	H	-3.719259	-0.585061	0.041468
H63	H	-3.952163	-0.588950	0.034693
H64	H	-3.821734	-0.483003	-0.034398
H65	H	-3.956629	-0.157468	-0.660671
C66	C	-3.918550	-0.726445	-0.384184
C67	C	-4.085991	-0.758737	-0.350465
H68	H	-3.955497	-0.748582	-0.444710
H69	H	-3.799281	-0.744461	-0.354542
H70	H	-3.887342	-0.664389	-0.376178
H71	H	-4.117189	-0.820792	-0.358465
H72	H	-4.205296	-0.740725	-0.380116
C73	C	-3.526217	0.306507	-0.539547
C74	C	-3.733617	0.265259	-0.586115
H75	H	-3.500205	0.367346	-0.542400
H76	H	-3.434101	0.282275	-0.564333
H77	H	-3.503703	0.297885	-0.480320
H78	H	-3.756127	0.273876	-0.645344
H79	H	-3.825760	0.289500	-0.561331
H80	H	-4.013349	0.026251	-0.973076
H81	H	-3.928368	-0.264432	-0.490297
H82	H	-3.829045	0.208115	-0.742717
H83	H	-4.024171	-0.428320	-0.541280
C84	C	-4.136851	-0.677115	-0.545485
C85	C	-4.090843	-0.585645	-0.533714
H86	H	-4.173763	-0.699256	-0.606009
H87	H	-4.250429	-0.699007	-0.522607
H88	H	-4.017543	-0.695114	-0.515831
H89	H	-4.210157	-0.567645	-0.563362
H90	H	-3.977255	-0.563744	-0.556602
C91	C	-3.900415	0.197902	-0.892576
C92	C	-3.947053	0.106411	-0.905093
H93	H	-3.916069	0.217601	-0.947544
H94	H	-3.760368	0.220951	-0.857447
H95	H	-3.993208	0.217199	-0.864260
H96	H	-3.854249	0.087114	-0.933404
H97	H	-4.087122	0.083353	-0.940236
H98	H	-3.702689	0.187049	-0.437965
H99	H	-4.194399	-0.246378	-1.104718
H100	H	-4.152551	-0.299054	-0.957772
C101	C	-3.978965	-0.318513	-0.173739
C102	C	-3.809665	-0.352576	-0.137217
H103	H	-3.943116	-0.257213	-0.154667
H104	H	-4.096974	-0.345520	-0.155722
H105	H	-4.011596	-0.329692	-0.235598
H106	H	-3.777043	-0.341402	-0.075358
H107	H	-3.691620	-0.325560	-0.155228
C108	C	-4.136781	-0.340076	-0.883252
C109	C	-4.078309	-0.292997	-0.798761
H110	H	-4.162188	-0.400902	-0.880367
H111	H	-4.027406	-0.323539	-0.909943
H112	H	-4.260431	-0.327725	-0.916740
H113	H	-3.954650	-0.305343	-0.765275
H114	H	-4.187694	-0.309540	-0.772058
