data_functionalizedCrystal
_audit_creation_method	'MofGen! by Chris Wilmer'
_symmetry_space_group_name_H-M	'P1'
_symmetry_Int_Tables_number	1
_symmetry_cell_setting	triclinic
loop_
_symmetry_equiv_pos_as_xyz
  x,y,z
_cell_length_a	19.188930
_cell_length_b	10.489741
_cell_length_c	8.965430
_cell_angle_alpha	89.999293
_cell_angle_beta	90.017672
_cell_angle_gamma	83.841977
loop_
_atom_site_label
_atom_site_type_symbol
_atom_site_fract_x
_atom_site_fract_y
_atom_site_fract_z
O1	O	-0.927211	-0.159225	-0.124519
O2	O	-0.724044	-0.180661	-0.124416
O3	O	-0.830251	0.015758	-0.124461
O4	O	-0.821005	-0.355644	-0.124474
O5	O	-0.830242	0.015745	0.123618
O6	O	-0.724035	-0.180674	0.123663
O7	O	-0.927203	-0.159238	0.123560
Cu8	Cu	-0.825618	-0.169958	0.146263
Cu9	Cu	-0.825628	-0.169942	-0.147119
O10	O	-0.820996	-0.355658	0.123605
C11	C	-0.829548	0.063267	-0.000422
C12	C	-0.827459	0.204850	-0.000424
C13	C	-0.698024	-0.179974	-0.000364
C14	C	-0.620505	-0.177890	-0.000325
C15	C	-0.953223	-0.159926	-0.000496
C16	C	-1.030741	-0.162010	-0.000545
C17	C	-0.576353	-0.293142	-0.000352
C18	C	-0.503516	-0.291184	-0.000368
C19	C	-0.474835	-0.173968	-0.000387
C20	C	-0.518996	-0.058700	-0.000351
C21	C	-0.591831	-0.060661	-0.000320
N22	N	-0.366257	-0.084366	-0.084876
N23	N	-0.297066	-0.082511	-0.084909
C24	C	-0.255386	-0.168052	-0.000478
N25	N	-0.285510	-0.255538	0.083968
N26	N	-0.354707	-0.257397	0.083994
C27	C	-0.395858	-0.171828	-0.000420
C28	C	-0.132256	-0.281190	-0.000521
C29	C	-0.059418	-0.279227	-0.000528
C30	C	-0.074899	-0.046740	-0.000526
C31	C	-0.147736	-0.048706	-0.000504
C32	C	-0.176409	-0.165934	-0.000509
C33	C	-0.821699	-0.403167	-0.000437
C34	C	-0.823788	-0.544750	-0.000445
N35	N	-0.825615	-0.169968	0.352612
C36	C	-0.759882	0.271479	-0.000400
C37	C	-0.791800	0.364309	0.121899
C38	C	-0.791825	0.364297	-0.122687
C39	C	-0.859404	0.295815	0.121977
C40	C	-0.859420	0.295793	-0.122719
C41	C	-0.891387	0.388597	-0.000390
N42	N	-0.825636	-0.169922	-0.353468
C43	C	-0.776483	-0.260775	0.449939
C44	C	-0.839698	-0.285173	0.549319
C45	C	-0.762427	-0.145581	0.549359
C46	C	-0.888863	-0.194422	0.449804
C47	C	-0.811550	-0.054781	0.449835
C48	C	-0.874810	-0.079129	0.549171
H49	H	-0.599694	-0.388598	-0.000359
H50	H	-0.916415	-0.002311	0.592468
Br51	Br	-0.984074	0.473051	-0.000334
H52	H	-0.023470	-0.373084	-0.000542
Br53	Br	-0.744141	0.414922	0.294283
Br54	Br	-0.907018	0.245494	0.294499
H55	H	-0.708981	-0.124975	0.593092
Br56	Br	-0.907045	0.245121	-0.295109
Br57	Br	-0.707295	-0.388877	0.377307
H58	H	-0.763227	0.394627	-0.226091
H59	H	-0.851609	-0.382564	0.593017
H60	H	-0.799619	0.042579	0.406102
H61	H	-0.704321	0.220586	-0.000249
H62	H	-0.627781	0.033194	-0.000298
Br63	Br	-0.977966	-0.228955	0.377237
H64	H	-0.467561	-0.385040	-0.000386
H65	H	-0.155603	-0.376644	-0.000503
Br66	Br	-0.480073	0.100381	-0.000361
H67	H	-0.183685	0.045145	-0.000490
Br68	Br	-0.035982	0.112343	-0.000527
