data_functionalizedCrystal
_audit_creation_method	'MofGen! by Chris Wilmer'
_symmetry_space_group_name_H-M	'P1'
_symmetry_Int_Tables_number	1
_symmetry_cell_setting	triclinic
loop_
_symmetry_equiv_pos_as_xyz
  x,y,z
_cell_length_a	14.853566
_cell_length_b	14.853559
_cell_length_c	9.730223
_cell_angle_alpha	90.000855
_cell_angle_beta	90.002641
_cell_angle_gamma	83.632934
loop_
_atom_site_label
_atom_site_type_symbol
_atom_site_fract_x
_atom_site_fract_y
_atom_site_fract_z
O1	O	1.196357	0.117695	-0.114192
O2	O	0.933897	0.131718	-0.114214
O3	O	1.072141	-0.006524	-0.114201
O4	O	1.058112	0.255937	-0.114205
O5	O	1.072140	-0.006520	0.114379
O6	O	0.933895	0.131721	0.114366
O7	O	1.196355	0.117699	0.114388
Zn8	Zn	1.065125	0.124711	0.150669
Zn9	Zn	1.065127	0.124706	-0.150495
O10	O	1.058110	0.255940	0.114375
C11	C	0.900307	0.131085	0.000073
C12	C	0.800223	0.129181	0.000064
C13	C	0.377040	0.121129	-0.124510
C14	C	0.377059	0.121133	0.124696
C15	C	0.471093	0.122920	0.124692
C16	C	0.518105	0.123813	0.000085
C17	C	0.471082	0.122919	-0.124518
C18	C	0.518122	0.123824	0.249293
C19	C	0.612161	0.125613	0.249294
C20	C	0.659175	0.126499	0.124685
C21	C	0.612147	0.125604	0.000077
C22	C	0.659158	0.126496	-0.124531
C23	C	0.612133	0.125594	-0.249140
C24	C	0.518096	0.123805	-0.249127
C25	C	0.753212	0.128288	0.124672
C26	C	0.753201	0.128287	-0.124539
C27	C	1.071506	-0.040111	0.000086
C28	C	1.069605	-0.140195	0.000078
C29	C	1.061543	-0.563372	-0.124521
C30	C	1.061541	-0.563363	0.124685
C31	C	1.063334	-0.469329	0.124687
C32	C	1.064230	-0.422313	0.000082
C33	C	1.063333	-0.469329	-0.124524
C34	C	1.064222	-0.422305	0.249290
C35	C	1.066015	-0.328265	0.249297
C36	C	1.066917	-0.281248	0.124690
C37	C	1.066021	-0.328270	0.000080
C38	C	1.066918	-0.281254	-0.124525
C39	C	1.066028	-0.328276	-0.249138
C40	C	1.064236	-0.422312	-0.249130
C41	C	1.068709	-0.187211	0.124683
C42	C	1.068708	-0.187211	-0.124528
C43	C	1.229945	0.118332	0.000098
C44	C	1.330028	0.120236	0.000097
C45	C	1.058745	0.289528	0.000084
C46	C	1.060646	0.389612	0.000083
N47	N	1.065130	0.124713	0.356205
N48	N	1.065129	0.124696	-0.356032
C49	C	1.126360	0.063521	0.428137
C50	C	1.126358	0.063510	0.572020
C51	C	1.003892	0.185892	0.572027
C52	C	1.003891	0.185898	0.428146
C53	C	1.187600	0.002336	0.356196
C54	C	1.248836	-0.058861	0.428128
C55	C	1.248833	-0.058872	0.572011
C56	C	1.187595	0.002314	0.643962
H57	H	0.650421	0.126328	-0.350596
C58	C	0.936543	0.253213	0.349016
H59	H	0.900081	0.289661	0.412466
H60	H	0.898981	0.220714	0.292879
H61	H	0.969024	0.290806	0.292898
C62	C	1.060558	-0.615078	0.261738
H63	H	1.059369	-0.677818	0.243893
H64	H	1.008324	-0.592855	0.312941
H65	H	1.113393	-0.606481	0.312929
H66	H	0.954035	0.235708	0.630619
C67	C	0.325320	0.120151	-0.261574
H68	H	0.366789	0.120937	-0.335782
H69	H	0.281825	0.171984	-0.266745
H70	H	0.295448	0.066915	-0.266763
H71	H	0.791471	0.129011	-0.226011
H72	H	0.650442	0.126345	0.350759
C73	C	1.316195	-0.126156	0.348988
H74	H	1.307436	-0.117380	0.252996
H75	H	1.306344	-0.186349	0.372550
H76	H	1.376371	-0.116242	0.372584
C77	C	1.060586	-0.615088	-0.261588
H78	H	1.061389	-0.573617	-0.335794
H79	H	1.007366	-0.644975	-0.266800
H80	H	1.112436	-0.658572	-0.266740
C81	C	0.466450	0.122539	0.386346
H82	H	0.403724	0.121240	0.368501
H83	H	0.474947	0.175270	0.437841
H84	H	0.488802	0.070206	0.437245
H85	H	0.338776	0.120412	0.226146
H86	H	0.479799	0.123070	-0.350578
C87	C	1.069693	-0.135500	-0.261595
H88	H	1.068901	-0.176973	-0.335802
H89	H	1.122921	-0.105623	-0.266772
H90	H	1.017851	-0.092009	-0.266782
H91	H	1.187609	0.002341	0.239039
H92	H	1.066751	-0.289981	-0.350590
H93	H	1.063487	-0.460592	0.350736
C94	C	0.804939	0.129258	0.261723
H95	H	0.763474	0.128461	0.335935
H96	H	0.834826	0.182479	0.266917
H97	H	0.848424	0.077409	0.266883
H98	H	1.063511	-0.460605	-0.350583
C99	C	1.067005	-0.276551	0.386361
H100	H	1.066222	-0.318023	0.460569
H101	H	1.015177	-0.233050	0.391545
H102	H	1.120246	-0.246687	0.391538
H103	H	1.187592	0.002294	0.761121
C104	C	1.316187	-0.126186	0.651133
H105	H	1.352660	-0.162617	0.587676
H106	H	1.283720	-0.163782	0.707253
H107	H	1.353751	-0.093679	0.707266
C108	C	1.069686	-0.135491	0.261738
H109	H	1.068897	-0.176961	0.335947
H110	H	1.017855	-0.091993	0.266906
H111	H	1.122924	-0.105624	0.266927
