data_functionalizedCrystal
_audit_creation_method	'MofGen! by Chris Wilmer'
_symmetry_space_group_name_H-M	'P1'
_symmetry_Int_Tables_number	1
_symmetry_cell_setting	triclinic
loop_
_symmetry_equiv_pos_as_xyz
  x,y,z
_cell_length_a	18.215407
_cell_length_b	18.101395
_cell_length_c	18.101389
_cell_angle_alpha	89.983159
_cell_angle_beta	89.980853
_cell_angle_gamma	90.031552
loop_
_atom_site_label
_atom_site_type_symbol
_atom_site_fract_x
_atom_site_fract_y
_atom_site_fract_z
Zn1	Zn	1.125035	-0.294898	-0.418745
Zn2	Zn	1.458368	0.038435	-0.085411
Zn3	Zn	1.791702	0.371768	0.247922
Zn4	Zn	1.124932	-0.418724	-0.294906
Zn5	Zn	1.458265	-0.085391	0.038427
Zn6	Zn	1.791598	0.247943	0.371760
Zn7	Zn	1.001969	-0.294902	-0.294917
Zn8	Zn	1.335303	0.038431	0.038416
Zn9	Zn	1.668636	0.371765	0.371750
Zn10	Zn	1.001920	-0.418704	-0.418706
Zn11	Zn	1.335254	-0.085370	-0.085373
Zn12	Zn	1.668587	0.247963	0.247961
O13	O	1.063464	-0.356807	-0.356818
O14	O	1.396797	-0.023474	-0.023485
O15	O	1.730131	0.309860	0.309848
O16	O	1.228006	-0.311331	-0.402329
O17	O	1.561339	0.022002	-0.068995
O18	O	1.894672	0.355335	0.264338
O19	O	1.108598	-0.402309	-0.191275
O20	O	1.441931	-0.068976	0.142058
O21	O	1.775264	0.264358	0.475392
O22	O	1.018358	-0.191269	-0.311363
O23	O	1.351691	0.142065	0.021970
O24	O	1.685025	0.475398	0.355303
O25	O	1.227930	-0.402305	-0.311345
O26	O	1.561263	-0.068972	0.021988
O27	O	1.894596	0.264361	0.355321
O28	O	1.108774	-0.191266	-0.402339
O29	O	1.442107	0.142067	-0.069006
O30	O	1.775441	0.475401	0.264328
O31	O	1.018258	-0.311337	-0.191283
O32	O	1.351591	0.021996	0.142051
O33	O	1.684924	0.355329	0.475384
O34	O	0.898978	-0.311317	-0.311326
O35	O	1.232312	0.022016	0.022007
O36	O	1.565645	0.355349	0.355341
O37	O	1.018275	-0.402271	-0.522344
O38	O	1.351608	-0.068937	-0.189011
O39	O	1.684941	0.264396	0.144322
O40	O	0.898942	-0.402274	-0.402274
O41	O	1.232276	-0.068941	-0.068940
O42	O	1.565609	0.264393	0.264393
O43	O	1.108726	-0.311311	-0.522372
O44	O	1.442060	0.022022	-0.189039
O45	O	1.775393	0.355355	0.144294
O46	O	1.108550	-0.522354	-0.311308
O47	O	1.441883	-0.189021	0.022025
O48	O	1.775217	0.144312	0.355358
O49	O	1.018174	-0.522339	-0.402263
O50	O	1.351508	-0.189006	-0.068930
O51	O	1.684841	0.144327	0.264403
C52	C	0.872258	-0.356794	-0.356797
C53	C	1.205591	-0.023461	-0.023464
C54	C	1.538924	0.309872	0.309869
C55	C	0.790459	-0.356807	-0.356806
C56	C	1.123792	-0.023473	-0.023472
C57	C	1.457126	0.309860	0.309861
C58	C	1.063366	-0.549218	-0.356797
C59	C	1.396699	-0.215884	-0.023463
C60	C	1.730032	0.117449	0.309870
C61	C	1.063391	-0.631532	-0.356812
C62	C	1.396724	-0.298198	-0.023479
C63	C	1.730057	0.035135	0.309855
C64	C	0.602265	-0.404242	-0.404103
C65	C	0.935599	-0.070909	-0.070769
C66	C	1.268932	0.262424	0.262564
C67	C	0.525407	-0.404245	-0.404112
C68	C	0.858740	-0.070911	-0.070779
C69	C	1.192073	0.262422	0.262555
C70	C	0.525415	-0.309385	-0.309551
C71	C	0.858748	0.023948	0.023783
C72	C	1.192081	0.357281	0.357116
C73	C	0.602272	-0.309380	-0.309546
C74	C	0.935605	0.023954	0.023788
C75	C	1.268939	0.357287	0.357121
C76	C	0.640695	-0.356812	-0.356821
C77	C	0.974029	-0.023479	-0.023487
C78	C	1.307362	0.309854	0.309846
C79	C	0.486979	-0.356820	-0.356835
C80	C	0.820313	-0.023487	-0.023501
C81	C	1.153646	0.309846	0.309832
C82	C	0.403646	-0.356822	-0.356844
C83	C	0.736979	-0.023489	-0.023511
C84	C	1.070312	0.309844	0.309822
C85	C	0.724034	-0.356809	-0.356812
C86	C	1.057368	-0.023476	-0.023479
C87	C	1.390701	0.309857	0.309855
C88	C	1.063552	-0.930623	-0.356852
C89	C	1.396886	-0.597289	-0.023519
C90	C	1.730219	-0.263956	0.309815
C91	C	1.006822	-0.899319	-0.414221
C92	C	1.340155	-0.565985	-0.080887
C93	C	1.673489	-0.232652	0.252446
C94	C	1.006552	-0.813701	-0.414041
C95	C	1.339886	-0.480367	-0.080708
C96	C	1.673219	-0.147034	0.252625
C97	C	1.063472	-0.782240	-0.356833
C98	C	1.396805	-0.448907	-0.023500
C99	C	1.730139	-0.115573	0.309834
C100	C	1.042475	-0.813377	-0.278783
C101	C	1.375809	-0.480044	0.054550
C102	C	1.709142	-0.146711	0.387883
C103	C	1.042110	-0.899023	-0.279127
C104	C	1.375443	-0.565689	0.054207
C105	C	1.708776	-0.232356	0.387540
C106	C	1.141404	-0.898969	-0.376846
C107	C	1.474737	-0.565636	-0.043513
C108	C	1.808070	-0.232303	0.289821
C109	C	1.140946	-0.813319	-0.378558
C110	C	1.474279	-0.479985	-0.045224
C111	C	1.807613	-0.146652	0.288109
C112	C	1.063428	-0.698381	-0.356817
C113	C	1.396761	-0.365047	-0.023484
C114	C	1.730095	-0.031714	0.309849
C115	C	1.063594	-1.014482	-0.356862
C116	C	1.396928	-0.681149	-0.023529
C117	C	1.730261	-0.347815	0.309804
C118	C	1.255417	-0.356820	-0.356840
C119	C	1.588750	-0.023487	-0.023507
C120	C	1.922084	0.309846	0.309826
C121	C	1.337216	-0.356826	-0.356850
C122	C	1.670549	-0.023493	-0.023516
C123	C	2.003882	0.309841	0.309817
C124	C	1.063507	-0.356788	-0.549980
C125	C	1.396840	-0.023455	-0.216647
C126	C	1.730173	0.309878	0.116686
C127	C	1.063525	-0.356780	-0.632295
C128	C	1.396858	-0.023447	-0.298961
C129	C	1.730191	0.309886	0.034372
C130	C	1.063583	-0.163645	-0.356857
C131	C	1.396916	0.169688	-0.023523
C132	C	1.730250	0.503022	0.309810
C133	C	1.063634	-0.081331	-0.356873
C134	C	1.396967	0.252002	-0.023539
C135	C	1.730300	0.585336	0.309794
C136	C	1.063568	-0.356642	-0.931386
C137	C	1.396901	-0.023308	-0.598052
C138	C	1.730234	0.310025	-0.264719
C139	C	1.006462	-0.413689	-0.900043
C140	C	1.339795	-0.080355	-0.566709
C141	C	1.673128	0.252978	-0.233376
C142	C	1.006616	-0.413953	-0.814424
C143	C	1.339949	-0.080620	-0.481091
C144	C	1.673283	0.252714	-0.147758
C145	C	1.063546	-0.356710	-0.783003
C146	C	1.396879	-0.023377	-0.449670
C147	C	1.730212	0.309956	-0.116336
C148	C	1.141083	-0.377894	-0.814102
C149	C	1.474416	-0.044560	-0.480769
C150	C	1.807749	0.288773	-0.147436
C151	C	1.140765	-0.378268	-0.899747
C152	C	1.474098	-0.044935	-0.566414
C153	C	1.807431	0.288398	-0.233081
C154	C	1.043811	-0.278284	-0.899810
C155	C	1.377144	0.055049	-0.566476
C156	C	1.710477	0.388383	-0.233143
C157	C	1.042085	-0.278737	-0.814159
C158	C	1.375419	0.054597	-0.480825
C159	C	1.708752	0.387930	-0.147492
C160	C	1.063538	-0.356748	-0.699144
C161	C	1.396871	-0.023415	-0.365810
C162	C	1.730205	0.309919	-0.032477
C163	C	1.063580	-0.356606	-1.015245
C164	C	1.396914	-0.023272	-0.681912
C165	C	1.730247	0.310061	-0.348579
C166	C	1.063464	-0.356772	-0.164408
C167	C	1.396797	-0.023439	0.168925
C168	C	1.730131	0.309894	0.502259
C169	C	1.063589	-0.356572	-0.082094
C170	C	1.396922	-0.023238	0.251239
C171	C	1.730255	0.310095	0.584572
H172	H	0.633548	-0.442863	-0.442599
H173	H	0.966881	-0.109530	-0.109265
H174	H	1.300214	0.223803	0.224068
Cl175	Cl	1.209660	-0.780244	-0.318753
Cl176	Cl	1.542993	-0.446910	0.014580
Cl177	Cl	1.876326	-0.113577	0.347914
Cl178	Cl	0.953984	-0.254074	-0.782785
Cl179	Cl	1.287317	0.079259	-0.449452
Cl180	Cl	1.620651	0.412592	-0.116119
H181	H	1.019376	-0.471415	-0.921569
H182	H	1.352709	-0.138082	-0.588235
H183	H	1.686042	0.195252	-0.254902
Cl184	Cl	1.026797	-0.503617	-0.782796
Cl185	Cl	1.360130	-0.170283	-0.449463
Cl186	Cl	1.693463	0.163050	-0.116130
H187	H	0.494121	-0.442866	-0.442615
H188	H	0.827454	-0.109532	-0.109281
H189	H	1.160787	0.223801	0.224052
Cl190	Cl	1.101624	-0.209630	-0.781149
Cl191	Cl	1.434958	0.123703	-0.447815
Cl192	Cl	1.768291	0.457036	-0.114482
H193	H	1.085404	-0.235781	-0.920081
H194	H	1.418737	0.097552	-0.586747
H195	H	1.752071	0.430885	-0.253414
H196	H	0.494121	-0.270768	-0.271060
H197	H	0.827454	0.062565	0.062274
H198	H	1.160788	0.395898	0.395607
H199	H	1.019689	-0.792647	-0.471914
H200	H	1.353022	-0.459314	-0.138581
H201	H	1.686356	-0.125980	0.194753
H202	H	0.633562	-0.270752	-0.271043
H203	H	0.966896	0.062581	0.062291
H204	H	1.300229	0.395915	0.395624
H205	H	0.949468	-0.920903	-0.401143
H206	H	1.282801	-0.587570	-0.067810
H207	H	1.616134	-0.254237	0.265523
Cl208	Cl	0.917459	-0.782160	-0.393597
Cl209	Cl	1.250792	-0.448827	-0.060263
Cl210	Cl	1.584125	-0.115494	0.273070
Cl211	Cl	1.026897	-0.931062	-0.503864
Cl212	Cl	1.360230	-0.597728	-0.170531
Cl213	Cl	1.693564	-0.264395	0.162802
Cl214	Cl	0.917846	-0.393484	-0.781956
Cl215	Cl	1.251179	-0.060151	-0.448623
Cl216	Cl	1.584513	0.273183	-0.115289
H217	H	0.985201	-0.919063	-0.262190
H218	H	1.318534	-0.585730	0.071143
H219	H	1.651867	-0.252396	0.404477
H220	H	1.184774	-0.337649	-0.793751
H221	H	1.518107	-0.004316	-0.460418
H222	H	1.851440	0.329018	-0.127085
Cl223	Cl	0.958032	-0.248488	-0.933139
Cl224	Cl	1.291366	0.084846	-0.599806
Cl225	Cl	1.624699	0.418179	-0.266473
Cl226	Cl	1.103127	-0.930999	-0.210878
Cl227	Cl	1.436460	-0.597666	0.122456
Cl228	Cl	1.769794	-0.264333	0.455789
Cl229	Cl	1.166621	-0.466704	-0.930604
Cl230	Cl	1.499954	-0.133371	-0.597270
Cl231	Cl	1.833288	0.199962	-0.263937
H232	H	1.082495	-0.792999	-0.234874
H233	H	1.415828	-0.459665	0.098459
H234	H	1.749162	-0.126332	0.431793
Cl235	Cl	0.955541	-0.780363	-0.252164
Cl236	Cl	1.288874	-0.447030	0.081169
Cl237	Cl	1.622207	-0.113697	0.414502
Cl238	Cl	1.170959	-0.932251	-0.463220
Cl239	Cl	1.504293	-0.598918	-0.129887
Cl240	Cl	1.837626	-0.265584	0.203447
Cl241	Cl	1.165396	-0.781897	-0.467241
Cl242	Cl	1.498729	-0.448563	-0.133908
Cl243	Cl	1.832062	-0.115230	0.199426
H244	H	1.183670	-0.919211	-0.335062
H245	H	1.517003	-0.585878	-0.001729
H246	H	1.850336	-0.252545	0.331604
H247	H	1.184755	-0.338521	-0.920483
H248	H	1.518088	-0.005188	-0.587149
H249	H	1.851422	0.328145	-0.253816
Cl250	Cl	0.917419	-0.393430	-0.931826
Cl251	Cl	1.250752	-0.060097	-0.598492
Cl252	Cl	1.584086	0.273236	-0.265159
Cl253	Cl	1.167392	-0.465391	-0.781001
Cl254	Cl	1.500725	-0.132057	-0.447667
Cl255	Cl	1.834058	0.201276	-0.114334
