data_functionalizedCrystal
_audit_creation_method	'MofGen! by Chris Wilmer'
_symmetry_space_group_name_H-M	'P1'
_symmetry_Int_Tables_number	1
_symmetry_cell_setting	triclinic
loop_
_symmetry_equiv_pos_as_xyz
  x,y,z
_cell_length_a	13.033293
_cell_length_b	12.759400
_cell_length_c	13.032268
_cell_angle_alpha	97.150187
_cell_angle_beta	89.079182
_cell_angle_gamma	97.184613
loop_
_atom_site_label
_atom_site_type_symbol
_atom_site_fract_x
_atom_site_fract_y
_atom_site_fract_z
Zn1	Zn	1.498478	-0.326864	-0.781492
Zn2	Zn	1.998478	0.173136	-0.281492
Zn3	Zn	1.520228	-0.477844	-0.609524
Zn4	Zn	2.020228	0.022156	-0.109524
Zn5	Zn	1.348338	-0.321316	-0.587668
Zn6	Zn	1.848338	0.178684	-0.087668
Zn7	Zn	1.326480	-0.521641	-0.759565
Zn8	Zn	1.826480	-0.021641	-0.259565
O9	O	1.423381	-0.411916	-0.684562
O10	O	1.923381	0.088084	-0.184562
O11	O	1.645281	-0.330884	-0.777004
O12	O	2.145281	0.169116	-0.277004
O13	O	1.515676	-0.436429	-0.462716
O14	O	2.015676	0.063571	0.037284
O15	O	1.368299	-0.175029	-0.613409
O16	O	1.868299	0.324971	-0.113409
O17	O	1.661260	-0.441809	-0.650659
O18	O	2.161260	0.058191	-0.150659
O19	O	1.478606	-0.179105	-0.755811
O20	O	1.978606	0.320895	-0.255811
O21	O	1.389389	-0.321428	-0.446658
O22	O	1.889389	0.178572	0.053342
O23	O	1.201520	-0.363896	-0.592147
O24	O	1.701520	0.136104	-0.092147
O25	O	1.331046	-0.516455	-0.906383
O26	O	1.831046	-0.016455	-0.406383
O27	O	1.185462	-0.511075	-0.718439
O28	O	1.685462	-0.011075	-0.218439
O29	O	1.457412	-0.373352	-0.922493
O30	O	1.957412	0.126648	-0.422493
O31	O	1.494482	-0.630677	-0.629397
O32	O	1.994482	-0.130677	-0.129397
O33	O	1.352136	-0.662855	-0.739632
O34	O	1.852136	-0.162855	-0.239632
C35	C	1.156175	-0.441637	-0.650543
C36	C	1.656175	0.058363	-0.150543
C37	C	1.041860	-0.454381	-0.636013
C38	C	1.541860	0.045619	-0.136013
C39	C	0.982975	-0.405292	-0.692145
C40	C	1.482975	0.094708	-0.192145
C41	C	0.864825	-0.418462	-0.677130
C42	C	1.364825	0.081538	-0.177130
C43	C	1.423322	-0.684887	-0.684533
C44	C	1.923322	-0.184887	-0.184533
C45	C	1.423387	-0.801660	-0.684567
C46	C	1.923387	-0.301660	-0.184567
C47	C	1.497570	-0.839735	-0.627250
C48	C	1.997570	-0.339735	-0.127250
C49	C	1.497629	-0.949456	-0.627289
C50	C	1.997629	-0.449456	-0.127289
C51	C	1.349313	-0.983020	-0.741965
C52	C	1.849313	-0.483020	-0.241965
C53	C	1.349260	-0.873301	-0.741931
C54	C	1.849260	-0.373301	-0.241931
C55	C	1.571698	-0.768094	-0.569886
C56	C	2.071698	-0.268094	-0.069886
C57	C	1.645886	-0.806167	-0.512563
C58	C	2.145886	-0.306167	-0.012563
C59	C	1.645945	-0.915889	-0.512603
C60	C	2.145945	-0.415889	-0.012603
C61	C	1.571816	-0.987537	-0.569965
C62	C	2.071816	-0.487537	-0.069965
C63	C	1.691630	-0.382080	-0.718715
C64	C	2.191630	0.117920	-0.218715
C65	C	1.805942	-0.369366	-0.733269
C66	C	2.305942	0.130634	-0.233269
C67	C	1.389365	-0.450408	-0.952795
C68	C	1.889365	0.049592	-0.452795
C69	C	1.374869	-0.466811	-1.067100
C70	C	1.874869	0.033189	-0.567100
C71	C	1.423464	-0.137879	-0.684618
C72	C	1.923464	0.362121	-0.184618
C73	C	1.423500	-0.021101	-0.684641
C74	C	1.923500	0.478899	-0.184641
C75	C	1.430930	-0.403319	-1.126032
C76	C	1.930930	0.096681	-0.626032
C77	C	1.415950	-0.420271	-1.244172
C78	C	1.915950	0.079729	-0.744172
C79	C	1.457323	-0.373492	-0.417380
C80	C	1.957323	0.126508	0.082620
C81	C	1.472018	-0.356771	-0.303102
C82	C	1.972018	0.143229	0.196898
H83	H	0.842994	-0.317579	-0.792442
H84	H	1.342994	0.182421	-0.292442
H85	H	1.020033	-0.353510	-0.751314
H86	H	1.520033	0.146490	-0.251314
H87	H	0.827772	-0.470239	-0.617951
H88	H	1.327772	0.029761	-0.117951
H89	H	1.288854	-0.842301	-0.788605
H90	H	1.788854	-0.342301	-0.288605
H91	H	1.356853	-0.487177	-1.281176
H92	H	1.856853	0.012823	-0.781176
C93	C	1.727427	-0.727366	-0.449473
C94	C	2.227427	-0.227366	0.050527
H95	H	1.771623	-0.765759	-0.415352
H96	H	2.271623	-0.265759	0.084648
H97	H	1.693787	-0.682557	-0.399614
H98	H	2.193787	-0.182557	0.100386
H99	H	1.767193	-0.685177	-0.494541
H100	H	2.267193	-0.185177	0.005459
C101	C	0.991808	-0.524332	-0.556078
C102	C	1.491808	-0.024332	-0.056078
H103	H	0.918962	-0.524015	-0.556479
H104	H	1.418962	-0.024015	-0.056479
H105	H	1.018108	-0.497001	-0.489219
H106	H	1.518108	0.002999	0.010781
H107	H	1.007464	-0.595152	-0.573236
H108	H	1.507464	-0.095152	-0.073236
C109	C	1.571639	-0.647404	-0.569844
C110	C	2.071639	-0.147404	-0.069844
H111	H	1.626414	-0.610189	-0.527478
H112	H	2.126414	-0.110189	-0.027478
H113	H	1.507533	-0.627473	-0.543558
H114	H	2.007533	-0.127473	-0.043558
H115	H	1.580953	-0.630092	-0.638475
H116	H	2.080953	-0.130092	-0.138475
H117	H	1.706359	-0.946885	-0.465936
H118	H	2.206359	-0.446885	0.034064
H119	H	1.571877	-1.076879	-0.570002
H120	H	2.071877	-0.576879	-0.070002
C121	C	1.267773	-1.061828	-0.805049
C122	C	1.767773	-0.561828	-0.305049
H123	H	1.278424	-1.132626	-0.796852
H124	H	1.778424	-0.632626	-0.296852
H125	H	1.273991	-1.052058	-0.876061
H126	H	1.773991	-0.552058	-0.376061
H127	H	1.200589	-1.049429	-0.781131
H128	H	1.700589	-0.549429	-0.281131
C129	C	1.295052	-0.557202	-1.117087
C130	C	1.795052	-0.057202	-0.617087
H131	H	1.295462	-0.556743	-1.189934
H132	H	1.795462	-0.056743	-0.689934
H133	H	1.228164	-0.547020	-1.090740
H134	H	1.728164	-0.047020	-0.590740
H135	H	1.312305	-0.623620	-1.101435
H136	H	1.812305	-0.123620	-0.601435
H137	H	1.490012	-0.336409	-1.089022
H138	H	1.990012	0.163591	-0.589022
C139	C	1.551844	-0.266378	-1.253123
C140	C	2.051844	0.233622	-0.753123
H141	H	1.551447	-0.266844	-1.180276
H142	H	2.051447	0.233156	-0.680276
H143	H	1.534607	-0.199961	-1.268777
H144	H	2.034607	0.300039	-0.768777
H145	H	1.618734	-0.276577	-1.279471
H146	H	2.118734	0.223423	-0.779471
