data_functionalizedCrystal
_audit_creation_method	'MofGen! by Chris Wilmer'
_symmetry_space_group_name_H-M	'P1'
_symmetry_Int_Tables_number	1
_symmetry_cell_setting	triclinic
loop_
_symmetry_equiv_pos_as_xyz
  x,y,z
_cell_length_a	25.639239
_cell_length_b	12.759401
_cell_length_c	12.759393
_cell_angle_alpha	90.018496
_cell_angle_beta	89.962948
_cell_angle_gamma	89.961153
loop_
_atom_site_label
_atom_site_type_symbol
_atom_site_fract_x
_atom_site_fract_y
_atom_site_fract_z
Zn1	Zn	-0.208118	-1.606080	-0.593941
Zn2	Zn	-0.295564	-1.605901	-0.418245
Zn3	Zn	-0.208145	-1.430382	-0.418281
Zn4	Zn	-0.295524	-1.430297	-0.593886
O5	O	-0.251838	-1.518165	-0.506088
O6	O	-0.219723	-1.753078	-0.570643
O7	O	-0.283996	-1.582579	-0.271228
O8	O	-0.134976	-1.453799	-0.441621
O9	O	-0.283970	-1.752946	-0.441559
O10	O	-0.134956	-1.582884	-0.570678
O11	O	-0.219770	-1.453626	-0.271255
O12	O	-0.219731	-1.283350	-0.441567
O13	O	-0.283901	-1.453655	-0.740914
O14	O	-0.283928	-1.283288	-0.570584
O15	O	-0.219684	-1.582802	-0.740955
O16	O	-0.368724	-1.582496	-0.441505
O17	O	-0.368695	-1.453481	-0.570549
C18	C	-0.251828	-1.245198	-0.506074
C19	C	-0.251837	-1.128421	-0.506093
C20	C	-0.387680	-1.517989	-0.506040
C21	C	-0.445795	-1.518009	-0.506055
C22	C	-0.251785	-1.518239	-0.780122
C23	C	-0.251763	-1.518270	-0.896898
C24	C	-0.806160	-1.585519	-0.439010
C25	C	-0.860765	-1.585560	-0.439024
O26	O	-0.889004	-1.642775	-0.381967
N27	N	-0.888077	-1.518350	-0.506158
C28	C	-0.860782	-1.451103	-0.573289
O29	O	-0.889027	-1.393940	-0.630394
C30	C	-0.806179	-1.451068	-0.573280
C31	C	-0.778869	-1.518275	-0.506134
C32	C	-0.778851	-1.652721	-0.371870
C33	C	-0.724250	-1.652678	-0.371855
C34	C	-0.696959	-1.585434	-0.438980
C35	C	-0.724269	-1.518232	-0.506119
C36	C	-0.778885	-1.383827	-0.640416
C37	C	-0.724278	-1.383799	-0.640401
C38	C	-0.696968	-1.451005	-0.573256
C39	C	-0.642377	-1.450946	-0.573228
N40	N	-0.615065	-1.518155	-0.506094
C41	C	-0.642356	-1.585399	-0.438970
C42	C	-0.975453	-1.451182	-0.573306
C43	C	-1.030055	-1.451210	-0.573311
C44	C	-1.030034	-1.585669	-0.439046
C45	C	-0.975430	-1.585634	-0.439037
C46	C	-0.948140	-1.518391	-0.506172
C47	C	-0.527691	-1.585305	-0.438943
C48	C	-0.473086	-1.585253	-0.438930
C49	C	-0.473111	-1.450799	-0.573198
C50	C	-0.527712	-1.450846	-0.573207
C51	C	-0.555000	-1.518108	-0.506076
O52	O	-0.614103	-1.393762	-0.630258
O53	O	-0.614104	-1.642562	-0.381885
C54	C	-0.115465	-1.518371	-0.506159
C55	C	-0.057351	-1.518459	-0.506190
C56	C	-0.251848	-1.792198	-0.506103
C57	C	-0.251852	-1.908975	-0.506109
C58	C	-0.285318	-1.073554	-0.573160
C59	C	-0.285324	-0.963830	-0.573172
C60	C	-0.218368	-0.963850	-0.439039
C61	C	-0.218359	-1.073572	-0.439033
C62	C	-0.318796	-1.128404	-0.640220
C63	C	-0.352280	-1.073536	-0.707292
C64	C	-0.352286	-0.963812	-0.707303
C65	C	-0.318809	-0.908955	-0.640242
C66	C	-0.218322	-1.585526	-0.951783
C67	C	-0.218303	-1.585551	-1.061507
C68	C	-0.285170	-1.451061	-1.061452
C69	C	-0.285186	-1.451032	-0.951730
C70	C	-0.184898	-1.652765	-0.896952
C71	C	-0.151455	-1.720027	-0.951837
C72	C	-0.151436	-1.720052	-1.061561
C73	C	-0.184860	-1.652815	-1.116400
C74	C	-0.251853	-1.518152	-0.233121
C75	C	-0.251728	-1.518325	-0.116345
H76	H	-0.549903	-1.640078	-0.384280
H77	H	-0.191112	-0.919177	-0.384440
O78	O	-0.697850	-1.318380	-0.705655
C79	C	-0.733668	-1.259100	-0.764936
H80	H	-0.772608	-1.255510	-0.721904
H81	H	-0.739427	-1.297545	-0.844758
C82	C	-0.664585	-1.151668	-0.832848
C83	C	-0.712410	-1.147252	-0.779991
H84	H	-0.651472	-1.082676	-0.842139
H85	H	-0.640453	-1.191608	-0.792912
H86	H	-0.669391	-1.183710	-0.899360
H87	H	-0.707603	-1.115222	-0.713475
H88	H	-0.736541	-1.107303	-0.819916
H89	H	-0.318813	-0.819611	-0.640266
H90	H	-0.184836	-1.652828	-1.205745
H91	H	-0.124238	-1.774763	-0.907179
H92	H	-0.318795	-1.217746	-0.640216
O93	O	-0.697667	-1.718022	-0.306784
C94	C	-0.666037	-1.785845	-0.366654
H95	H	-0.657841	-1.748738	-0.446235
H96	H	-0.687041	-1.863706	-0.378278
C97	C	-0.624252	-1.850458	-0.211104
C98	C	-0.614181	-1.804877	-0.308844
H99	H	-0.592265	-1.862202	-0.175443
H100	H	-0.645562	-1.804767	-0.170768
H101	H	-0.641756	-1.915336	-0.220805
H102	H	-0.596683	-1.739995	-0.299142
H103	H	-0.592866	-1.850558	-0.349178
H104	H	-0.953198	-1.640360	-0.384362
O105	O	-0.384779	-1.126982	-0.772336
C106	C	-0.377586	-1.235591	-0.757966
H107	H	-0.360414	-1.250564	-0.676947
H108	H	-0.349778	-1.266785	-0.820383
C109	C	-0.451580	-1.273479	-0.866903
C110	C	-0.430494	-1.291869	-0.767391
H111	H	-0.484216	-1.308196	-0.872722
H112	H	-0.456426	-1.200307	-0.876589
H113	H	-0.428402	-1.299474	-0.918906
H114	H	-0.453669	-1.265863	-0.715391
H115	H	-0.425654	-1.365038	-0.757698
H116	H	-0.379547	-0.919142	-0.761924
O117	O	-0.118933	-1.785482	-1.114715
C118	C	-0.089428	-1.844797	-1.042786
H119	H	-0.110857	-1.848380	-0.964559
H120	H	-0.049718	-1.806386	-1.031139
C121	C	-0.055573	-1.952238	-1.181700
C122	C	-0.081895	-1.956646	-1.085623
H123	H	-0.050924	-2.021230	-1.208124
H124	H	-0.075449	-1.912274	-1.230161
H125	H	-0.022485	-1.920225	-1.171981
H126	H	-0.114985	-1.988647	-1.095346
H127	H	-0.062024	-1.996618	-1.037164
H128	H	-0.801111	-1.329095	-0.695088
H129	H	-0.801065	-1.707485	-0.317210
H130	H	-0.184911	-1.652754	-0.807609
O131	O	-0.949002	-1.385899	-0.638661
C132	C	-0.962288	-1.408826	-0.743395
H133	H	-1.001911	-1.449247	-0.745611
H134	H	-0.931515	-1.462793	-0.778831
C135	C	-0.916182	-1.256722	-0.804220
C136	C	-0.964850	-1.306360	-0.806942
H137	H	-0.917760	-1.193517	-0.843421
H138	H	-0.907229	-1.241277	-0.733659
H139	H	-0.890543	-1.301705	-0.833748
H140	H	-0.990486	-1.261382	-0.777402
H141	H	-0.973807	-1.321795	-0.877500
O142	O	-0.317624	-1.385858	-1.114882
C143	C	-0.310431	-1.400291	-1.223495
H144	H	-0.293306	-1.481400	-1.238494
H145	H	-0.282582	-1.338023	-1.254652
C146	C	-0.384356	-1.290986	-1.261367
C147	C	-0.363328	-1.390609	-1.279789
H148	H	-0.416985	-1.285009	-1.296094
H149	H	-0.389202	-1.281258	-1.188193
H150	H	-0.361144	-1.239107	-1.287332
H151	H	-0.386537	-1.442485	-1.253813
H152	H	-0.358488	-1.400345	-1.352961
H153	H	-0.191092	-1.118246	-0.384429
H154	H	-0.549949	-1.396125	-0.627886
H155	H	-0.450852	-1.639981	-0.384249
O156	O	-1.056630	-1.651035	-0.374014
C157	C	-1.110680	-1.636669	-0.388451
H158	H	-1.118106	-1.602119	-0.469466
H159	H	-1.126259	-1.580862	-0.326033
C160	C	-1.129521	-1.785468	-0.279597
C161	C	-1.138643	-1.743041	-0.379104
H162	H	-1.146771	-1.851082	-0.273827
H163	H	-1.093107	-1.795145	-0.269867
H164	H	-1.142504	-1.738953	-0.227593
H165	H	-1.125654	-1.789550	-0.431105
H166	H	-1.175055	-1.733375	-0.388843
H167	H	-1.052286	-1.396474	-0.627977
H168	H	-0.450883	-1.396046	-0.627847
H169	H	-0.312409	-1.396250	-0.907042
