data_functionalizedCrystal
_audit_creation_method	'MofGen! by Chris Wilmer'
_symmetry_space_group_name_H-M	'P1'
_symmetry_Int_Tables_number	1
_symmetry_cell_setting	triclinic
loop_
_symmetry_equiv_pos_as_xyz
  x,y,z
_cell_length_a	12.503572
_cell_length_b	10.723024
_cell_length_c	10.723024
_cell_angle_alpha	95.532131
_cell_angle_beta	86.442056
_cell_angle_gamma	86.448419
loop_
_atom_site_label
_atom_site_type_symbol
_atom_site_fract_x
_atom_site_fract_y
_atom_site_fract_z
O1	O	0.089311	-1.664322	0.167870
O2	O	0.089314	-1.301170	0.184623
O3	O	0.089308	-1.491122	-0.005329
O4	O	0.089317	-1.474370	0.357823
O5	O	-0.089333	-1.476837	0.008980
O6	O	-0.089327	-1.286885	0.198933
O7	O	-0.089331	-1.650037	0.182180
Cu8	Cu	-0.105640	-1.467156	0.191863
Cu9	Cu	0.105624	-1.484050	0.174940
O10	O	-0.089325	-1.460084	0.372132
C11	C	-0.000006	-1.247528	0.190559
C12	C	-0.000005	-1.108974	0.186911
N13	N	-0.254232	-1.455283	0.203764
C14	C	-0.000011	-1.482761	-0.044674
C15	C	-0.000007	-1.479113	-0.183229
C16	C	-0.473347	-1.437817	0.221283
C17	C	-0.526676	-1.513395	0.145514
C18	C	-0.648599	-1.503677	0.155262
C19	C	-0.351413	-1.447534	0.211537
N20	N	0.254216	-1.495934	0.163029
C21	C	-0.000008	-1.703679	0.176244
C22	C	-0.000002	-1.842234	0.179891
C23	C	-0.000002	-1.033991	0.293198
C24	C	-0.000000	-0.890788	0.289431
C25	C	-0.000007	-1.585401	-0.258211
C26	C	-0.000003	-1.581634	-0.401415
C27	C	-0.000003	-1.468446	0.411477
C28	C	0.000000	-1.472094	0.550031
H29	H	-0.480766	-1.585400	0.073327
H30	H	0.000021	-1.067153	0.093123
O31	O	-0.528274	-1.352035	0.307373
C32	C	-0.701651	-1.263945	0.395619
C33	C	-0.639564	-1.361161	0.298084
H34	H	-0.791640	-1.271273	0.388125
H35	H	-0.679696	-1.282965	0.493972
H36	H	-0.679569	-1.165555	0.376907
H37	H	-0.661613	-1.459589	0.316679
H38	H	-0.661525	-1.342032	0.199763
O39	O	-0.000046	-1.083662	0.405201
C40	C	0.000030	-1.042638	0.630128
C41	C	0.000054	-0.986224	0.503371
H42	H	0.000133	-0.963889	0.709530
H43	H	-0.074750	-1.096883	0.643409
H44	H	0.074772	-1.108930	0.631274
H45	H	-0.074638	-0.919879	0.502136
H46	H	0.074883	-0.932055	0.490141
O47	O	-0.000057	-1.697182	-0.208120
C48	C	0.000004	-1.802864	-0.019730
C49	C	0.000036	-1.676181	-0.076285
H50	H	0.000102	-1.785931	0.086864
H51	H	-0.074776	-1.852263	-0.046036
H52	H	0.074747	-1.864200	-0.058173
H53	H	-0.074656	-1.614748	-0.037873
H54	H	0.074865	-1.626881	-0.049988
H55	H	0.000007	-0.826356	0.380421
H56	H	0.000002	-0.906659	0.088895
H57	H	-0.000007	-1.672624	-0.465847
H58	H	-0.000008	-1.381098	-0.385543
H59	H	0.000001	-1.385328	-0.225051
