data_functionalizedCrystal
_audit_creation_method	'MofGen! by Chris Wilmer'
_symmetry_space_group_name_H-M	'P1'
_symmetry_Int_Tables_number	1
_symmetry_cell_setting	triclinic
loop_
_symmetry_equiv_pos_as_xyz
  x,y,z
_cell_length_a	12.594516
_cell_length_b	21.395364
_cell_length_c	21.395355
_cell_angle_alpha	89.974702
_cell_angle_beta	90.011407
_cell_angle_gamma	89.967246
loop_
_atom_site_label
_atom_site_type_symbol
_atom_site_fract_x
_atom_site_fract_y
_atom_site_fract_z
Zn1	Zn	-0.423391	-0.957923	0.354305
Zn2	Zn	-0.601355	-0.957852	0.249540
Zn3	Zn	-0.423443	-0.853138	0.249540
Zn4	Zn	-0.601380	-0.853134	0.354279
O5	O	-0.512392	-0.905512	0.301916
O6	O	-0.446966	-1.045592	0.340418
O7	O	-0.577767	-0.943934	0.161862
O8	O	-0.274490	-0.867069	0.263448
O9	O	-0.577716	-1.045540	0.263448
O10	O	-0.274452	-0.944054	0.340418
O11	O	-0.447055	-0.867001	0.161862
O12	O	-0.447079	-0.765460	0.263423
O13	O	-0.577758	-0.867062	0.441961
O14	O	-0.577808	-0.765457	0.340375
O15	O	-0.446990	-0.944050	0.441979
O16	O	-0.750304	-0.943930	0.263424
O17	O	-0.750322	-0.866994	0.340375
C18	C	-0.512453	-0.742724	0.301896
C19	C	-0.512504	-0.673083	0.301903
C20	C	-0.444536	-0.640419	0.342043
C21	C	-0.444511	-0.574984	0.342044
C22	C	-0.512473	-0.542215	0.301913
C23	C	-0.580446	-0.574886	0.261765
C24	C	-0.580462	-0.640320	0.261760
C25	C	-0.608332	-0.438505	0.296881
C26	C	-0.608318	-0.373072	0.296890
C27	C	-0.512425	-0.340394	0.301924
C28	C	-0.416543	-0.373157	0.306962
C29	C	-0.416558	-0.438591	0.306957
C30	C	-0.512464	-0.471262	0.301913
C31	C	-0.444424	-0.236778	0.342068
C32	C	-0.444397	-0.171341	0.342065
C33	C	-0.580342	-0.171245	0.261789
C34	C	-0.580359	-0.236680	0.261788
C35	C	-0.512402	-0.269443	0.301931
C36	C	-0.788933	-0.905471	0.301910
C37	C	-0.907239	-0.905511	0.301928
C38	C	-0.976540	-0.863661	0.343753
C39	C	-1.047388	-0.848392	0.286580
C40	C	-1.047190	-0.920837	0.359110
C41	C	-0.976528	-0.890211	0.244726
C42	C	-0.976324	-0.962683	0.317294
C43	C	-1.047140	-0.947435	0.260083
C44	C	-0.234771	-0.905570	0.301936
C45	C	-0.116466	-0.905595	0.301945
C46	C	-0.512371	-0.905564	0.465340
C47	C	-0.512362	-0.905586	0.534981
C48	C	-0.512346	-0.068935	0.301933
C49	C	-0.512359	-0.138576	0.301932
C50	C	-0.512337	-0.905496	0.139129
C51	C	-0.512046	-0.905595	0.069488
C52	C	-0.444268	-0.945672	0.567705
C53	C	-0.444222	-0.945671	0.633140
C54	C	-0.512289	-0.905591	0.665849
C55	C	-0.580387	-0.865497	0.633117
C56	C	-0.580424	-0.865495	0.567683
C57	C	-0.608129	-0.900629	0.769522
C58	C	-0.608094	-0.900636	0.834955
C59	C	-0.512177	-0.905595	0.867670
C60	C	-0.416290	-0.910560	0.834944
C61	C	-0.416326	-0.910557	0.769510
C62	C	-0.512257	-0.905589	0.736802
C63	C	-0.444028	-0.945682	0.971347
C64	C	-0.443980	-0.945677	1.036783
C65	C	-0.580155	-0.865506	1.036759
C66	C	-0.580193	-0.865508	0.971324
C67	C	-0.512131	-0.905599	0.938621
H68	H	-0.389043	-0.144747	0.374750
H69	H	-0.635804	-0.832862	0.659753
C70	C	-0.369661	-0.272819	0.386219
N71	N	-0.313346	-0.299963	0.419474
C72	C	-0.655107	-0.821412	0.935326
N73	N	-0.711533	-0.788196	0.908213
C74	C	-0.713571	-0.895174	0.870947
N75	N	-0.793018	-0.891059	0.898054
H76	H	-0.635678	-0.144565	0.229113
C77	C	-0.369149	-0.989777	0.935372
N78	N	-0.312749	-1.022989	0.908277
H79	H	-0.635711	-0.263275	0.229105
C80	C	-0.310771	-0.916013	0.870926
N81	N	-0.231298	-0.920121	0.898031
H82	H	-1.078626	-0.800081	0.273597
C83	C	-0.934105	-1.027928	0.334877
N84	N	-0.902298	-1.077069	0.348130
C85	C	-0.655338	-0.821396	0.531686
N86	N	-0.711766	-0.788182	0.504572
H87	H	-0.686392	-0.346401	0.292791
H88	H	-1.078228	-0.933766	0.407462
C89	C	-0.655030	-0.821417	1.072735
N90	N	-0.711428	-0.788208	1.099836
H91	H	-0.389199	-0.667090	0.374730
C92	C	-0.311050	-0.337216	0.312494
N93	N	-0.231596	-0.310143	0.316659
C94	C	-0.369744	-0.539046	0.386207
N95	N	-0.313432	-0.511980	0.419471
H96	H	-0.686425	-0.465106	0.292781
H97	H	-0.686217	-0.896424	0.742890
C98	C	-1.088765	-0.995294	0.212255
N99	N	-1.120121	-1.031337	0.176230
C100	C	-0.655206	-0.538839	0.217620
N101	N	-0.711515	-0.511688	0.184368
H102	H	-0.945618	-0.877226	0.196361
H103	H	-0.388845	-0.978317	0.541083
H104	H	-0.635811	-0.666915	0.229073
C105	C	-0.369318	-0.989774	0.669144
N106	N	-0.312902	-1.022995	0.696260
C107	C	-0.311089	-0.474628	0.312490
N108	N	-0.231647	-0.501771	0.316655
H109	H	-0.945539	-0.828207	0.379071
C110	C	-0.369066	-0.989776	1.072779
N111	N	-0.312640	-1.022993	1.099892
H112	H	-0.338253	-0.914598	0.742868
