data_functionalizedCrystal
_audit_creation_method	'MofGen! by Chris Wilmer'
_symmetry_space_group_name_H-M	'P1'
_symmetry_Int_Tables_number	1
_symmetry_cell_setting	triclinic
loop_
_symmetry_equiv_pos_as_xyz
  x,y,z
_cell_length_a	10.686285
_cell_length_b	18.215407
_cell_length_c	18.215399
_cell_angle_alpha	90.020595
_cell_angle_beta	85.609148
_cell_angle_gamma	94.368569
loop_
_atom_site_label
_atom_site_type_symbol
_atom_site_fract_x
_atom_site_fract_y
_atom_site_fract_z
Zn1	Zn	-0.502362	-1.147640	-0.393718
Zn2	Zn	-0.002362	-0.647640	0.106282
Zn3	Zn	-0.713378	-1.157028	-0.261238
Zn4	Zn	-0.213378	-0.657028	0.238762
Zn5	Zn	-0.502401	-1.024574	-0.270662
Zn6	Zn	-0.002401	-0.524574	0.229338
Zn7	Zn	-0.713305	-1.034015	-0.384264
Zn8	Zn	-0.213305	-0.534015	0.115736
O9	O	-0.607861	-1.090814	-0.327471
O10	O	-0.107861	-0.590814	0.172529
O11	O	-0.530367	-1.251870	-0.376157
O12	O	-0.030367	-0.751870	0.123843
O13	O	-0.685438	-1.139436	-0.159502
O14	O	-0.185438	-0.639436	0.340498
O15	O	-0.325821	-1.033019	-0.294887
O16	O	0.174179	-0.533019	0.205113
O17	O	-0.685400	-1.258767	-0.278824
O18	O	-0.185400	-0.758767	0.221176
O19	O	-0.325792	-1.123435	-0.385296
O20	O	0.174208	-0.623435	0.114704
O21	O	-0.530434	-1.042123	-0.166426
O22	O	-0.030434	-0.542123	0.333574
O23	O	-0.530364	-0.922842	-0.285720
O24	O	-0.030364	-0.422842	0.214280
O25	O	-0.685277	-1.049109	-0.488505
O26	O	-0.185277	-0.549109	0.011495
O27	O	-0.685315	-0.929778	-0.369182
O28	O	-0.185315	-0.429778	0.130818
O29	O	-0.530297	-1.132589	-0.495451
O30	O	-0.030297	-0.632589	0.004549
O31	O	-0.889943	-1.148590	-0.269657
O32	O	-0.389943	-0.648590	0.230343
O33	O	-0.889890	-1.058212	-0.360044
O34	O	-0.389890	-0.558212	0.139956
C35	C	-0.607837	-0.899607	-0.327448
C36	C	-0.107837	-0.399607	0.172552
C37	C	-0.607857	-0.817809	-0.327455
C38	C	-0.107857	-0.317809	0.172545
C39	C	-0.688663	-0.633251	-0.370847
C40	C	-0.188663	-0.133251	0.129153
C41	C	-0.688666	-0.556393	-0.370855
C42	C	-0.188666	-0.056393	0.129145
C43	C	-0.527067	-0.549129	-0.284097
C44	C	-0.027067	-0.049129	0.215903
C45	C	-0.527058	-0.625986	-0.284094
C46	C	-0.027058	-0.125986	0.215906
C47	C	-0.607864	-0.668046	-0.327467
C48	C	-0.107864	-0.168046	0.172533
C49	C	-0.607875	-0.514330	-0.327479
C50	C	-0.107875	-0.014330	0.172521
C51	C	-0.607877	-0.430997	-0.327487
C52	C	-0.107877	0.069003	0.172513
C53	C	-0.607860	-0.751384	-0.327460
C54	C	-0.107860	-0.251384	0.172540
C55	C	-0.935701	-1.105464	-0.312818
C56	C	-0.435701	-0.605464	0.187182
C57	C	-1.075952	-1.111799	-0.306574
C58	C	-0.575952	-0.611799	0.193426
C59	C	-0.278742	-1.076127	-0.342197
C60	C	0.221258	-0.576127	0.157803
C61	C	-0.138491	-1.069868	-0.348473
C62	C	0.361509	-0.569868	0.151527
C63	C	-0.607774	-1.090855	-0.519428
C64	C	-0.107774	-0.590855	-0.019428
C65	C	-0.607737	-1.090873	-0.601228
C66	C	-0.107737	-0.590873	-0.101228
C67	C	-0.607883	-0.282768	-0.327491
C68	C	-0.107883	0.217232	0.172509
C69	C	-0.607882	-0.364567	-0.327491
C70	C	-0.107882	0.135433	0.172509
C71	C	-0.526964	-1.134354	-0.793044
C72	C	-0.026964	-0.634354	-0.293044
C73	C	-0.526927	-1.134361	-0.869904
C74	C	-0.026927	-0.634361	-0.369904
C75	C	-0.688315	-1.047434	-0.862660
C76	C	-0.188315	-0.547434	-0.362660
C77	C	-0.688345	-1.047424	-0.785801
C78	C	-0.188345	-0.547424	-0.285801
C79	C	-0.607671	-1.090888	-0.750995
C80	C	-0.107671	-0.590888	-0.250995
C81	C	-0.607605	-1.090906	-0.904714
C82	C	-0.107605	-0.590906	-0.404714
C83	C	-0.607566	-1.090913	-0.988049
C84	C	-0.107566	-0.590913	-0.488049
C85	C	-0.607708	-1.090880	-0.667654
C86	C	-0.107708	-0.590880	-0.167654
C87	C	-0.607857	-1.090812	-0.136265
C88	C	-0.107857	-0.590812	0.363735
C89	C	-0.607539	-1.090921	-0.054480
C90	C	-0.107539	-0.590921	0.445520
H91	H	-0.754459	-0.528067	-0.406180
H92	H	-0.254459	-0.028067	0.093820
O93	O	-0.775324	-1.000556	-0.900202
O94	O	-0.275324	-0.500556	-0.400202
H95	H	-0.839520	-1.036363	-0.932347
H96	H	-0.339520	-0.536363	-0.432347
O97	O	-1.147166	-1.165772	-0.252727
O98	O	-0.647166	-0.665772	0.247273
H99	H	-1.122035	-1.152063	-0.196061
H100	H	-0.622035	-0.652063	0.303939
H101	H	-0.754065	-1.012023	-0.751564
H102	H	-0.254065	-0.512023	-0.251564
H103	H	-0.754457	-0.667494	-0.406166
H104	H	-0.254457	-0.167494	0.093834
H105	H	-0.461271	-1.169743	-0.764707
H106	H	0.038729	-0.669743	-0.264707
H107	H	-0.461280	-0.514876	-0.248783
H108	H	0.038720	-0.014876	0.251217
H109	H	-0.461254	-0.654316	-0.248769
H110	H	0.038746	-0.154316	0.251231
H111	H	-1.084739	-1.029124	-0.389122
H112	H	-0.584739	-0.529124	0.110878
O113	O	-0.439887	-1.181247	-0.915259
O114	O	0.060113	-0.681247	-0.415259
H115	H	-0.383806	-1.211470	-0.878141
H116	H	0.116194	-0.711470	-0.378141
