data_functionalizedCrystal
_audit_creation_method	'MofGen! by Chris Wilmer'
_symmetry_space_group_name_H-M	'P1'
_symmetry_Int_Tables_number	1
_symmetry_cell_setting	triclinic
loop_
_symmetry_equiv_pos_as_xyz
  x,y,z
_cell_length_a	17.038272
_cell_length_b	9.065218
_cell_length_c	8.140239
_cell_angle_alpha	89.998670
_cell_angle_beta	89.995864
_cell_angle_gamma	91.936279
loop_
_atom_site_label
_atom_site_type_symbol
_atom_site_fract_x
_atom_site_fract_y
_atom_site_fract_z
O1	O	1.039679	-0.320647	0.136397
O2	O	1.373012	0.012686	0.469730
O3	O	1.706345	0.346020	0.803064
O4	O	0.812011	-0.315556	0.136445
O5	O	1.145345	0.017778	0.469779
O6	O	1.478678	0.351111	0.803112
O7	O	0.930551	-0.103931	0.136417
O8	O	1.263884	0.229402	0.469750
O9	O	1.597217	0.562736	0.803083
O10	O	0.921139	-0.532272	0.136425
O11	O	1.254472	-0.198938	0.469759
O12	O	1.587806	0.134395	0.803092
O13	O	0.930547	-0.103929	-0.136810
O14	O	1.263880	0.229404	0.196523
O15	O	1.597214	0.562738	0.529856
O16	O	0.812007	-0.315554	-0.136782
O17	O	1.145341	0.017780	0.196552
O18	O	1.478674	0.351113	0.529885
O19	O	1.039675	-0.320645	-0.136830
O20	O	1.373008	0.012688	0.196503
O21	O	1.706342	0.346022	0.529836
Zn22	Zn	0.925841	-0.318099	-0.180187
Zn23	Zn	1.259174	0.015234	0.153147
Zn24	Zn	1.592507	0.348568	0.486480
Zn25	Zn	0.925846	-0.318102	0.179802
Zn26	Zn	1.259179	0.015232	0.513135
Zn27	Zn	1.592512	0.348565	0.846468
O28	O	0.921135	-0.532270	-0.136802
O29	O	1.254469	-0.198936	0.196532
O30	O	1.587802	0.134397	0.529865
C31	C	0.782848	-0.310924	-0.000162
C32	C	1.116181	0.022410	0.333171
C33	C	1.449514	0.355743	0.666505
C34	C	0.695955	-0.297108	-0.000143
C35	C	1.029288	0.036226	0.333190
C36	C	1.362622	0.369559	0.666523
C37	C	0.646757	-0.423956	-0.000142
C38	C	0.980090	-0.090622	0.333191
C39	C	1.313423	0.242711	0.666525
C40	C	0.565112	-0.410965	-0.000165
C41	C	0.898446	-0.077632	0.333168
C42	C	1.231779	0.255702	0.666502
C43	C	0.532668	-0.271125	-0.000177
C44	C	0.866001	0.062208	0.333156
C45	C	1.199335	0.395541	0.666489
C46	C	0.581873	-0.144268	-0.000184
C47	C	0.915206	0.189065	0.333150
C48	C	1.248539	0.522399	0.666483
C49	C	0.663515	-0.157260	-0.000172
C50	C	0.996849	0.176073	0.333161
C51	C	1.330182	0.509407	0.666494
C52	C	0.286579	-0.225228	-0.000222
C53	C	0.619912	0.108106	0.333111
C54	C	0.953245	0.441439	0.666444
C55	C	0.204929	-0.212245	-0.000229
C56	C	0.538263	0.121088	0.333105
C57	C	0.871596	0.454422	0.666438
C58	C	0.188175	-0.478944	-0.000213
C59	C	0.521508	-0.145610	0.333120
C60	C	0.854842	0.187723	0.666454
C61	C	0.269820	-0.491923	-0.000192
C62	C	0.603153	-0.158590	0.333142
C63	C	0.936487	0.174743	0.666475
C64	C	0.319017	-0.365066	-0.000207
C65	C	0.652351	-0.031733	0.333127
C66	C	0.985684	0.301601	0.666460
C67	C	0.449214	-0.257844	-0.000196
C68	C	0.782548	0.075490	0.333138
C69	C	1.115881	0.408823	0.666471
C70	C	0.402469	-0.378349	-0.000200
C71	C	0.735803	-0.045016	0.333133
C72	C	1.069136	0.288318	0.666466
C73	C	1.068838	-0.325277	-0.000219
C74	C	1.402172	0.008056	0.333114
C75	C	1.735505	0.341390	0.666447
C76	C	1.155731	-0.339093	-0.000227
C77	C	1.489064	-0.005760	0.333106
C78	C	1.822398	0.327574	0.666439
C79	C	0.929644	-0.048853	-0.000194
C80	C	1.262978	0.284481	0.333139
C81	C	1.596311	0.617814	0.666473
C82	C	0.926940	0.115262	-0.000186
C83	C	1.260273	0.448595	0.333148
C84	C	1.593606	0.781928	0.666481
N85	N	0.925843	-0.318097	-0.425869
N86	N	1.259176	0.015236	-0.092536
N87	N	1.592509	0.348570	0.240797
C88	C	0.922042	-0.587348	-0.000187
C89	C	1.255375	-0.254015	0.333146
C90	C	1.588708	0.079319	0.666479
C91	C	0.924746	-0.751462	-0.000185
C92	C	1.258080	-0.418129	0.333148
C93	C	1.591413	-0.084796	0.666482
N94	N	0.925849	-0.318093	0.425484
N95	N	1.259183	0.015241	0.758818
N96	N	1.592516	0.348574	1.092151
H97	H	0.555450	-0.030407	-0.000217
H98	H	0.888783	0.302926	0.333116
H99	H	1.222117	0.636259	0.666449
H100	H	0.422789	-0.143985	-0.000252
H101	H	0.756122	0.189348	0.333081
H102	H	1.089456	0.522681	0.666414
F103	F	0.338928	-0.090213	-0.000238
F104	F	0.672261	0.243121	0.333096
F105	F	1.005595	0.576454	0.666429
H106	H	0.673166	-0.537828	-0.000131
H107	H	1.006499	-0.204495	0.333203
H108	H	1.339833	0.128839	0.666536
H109	H	0.148110	-0.582223	-0.000204
H110	H	0.481443	-0.248890	0.333129
H111	H	0.814777	0.084443	0.666463
H112	H	0.703572	-0.053966	-0.000173
H113	H	1.036906	0.279367	0.333161
H114	H	1.370239	0.612700	0.666494
F115	F	0.512755	-0.545975	-0.000156
F116	F	0.846088	-0.212642	0.333177
F117	F	1.179422	0.120691	0.666510
F118	F	0.304343	-0.640760	-0.000170
F119	F	0.637677	-0.307426	0.333163
F120	F	0.971010	0.025907	0.666497
H121	H	0.178517	-0.098365	-0.000237
H122	H	0.511850	0.234968	0.333096
H123	H	0.845183	0.568301	0.666430
H124	H	0.428889	-0.492206	-0.000199
H125	H	0.762222	-0.158872	0.333134
H126	H	1.095556	0.174461	0.666468
