data_functionalizedCrystal
_audit_creation_method	'MofGen! by Chris Wilmer'
_symmetry_space_group_name_H-M	'P1'
_symmetry_Int_Tables_number	1
_symmetry_cell_setting	triclinic
loop_
_symmetry_equiv_pos_as_xyz
  x,y,z
_cell_length_a	12.759401
_cell_length_b	19.121063
_cell_length_c	12.759393
_cell_angle_alpha	92.404035
_cell_angle_beta	89.979062
_cell_angle_gamma	92.470439
loop_
_atom_site_label
_atom_site_type_symbol
_atom_site_fract_x
_atom_site_fract_y
_atom_site_fract_z
Zn1	Zn	1.588334	-0.279551	-0.611809
Zn2	Zn	1.580690	-0.397017	-0.443603
Zn3	Zn	1.412630	-0.279588	-0.436146
Zn4	Zn	1.405092	-0.396968	-0.619238
O5	O	1.496686	-0.338281	-0.527699
O6	O	1.734340	-0.295138	-0.589508
O7	O	1.558352	-0.381476	-0.295595
O8	O	1.442291	-0.181299	-0.453218
O9	O	1.728724	-0.381440	-0.465928
O10	O	1.571380	-0.181271	-0.582277
O11	O	1.434879	-0.295201	-0.290117
O12	O	1.264609	-0.295154	-0.460422
O13	O	1.429444	-0.381356	-0.765271
O14	O	1.259071	-0.381393	-0.594938
O15	O	1.564071	-0.295090	-0.759813
O16	O	1.551042	-0.495295	-0.473132
O17	O	1.422032	-0.495259	-0.602169
C18	C	1.223720	-0.338272	-0.527678
C19	C	1.106942	-0.338286	-0.527694
C20	C	1.049220	-0.383259	-0.597636
C21	C	0.939495	-0.383261	-0.597657
C22	C	0.945226	-0.293316	-0.457786
C23	C	1.054948	-0.293311	-0.457771
C24	C	1.484918	-0.520761	-0.539289
C25	C	1.479980	-0.598827	-0.544282
C26	C	1.544881	-0.635498	-0.479500
C27	C	1.540243	-0.708849	-0.484203
C28	C	1.470697	-0.745528	-0.553682
C29	C	1.405794	-0.708852	-0.618471
C30	C	1.410438	-0.635502	-0.613773
C31	C	1.453316	-0.966997	-0.571229
C32	C	1.448675	-1.040352	-0.575920
C33	C	1.583126	-1.040344	-0.441653
C34	C	1.587759	-0.966993	-0.436957
C35	C	1.522860	-0.930323	-0.501749
C36	C	1.465952	-0.820504	-0.558488
C37	C	1.527611	-0.855348	-0.496948
C38	C	1.770719	-0.338290	-0.527721
C39	C	1.887495	-0.338294	-0.527731
C40	C	1.496769	-0.338214	-0.801728
C41	C	1.496805	-0.338185	-0.918503
C42	C	1.508529	-0.155088	-0.516087
C43	C	1.513576	-0.077023	-0.511139
C44	C	1.566910	-0.293259	-0.970524
C45	C	1.566930	-0.293229	-1.080246
C46	C	1.426735	-0.383056	-1.085917
C47	C	1.426711	-0.383083	-0.976196
C48	C	1.496667	-0.338298	-0.254733
C49	C	1.496848	-0.338128	-0.137946
H50	H	1.101948	-0.256684	-0.400816
O51	O	0.883384	-0.426849	-0.665701
C52	C	0.822508	-0.386923	-0.731119
H53	H	0.859143	-0.331610	-0.734230
H54	H	0.819665	-0.412393	-0.813526
H55	H	0.739491	-0.384480	-0.698502
O56	O	1.635134	-0.249567	-1.130616
C57	C	1.696971	-0.209934	-1.056161
H58	H	1.698730	-0.238723	-0.979774
H59	H	1.780239	-0.202439	-1.087402
H60	H	1.661948	-0.156593	-1.041100
O61	O	1.099769	-0.427015	-0.665418
C62	C	1.160308	-0.472318	-0.608367
H63	H	1.126927	-0.476595	-0.525885
H64	H	1.158084	-0.526398	-0.649671
H65	H	1.244863	-0.450596	-0.603411
H66	H	1.623982	-0.256698	-0.923553
O67	O	1.358714	-0.426828	-0.925709
C68	C	1.377134	-0.496824	-0.956974
H69	H	1.460841	-0.500369	-0.987378
H70	H	1.365826	-0.531537	-0.887011
H71	H	1.319630	-0.515167	-1.021813
H72	H	1.584239	-0.825482	-0.440382
H73	H	0.902879	-0.256700	-0.400855
H74	H	1.601508	-0.605639	-0.422919
O75	O	1.603325	-0.744362	-0.421165
C76	C	1.665715	-0.696260	-0.358847
H77	H	1.625990	-0.644001	-0.351827
H78	H	1.675617	-0.717491	-0.277438
H79	H	1.745989	-0.688391	-0.396882
O80	O	1.358755	-0.426649	-1.142124
C81	C	1.373791	-0.416982	-1.250121
H82	H	1.456362	-0.393980	-1.263662
H83	H	1.363270	-0.469580	-1.295152
H84	H	1.313900	-0.379569	-1.278878
H85	H	1.644389	-0.937130	-0.380382
H86	H	1.349173	-0.738721	-0.675047
O87	O	1.646138	-1.076074	-0.378837
C88	C	1.627116	-1.148679	-0.397863
H89	H	1.592020	-1.158673	-0.479547
H90	H	1.704058	-1.176511	-0.392603
H91	H	1.569891	-1.169564	-0.336824
H92	H	1.400470	-0.937146	-0.623984
O93	O	1.381095	-1.075874	-0.643516
C94	C	1.324792	-1.027781	-0.699681
H95	H	1.371132	-0.975467	-0.700007
H96	H	1.312214	-1.048940	-0.783803
H97	H	1.245503	-1.020046	-0.660653
H98	H	1.357590	-0.605645	-0.666526
H99	H	1.409326	-0.850376	-0.615056
