data_functionalizedCrystal
_audit_creation_method	'MofGen! by Chris Wilmer'
_symmetry_space_group_name_H-M	'P1'
_symmetry_Int_Tables_number	1
_symmetry_cell_setting	triclinic
loop_
_symmetry_equiv_pos_as_xyz
  x,y,z
_cell_length_a	14.560438
_cell_length_b	18.426585
_cell_length_c	14.560438
_cell_angle_alpha	60.000013
_cell_angle_beta	59.997876
_cell_angle_gamma	60.003221
loop_
_atom_site_label
_atom_site_type_symbol
_atom_site_fract_x
_atom_site_fract_y
_atom_site_fract_z
Zr1	Zr	0.884797	0.095253	0.884694
O2	O	0.929763	0.211129	0.738040
O3	O	0.738143	0.059729	0.929660
O4	O	0.738158	0.211128	0.929653
O5	O	1.080879	-0.059693	0.738043
O6	O	0.738160	0.211129	1.080791
O7	O	0.929748	0.059731	0.738047
O8	O	0.738133	-0.059696	1.080804
O9	O	1.080906	0.211132	0.738031
O10	O	0.836127	0.044581	1.061620
O11	O	0.948913	-0.044544	0.948825
O12	O	0.948931	0.133709	0.948816
O13	O	1.061717	0.044583	0.836021
Zr14	Zr	1.125835	-0.095212	1.125737
Zr15	Zr	0.884799	0.095255	1.125742
Zr16	Zr	1.125833	-0.095214	0.884689
Zr17	Zr	1.125852	0.095257	0.884680
Zr18	Zr	0.884780	-0.095216	1.125751
O19	O	1.272489	-0.059688	1.080771
O20	O	0.929766	0.211131	1.080779
O21	O	1.272486	-0.059690	0.738032
O22	O	1.080869	-0.211088	1.272391
O23	O	0.738146	0.059731	1.272399
O24	O	1.080866	-0.211090	0.929652
O25	O	0.929753	0.059734	1.272388
O26	O	1.272474	-0.211087	1.080778
O27	O	1.272472	-0.211088	0.929640
O28	O	1.080884	-0.059690	1.272384
O29	O	1.080908	0.211133	0.929632
O30	O	0.929724	-0.211092	1.080799
O31	O	0.929726	-0.211091	1.272400
O32	O	0.738134	-0.059695	1.272405
O33	O	1.272498	0.059736	0.738026
O34	O	1.272499	0.059737	0.929627
O35	O	1.061701	-0.133668	1.061615
O36	O	0.948915	-0.044542	1.174410
O37	O	1.061719	0.044585	1.061606
O38	O	1.174505	-0.044540	0.948811
C39	C	0.703793	0.000016	1.005234
C40	C	0.601458	0.000015	1.005240
C41	C	0.457219	-0.065770	1.088471
C42	C	0.553360	-0.065775	1.088498
C43	C	0.553404	0.065818	0.921956
C44	C	0.457261	0.065825	0.921934
C45	C	1.005292	-0.238229	1.005227
C46	C	1.005284	-0.319089	1.005230
C47	C	1.005288	-0.384755	1.005222
C48	C	1.005302	-0.467141	1.005213
C49	C	1.005318	-0.532810	1.005210
C50	C	1.005331	-0.615202	1.005203
C51	C	1.306839	0.000025	1.005197
C52	C	1.409174	0.000026	1.005191
C53	C	1.005313	0.000019	0.703701
C54	C	1.005312	0.000018	0.601370
C55	C	1.005340	0.238270	1.005205
C56	C	1.005348	0.319130	1.005201
C57	C	0.946428	-0.046502	0.612174
C58	C	0.946434	-0.046502	0.516019
C59	C	1.064212	0.046544	0.398259
C60	C	1.064211	0.046539	0.494413
C61	C	1.005319	0.000022	1.306730
C62	C	1.005320	0.000023	1.409061
C63	C	0.703817	0.238266	1.005223
C64	C	0.601490	0.319124	1.005225
C65	C	0.703796	0.000018	1.306748
C66	C	0.601462	0.000017	1.409086
C67	C	1.005295	-0.238227	1.306741
C68	C	1.005288	-0.319086	1.409076
C69	C	1.005337	0.238268	0.703690
C70	C	1.005344	0.319127	0.601355
C71	C	1.306837	0.000023	0.703683
C72	C	1.409170	0.000024	0.601345
C73	C	1.306816	-0.238225	1.005208
C74	C	1.409142	-0.319083	1.005206
C75	C	0.612319	0.403627	0.946344
C76	C	0.516182	0.479609	0.946351
C77	C	0.409217	0.471086	1.005233
C78	C	0.398390	0.386574	1.064122
C79	C	0.494526	0.310594	1.064121
C80	C	0.946411	-0.310536	1.516022
C81	C	0.946409	-0.386505	1.612185
C82	C	1.005277	-0.471022	1.601401
C83	C	1.064161	-0.479571	1.494444
C84	C	1.064169	-0.403603	1.398283
C85	C	1.064232	0.310577	0.494409
C86	C	1.064265	0.386546	0.398246
C87	C	1.005402	0.471064	0.409030
C88	C	0.946512	0.479612	0.515987
C89	C	0.946486	0.403644	0.612148
C90	C	1.516088	-0.310531	0.946312
C91	C	1.612243	-0.386499	0.946287
C92	C	1.601450	-0.471017	1.005163
C93	C	1.494493	-0.479567	1.064058
C94	C	1.398340	-0.403600	1.064076
C95	C	0.494512	0.046536	1.398292
C96	C	0.398362	0.046539	1.494453
C97	C	0.516128	-0.046505	1.612198
C98	C	0.612275	-0.046501	1.516038
H99	H	0.418139	0.119410	0.854115
H100	H	1.485722	-0.548392	1.111993
C101	C	1.128939	-0.413024	1.280644
N102	N	1.177730	-0.420126	1.192040
C103	C	1.729886	-0.377074	0.881506
N104	N	1.818491	-0.369973	0.832716
H105	H	0.311287	0.379648	1.112063
C106	C	0.881648	-0.097685	0.729825
N107	N	0.832858	-0.136240	0.818438
C108	C	1.005248	-0.554581	1.707193
N109	N	1.005217	-0.617514	1.786880
H110	H	0.525020	0.548415	0.898393
C111	C	1.005429	0.554622	0.303238
N112	N	1.005449	0.617555	0.223551
C113	C	1.128902	-0.572549	1.482600
N114	N	1.177658	-0.642583	1.473682
H115	H	0.592570	0.119388	0.854169
C116	C	1.129049	0.377123	0.280604
N117	N	1.177845	0.370022	0.191998
H118	H	0.898486	-0.084385	0.524826
H119	H	0.485693	0.241790	1.112065
C120	C	0.729932	-0.097679	1.527916
N121	N	0.818549	-0.136224	1.536861
C122	C	1.128987	0.097721	0.482524
N123	N	1.177775	0.136270	0.473571
C124	C	0.404317	-0.138143	1.180066
N125	N	0.364469	-0.192654	1.249062
C126	C	1.707233	-0.554575	1.005143
N127	N	1.786913	-0.617507	1.005129
H128	H	1.112161	0.241766	0.485607
H129	H	0.898586	0.548435	0.524755
C130	C	0.482612	0.097716	1.280646
N131	N	0.473645	0.136270	1.192035
C132	C	0.528010	-0.097681	1.729851
N133	N	0.536962	-0.136231	1.818468
C134	C	0.729972	0.413024	0.881572
N135	N	0.818586	0.420110	0.832788
H136	H	0.592473	-0.119353	1.156314
H137	H	0.898527	0.410617	0.699226
C138	C	1.128982	0.097726	0.280601
N139	N	1.177763	0.136282	0.191981
C140	C	0.303475	0.554676	1.005212
N141	N	0.223834	0.617639	1.005187
H142	H	1.524897	-0.241719	0.898366
H143	H	0.311281	0.084421	1.485654
H144	H	1.311263	-0.410576	1.112041
H145	H	0.898455	-0.379529	1.699266
H146	H	0.898470	-0.241724	1.524824
