data_functionalizedCrystal
_audit_creation_method	'MofGen! by Chris Wilmer'
_symmetry_space_group_name_H-M	'P1'
_symmetry_Int_Tables_number	1
_symmetry_cell_setting	triclinic
loop_
_symmetry_equiv_pos_as_xyz
  x,y,z
_cell_length_a	10.540539
_cell_length_b	17.699092
_cell_length_c	16.776229
_cell_angle_alpha	90.001732
_cell_angle_beta	90.003709
_cell_angle_gamma	83.905930
loop_
_atom_site_label
_atom_site_type_symbol
_atom_site_fract_x
_atom_site_fract_y
_atom_site_fract_z
O1	O	1.683944	0.106658	0.066247
O2	O	1.314348	0.116707	0.066257
O3	O	1.509583	0.001562	0.066250
O4	O	1.488710	0.221803	0.066254
O5	O	1.509561	0.001561	-0.066326
O6	O	1.314326	0.116707	-0.066320
O7	O	1.683922	0.106657	-0.066329
Zn8	Zn	1.499121	0.111682	-0.087374
Zn9	Zn	1.499150	0.111683	0.087302
O10	O	1.488688	0.221803	-0.066322
C11	C	1.267048	0.115953	-0.000030
C12	C	1.126141	0.113699	-0.000026
C13	C	0.944290	0.027300	-0.000338
C14	C	1.090866	0.029585	-0.000030
C15	C	1.063743	0.154177	0.075679
C16	C	0.917250	0.151307	0.075734
C17	C	0.916706	0.153018	-0.075030
C18	C	1.063673	0.153792	-0.076022
C19	C	1.508822	-0.026640	-0.000037
C20	C	1.506573	-0.110673	-0.000033
C21	C	1.505531	-0.150147	0.072235
C22	C	1.503410	-0.229104	0.072236
C23	C	1.502339	-0.268586	-0.000032
C24	C	1.503377	-0.229106	-0.072306
C25	C	1.505490	-0.150150	-0.072306
C26	C	1.494857	-0.547526	-0.072307
C27	C	1.492748	-0.626488	-0.072301
C28	C	1.492777	-0.626480	0.072235
C29	C	1.494890	-0.547524	0.072235
C30	C	1.495921	-0.508051	-0.000038
C31	C	1.498219	-0.422437	-0.000038
C32	C	1.500051	-0.354199	-0.000033
C33	C	1.731223	0.107411	-0.000040
C34	C	1.872130	0.109666	-0.000039
C35	C	1.489448	0.250005	-0.000034
C36	C	1.491697	0.334037	-0.000032
N37	N	1.499110	0.111681	-0.206585
C38	C	1.575949	0.158029	-0.248300
C39	C	1.575963	0.158026	-0.331752
C40	C	1.499131	0.111679	-0.373488
C41	C	1.422289	0.065326	-0.331767
C42	C	1.422282	0.065325	-0.248317
C43	C	1.422315	0.065327	-0.668314
C44	C	1.422324	0.065333	-0.751771
C45	C	1.575995	0.158028	-0.751750
C46	C	1.575989	0.158028	-0.668299
C47	C	1.499152	0.111672	-0.626586
C48	C	1.499140	0.111674	-0.536097
C49	C	1.499136	0.111680	-0.463975
N50	N	1.499170	0.111677	0.206513
H51	H	1.134052	-0.002265	-0.054300
H52	H	1.106853	0.126059	0.132020
H53	H	1.638548	0.195771	-0.634322
H54	H	1.133206	-0.002489	0.054331
H55	H	1.495767	-0.515382	0.131083
H56	H	1.359712	0.027584	-0.214353
H57	H	1.638507	0.195775	-0.214324
H58	H	1.506410	-0.118007	0.131084
H59	H	1.084969	0.215948	0.078497
H60	H	1.502567	-0.261240	0.131084
H61	H	0.868370	0.213772	-0.075540
H62	H	0.885646	0.125796	-0.132414
H63	H	1.105166	0.124221	-0.132029
H64	H	1.491873	-0.658632	-0.131154
H65	H	1.491931	-0.658628	0.131084
H66	H	1.086780	0.215116	-0.080592
H67	H	1.502498	-0.261258	-0.131148
H68	H	1.638535	0.195766	-0.365712
H69	H	1.495722	-0.515398	-0.131156
H70	H	1.638562	0.195772	-0.785723
H71	H	0.914695	-0.005789	0.053652
H72	H	1.506320	-0.118010	-0.131155
H73	H	1.359755	0.027588	-0.785750
H74	H	0.889595	0.121390	0.132324
H75	H	1.359737	0.027585	-0.365755
H76	H	0.916302	-0.005930	-0.054630
H77	H	0.868178	0.211800	0.079172
H78	H	1.359750	0.027581	-0.634361
