data_functionalizedCrystal
_audit_creation_method	'MofGen! by Chris Wilmer'
_symmetry_space_group_name_H-M	'P1'
_symmetry_Int_Tables_number	1
_symmetry_cell_setting	triclinic
loop_
_symmetry_equiv_pos_as_xyz
  x,y,z
_cell_length_a	13.033293
_cell_length_b	16.120256
_cell_length_c	13.032721
_cell_angle_alpha	80.344149
_cell_angle_beta	74.815879
_cell_angle_gamma	85.311795
loop_
_atom_site_label
_atom_site_type_symbol
_atom_site_fract_x
_atom_site_fract_y
_atom_site_fract_z
Zn1	Zn	1.522674	-0.652707	0.264404
Zn2	Zn	1.856007	-0.319374	0.597737
Zn3	Zn	2.189340	0.013959	0.931071
Zn4	Zn	1.509001	-0.528989	0.433029
Zn5	Zn	1.842335	-0.195656	0.766363
Zn6	Zn	2.175668	0.137677	1.099696
Zn7	Zn	1.356336	-0.497570	0.275668
Zn8	Zn	1.689669	-0.164236	0.609002
Zn9	Zn	2.023002	0.169097	0.942335
Zn10	Zn	1.322459	-0.652611	0.464503
Zn11	Zn	1.655793	-0.319278	0.797836
Zn12	Zn	1.989126	0.014055	1.131169
O13	O	1.427617	-0.582969	0.359401
O14	O	1.760951	-0.249636	0.692734
O15	O	2.094284	0.083697	1.026068
O16	O	1.668541	-0.649485	0.268887
O17	O	2.001875	-0.316152	0.602220
O18	O	2.335208	0.017181	0.935553
O19	O	1.497205	-0.408160	0.403698
O20	O	1.830538	-0.074826	0.737031
O21	O	2.163872	0.258507	1.070364
O22	O	1.398300	-0.505040	0.124576
O23	O	1.731633	-0.171707	0.457909
O24	O	2.064966	0.161627	0.791243
O25	O	1.658496	-0.558590	0.392775
O26	O	1.991830	-0.225257	0.726108
O27	O	2.325163	0.108076	1.059442
O28	O	1.520508	-0.619019	0.116300
O29	O	1.853841	-0.285686	0.449633
O30	O	2.187174	0.047648	0.782967
O31	O	1.385042	-0.385076	0.288085
O32	O	1.718376	-0.051742	0.621419
O33	O	2.051709	0.281591	0.954752
O34	O	1.204160	-0.504947	0.318604
O35	O	1.537494	-0.171614	0.651937
O36	O	1.870827	0.161720	0.985270
O37	O	1.340563	-0.769286	0.446417
O38	O	1.673896	-0.435953	0.779750
O39	O	2.007230	-0.102619	1.113083
O40	O	1.179272	-0.618855	0.457339
O41	O	1.512605	-0.285522	0.790673
O42	O	1.845938	0.047811	1.124006
O43	O	1.487659	-0.769356	0.299405
O44	O	1.820993	-0.436023	0.632738
O45	O	2.154326	-0.102690	0.966072
O46	O	1.464357	-0.558497	0.586802
O47	O	1.797690	-0.225164	0.920136
O48	O	2.131024	0.108170	1.253469
O49	O	1.327305	-0.649322	0.609926
O50	O	1.660639	-0.315988	0.943259
O51	O	1.993972	0.017345	1.276593
C52	C	1.153424	-0.558482	0.392610
C53	C	1.486757	-0.225148	0.725943
C54	C	1.820090	0.108185	1.059277
C55	C	1.036118	-0.548028	0.406844
C56	C	1.369451	-0.214695	0.740177
C57	C	1.702784	0.118639	1.073511
C58	C	0.988770	-0.588428	0.351999
C59	C	1.322103	-0.255094	0.685332
C60	C	1.655436	0.078239	1.018666
C61	C	0.867528	-0.577624	0.366709
C62	C	1.200861	-0.244291	0.700043
C63	C	1.534194	0.089043	1.033376
C64	C	1.411858	-0.800416	0.375165
C65	C	1.745191	-0.467083	0.708498
C66	C	2.078524	-0.133749	1.041832
C67	C	1.405142	-0.893079	0.381883
C68	C	1.738475	-0.559746	0.715216
C69	C	2.071808	-0.226412	1.048549
C70	C	1.462642	-1.104048	0.324342
C71	C	1.795975	-0.770714	0.657675
C72	C	2.129309	-0.437381	0.991009
C73	C	1.392851	-1.062723	0.394108
C74	C	1.726184	-0.729389	0.727441
C75	C	2.059517	-0.396056	1.060774
C76	C	1.399691	-0.968324	0.387304
C77	C	1.733025	-0.634991	0.720637
C78	C	2.066358	-0.301657	1.053970
C79	C	1.455803	-1.198455	0.331144
C80	C	1.789136	-0.865121	0.664478
C81	C	2.122469	-0.531788	0.997811
C82	C	1.702882	-0.607553	0.326063
C83	C	2.036215	-0.274220	0.659397
C84	C	2.369548	0.059113	0.992730
C85	C	1.820183	-0.618029	0.311857
C86	C	2.153516	-0.284696	0.645190
C87	C	2.486850	0.048637	0.978523
C88	C	1.390699	-0.607329	0.637151
C89	C	1.724032	-0.273996	0.970484
C90	C	2.057365	0.059338	1.303818
C91	C	1.374999	-0.617787	0.755964
C92	C	1.708333	-0.284454	1.089297
C93	C	2.041666	0.048880	1.422631
C94	C	1.443387	-0.366367	0.343614
C95	C	1.776720	-0.033034	0.676947
C96	C	2.110054	0.300299	1.010281
C97	C	1.450347	-0.273697	0.336570
C98	C	1.783681	0.059637	0.669904
C99	C	2.117014	0.392970	1.003237
C100	C	1.464708	-0.558535	0.080564
C101	C	1.798041	-0.225202	0.413898
C102	C	2.131374	0.108131	0.747231
C103	C	1.480513	-0.548123	-0.038259
C104	C	1.813847	-0.214790	0.295074
C105	C	2.147180	0.118544	0.628407
C106	C	1.435864	-0.577554	0.797455
C107	C	1.769198	-0.244221	1.130788
C108	C	2.102531	0.089113	1.464122
C109	C	1.419640	-0.588361	0.920254
C110	C	1.752973	-0.255028	1.253587
C111	C	2.086306	0.078305	1.586921
H112	H	1.037993	-0.631010	0.294150
H113	H	1.371326	-0.297677	0.627483
H114	H	1.704660	0.035657	0.960817
H115	H	1.310883	-0.660236	0.811354
H116	H	1.644216	-0.326903	1.144687
H117	H	1.977550	0.006430	1.478020
H118	H	1.544642	-0.505677	0.906355
H119	H	1.877976	-0.172344	1.239688
H120	H	2.211309	0.160989	1.573022
H121	H	1.527525	-1.068534	0.259510
H122	H	1.860859	-0.735201	0.592843
H123	H	2.194192	-0.401867	0.926177
H124	H	0.869402	-0.660614	0.254001
H125	H	1.202735	-0.327280	0.587335
H126	H	1.536068	0.006053	0.920668
H127	H	1.499989	-0.535111	0.742067
H128	H	1.833323	-0.201778	1.075400
H129	H	2.166656	0.131556	1.408734
H130	H	0.986895	-0.505440	0.464687
H131	H	1.320229	-0.172107	0.798020
H132	H	1.653562	0.161227	1.131354
H133	H	0.818309	-0.535033	0.424556
H134	H	1.151643	-0.201700	0.757890
H135	H	1.484976	0.131633	1.091223
H136	H	1.327958	-1.098238	0.458940
H137	H	1.661291	-0.764904	0.792274
H138	H	1.994624	-0.431571	1.125607
H139	H	1.355519	-0.630814	0.975640
H140	H	1.688852	-0.297481	1.308974
H141	H	2.022186	0.035853	1.642307
