data_functionalizedCrystal
_audit_creation_method	'MofGen! by Chris Wilmer'
_symmetry_space_group_name_H-M	'P1'
_symmetry_Int_Tables_number	1
_symmetry_cell_setting	triclinic
loop_
_symmetry_equiv_pos_as_xyz
  x,y,z
_cell_length_a	25.639243
_cell_length_b	18.050589
_cell_length_c	18.050582
_cell_angle_alpha	90.018205
_cell_angle_beta	89.982526
_cell_angle_gamma	89.969055
loop_
_atom_site_label
_atom_site_type_symbol
_atom_site_fract_x
_atom_site_fract_y
_atom_site_fract_z
Zn1	Zn	0.799271	0.295653	-0.419986
Zn2	Zn	1.132604	0.628986	-0.086652
Zn3	Zn	1.465938	0.962319	0.246681
Zn4	Zn	0.799208	0.419836	-0.295805
Zn5	Zn	1.132541	0.753169	0.037528
Zn6	Zn	1.465875	1.086503	0.370862
Zn7	Zn	0.711845	0.295670	-0.295804
Zn8	Zn	1.045178	0.629004	0.037529
Zn9	Zn	1.378512	0.962337	0.370862
Zn10	Zn	0.711808	0.419811	-0.419948
Zn11	Zn	1.045142	0.753145	-0.086615
Zn12	Zn	1.378475	1.086478	0.246719
O13	O	0.755533	0.357743	-0.357886
O14	O	1.088866	0.691076	-0.024552
O15	O	1.422200	1.024409	0.308781
O16	O	0.872428	0.312129	-0.403529
O17	O	1.205761	0.645462	-0.070196
O18	O	1.539094	0.978796	0.263138
O19	O	0.787608	0.403383	-0.191880
O20	O	1.120941	0.736716	0.141453
O21	O	1.454275	1.070049	0.474786
O22	O	0.723484	0.191743	-0.312293
O23	O	1.056817	0.525077	0.021041
O24	O	1.390150	0.858410	0.354374
O25	O	0.872382	0.403366	-0.312294
O26	O	1.205715	0.736699	0.021039
O27	O	1.539048	1.070032	0.354373
O28	O	0.787715	0.191730	-0.403528
O29	O	1.121049	0.525064	-0.070195
O30	O	1.454382	0.858397	0.263139
O31	O	0.723423	0.312159	-0.191880
O32	O	1.056756	0.645492	0.141454
O33	O	1.390090	0.978825	0.474787
O34	O	0.638675	0.312135	-0.312256
O35	O	0.972008	0.645468	0.021077
O36	O	1.305342	0.978801	0.354411
O37	O	0.723421	0.403324	-0.523878
O38	O	1.056755	0.736657	-0.190544
O39	O	1.390088	1.069990	0.142789
O40	O	0.638648	0.403341	-0.403464
O41	O	0.971981	0.736674	-0.070131
O42	O	1.305315	1.070007	0.263203
O43	O	0.787680	0.312105	-0.523905
O44	O	1.121013	0.645438	-0.190572
O45	O	1.454346	0.978772	0.142761
O46	O	0.787573	0.523757	-0.312258
O47	O	1.120906	0.857091	0.021076
O48	O	1.454239	1.190424	0.354409
O49	O	0.723360	0.523739	-0.403465
O50	O	1.056694	0.857072	-0.070132
O51	O	1.390027	1.190406	0.263202
C52	C	0.755470	0.550695	-0.357873
C53	C	1.088803	0.884028	-0.024540
C54	C	1.422137	1.217361	0.308793
C55	C	0.755491	0.633240	-0.357893
C56	C	1.088824	0.966574	-0.024560
C57	C	1.422157	1.299907	0.308774
C58	C	0.619691	0.357737	-0.357856
C59	C	0.953024	0.691071	-0.024523
C60	C	1.286357	1.024404	0.308810
C61	C	0.561576	0.357753	-0.357861
C62	C	0.894910	0.691087	-0.024528
C63	C	1.228243	1.024420	0.308805
C64	C	0.755554	0.357710	-0.551591
C65	C	1.088887	0.691043	-0.218258
C66	C	1.422220	1.024376	0.115075
C67	C	0.755562	0.357696	-0.634137
C68	C	1.088896	0.691029	-0.300804
C69	C	1.422229	1.024362	0.032529
C70	C	0.201232	0.310310	-0.405471
C71	C	0.534565	0.643643	-0.072138
C72	C	0.867899	0.976977	0.261196
C73	C	0.146628	0.310309	-0.405476
C74	C	0.479961	0.643643	-0.072142
C75	C	0.813294	0.976976	0.261191
O76	O	0.118406	0.269958	-0.445918
O77	O	0.451740	0.603291	-0.112585
O78	O	0.785073	0.936624	0.220748
N79	N	0.119294	0.357740	-0.357906
N80	N	0.452627	0.691074	-0.024573
N81	N	0.785961	1.024407	0.308760
C82	C	0.146568	0.405170	-0.310324
C83	C	0.479901	0.738503	0.023010
C84	C	0.813234	1.071836	0.356343
O85	O	0.118304	0.445513	-0.269862
O86	O	0.451638	0.778846	0.063471
O87	O	0.784971	1.112179	0.396805
C88	C	0.201171	0.405166	-0.310316
C89	C	0.534504	0.738499	0.023017
C90	C	0.867838	1.071833	0.356351
C91	C	0.228502	0.357737	-0.357894
C92	C	0.561835	0.691071	-0.024560
C93	C	0.895168	1.024404	0.308773
C94	C	0.228563	0.262885	-0.453044
C95	C	0.561896	0.596218	-0.119711
C96	C	0.895229	0.929551	0.213622
C97	C	0.283163	0.262886	-0.453041
C98	C	0.616497	0.596220	-0.119707
C99	C	0.949830	0.929553	0.213626
C100	C	0.310433	0.310314	-0.405463
C101	C	0.643766	0.643647	-0.072130
C102	C	0.977100	0.976980	0.261203
C103	C	0.283102	0.357739	-0.357890
C104	C	0.616435	0.691072	-0.024557
C105	C	0.949769	1.024406	0.308777
C106	C	0.228443	0.452591	-0.262730
C107	C	0.561777	0.785924	0.070603
C108	C	0.895110	1.119258	0.403936
C109	C	0.283050	0.452583	-0.262726
C110	C	0.616384	0.785916	0.070607
C111	C	0.949717	1.119249	0.403940
C112	C	0.310381	0.405154	-0.310304
C113	C	0.643715	0.738487	0.023029
C114	C	0.977048	1.071821	0.356363
C115	C	0.364972	0.405168	-0.310309
C116	C	0.698306	0.738501	0.023024
C117	C	1.031639	1.071835	0.356358
N118	N	0.392306	0.357737	-0.357878
N119	N	0.725639	0.691071	-0.024545
N120	N	1.058973	1.024404	0.308788
C121	C	0.365036	0.310310	-0.405456
C122	C	0.698370	0.643643	-0.072122
C123	C	1.031703	0.976977	0.261211
C124	C	0.031897	0.405173	-0.310343
C125	C	0.365230	0.738506	0.022991
C126	C	0.698564	1.071839	0.356324
C127	C	-0.022705	0.405181	-0.310354
C128	C	0.310628	0.738514	0.022980
C129	C	0.643961	1.071847	0.356313
C130	C	-0.022642	0.310319	-0.405505
C131	C	0.310692	0.643653	-0.072172
C132	C	0.644025	0.976986	0.261162
C133	C	0.031962	0.310316	-0.405497
C134	C	0.365295	0.643649	-0.072164
C135	C	0.698628	0.976982	0.261170
C136	C	0.059230	0.357742	-0.357912
C137	C	0.392564	0.691075	-0.024579
C138	C	0.725897	1.024409	0.308754
C139	C	0.479701	0.310318	-0.405444
C140	C	0.813035	0.643651	-0.072111
C141	C	1.146368	0.976984	0.261222
C142	C	0.534307	0.310326	-0.405439
C143	C	0.867640	0.643659	-0.072105
C144	C	1.200973	0.976993	0.261228
C145	C	0.534238	0.405184	-0.310285
C146	C	0.867572	0.738518	0.023048
C147	C	1.200905	1.071851	0.356382
C148	C	0.479638	0.405179	-0.310293
C149	C	0.812971	0.738513	0.023040
C150	C	1.146304	1.071846	0.356373
C151	C	0.452370	0.357740	-0.357876
C152	C	0.785704	0.691073	-0.024542
C153	C	1.119037	1.024407	0.308791
O154	O	0.393228	0.445497	-0.269885
O155	O	0.726562	0.778830	0.063449
O156	O	1.059895	1.112164	0.396782
O157	O	0.393306	0.269967	-0.445904
O158	O	0.726640	0.603300	-0.112570
O159	O	1.059973	0.936633	0.220763
C160	C	0.891906	0.357748	-0.357916
C161	C	1.225239	0.691081	-0.024582
C162	C	1.558573	1.024415	0.308751
C163	C	0.950020	0.357750	-0.357929
C164	C	1.283353	0.691084	-0.024595
C165	C	1.616687	1.024417	0.308738
C166	C	0.755611	0.164037	-0.357914
C167	C	1.088944	0.497370	-0.024581
C168	C	1.422277	0.830704	0.308752
C169	C	0.755644	0.081491	-0.357927
C170	C	1.088977	0.414824	-0.024593
C171	C	1.422310	0.748158	0.308740
C172	C	0.720606	0.832708	-0.407474
C173	C	1.053940	1.166041	-0.074141
C174	C	1.387273	1.499375	0.259192
C175	C	0.707865	0.882143	-0.339706
C176	C	1.041199	1.215476	-0.006373
C177	C	1.374532	1.548810	0.326961
C178	C	0.755542	0.784371	-0.357903
C179	C	1.088875	1.117704	-0.024569
C180	C	1.422209	1.451037	0.308764
C181	C	0.768309	0.882018	-0.425679
C182	C	1.101642	1.215351	-0.092345
C183	C	1.434976	1.548684	0.240988
C184	C	0.755591	0.930356	-0.357918
C185	C	1.088924	1.263689	-0.024585
C186	C	1.422257	1.597022	0.308749
C187	C	0.742776	0.832718	-0.290099
C188	C	1.076109	1.166052	0.043235
C189	C	1.409442	1.499385	0.376568
C190	C	0.803242	0.832589	-0.376117
C191	C	1.136575	1.165922	-0.042784
C192	C	1.469909	1.499255	0.290550
C193	C	0.790519	0.882001	-0.308302
C194	C	1.123852	1.215334	0.025031
C195	C	1.457185	1.548668	0.358365
C196	C	0.755513	0.700272	-0.357895
C197	C	1.088846	1.033606	-0.024562
C198	C	1.422179	1.366939	0.308772
C199	C	0.755620	1.014452	-0.357918
C200	C	1.088954	1.347786	-0.024585
C201	C	1.422287	1.681119	0.308748
C202	C	0.720645	0.407233	-0.833573
C203	C	1.053979	0.740566	-0.500240
C204	C	1.387312	1.073899	-0.166906
C205	C	0.768346	0.425383	-0.882969
C206	C	1.101680	0.758716	-0.549635
C207	C	1.435013	1.092050	-0.216302
C208	C	0.755588	0.357639	-0.785268
C209	C	1.088921	0.690972	-0.451934
C210	C	1.422255	1.024306	-0.118601
C211	C	0.707913	0.339468	-0.882954
C212	C	1.041246	0.672801	-0.549620
C213	C	1.374580	1.006135	-0.216287
C214	C	0.755609	0.357586	-0.931253
C215	C	1.088942	0.690919	-0.597920
C216	C	1.422275	1.024252	-0.264586
C217	C	0.803314	0.375825	-0.833576
C218	C	1.136648	0.709158	-0.500243
C219	C	1.469981	1.042491	-0.166910
C220	C	0.742849	0.289878	-0.833557
C221	C	1.076182	0.623212	-0.500224
C222	C	1.409515	0.956545	-0.166890
C223	C	0.790583	0.308003	-0.882930
C224	C	1.123916	0.641336	-0.549597
C225	C	1.457249	0.974669	-0.216264
C226	C	0.755575	0.357671	-0.701169
C227	C	1.088909	0.691005	-0.367836
C228	C	1.422242	1.024338	-0.034503
C229	C	0.755627	0.357553	-1.015349
C230	C	1.088960	0.690886	-0.682016
C231	C	1.422293	1.024219	-0.348683
C232	C	0.755543	0.357722	-0.164934
C233	C	1.088876	0.691055	0.168400
C234	C	1.422209	1.024388	0.501733
C235	C	0.755635	0.357527	-0.082388
C236	C	1.088969	0.690860	0.250945
C237	C	1.422302	1.024193	0.584278
H238	H	0.556557	0.271703	-0.444185
H239	H	0.889890	0.605036	-0.110851
H240	H	1.223224	0.938370	0.222482
H241	H	0.457507	0.271686	-0.444188
H242	H	0.790840	0.605019	-0.110855
H243	H	1.124174	0.938353	0.222479
H244	H	0.820176	0.266040	-0.904465
H245	H	1.153509	0.599374	-0.571132
H246	H	1.486842	0.932707	-0.237799
O247	O	0.681416	0.804027	-0.462920
O248	O	1.014749	1.137360	-0.129586
O249	O	1.348082	1.470693	0.203747
H250	H	0.691630	0.824626	-0.519006
H251	H	1.024963	1.157960	-0.185673
H252	H	1.358297	1.491293	0.147660
H253	H	0.779088	0.903673	-0.482990
H254	H	1.112421	1.237006	-0.149656
H255	H	1.445755	1.570339	0.183677
H256	H	0.779134	0.482664	-0.904673
H257	H	1.112467	0.815997	-0.571340
H258	H	1.445801	1.149330	-0.238006
O259	O	0.728548	0.214026	-0.804772
O260	O	1.061882	0.547359	-0.471439
O261	O	1.395215	0.880693	-0.138106
H262	H	0.729050	0.214634	-0.743289
H263	H	1.062383	0.547968	-0.409955
H264	H	1.395717	0.881301	-0.076622
O265	O	0.563655	0.456330	-0.258963
O266	O	0.896988	0.789664	0.074370
O267	O	1.230321	1.122997	0.407703
H268	H	0.606215	0.448350	-0.266950
H269	H	0.939548	0.781684	0.066383
H270	H	1.272881	1.115017	0.399717
O271	O	0.061308	0.456335	-0.259023
O272	O	0.394641	0.789668	0.074311
O273	O	0.727975	1.123001	0.407644
H274	H	0.033124	0.489317	-0.225954
H275	H	0.366457	0.822650	0.107379
H276	H	0.699790	1.155984	0.440713
O277	O	0.654498	0.319126	-0.911681
O278	O	0.987831	0.652460	-0.578347
O279	O	1.321164	0.985793	-0.245014
H280	H	0.625559	0.360396	-0.891902
H281	H	0.958892	0.693729	-0.558569
H282	H	1.292226	1.027062	-0.225235
O283	O	0.312639	0.211717	-0.504342
O284	O	0.645972	0.545050	-0.171009
O285	O	0.979306	0.878384	0.162324
H286	H	0.284496	0.178734	-0.537414
H287	H	0.617829	0.512067	-0.204080
H288	H	0.951162	0.845401	0.129253
O289	O	-0.052182	0.456337	-0.259040
O290	O	0.281151	0.789670	0.074294
O291	O	0.614485	1.123003	0.407627
H292	H	-0.024041	0.489308	-0.225954
H293	H	0.309293	0.822641	0.107380
H294	H	0.642626	1.155975	0.440713
H295	H	0.206365	0.224260	-0.491788
H296	H	0.539699	0.557593	-0.158454
H297	H	0.873032	0.890926	0.174879
H298	H	0.667550	0.903926	-0.324314
H299	H	1.000883	1.237259	0.009019
H300	H	1.334217	1.570593	0.342352
H301	H	0.731950	0.811153	-0.232772
H302	H	1.065283	1.144486	0.100562
H303	H	1.398617	1.477819	0.433895
O304	O	0.681545	0.462861	-0.804858
O305	O	1.014878	0.796194	-0.471525
O306	O	1.348212	1.129528	-0.138191
H307	H	0.642079	0.448318	-0.825490
H308	H	0.975412	0.781651	-0.492156
H309	H	1.308745	1.114984	-0.158823
O310	O	0.829681	0.910494	-0.252720
O311	O	1.163014	1.243827	0.080613
O312	O	1.496348	1.577160	0.413946
H313	H	0.859529	0.944278	-0.281719
H314	H	1.192862	1.277611	0.051615
H315	H	1.526196	1.610945	0.384948
O316	O	0.061439	0.259152	-0.456803
O317	O	0.394773	0.592486	-0.123469
O318	O	0.728106	0.925819	0.209864
H319	H	0.033298	0.226173	-0.489880
H320	H	0.366631	0.559506	-0.156547
H321	H	0.699965	0.892839	0.176786
H322	H	0.843548	0.810808	-0.391541
H323	H	1.176881	1.144141	-0.058208
H324	H	1.510215	1.477474	0.275126
O325	O	0.856763	0.395943	-0.804817
O326	O	1.190096	0.729276	-0.471484
O327	O	1.523429	1.062610	-0.138151
H328	H	0.854002	0.446819	-0.770484
H329	H	1.187335	0.780152	-0.437150
H330	H	1.520668	1.113485	-0.103817
O331	O	-0.052060	0.259153	-0.456812
O332	O	0.281273	0.592487	-0.123479
O333	O	0.614606	0.925820	0.209855
H334	H	-0.076946	0.292442	-0.494538
H335	H	0.256387	0.625775	-0.161204
H336	H	0.589721	0.959108	0.172129
O337	O	0.198977	0.503738	-0.211401
O338	O	0.532310	0.837072	0.121933
O339	O	0.865644	1.170405	0.455266
H340	H	0.209445	0.562043	-0.224023
H341	H	0.542778	0.895376	0.109310
H342	H	0.876112	1.228709	0.442643
O343	O	0.312463	0.503734	-0.211400
O344	O	0.645797	0.837068	0.121933
O345	O	0.979130	1.170401	0.455267
H346	H	0.301967	0.562039	-0.224039
H347	H	0.635300	0.895373	0.109295
H348	H	0.968634	1.228706	0.442628
O349	O	0.450154	0.456334	-0.258981
O350	O	0.783487	0.789667	0.074352
O351	O	1.116821	1.123001	0.407685
H352	H	0.478292	0.489311	-0.225895
H353	H	0.811626	0.822644	0.107438
H354	H	1.144959	1.155977	0.440771
