data_functionalizedCrystal
_audit_creation_method	'MofGen! by Chris Wilmer'
_symmetry_space_group_name_H-M	'P1'
_symmetry_Int_Tables_number	1
_symmetry_cell_setting	triclinic
loop_
_symmetry_equiv_pos_as_xyz
  x,y,z
_cell_length_a	27.732064
_cell_length_b	27.732048
_cell_length_c	18.266242
_cell_angle_alpha	89.988683
_cell_angle_beta	89.998592
_cell_angle_gamma	82.646040
loop_
_atom_site_label
_atom_site_type_symbol
_atom_site_fract_x
_atom_site_fract_y
_atom_site_fract_z
O1	O	0.640925	0.057556	-0.060758
O2	O	1.140925	0.557556	0.439242
O3	O	0.500133	0.066293	-0.060789
O4	O	1.000133	0.566293	0.439211
O5	O	0.574901	-0.008472	-0.060759
O6	O	1.074901	0.491528	0.439241
O7	O	0.566156	0.132321	-0.060789
O8	O	1.066156	0.632321	0.439211
O9	O	0.574889	-0.008476	0.061003
O10	O	1.074889	0.491524	0.561003
O11	O	0.500120	0.066289	0.060973
O12	O	1.000120	0.566289	0.560973
O13	O	0.640912	0.057552	0.061004
O14	O	1.140912	0.557552	0.561004
Zn15	Zn	0.570514	0.061920	0.080321
Zn16	Zn	1.070514	0.561920	0.580321
Zn17	Zn	0.570531	0.061925	-0.080106
Zn18	Zn	1.070531	0.561925	0.419894
O19	O	0.566144	0.132317	0.060973
O20	O	1.066144	0.632317	0.560973
C21	C	0.482120	0.066106	0.000088
C22	C	0.982120	0.566106	0.500088
C23	C	0.428465	0.065551	0.000077
C24	C	0.928465	0.565551	0.500077
C25	C	0.051392	0.017583	0.000128
C26	C	0.551392	0.517583	0.500128
C27	C	0.253053	0.019630	0.000109
C28	C	0.753053	0.519630	0.500109
O29	O	0.284305	-0.017591	0.000144
O30	O	0.784305	0.482409	0.500144
N31	N	0.272180	0.063964	0.000096
N32	N	0.772180	0.563964	0.500096
C33	C	0.240889	0.107790	0.000093
C34	C	0.740889	0.607790	0.500093
O35	O	0.261785	0.145546	0.000090
O36	O	0.761785	0.645546	0.500090
C37	C	0.039230	0.105743	0.000118
C38	C	0.539230	0.605743	0.500118
C39	C	0.020105	0.061406	0.000123
C40	C	0.520105	0.561406	0.500123
C41	C	0.032267	-0.026750	0.000134
C42	C	0.532267	0.473250	0.500134
C43	C	-0.018145	-0.027261	0.000135
C44	C	0.481855	0.472739	0.500135
C45	C	-0.049432	0.016561	0.000130
C46	C	0.450568	0.516561	0.500130
C47	C	-0.030307	0.060895	0.000124
C48	C	0.469693	0.560895	0.500124
C49	C	0.007940	0.149568	0.000120
C50	C	0.507940	0.649568	0.500120
C51	C	-0.042478	0.149053	0.000128
C52	C	0.457522	0.649053	0.500128
C53	C	-0.061602	0.104716	0.000134
C54	C	0.438398	0.604716	0.500134
C55	C	-0.112006	0.104206	0.000120
C56	C	0.387994	0.604206	0.500120
N57	N	-0.131134	0.059872	0.000132
N58	N	0.368866	0.559872	0.500132
C59	C	-0.099846	0.016049	0.000138
C60	C	0.400154	0.516049	0.500138
C61	C	0.346763	0.108861	0.000079
C62	C	0.846763	0.608861	0.500079
C63	C	0.397178	0.109373	0.000071
C64	C	0.897178	0.609373	0.500071
C65	C	0.409338	0.021213	0.000088
C66	C	0.909338	0.521213	0.500088
C67	C	0.358923	0.020701	0.000091
C68	C	0.858923	0.520701	0.500091
C69	C	0.327636	0.064527	0.000092
C70	C	0.827636	0.564527	0.500092
C71	C	-0.205716	0.014979	0.000139
C72	C	0.294284	0.514979	0.500139
C73	C	-0.256133	0.014472	0.000137
C74	C	0.243867	0.514472	0.500137
C75	C	-0.268289	0.102632	0.000124
C76	C	0.231711	0.602632	0.500124
C77	C	-0.217876	0.103140	0.000122
C78	C	0.282124	0.603140	0.500122
C79	C	-0.186590	0.059309	0.000132
C80	C	0.313410	0.559309	0.500132
O81	O	-0.143287	0.141407	0.000093
O82	O	0.356713	0.641407	0.500093
O83	O	-0.120752	-0.021701	0.000158
O84	O	0.379248	0.478299	0.500158
C85	C	0.101804	0.018094	0.000128
C86	C	0.601804	0.518094	0.500128
C87	C	0.120930	0.062428	0.000121
C88	C	0.620930	0.562428	0.500121
C89	C	0.089642	0.106250	0.000116
C90	C	0.589642	0.606250	0.500116
C91	C	0.171344	0.062940	0.000114
C92	C	0.671344	0.562940	0.500114
C93	C	0.202631	0.019117	0.000119
C94	C	0.702631	0.519117	0.500119
C95	C	0.183504	-0.025217	0.000132
C96	C	0.683504	0.474783	0.500132
C97	C	0.133092	-0.025728	0.000133
C98	C	0.633092	0.474272	0.500133
C99	C	0.108770	0.150585	0.000104
C100	C	0.608770	0.650585	0.500104
C101	C	0.159183	0.151092	0.000102
C102	C	0.659183	0.651092	0.500102
C103	C	0.190470	0.107270	0.000107
C104	C	0.690470	0.607270	0.500107
C105	C	0.574712	-0.026481	0.000124
C106	C	1.074712	0.473519	0.500124
C107	C	0.574159	-0.080136	0.000130
C108	C	1.074159	0.419864	0.500130
C109	C	0.614862	-0.418948	0.000101
C110	C	1.114862	0.081052	0.500101
C111	C	0.612811	-0.620608	0.000091
C112	C	1.112811	-0.120608	0.500091
O113	O	0.650032	-0.651862	0.000067
O114	O	1.150032	-0.151862	0.500067
N115	N	0.568476	-0.639735	0.000082
N116	N	1.068476	-0.139735	0.500082
C117	C	0.524651	-0.608442	0.000070
C118	C	1.024651	-0.108442	0.500070
O119	O	0.486895	-0.629338	0.000055
O120	O	0.986895	-0.129338	0.500055
C121	C	0.526703	-0.406784	0.000076
C122	C	1.026703	0.093216	0.500076
C123	C	0.571040	-0.387660	0.000092
C124	C	1.071040	0.112340	0.500092
C125	C	0.659196	-0.399824	0.000117
C126	C	1.159196	0.100176	0.500117
C127	C	0.659709	-0.349412	0.000124
C128	C	1.159709	0.150588	0.500124
C129	C	0.615887	-0.318124	0.000115
C130	C	1.115887	0.181876	0.500115
C131	C	0.571553	-0.337248	0.000099
C132	C	1.071553	0.162752	0.500099
C133	C	0.482878	-0.375493	0.000059
C134	C	0.982878	0.124507	0.500059
C135	C	0.483395	-0.325075	0.000059
C136	C	0.983395	0.174925	0.500059
C137	C	0.527733	-0.305952	0.000075
C138	C	1.027733	0.194048	0.500075
C139	C	0.528243	-0.255548	0.000097
C140	C	1.028243	0.244452	0.500097
N141	N	0.572578	-0.236422	0.000106
N142	N	1.072578	0.263578	0.500106
C143	C	0.616400	-0.267710	0.000115
C144	C	1.116400	0.232290	0.500115
C145	C	0.523577	-0.714317	0.000069
C146	C	1.023577	-0.214317	0.500069
C147	C	0.523064	-0.764731	0.000069
C148	C	1.023064	-0.264731	0.500069
C149	C	0.611225	-0.776893	0.000088
C150	C	1.111225	-0.276893	0.500088
C151	C	0.611737	-0.726478	0.000093
C152	C	1.111737	-0.226478	0.500093
C153	C	0.567912	-0.695190	0.000078
C154	C	1.067912	-0.195190	0.500078
C155	C	0.617472	-0.161841	0.000129
C156	C	1.117472	0.338159	0.500129
C157	C	0.617981	-0.111424	0.000139
C158	C	1.117981	0.388576	0.500139
C159	C	0.529821	-0.099266	0.000116
C160	C	1.029821	0.400734	0.500116
C161	C	0.529312	-0.149679	0.000110
C162	C	1.029312	0.350321	0.500110
C163	C	0.573142	-0.180965	0.000115
C164	C	1.073142	0.319035	0.500115
O165	O	0.491043	-0.224267	0.000112
O166	O	0.991043	0.275733	0.500112
O167	O	0.654151	-0.246805	0.000114
O168	O	1.154151	0.253195	0.500114
C169	C	0.614350	-0.469360	0.000095
C170	C	1.114350	0.030640	0.500095
C171	C	0.570016	-0.488484	0.000079
C172	C	1.070016	0.011516	0.500079
C173	C	0.526194	-0.457196	0.000070
C174	C	1.026194	0.042804	0.500070
C175	C	0.569503	-0.538899	0.000079
C176	C	1.069503	-0.038899	0.500079
C177	C	0.613325	-0.570187	0.000088
C178	C	1.113325	-0.070187	0.500088
C179	C	0.657660	-0.551060	0.000097
C180	C	1.157660	-0.051060	0.500097
C181	C	0.658172	-0.500648	0.000104
C182	C	1.158172	-0.000648	0.500104
C183	C	0.481859	-0.476323	0.000061
C184	C	0.981859	0.023677	0.500061
C185	C	0.481351	-0.526735	0.000055
C186	C	0.981351	-0.026735	0.500055
C187	C	0.525172	-0.558023	0.000064
C188	C	1.025172	-0.058023	0.500064
C189	C	0.658925	0.057739	0.000125
C190	C	1.158925	0.557739	0.500125
C191	C	0.712580	0.058295	0.000132
C192	C	1.212580	0.558295	0.500132
C193	C	0.566333	0.150326	0.000089
C194	C	1.066333	0.650326	0.500089
C195	C	0.566886	0.203981	0.000078
C196	C	1.066886	0.703981	0.500078
N197	N	0.570506	0.061916	0.189808
N198	N	1.070506	0.561916	0.689808
N199	N	0.570542	0.061925	-0.189593
N200	N	1.070542	0.561925	0.310407
C201	C	0.603625	0.028827	0.228130
C202	C	1.103625	0.528827	0.728130
C203	C	0.603628	0.028824	0.304775
C204	C	1.103628	0.528824	0.804775
C205	C	0.570517	0.061920	0.343094
C206	C	1.070517	0.561920	0.843094
C207	C	0.537393	0.095013	0.304763
C208	C	1.037393	0.595013	0.804763
C209	C	0.537387	0.095011	0.228119
C210	C	1.037387	0.595011	0.728119
N211	N	0.564045	0.104738	0.463417
N212	N	1.064045	0.604738	0.963417
N213	N	0.564053	0.104739	0.536225
N214	N	1.064053	0.604739	1.036225
C215	C	0.570531	0.061927	0.574017
C216	C	1.070531	0.561927	1.074017
N217	N	0.577010	0.019114	0.536250
N218	N	1.077010	0.519114	1.036250
N219	N	0.577004	0.019114	0.463435
N220	N	1.077004	0.519114	0.963435
C221	C	0.570519	0.061926	0.426201
C222	C	1.070519	0.561926	0.926201
C223	C	0.603654	0.028832	0.695446
C224	C	1.103654	0.528832	1.195446
C225	C	0.603654	0.028829	0.772093
C226	C	1.103654	0.528829	1.272093
C227	C	0.537421	0.095022	0.772079
C228	C	1.037421	0.595022	1.272079
C229	C	0.537419	0.095020	0.695434
C230	C	1.037419	0.595020	1.195434
C231	C	0.570538	0.061926	0.657123
C232	C	1.070538	0.561926	1.157123
H233	H	-0.067950	0.184742	0.000132
H234	H	0.432050	0.684742	0.500132
H235	H	0.447706	-0.299603	0.000045
H236	H	0.947706	0.200397	0.500045
F237	F	0.638871	-0.006397	0.187357
F238	F	1.138871	0.493603	0.687357
F239	F	0.435215	-0.443029	0.000049
F240	F	0.935215	0.056971	0.500049
H241	H	0.174748	0.187200	0.000092
H242	H	0.674748	0.687200	0.500092
F243	F	0.638901	-0.006392	0.654671
F244	F	1.138901	0.493608	1.154671
F245	F	-0.276483	-0.032719	0.000138
F246	F	0.223517	0.467281	0.500138
H247	H	0.694883	-0.425295	0.000122
H248	H	1.194883	0.074705	0.500122
H249	H	0.510453	0.121967	0.664230
H250	H	1.010453	0.621967	1.164230
H251	H	0.117526	-0.061832	0.000137
H252	H	0.617526	0.438168	0.500137
F253	F	0.216811	-0.071856	0.000134
F254	F	0.716811	0.428144	0.500134
F255	F	0.665173	-0.091075	0.000156
F256	F	1.165173	0.408925	0.500156
F257	F	0.658927	-0.706130	0.000111
F258	F	1.158927	-0.206130	0.500111
H259	H	0.630598	0.001877	0.335983
H260	H	1.130598	0.501877	0.835983
F261	F	0.476930	-0.681023	0.000053
F262	F	0.976930	-0.181023	0.500053
F263	F	0.475874	-0.785078	0.000064
F264	F	0.975874	-0.285078	0.500064
H265	H	0.510433	0.121959	0.335966
H266	H	1.010433	0.621959	0.835966
F267	F	0.434157	-0.547081	0.000042
F268	F	0.934157	-0.047081	0.500042
H269	H	0.510418	0.121957	0.196917
H270	H	1.010418	0.621957	0.696917
F271	F	-0.197522	0.150328	0.000107
F272	F	0.302478	0.650328	0.500107
H273	H	0.693341	-0.576544	0.000108
H274	H	1.193341	-0.076544	0.500108
F275	F	0.638902	-0.006394	0.812880
F276	F	1.138902	0.493606	1.312880
F277	F	0.502179	0.130242	0.812858
F278	F	1.002179	0.630242	1.312858
H279	H	-0.180248	-0.020712	0.000147
H280	H	0.319752	0.479288	0.500147
F281	F	0.338574	-0.026488	0.000099
F282	F	0.838574	0.473512	0.500099
H283	H	-0.033711	-0.063365	0.000143
H284	H	0.466289	0.436635	0.500143
H285	H	0.057737	-0.062438	0.000141
H286	H	0.557737	0.437562	0.500141
H287	H	0.694276	-0.485083	0.000117
H288	H	1.194276	0.014917	0.500117
H289	H	0.434821	-0.014469	0.000090
H290	H	0.934821	0.485531	0.500090
F291	F	0.664121	-0.195132	0.000134
F292	F	1.164121	0.304868	0.500134
H293	H	0.412744	0.145477	0.000057
H294	H	0.912744	0.645477	0.500057
F295	F	0.435687	-0.395834	0.000039
F296	F	0.935687	0.104166	0.500039
H297	H	0.321293	0.144551	0.000079
H298	H	0.821293	0.644551	0.500079
H299	H	0.023501	0.185672	0.000113
H300	H	0.523501	0.685672	0.500113
F301	F	-0.301595	0.149269	0.000114
F302	F	0.198405	0.649269	0.500114
F303	F	0.075478	0.197229	0.000096
F304	F	0.575478	0.697229	0.500096
F305	F	0.657863	-0.810201	0.000096
F306	F	1.157863	-0.310201	0.500096
F307	F	0.706899	-0.329067	0.000126
F308	F	1.206899	0.170933	0.500126
F309	F	0.482123	-0.170032	0.000106
F310	F	0.982123	0.329968	0.500106
F311	F	0.483185	-0.065958	0.000107
F312	F	0.983185	0.434042	0.500107
