data_functionalizedCrystal
_audit_creation_method	'MofGen! by Chris Wilmer'
_symmetry_space_group_name_H-M	'P1'
_symmetry_Int_Tables_number	1
_symmetry_cell_setting	triclinic
loop_
_symmetry_equiv_pos_as_xyz
  x,y,z
_cell_length_a	6.817900
_cell_length_b	11.102288
_cell_length_c	11.168136
_cell_angle_alpha	91.983489
_cell_angle_beta	108.508683
_cell_angle_gamma	108.605689
loop_
_atom_site_label
_atom_site_type_symbol
_atom_site_fract_x
_atom_site_fract_y
_atom_site_fract_z
V1	V	-4.110388	-0.175858	-0.393699
O2	O	-4.069442	0.008431	-0.386205
O3	O	-4.087173	-0.348678	-0.391007
O4	O	-4.086671	-0.173162	-0.565405
O5	O	-4.069948	-0.168301	-0.210599
V6	V	-4.587554	-0.153814	-0.371799
O7	O	-4.385590	-0.224214	-0.441739
O8	O	-4.762549	-0.105458	-0.323759
O9	O	-4.387563	0.019006	-0.374492
O10	O	-4.745897	-0.338103	-0.379294
O11	O	-4.745391	-0.161372	-0.554899
O12	O	-4.388065	-0.156511	-0.200093
C13	C	-3.937502	-0.390808	-0.384796
C14	C	-3.999972	-0.532091	-0.383739
C15	C	-3.936860	-0.166917	-0.607257
C16	C	-3.998918	-0.165856	-0.747627
C17	C	-4.213310	-0.604939	-0.389542
C18	C	-4.272001	-0.737691	-0.388559
C19	C	-3.903991	-0.724732	-0.375964
C20	C	-3.845308	-0.591984	-0.376957
C21	C	-4.201443	-0.171411	-0.816319
C22	C	-4.265588	-0.170315	-0.961399
C23	C	-4.200576	0.061129	-0.380699
C24	C	-4.117346	0.202410	-0.381764
C25	C	-4.201217	-0.162759	-0.158235
C26	C	-4.118396	-0.163814	-0.017863
H27	H	-4.445718	-0.796999	-0.393287
H28	H	-3.671579	-0.532669	-0.372235
C29	C	-4.380999	-0.539799	-0.396654
C30	C	-4.301613	-0.446858	-0.288436
C31	C	-4.456047	-0.386841	-0.294938
H32	H	-4.404139	-0.499785	-0.471199
H33	H	-4.516470	-0.602152	-0.399905
H34	H	-4.166181	-0.384515	-0.285198
H35	H	-4.278485	-0.486839	-0.213875
H36	H	-4.591519	-0.449194	-0.298189
H37	H	-4.479176	-0.346834	-0.369488
H38	H	-4.402215	-0.323783	-0.221510
C39	C	-4.369379	-0.179097	-0.751505
C40	C	-4.403270	-0.289899	-0.693195
C41	C	-4.557985	-0.297031	-0.633493
H42	H	-4.315906	-0.105383	-0.688692
H43	H	-4.504838	-0.182513	-0.813386
H44	H	-4.267838	-0.286473	-0.631319
H45	H	-4.456773	-0.363632	-0.755980
H46	H	-4.693444	-0.300446	-0.695375
H47	H	-4.504497	-0.223311	-0.570686
H48	H	-4.581015	-0.372215	-0.593933
C49	C	-3.736031	-0.789791	-0.368325
C50	C	-3.702454	-0.848456	-0.258228
C51	C	-3.547717	-0.908382	-0.251134
H52	H	-3.789357	-0.853006	-0.441555
H53	H	-3.600490	-0.727418	-0.364941
H54	H	-3.837968	-0.910823	-0.261622
H55	H	-3.649098	-0.785269	-0.184978
H56	H	-3.412176	-0.846010	-0.247751
H57	H	-3.601059	-0.971592	-0.324370
H58	H	-3.524900	-0.948184	-0.176429
H59	H	-4.439086	-0.175076	-1.020451
H60	H	-3.944901	-0.159066	-0.958822
C61	C	-3.831143	-0.158235	-0.812548
C62	C	-3.797330	-0.047464	-0.870908
C63	C	-3.642806	-0.040408	-0.930735
H64	H	-3.695623	-0.154819	-0.750768
H65	H	-3.884808	-0.232002	-0.875347
H66	H	-3.743658	0.026285	-0.808116
H67	H	-3.932807	-0.050855	-0.932707
H68	H	-3.696471	-0.114176	-0.993534
H69	H	-3.507298	-0.036997	-0.868947
H70	H	-3.619859	0.034742	-0.970349
