data_functionalizedCrystal
_audit_creation_method	'MofGen! by Chris Wilmer'
_symmetry_space_group_name_H-M	'P1'
_symmetry_Int_Tables_number	1
_symmetry_cell_setting	triclinic
loop_
_symmetry_equiv_pos_as_xyz
  x,y,z
_cell_length_a	21.395362
_cell_length_b	21.295417
_cell_length_c	21.295412
_cell_angle_alpha	89.969860
_cell_angle_beta	89.964183
_cell_angle_gamma	90.045579
loop_
_atom_site_label
_atom_site_type_symbol
_atom_site_fract_x
_atom_site_fract_y
_atom_site_fract_z
Zn1	Zn	0.957814	-0.250355	-0.356241
Zn2	Zn	1.291147	0.082979	-0.022908
Zn3	Zn	1.624480	0.416312	0.310425
Zn4	Zn	0.957733	-0.355624	-0.250969
Zn5	Zn	1.291066	-0.022291	0.082365
Zn6	Zn	1.624399	0.311042	0.415698
Zn7	Zn	0.853043	-0.250402	-0.250951
Zn8	Zn	1.186377	0.082931	0.082382
Zn9	Zn	1.519710	0.416265	0.415716
Zn10	Zn	0.853000	-0.355619	-0.356165
Zn11	Zn	1.186333	-0.022286	-0.022832
Zn12	Zn	1.519666	0.311047	0.310502
O13	O	0.905397	-0.303000	-0.303582
O14	O	1.238731	0.030333	0.029752
O15	O	1.572064	0.363667	0.363085
O16	O	1.045481	-0.264301	-0.342316
O17	O	1.378814	0.069032	-0.008983
O18	O	1.712147	0.402365	0.324350
O19	O	0.943830	-0.341688	-0.162877
O20	O	1.277163	-0.008355	0.170456
O21	O	1.610497	0.324979	0.503790
O22	O	0.866994	-0.162306	-0.264943
O23	O	1.200327	0.171027	0.068391
O24	O	1.533660	0.504360	0.401724
O25	O	1.045421	-0.341642	-0.264973
O26	O	1.378755	-0.008309	0.068360
O27	O	1.712088	0.325024	0.401694
O28	O	0.943968	-0.162272	-0.342299
O29	O	1.277301	0.171062	-0.008966
O30	O	1.610634	0.504395	0.324368
O31	O	0.866915	-0.264382	-0.162864
O32	O	1.200249	0.068952	0.170469
O33	O	1.533582	0.402285	0.503803
O34	O	0.765360	-0.264377	-0.264868
O35	O	1.098693	0.068956	0.068465
O36	O	1.432026	0.402290	0.401798
O37	O	0.866919	-0.341634	-0.444264
O38	O	1.200252	-0.008301	-0.110931
O39	O	1.533586	0.325033	0.222402
O40	O	0.765328	-0.341680	-0.342169
O41	O	1.098661	-0.008346	-0.008835
O42	O	1.431994	0.324987	0.324498
O43	O	0.943925	-0.264297	-0.444321
O44	O	1.277259	0.069037	-0.110987
O45	O	1.610592	0.402370	0.222346
O46	O	0.943788	-0.443713	-0.264899
O47	O	1.277121	-0.110380	0.068435
O48	O	1.610454	0.222954	0.401768
O49	O	0.866841	-0.443709	-0.342186
O50	O	1.200174	-0.110376	-0.008852
O51	O	1.533507	0.222957	0.324481
C52	C	0.742610	-0.303033	-0.303508
C53	C	1.075943	0.030300	0.029825
C54	C	1.409276	0.363633	0.363158
C55	C	0.672968	-0.303063	-0.303492
C56	C	1.006302	0.030271	0.029841
C57	C	1.339635	0.363604	0.363174
C58	C	0.640255	-0.343368	-0.343682
C59	C	0.973588	-0.010034	-0.010349
C60	C	1.306922	0.323299	0.322985
C61	C	0.574820	-0.343352	-0.343710
C62	C	0.908153	-0.010019	-0.010377
C63	C	1.241486	0.323314	0.322956
C64	C	0.542100	-0.303039	-0.303537
C65	C	0.875433	0.030295	0.029796
C66	C	1.208767	0.363628	0.363130
C67	C	0.574822	-0.262726	-0.263344
C68	C	0.908155	0.070607	0.069989
C69	C	1.241488	0.403941	0.403322
C70	C	0.640256	-0.262738	-0.263322
C71	C	0.973589	0.070595	0.070012
C72	C	1.306922	0.403929	0.403345
C73	C	0.438383	-0.297977	-0.246867
C74	C	0.771717	0.035356	0.086466
C75	C	1.105050	0.368690	0.419799
C76	C	0.372950	-0.297969	-0.246889
C77	C	0.706284	0.035364	0.086445
C78	C	1.039617	0.368697	0.419778
C79	C	0.340279	-0.302997	-0.303607
C80	C	0.673613	0.030336	0.029727
C81	C	1.006946	0.363669	0.363060
C82	C	0.373050	-0.308047	-0.360305
C83	C	0.706383	0.025287	-0.026972
C84	C	1.039716	0.358620	0.306362
C85	C	0.438484	-0.308059	-0.360282
C86	C	0.771817	0.025275	-0.026949
C87	C	1.105150	0.358608	0.306384
C88	C	0.471148	-0.303021	-0.303557
C89	C	0.804481	0.030313	0.029776
C90	C	1.137814	0.363646	0.363110
C91	C	0.236613	-0.343288	-0.343830
C92	C	0.569947	-0.009954	-0.010497
C93	C	0.903280	0.323379	0.322836
C94	C	0.171177	-0.343268	-0.343859
C95	C	0.504510	-0.009935	-0.010526
C96	C	0.837844	0.323399	0.322807
C97	C	0.171180	-0.262645	-0.263488
C98	C	0.504513	0.070689	0.069845
C99	C	0.837847	0.404022	0.403179
C100	C	0.236615	-0.262661	-0.263464
C101	C	0.569949	0.070672	0.069869
C102	C	0.903282	0.404005	0.403202
C103	C	0.269328	-0.302986	-0.303635
C104	C	0.602662	0.030347	0.029699
C105	C	0.935995	0.363680	0.363032
C106	C	0.905318	-0.466552	-0.303550
C107	C	1.238651	-0.133218	0.029784
C108	C	1.571984	0.200115	0.363117
C109	C	0.905341	-0.536520	-0.303557
C110	C	1.238674	-0.203187	0.029776
C111	C	1.572007	0.130147	0.363110
C112	C	0.945398	-0.569311	-0.343865
C113	C	1.278732	-0.235978	-0.010532
C114	C	1.612065	0.097355	0.322801
C115	C	0.945420	-0.635054	-0.343881
C116	C	1.278754	-0.301720	-0.010548
C117	C	1.612087	0.031613	0.322786
C118	C	0.905391	-0.668002	-0.303577
C119	C	1.238725	-0.334669	0.029756
C120	C	1.572058	-0.001336	0.363090
C121	C	0.865326	-0.635203	-0.263266
C122	C	1.198660	-0.301870	0.070068
C123	C	1.531993	0.031464	0.403401
C124	C	0.865301	-0.569462	-0.263256
C125	C	1.198634	-0.236128	0.070078
C126	C	1.531967	0.097205	0.403411
N127	N	0.900662	-0.771265	-0.248484
N128	N	1.233995	-0.437932	0.084849
N129	N	1.567329	-0.104598	0.418182
N130	N	0.900690	-0.833717	-0.248495
N131	N	1.234023	-0.500383	0.084838
N132	N	1.567356	-0.167050	0.418171
C133	C	0.905465	-0.866077	-0.303605
C134	C	1.238798	-0.532744	0.029728
C135	C	1.572131	-0.199410	0.363061
N136	N	0.910223	-0.833627	-0.358705
N137	N	1.243556	-0.500293	-0.025371
N138	N	1.576890	-0.166960	0.307962
N139	N	0.910198	-0.771170	-0.358693
N140	N	1.243532	-0.437836	-0.025360
N141	N	1.576865	-0.104503	0.307974
C142	C	0.905414	-0.739288	-0.303583
C143	C	1.238748	-0.405954	0.029750
C144	C	1.572081	-0.072621	0.363083
C145	C	0.945548	-0.970154	-0.343934
C146	C	1.278882	-0.636821	-0.010601
C147	C	1.612215	-0.303487	0.322733
C148	C	0.945566	-1.035898	-0.343950
C149	C	1.278899	-0.702564	-0.010617
C150	C	1.612233	-0.369231	0.322716
C151	C	0.865475	-1.036046	-0.263330
C152	C	1.198808	-0.702712	0.070004
C153	C	1.532142	-0.369379	0.403337
C154	C	0.865454	-0.970303	-0.263319
C155	C	1.198787	-0.636970	0.070015
C156	C	1.532121	-0.303636	0.403348
C157	C	0.905494	-0.937361	-0.303620
C158	C	1.238827	-0.604028	0.029713
C159	C	1.572161	-0.270695	0.363047
C160	C	1.068821	-0.302967	-0.303655
C161	C	1.402154	0.030366	0.029678
C162	C	1.735487	0.363700	0.363011
C163	C	1.138462	-0.302953	-0.303687
C164	C	1.471795	0.030380	0.029647
C165	C	1.805129	0.363714	0.362980
C166	C	0.905426	-0.302959	-0.467772
C167	C	1.238760	0.030374	-0.134439
C168	C	1.572093	0.363707	0.198895
C169	C	0.905439	-0.302942	-0.537740
C170	C	1.238772	0.030391	-0.204407
C171	C	1.572105	0.363725	0.128927
C172	C	0.905495	-0.138810	-0.303627
C173	C	1.238828	0.194524	0.029706
C174	C	1.572161	0.527857	0.363039
C175	C	0.905536	-0.068842	-0.303647
C176	C	1.238869	0.264492	0.029686
C177	C	1.572203	0.597825	0.363020
C178	C	0.945595	-0.262573	-1.037229
C179	C	1.278929	0.070760	-0.703895
C180	C	1.612262	0.404094	-0.370562
C181	C	0.945590	-0.262588	-0.971486
C182	C	1.278924	0.070745	-0.638153
C183	C	1.612257	0.404079	-0.304819
C184	C	0.905493	-0.302859	-0.938580
C185	C	1.238826	0.030474	-0.605246
C186	C	1.572160	0.363808	-0.271913
C187	C	0.865409	-0.343129	-0.971421
C188	C	1.198742	-0.009796	-0.638088
C189	C	1.532075	0.323538	-0.304755
C190	C	0.865419	-0.343117	-1.037163
C191	C	1.198752	-0.009784	-0.703829
C192	C	1.532086	0.323550	-0.370496
N193	N	0.850629	-0.307718	-0.835332
N194	N	1.183962	0.025615	-0.501999
N195	N	1.517296	0.358949	-0.168666
N196	N	0.850621	-0.307726	-0.772881
N197	N	1.183954	0.025608	-0.439548
N198	N	1.517288	0.358941	-0.106214
C199	C	0.905460	-0.302898	-0.740505
C200	C	1.238793	0.030435	-0.407172
C201	C	1.572127	0.363768	-0.073838
N202	N	0.960309	-0.298051	-0.772939
N203	N	1.293642	0.035283	-0.439606
N204	N	1.626975	0.368616	-0.106273
N205	N	0.960316	-0.298040	-0.835397
N206	N	1.293649	0.035293	-0.502063
N207	N	1.626983	0.368627	-0.168730
C208	C	0.905477	-0.302877	-0.867294
C209	C	1.238811	0.030457	-0.533961
C210	C	1.572144	0.363790	-0.200628
C211	C	0.945539	-0.262650	-0.636386
C212	C	1.278873	0.070683	-0.303052
C213	C	1.612206	0.404016	0.030281
C214	C	0.945536	-0.262670	-0.570642
C215	C	1.278869	0.070663	-0.237308
C216	C	1.612202	0.403997	0.096025
C217	C	0.865348	-0.343208	-0.570578
C218	C	1.198682	-0.009874	-0.237245
C219	C	1.532015	0.323459	0.096088
C220	C	0.865358	-0.343191	-0.636321
C221	C	1.198691	-0.009858	-0.302988
C222	C	1.532024	0.323475	0.030346
C223	C	0.905452	-0.302909	-0.669221
C224	C	1.238786	0.030424	-0.335887
C225	C	1.572119	0.363757	-0.002554
C226	C	0.905405	-0.302995	-0.140030
C227	C	1.238738	0.030338	0.193303
C228	C	1.572071	0.363672	0.526637
C229	C	0.905514	-0.302835	-0.070062
C230	C	1.238847	0.030498	0.263271
C231	C	1.572180	0.363832	0.596604
H232	H	0.144543	-0.376088	-0.376591
H233	H	0.477876	-0.042754	-0.043257
H234	H	0.811209	0.290579	0.290076
H235	H	0.978187	-0.229850	-0.663174
H236	H	1.311520	0.103483	-0.329840
H237	H	1.644853	0.436817	0.003493
H238	H	0.832733	-0.662034	-0.230451
H239	H	1.166066	-0.328701	0.102882
H240	H	1.499400	0.004633	0.436215
H241	H	0.978035	-0.661758	-0.376712
H242	H	1.311368	-0.328424	-0.043379
H243	H	1.644701	0.004909	0.289955
H244	H	0.465162	-0.312168	-0.406448
H245	H	0.798496	0.021165	-0.073115
H246	H	1.131829	0.354499	0.260219
H247	H	0.263250	-0.376119	-0.376543
H248	H	0.596583	-0.042786	-0.043209
H249	H	0.929916	0.290547	0.290124
H250	H	0.978179	-0.229885	-0.543910
H251	H	1.311513	0.103448	-0.210576
H252	H	1.644846	0.436781	0.122757
H253	H	0.548177	-0.229901	-0.230636
H254	H	0.881511	0.103432	0.102697
H255	H	1.214844	0.436766	0.436031
H256	H	0.832716	-0.375975	-0.663054
H257	H	1.166050	-0.042641	-0.329721
H258	H	1.499383	0.290692	0.003612
H259	H	0.977999	-0.542492	-0.376682
H260	H	1.311333	-0.209159	-0.043349
H261	H	1.644666	0.124175	0.289984
H262	H	0.832879	-1.062872	-0.230517
H263	H	1.166212	-0.729538	0.102816
H264	H	1.499546	-0.396205	0.436149
H265	H	0.832779	-0.375905	-1.063896
H266	H	1.166112	-0.042571	-0.730562
H267	H	1.499446	0.290762	-0.397229
H268	H	0.978186	-1.062595	-0.376777
H269	H	1.311519	-0.729262	-0.043444
H270	H	1.644852	-0.395929	0.289889
H271	H	0.978229	-0.229799	-0.944748
H272	H	1.311563	0.103534	-0.611414
H273	H	1.644896	0.436867	-0.278081
H274	H	0.832680	-0.542762	-0.230431
H275	H	1.166014	-0.209429	0.102902
H276	H	1.499347	0.123904	0.436235
H277	H	0.832703	-0.375999	-0.543787
H278	H	1.166036	-0.042666	-0.210453
H279	H	1.499369	0.290667	0.122880
H280	H	0.978149	-0.943332	-0.376752
H281	H	1.311483	-0.609998	-0.043418
H282	H	1.644816	-0.276665	0.289915
H283	H	0.666886	-0.376202	-0.376393
H284	H	1.000219	-0.042869	-0.043060
H285	H	1.333552	0.290464	0.290274
H286	H	0.832838	-0.943603	-0.230493
H287	H	1.166171	-0.610269	0.102840
H288	H	1.499505	-0.276936	0.436173
H289	H	0.144541	-0.229818	-0.230781
H290	H	0.477874	0.103516	0.102552
H291	H	0.811207	0.436849	0.435886
H292	H	0.978246	-0.229775	-1.064011
H293	H	1.311580	0.103558	-0.730678
H294	H	1.644913	0.436892	-0.397345
H295	H	0.548179	-0.376173	-0.376440
H296	H	0.881512	-0.042840	-0.043107
H297	H	1.214846	0.290494	0.290227
H298	H	0.346450	-0.312140	-0.406490
H299	H	0.679784	0.021193	-0.073157
H300	H	1.013117	0.354527	0.260176
H301	H	0.832762	-0.375919	-0.944625
H302	H	1.166095	-0.042586	-0.611291
H303	H	1.499429	0.290748	-0.277958
H304	H	0.666891	-0.229915	-0.230594
H305	H	1.000224	0.103418	0.102739
H306	H	1.333557	0.436752	0.436072
H307	H	0.346274	-0.293862	-0.200721
H308	H	0.679607	0.039471	0.132612
H309	H	1.012941	0.372805	0.465945
H310	H	0.263251	-0.229844	-0.230734
H311	H	0.596584	0.103489	0.102599
H312	H	0.929918	0.436823	0.435933
H313	H	0.464979	-0.293880	-0.200678
H314	H	0.798312	0.039454	0.132656
H315	H	1.131645	0.372787	0.465989
