data_functionalizedCrystal
_audit_creation_method	'MofGen! by Chris Wilmer'
_symmetry_space_group_name_H-M	'P1'
_symmetry_Int_Tables_number	1
_symmetry_cell_setting	triclinic
loop_
_symmetry_equiv_pos_as_xyz
  x,y,z
_cell_length_a	19.805407
_cell_length_b	12.759394
_cell_length_c	12.759387
_cell_angle_alpha	89.968340
_cell_angle_beta	89.976158
_cell_angle_gamma	90.014837
loop_
_atom_site_label
_atom_site_type_symbol
_atom_site_fract_x
_atom_site_fract_y
_atom_site_fract_z
Zn1	Zn	1.034819	-0.418211	-0.594092
Zn2	Zn	1.034748	-0.593928	-0.418410
Zn3	Zn	0.921625	-0.418264	-0.418419
Zn4	Zn	0.921620	-0.593849	-0.594039
O5	O	0.978203	-0.506063	-0.506240
O6	O	1.129526	-0.441532	-0.570806
O7	O	1.019714	-0.570681	-0.271390
O8	O	0.936672	-0.271236	-0.441748
O9	O	1.129474	-0.570630	-0.441733
O10	O	1.019835	-0.271197	-0.570815
O11	O	0.936603	-0.441621	-0.271397
O12	O	0.826908	-0.441544	-0.441697
O13	O	0.936663	-0.570495	-0.741067
O14	O	0.826904	-0.570546	-0.570724
O15	O	1.019830	-0.441455	-0.741106
O16	O	1.019709	-0.740939	-0.441682
O17	O	0.936595	-0.740880	-0.570715
C18	C	0.802347	-0.506043	-0.506206
C19	C	0.727115	-0.506059	-0.506216
C20	C	0.691786	-0.573332	-0.573292
C21	C	0.621098	-0.573334	-0.573307
C22	C	0.585739	-0.506068	-0.506240
C23	C	0.621073	-0.438788	-0.439161
C24	C	0.691760	-0.438782	-0.439153
C25	C	0.335999	-0.438811	-0.439196
C26	C	0.265307	-0.438825	-0.439208
C27	C	0.265337	-0.573363	-0.573350
C28	C	0.336025	-0.573357	-0.573342
C29	C	0.371352	-0.506074	-0.506267
C30	C	0.448000	-0.506071	-0.506254
C31	C	0.509092	-0.506075	-0.506248
C32	C	0.978162	-0.779030	-0.506215
C33	C	0.978207	-0.895807	-0.506239
C34	C	1.064819	-0.895814	-0.371977
C35	C	1.108143	-0.950679	-0.304858
C36	C	1.108183	-1.060400	-0.304886
C37	C	1.064895	-1.115260	-0.372043
C38	C	1.021571	-1.060396	-0.439162
C39	C	1.021535	-0.950672	-0.439124
C40	C	0.934963	-1.060388	-0.573428
C41	C	0.934919	-0.950667	-0.573396
C42	C	0.891676	-1.115248	-0.640585
C43	C	0.848348	-1.060383	-0.707700
C44	C	0.848309	-0.950655	-0.707667
C45	C	0.891595	-0.895802	-0.640514
C46	C	1.154745	-0.506084	-0.506275
C47	C	1.229977	-0.506093	-0.506290
C48	C	0.978254	-0.505960	-0.780274
C49	C	0.978276	-0.505916	-0.897050
C50	C	0.978262	-0.232029	-0.506289
C51	C	0.978287	-0.115253	-0.506309
C52	C	1.064883	-0.371555	-0.897111
C53	C	1.108196	-0.304359	-0.952002
C54	C	1.108213	-0.304321	-1.061724
C55	C	1.064910	-0.371484	-1.116557
C56	C	1.021597	-0.438680	-1.061666
C57	C	1.021586	-0.438713	-0.951942
C58	C	0.934987	-0.573034	-1.061605
C59	C	0.934973	-0.573079	-0.951884
C60	C	0.891684	-0.640196	-1.116438
C61	C	0.848373	-0.707399	-1.061547
C62	C	0.848359	-0.707436	-0.951819
C63	C	0.891660	-0.640275	-0.896992
C64	C	0.978191	-0.506090	-0.233273
C65	C	0.978300	-0.505838	-0.116496
H66	H	0.236566	-0.628144	-0.627970
H67	H	1.064937	-1.204601	-0.372070
Br68	Br	0.789613	-1.134839	-0.798841
H69	H	0.891714	-1.204589	-0.640608
Br70	Br	0.789515	-0.876205	-0.798772
H71	H	0.891564	-0.806461	-0.640475
Br72	Br	0.739766	-0.664634	-0.664309
H73	H	1.064880	-0.371590	-0.807770
Br74	Br	1.166942	-0.213183	-0.877583
Br75	Br	1.166981	-0.213106	-1.136224
H76	H	0.236520	-0.384042	-0.384594
Br77	Br	1.064925	-0.371418	-1.265466
Br78	Br	0.739706	-0.347474	-0.348123
Br79	Br	0.789606	-0.798530	-1.135967
Br80	Br	0.891704	-0.640144	-1.265347
H81	H	0.813081	-0.762144	-0.907133
H82	H	0.891655	-0.640302	-0.807651
H83	H	0.592337	-0.628114	-0.627926
Br84	Br	0.573087	-0.347487	-0.348150
Br85	Br	0.383935	-0.347493	-0.348172
Br86	Br	0.384008	-0.664656	-0.664358
H87	H	1.064782	-0.806473	-0.371933
H88	H	1.143389	-0.906003	-0.250181
Br89	Br	1.166984	-1.134864	-0.213805
