data_functionalizedCrystal
_audit_creation_method	'MofGen! by Chris Wilmer'
_symmetry_space_group_name_H-M	'P1'
_symmetry_Int_Tables_number	1
_symmetry_cell_setting	triclinic
loop_
_symmetry_equiv_pos_as_xyz
  x,y,z
_cell_length_a	19.377369
_cell_length_b	23.196401
_cell_length_c	23.196402
_cell_angle_alpha	59.994235
_cell_angle_beta	48.636837
_cell_angle_gamma	90.016624
loop_
_atom_site_label
_atom_site_type_symbol
_atom_site_fract_x
_atom_site_fract_y
_atom_site_fract_z
Zr1	Zr	0.840217	0.048835	0.382630
O2	O	0.882931	-0.036886	0.370000
O3	O	0.700946	0.056415	0.423805
O4	O	0.700971	-0.063854	0.544069
O5	O	1.026417	0.199523	0.112437
O6	O	0.700968	-0.063858	0.638943
O7	O	0.882906	0.083383	0.249737
O8	O	0.700924	0.151281	0.423813
O9	O	1.026462	-0.015616	0.327566
O10	O	0.793990	0.082235	0.467100
O11	O	0.901093	0.168912	0.293831
O12	O	0.901122	0.027310	0.435426
O13	O	1.008225	0.113987	0.262157
Zr14	Zr	1.069097	0.234058	0.314965
Zr15	Zr	0.840213	0.048829	0.533943
Zr16	Zr	1.069101	0.234064	0.163652
Zr17	Zr	1.069132	0.082757	0.314953
Zr18	Zr	0.840182	0.200136	0.382643
O19	O	1.208368	0.226478	0.273790
O20	O	0.882925	-0.036894	0.585148
O21	O	1.208374	0.226487	0.058642
O22	O	1.026383	0.319779	0.327595
O23	O	0.700940	0.056406	0.638953
O24	O	1.026389	0.319787	0.112447
O25	O	0.882896	0.083370	0.585159
O26	O	1.208343	0.346748	0.153527
O27	O	1.208346	0.346751	0.058652
O28	O	1.026408	0.199510	0.447858
O29	O	1.026458	-0.015621	0.447840
O30	O	0.882856	0.298514	0.249755
O31	O	0.882852	0.298510	0.370029
O32	O	0.700920	0.151277	0.544087
O33	O	1.208394	0.131617	0.153508
O34	O	1.208390	0.131612	0.273782
O35	O	1.008192	0.255583	0.262169
O36	O	0.901089	0.168906	0.435438
O37	O	1.008221	0.113981	0.403764
O38	O	1.115324	0.200658	0.230495
C39	C	0.668319	0.099015	0.433452
C40	C	0.571139	0.084614	0.462183
C41	C	0.954701	-0.047808	0.348782
C42	C	0.954716	-0.112040	0.348776
C43	C	1.010607	-0.096973	0.258339
C44	C	1.010600	-0.157328	0.258339
C45	C	0.954682	-0.232753	0.348788
C46	C	0.898789	-0.247818	0.439237
C47	C	0.898806	-0.187461	0.439230
C48	C	0.861003	-0.370558	0.433115
C49	C	0.860982	-0.430913	0.433119
C50	C	0.954630	-0.418915	0.348810
C51	C	1.048298	-0.346548	0.264484
C52	C	1.048315	-0.286191	0.264477
C53	C	0.954658	-0.298205	0.348805
C54	C	1.010519	-0.469289	0.258367
C55	C	1.010515	-0.529646	0.258370
C56	C	0.898693	-0.620137	0.439272
C57	C	0.898707	-0.559778	0.439264
C58	C	0.954618	-0.484357	0.348809
C59	C	0.531052	0.263718	0.104462
C60	C	0.439722	0.250247	0.131483
C61	C	0.327924	0.159764	0.312363
C62	C	0.419246	0.173229	0.285357
C63	C	0.520806	0.225206	0.181405
C64	C	0.409000	0.134718	0.362300
C65	C	0.500315	0.148179	0.335296
C66	C	0.601876	0.200152	0.231349
C67	C	0.612120	0.238668	0.154401
C68	C	0.307440	0.082737	0.466251
C69	C	0.297193	0.044225	0.543194
C70	C	0.388509	0.057691	0.516191
C71	C	0.490071	0.109664	0.412244
C72	C	0.378265	0.019175	0.593139
C73	C	0.469580	0.032637	0.566135
C74	C	0.581386	0.123125	0.385240
C75	C	1.240994	0.183878	0.264143
C76	C	1.338175	0.198279	0.235413
C77	C	0.954662	0.141454	0.159528
C78	C	0.954664	0.141457	0.095292
C79	C	0.954613	0.330701	0.348814
C80	C	0.954598	0.394933	0.348819
C81	C	0.898736	0.170119	0.081659
C82	C	0.898739	0.170122	0.021301
C83	C	0.954656	0.141447	-0.025406
C84	C	1.010596	0.112785	-0.011773
C85	C	1.010601	0.112790	0.048576
C86	C	0.946678	0.078353	-0.085065
C87	C	0.946666	0.078345	-0.145407
C88	C	0.954648	0.141435	-0.211547
C89	C	0.962621	0.204529	-0.217323
C90	C	0.962626	0.204534	-0.156974
C91	C	0.954658	0.141440	-0.090847
C92	C	0.898720	0.170104	-0.290627
C93	C	0.898730	0.170111	-0.350992
C94	C	1.010581	0.112766	-0.384057
C95	C	1.010578	0.112767	-0.323701
C96	C	0.954641	0.141434	-0.276985
C97	C	0.954651	0.141439	0.538067
C98	C	0.954650	0.141437	0.602304
C99	C	0.668358	-0.090247	0.622705
C100	C	0.571191	-0.168882	0.715667
C101	C	0.668314	0.099007	0.622722
C102	C	0.571132	0.084604	0.715689
C103	C	0.954618	0.330709	0.159544
C104	C	0.954605	0.394943	0.095313
C105	C	1.241000	0.183886	0.074874
C106	C	1.338182	0.198289	-0.018093
C107	C	1.240956	0.373141	0.074890
C108	C	1.338123	0.451775	-0.018072
C109	C	0.954696	-0.047816	0.538051
C110	C	0.954709	-0.112050	0.602282
C111	C	0.581482	-0.234486	0.742796
C112	C	0.490192	-0.308377	0.830150
C113	C	0.388612	-0.316661	0.890369
C114	C	0.378323	-0.251049	0.863237
C115	C	0.469612	-0.177161	0.775889
C116	C	0.469580	0.032591	0.775884
C117	C	0.378258	0.019042	0.863247
C118	C	0.388491	0.057511	0.890410
C119	C	0.490053	0.109527	0.830209
C120	C	0.581373	0.123071	0.742852
C121	C	1.010513	0.470357	0.048613
C122	C	1.010522	0.530720	-0.011754
C123	C	0.954616	0.515667	-0.025413
C124	C	0.898707	0.440246	0.021290
C125	C	0.898705	0.379885	0.081650
C126	C	1.439734	0.250296	-0.078282
C127	C	1.531056	0.263828	-0.165629
C128	C	1.520823	0.225357	-0.192790
C129	C	1.419261	0.173344	-0.132592
C130	C	1.327941	0.159808	-0.045243
C131	C	1.439685	0.460034	-0.078271
C132	C	1.530992	0.533916	-0.165629
C133	C	1.520736	0.599537	-0.192783
C134	C	1.419163	0.591275	-0.132579
C135	C	1.327857	0.517395	-0.045226
C136	C	1.010620	-0.096973	0.615925
C137	C	1.010629	-0.157322	0.676285
C138	C	0.954733	-0.232747	0.722997
C139	C	0.898815	-0.247823	0.709354
C140	C	0.898800	-0.187475	0.649000
H141	H	1.056114	-0.145059	0.184692
H142	H	0.853168	-0.681548	0.512916
H143	H	1.613688	0.540628	-0.214637
H144	H	0.853193	0.193463	0.010199
H145	H	1.245257	0.117462	0.003756
C146	C	0.837175	-0.576355	0.538760
H147	H	0.845187	-0.529608	0.525804
H148	H	0.763620	-0.612319	0.590853
H149	H	0.864762	-0.597356	0.560999
H150	H	0.676228	0.211109	0.209365
C151	C	0.288037	0.042615	0.986497
H152	H	0.308667	0.072970	0.994062
H153	H	0.246730	0.056277	0.978920
H154	H	0.246744	-0.010598	1.045795
H155	H	0.448077	0.281610	0.068819
H156	H	0.664084	0.165451	0.300592
C157	C	0.837408	-0.330778	0.760666
H158	H	0.804118	-0.331120	0.743888
H159	H	0.885740	-0.348651	0.736455
H160	H	0.784489	-0.363737	0.833300
C161	C	0.266585	-0.260168	0.929462
H162	H	0.273519	-0.210516	0.900801
H163	H	0.228674	-0.287803	0.930769
H164	H	0.228630	-0.287802	0.997669
H165	H	0.694819	0.280993	0.069753
C166	C	0.288204	-0.397941	0.986441
H167	H	0.308891	-0.435823	0.993960
H168	H	0.246885	-0.404080	1.045754
H169	H	0.246900	-0.404070	0.978864
H170	H	1.124583	-0.227272	0.195817
C171	C	1.216143	0.508315	0.020994
H172	H	1.163225	0.454919	0.076908
H173	H	1.208146	0.532213	0.046895
H174	H	1.208132	0.532207	-0.019971
H175	H	0.233089	0.071774	0.488234
H176	H	0.498369	0.140844	0.852340
C177	C	0.837316	-0.204061	0.633978
H178	H	0.845304	-0.157324	0.591347
H179	H	0.864948	-0.225048	0.602273
H180	H	0.763754	-0.240042	0.699057
C181	C	1.072036	-0.386323	0.158868
H182	H	1.105339	-0.385993	0.104999
H183	H	1.023788	-0.368376	0.170051
H184	H	1.124955	-0.353417	0.140157
H185	H	0.853171	0.318480	0.119675
H186	H	1.410945	0.142024	-0.154720
H187	H	1.595190	0.236386	-0.263918
H188	H	0.613750	0.306043	0.019814
H189	H	1.056141	-0.035564	0.184681
H190	H	0.853190	0.428000	0.010159
H191	H	0.461218	-0.123747	0.753807
H192	H	0.954627	0.564824	-0.074564
H193	H	0.245226	0.117441	0.397001
C194	C	1.450988	0.387862	-0.048425
H195	H	1.524558	0.403373	-0.096805
H196	H	1.417705	0.357842	0.018396
H197	H	1.417695	0.357854	-0.048482
H198	H	0.969095	0.255895	-0.271158
C199	C	0.971412	0.273936	-0.163338
H200	H	0.976174	0.311515	-0.211375
H201	H	0.910007	0.256996	-0.097422
H202	H	1.033498	0.296124	-0.185168
H203	H	0.214495	0.001903	0.627832
H204	H	0.664057	0.165429	0.693842
C205	C	0.266550	-0.037998	0.707477
H206	H	0.213634	-0.040498	0.712539
H207	H	0.258494	-0.087825	0.740231
H208	H	0.258597	-0.020931	0.740197
C209	C	0.458314	-0.009717	0.650768
H210	H	0.384752	-0.042592	0.716545
H211	H	0.491558	-0.039791	0.644015
H212	H	0.491669	0.027109	0.643968
C213	C	1.621177	0.680800	-0.288838
H214	H	1.683130	0.676314	-0.320781
H215	H	1.621224	0.708138	-0.335961
H216	H	1.621153	0.708076	-0.269014
C217	C	1.072029	0.486932	0.063611
H218	H	1.105336	0.540497	0.027134
H219	H	1.023785	0.457779	0.134855
H220	H	1.124946	0.472764	0.038064
H221	H	0.853292	-0.199734	0.512877
C222	C	1.451005	0.292616	-0.048415
H223	H	1.382080	0.277117	0.012222
H224	H	1.488943	0.279981	-0.036083
H225	H	1.488939	0.346864	-0.102963
H226	H	1.056125	0.089439	-0.049806
H227	H	1.613743	0.306184	-0.214634
H228	H	0.853181	0.193456	0.119699
C229	C	1.151319	-0.333341	0.171743
H230	H	1.137902	-0.379653	0.183826
H231	H	1.174047	-0.293250	0.111360
H232	H	1.205562	-0.318989	0.162843
C233	C	1.072106	-0.014014	0.564556
H234	H	1.105391	-0.013691	0.581343
H235	H	1.125019	0.018912	0.491931
H236	H	1.023828	0.003909	0.588726
H237	H	1.056050	0.592126	-0.049771
C238	C	0.954755	-0.299124	0.789382
H239	H	0.913453	-0.346207	0.815257
H240	H	1.025996	-0.288563	0.748534
H241	H	0.924812	-0.303557	0.845323
C242	C	1.072086	0.081227	-0.308689
H243	H	1.105382	0.064143	-0.345142
H244	H	1.124992	0.120966	-0.334224
H245	H	1.023822	0.039098	-0.237435
H246	H	0.461228	0.001253	0.753789
C247	C	1.072155	-0.140724	0.691267
H248	H	1.105456	-0.087158	0.654785
H249	H	1.023911	-0.169871	0.762511
H250	H	1.125075	-0.154889	0.665724
C251	C	0.837214	0.201652	-0.239258
H252	H	0.803920	0.218736	-0.256039
H253	H	0.784307	0.161917	-0.166634
H254	H	0.885484	0.243781	-0.263432
H255	H	1.056035	-0.517370	0.184720
H256	H	0.784711	-0.489829	0.501778
H257	H	0.295571	-0.023313	0.912251
H258	H	0.784737	-0.380339	0.501774
H259	H	0.664186	-0.227756	0.693772
H260	H	1.410827	0.644714	-0.154701
H261	H	0.853191	0.193457	-0.362094
H262	H	1.056109	0.089417	-0.422084
H263	H	0.498590	-0.361792	0.852224
H264	H	0.940169	0.026969	-0.140694
C265	C	0.837276	-0.330782	0.538729
H266	H	0.845260	-0.364572	0.525783
H267	H	0.864891	-0.331999	0.560938
H268	H	0.763716	-0.346963	0.590846
C269	C	0.937886	0.008946	-0.012307
H270	H	0.933118	-0.028635	-0.017497
H271	H	0.999293	0.025885	-0.031131
H272	H	0.875802	-0.013240	0.056601
C273	C	1.072116	0.081253	0.063581
H274	H	1.105416	0.064171	0.027126
H275	H	1.125019	0.120992	0.038050
H276	H	1.023851	0.039123	0.134836
