data_functionalizedCrystal
_audit_creation_method	'MofGen! by Chris Wilmer'
_symmetry_space_group_name_H-M	'P1'
_symmetry_Int_Tables_number	1
_symmetry_cell_setting	triclinic
loop_
_symmetry_equiv_pos_as_xyz
  x,y,z
_cell_length_a	19.077105
_cell_length_b	21.295417
_cell_length_c	19.076919
_cell_angle_alpha	87.733380
_cell_angle_beta	89.923776
_cell_angle_gamma	87.726672
loop_
_atom_site_label
_atom_site_type_symbol
_atom_site_fract_x
_atom_site_fract_y
_atom_site_fract_z
Zn1	Zn	1.058236	-0.304534	0.440387
Zn2	Zn	1.062864	-0.405747	0.322870
Zn3	Zn	0.945454	-0.296102	0.318181
Zn4	Zn	0.940686	-0.405368	0.435623
O5	O	1.001810	-0.352938	0.379265
O6	O	1.157181	-0.321649	0.428754
O7	O	1.051222	-0.387832	0.223917
O8	O	0.960474	-0.209134	0.334424
O9	O	1.160581	-0.396009	0.342415
O10	O	1.043334	-0.215330	0.424208
O11	O	0.964962	-0.307276	0.220472
O12	O	0.846490	-0.306908	0.329804
O13	O	0.952346	-0.395362	0.534586
O14	O	0.842987	-0.387185	0.416088
O15	O	1.038710	-0.321280	0.538086
O16	O	1.046598	-0.493783	0.337795
O17	O	0.956834	-0.493504	0.420634
C18	C	0.819242	-0.346091	0.371921
C19	C	0.741139	-0.343178	0.368795
C20	C	0.702642	-0.383663	0.412179
C21	C	0.629255	-0.380918	0.409246
C22	C	0.594366	-0.337689	0.362924
C23	C	0.632868	-0.297199	0.319538
C24	C	0.706253	-0.299942	0.322476
C25	C	0.375080	-0.324994	0.349333
C26	C	0.301690	-0.322256	0.346397
C27	C	0.298082	-0.405974	0.436106
C28	C	0.371470	-0.408715	0.439037
C29	C	0.409965	-0.368223	0.395653
N30	N	0.519353	-0.334883	0.359923
N31	N	0.484976	-0.371027	0.398658
C32	C	1.001719	-0.516485	0.379223
C33	C	1.001744	-0.586454	0.379231
C34	C	1.048522	-0.619448	0.336144
C35	C	1.048554	-0.685192	0.336161
C36	C	1.001796	-0.717939	0.379257
C37	C	0.955015	-0.684937	0.422352
C38	C	0.954989	-0.619195	0.422339
N39	N	0.940111	-0.819089	0.382141
N40	N	0.940138	-0.881541	0.382149
C41	C	1.001873	-0.916018	0.379300
N42	N	1.063583	-0.885683	0.376429
N43	N	1.063555	-0.823224	0.376417
C44	C	1.001820	-0.789226	0.379276
C45	C	1.048690	-1.020300	0.336230
C46	C	1.048724	-1.086046	0.336252
C47	C	0.955178	-1.085789	0.422439
C48	C	0.955151	-1.020045	0.422421
C49	C	1.001906	-0.987304	0.379313
C50	C	1.185090	-0.359812	0.386639
C51	C	1.263193	-0.362741	0.389782
C52	C	0.994480	-0.359220	0.562545
C53	C	0.991356	-0.361897	0.640648
C54	C	1.001919	-0.188754	0.379324
C55	C	1.001966	-0.118788	0.379349
C56	C	1.009152	-0.346637	0.196700
C57	C	1.012412	-0.343787	0.118604
C58	C	1.034851	-0.324586	0.679164
C59	C	1.031907	-0.327098	0.752550
C60	C	0.985472	-0.366925	0.787418
C61	C	0.941972	-0.404238	0.748896
C62	C	0.944913	-0.401722	0.675512
C63	C	0.971853	-0.378584	1.006698
C64	C	0.968917	-0.381099	1.080087
C65	C	1.058852	-0.303958	1.083736
C66	C	1.061791	-0.301448	1.010350
C67	C	1.018289	-0.338758	0.971835
N68	N	0.982464	-0.369496	0.862429
N69	N	1.021294	-0.336183	0.896824
H70	H	0.273285	-0.287047	0.308681
H71	H	0.597915	-0.413886	0.444573
H72	H	1.094268	-0.273581	1.115103
O73	O	1.093973	-0.587579	0.294375
C74	C	1.137722	-0.552582	0.336236
H75	H	1.110764	-0.543627	0.388467
H76	H	1.189488	-0.580090	0.346097
C77	C	1.185107	-0.500289	0.233936
C78	C	1.151994	-0.489286	0.298085
H79	H	1.193914	-0.461246	0.210402
H80	H	1.155635	-0.523869	0.205732
H81	H	1.228242	-0.523214	0.242162
H82	H	1.108856	-0.466369	0.289857
H83	H	1.181459	-0.465701	0.326286
O84	O	0.736496	-0.425591	0.457277
C85	C	0.715768	-0.413670	0.526620
H86	H	0.695477	-0.362758	0.529462
H87	H	0.672424	-0.446479	0.543212
C88	C	0.804011	-0.487635	0.572620
C89	C	0.779094	-0.425102	0.576113
H90	H	0.843072	-0.494689	0.603151
H91	H	0.817974	-0.495668	0.525902
H92	H	0.767885	-0.514968	0.586446
H93	H	0.815217	-0.397771	0.562279
H94	H	0.765139	-0.417065	0.622829
H95	H	0.931101	-0.413532	1.108474
H96	H	0.936440	-0.408974	0.975347
H97	H	1.086649	-0.712061	0.301075
H98	H	1.067327	-0.296717	0.783907
H99	H	1.099606	-0.269018	0.981966
H100	H	0.904161	-0.436664	0.777291
O101	O	0.405470	-0.450683	0.483980
C102	C	0.478496	-0.444409	0.477284
H103	H	0.490686	-0.422241	0.423497
H104	H	0.497674	-0.413149	0.519863
C105	C	0.500921	-0.536959	0.551171
C106	C	0.515894	-0.509736	0.485106
H107	H	0.523991	-0.577255	0.555999
H108	H	0.451722	-0.541185	0.555685
H109	H	0.516903	-0.510902	0.586646
H110	H	0.499904	-0.535789	0.449633
H111	H	0.565091	-0.505516	0.480587
H112	H	0.917110	-1.112451	0.457532
O113	O	0.260580	-0.445237	0.478224
C114	C	0.188327	-0.433560	0.465689
H115	H	0.179240	-0.383790	0.442374
H116	H	0.168974	-0.468784	0.427360
C117	C	0.158983	-0.501583	0.563905
C118	C	0.147821	-0.440453	0.535274
H119	H	0.133995	-0.505837	0.606826
H120	H	0.207661	-0.509453	0.572348
H121	H	0.142855	-0.530929	0.531957
H122	H	0.163957	-0.411108	0.567217
H123	H	0.099144	-0.432578	0.526837
H124	H	0.916945	-0.711604	0.457442
H125	H	0.909487	-0.432098	0.644152
O126	O	0.412362	-0.285635	0.307122
C127	C	0.365828	-0.246884	0.265622
H128	H	0.313605	-0.270629	0.261037
H129	H	0.357014	-0.199709	0.291146
C130	C	0.461589	-0.207040	0.197632
C131	C	0.397450	-0.236207	0.191997
H132	H	0.481095	-0.200451	0.152218
H133	H	0.492940	-0.233146	0.225593
H134	H	0.454235	-0.167731	0.218906
H135	H	0.404806	-0.275518	0.170732
H136	H	0.366100	-0.210107	0.164031
O137	O	1.094142	-0.988428	0.294461
C138	C	1.137888	-0.953426	0.336320
H139	H	1.110927	-0.944467	0.388549
H140	H	1.189655	-0.980932	0.346186
C141	C	1.185277	-0.901142	0.234016
C142	C	1.152161	-0.890133	0.298162
H143	H	1.194084	-0.862101	0.210478
H144	H	1.155807	-0.924725	0.205814
H145	H	1.228412	-0.924065	0.242247
H146	H	1.109023	-0.867218	0.289930
H147	H	1.181624	-0.866545	0.326362
O148	O	0.909733	-0.988065	0.464368
C149	C	0.922247	-1.007049	0.535035
H150	H	0.949219	-1.055822	0.537612
H151	H	0.957389	-0.972172	0.560178
C152	C	0.818881	-0.949113	0.571618
C153	C	0.852003	-1.009019	0.574783
H154	H	0.775552	-0.950326	0.596139
H155	H	0.810451	-0.936321	0.524009
H156	H	0.848173	-0.920056	0.592570
H157	H	0.822715	-1.038074	0.553824
H158	H	0.860427	-1.021816	0.622390
O159	O	0.599009	-0.255119	0.274617
C160	C	0.616372	-0.193605	0.290814
H161	H	0.634310	-0.193184	0.347765
H162	H	0.660478	-0.177401	0.254882
C163	C	0.529495	-0.149384	0.210163
C164	C	0.551522	-0.148866	0.280114
H165	H	0.489494	-0.121786	0.203560
H166	H	0.517799	-0.190827	0.199249
H167	H	0.566256	-0.135882	0.180229
H168	H	0.514765	-0.162376	0.310046
H169	H	0.563211	-0.107424	0.291033
O170	O	0.743625	-0.260681	0.280227
C171	C	0.728461	-0.271258	0.209447
H172	H	0.708404	-0.320661	0.204987
H173	H	0.686612	-0.235264	0.189442
C174	C	0.820157	-0.204023	0.170654
C175	C	0.795528	-0.264703	0.165176
H176	H	0.861525	-0.199976	0.143344
H177	H	0.830371	-0.196894	0.218340
H178	H	0.785276	-0.174034	0.153985
H179	H	0.830405	-0.294689	0.181853
H180	H	0.785321	-0.271836	0.117492
H181	H	1.086820	-1.112908	0.301168
O182	O	1.079978	-0.285842	0.645406
C183	C	1.117747	-0.253461	0.695142
H184	H	1.086870	-0.251996	0.746293
H185	H	1.170786	-0.278780	0.705090
C186	C	1.166990	-0.187662	0.604113
C187	C	1.129063	-0.185859	0.666935
H188	H	1.173974	-0.145963	0.586713
H189	H	1.141547	-0.209479	0.570604
H190	H	1.211185	-0.208765	0.612411
H191	H	1.084866	-0.164764	0.658635
H192	H	1.154500	-0.164036	0.700443
H193	H	0.916895	-0.592330	0.457426
