data_functionalizedCrystal
_audit_creation_method	'MofGen! by Chris Wilmer'
_symmetry_space_group_name_H-M	'P1'
_symmetry_Int_Tables_number	1
_symmetry_cell_setting	triclinic
loop_
_symmetry_equiv_pos_as_xyz
  x,y,z
_cell_length_a	10.654545
_cell_length_b	19.288865
_cell_length_c	18.366186
_cell_angle_alpha	90.006786
_cell_angle_beta	90.005951
_cell_angle_gamma	83.809663
loop_
_atom_site_label
_atom_site_type_symbol
_atom_site_fract_x
_atom_site_fract_y
_atom_site_fract_z
O1	O	1.665761	0.097536	0.060552
O2	O	1.300083	0.106834	0.060556
O3	O	1.493488	0.001124	0.060539
O4	O	1.472355	0.203246	0.060568
O5	O	1.493463	0.001127	-0.060560
O6	O	1.300058	0.106838	-0.060544
O7	O	1.665736	0.097540	-0.060548
Zn8	Zn	1.482893	0.102189	-0.079773
Zn9	Zn	1.482926	0.102185	0.079781
O10	O	1.472330	0.203250	-0.060531
C11	C	1.253287	0.106154	0.000006
C12	C	1.113887	0.104113	0.000007
C13	C	1.048389	0.103155	-0.066005
C14	C	0.917411	0.101226	-0.066005
C15	C	0.917439	0.101217	0.066024
C16	C	1.048416	0.103141	0.066024
C17	C	1.492796	-0.024755	-0.000013
C18	C	1.490754	-0.101872	-0.000019
C19	C	1.604236	-0.145826	-0.000024
C20	C	1.602318	-0.218286	-0.000012
C21	C	1.486913	-0.246788	-0.000011
C22	C	1.373416	-0.202824	-0.000002
C23	C	1.375337	-0.130366	-0.000006
C24	C	1.396181	-0.355668	-0.042428
C25	C	1.394265	-0.428125	-0.042428
C26	C	1.480983	-0.470272	0.000006
C27	C	1.569638	-0.439956	0.042431
C28	C	1.571559	-0.367498	0.042427
C29	C	1.484817	-0.325356	-0.000006
C30	C	1.592393	-0.592796	0.000015
C31	C	1.590471	-0.665257	0.000031
C32	C	1.361565	-0.649793	0.000034
C33	C	1.363491	-0.577334	0.000025
C34	C	1.478908	-0.548840	0.000012
C35	C	1.712532	0.098220	0.000003
C36	C	1.851932	0.100261	0.000007
C37	C	1.473023	0.229129	0.000022
C38	C	1.475064	0.306246	0.000034
N39	N	1.482879	0.102192	-0.188664
C40	C	1.558870	0.144687	-0.773208
C41	C	1.558857	0.144693	-0.696980
C42	C	1.482937	0.102177	-0.658875
C43	C	1.407001	0.059664	-0.697004
C44	C	1.407007	0.059664	-0.773231
C45	C	1.479815	0.039532	-0.538118
C46	C	1.479819	0.039531	-0.461893
C47	C	1.482912	0.102179	-0.423768
C48	C	1.486029	0.164828	-0.461877
C49	C	1.486035	0.164828	-0.538103
C50	C	1.482922	0.102173	-0.576221
C51	C	1.558823	0.144700	-0.302993
C52	C	1.558801	0.144708	-0.226764
C53	C	1.406953	0.059672	-0.226789
C54	C	1.406968	0.059670	-0.303017
C55	C	1.482910	0.102183	-0.341114
N56	N	1.482949	0.102176	0.188672
H57	H	1.101746	0.103920	0.119782
H58	H	0.864089	0.100445	-0.119758
H59	H	0.864116	0.100426	0.119773
H60	H	1.279452	-0.226035	0.000001
H61	H	1.345185	0.025048	-0.665975
H62	H	1.345181	0.025046	-0.804268
H63	H	1.488569	0.215840	-0.569128
H64	H	1.282924	-0.094578	-0.000002
H65	H	1.101692	0.103946	-0.119760
H66	H	1.325562	-0.321356	-0.076987
H67	H	1.620705	0.179305	-0.804222
H68	H	1.271082	-0.541546	0.000025
H69	H	1.620679	0.179314	-0.665937
H70	H	1.488549	0.215842	-0.430837
H71	H	1.698218	-0.122632	-0.000032
H72	H	1.694731	-0.254080	-0.000013
H73	H	1.620653	0.179320	-0.334013
H74	H	1.322072	-0.452802	-0.076969
H75	H	1.643743	-0.342817	0.076972
H76	H	1.620622	0.179330	-0.195728
H77	H	1.640252	-0.474272	0.076985
H78	H	1.686373	-0.569595	0.000007
H79	H	1.682885	-0.701044	0.000031
H80	H	1.267600	-0.672999	0.000039
H81	H	1.345130	0.025058	-0.195765
H82	H	1.345150	0.025051	-0.334055
H83	H	1.477289	-0.011483	-0.430870
H84	H	1.477284	-0.011486	-0.569153
