data_functionalizedCrystal
_audit_creation_method	'MofGen! by Chris Wilmer'
_symmetry_space_group_name_H-M	'P1'
_symmetry_Int_Tables_number	1
_symmetry_cell_setting	triclinic
loop_
_symmetry_equiv_pos_as_xyz
  x,y,z
_cell_length_a	21.295417
_cell_length_b	19.121102
_cell_length_c	19.120904
_cell_angle_alpha	89.911827
_cell_angle_beta	87.591662
_cell_angle_gamma	87.584620
loop_
_atom_site_label
_atom_site_type_symbol
_atom_site_fract_x
_atom_site_fract_y
_atom_site_fract_z
Zn1	Zn	-0.307921	1.054814	0.442032
Zn2	Zn	0.025413	1.388148	0.775365
Zn3	Zn	0.358746	1.721481	1.108698
Zn4	Zn	-0.408895	1.059724	0.324785
Zn5	Zn	-0.075562	1.393057	0.658118
Zn6	Zn	0.257772	1.726390	0.991452
Zn7	Zn	-0.298967	0.942584	0.319816
Zn8	Zn	0.034366	1.275917	0.653150
Zn9	Zn	0.367699	1.609251	0.986483
Zn10	Zn	-0.408472	0.937535	0.436987
Zn11	Zn	-0.075138	1.270868	0.770321
Zn12	Zn	0.258195	1.604202	1.103654
O13	O	-0.356064	0.998664	0.380905
O14	O	-0.022730	1.331998	0.714238
O15	O	0.310603	1.665331	1.047572
O16	O	-0.325239	1.153571	0.430669
O17	O	0.008094	1.486904	0.764002
O18	O	0.341427	1.820237	1.097336
O19	O	-0.390743	1.048352	0.226021
O20	O	-0.057409	1.381686	0.559355
O21	O	0.275924	1.715019	0.892688
O22	O	-0.212069	0.957530	0.336060
O23	O	0.121264	1.290864	0.669393
O24	O	0.454598	1.624197	1.002727
O25	O	-0.399425	1.157177	0.344528
O26	O	-0.066091	1.490511	0.677862
O27	O	0.267242	1.823844	1.011195
O28	O	-0.218647	1.039985	0.425851
O29	O	0.114686	1.373319	0.759184
O30	O	0.448020	1.706652	1.092518
O31	O	-0.309980	0.962291	0.222371
O32	O	0.023354	1.295624	0.555704
O33	O	0.356687	1.628957	0.889038
O34	O	-0.309569	0.843809	0.331169
O35	O	0.023764	1.177143	0.664502
O36	O	0.357097	1.510476	0.997836
O37	O	-0.398703	0.948925	0.535761
O38	O	-0.065370	1.282258	0.869094
O39	O	0.267963	1.615591	1.202428
O40	O	-0.390022	0.840100	0.417254
O41	O	-0.056688	1.173433	0.750587
O42	O	0.276645	1.506766	1.083921
O43	O	-0.324829	1.035089	0.539467
O44	O	0.008504	1.368423	0.872800
O45	O	0.341838	1.701756	1.206134
O46	O	-0.496925	1.043456	0.339637
O47	O	-0.163591	1.376790	0.672970
O48	O	0.169742	1.710123	1.006304
O49	O	-0.496614	0.953685	0.422072
O50	O	-0.163280	1.287018	0.755405
O51	O	0.170053	1.620352	1.088738
C52	C	-0.348778	0.816517	0.373125
C53	C	-0.015445	1.149850	0.706459
C54	C	0.317888	1.483184	1.039792
C55	C	-0.345677	0.738593	0.369814
C56	C	-0.012344	1.071926	0.703147
C57	C	0.320989	1.405260	1.036480
C58	C	-0.386166	0.700074	0.413007
C59	C	-0.052833	1.033407	0.746341
C60	C	0.280501	1.366741	1.079674
C61	C	-0.383244	0.626856	0.409899
C62	C	-0.049911	0.960189	0.743232
C63	C	0.283422	1.293523	1.076566
C64	C	-0.339836	0.592158	0.363593
C65	C	-0.006503	0.925492	0.696927
C66	C	0.326830	1.258825	1.030260
C67	C	-0.299344	0.630682	0.320398
C68	C	0.033990	0.964016	0.653731
C69	C	0.367323	1.297349	0.987065
C70	C	-0.302263	0.703899	0.323510
C71	C	0.031071	1.037232	0.656843
C72	C	0.364404	1.370566	0.990177
C73	C	-0.328921	0.371187	0.351961
C74	C	0.004412	0.704520	0.685294
C75	C	0.337746	1.037853	1.018627
C76	C	-0.326006	0.297965	0.348850
C77	C	0.007327	0.631298	0.682184
C78	C	0.340661	0.964632	1.015517
C79	C	-0.409906	0.294144	0.438353
C80	C	-0.076573	0.627477	0.771686
C81	C	0.256760	0.960810	1.105020
C82	C	-0.412824	0.367362	0.441458
C83	C	-0.079491	0.700695	0.774791
C84	C	0.253842	1.034029	1.108125
C85	C	-0.372329	0.405880	0.398265
C86	C	-0.038996	0.739213	0.731599
C87	C	0.294337	1.072546	1.064932
C88	C	-0.336850	0.517318	0.360413
C89	C	-0.003517	0.850651	0.693747
C90	C	0.329816	1.183984	1.027080
C91	C	-0.375313	0.480719	0.401449
C92	C	-0.041980	0.814052	0.734782
C93	C	0.291354	1.147385	1.068116
C94	C	-0.519610	0.998574	0.380862
C95	C	-0.186277	1.331907	0.714196
C96	C	0.147056	1.665241	1.047529
C97	C	-0.589580	0.998599	0.380870
C98	C	-0.256246	1.331932	0.714203
C99	C	0.077087	1.665265	1.047537
C100	C	-0.622590	1.045380	0.337994
C101	C	-0.289257	1.378714	0.671327
C102	C	0.044076	1.712047	1.004661
C103	C	-0.688335	1.045413	0.338011
C104	C	-0.355001	1.378746	0.671345
C105	C	-0.021668	1.712079	1.004678
C106	C	-0.721065	0.998651	0.380897
C107	C	-0.387732	1.331984	0.714230
C108	C	-0.054398	1.665317	1.047563
C109	C	-0.688046	0.951865	0.423781
C110	C	-0.354713	1.285199	0.757115
C111	C	-0.021380	1.618532	1.090448
C112	C	-0.622304	0.951839	0.423768
C113	C	-0.288970	1.285173	0.757101
C114	C	0.044363	1.618506	1.090435
N115	N	-0.822078	0.937094	0.383622
N116	N	-0.488744	1.270427	0.716955
N117	N	-0.155411	1.603761	1.050288
N118	N	-0.884530	0.937121	0.383630
N119	N	-0.551197	1.270454	0.716964
N120	N	-0.217864	1.603788	1.050297
C121	C	-0.919144	0.998728	0.380940
C122	C	-0.585811	1.332061	0.714273
C123	C	-0.252478	1.665394	1.047607
N124	N	-0.888946	1.060308	0.378228
N125	N	-0.555612	1.393642	0.711561
N126	N	-0.222279	1.726975	1.044894
N127	N	-0.826487	1.060281	0.378215
N128	N	-0.493154	1.393614	0.711549
N129	N	-0.159820	1.726947	1.044882
C130	C	-0.792352	0.998674	0.380916
C131	C	-0.459019	1.332007	0.714249
C132	C	-0.125685	1.665341	1.047583
C133	C	-1.023443	1.045548	0.338080
C134	C	-0.690110	1.378881	0.671414
C135	C	-0.356776	1.712215	1.004747
C136	C	-1.089189	1.045581	0.338103
C137	C	-0.755855	1.378915	0.671436
C138	C	-0.422522	1.712248	1.004769
C139	C	-1.088899	0.952028	0.423869
C140	C	-0.755565	1.285361	0.757202
C141	C	-0.422232	1.618695	1.090535
C142	C	-1.023154	0.952001	0.423850
C143	C	-0.689821	1.285334	0.757184
C144	C	-0.356488	1.618668	1.090517
C145	C	-0.990430	0.998760	0.380953
C146	C	-0.657097	1.332094	0.714286
C147	C	-0.323764	1.665427	1.047619
C148	C	-0.191880	0.998773	0.380964
C149	C	0.141454	1.332107	0.714297
C150	C	0.474787	1.665440	1.047631
C151	C	-0.121914	0.998820	0.380989
C152	C	0.211419	1.332153	0.714323
C153	C	0.544752	1.665486	1.047656
C154	C	-0.362718	0.990896	0.563763
C155	C	-0.029384	1.324230	0.897096
C156	C	0.303949	1.657563	1.230429
C157	C	-0.365553	0.987586	0.641686
C158	C	-0.032220	1.320919	0.975019
C159	C	0.301113	1.654253	1.308352
C160	C	-0.363378	1.181523	0.388716
C161	C	-0.030045	1.514856	0.722049
C162	C	0.303289	1.848189	1.055382
C163	C	-0.366495	1.259446	0.392044
C164	C	-0.033161	1.592779	0.725377
C165	C	0.300172	1.926113	1.058711
C166	C	-0.349392	1.006442	0.198761
C167	C	-0.016058	1.339776	0.532094
C168	C	0.317275	1.673109	0.865427
C169	C	-0.346384	1.009889	0.120844
C170	C	-0.013051	1.343222	0.454177
C171	C	0.320282	1.676555	0.787510
C172	C	-0.328425	1.030890	0.680225
C173	C	0.004909	1.364223	1.013558
C174	C	0.338242	1.697556	1.346891
C175	C	-0.331086	1.027771	0.753441
C176	C	0.002247	1.361104	1.086775
C177	C	0.335580	1.694438	1.420108
C178	C	-0.370880	0.981351	0.788118
C179	C	-0.037547	1.314685	1.121451
C180	C	0.295786	1.648018	1.454784
C181	C	-0.408010	0.938043	0.749573
C182	C	-0.074677	1.271376	1.082907
C183	C	0.258657	1.604709	1.416240
C184	C	-0.405345	0.941159	0.676358
C185	C	-0.072011	1.274492	1.009691
C186	C	0.261322	1.607825	1.343025
C187	C	-0.380849	0.969696	1.009084
C188	C	-0.047515	1.303029	1.342417
C189	C	0.285818	1.636363	1.675751
C190	C	-0.383513	0.966585	1.082305
C191	C	-0.050179	1.299918	1.415638
C192	C	0.283154	1.633251	1.748971
C193	C	-0.306588	1.056312	1.086168
C194	C	0.026746	1.389646	1.419501
C195	C	0.360079	1.722979	1.752834
C196	C	-0.303929	1.059427	1.012951
C197	C	0.029405	1.392760	1.346284
C198	C	0.362738	1.726094	1.679617
C199	C	-0.341056	1.016116	0.974413
C200	C	-0.007723	1.349449	1.307746
C201	C	0.325610	1.682783	1.641079
C202	C	-0.373603	0.978164	0.862957
C203	C	-0.040270	1.311497	1.196290
C204	C	0.293063	1.644830	1.529623
C205	C	-0.338330	1.019300	0.899575
C206	C	-0.004996	1.352634	1.232908
C207	C	0.328337	1.685967	1.566241
H208	H	-0.263997	0.602426	0.282698
H209	H	0.069336	0.935759	0.616031
H210	H	0.402669	1.269092	0.949364
H211	H	-0.290651	0.269716	0.311147
H212	H	0.042682	0.603050	0.644480
H213	H	0.376015	0.936383	0.977813
Cl214	Cl	-0.251359	0.752323	0.269209
Cl215	Cl	0.081974	1.085656	0.602542
Cl216	Cl	0.415308	1.418990	0.935876
H217	H	-0.996275	0.913904	0.458761
H218	H	-0.662942	1.247237	0.792094
H219	H	-0.329608	1.580571	1.125428
H220	H	-0.595949	1.083456	0.303066
H221	H	-0.262615	1.416789	0.636399
H222	H	0.070718	1.750123	0.969733
Cl223	Cl	-0.729843	1.104227	0.284104
Cl224	Cl	-0.396510	1.437561	0.617438
Cl225	Cl	-0.063176	1.770894	0.950771
Cl226	Cl	-0.259914	1.110754	1.134619
Cl227	Cl	0.073419	1.444088	1.467952
Cl228	Cl	0.406753	1.777421	1.801286
Cl229	Cl	-0.580802	0.893022	0.477673
Cl230	Cl	-0.247469	1.226356	0.811007
Cl231	Cl	0.085865	1.559689	1.144340
H232	H	-0.996798	1.083625	0.303153
H233	H	-0.663465	1.416958	0.636486
H234	H	-0.330131	1.750291	0.969819
Cl235	Cl	-0.284437	1.082244	0.801889
Cl236	Cl	0.048896	1.415577	1.135222
Cl237	Cl	0.382229	1.748910	1.468555
Cl238	Cl	-0.729192	0.893082	0.477698
Cl239	Cl	-0.395859	1.226415	0.811031
Cl240	Cl	-0.062526	1.559749	1.144364
Cl241	Cl	-0.253901	1.117786	0.969363
Cl242	Cl	0.079433	1.451119	1.302696
Cl243	Cl	0.412766	1.784453	1.636030
H244	H	-1.116065	1.083681	0.303189
H245	H	-0.782732	1.417014	0.636523
H246	H	-0.449399	1.750348	0.969856
Cl247	Cl	-0.429881	0.524340	0.459660
Cl248	Cl	-0.096547	0.857673	0.792993
Cl249	Cl	0.236786	1.191006	1.126327
Cl250	Cl	-0.433539	0.908220	1.125897
Cl251	Cl	-0.100206	1.241554	1.459230
Cl252	Cl	0.233127	1.574887	1.792564
H253	H	-1.115547	0.913957	0.458790
H254	H	-0.782214	1.247290	0.792123
H255	H	-0.448880	1.580623	1.125457
H256	H	-0.301509	0.489059	0.322710
H257	H	0.031825	0.822392	0.656043
H258	H	0.365158	1.155725	0.989376
H259	H	-0.296022	1.068692	0.651997
H260	H	0.037311	1.402025	0.985330
H261	H	0.370644	1.735359	1.318663
Cl262	Cl	-0.278011	0.419599	0.297663
Cl263	Cl	0.055323	0.752933	0.630996
Cl264	Cl	0.388656	1.086266	0.964329
Cl265	Cl	-0.434147	0.578435	0.464202
Cl266	Cl	-0.100814	0.911768	0.797536
Cl267	Cl	0.232520	1.245102	1.130869
Cl268	Cl	-0.427524	0.915247	0.960646
Cl269	Cl	-0.094191	1.248581	1.293979
Cl270	Cl	0.239142	1.581914	1.627312
H271	H	-0.440409	0.900244	0.777813
H272	H	-0.107075	1.233578	1.111146
H273	H	0.226258	1.566911	1.444479
H274	H	-0.435572	0.905889	0.644980
H275	H	-0.102239	1.239222	0.978313
H276	H	0.231094	1.572556	1.311647
Cl277	Cl	-0.460812	0.245718	0.492648
Cl278	Cl	-0.127479	0.579051	0.825981
Cl279	Cl	0.205855	0.912384	1.159314
Cl280	Cl	-0.288298	1.077647	0.855980
Cl281	Cl	0.045035	1.410981	1.189313
Cl282	Cl	0.378368	1.744314	1.522647
Cl283	Cl	-0.423631	0.919812	0.906556
Cl284	Cl	-0.090298	1.253146	1.239890
Cl285	Cl	0.243036	1.586479	1.573223
H286	H	-0.421515	0.728320	0.450712
H287	H	-0.088182	1.061653	0.784046
H288	H	0.245151	1.394986	1.117379
H289	H	-0.448173	0.395608	0.479164
H290	H	-0.114840	0.728941	0.812497
H291	H	0.218494	1.062274	1.145830
