data_functionalizedCrystal
_audit_creation_method	'MofGen! by Chris Wilmer'
_symmetry_space_group_name_H-M	'P1'
_symmetry_Int_Tables_number	1
_symmetry_cell_setting	triclinic
loop_
_symmetry_equiv_pos_as_xyz
  x,y,z
_cell_length_a	12.594517
_cell_length_b	12.594516
_cell_length_c	12.594509
_cell_angle_alpha	89.973801
_cell_angle_beta	89.978673
_cell_angle_gamma	90.015853
loop_
_atom_site_label
_atom_site_type_symbol
_atom_site_fract_x
_atom_site_fract_y
_atom_site_fract_z
Zn1	Zn	1.627267	-0.423716	-0.601875
Zn2	Zn	1.627158	-0.601726	-0.423903
Zn3	Zn	1.449271	-0.423761	-0.423904
Zn4	Zn	1.449253	-0.601652	-0.601833
O5	O	1.538237	-0.512714	-0.512879
O6	O	1.776198	-0.447341	-0.578284
O7	O	1.603522	-0.578169	-0.274957
O8	O	1.472936	-0.274809	-0.447530
O9	O	1.776118	-0.578124	-0.447528
O10	O	1.603709	-0.274776	-0.578285
O11	O	1.472830	-0.447419	-0.274958
O12	O	1.300323	-0.447347	-0.447489
O13	O	1.472905	-0.577998	-0.750784
O14	O	1.300310	-0.578042	-0.578213
O15	O	1.603691	-0.447269	-0.750815
O16	O	1.603505	-0.750662	-0.447488
O17	O	1.472799	-0.750608	-0.578212
C18	C	1.261696	-0.512692	-0.512847
C19	C	1.143391	-0.512709	-0.512859
C20	C	1.074114	-0.441526	-0.441894
C21	C	1.003303	-0.538615	-0.415718
C22	C	1.003403	-0.415668	-0.539054
C23	C	1.074138	-0.609849	-0.486632
C24	C	1.074244	-0.486836	-0.610013
C25	C	1.003465	-0.583991	-0.583874
C26	C	1.538167	-0.789255	-0.512868
C27	C	1.538235	-0.907560	-0.512899
C28	C	1.467137	-0.976822	-0.583950
C29	C	1.441204	-1.047688	-0.486827
C30	C	1.564265	-1.047494	-0.610039
C31	C	1.512250	-0.976867	-0.415725
C32	C	1.635357	-0.976667	-0.539002
C33	C	1.609460	-1.047500	-0.441812
C34	C	1.815858	-0.512736	-0.512911
C35	C	1.934163	-0.512745	-0.512924
C36	C	1.538308	-0.512620	-0.790500
C37	C	1.538339	-0.512581	-0.908805
C38	C	1.538336	-0.235093	-0.512912
C39	C	1.538378	-0.116787	-0.512927
C40	C	1.467227	-0.583644	-0.978042
C41	C	1.564347	-0.609650	-1.048833
C42	C	1.441294	-0.486510	-1.048813
C43	C	1.635510	-0.538638	-0.978038
C44	C	1.512391	-0.415453	-0.978012
C45	C	1.609579	-0.441422	-1.048772
C46	C	1.538227	-0.512730	-0.236338
C47	C	1.538403	-0.512470	-0.118033
H48	H	1.105429	-0.464899	-0.692122
C49	C	1.594042	-0.720544	-1.090873
C50	C	1.524441	-0.817160	-1.062970
C51	C	1.554126	-0.928055	-1.105008
C52	C	1.653412	-0.942335	-1.174949
C53	C	1.723020	-0.845716	-1.202855
C54	C	1.693335	-0.734820	-1.160817
H55	H	1.450937	-0.806593	-1.011193
H56	H	1.502597	-0.999579	-1.084349
H57	H	1.675387	-1.024426	-1.206067
H58	H	1.796524	-0.856283	-1.254633
H59	H	1.744864	-0.663297	-1.181476
C60	C	1.116035	-0.360286	-0.360728
C61	C	1.086543	-0.242136	-0.371668
C62	C	1.128466	-0.160902	-0.290501
C63	C	1.199881	-0.197818	-0.198393
C64	C	1.229377	-0.315974	-0.187449
C65	C	1.187454	-0.397208	-0.268617
H66	H	1.033674	-0.214803	-0.439855
H67	H	1.106630	-0.073435	-0.298602
H68	H	1.230915	-0.137684	-0.138308
H69	H	1.282246	-0.343307	-0.119263
H70	H	1.209289	-0.484675	-0.260515
C71	C	1.690757	-1.089181	-0.360562
C72	C	1.756262	-1.010484	-0.293773
C73	C	1.837547	-1.052171	-0.212517
C74	C	1.853329	-1.172554	-0.198051
C75	C	1.787822	-1.251257	-0.264843
C76	C	1.706537	-1.209571	-0.346098
H77	H	1.744581	-0.921363	-0.304480
H78	H	1.886039	-0.993909	-0.163074
H79	H	1.913501	-1.203412	-0.137901
H80	H	1.799503	-1.340379	-0.254136
H81	H	1.658045	-1.267833	-0.395541
H82	H	0.972144	-0.560522	-0.333584
H83	H	1.586224	-1.078518	-0.692178
C84	C	1.746197	-0.934483	-0.568858
C85	C	1.794997	-0.962248	-0.677477
C86	C	1.905837	-0.920062	-0.707347
C87	C	1.967878	-0.850110	-0.628598
C88	C	1.919078	-0.822341	-0.519972
C89	C	1.808238	-0.864528	-0.490102
H90	H	1.749070	-1.014034	-0.735778
H91	H	1.941961	-0.940618	-0.787759
H92	H	2.049928	-0.818881	-0.650709
H93	H	1.965005	-0.770556	-0.461670
H94	H	1.772114	-0.843971	-0.409689
H95	H	1.105080	-0.691955	-0.464413
C96	C	0.961811	-0.665423	-0.664983
C97	C	0.841434	-0.679964	-0.680703
C98	C	0.799778	-0.761399	-0.761806
C99	C	0.878499	-0.828293	-0.827190
C100	C	0.998884	-0.813754	-0.811472
C101	C	1.040540	-0.732319	-0.730369
H102	H	0.783152	-0.630444	-0.632301
H103	H	0.710660	-0.772162	-0.773441
H104	H	0.847663	-0.888576	-0.887227
H105	H	1.057166	-0.863274	-0.859874
H106	H	1.129658	-0.721556	-0.718734
H107	H	0.972276	-0.333597	-0.561146
H108	H	1.406905	-0.945788	-0.643949
H109	H	1.407136	-0.643833	-0.946986
C110	C	1.746453	-0.568489	-0.936227
C111	C	1.766909	-0.574104	-0.815816
C112	C	1.877849	-0.603953	-0.774002
C113	C	1.968334	-0.628187	-0.852599
C114	C	1.947881	-0.622573	-0.973017
C115	C	1.836941	-0.592724	-1.014831
H116	H	1.699924	-0.556164	-0.757627
H117	H	1.892989	-0.608108	-0.684860
H118	H	2.050459	-0.650282	-0.821646
H119	H	2.014866	-0.640513	-1.031206
H120	H	1.821801	-0.588568	-1.103973
C121	C	1.482660	-0.304587	-0.935943
C122	C	1.374116	-0.255722	-0.963808
C123	C	1.344371	-0.144856	-0.921735
C124	C	1.423169	-0.082855	-0.851797
C125	C	1.531720	-0.131720	-0.823929
C126	C	1.561466	-0.242586	-0.866001
H127	H	1.315779	-0.301619	-1.015583
H128	H	1.264014	-0.108684	-0.942366
H129	H	1.401150	-0.000786	-0.820653
H130	H	1.590058	-0.085822	-0.772153
H131	H	1.641822	-0.278758	-0.845370
H132	H	1.359136	-1.078906	-0.464772
H133	H	1.490197	-0.945972	-0.333563
H134	H	1.669813	-0.381279	-1.079632
H135	H	1.359198	-0.464506	-1.079902
