data_functionalizedCrystal
_audit_creation_method	'MofGen! by Chris Wilmer'
_symmetry_space_group_name_H-M	'P1'
_symmetry_Int_Tables_number	1
_symmetry_cell_setting	triclinic
loop_
_symmetry_equiv_pos_as_xyz
  x,y,z
_cell_length_a	10.654550
_cell_length_b	10.654551
_cell_length_c	9.730223
_cell_angle_alpha	90.001469
_cell_angle_beta	89.996251
_cell_angle_gamma	84.485132
loop_
_atom_site_label
_atom_site_type_symbol
_atom_site_fract_x
_atom_site_fract_y
_atom_site_fract_z
O1	O	1.667835	0.176393	-0.114394
O2	O	1.302356	0.193199	-0.114371
O3	O	1.493498	0.002057	-0.114383
O4	O	1.476693	0.367535	-0.114381
O5	O	1.493496	0.002062	0.114197
O6	O	1.302354	0.193204	0.114209
O7	O	1.667832	0.176398	0.114186
Zn8	Zn	1.485093	0.184802	0.150490
Zn9	Zn	1.485096	0.184795	-0.150674
O10	O	1.476691	0.367540	0.114199
C11	C	1.255557	0.191968	-0.000078
C12	C	1.116114	0.188276	-0.000069
C13	C	1.036629	0.300817	-0.000089
C14	C	0.905608	0.297341	-0.000113
C15	C	0.933570	0.068771	-0.000104
C16	C	1.064589	0.072249	-0.000070
C17	C	1.088154	0.416844	-0.000088
C18	C	1.008667	0.529395	-0.000109
C19	C	0.877647	0.525918	-0.000133
C20	C	0.826112	0.409891	-0.000136
C21	C	1.492263	-0.044739	-0.000096
C22	C	1.488570	-0.184182	-0.000105
C23	C	1.486839	-0.249696	-0.124702
C24	C	1.483359	-0.380717	-0.124695
C25	C	1.483346	-0.380697	0.124515
C26	C	1.486817	-0.249678	0.124507
C27	C	1.488592	-0.184200	-0.249314
C28	C	1.486862	-0.249715	-0.373921
C29	C	1.483382	-0.380735	-0.373914
C30	C	1.481631	-0.446241	-0.249301
C31	C	1.714632	0.177629	-0.000109
C32	C	1.854075	0.181321	-0.000127
C33	C	1.477926	0.414336	-0.000091
C34	C	1.481619	0.553779	-0.000091
N35	N	1.485100	0.184805	0.356026
N36	N	1.485099	0.184782	-0.356211
C37	C	1.569760	0.100197	0.427947
C38	C	1.569756	0.100181	0.571830
C39	C	1.400430	0.269395	0.571859
C40	C	1.400428	0.269403	0.427979
C41	C	1.654431	0.015599	0.355994
C42	C	1.739099	-0.069016	0.427915
C43	C	1.739095	-0.069031	0.571798
C44	C	1.654425	0.015568	0.643760
H45	H	0.891600	-0.025693	-0.000129
N46	N	1.309118	0.360664	0.350405
H47	H	1.357587	0.416721	0.290707
H48	H	1.253121	0.312059	0.290792
H49	H	1.654444	0.015606	0.238837
N50	N	1.477881	-0.587556	-0.249282
H51	H	1.399326	-0.609604	-0.200354
H52	H	1.477096	-0.619032	-0.347157
H53	H	1.194836	0.419687	-0.000075
N54	N	1.309117	0.360634	0.649477
H55	H	1.357590	0.416687	0.709173
H56	H	1.255502	0.414151	0.581997
H57	H	1.050636	0.623860	-0.000095
N58	N	1.150330	-0.049131	-0.000042
H59	H	1.097811	-0.123161	-0.000058
H60	H	1.205326	-0.052669	-0.084764
N61	N	1.481523	-0.451398	-0.508304
H62	H	1.479055	-0.544337	-0.489397
H63	H	1.404418	-0.418994	-0.562722
H64	H	1.488200	-0.196331	0.225964
N65	N	1.830391	-0.160285	0.350309
H66	H	1.817544	-0.147444	0.248247
H67	H	1.919614	-0.144968	0.375447
H68	H	1.491429	-0.077517	-0.249334
N69	N	1.488757	-0.179069	-0.508316
H70	H	1.487128	-0.240456	-0.587247
H71	H	1.412483	-0.115198	-0.513748
N72	N	1.830418	-0.160277	0.649373
H73	H	1.884060	-0.213857	0.581955
H74	H	1.886341	-0.111658	0.709061
N75	N	1.481476	-0.451345	0.258911
H76	H	1.479023	-0.544287	0.240009
H77	H	1.559806	-0.437937	0.313307
H78	H	1.654421	0.015540	0.760919
H79	H	0.812931	0.617562	-0.000136
H80	H	0.719425	0.407069	-0.000134
