data_functionalizedCrystal
_audit_creation_method	'MofGen! by Chris Wilmer'
_symmetry_space_group_name_H-M	'P1'
_symmetry_Int_Tables_number	1
_symmetry_cell_setting	triclinic
loop_
_symmetry_equiv_pos_as_xyz
  x,y,z
_cell_length_a	25.639239
_cell_length_b	21.295418
_cell_length_c	21.295411
_cell_angle_alpha	89.956262
_cell_angle_beta	90.019526
_cell_angle_gamma	89.945501
loop_
_atom_site_label
_atom_site_type_symbol
_atom_site_fract_x
_atom_site_fract_y
_atom_site_fract_z
Zn1	Zn	-0.207990	-0.962320	0.356243
Zn2	Zn	-0.295410	-0.962207	0.250972
Zn3	Zn	-0.208014	-0.857043	0.250953
Zn4	Zn	-0.295420	-0.856998	0.356169
O5	O	-0.251708	-0.909642	0.303584
O6	O	-0.219572	-1.050395	0.342318
O7	O	-0.283822	-0.948229	0.162880
O8	O	-0.134846	-0.871075	0.264943
O9	O	-0.283799	-1.050312	0.264976
O10	O	-0.134828	-0.948421	0.342299
O11	O	-0.219613	-0.870965	0.162866
O12	O	-0.219623	-0.768948	0.264871
O13	O	-0.283816	-0.870997	0.444268
O14	O	-0.283840	-0.768914	0.342172
O15	O	-0.219582	-0.948377	0.444322
O16	O	-0.368576	-0.948185	0.264904
O17	O	-0.368584	-0.870888	0.342191
C18	C	-0.251736	-0.746090	0.303512
C19	C	-0.251760	-0.676122	0.303496
C20	C	-0.387551	-0.909536	0.303555
C21	C	-0.445665	-0.909548	0.303564
C22	C	-0.251697	-0.909694	0.467774
C23	C	-0.251693	-0.909717	0.537743
C24	C	-0.806011	-0.949996	0.263409
C25	C	-0.860616	-0.950020	0.263418
O26	O	-0.888838	-0.984300	0.229245
N27	N	-0.887947	-0.909753	0.303626
C28	C	-0.860672	-0.869463	0.343833
O29	O	-0.888934	-0.835215	0.378034
C30	C	-0.806069	-0.869442	0.343827
C31	C	-0.778740	-0.909708	0.303612
C32	C	-0.778683	-0.990259	0.223198
C33	C	-0.724082	-0.990233	0.223188
C34	C	-0.696810	-0.949945	0.263391
C35	C	-0.724139	-0.909682	0.303603
C36	C	-0.778794	-0.829156	0.384037
C37	C	-0.724187	-0.829139	0.384028
C38	C	-0.696858	-0.869404	0.343812
C39	C	-0.642267	-0.869369	0.343796
N40	N	-0.614935	-0.909636	0.303588
C41	C	-0.642207	-0.949924	0.263385
C42	C	-0.975343	-0.869510	0.343842
C43	C	-1.029945	-0.869527	0.343845
C44	C	-1.029885	-0.950086	0.263431
C45	C	-0.975282	-0.950065	0.263425
C46	C	-0.948011	-0.909778	0.303634
C47	C	-0.527542	-0.949868	0.263369
C48	C	-0.472937	-0.949837	0.263361
C49	C	-0.473001	-0.869281	0.343778
C50	C	-0.527602	-0.869309	0.343783
C51	C	-0.554871	-0.909607	0.303577
O52	O	-0.614010	-0.835108	0.377953
O53	O	-0.613939	-0.984172	0.229195
C54	C	-0.115335	-0.909766	0.303627
C55	C	-0.057221	-0.909818	0.303645
C56	C	-0.251681	-1.073832	0.303657
C57	C	-0.251670	-1.143801	0.303688
C58	C	-0.285242	-0.643255	0.343686
C59	C	-0.285229	-0.577512	0.343715
C60	C	-0.251740	-0.544640	0.303541
C61	C	-0.218252	-0.577515	0.263347
C62	C	-0.218262	-0.643257	0.263325
N63	N	-0.247648	-0.441365	0.248483
N64	N	-0.247641	-0.378913	0.248506
C65	C	-0.251707	-0.346565	0.303608
N66	N	-0.255789	-0.379028	0.358686
N67	N	-0.255799	-0.441485	0.358662
C68	C	-0.251725	-0.473354	0.303561
C69	C	-0.285176	-0.242412	0.343832
C70	C	-0.285160	-0.176668	0.343862
C71	C	-0.218185	-0.176673	0.263489
C72	C	-0.218199	-0.242415	0.263465
C73	C	-0.251697	-0.275281	0.303636
C74	C	-0.251682	-0.909626	0.140032
C75	C	-0.251539	-0.909726	0.070065
C76	C	-0.218244	-0.950007	0.570639
C77	C	-0.218221	-0.950006	0.636381
C78	C	-0.251657	-0.909721	0.669225
C79	C	-0.285108	-0.869424	0.636321
C80	C	-0.285126	-0.869421	0.570580
N81	N	-0.297396	-0.904857	0.772441
N82	N	-0.297377	-0.904863	0.834892
C83	C	-0.251604	-0.909725	0.867300
N84	N	-0.205848	-0.914594	0.834897
N85	N	-0.205867	-0.914591	0.772440
C86	C	-0.251641	-0.909719	0.740511
C87	C	-0.218128	-0.950017	0.971482
C88	C	-0.218104	-0.950011	1.037225
C89	C	-0.284995	-0.869433	1.037164
C90	C	-0.285014	-0.869435	0.971422
C91	C	-0.251581	-0.909730	0.938584
H92	H	-0.549738	-0.982684	0.230630
N93	N	-0.182078	-0.993486	0.936061
H94	H	-0.187172	-0.987380	0.889422
H95	H	-0.190219	-1.038429	0.947598
N96	N	-1.059416	-0.826096	0.387220
H97	H	-1.098146	-0.832220	0.381130
H98	H	-1.049923	-0.781140	0.377363
H99	H	-0.312213	-0.836626	1.063905
H100	H	-0.801036	-0.796364	0.416781
N101	N	-0.182066	-0.141221	0.220159
H102	H	-0.190133	-0.152600	0.175160
H103	H	-0.144737	-0.152738	0.230066
N104	N	-0.321174	-0.825973	0.671735
H105	H	-0.313061	-0.781004	0.660260
H106	H	-0.316076	-0.832138	0.718364
H107	H	-0.190983	-0.550747	0.230639
H108	H	-0.190995	-0.670017	0.230596
N109	N	-0.321277	-0.141217	0.387211
H110	H	-0.345466	-0.113878	0.361580
H111	H	-0.300026	-0.114040	0.416435
H112	H	-0.800881	-1.023070	0.190460
H113	H	-0.312494	-0.550746	0.376445
H114	H	-0.312450	-0.269173	0.376545
N115	N	-0.321362	-0.678700	0.387024
H116	H	-0.316288	-0.725335	0.380914
H117	H	-0.358690	-0.667149	0.377152
N118	N	-0.321202	-0.825955	0.535103
H119	H	-0.358555	-0.835691	0.546552
H120	H	-0.316099	-0.832080	0.488484
H121	H	-0.190937	-0.269176	0.230734
H122	H	-0.190981	-0.982813	0.663170
N123	N	-0.182185	-0.993465	0.535221
H124	H	-0.160992	-1.018988	0.566041
H125	H	-0.157999	-0.967863	0.507927
N126	N	-0.182016	-0.993458	1.072710
H127	H	-0.160840	-1.018981	1.041929
H128	H	-0.203281	-1.022570	1.100014
N129	N	-0.321090	-0.825968	0.935947
H130	H	-0.358443	-0.835704	0.947393
H131	H	-0.315986	-0.832089	0.889327
N132	N	-0.443461	-0.993269	0.219986
H133	H	-0.469026	-1.018797	0.194523
H134	H	-0.420764	-1.022377	0.245645
H135	H	-0.953034	-0.982853	0.230679
N136	N	-0.694610	-1.033673	0.179824
H137	H	-0.704141	-1.023930	0.134834
H138	H	-0.704080	-1.078627	0.189723
N139	N	-1.059305	-0.993541	0.220068
H140	H	-1.098042	-0.987442	0.226178
H141	H	-1.049711	-1.038490	0.229921
H142	H	-0.701986	-0.796333	0.416773
N143	N	-0.945931	-0.826050	0.387208
H144	H	-0.971535	-0.800545	0.412677
H145	H	-0.923317	-0.796921	0.361545
H146	H	-0.549854	-0.836524	0.376532
H147	H	-0.450788	-0.836477	0.376509
