data_functionalizedCrystal
_audit_creation_method	'MofGen! by Chris Wilmer'
_symmetry_space_group_name_H-M	'P1'
_symmetry_Int_Tables_number	1
_symmetry_cell_setting	triclinic
loop_
_symmetry_equiv_pos_as_xyz
  x,y,z
_cell_length_a	18.050591
_cell_length_b	18.050590
_cell_length_c	19.805399
_cell_angle_alpha	89.972574
_cell_angle_beta	89.975361
_cell_angle_gamma	90.014558
loop_
_atom_site_label
_atom_site_type_symbol
_atom_site_fract_x
_atom_site_fract_y
_atom_site_fract_z
Zn1	Zn	1.135370	-0.295756	-0.382812
Zn2	Zn	1.468703	0.037578	-0.049479
Zn3	Zn	1.802036	0.370911	0.283855
Zn4	Zn	1.135293	-0.419948	-0.269624
Zn5	Zn	1.468627	-0.086615	0.063709
Zn6	Zn	1.801960	0.246719	0.397043
Zn7	Zn	1.011181	-0.295768	-0.269626
Zn8	Zn	1.344514	0.037566	0.063707
Zn9	Zn	1.677848	0.370899	0.397040
Zn10	Zn	1.011158	-0.419900	-0.382761
Zn11	Zn	1.344491	-0.086566	-0.049427
Zn12	Zn	1.677824	0.246767	0.283906
O13	O	1.073250	-0.357843	-0.326206
O14	O	1.406584	-0.024509	0.007128
O15	O	1.739917	0.308824	0.340461
O16	O	1.239284	-0.312245	-0.367818
O17	O	1.572617	0.021088	-0.034484
O18	O	1.905951	0.354421	0.298849
O19	O	1.118807	-0.403500	-0.174908
O20	O	1.452140	-0.070167	0.158426
O21	O	1.785474	0.263166	0.491759
O22	O	1.027696	-0.191841	-0.284663
O23	O	1.361030	0.141492	0.048670
O24	O	1.694363	0.474825	0.382003
O25	O	1.239228	-0.403489	-0.284659
O26	O	1.572561	-0.070155	0.048674
O27	O	1.905895	0.263178	0.382008
O28	O	1.118937	-0.191833	-0.367820
O29	O	1.452271	0.141501	-0.034487
O30	O	1.785604	0.474834	0.298847
O31	O	1.027622	-0.312265	-0.174909
O32	O	1.360956	0.021068	0.158424
O33	O	1.694289	0.354401	0.491757
O34	O	0.907253	-0.312219	-0.284614
O35	O	1.240587	0.021115	0.048720
O36	O	1.573920	0.354448	0.382053
O37	O	1.027657	-0.403407	-0.477484
O38	O	1.360990	-0.070073	-0.144151
O39	O	1.694324	0.263260	0.189183
O40	O	0.907236	-0.403418	-0.367733
O41	O	1.240570	-0.070085	-0.034399
O42	O	1.573903	0.263248	0.298934
O43	O	1.118915	-0.312199	-0.477522
O44	O	1.452248	0.021135	-0.144188
O45	O	1.785582	0.354468	0.189145
O46	O	1.118785	-0.523866	-0.284609
O47	O	1.452118	-0.190533	0.048724
O48	O	1.785451	0.142801	0.382057
O49	O	1.027583	-0.523831	-0.367730
O50	O	1.360916	-0.190497	-0.034397
O51	O	1.694250	0.142836	0.298936
C52	C	0.880298	-0.357815	-0.326168
C53	C	1.213632	-0.024482	0.007165
C54	C	1.546965	0.308852	0.340498
C55	C	0.797752	-0.357821	-0.326168
C56	C	1.131086	-0.024488	0.007165
C57	C	1.464419	0.308846	0.340498
C58	C	0.598289	-0.308169	-0.281072
C59	C	0.931623	0.025164	0.052261
C60	C	1.264956	0.358497	0.385594
C61	C	0.548880	-0.375907	-0.264415
C62	C	0.882213	-0.042573	0.068919
C63	C	1.215547	0.290760	0.402252
C64	C	0.646622	-0.357844	-0.326199
C65	C	0.979955	-0.024510	0.007134
C66	C	1.313289	0.308823	0.340468
C67	C	0.548950	-0.290130	-0.342855
C68	C	0.882283	0.043203	-0.009521
C69	C	1.215617	0.376537	0.323812
C70	C	0.500637	-0.357859	-0.326227
C71	C	0.833970	-0.024526	0.007106
C72	C	1.167304	0.308807	0.340439
C73	C	0.598300	-0.425616	-0.309509
C74	C	0.931633	-0.092283	0.023824
C75	C	1.264967	0.241050	0.357158
C76	C	0.598374	-0.339794	-0.387978
C77	C	0.931707	-0.006461	-0.054645
C78	C	1.265041	0.326872	0.278689
C79	C	0.548987	-0.407578	-0.371344
C80	C	0.882320	-0.074245	-0.038010
C81	C	1.215654	0.259089	0.295323
C82	C	0.730720	-0.357834	-0.326181
C83	C	1.064054	-0.024500	0.007152
C84	C	1.397387	0.308833	0.340486
C85	C	0.416541	-0.357877	-0.326245
C86	C	0.749874	-0.024544	0.007088
C87	C	1.083207	0.308789	0.340421
C88	C	1.073193	-0.550795	-0.326179
C89	C	1.406527	-0.217462	0.007155
C90	C	1.739860	0.115872	0.340488
C91	C	1.073237	-0.633341	-0.326190
C92	C	1.406570	-0.300007	0.007144
C93	C	1.739903	0.033326	0.340477
C94	C	1.122936	-0.832784	-0.281052
C95	C	1.456269	-0.499450	0.052282
C96	C	1.789602	-0.166117	0.385615
C97	C	1.141075	-0.882119	-0.342828
C98	C	1.474409	-0.548785	-0.009495
C99	C	1.807742	-0.215452	0.323839
C100	C	1.073279	-0.784471	-0.326217
C101	C	1.406612	-0.451138	0.007117
C102	C	1.739946	-0.117804	0.340450
C103	C	1.055215	-0.882218	-0.264468
C104	C	1.388548	-0.548884	0.068865
C105	C	1.721881	-0.215551	0.402198
C106	C	1.073321	-0.930456	-0.326237
C107	C	1.406654	-0.597123	0.007096
C108	C	1.739988	-0.263789	0.340429
C109	C	1.091454	-0.832719	-0.388026
C110	C	1.424787	-0.499385	-0.054692
C111	C	1.758120	-0.166052	0.278641
C112	C	1.005561	-0.832813	-0.309624
C113	C	1.338895	-0.499480	0.023709
C114	C	1.672228	-0.166147	0.357043
C115	C	1.023676	-0.882126	-0.371443
C116	C	1.357009	-0.548793	-0.038110
C117	C	1.690342	-0.215460	0.295224
C118	C	1.073257	-0.700373	-0.326204
C119	C	1.406590	-0.367039	0.007129
C120	C	1.739923	-0.033706	0.340463
C121	C	1.073343	-1.014553	-0.326257
C122	C	1.406677	-0.681219	0.007076
C123	C	1.740010	-0.347886	0.340409
C124	C	1.266956	-0.357871	-0.326244
C125	C	1.600289	-0.024538	0.007090
C126	C	1.933623	0.308796	0.340423
C127	C	1.349502	-0.357883	-0.326260
C128	C	1.682835	-0.024550	0.007073
C129	C	2.016168	0.308784	0.340407
C130	C	1.073292	-0.357796	-0.502748
C131	C	1.406625	-0.024463	-0.169415
C132	C	1.739959	0.308871	0.163918
C133	C	1.073310	-0.357776	-0.577981
C134	C	1.406643	-0.024443	-0.244647
C135	C	1.739976	0.308891	0.088686
C136	C	1.073328	-0.164137	-0.326248
C137	C	1.406661	0.169196	0.007086
C138	C	1.739995	0.502530	0.340419
C139	C	1.073361	-0.081591	-0.326265
C140	C	1.406694	0.251742	0.007068
C141	C	1.740028	0.585075	0.340401
C142	C	1.120829	-0.310282	-0.613345
C143	C	1.454162	0.023052	-0.280012
C144	C	1.787496	0.356385	0.053321
C145	C	1.120836	-0.310260	-0.684034
C146	C	1.454170	0.023073	-0.350701
C147	C	1.787503	0.356407	-0.017367
C148	C	1.073328	-0.357737	-0.719356
C149	C	1.406662	-0.024404	-0.386023
C150	C	1.739995	0.308929	-0.052690
C151	C	1.025804	-0.405234	-0.683986
C152	C	1.359137	-0.071900	-0.350653
C153	C	1.692471	0.261433	-0.017320
C154	C	1.025793	-0.405251	-0.613299
C155	C	1.359126	-0.071918	-0.279966
C156	C	1.692460	0.261416	0.053367
C157	C	1.025846	-0.405165	-0.969060
C158	C	1.359179	-0.071831	-0.635727
C159	C	1.692513	0.261502	-0.302393
C160	C	1.025862	-0.405145	-1.039752
C161	C	1.359195	-0.071812	-0.706419
C162	C	1.692529	0.261521	-0.373085
C163	C	1.120889	-0.310174	-1.039794
C164	C	1.454223	0.023160	-0.706461
C165	C	1.787556	0.356493	-0.373128
C166	C	1.120878	-0.310191	-0.969107
C167	C	1.454212	0.023142	-0.635774
C168	C	1.787545	0.356476	-0.302441
C169	C	1.073352	-0.357684	-0.933744
C170	C	1.406685	-0.024351	-0.600410
C171	C	1.740018	0.308982	-0.267077
C172	C	1.073343	-0.357706	-0.857095
C173	C	1.406676	-0.024373	-0.523762
C174	C	1.740010	0.308961	-0.190429
C175	C	1.073340	-0.357720	-0.796003
C176	C	1.406673	-0.024386	-0.462670
C177	C	1.740007	0.308947	-0.129337
C178	C	1.073252	-0.357836	-0.150350
C179	C	1.406585	-0.024502	0.182984
C180	C	1.739918	0.308831	0.516317
C181	C	1.073378	-0.357646	-0.075118
C182	C	1.406711	-0.024313	0.258215
C183	C	1.740044	0.309020	0.591549
H184	H	0.619937	-0.266207	-0.242869
H185	H	0.953271	0.067127	0.090465
H186	H	1.286604	0.400460	0.423798
H187	H	0.987172	-0.443808	-1.068510
H188	H	1.320505	-0.110475	-0.735176
H189	H	1.653838	0.222858	-0.401843
H190	H	0.527233	-0.232866	-0.356907
H191	H	0.860567	0.100467	-0.023574
H192	H	1.193900	0.433800	0.309759
H193	H	1.164943	-0.811117	-0.242896
H194	H	1.498276	-0.477784	0.090437
H195	H	1.831609	-0.144451	0.423770
H196	H	1.106693	-0.811069	-0.440299
H197	H	1.440026	-0.477735	-0.106966
H198	H	1.773360	-0.144402	0.226368
H199	H	0.987158	-0.443847	-0.940275
H200	H	1.320491	-0.110514	-0.606942
H201	H	1.653824	0.222819	-0.273609
H202	H	0.981701	-0.903655	-0.409691
H203	H	1.315034	-0.570322	-0.076357
H204	H	1.648367	-0.236988	0.256976
H205	H	1.198361	-0.903778	-0.356875
H206	H	1.531694	-0.570445	-0.023542
H207	H	1.865027	-0.237111	0.309791
H208	H	1.039919	-0.903960	-0.212240
H209	H	1.373252	-0.570626	0.121094
H210	H	1.706585	-0.237293	0.454427
H211	H	1.159585	-0.271500	-1.068596
H212	H	1.492919	0.061834	-0.735263
H213	H	1.826252	0.395167	-0.401929
H214	H	0.527475	-0.449641	-0.409518
H215	H	0.860809	-0.116308	-0.076185
H216	H	1.194142	0.217025	0.257149
H217	H	0.948293	-0.811138	-0.295558
H218	H	1.281626	-0.477805	0.037775
H219	H	1.614959	-0.144471	0.371108
H220	H	1.159567	-0.271533	-0.940351
H221	H	1.492900	0.061801	-0.607018
H222	H	1.826234	0.395134	-0.273685
H223	H	0.527141	-0.391185	-0.212181
H224	H	0.860474	-0.057852	0.121152
H225	H	1.193808	0.275482	0.454485
H226	H	0.619887	-0.482905	-0.295375
H227	H	0.953220	-0.149571	0.037958
H228	H	1.286554	0.183762	0.371291
H229	H	0.620131	-0.324495	-0.440196
H230	H	0.953464	0.008838	-0.106862
H231	H	1.286798	0.342171	0.226471
H232	H	1.159518	-0.271622	-0.584591
H233	H	1.492851	0.061711	-0.251258
H234	H	1.826185	0.395044	0.082076
H235	H	1.159533	-0.271587	-0.712825
H236	H	1.492866	0.061746	-0.379491
H237	H	1.826200	0.395080	-0.046158
H238	H	0.987119	-0.443888	-0.712751
H239	H	1.320453	-0.110554	-0.379418
H240	H	1.653786	0.222779	-0.046085
H241	H	0.987091	-0.443918	-0.584506
H242	H	1.320424	-0.110585	-0.251173
H243	H	1.653757	0.222748	0.082161
