data_functionalizedCrystal
_audit_creation_method	'MofGen! by Chris Wilmer'
_symmetry_space_group_name_H-M	'P1'
_symmetry_Int_Tables_number	1
_symmetry_cell_setting	triclinic
loop_
_symmetry_equiv_pos_as_xyz
  x,y,z
_cell_length_a	10.723024
_cell_length_b	11.792241
_cell_length_c	9.198806
_cell_angle_alpha	89.996670
_cell_angle_beta	89.996352
_cell_angle_gamma	84.330643
loop_
_atom_site_label
_atom_site_type_symbol
_atom_site_fract_x
_atom_site_fract_y
_atom_site_fract_z
O1	O	1.656767	0.159192	-0.120884
O2	O	1.293574	0.174430	-0.120889
O3	O	1.483984	0.001660	-0.120876
O4	O	1.466357	0.331962	-0.120897
O5	O	1.483969	0.001659	0.120909
O6	O	1.293559	0.174430	0.120896
O7	O	1.656751	0.159192	0.120901
Cu8	Cu	1.475154	0.166811	0.142976
Cu9	Cu	1.475172	0.166811	-0.142963
O10	O	1.466341	0.331962	0.120889
C11	C	1.247070	0.173321	0.000003
C12	C	1.108524	0.170003	0.000002
C13	C	1.033286	0.266676	-0.000005
C14	C	0.890091	0.263249	-0.000007
C15	C	1.482869	-0.040634	0.000016
C16	C	1.479555	-0.166655	0.000015
C17	C	1.473461	-0.397380	-0.000010
C18	C	1.476847	-0.268988	0.000004
C19	C	1.703256	0.160301	0.000006
C20	C	1.841801	0.163619	-0.000002
C21	C	1.467456	0.374255	-0.000007
C22	C	1.470770	0.500276	-0.000015
N23	N	1.475150	0.166810	0.344090
N24	N	1.475185	0.166803	-0.344077
C25	C	1.555099	0.093948	0.416292
C26	C	1.555118	0.093944	0.583704
H27	H	1.066928	0.084701	-0.000030
H28	H	1.074882	0.351978	-0.000002
H29	H	0.825440	0.346009	-0.000019
N30	N	1.640896	0.015583	0.338463
N31	N	1.756318	0.017648	0.355317
H32	H	1.816890	-0.037747	0.300387
N33	N	1.389293	0.245065	0.578074
N34	N	1.314141	0.313560	0.645898
H35	H	1.253478	0.368833	0.590909
N36	N	1.640979	0.015691	0.661608
N37	N	1.640869	0.015795	0.797492
H38	H	1.701507	-0.039477	0.852517
N39	N	1.389278	0.245047	0.422010
N40	N	1.311524	0.208527	0.506985
H41	H	1.250872	0.263783	0.562014
H42	H	0.906445	0.080854	-0.000005
