data_functionalizedCrystal
_audit_creation_method	'MofGen! by Chris Wilmer'
_symmetry_space_group_name_H-M	'P1'
_symmetry_Int_Tables_number	1
_symmetry_cell_setting	triclinic
loop_
_symmetry_equiv_pos_as_xyz
  x,y,z
_cell_length_a	15.995350
_cell_length_b	16.992694
_cell_length_c	15.455313
_cell_angle_alpha	92.857794
_cell_angle_beta	92.667328
_cell_angle_gamma	92.919701
loop_
_atom_site_label
_atom_site_type_symbol
_atom_site_fract_x
_atom_site_fract_y
_atom_site_fract_z
O1	O	0.174116	-1.043823	-0.072015
O2	O	0.172167	-0.815539	-0.072041
O3	O	0.051671	-0.935921	-0.072026
O4	O	0.294611	-0.923440	-0.072029
O5	O	0.058531	-0.929037	0.072235
O6	O	0.179027	-0.808655	0.072221
O7	O	0.180976	-1.036939	0.072246
Cu8	Cu	0.180628	-0.922168	0.085406
Cu9	Cu	0.172515	-0.930309	-0.085200
O10	O	0.301471	-0.916556	0.072232
C11	C	0.173091	-0.782884	0.000087
C12	C	0.165614	-0.695840	0.000077
C13	C	0.023872	-0.931963	0.000103
C14	C	-0.069182	-0.930416	0.000098
C15	C	0.180052	-1.069593	0.000117
C16	C	0.187528	-1.156637	0.000121
C17	C	-0.407301	-0.924861	0.000100
C18	C	-0.365620	-0.839142	-0.000233
C19	C	-0.268811	-0.840674	0.000092
C20	C	-0.239556	-0.927617	0.000098
C21	C	-0.273887	-0.965973	0.082482
C22	C	-0.370663	-0.963816	0.082550
C23	C	-0.378704	-0.973415	-0.081501
C24	C	-0.281812	-0.973447	-0.082590
C25	C	-0.144754	-0.929178	0.000100
C26	C	-0.502103	-0.923301	0.000104
C27	C	0.329271	-0.920514	0.000101
C28	C	0.422324	-0.922061	0.000101
N29	N	0.186334	-0.916448	0.205401
C30	C	0.237750	-0.645600	0.000077
C31	C	0.230720	-0.563813	0.000089
C32	C	0.151555	-0.532268	0.000095
C33	C	0.079414	-0.582515	0.000098
C34	C	0.086445	-0.664300	0.000092
C35	C	0.122418	-0.288669	0.000118
C36	C	0.115393	-0.206878	0.000122
C37	C	0.266700	-0.188181	0.000114
C38	C	0.273723	-0.269969	0.000103
C39	C	0.201582	-0.320208	0.000111
N40	N	0.144368	-0.448669	0.000104
N41	N	0.208770	-0.403806	0.000107
N42	N	0.166802	-0.936036	-0.205195
C43	C	0.135164	-0.967608	0.250801
C44	C	0.139488	-0.963289	0.341608
C45	C	0.194986	-0.907813	0.387014
C46	C	0.246157	-0.856647	0.341607
C47	C	0.241829	-0.860963	0.250801
C48	C	0.213646	-0.889185	0.658593
C49	C	0.217972	-0.884875	0.749405
C50	C	0.111301	-0.991517	0.749400
C51	C	0.106981	-0.995831	0.658592
C52	C	0.158150	-0.944662	0.613194
N53	N	0.199408	-0.903399	0.479833
N54	N	0.153722	-0.949073	0.520376
H55	H	-0.245421	-0.810251	-0.058964
O56	O	-0.393773	-0.919076	0.164112
H57	H	-0.365281	-0.858055	0.165546
O58	O	0.306022	-0.796818	0.390581
H59	H	0.340873	-0.761966	0.343753
H60	H	-0.404089	-0.948364	-0.143943
O61	O	0.047116	-1.055659	0.609618
H62	H	0.012253	-1.090504	0.656444
H63	H	-0.384703	-0.802224	0.058509
H64	H	0.338187	-0.295647	0.000088
O65	O	-0.407575	-1.046950	0.087529
H66	H	-0.356287	-1.088514	0.089883
O67	O	0.268839	-0.834002	0.609637
H68	H	0.309787	-0.868971	0.568250
H69	H	0.325432	-0.147268	0.000110
H70	H	0.069641	-1.033175	0.786372
O71	O	0.297022	-0.805788	0.201827
H72	H	0.336347	-0.766492	0.248654
H73	H	-0.255341	-1.029701	0.085550
O74	O	-0.235039	-0.923202	0.163691
H75	H	-0.191283	-0.874623	0.145585
H76	H	-0.259530	-0.945437	-0.143535
H77	H	0.289461	-0.522910	0.000087
O78	O	0.030001	-0.172856	0.000139
H79	H	0.037235	-0.107545	0.000134
H80	H	-0.240372	-0.804387	0.059241
O81	O	-0.256168	-1.057749	-0.089180
H82	H	-0.212716	-1.068348	-0.033369
H83	H	0.014957	-0.556824	0.000115
O84	O	-0.396942	-0.797477	-0.078480
H85	H	-0.381218	-0.831096	-0.138441
O86	O	-0.415210	-1.057180	-0.082243
H87	H	-0.453539	-1.064237	-0.024809
O88	O	0.323139	-0.679617	0.000080
H89	H	0.355276	-0.662227	-0.058712
O90	O	0.044613	-0.342852	0.000126
H91	H	-0.011614	-0.307174	0.000123
H92	H	0.027704	-0.705206	0.000091
O93	O	0.084315	-1.018483	0.390579
H94	H	0.045010	-1.057795	0.343750
O95	O	0.075285	-1.027430	0.201836
H96	H	0.080868	-1.021837	0.131064
O97	O	0.277822	-0.825029	0.798384
H98	H	0.312668	-0.790165	0.751561
