data_functionalizedCrystal
_audit_creation_method	'MofGen! by Chris Wilmer'
_symmetry_space_group_name_H-M	'P1'
_symmetry_Int_Tables_number	1
_symmetry_cell_setting	triclinic
loop_
_symmetry_equiv_pos_as_xyz
  x,y,z
_cell_length_a	16.625548
_cell_length_b	18.050589
_cell_length_c	18.050582
_cell_angle_alpha	89.981795
_cell_angle_beta	89.985107
_cell_angle_gamma	90.029289
loop_
_atom_site_label
_atom_site_type_symbol
_atom_site_fract_x
_atom_site_fract_y
_atom_site_fract_z
Zn1	Zn	1.232603	-0.295685	-0.419935
Zn2	Zn	1.482603	-0.045685	-0.169935
Zn3	Zn	1.732603	0.204315	0.080065
Zn4	Zn	1.982603	0.454315	0.330065
Zn5	Zn	1.232506	-0.419869	-0.295754
Zn6	Zn	1.482506	-0.169869	-0.045754
Zn7	Zn	1.732506	0.080131	0.204246
Zn8	Zn	1.982506	0.330131	0.454246
Zn9	Zn	1.097778	-0.295699	-0.295759
Zn10	Zn	1.347778	-0.045699	-0.045759
Zn11	Zn	1.597778	0.204301	0.204241
Zn12	Zn	1.847778	0.454301	0.454241
Zn13	Zn	1.097722	-0.419840	-0.419903
Zn14	Zn	1.347722	-0.169840	-0.169903
Zn15	Zn	1.597722	0.080160	0.080097
Zn16	Zn	1.847722	0.330160	0.330097
O17	O	1.165152	-0.357774	-0.357837
O18	O	1.415152	-0.107774	-0.107837
O19	O	1.665152	0.142226	0.142163
O20	O	1.915152	0.392226	0.392163
O21	O	1.345423	-0.312165	-0.403473
O22	O	1.595423	-0.062165	-0.153473
O23	O	1.845423	0.187835	0.096527
O24	O	2.095423	0.437835	0.346527
O25	O	1.214617	-0.403415	-0.191830
O26	O	1.464617	-0.153415	0.058170
O27	O	1.714617	0.096585	0.308170
O28	O	1.964617	0.346585	0.558170
O29	O	1.115727	-0.191773	-0.312246
O30	O	1.365727	0.058227	-0.062246
O31	O	1.615727	0.308227	0.187754
O32	O	1.865727	0.558227	0.437754
O33	O	1.345351	-0.403402	-0.312238
O34	O	1.595351	-0.153402	-0.062238
O35	O	1.845351	0.096598	0.187762
O36	O	2.095351	0.346598	0.437762
O37	O	1.214782	-0.191763	-0.403478
O38	O	1.464782	0.058237	-0.153478
O39	O	1.714782	0.308237	0.096522
O40	O	1.964782	0.558237	0.346522
O41	O	1.115633	-0.312188	-0.191833
O42	O	1.365633	-0.062188	0.058167
O43	O	1.615633	0.187812	0.308167
O44	O	1.865633	0.437812	0.558167
O45	O	0.984938	-0.312161	-0.312215
O46	O	1.234938	-0.062161	-0.062215
O47	O	1.484938	0.187839	0.187785
O48	O	1.734938	0.437839	0.437785
O49	O	1.115631	-0.403353	-0.523831
O50	O	1.365631	-0.153353	-0.273831
O51	O	1.615631	0.096647	-0.023831
O52	O	1.865631	0.346647	0.226169
O53	O	0.984897	-0.403367	-0.403423
O54	O	1.234897	-0.153367	-0.153423
O55	O	1.484897	0.096633	0.096577
O56	O	1.734897	0.346633	0.346577
O57	O	1.214728	-0.312137	-0.523855
O58	O	1.464728	-0.062137	-0.273855
O59	O	1.714728	0.187863	-0.023855
O60	O	1.964728	0.437863	0.226145
O61	O	1.214562	-0.523790	-0.312207
O62	O	1.464562	-0.273790	-0.062207
O63	O	1.714562	-0.023790	0.187793
O64	O	1.964562	0.226210	0.437793
O65	O	1.115537	-0.523769	-0.403419
O66	O	1.365537	-0.273769	-0.153419
O67	O	1.615537	-0.023769	0.096581
O68	O	1.865537	0.226231	0.346581
C69	C	0.955661	-0.357763	-0.357817
C70	C	1.205661	-0.107763	-0.107817
C71	C	1.455661	0.142237	0.142183
C72	C	1.705661	0.392237	0.392183
C73	C	0.866040	-0.357776	-0.357825
C74	C	1.116040	-0.107776	-0.107825
C75	C	1.366040	0.142224	0.142175
C76	C	1.616040	0.392224	0.392175
C77	C	0.537865	-0.357781	-0.357857
C78	C	0.787865	-0.107781	-0.107857
C79	C	1.037865	0.142219	0.142143
C80	C	1.287865	0.392219	0.392143
C81	C	0.629173	-0.357778	-0.357846
C82	C	0.879173	-0.107778	-0.107846
C83	C	1.129173	0.142222	0.142154
C84	C	1.379173	0.392222	0.392154
C85	C	0.701950	-0.357779	-0.357841
C86	C	0.951950	-0.107779	-0.107841
C87	C	1.201950	0.142221	0.142159
C88	C	1.451950	0.392221	0.392159
C89	C	0.793264	-0.357775	-0.357831
C90	C	1.043264	-0.107775	-0.107831
C91	C	1.293264	0.142225	0.142169
C92	C	1.543264	0.392225	0.392169
C93	C	1.165055	-0.550726	-0.357825
C94	C	1.415055	-0.300726	-0.107825
C95	C	1.665055	-0.050726	0.142175
C96	C	1.915055	0.199274	0.392175
C97	C	1.165087	-0.633271	-0.357845
C98	C	1.415087	-0.383271	-0.107845
C99	C	1.665087	-0.133271	0.142155
C100	C	1.915087	0.116729	0.392155
C101	C	1.111290	-0.832738	-0.407428
C102	C	1.361290	-0.582738	-0.157428
C103	C	1.611290	-0.332738	0.092572
C104	C	1.861290	-0.082738	0.342572
C105	C	1.091641	-0.882172	-0.339661
C106	C	1.341641	-0.632172	-0.089661
C107	C	1.591641	-0.382172	0.160339
C108	C	1.841641	-0.132172	0.410339
C109	C	1.165166	-0.784402	-0.357854
C110	C	1.415166	-0.534402	-0.107854
C111	C	1.665166	-0.284402	0.142146
C112	C	1.915166	-0.034402	0.392146
C113	C	1.184855	-0.882049	-0.425629
C114	C	1.434855	-0.632049	-0.175629
C115	C	1.684855	-0.382049	0.074371
C116	C	1.934855	-0.132049	0.324371
C117	C	1.165241	-0.930387	-0.357870
C118	C	1.415241	-0.680387	-0.107870
C119	C	1.665241	-0.430387	0.142130
C120	C	1.915241	-0.180387	0.392130
C121	C	1.145479	-0.832749	-0.290051
C122	C	1.395479	-0.582749	-0.040051
C123	C	1.645479	-0.332749	0.209949
C124	C	1.895479	-0.082749	0.459949
C125	C	1.238727	-0.832622	-0.376065
C126	C	1.488727	-0.582622	-0.126065
C127	C	1.738727	-0.332622	0.123935
C128	C	1.988727	-0.082622	0.373935
C129	C	1.219106	-0.882034	-0.308251
C130	C	1.469106	-0.632034	-0.058251
C131	C	1.719106	-0.382034	0.191749
C132	C	1.969106	-0.132034	0.441749
C133	C	1.165121	-0.700304	-0.357846
C134	C	1.415121	-0.450304	-0.107846
C135	C	1.665121	-0.200304	0.142154
C136	C	1.915121	0.049696	0.392154
C137	C	1.165287	-1.014483	-0.357870
C138	C	1.415287	-0.764483	-0.107870
C139	C	1.665287	-0.514483	0.142130
C140	C	1.915287	-0.264483	0.392130
C141	C	1.375461	-0.357785	-0.357859
C142	C	1.625461	-0.107785	-0.107859
C143	C	1.875461	0.142215	0.142141
C144	C	2.125461	0.392215	0.392141
C145	C	1.465082	-0.357790	-0.357868
C146	C	1.715082	-0.107790	-0.107868
C147	C	1.965082	0.142210	0.142132
C148	C	2.215082	0.392210	0.392132
C149	C	1.165184	-0.357741	-0.551543
C150	C	1.415184	-0.107741	-0.301543
C151	C	1.665184	0.142259	-0.051543
C152	C	1.915184	0.392259	0.198457
C153	C	1.165197	-0.357727	-0.634089
C154	C	1.415197	-0.107727	-0.384089
C155	C	1.665197	0.142273	-0.134089
C156	C	1.915197	0.392273	0.115911
C157	C	1.165272	-0.164068	-0.357866
C158	C	1.415272	0.085932	-0.107866
C159	C	1.665272	0.335932	0.142134
C160	C	1.915272	0.585932	0.392134
C161	C	1.165323	-0.081522	-0.357878
C162	C	1.415323	0.168478	-0.107878
C163	C	1.665323	0.418478	0.142122
C164	C	1.915323	0.668478	0.392122
C165	C	1.111350	-0.407262	-0.833527
C166	C	1.361350	-0.157262	-0.583527
C167	C	1.611350	0.092738	-0.333527
C168	C	1.861350	0.342738	-0.083527
C169	C	1.184913	-0.425414	-0.882920
C170	C	1.434913	-0.175414	-0.632920
C171	C	1.684913	0.074586	-0.382920
C172	C	1.934913	0.324586	-0.132920
C173	C	1.165237	-0.357670	-0.785219
C174	C	1.415237	-0.107670	-0.535219
C175	C	1.665237	0.142330	-0.285219
C176	C	1.915237	0.392330	-0.035219
C177	C	1.091715	-0.339497	-0.882908
C178	C	1.341715	-0.089497	-0.632908
C179	C	1.591715	0.160503	-0.382908
C180	C	1.841715	0.410503	-0.132908
C181	C	1.165269	-0.357617	-0.931205
C182	C	1.415269	-0.107617	-0.681205
C183	C	1.665269	0.142383	-0.431205
C184	C	1.915269	0.392383	-0.181205
C185	C	1.238839	-0.375858	-0.833525
C186	C	1.488839	-0.125858	-0.583525
C187	C	1.738839	0.124142	-0.333525
C188	C	1.988839	0.374142	-0.083525
C189	C	1.145591	-0.289909	-0.833509
C190	C	1.395591	-0.039909	-0.583509
C191	C	1.645591	0.210091	-0.333509
C192	C	1.895591	0.460091	-0.083509
C193	C	1.219205	-0.308035	-0.882880
C194	C	1.469205	-0.058035	-0.632880
C195	C	1.719205	0.191965	-0.382880
C196	C	1.969205	0.441965	-0.132880
C197	C	1.165218	-0.357703	-0.701121
C198	C	1.415218	-0.107703	-0.451121
C199	C	1.665218	0.142297	-0.201121
C200	C	1.915218	0.392297	0.048879
C201	C	1.165297	-0.357584	-1.015301
C202	C	1.415297	-0.107584	-0.765301
C203	C	1.665297	0.142416	-0.515301
C204	C	1.915297	0.392416	-0.265301
C205	C	1.165167	-0.357753	-0.164885
C206	C	1.415167	-0.107753	0.085115
C207	C	1.665167	0.142247	0.335115
C208	C	1.915167	0.392247	0.585115
C209	C	1.165310	-0.357558	-0.082340
C210	C	1.415310	-0.107558	0.167660
C211	C	1.665310	0.142442	0.417660
C212	C	1.915310	0.392442	0.667660
H213	H	1.065662	-0.811092	-0.449292
H214	H	1.315662	-0.561092	-0.199292
H215	H	1.565662	-0.311092	0.050708
H216	H	1.815662	-0.061092	0.300708
H217	H	1.264842	-0.266074	-0.904413
H218	H	1.514842	-0.016074	-0.654413
H219	H	1.764842	0.233926	-0.404413
H220	H	2.014842	0.483926	-0.154413
H221	H	1.201549	-0.482696	-0.904623
H222	H	1.451549	-0.232696	-0.654623
H223	H	1.701549	0.017304	-0.404623
H224	H	1.951549	0.267304	-0.154623
H225	H	1.264699	-0.903543	-0.266287
H226	H	1.514699	-0.653543	-0.016287
H227	H	1.764699	-0.403543	0.233713
H228	H	2.014699	-0.153543	0.483713
H229	H	1.300885	-0.810842	-0.391487
H230	H	1.550885	-0.560842	-0.141487
H231	H	1.800885	-0.310842	0.108513
H232	H	2.050885	-0.060842	0.358513
H233	H	1.128933	-0.232644	-0.811790
H234	H	1.378933	0.017356	-0.561790
H235	H	1.628933	0.267356	-0.311790
H236	H	1.878933	0.517356	-0.061790
H237	H	1.029468	-0.903953	-0.324272
H238	H	1.279468	-0.653953	-0.074272
H239	H	1.529468	-0.403953	0.175728
H240	H	1.779468	-0.153953	0.425728
H241	H	1.029524	-0.324149	-0.904601
H242	H	1.279524	-0.074149	-0.654601
H243	H	1.529524	0.175851	-0.404601
H244	H	1.779524	0.425851	-0.154601
H245	H	1.201478	-0.903705	-0.482940
H246	H	1.451478	-0.653705	-0.232940
H247	H	1.701478	-0.403705	0.017060
H248	H	1.951478	-0.153705	0.267060
H249	H	1.065822	-0.449256	-0.811858
H250	H	1.315822	-0.199256	-0.561858
H251	H	1.565822	0.050744	-0.311858
H252	H	1.815822	0.300744	-0.061858
H253	H	1.301047	-0.391271	-0.811923
H254	H	1.551047	-0.141271	-0.561923
H255	H	1.801047	0.108729	-0.311923
H256	H	2.051047	0.358729	-0.061923
H257	H	1.128784	-0.811183	-0.232725
H258	H	1.378784	-0.561183	0.017275
H259	H	1.628784	-0.311183	0.267275
H260	H	1.878784	-0.061183	0.517275
