data_functionalizedCrystal
_audit_creation_method	'MofGen! by Chris Wilmer'
_symmetry_space_group_name_H-M	'P1'
_symmetry_Int_Tables_number	1
_symmetry_cell_setting	triclinic
loop_
_symmetry_equiv_pos_as_xyz
  x,y,z
_cell_length_a	23.532361
_cell_length_b	23.532357
_cell_length_c	22.010155
_cell_angle_alpha	89.998697
_cell_angle_beta	89.995873
_cell_angle_gamma	82.828980
loop_
_atom_site_label
_atom_site_type_symbol
_atom_site_fract_x
_atom_site_fract_y
_atom_site_fract_z
O1	O	0.755269	0.069002	-0.050471
O2	O	0.589400	0.079033	-0.050487
O3	O	0.677351	-0.008917	-0.050466
O4	O	0.667317	0.156952	-0.050492
O5	O	0.677335	-0.008903	0.050584
O6	O	0.589384	0.079047	0.050563
O7	O	0.755253	0.069015	0.050579
Cu8	Cu	0.672317	0.074032	0.059798
Cu9	Cu	0.672336	0.074017	-0.059706
O10	O	0.667302	0.156966	0.050558
C11	C	0.568175	0.078789	0.000036
C12	C	0.504957	0.078034	0.000031
C13	C	0.231722	0.074723	-0.055047
C14	C	0.291122	0.075438	-0.055049
O15	O	0.321855	0.075782	-0.101894
N16	N	0.320819	0.075806	0.000034
C17	C	0.291114	0.075454	0.055122
O18	O	0.321828	0.075832	0.101974
C19	C	0.231716	0.074735	0.055123
C20	C	0.202021	0.074372	0.000036
C21	C	0.202028	0.074360	-0.110129
C22	C	0.142632	0.073646	-0.110127
C23	C	0.112931	0.073295	-0.055044
C24	C	0.142626	0.073658	0.000038
C25	C	0.202013	0.074378	0.110210
C26	C	0.142611	0.073659	0.110206
C27	C	0.112916	0.073296	0.055120
C28	C	0.053529	0.072594	0.055124
N29	N	0.023832	0.072225	0.000041
C30	C	0.053533	0.072576	-0.055043
C31	C	0.415854	0.076963	0.055115
C32	C	0.475250	0.077686	0.055115
C33	C	0.475254	0.077669	-0.055056
C34	C	0.415856	0.076950	-0.055055
C35	C	0.386157	0.076594	0.000033
C36	C	-0.071202	0.071078	-0.055035
C37	C	-0.130604	0.070366	-0.055028
C38	C	-0.130602	0.070380	0.055142
C39	C	-0.071206	0.071095	0.055136
C40	C	-0.041508	0.071441	0.000043
O41	O	0.022758	0.072247	0.101944
O42	O	0.022813	0.072190	-0.101887
C43	C	0.677092	-0.030127	0.000061
C44	C	0.676337	-0.093345	0.000066
C45	C	0.671609	-0.485363	-0.055049
C46	C	0.670892	-0.544762	-0.055053
O47	O	0.670509	-0.575484	-0.101899
N48	N	0.670527	-0.574466	0.000029
C49	C	0.670875	-0.544767	0.055118
O50	O	0.670498	-0.575486	0.101969
C51	C	0.671588	-0.485368	0.055121
C52	C	0.671958	-0.455668	0.000035
C53	C	0.671979	-0.455663	-0.110130
C54	C	0.672697	-0.396267	-0.110127
C55	C	0.673046	-0.366573	-0.055042
C56	C	0.672676	-0.396273	0.000039
C57	C	0.671931	-0.455669	0.110209
C58	C	0.672643	-0.396266	0.110207
C59	C	0.673014	-0.366566	0.055122
C60	C	0.673743	-0.307183	0.055127
N61	N	0.674108	-0.277479	0.000046
C62	C	0.673759	-0.307174	-0.055039
C63	C	0.669376	-0.669508	0.055107
C64	C	0.668667	-0.728906	0.055105
C65	C	0.668683	-0.728897	-0.055066
C66	C	0.669396	-0.669499	-0.055063
C67	C	0.669740	-0.639804	0.000026
C68	C	0.675268	-0.182440	-0.055027
C69	C	0.675988	-0.123040	-0.055018
C70	C	0.675969	-0.123054	0.055152
C71	C	0.675251	-0.182449	0.055144
C72	C	0.674899	-0.212140	0.000049
O73	O	0.674124	-0.276422	0.101949
O74	O	0.674128	-0.276446	-0.101882
C75	C	0.776477	0.069260	0.000054
C76	C	0.839695	0.070015	0.000056
C77	C	0.667560	0.178176	0.000030
C78	C	0.668315	0.241394	0.000020
N79	N	0.672308	0.074043	0.143850
N80	N	0.672349	0.074002	-0.143758
C81	C	0.711283	0.035078	0.563639
C82	C	0.711285	0.035074	0.627246
O83	O	0.744400	0.001952	0.660146
N84	N	0.672335	0.074005	0.659057
C85	C	0.633376	0.112938	0.627257
O86	O	0.600246	0.146051	0.660156
C87	C	0.633371	0.112939	0.563651
C88	C	0.672328	0.074009	0.531843
C89	C	0.750235	-0.003849	0.531831
C90	C	0.750233	-0.003844	0.468228
C91	C	0.711278	0.035087	0.436432
C92	C	0.672326	0.074014	0.468240
C93	C	0.594410	0.151869	0.531852
C94	C	0.594408	0.151866	0.468241
C95	C	0.633365	0.112937	0.436434
C96	C	0.633369	0.112951	0.372841
N97	N	0.672319	0.074020	0.341030
C98	C	0.711273	0.035088	0.372826
C99	C	0.633389	0.112933	0.760835
C100	C	0.633396	0.112935	0.824440
C101	C	0.711304	0.035070	0.824425
C102	C	0.711299	0.035071	0.760819
C103	C	0.672339	0.074002	0.729024
C104	C	0.711266	0.035101	0.239255
C105	C	0.711262	0.035111	0.175646
C106	C	0.633352	0.112974	0.175667
C107	C	0.633358	0.112967	0.239270
C108	C	0.672317	0.074026	0.271062
O109	O	0.600269	0.146054	0.339902
O110	O	0.744393	0.001976	0.339920
H111	H	0.499448	0.077954	-0.099908
H112	H	0.601680	0.144641	0.850334
H113	H	0.743023	0.003369	0.850325
H114	H	0.669697	-0.645321	-0.099918
C115	C	0.552048	0.194161	0.566265
C116	C	0.517926	0.228238	0.524794
C117	C	0.478887	0.267201	0.556471
H118	H	0.572322	0.217822	0.591079
H119	H	0.528430	0.173811	0.591066
H120	H	0.541540	0.248587	0.500003
H121	H	0.497639	0.204593	0.499979
H122	H	0.455269	0.246851	0.581272
H123	H	0.499166	0.290858	0.581283
H124	H	0.455727	0.290323	0.528338
H125	H	0.601664	0.144640	0.734951
C126	C	0.672949	-0.364069	-0.169974
C127	C	0.623755	-0.371853	-0.203161
C128	C	0.623952	-0.342212	-0.258304
H129	H	0.706005	-0.378324	-0.192685
H130	H	0.673387	-0.324422	-0.162154
H131	H	0.623323	-0.411492	-0.210983
H132	H	0.590692	-0.357596	-0.180469
H133	H	0.624389	-0.302565	-0.250484
H134	H	0.657009	-0.356470	-0.281010
H135	H	0.590572	-0.347485	-0.280826
H136	H	0.226204	0.074643	-0.154988
H137	H	0.674978	-0.206607	-0.099890
H138	H	0.601637	0.144674	0.149769
H139	H	0.562680	0.183568	0.442357
H140	H	0.668397	-0.753086	-0.099919
C141	C	0.671485	-0.487910	-0.169924
C142	C	0.622066	-0.515305	-0.173171
C143	C	0.621593	-0.545007	-0.228251
H144	H	0.704386	-0.515660	-0.172273
H145	H	0.671776	-0.461721	-0.202740
H146	H	0.621780	-0.541493	-0.140364
H147	H	0.589157	-0.487569	-0.170832
H148	H	0.621884	-0.518817	-0.261067
H149	H	0.654496	-0.572753	-0.230595
H150	H	0.588060	-0.563594	-0.230464
H151	H	-0.154796	0.070097	0.099990
H152	H	0.671630	-0.479841	0.155065
C153	C	0.792331	-0.046220	0.433590
C154	C	0.783932	-0.037961	0.371078
C155	C	0.822631	-0.077061	0.339156
H156	H	0.786227	-0.084149	0.444048
H157	H	0.830388	-0.040408	0.443874
H158	H	0.745884	-0.043778	0.360798
H159	H	0.790040	-0.000040	0.360601
H160	H	0.860688	-0.071249	0.349440
H161	H	0.816524	-0.114988	0.349619
H162	H	0.816941	-0.071460	0.296738
C163	C	0.792600	-0.046146	0.566235
C164	C	0.826715	-0.080221	0.524753
C165	C	0.865758	-0.119185	0.556418
H166	H	0.772330	-0.069808	0.591056
H167	H	0.816222	-0.025796	0.591028
H168	H	0.803096	-0.100568	0.499971
H169	H	0.846998	-0.056575	0.499931
H170	H	0.889380	-0.098836	0.581211
H171	H	0.845484	-0.142843	0.581238
H172	H	0.888914	-0.142306	0.528278
C173	C	0.110281	0.073363	0.169973
C174	C	0.069473	0.121950	0.173183
C175	C	0.039677	0.121694	0.228227
H176	H	0.136407	0.073710	0.202827
H177	H	0.091614	0.039884	0.172274
H178	H	0.088139	0.155420	0.170888
H179	H	0.043335	0.121613	0.140342
H180	H	0.021010	0.088215	0.230528
H181	H	0.065807	0.122039	0.261076
H182	H	0.011982	0.154656	0.230409
H183	H	0.668374	-0.753084	0.099961
C184	C	0.753617	-0.007263	0.726398
C185	C	0.787722	-0.041363	0.767865
C186	C	0.826707	-0.080375	0.736182
H187	H	0.777258	0.013031	0.701577
H188	H	0.733284	-0.030898	0.701604
H189	H	0.808054	-0.017730	0.792648
H190	H	0.764098	-0.061670	0.792687
H191	H	0.806374	-0.104010	0.711388
H192	H	0.850343	-0.060076	0.711362
H193	H	0.849848	-0.103520	0.764312
H194	H	0.391675	0.076681	0.099977
C195	C	-0.039062	0.071460	0.115006
C196	C	-0.077788	0.070987	0.163246
C197	C	-0.048200	0.071308	0.218408
H198	H	-0.020421	0.104943	0.117380
H199	H	-0.011366	0.038505	0.117332
H200	H	-0.105473	0.103938	0.160921
H201	H	-0.096430	0.037506	0.160892
H202	H	-0.020504	0.038354	0.220734
H203	H	-0.029560	0.104792	0.220776
H204	H	-0.074470	0.070982	0.251145
H205	H	0.672915	-0.372091	0.155068
C206	C	-0.162736	0.069943	-0.114903
C207	C	-0.124004	0.070386	-0.163141
C208	C	-0.153580	0.069988	-0.218304
H209	H	-0.190447	0.102872	-0.117287
H210	H	-0.181354	0.036434	-0.117221
H211	H	-0.105395	0.103891	-0.160824
H212	H	-0.096292	0.037460	-0.160777
H213	H	-0.172198	0.036480	-0.220622
H214	H	-0.181290	0.102918	-0.220681
H215	H	-0.127305	0.070284	-0.251040
C216	C	-0.038903	0.071549	-0.114805
C217	C	-0.011490	0.120958	-0.118026
C218	C	0.018275	0.121413	-0.173072
H219	H	-0.065040	0.071262	-0.147657
H220	H	-0.011161	0.038630	-0.117102
H221	H	-0.039229	0.153869	-0.115735
H222	H	0.014656	0.121256	-0.085187
H223	H	0.046017	0.088494	-0.175370
H224	H	-0.007866	0.121125	-0.205920
H225	H	0.036883	0.154934	-0.175263
H226	H	0.601642	0.144672	0.265168
H227	H	0.669658	-0.645335	0.099970
H228	H	0.118460	0.073348	-0.154984
H229	H	0.742987	0.003410	0.149750
H230	H	0.742990	0.003391	0.265133
H231	H	0.391683	0.076655	-0.099911
C232	C	0.676358	-0.090893	-0.114892
C233	C	0.675881	-0.129615	-0.163131
C234	C	0.676213	-0.100023	-0.218293
H235	H	0.709846	-0.072259	-0.117266
H236	H	0.643408	-0.063191	-0.117218
H237	H	0.708828	-0.157306	-0.160807
H238	H	0.642396	-0.148250	-0.160777
H239	H	0.643263	-0.072321	-0.220619
H240	H	0.709701	-0.081391	-0.220661
H241	H	0.675884	-0.126290	-0.251030
C242	C	0.674826	-0.214592	0.115013
C243	C	0.675274	-0.175869	0.163254
C244	C	0.674869	-0.205452	0.218415
H245	H	0.707751	-0.242309	0.117394
H246	H	0.641314	-0.233205	0.117331
H247	H	0.708784	-0.157266	0.160937
H248	H	0.642352	-0.148151	0.160894
H249	H	0.641357	-0.224064	0.220733
H250	H	0.707794	-0.233167	0.220789
H251	H	0.675168	-0.179182	0.251153
H252	H	0.499421	0.077990	0.099972
C253	C	0.234144	0.074738	0.170083
C254	C	0.195411	0.074258	0.218315
C255	C	0.224989	0.074580	0.273483
H256	H	0.252779	0.108224	0.172464
H257	H	0.261843	0.041786	0.172412
H258	H	0.167722	0.107206	0.215988
H259	H	0.176774	0.040774	0.215955
H260	H	0.252689	0.041628	0.275812
H261	H	0.243623	0.108066	0.275857
H262	H	0.198714	0.074249	0.306215
H263	H	0.676256	-0.098866	0.100001
