data_functionalizedCrystal
_audit_creation_method	'MofGen! by Chris Wilmer'
_symmetry_space_group_name_H-M	'P1'
_symmetry_Int_Tables_number	1
_symmetry_cell_setting	triclinic
loop_
_symmetry_equiv_pos_as_xyz
  x,y,z
_cell_length_a	25.639242
_cell_length_b	25.639239
_cell_length_c	25.639234
_cell_angle_alpha	89.975095
_cell_angle_beta	89.970648
_cell_angle_gamma	90.034213
loop_
_atom_site_label
_atom_site_type_symbol
_atom_site_fract_x
_atom_site_fract_y
_atom_site_fract_z
Zn1	Zn	0.799262	-0.208245	-0.295742
Zn2	Zn	1.299262	0.291755	0.204258
Zn3	Zn	0.799175	-0.295673	-0.208307
Zn4	Zn	1.299175	0.204327	0.291693
Zn5	Zn	0.711827	-0.208247	-0.208306
Zn6	Zn	1.211827	0.291753	0.291694
Zn7	Zn	0.711784	-0.295644	-0.295696
Zn8	Zn	1.211784	0.204356	0.204304
O9	O	0.755512	-0.251952	-0.252013
O10	O	1.255512	0.248048	0.247987
O11	O	0.872416	-0.219854	-0.284163
O12	O	1.372416	0.280146	0.215837
O13	O	0.787570	-0.284089	-0.135141
O14	O	1.287570	0.215911	0.364859
O15	O	0.723481	-0.135081	-0.219924
O16	O	1.223481	0.364919	0.280076
O17	O	0.872351	-0.284087	-0.219924
O18	O	1.372351	0.215913	0.280076
O19	O	0.787719	-0.135080	-0.284163
O20	O	1.287719	0.364920	0.215837
O21	O	0.723396	-0.219857	-0.135141
O22	O	1.223396	0.280143	0.364859
O23	O	0.638656	-0.219829	-0.219880
O24	O	1.138656	0.280171	0.280120
O25	O	0.723406	-0.284038	-0.368868
O26	O	1.223406	0.215962	0.131132
O27	O	0.638624	-0.284040	-0.284085
O28	O	1.138624	0.215960	0.215915
O29	O	0.787676	-0.219826	-0.368901
O30	O	1.287676	0.280174	0.131099
O31	O	0.787527	-0.368835	-0.219880
O32	O	1.287527	0.131165	0.280120
O33	O	0.723321	-0.368813	-0.284085
O34	O	1.223321	0.131187	0.215915
C35	C	0.755424	-0.387795	-0.251989
C36	C	1.255424	0.112205	0.248011
C37	C	0.755434	-0.445909	-0.251996
C38	C	1.255434	0.054091	0.248004
C39	C	0.619669	-0.251932	-0.251977
C40	C	1.119669	0.248068	0.248023
C41	C	0.561555	-0.251935	-0.251975
C42	C	1.061555	0.248065	0.248025
C43	C	0.789031	-0.806270	-0.218638
C44	C	1.289031	-0.306270	0.281362
C45	C	0.789051	-0.860875	-0.218645
C46	C	1.289051	-0.360875	0.281355
O47	O	0.817526	-0.889110	-0.190257
O48	O	1.317526	-0.389110	0.309743
N49	N	0.755604	-0.888191	-0.252048
N50	N	1.255604	-0.388191	0.247952
C51	C	0.722138	-0.860901	-0.285449
C52	C	1.222138	-0.360901	0.214551
O53	O	0.693690	-0.889150	-0.313861
O54	O	1.193690	-0.389150	0.186139
C55	C	0.722120	-0.806298	-0.285444
C56	C	1.222120	-0.306298	0.214556
C57	C	0.755566	-0.778984	-0.252036
C58	C	1.255566	-0.278984	0.247964
C59	C	0.822475	-0.778957	-0.185233
C60	C	1.322475	-0.278957	0.314767
C61	C	0.822454	-0.724356	-0.185226
C62	C	1.322454	-0.224356	0.314774
C63	C	0.788989	-0.697069	-0.218623
C64	C	1.288989	-0.197069	0.281377
C65	C	0.755545	-0.724383	-0.252028
C66	C	1.255545	-0.224383	0.247972
C67	C	0.688657	-0.779008	-0.318847
C68	C	1.188657	-0.279008	0.181153
C69	C	0.688643	-0.724401	-0.318840
C70	C	1.188643	-0.224401	0.181160
C71	C	0.722089	-0.697087	-0.285432
C72	C	1.222089	-0.197087	0.214568
C73	C	0.722059	-0.642496	-0.285418
C74	C	1.222059	-0.142496	0.214582
N75	N	0.755507	-0.615179	-0.252016
N76	N	1.255507	-0.115179	0.247984
C77	C	0.788972	-0.642466	-0.218619
C78	C	1.288972	-0.142466	0.281381
C79	C	0.722177	-0.975571	-0.285457
C80	C	1.222177	-0.475571	0.214543
C81	C	0.722191	-1.030174	-0.285459
C82	C	1.222191	-0.530174	0.214541
C83	C	0.789106	-1.030144	-0.218656
C84	C	1.289106	-0.530144	0.281344
C85	C	0.789089	-0.975541	-0.218652
C86	C	1.289089	-0.475541	0.281348
C87	C	0.755625	-0.948255	-0.252055
C88	C	1.255625	-0.448255	0.247945
C89	C	0.788925	-0.527801	-0.218605
C90	C	1.288925	-0.027801	0.281395
C91	C	0.788899	-0.473196	-0.218599
C92	C	1.288899	0.026804	0.281401
C93	C	0.721987	-0.473230	-0.285403
C94	C	1.221987	0.026770	0.214597
C95	C	0.722010	-0.527831	-0.285408
C96	C	1.222010	-0.027831	0.214592
C97	C	0.755483	-0.555115	-0.252007
C98	C	1.255483	-0.055115	0.247993
O99	O	0.693601	-0.614226	-0.313794
O100	O	1.193601	-0.114226	0.186206
O101	O	0.817419	-0.614210	-0.190216
O102	O	1.317419	-0.114210	0.309784
C103	C	0.201184	-0.285443	-0.285413
C104	C	0.701184	0.214557	0.214587
C105	C	0.146580	-0.285446	-0.285421
C106	C	0.646580	0.214554	0.214579
O107	O	0.118337	-0.313909	-0.313821
O108	O	0.618337	0.186091	0.186179
N109	N	0.119273	-0.251967	-0.252047
N110	N	0.619273	0.248033	0.247953
C111	C	0.146573	-0.218478	-0.218666
C112	C	0.646573	0.281522	0.281334
O113	O	0.118332	-0.190002	-0.190280
O114	O	0.618332	0.309998	0.309720
C115	C	0.201176	-0.218473	-0.218661
C116	C	0.701176	0.281527	0.281339
C117	C	0.228481	-0.251958	-0.252034
C118	C	0.728481	0.248042	0.247966
C119	C	0.228489	-0.318925	-0.318783
C120	C	0.728489	0.181075	0.181217
C121	C	0.283089	-0.318922	-0.318774
C122	C	0.783089	0.181078	0.181226
C123	C	0.310385	-0.285437	-0.285395
C124	C	0.810385	0.214563	0.214605
C125	C	0.283081	-0.251955	-0.252024
C126	C	0.783081	0.248045	0.247976
C127	C	0.228475	-0.184982	-0.185283
C128	C	0.728475	0.315018	0.314717
C129	C	0.283082	-0.184980	-0.185281
C130	C	0.783082	0.315020	0.314719
C131	C	0.310387	-0.218465	-0.218654
C132	C	0.810387	0.281535	0.281346
C133	C	0.364978	-0.218468	-0.218636
C134	C	0.864978	0.281532	0.281364
N135	N	0.392285	-0.251947	-0.252010
N136	N	0.892285	0.248053	0.247990
C137	C	0.364989	-0.285432	-0.285389
C138	C	0.864989	0.214568	0.214611
C139	C	0.031902	-0.218492	-0.218680
C140	C	0.531902	0.281508	0.281320
C141	C	-0.022700	-0.218499	-0.218683
C142	C	0.477300	0.281501	0.281317
C143	C	-0.022689	-0.285466	-0.285438
C144	C	0.477311	0.214534	0.214562
C145	C	0.031914	-0.285461	-0.285433
C146	C	0.531914	0.214539	0.214567
C147	C	0.059209	-0.251971	-0.252054
C148	C	0.559209	0.248029	0.247946
C149	C	0.479654	-0.285424	-0.285368
C150	C	0.979654	0.214576	0.214632
C151	C	0.534259	-0.285420	-0.285354
C152	C	1.034259	0.214580	0.214646
C153	C	0.534243	-0.218451	-0.218601
C154	C	1.034243	0.281549	0.281399
C155	C	0.479643	-0.218457	-0.218612
C156	C	0.979643	0.281543	0.281388
C157	C	0.452349	-0.251945	-0.252000
C158	C	0.952349	0.248055	0.248000
O159	O	0.393256	-0.190018	-0.190252
O160	O	0.893256	0.309982	0.309748
O161	O	0.393236	-0.313899	-0.313776
O162	O	0.893236	0.186101	0.186224
C163	C	0.891885	-0.251973	-0.252049
C164	C	1.391885	0.248027	0.247951
C165	C	0.949999	-0.251982	-0.252064
C166	C	1.449999	0.248018	0.247936
C167	C	0.755546	-0.251928	-0.388386
C168	C	1.255546	0.248072	0.111614
C169	C	0.755560	-0.251918	-0.446500
C170	C	1.255560	0.248082	0.053500
C171	C	0.755614	-0.115579	-0.252048
C172	C	1.255614	0.384421	0.247952
C173	C	0.755658	-0.057465	-0.252064
C174	C	1.255658	0.442535	0.247936
C175	C	0.722160	-0.218411	-0.806869
C176	C	1.222160	0.281589	-0.306869
C177	C	0.722163	-0.218401	-0.861473
C178	C	1.222163	0.281599	-0.361473
O179	O	0.693738	-0.189969	-0.889714
O180	O	1.193738	0.310031	-0.389714
N181	N	0.755578	-0.251836	-0.888783
N182	N	1.255578	0.248164	-0.388783
C183	C	0.788988	-0.285287	-0.861485
C184	C	1.288988	0.214713	-0.361485
O185	O	0.817411	-0.313726	-0.889728
O186	O	1.317411	0.186274	-0.389728
C187	C	0.788983	-0.285299	-0.806882
C188	C	1.288983	0.214701	-0.306882
C189	C	0.755569	-0.251857	-0.779575
C190	C	1.255569	0.248143	-0.279575
C191	C	0.688749	-0.184972	-0.779562
C192	C	1.188749	0.315028	-0.279562
C193	C	0.688747	-0.184981	-0.724961
C194	C	1.188747	0.315019	-0.224961
C195	C	0.722156	-0.218428	-0.697668
C196	C	1.222156	0.281572	-0.197668
C197	C	0.755567	-0.251866	-0.724974
C198	C	1.255567	0.248134	-0.224974
C199	C	0.822390	-0.318752	-0.779585
C200	C	1.322390	0.181248	-0.279585
C201	C	0.822381	-0.318761	-0.724978
C202	C	1.322381	0.181239	-0.224978
C203	C	0.788968	-0.285319	-0.697672
C204	C	1.288968	0.214681	-0.197672
C205	C	0.788974	-0.285322	-0.643080
C206	C	1.288974	0.214678	-0.143080
N207	N	0.755559	-0.251887	-0.615771
N208	N	1.255559	0.248113	-0.115771
C209	C	0.722150	-0.218440	-0.643064
C210	C	1.222150	0.281560	-0.143064
C211	C	0.788998	-0.285260	-0.976156
C212	C	1.288998	0.214740	-0.476156
C213	C	0.789006	-0.285246	-1.030758
C214	C	1.289006	0.214754	-0.530758
C215	C	0.722180	-0.218361	-1.030742
C216	C	1.222180	0.281639	-0.530742
C217	C	0.722174	-0.218373	-0.976139
C218	C	1.222174	0.281627	-0.476139
C219	C	0.755583	-0.251825	-0.948846
C220	C	1.255583	0.248175	-0.448846
C221	C	0.722149	-0.218461	-0.528399
C222	C	1.222149	0.281539	-0.028399
C223	C	0.722151	-0.218471	-0.473794
C224	C	1.222151	0.281529	0.026206
C225	C	0.788976	-0.285358	-0.473814
C226	C	1.288976	0.214642	0.026186
C227	C	0.788975	-0.285346	-0.528415
C228	C	1.288975	0.214654	-0.028415
C229	C	0.755558	-0.251896	-0.555706
C230	C	1.255558	0.248104	-0.055706
O231	O	0.817383	-0.313741	-0.614804
O232	O	1.317383	0.186259	-0.114804
O233	O	0.693728	-0.190011	-0.614814
O234	O	1.193728	0.309989	-0.114814
C235	C	0.755508	-0.251938	-0.116170
C236	C	1.255508	0.248062	0.383830
C237	C	0.755595	-0.251801	-0.058057
C238	C	1.255595	0.248199	0.441943
H239	H	0.816135	-0.450958	-0.191392
H240	H	1.316135	0.049042	0.308608
H241	H	0.305316	-0.346188	-0.345950
H242	H	0.805316	0.153812	0.154050
O243	O	0.450202	-0.321544	-0.321362
O244	O	0.950202	0.178456	0.178638
H245	H	0.425297	-0.348100	-0.297898
H246	H	0.925297	0.151900	0.202102
O247	O	0.858423	-0.354838	-0.695544
O248	O	1.358423	0.145162	-0.195544
H249	H	0.849428	-0.395869	-0.706013
H250	H	1.349428	0.104131	-0.206013
H251	H	0.816178	-0.312589	-0.451582
H252	H	1.316178	0.187411	0.048418
O253	O	0.685936	-0.557296	-0.321438
O254	O	1.185936	-0.057296	0.178562
H255	H	0.662665	-0.529146	-0.344661
H256	H	1.162665	-0.029146	0.155339
O257	O	0.685895	-0.443795	-0.321427
O258	O	1.185895	0.056205	0.178573
H259	H	0.691508	-0.401238	-0.315811
H260	H	1.191508	0.098762	0.184189
H261	H	0.661540	-0.157736	-0.801778
H262	H	1.161540	0.342264	-0.301778
O263	O	0.563706	-0.321532	-0.321359
O264	O	1.063706	0.178468	0.178641
H265	H	0.606262	-0.315908	-0.315746
H266	H	1.106262	0.184092	0.184254
O267	O	0.061343	-0.182374	-0.182672
O268	O	0.561343	0.317626	0.317328
H269	H	0.086194	-0.205739	-0.156030
H270	H	0.586194	0.294261	0.343970
O271	O	0.825205	-1.059586	-0.182641
O272	O	1.325205	-0.559586	0.317359
H273	H	0.816260	-1.049147	-0.141592
H274	H	1.316260	-0.549147	0.358408
H275	H	0.849599	-0.345983	-0.801809
H276	H	1.349599	0.154017	-0.301809
O277	O	0.825022	-0.557225	-0.182577
O278	O	1.325022	-0.057225	0.317423
H279	H	0.848267	-0.529052	-0.159346
H280	H	1.348267	-0.029052	0.340654
H281	H	0.694966	-0.191142	-0.953909
H282	H	1.194966	0.308858	-0.453909
O283	O	0.686144	-0.182287	-1.060189
O284	O	1.186144	0.317713	-0.560189
H285	H	0.662908	-0.159032	-1.032031
H286	H	1.162908	0.340968	-0.532031
O287	O	0.312519	-0.148856	-0.149277
O288	O	0.812519	0.351144	0.350723
H289	H	0.355076	-0.154473	-0.154878
H290	H	0.855076	0.345527	0.345122
H291	H	0.054142	-0.312727	-0.312609
H292	H	0.554142	0.187273	0.187391
O293	O	0.858535	-0.694898	-0.149201
O294	O	1.358535	-0.194898	0.350799
H295	H	0.881811	-0.723053	-0.125987
H296	H	1.381811	-0.223053	0.374013
O297	O	0.858568	-0.808383	-0.149205
O298	O	1.358568	-0.308383	0.350795
H299	H	0.881814	-0.780208	-0.125977
H300	H	1.381814	-0.280208	0.374023
H301	H	0.694922	-0.953358	-0.312656
H302	H	1.194922	-0.453358	0.187344
O303	O	0.686114	-1.059632	-0.321488
O304	O	1.186114	-0.559632	0.178512
H305	H	0.662845	-1.031479	-0.344711
H306	H	1.162845	-0.531479	0.155289
O307	O	0.450188	-0.182344	-0.182618
O308	O	0.950188	0.317656	0.317382
H309	H	0.478344	-0.159058	-0.159407
H310	H	0.978344	0.340942	0.340593
H311	H	0.816221	-0.312472	-1.052987
H312	H	1.316221	0.187528	-0.552987
O313	O	0.199037	-0.148863	-0.149288
O314	O	0.699037	0.351137	0.350712
H315	H	0.156480	-0.154487	-0.154891
H316	H	0.656480	0.345513	0.345109
O317	O	0.825167	-0.946081	-0.182625
O318	O	1.325167	-0.446081	0.317375
H319	H	0.848441	-0.974234	-0.159407
H320	H	1.348441	-0.474234	0.340593
H321	H	0.661393	-0.702188	-0.346042
H322	H	1.161393	-0.202188	0.153958
O323	O	0.652586	-0.808461	-0.354884
O324	O	1.152586	-0.308461	0.145116
H325	H	0.629322	-0.780304	-0.378108
H326	H	1.129322	-0.280304	0.121892
O327	O	0.199052	-0.355103	-0.354727
O328	O	0.699052	0.144897	0.145273
H329	H	0.227220	-0.378404	-0.377903
H330	H	0.727220	0.121596	0.122097
O331	O	-0.052134	-0.321579	-0.321448
O332	O	0.447866	0.178421	0.178552
H333	H	-0.094690	-0.315949	-0.315847
H334	H	0.405310	0.184051	0.184153
O335	O	-0.052148	-0.182387	-0.182686
O336	O	0.447852	0.317613	0.317314
H337	H	-0.023989	-0.159101	-0.159478
H338	H	0.476011	0.340899	0.340522
H339	H	0.556478	-0.191191	-0.191422
H340	H	1.056478	0.308809	0.308578
H341	H	0.694942	-0.191237	-0.451563
H342	H	1.194942	0.308763	0.048437
H343	H	0.694937	-0.191222	-0.550613
H344	H	1.194937	0.308778	-0.050613
O345	O	0.825046	-0.321333	-0.946723
O346	O	1.325046	0.178667	-0.446723
H347	H	0.816057	-0.362365	-0.957196
H348	H	1.316057	0.137635	-0.457196
O349	O	0.652710	-0.148910	-0.695511
O350	O	1.152710	0.351090	-0.195511
H351	H	0.629481	-0.125655	-0.723671
H352	H	1.129481	0.374345	-0.223671
H353	H	0.816189	-0.312571	-0.550650
H354	H	1.316189	0.187429	-0.050650
