data_functionalizedCrystal
_audit_creation_method	'MofGen! by Chris Wilmer'
_symmetry_space_group_name_H-M	'P1'
_symmetry_Int_Tables_number	1
_symmetry_cell_setting	triclinic
loop_
_symmetry_equiv_pos_as_xyz
  x,y,z
_cell_length_a	14.971486
_cell_length_b	16.992695
_cell_length_c	13.448316
_cell_angle_alpha	89.993283
_cell_angle_beta	89.998199
_cell_angle_gamma	87.141176
loop_
_atom_site_label
_atom_site_type_symbol
_atom_site_fract_x
_atom_site_fract_y
_atom_site_fract_z
O1	O	1.194127	0.102190	-0.082578
O2	O	0.934587	0.114427	-0.082605
O3	O	1.063317	-0.005835	-0.082584
O4	O	1.065398	0.222452	-0.082599
O5	O	1.063299	-0.005843	0.082800
O6	O	0.934569	0.114420	0.082779
O7	O	1.194110	0.102182	0.082806
Cu8	Cu	1.064338	0.108300	0.097893
Cu9	Cu	1.064359	0.108309	-0.097692
O10	O	1.065380	0.222445	0.082785
C11	C	0.901215	0.113876	0.000083
C12	C	0.801803	0.112236	0.000073
C13	C	1.060631	-0.035054	0.000108
C14	C	1.052644	-0.122105	0.000107
C15	C	0.749541	0.182887	0.000070
C16	C	0.656133	0.181341	0.000085
C17	C	0.614988	0.109144	0.000096
C18	C	0.667257	0.038488	0.000102
C19	C	0.760663	0.040034	0.000095
C20	C	0.472568	0.035269	0.000116
C21	C	0.379155	0.033723	0.000122
C22	C	0.368038	0.176577	0.000106
C23	C	0.461445	0.178123	0.000099
C24	C	0.513707	0.107466	0.000103
C25	C	1.129708	-0.172274	0.000116
C26	C	1.122198	-0.254067	0.000106
C27	C	1.037623	-0.285691	0.000093
C28	C	0.960553	-0.235517	0.000081
C29	C	0.968064	-0.153724	0.000084
C30	C	1.006493	-0.529318	0.000076
C31	C	0.998988	-0.611117	0.000076
C32	C	1.160634	-0.629662	0.000099
C33	C	1.168138	-0.547867	0.000108
C34	C	1.091068	-0.497700	0.000090
N35	N	1.029945	-0.369297	0.000086
N36	N	1.098747	-0.414095	0.000091
C37	C	1.227482	0.102733	0.000115
C38	C	1.326894	0.104373	0.000119
C39	C	1.068066	0.251664	0.000091
C40	C	1.076053	0.338715	0.000085
N41	N	1.064329	0.108294	0.235457
N42	N	1.064374	0.108310	-0.235257
C43	C	1.121351	0.055064	0.287507
C44	C	1.121357	0.055063	0.391611
C45	C	1.064344	0.108297	0.443662
C46	C	1.007316	0.161530	0.391605
C47	C	1.007307	0.161526	0.287504
C48	C	1.007341	0.161535	0.608585
C49	C	1.007352	0.161540	0.712694
C50	C	1.121392	0.055072	0.712692
C51	C	1.121382	0.055068	0.608591
C52	C	1.064355	0.108302	0.556541
H53	H	0.783034	0.241679	0.000060
H54	H	0.494942	0.236912	0.000080
H55	H	0.960891	0.204871	0.433991
H56	H	0.905310	-0.112878	0.000077
O57	O	0.952015	0.213344	0.236983
C58	C	0.972085	0.290993	0.262418
H59	H	1.043731	0.291483	0.291024
H60	H	0.964599	0.330329	0.193949
H61	H	0.924155	0.313955	0.322847
H62	H	0.891690	-0.261271	0.000065
O63	O	0.951919	0.213323	0.558176
C64	C	0.901587	0.260300	0.626438
H65	H	0.938329	0.261239	0.700641
H66	H	0.892415	0.322904	0.596349
H67	H	0.833318	0.234745	0.637523
H68	H	1.167781	0.011718	0.245134
H69	H	0.930114	-0.636861	0.000082
O70	O	0.605500	0.250045	0.000036
C71	C	0.661845	0.314099	0.000043
H72	H	0.730055	0.294261	-0.031275
H73	H	0.630964	0.363608	-0.047974
H74	H	0.670077	0.336224	0.079382
H75	H	0.325482	0.234108	0.000107
H76	H	0.345658	-0.025067	0.000133
O77	O	0.523204	-0.033439	0.000071
C78	C	0.466861	-0.097494	0.000101
H79	H	0.398644	-0.077654	-0.031199
H80	H	0.497735	-0.146996	-0.047920
H81	H	0.458645	-0.119630	0.079445
O82	O	1.235522	-0.678362	0.000281
C83	C	1.286530	-0.664013	0.085925
H84	H	1.241301	-0.636112	0.145792
H85	H	1.318253	-0.722013	0.114673
H86	H	1.341283	-0.622315	0.066565
O87	O	1.176843	0.003334	0.442017
C88	C	1.227154	-0.043657	0.373752
H89	H	1.230441	-0.011508	0.299537
H90	H	1.297742	-0.055500	0.403818
H91	H	1.193964	-0.101961	0.362702
H92	H	1.198578	-0.146533	0.000132
O93	O	0.811300	-0.028669	0.000048
C94	C	0.754957	-0.092725	0.000082
H95	H	0.686742	-0.072887	-0.031225
H96	H	0.785834	-0.142230	-0.047931
H97	H	0.746736	-0.114854	0.079428
O98	O	1.197149	-0.302689	0.000165
C99	C	1.273407	-0.257238	0.000161
H100	H	1.255059	-0.196218	0.031469
H101	H	1.327754	-0.287361	0.048188
H102	H	1.299074	-0.251382	-0.079176
H103	H	0.943737	-0.488481	0.000063
O104	O	1.250317	-0.517192	-0.000057
C105	C	1.297672	-0.542828	-0.085690
H106	H	1.248328	-0.559875	-0.145569
H107	H	1.339281	-0.493244	-0.114429
H108	H	1.343700	-0.596093	-0.066320
H109	H	1.167810	0.011725	0.566210
H110	H	0.633749	-0.020297	0.000126
O111	O	1.176745	0.003251	0.763135
C112	C	1.156653	-0.074399	0.737730
H113	H	1.122171	-0.074355	0.662153
H114	H	1.221137	-0.112912	0.734160
H115	H	1.110408	-0.098720	0.796332
O116	O	0.951922	0.213136	0.763374
C117	C	0.893745	0.171047	0.823591
H118	H	0.925003	0.109740	0.839180
H119	H	0.881942	0.203751	0.896797
H120	H	0.827247	0.165617	0.783491
