data_functionalizedCrystal
_audit_creation_method	'MofGen! by Chris Wilmer'
_symmetry_space_group_name_H-M	'P1'
_symmetry_Int_Tables_number	1
_symmetry_cell_setting	triclinic
loop_
_symmetry_equiv_pos_as_xyz
  x,y,z
_cell_length_a	15.944493
_cell_length_b	15.944493
_cell_length_c	16.776229
_cell_angle_alpha	89.999222
_cell_angle_beta	89.993425
_cell_angle_gamma	83.475044
loop_
_atom_site_label
_atom_site_type_symbol
_atom_site_fract_x
_atom_site_fract_y
_atom_site_fract_z
O1	O	1.114535	0.108105	-0.066267
O2	O	0.869976	0.121513	-0.066270
O3	O	0.998959	-0.007471	-0.066275
O4	O	0.985552	0.237088	-0.066262
O5	O	0.998942	-0.007479	0.066302
O6	O	0.869959	0.121505	0.066307
O7	O	1.114518	0.108097	0.066309
Zn8	Zn	0.992236	0.114800	0.087357
Zn9	Zn	0.992258	0.114810	-0.087318
O10	O	0.985535	0.237080	0.066315
C11	C	0.838673	0.120961	0.000018
C12	C	0.745424	0.119318	0.000016
C13	C	0.509649	0.195240	0.000020
C14	C	0.459090	0.154294	0.065388
C15	C	0.574704	0.116273	0.000018
C16	C	0.459112	0.154283	-0.065322
C17	C	0.409795	0.113339	0.000016
C18	C	0.525374	0.075349	0.065440
C19	C	0.525399	0.075350	-0.065329
C20	C	0.474873	0.034346	0.000056
C21	C	0.669704	0.117966	0.000020
C22	C	0.314798	0.111640	0.000020
C23	C	0.998403	-0.038769	0.000010
C24	C	0.996760	-0.132018	-0.000000
C25	C	1.072682	-0.367793	0.000016
C26	C	1.031749	-0.418349	-0.065351
C27	C	0.993716	-0.302738	0.000009
C28	C	1.031713	-0.418333	0.065359
C29	C	0.990781	-0.467647	0.000022
C30	C	0.952803	-0.352065	-0.065412
C31	C	0.952779	-0.352046	0.065357
C32	C	0.911788	-0.402569	-0.000026
C33	C	0.995408	-0.207739	0.000001
C34	C	0.989082	-0.562644	0.000025
C35	C	1.145821	0.108649	0.000020
C36	C	1.239069	0.110292	0.000016
C37	C	0.986091	0.268379	0.000028
C38	C	0.987734	0.361627	0.000033
N39	N	0.992226	0.114792	0.206569
N40	N	0.992274	0.114811	-0.206529
C41	C	1.049358	0.057702	0.248283
C42	C	1.049362	0.057701	0.331736
C43	C	0.992239	0.114795	0.373472
C44	C	0.935102	0.171888	0.331751
C45	C	0.935094	0.171884	0.248300
C46	C	0.935132	0.171905	0.668298
C47	C	0.935146	0.171906	0.751755
C48	C	1.049401	0.057721	0.751734
C49	C	1.049393	0.057717	0.668283
C50	C	0.992253	0.114807	0.626570
C51	C	0.992247	0.114806	0.536081
C52	C	0.992248	0.114801	0.463958
H53	H	1.140702	-0.352179	-0.000049
H54	H	0.459422	-0.033727	0.000090
H55	H	0.554202	0.042017	0.120759
O56	O	1.104898	0.002338	0.207691
C57	C	1.156694	0.047310	0.159366
H58	H	1.158157	0.113550	0.184508
H59	H	1.130366	0.051717	0.096138
C60	C	1.245067	-0.080357	0.127144
C61	C	1.246869	0.000999	0.158029
H62	H	1.300690	-0.108924	0.126316
H63	H	1.210169	-0.110656	0.159700
H64	H	1.223123	-0.076672	0.074457
H65	H	1.268803	-0.002687	0.210718
H66	H	1.281773	0.031297	0.125482
O67	O	1.104950	0.002221	0.372133
C68	C	1.155360	-0.048178	0.317402
H69	H	1.156284	-0.013741	0.257912
H70	H	1.128115	-0.110600	0.308539
C71	C	1.244847	-0.107724	0.423015
C72	C	1.245987	-0.065425	0.349951
H73	H	1.300749	-0.118367	0.443094
H74	H	1.210883	-0.073772	0.459890
H75	H	1.222139	-0.159738	0.415620
H76	H	1.268685	-0.013408	0.357349
H77	H	1.279957	-0.099369	0.313078
H78	H	0.888626	0.218401	0.785735
O79	O	0.559911	0.035728	-0.131343
C80	C	0.525970	0.077588	-0.200126
H81	H	0.501346	0.145514	-0.184459
H82	H	0.471921	0.043748	-0.223979
C83	C	0.625411	-0.006158	-0.283447
C84	C	0.595174	0.077272	-0.264206
H85	H	0.668097	-0.006356	-0.322976
H86	H	0.648276	-0.034363	-0.237107
H87	H	0.580363	-0.034349	-0.303320
H88	H	0.640220	0.105458	-0.244324
H89	H	0.572318	0.105482	-0.310544
H90	H	1.065104	-0.447298	-0.120615
H91	H	0.919481	-0.323235	-0.120734
H92	H	1.095925	0.011233	0.785705
O93	O	0.879693	0.227319	0.372414
C94	C	0.891937	0.215070	0.455016
H95	H	0.958723	0.183704	0.466401
H96	H	0.844406	0.172920	0.478712
C97	C	0.797271	0.339519	0.483871
C98	C	0.879302	0.301002	0.497855
H99	H	0.789474	0.392525	0.510298
H100	H	0.789019	0.347770	0.428221
H101	H	0.757672	0.304386	0.503618
H102	H	0.918899	0.336131	0.478100
H103	H	0.887560	0.292759	0.553503
O104	O	0.879630	0.227263	0.207652
C105	C	0.891884	0.215031	0.125048
H106	H	0.923291	0.148261	0.113649
H107	H	0.933999	0.262594	0.101354
C108	C	0.767380	0.309622	0.096221
C109	C	0.805948	0.227611	0.082220
H110	H	0.714372	0.317386	0.069801
H111	H	0.759126	0.317867	0.151873
H112	H	0.802484	0.349249	0.076475
H113	H	0.770850	0.187987	0.101974
H114	H	0.814195	0.219361	0.026570
O115	O	0.424510	0.193965	-0.131271
C116	C	0.383431	0.136583	-0.176881
H117	H	0.366310	0.083247	-0.136932
H118	H	0.427241	0.109362	-0.226481
C119	C	0.323531	0.248227	-0.262732
C120	C	0.302497	0.182724	-0.213665
H121	H	0.273610	0.276689	-0.285426
H122	H	0.351209	0.286887	-0.232006
H123	H	0.360041	0.225534	-0.304059
H124	H	0.265997	0.205419	-0.172334
H125	H	0.274811	0.144069	-0.244385
O126	O	0.528433	0.276334	0.000061
C127	C	0.616802	0.276816	-0.000627
H128	H	0.647816	0.214631	-0.026154
H129	H	0.640225	0.284867	0.062814
C130	C	0.601702	0.426848	-0.021242
C131	C	0.639794	0.350474	-0.052601
H132	H	0.615886	0.472285	-0.053299
H133	H	0.542166	0.426524	-0.020775
H134	H	0.621225	0.433545	0.031625
H135	H	0.620263	0.343773	-0.105463
H136	H	0.699328	0.350798	-0.053078
H137	H	0.430139	0.187640	0.120655
H138	H	0.843715	-0.418021	-0.000063
O139	O	0.913142	-0.317540	0.131368
C140	C	0.954989	-0.351486	0.200155
H141	H	1.022919	-0.376104	0.184494
H142	H	0.921146	-0.405539	0.224005
C143	C	0.871218	-0.252057	0.283467
C144	C	0.954654	-0.282287	0.264234
H145	H	0.871010	-0.209374	0.322995
H146	H	0.843023	-0.229188	0.237124
H147	H	0.843025	-0.297108	0.303337
H148	H	0.982843	-0.237238	0.244354
H149	H	0.982854	-0.305147	0.310575
O150	O	1.071619	-0.452771	0.131264
C151	C	1.156383	-0.435435	0.131001
H152	H	1.162496	-0.377360	0.092734
H153	H	1.198149	-0.491853	0.105486
C154	C	1.176789	-0.490067	0.263873
C155	C	1.184296	-0.418733	0.216878
H156	H	1.194009	-0.479767	0.316846
H157	H	1.119683	-0.501749	0.264049
H158	H	1.211594	-0.537075	0.242601
H159	H	1.149483	-0.371729	0.238144
H160	H	1.241397	-0.407042	0.216707
H161	H	1.095910	0.011229	0.634304
H162	H	0.888608	0.218391	0.634342
