data_functionalizedCrystal
_audit_creation_method	'MofGen! by Chris Wilmer'
_symmetry_space_group_name_H-M	'P1'
_symmetry_Int_Tables_number	1
_symmetry_cell_setting	triclinic
loop_
_symmetry_equiv_pos_as_xyz
  x,y,z
_cell_length_a	12.759401
_cell_length_b	19.805405
_cell_length_c	12.759393
_cell_angle_alpha	90.034941
_cell_angle_beta	90.018496
_cell_angle_gamma	90.026887
loop_
_atom_site_label
_atom_site_type_symbol
_atom_site_fract_x
_atom_site_fract_y
_atom_site_fract_z
Zn1	Zn	1.606168	-0.269420	0.593957
Zn2	Zn	1.606025	-0.382625	0.418266
Zn3	Zn	1.430470	-0.269456	0.418296
Zn4	Zn	1.430421	-0.382573	0.593908
O5	O	1.518271	-0.326019	0.506107
O6	O	1.753170	-0.284444	0.570659
O7	O	1.582698	-0.367650	0.271249
O8	O	1.453856	-0.174735	0.441631
O9	O	1.753065	-0.367615	0.441580
O10	O	1.582941	-0.174708	0.570688
O11	O	1.453718	-0.284505	0.271271
O12	O	1.283442	-0.284454	0.441583
O13	O	1.453774	-0.367526	0.740936
O14	O	1.283407	-0.367561	0.570605
O15	O	1.582894	-0.284394	0.740971
O16	O	1.582651	-0.477335	0.441533
O17	O	1.453636	-0.477297	0.570576
C18	C	1.245304	-0.326006	0.506093
C19	C	1.128527	-0.326017	0.506111
C20	C	1.073674	-0.369360	0.573182
C21	C	0.963950	-0.369369	0.573193
C22	C	0.963941	-0.282689	0.439055
C23	C	1.073663	-0.282678	0.439050
C24	C	1.073678	-0.419406	0.650622
C25	C	0.963954	-0.419414	0.650633
C26	C	1.518151	-0.501875	0.506069
C27	C	1.518196	-0.577107	0.506088
C28	C	1.585371	-0.612379	0.573340
C29	C	1.585409	-0.683067	0.573360
C30	C	1.518276	-0.718482	0.506121
C31	C	1.451094	-0.683205	0.438865
C32	C	1.451052	-0.612518	0.438851
C33	C	1.451263	-0.968278	0.438919
C34	C	1.451313	-1.038970	0.438935
C35	C	1.585620	-1.038828	0.573427
C36	C	1.585577	-0.968141	0.573414
C37	C	1.518392	-0.932870	0.506162
C38	C	1.518350	-0.856221	0.506143
C39	C	1.518323	-0.795129	0.506134
C40	C	1.792304	-0.326032	0.506122
C41	C	1.909081	-0.326037	0.506128
C42	C	1.518344	-0.325950	0.780140
C43	C	1.518376	-0.325921	0.896917
C44	C	1.518420	-0.149476	0.506168
C45	C	1.518483	-0.074244	0.506194
C46	C	1.518258	-0.326038	0.233139
C47	C	1.518430	-0.325876	0.116363
C48	C	1.585618	-0.282630	0.951799
C49	C	1.585643	-0.282605	1.061524
C50	C	1.451181	-0.369170	1.061473
C51	C	1.451151	-0.369190	0.951751
C52	C	1.663252	-0.232655	0.951829
C53	C	1.663277	-0.232630	1.061553
H54	H	1.107676	-0.469175	0.621333
C55	C	1.062629	-0.196993	0.306475
C56	C	1.133959	-0.235028	0.365334
H57	H	1.099856	-0.167577	0.260962
H58	H	1.019864	-0.171150	0.352330
H59	H	1.019805	-0.226461	0.266201
H60	H	1.176779	-0.205560	0.405614
H61	H	1.176743	-0.260873	0.319473
H62	H	1.744643	-0.246670	1.091331
H63	H	1.640042	-0.583549	0.628090
H64	H	1.740517	-0.251446	0.917792
H65	H	0.929962	-0.400703	0.727987
C66	C	1.598207	-0.121259	1.025822
C67	C	1.624017	-0.165393	1.107534
H68	H	1.573975	-0.079751	1.054213
H69	H	1.544681	-0.140851	0.983916
H70	H	1.658469	-0.113237	0.983932
H71	H	1.563753	-0.173420	1.149420
H72	H	1.677547	-0.145798	1.149459
H73	H	0.919258	-0.247404	0.384456
H74	H	1.103491	-0.405426	0.732030
C75	C	1.009027	-0.533057	0.603027
C76	C	0.923697	-0.490159	0.621012
H77	H	0.984171	-0.576728	0.584735
H78	H	1.050405	-0.535952	0.664754
H79	H	1.050364	-0.515587	0.547381
H80	H	0.882364	-0.507626	0.676664
H81	H	0.882302	-0.487266	0.559277
H82	H	1.640117	-0.711783	0.628116
C83	C	1.718334	-0.975102	0.706369
C84	C	1.659367	-0.929214	0.647329
H85	H	1.763882	-0.951069	0.752008
H86	H	1.758566	-1.002669	0.660637
H87	H	1.672542	-1.002681	0.746517
H88	H	1.705160	-0.901637	0.607174
H89	H	1.619133	-0.901635	0.693067
C90	C	1.318521	-1.032015	0.306002
C91	C	1.377507	-1.077900	0.365029
H92	H	1.272955	-1.056050	0.260384
H93	H	1.364292	-1.004439	0.265842
H94	H	1.278297	-1.004444	0.351752
H95	H	1.417737	-1.105468	0.319279
H96	H	1.331730	-1.105487	0.405192
H97	H	1.396447	-0.404396	1.106132
H98	H	1.396393	-0.404440	0.907070
H99	H	1.641500	-0.180237	0.922078
C100	C	1.645323	-1.147123	0.633189
C101	C	1.659463	-1.077600	0.647365
H102	H	1.690907	-1.171057	0.678838
H103	H	1.660745	-1.158732	0.562624
H104	H	1.574728	-1.158732	0.648511
H105	H	1.730056	-1.065991	0.632035
H106	H	1.644048	-1.065987	0.717946
C107	C	1.309883	-0.888888	0.424172
C108	C	1.377418	-0.929518	0.364988
H109	H	1.264289	-0.864962	0.378524
H110	H	1.349851	-0.857678	0.464201
H111	H	1.269696	-0.916472	0.469917
H112	H	1.417612	-0.901933	0.319248
H113	H	1.337446	-0.960732	0.324940
C114	C	1.391531	-0.791625	0.379156
C115	C	1.377304	-0.722131	0.364950
H116	H	1.345981	-0.815654	0.333514
H117	H	1.376119	-0.803183	0.449725
H118	H	1.462142	-0.803168	0.363843
H119	H	1.306695	-0.710587	0.380270
H120	H	1.392709	-0.710569	0.294364
H121	H	1.396350	-0.583800	0.384089
