data_functionalizedCrystal
_audit_creation_method	'MofGen! by Chris Wilmer'
_symmetry_space_group_name_H-M	'P1'
_symmetry_Int_Tables_number	1
_symmetry_cell_setting	triclinic
loop_
_symmetry_equiv_pos_as_xyz
  x,y,z
_cell_length_a	16.992694
_cell_length_b	17.038272
_cell_length_c	15.455313
_cell_angle_alpha	92.858370
_cell_angle_beta	87.142206
_cell_angle_gamma	90.889890
loop_
_atom_site_label
_atom_site_type_symbol
_atom_site_fract_x
_atom_site_fract_y
_atom_site_fract_z
O1	O	1.054714	0.163265	-0.072022
O2	O	1.388047	0.496598	0.261311
O3	O	1.721380	0.829932	0.594644
O4	O	0.826308	0.161438	-0.072048
O5	O	1.159641	0.494771	0.261285
O6	O	1.492974	0.828104	0.594619
O7	O	0.939153	0.048451	-0.072029
O8	O	1.272486	0.381784	0.261305
O9	O	1.605820	0.715118	0.594638
O10	O	0.941869	0.276252	-0.072042
O11	O	1.275202	0.609585	0.261291
O12	O	1.608535	0.942918	0.594625
O13	O	0.932698	0.054884	0.072232
O14	O	1.266031	0.388217	0.405566
O15	O	1.599365	0.721550	0.738899
O16	O	0.819853	0.167870	0.072213
O17	O	1.153186	0.501204	0.405546
O18	O	1.486519	0.834537	0.738880
O19	O	1.048259	0.169698	0.072239
O20	O	1.381592	0.503031	0.405572
O21	O	1.714925	0.836365	0.738905
Cu22	Cu	0.933466	0.169371	0.085398
Cu23	Cu	1.266800	0.502705	0.418731
Cu24	Cu	1.600133	0.836038	0.752065
Cu25	Cu	0.941100	0.161764	-0.085207
Cu26	Cu	1.274433	0.495097	0.248126
Cu27	Cu	1.607767	0.828431	0.581459
O28	O	0.935414	0.282684	0.072219
O29	O	1.268747	0.616018	0.405552
O30	O	1.602080	0.949351	0.738886
C31	C	0.793711	0.162304	0.000079
C32	C	1.127044	0.495638	0.333413
C33	C	1.460378	0.828971	0.666746
C34	C	0.706200	0.155293	0.000070
C35	C	1.039533	0.488627	0.333403
C36	C	1.372866	0.821960	0.666736
C37	C	0.933456	0.022384	0.000102
C38	C	1.266790	0.355718	0.333435
C39	C	1.600123	0.689051	0.666768
C40	C	0.926089	-0.064871	0.000101
C41	C	1.259422	0.268462	0.333434
C42	C	1.592756	0.601796	0.666767
C43	C	0.660471	0.222933	0.000066
C44	C	0.993805	0.556267	0.333400
C45	C	1.327138	0.889600	0.666733
C46	C	0.578245	0.216342	0.000079
C47	C	0.911578	0.549676	0.333412
C48	C	1.244911	0.883009	0.666745
C49	C	0.541748	0.142110	0.000088
C50	C	0.875081	0.475444	0.333422
C51	C	1.208415	0.808777	0.666755
C52	C	0.587482	0.074465	0.000094
C53	C	0.920816	0.407799	0.333427
C54	C	1.254149	0.741132	0.666761
C55	C	0.669707	0.081058	0.000088
C56	C	1.003041	0.414391	0.333421
C57	C	1.336374	0.747724	0.666755
C58	C	0.296326	0.114789	0.000113
C59	C	0.629660	0.448122	0.333446
C60	C	0.962993	0.781455	0.666780
C61	C	0.214095	0.108202	0.000117
C62	C	0.547429	0.441535	0.333450
C63	C	0.880762	0.774868	0.666783
C64	C	0.204863	0.250079	0.000103
C65	C	0.538197	0.583413	0.333436
C66	C	0.871530	0.916746	0.666769
C67	C	0.287091	0.256665	0.000091
C68	C	0.620424	0.589998	0.333425
C69	C	0.953757	0.923331	0.666758
C70	C	0.332818	0.189020	0.000102
C71	C	0.666151	0.522353	0.333435
C72	C	0.999484	0.855687	0.666769
N73	N	0.457699	0.135371	0.000098
N74	N	0.791032	0.468705	0.333431
N75	N	1.124366	0.802038	0.666765
N76	N	0.416865	0.195760	0.000098
N77	N	0.750198	0.529093	0.333432
N78	N	1.083531	0.862427	0.666765
C79	C	0.993729	-0.110741	0.000109
C80	C	1.327062	0.222593	0.333442
C81	C	1.660395	0.555926	0.666776
C82	C	0.986802	-0.192726	0.000100
C83	C	1.320135	0.140607	0.333433
C84	C	1.653469	0.473940	0.666767
C85	C	0.912235	-0.228840	0.000089
C86	C	1.245568	0.104493	0.333422
C87	C	1.578901	0.437826	0.666755
C88	C	0.844590	-0.182964	0.000078
C89	C	1.177924	0.150369	0.333411
C90	C	1.511257	0.483702	0.666744
C91	C	0.851518	-0.100981	0.000080
C92	C	1.184851	0.232353	0.333414
C93	C	1.518184	0.565686	0.666747
C94	C	0.887761	-0.476134	0.000074
C95	C	1.221094	-0.142801	0.333407
C96	C	1.554428	0.190532	0.666741
C97	C	0.880838	-0.558124	0.000074
C98	C	1.214172	-0.224791	0.333407
C99	C	1.547505	0.108543	0.666741
C100	C	1.023051	-0.567881	0.000095
C101	C	1.356384	-0.234547	0.333428
C102	C	1.689718	0.098786	0.666761
C103	C	1.029972	-0.485895	0.000103
C104	C	1.363305	-0.152561	0.333436
C105	C	1.696638	0.180772	0.666769
C106	C	0.962327	-0.440026	0.000087
C107	C	1.295661	-0.106693	0.333420
C108	C	1.628994	0.226641	0.666754
C109	C	0.905153	-0.312642	0.000082
C110	C	1.238486	0.020691	0.333416
C111	C	1.571819	0.354024	0.666749
C112	C	0.969410	-0.356226	0.000087
C113	C	1.302744	-0.022892	0.333421
C114	C	1.636077	0.310441	0.666754
C115	C	1.080856	0.168831	0.000109
C116	C	1.414189	0.502164	0.333443
C117	C	1.747522	0.835498	0.666776
C118	C	1.168367	0.175842	0.000113
C119	C	1.501700	0.509175	0.333447
C120	C	1.835034	0.842508	0.666780
C121	C	0.941110	0.308751	0.000087
C122	C	1.274444	0.642084	0.333420
C123	C	1.607777	0.975418	0.666754
C124	C	0.948478	0.396006	0.000082
C125	C	1.281811	0.729339	0.333416
C126	C	1.615145	1.062673	0.666749
N127	N	0.928103	0.174722	0.205393
N128	N	1.261436	0.508055	0.538726
N129	N	1.594770	0.841389	0.872059
N130	N	0.946469	0.156408	-0.205202
N131	N	1.279803	0.489741	0.128131
N132	N	1.613136	0.823074	0.461465
C133	C	0.976063	0.126741	0.250795
C134	C	1.309396	0.460075	0.584128
C135	C	1.642729	0.793408	0.917462
C136	C	0.972014	0.130795	0.341602
C137	C	1.305348	0.464129	0.674935
C138	C	1.638681	0.797462	1.008269
C139	C	0.920010	0.182835	0.387005
C140	C	1.253343	0.516168	0.720339
C141	C	1.586676	0.849501	1.053672
C142	C	0.872045	0.230817	0.341597
C143	C	1.205378	0.564150	0.674930
C144	C	1.538711	0.897484	1.008263
C145	C	0.876090	0.226759	0.250791
C146	C	1.209423	0.560092	0.584124
C147	C	1.542756	0.893425	0.917458
C148	C	0.902549	0.200332	0.658584
C149	C	1.235883	0.533665	0.991917
C150	C	1.569216	0.866998	1.325250
C151	C	0.898510	0.204388	0.749396
C152	C	1.231843	0.537722	1.082729
C153	C	1.565176	0.871055	1.416062
C154	C	0.998479	0.104365	0.749395
C155	C	1.331812	0.437698	1.082728
C156	C	1.665145	0.771032	1.416062
C157	C	1.002522	0.100314	0.658588
C158	C	1.335856	0.433648	0.991921
C159	C	1.669189	0.766981	1.325254
C160	C	0.954554	0.148294	0.613187
C161	C	1.287888	0.481627	0.946520
C162	C	1.621221	0.814961	1.279854
N163	N	0.915872	0.186981	0.479825
N164	N	1.249206	0.520315	0.813158
N165	N	1.582539	0.853648	1.146491
N166	N	0.958688	0.144143	0.520369
N167	N	1.292022	0.477476	0.853702
N168	N	1.625355	0.810809	1.187036
H169	H	0.690181	0.283381	0.000058
H170	H	1.023514	0.616714	0.333391
H171	H	1.356847	0.950048	0.666725
H172	H	0.706939	0.025978	0.000090
H173	H	1.040272	0.359311	0.333423
H174	H	1.373605	0.692644	0.666757
H175	H	0.167624	0.305152	0.000096
H176	H	0.500957	0.638485	0.333429
H177	H	0.834291	0.971818	0.666763
H178	H	0.333548	0.059707	0.000122
H179	H	0.666881	0.393041	0.333456
H180	H	1.000214	0.726374	0.666789
H181	H	1.030124	-0.326819	0.000077
H182	H	1.363457	0.006514	0.333411
H183	H	1.696790	0.339848	0.666744
Cl184	Cl	0.811414	-0.358050	0.000064
Cl185	Cl	1.144747	-0.024717	0.333397
Cl186	Cl	1.478081	0.308617	0.666730
H187	H	0.837035	0.265828	0.213825
H188	H	1.170368	0.599162	0.547158
H189	H	1.503701	0.932495	0.880492
H190	H	0.184383	0.047750	0.000123
H191	H	0.517716	0.381083	0.333457
H192	H	0.851050	0.714417	0.666790
Cl193	Cl	0.520761	0.301380	0.000069
Cl194	Cl	0.854094	0.634713	0.333403
Cl195	Cl	1.187428	0.968046	0.666736
Cl196	Cl	1.041448	0.061321	0.193726
Cl197	Cl	1.374781	0.394654	0.527060
Cl198	Cl	1.708114	0.727987	0.860393
Cl199	Cl	1.032307	0.070475	0.398681
Cl200	Cl	1.365640	0.403808	0.732014
Cl201	Cl	1.698973	0.737142	1.065348
H202	H	0.316801	0.317112	0.000074
H203	H	0.650134	0.650445	0.333407
H204	H	0.983467	0.983778	0.666740
Cl205	Cl	1.067901	0.034894	0.601509
Cl206	Cl	1.401234	0.368227	0.934843
Cl207	Cl	1.734568	0.701561	1.268176
H208	H	0.832680	-0.438798	0.000062
H209	H	1.166013	-0.105464	0.333395
H210	H	1.499346	0.227869	0.666728
Cl211	Cl	1.058774	0.044048	0.806474
Cl212	Cl	1.392108	0.377382	1.139807
Cl213	Cl	1.725441	0.710715	1.473141
Cl214	Cl	0.833127	0.269817	0.806468
Cl215	Cl	1.166461	0.603150	1.139801
Cl216	Cl	1.499794	0.936484	1.473135
H217	H	0.557760	0.014025	0.000114
H218	H	0.891093	0.347358	0.333448
H219	H	1.224426	0.680691	0.666781
Cl220	Cl	1.123718	-0.440502	0.000089
Cl221	Cl	1.457052	-0.107168	0.333422
Cl222	Cl	1.790385	0.226165	0.666755
Cl223	Cl	0.842252	0.260651	0.601514
Cl224	Cl	1.175585	0.593984	0.934848
Cl225	Cl	1.508918	0.927317	1.268181
H226	H	1.054449	-0.081343	0.000124
H227	H	1.387782	0.251990	0.333457
H228	H	1.721116	0.585324	0.666790
Cl229	Cl	0.766481	-0.043315	0.000067
Cl230	Cl	1.099815	0.290018	0.333400
Cl231	Cl	1.433148	0.623351	0.666733
Cl232	Cl	1.071839	-0.250388	0.000113
Cl233	Cl	1.405172	0.082945	0.333447
Cl234	Cl	1.738506	0.416278	0.666780
Cl235	Cl	1.108084	-0.625548	0.000112
Cl236	Cl	1.441417	-0.292215	0.333445
Cl237	Cl	1.774751	0.041119	0.666778
Cl238	Cl	0.787089	-0.603523	0.000065
Cl239	Cl	1.120423	-0.270189	0.333398
Cl240	Cl	1.453756	0.063144	0.666732
Cl241	Cl	0.750848	-0.228365	0.000053
Cl242	Cl	1.084182	0.104968	0.333386
Cl243	Cl	1.417515	0.438301	0.666719
H244	H	0.829697	0.273186	0.378569
H245	H	1.163031	0.606519	0.711902
H246	H	1.496364	0.939852	1.045236
