data_functionalizedCrystal
_audit_creation_method	'MofGen! by Chris Wilmer'
_symmetry_space_group_name_H-M	'P1'
_symmetry_Int_Tables_number	1
_symmetry_cell_setting	triclinic
loop_
_symmetry_equiv_pos_as_xyz
  x,y,z
_cell_length_a	16.109301
_cell_length_b	16.109304
_cell_length_c	9.130313
_cell_angle_alpha	89.998292
_cell_angle_beta	89.999196
_cell_angle_gamma	83.462059
loop_
_atom_site_label
_atom_site_type_symbol
_atom_site_fract_x
_atom_site_fract_y
_atom_site_fract_z
O1	O	1.103132	0.106867	-0.121697
O2	O	1.603132	0.606867	0.378303
O3	O	0.861070	0.120166	-0.121720
O4	O	1.361070	0.620166	0.378280
O5	O	0.988749	-0.007514	-0.121709
O6	O	1.488749	0.492486	0.378291
O7	O	0.975452	0.234547	-0.121708
O8	O	1.475452	0.734547	0.378292
O9	O	0.988741	-0.007518	0.121890
O10	O	1.488741	0.492482	0.621890
O11	O	0.861061	0.120162	0.121879
O12	O	1.361061	0.620162	0.621879
O13	O	1.103123	0.106863	0.121901
O14	O	1.603123	0.606863	0.621901
Cu15	Cu	0.982091	0.113513	0.144133
Cu16	Cu	1.482091	0.613513	0.644133
Cu17	Cu	0.982102	0.113517	-0.143951
Cu18	Cu	1.482102	0.613517	0.356049
O19	O	0.975444	0.234544	0.121891
O20	O	1.475444	0.734544	0.621891
C21	C	0.830091	0.119626	0.000077
C22	C	1.330091	0.619626	0.500077
C23	C	0.737795	0.118010	0.000068
C24	C	1.237795	0.618010	0.500068
C25	C	0.515524	0.190018	0.000085
C26	C	1.015524	0.690018	0.500085
C27	C	0.428803	0.188494	0.000095
C28	C	0.928803	0.688494	0.500095
C29	C	0.448676	0.037005	0.000088
C30	C	0.948676	0.537005	0.500088
C31	C	0.535395	0.038530	0.000089
C32	C	1.035395	0.538530	0.500089
C33	C	0.568816	0.115039	0.000080
C34	C	1.068816	0.615039	0.500080
C35	C	0.395377	0.111990	0.000089
C36	C	0.895377	0.611990	0.500089
C37	C	0.301351	0.110337	0.000099
C38	C	0.801351	0.610337	0.500099
C39	C	0.662848	0.116693	0.000073
C40	C	1.162848	0.616693	0.500073
C41	C	0.988206	-0.038491	0.000087
C42	C	1.488206	0.461509	0.500087
C43	C	0.986590	-0.130786	0.000077
C44	C	1.486590	0.369214	0.500077
C45	C	0.982861	-0.343122	-0.132703
C46	C	1.482861	0.156878	0.367297
C47	C	0.981335	-0.429842	-0.132702
C48	C	1.481335	0.070158	0.367298
C49	C	0.981330	-0.429843	0.132883
C50	C	1.481330	0.070157	0.632883
C51	C	0.982850	-0.343123	0.132880
C52	C	1.482850	0.156877	0.632880
C53	C	0.983620	-0.299766	0.000082
C54	C	1.483620	0.200234	0.500082
C55	C	0.980573	-0.473205	0.000086
C56	C	1.480573	0.026795	0.500086
C57	C	0.978919	-0.567231	0.000089
C58	C	1.478919	-0.067231	0.500089
C59	C	0.985273	-0.205734	0.000080
C60	C	1.485273	0.294266	0.500080
C61	C	1.134102	0.107404	0.000102
C62	C	1.634102	0.607404	0.500102
C63	C	1.226398	0.109019	0.000101
C64	C	1.726398	0.609019	0.500101
C65	C	0.975987	0.265520	0.000091
C66	C	1.475987	0.765520	0.500091
C67	C	0.977603	0.357816	0.000092
C68	C	1.477603	0.857816	0.500092
N69	N	0.982090	0.113509	0.346755
N70	N	1.482090	0.613509	0.846755
N71	N	0.982109	0.113514	-0.346574
N72	N	1.482109	0.613514	0.153426
C73	C	1.038646	0.056996	0.423412
C74	C	1.538646	0.556996	0.923412
C75	C	1.038653	0.056996	0.576749
C76	C	1.538653	0.556996	1.076749
C77	C	0.925548	0.170030	0.576759
C78	C	1.425548	0.670030	1.076759
C79	C	0.925537	0.170025	0.423425
C80	C	1.425537	0.670025	0.923425
H81	H	0.421454	-0.025285	0.000104
H82	H	0.921454	0.474715	0.500104
H83	H	0.542732	0.252316	0.000089
H84	H	1.042732	0.752316	0.500089
H85	H	0.983486	-0.307822	-0.240836
H86	H	1.483486	0.192178	0.259164
H87	H	0.578788	-0.022530	0.000089
H88	H	1.078788	0.477470	0.500089
O89	O	0.377071	0.261351	-0.000167
O90	O	0.877071	0.761351	0.499833
C91	C	0.333592	0.390386	-0.126326
C92	C	0.833592	0.890386	0.373674
C93	C	0.392212	0.307894	-0.126231
C94	C	0.892212	0.807894	0.373769
H95	H	0.345825	0.428047	-0.228222
H96	H	0.845825	0.928047	0.271778
H97	H	0.265853	0.376209	-0.126414
H98	H	0.765853	0.876209	0.373586
H99	H	0.345740	0.428001	-0.024336
H100	H	0.845740	0.928001	0.475664
H101	H	0.380138	0.270239	-0.228204
H102	H	0.880138	0.770239	0.271796
H103	H	0.459932	0.322130	-0.126067
H104	H	0.959932	0.822130	0.373933
H105	H	0.879479	0.216045	0.361007
H106	H	1.379479	0.716045	0.861007
O107	O	0.870504	0.224846	0.651177
O108	O	1.370504	0.724846	1.151177
C109	C	0.725934	0.273545	0.698065
C110	C	1.225934	0.773545	1.198065
C111	C	0.788179	0.211405	0.613724
C112	C	1.288179	0.711405	1.113724
H113	H	0.659361	0.262711	0.667792
H114	H	1.159361	0.762711	1.167792
H115	H	0.735586	0.263842	0.820841
H116	H	1.235586	0.763842	1.320841
H117	H	0.736783	0.340134	0.667921
H118	H	1.236783	0.840134	1.167921
H119	H	0.777368	0.144791	0.643745
H120	H	1.277368	0.644791	1.143745
H121	H	0.778512	0.221181	0.490968
H122	H	1.278512	0.721181	0.990968
H123	H	0.980715	-0.465138	-0.240830
H124	H	1.480715	0.034862	0.259170
H125	H	0.983463	-0.307821	0.241017
H126	H	1.483463	0.192179	0.741017
H127	H	0.980704	-0.465155	0.241001
H128	H	1.480704	0.034845	0.741001
H129	H	1.084705	0.010977	0.639159
H130	H	1.584705	0.510977	1.139159
H131	H	1.084694	0.010976	0.360991
H132	H	1.584694	0.510976	0.860991
