data_functionalizedCrystal
_audit_creation_method	'MofGen! by Chris Wilmer'
_symmetry_space_group_name_H-M	'P1'
_symmetry_Int_Tables_number	1
_symmetry_cell_setting	triclinic
loop_
_symmetry_equiv_pos_as_xyz
  x,y,z
_cell_length_a	10.540539
_cell_length_b	14.519709
_cell_length_c	12.996460
_cell_angle_alpha	90.007090
_cell_angle_beta	89.998010
_cell_angle_gamma	95.897182
loop_
_atom_site_label
_atom_site_type_symbol
_atom_site_fract_x
_atom_site_fract_y
_atom_site_fract_z
O1	O	1.684562	-0.129969	-0.085485
O2	O	2.017896	0.203364	0.247849
O3	O	2.351229	0.536697	0.581182
O4	O	1.315024	-0.142215	-0.085505
O5	O	1.648358	0.191118	0.247828
O6	O	1.981691	0.524452	0.581161
O7	O	1.509591	-0.001906	-0.085485
O8	O	1.842924	0.331427	0.247848
O9	O	2.176258	0.664760	0.581181
O10	O	1.489995	-0.270278	-0.085505
O11	O	1.823329	0.063056	0.247828
O12	O	2.156662	0.396389	0.581162
O13	O	1.509571	-0.001899	0.085649
O14	O	1.842904	0.331435	0.418982
O15	O	2.176237	0.664768	0.752315
O16	O	1.315004	-0.142207	0.085628
O17	O	1.648337	0.191126	0.418962
O18	O	1.981671	0.524460	0.752295
O19	O	1.684542	-0.129961	0.085649
O20	O	2.017875	0.203372	0.418983
O21	O	2.351209	0.536705	0.752316
Cu22	Cu	1.499771	-0.136083	0.101265
Cu23	Cu	1.833104	0.197250	0.434598
Cu24	Cu	2.166438	0.530583	0.767931
Cu25	Cu	1.499795	-0.136093	-0.101121
Cu26	Cu	1.833128	0.197240	0.232212
Cu27	Cu	2.166462	0.530574	0.565546
O28	O	1.489975	-0.270270	0.085629
O29	O	1.823308	0.063063	0.418962
O30	O	2.156642	0.396397	0.752296
C31	C	1.267720	-0.141293	0.000059
C32	C	1.601054	0.192041	0.333392
C33	C	1.934387	0.525374	0.666726
C34	C	1.126800	-0.138545	0.000051
C35	C	1.460134	0.194788	0.333385
C36	C	1.793467	0.528122	0.666718
C37	C	1.731846	-0.130884	0.000083
C38	C	2.065179	0.202450	0.333416
C39	C	2.398512	0.535783	0.666749
C40	C	1.872766	-0.133631	0.000084
C41	C	2.206099	0.199702	0.333417
C42	C	2.539432	0.533035	0.666750
C43	C	1.508668	0.032462	0.000082
C44	C	1.842001	0.365796	0.333415
C45	C	2.175334	0.699129	0.666748
C46	C	1.505931	0.134858	0.000082
C47	C	1.839264	0.468192	0.333416
C48	C	2.172598	0.801525	0.666749
C49	C	2.055118	-0.238911	0.000437
C50	C	2.388451	0.094423	0.333770
C51	C	2.721785	0.427756	0.667103
C52	C	1.908528	-0.236126	0.000068
C53	C	2.241861	0.097208	0.333401
C54	C	2.575195	0.430541	0.666735
C55	C	1.934913	-0.084310	-0.097644
C56	C	2.268246	0.249023	0.235689
C57	C	2.601579	0.582356	0.569022
C58	C	2.081422	-0.087808	-0.097744
C59	C	2.414755	0.245525	0.235590
C60	C	2.748088	0.578858	0.568923
C61	C	2.081989	-0.085716	0.096868
C62	C	2.415323	0.247618	0.430201
C63	C	2.748656	0.580951	0.763534
C64	C	1.935017	-0.084772	0.098176
C65	C	2.268351	0.248562	0.431510
C66	C	2.601684	0.581895	0.764843
C67	C	1.490899	-0.304639	0.000060
C68	C	1.824232	0.028695	0.333393
C69	C	2.157565	0.362028	0.666726
C70	C	1.493635	-0.407035	0.000052
C71	C	1.826968	-0.073701	0.333386
C72	C	2.160302	0.259632	0.666719
N73	N	1.499763	-0.136076	0.243612
N74	N	1.833097	0.197257	0.576945
N75	N	2.166430	0.530590	0.910278
C76	C	1.495856	0.509808	0.000055
C77	C	1.829190	0.843142	0.333388
C78	C	2.162523	1.176475	0.666722
C79	C	1.498654	0.405485	0.000063
C80	C	1.831987	0.738819	0.333396
C81	C	2.165321	1.072152	0.666730
C82	C	1.500893	0.322337	0.000070
C83	C	1.834227	0.655670	0.333403
C84	C	2.167560	0.989003	0.666736
C85	C	1.503692	0.218007	0.000076
C86	C	1.837025	0.551340	0.333409
C87	C	2.170358	0.884674	0.666742
N88	N	1.499813	-0.136093	-0.243468
N89	N	1.833146	0.197241	0.089865
N90	N	2.166479	0.530574	0.423199
C91	C	1.499793	-0.136094	0.663426
C92	C	1.833127	0.197240	0.996759
C93	C	2.166460	0.530573	1.330093
C94	C	1.499781	-0.136092	0.546621
C95	C	1.833115	0.197241	0.879954
C96	C	2.166448	0.530575	1.213288
C97	C	1.499779	-0.136086	0.453523
C98	C	1.833112	0.197248	0.786856
C99	C	2.166446	0.530581	1.120189
C100	C	1.499766	-0.136083	0.336710
C101	C	1.833099	0.197251	0.670043
C102	C	2.166432	0.530584	1.003377
H103	H	1.865538	-0.274938	0.070120
H104	H	2.198871	0.058395	0.403453
H105	H	2.532205	0.391728	0.736786
H106	H	1.893724	-0.120812	0.170474
H107	H	2.227058	0.212521	0.503807
H108	H	2.560391	0.545855	0.837141
Cl109	Cl	1.868594	-0.137214	-0.209927
Cl110	Cl	2.201927	0.196119	0.123407
Cl111	Cl	2.535261	0.529453	0.456740
Cl112	Cl	2.130200	-0.136925	0.211216
Cl113	Cl	2.463533	0.196409	0.544550
Cl114	Cl	2.796866	0.529742	0.877883
H115	H	2.083317	-0.279396	0.070509
H116	H	2.416650	0.053937	0.403842
H117	H	2.749984	0.387271	0.737176
H118	H	2.084902	-0.279236	-0.069260
H119	H	2.418236	0.054097	0.264074
H120	H	2.751569	0.387431	0.597407
H121	H	2.129967	-0.011683	0.097524
H122	H	2.463300	0.321650	0.430858
H123	H	2.796633	0.654983	0.764191
Cl124	Cl	1.843420	-0.296464	-0.108274
Cl125	Cl	2.176753	0.036869	0.225059
Cl126	Cl	2.510087	0.370202	0.558393
Cl127	Cl	2.124374	-0.144098	-0.210537
Cl128	Cl	2.457707	0.189235	0.122796
Cl129	Cl	2.791040	0.522569	0.456129
Cl130	Cl	2.156648	0.025993	-0.104606
Cl131	Cl	2.489981	0.359327	0.228727
Cl132	Cl	2.823314	0.692660	0.562061
Cl133	Cl	1.901588	0.031899	-0.103246
Cl134	Cl	2.234921	0.365233	0.230087
Cl135	Cl	2.568254	0.698566	0.563421
Cl136	Cl	1.898800	0.030602	0.107309
Cl137	Cl	2.232133	0.363935	0.440642
Cl138	Cl	2.565466	0.697268	0.773976
