data_functionalizedCrystal
_audit_creation_method	'MofGen! by Chris Wilmer'
_symmetry_space_group_name_H-M	'P1'
_symmetry_Int_Tables_number	1
_symmetry_cell_setting	triclinic
loop_
_symmetry_equiv_pos_as_xyz
  x,y,z
_cell_length_a	9.065215
_cell_length_b	17.019294
_cell_length_c	7.540329
_cell_angle_alpha	86.117441
_cell_angle_beta	89.997574
_cell_angle_gamma	84.202625
loop_
_atom_site_label
_atom_site_type_symbol
_atom_site_fract_x
_atom_site_fract_y
_atom_site_fract_z
O1	O	1.957267	0.115652	-0.165121
O2	O	1.527724	0.125141	-0.166578
O3	O	1.754478	0.005649	-0.148317
O4	O	1.730512	0.235143	-0.183382
O5	O	1.754465	0.005648	0.146648
O6	O	1.527711	0.125140	0.128387
O7	O	1.957253	0.115650	0.129844
Cu8	Cu	1.742481	0.120395	0.156048
Cu9	Cu	1.742496	0.120396	-0.192782
O10	O	1.730499	0.235142	0.111583
C11	C	1.472755	0.124229	-0.018957
C12	C	1.308986	0.121504	-0.018544
C13	C	1.753563	-0.023747	0.003653
C14	C	1.750837	-0.111337	0.017025
C15	C	1.749567	-0.152482	-0.137477
C16	C	1.746996	-0.234781	-0.124907
C17	C	1.745706	-0.275935	0.042166
C18	C	1.746972	-0.234784	0.196680
C19	C	1.749532	-0.152486	0.184109
C20	C	1.737966	-0.524423	0.088168
C21	C	1.735410	-0.606727	0.100728
C22	C	1.735432	-0.606718	-0.220861
C23	C	1.738001	-0.524419	-0.233418
C24	C	1.739259	-0.483275	-0.078904
C25	C	1.743083	-0.360058	0.055019
C26	C	1.741871	-0.399152	-0.091758
C27	C	2.012222	0.116562	-0.017780
C28	C	2.175991	0.119288	-0.018205
C29	C	1.731414	0.264538	-0.040391
C30	C	1.734140	0.352128	-0.053775
N31	N	1.742480	0.120393	0.401397
N32	N	1.742509	0.120392	-0.438130
H33	H	1.750625	-0.118980	-0.273527
C34	C	1.741663	-0.405336	0.238796
N35	N	1.740589	-0.439441	0.377217
H36	H	1.734405	-0.640226	-0.346657
C37	C	1.733986	-0.651995	0.284530
N38	N	1.732914	-0.686090	0.422963
H39	H	1.745968	-0.268278	-0.250720
C40	C	1.745542	-0.280056	0.380464
N41	N	1.744468	-0.314154	0.518893
H42	H	1.739019	-0.490935	0.213985
H43	H	1.739054	-0.490917	-0.369467
C44	C	1.750933	-0.107228	0.354074
N45	N	1.751985	-0.073140	0.482098
H46	H	1.742912	-0.365640	-0.227789
