data_functionalizedCrystal
_audit_creation_method	'MofGen! by Chris Wilmer'
_symmetry_space_group_name_H-M	'P1'
_symmetry_Int_Tables_number	1
_symmetry_cell_setting	triclinic
loop_
_symmetry_equiv_pos_as_xyz
  x,y,z
_cell_length_a	23.096457
_cell_length_b	14.560438
_cell_length_c	14.560438
_cell_angle_alpha	59.999931
_cell_angle_beta	89.996893
_cell_angle_gamma	59.995863
loop_
_atom_site_label
_atom_site_type_symbol
_atom_site_fract_x
_atom_site_fract_y
_atom_site_fract_z
Zr1	Zr	0.557748	1.005288	-0.120545
O2	O	0.465294	1.196899	-0.267190
O3	O	0.586094	0.813680	-0.075591
O4	O	0.586091	1.005287	-0.267194
O5	O	0.465296	1.005291	0.075553
O6	O	0.681374	1.005284	-0.267197
O7	O	0.465298	1.005291	-0.075587
O8	O	0.681379	0.662533	0.075546
O9	O	0.465290	1.348042	-0.267190
O10	O	0.669287	0.892487	-0.056421
O11	O	0.598178	0.892490	0.056376
O12	O	0.598174	1.118083	-0.169212
O13	O	0.527064	1.118085	-0.056416
Zr14	Zr	0.709710	1.005282	0.120500
Zr15	Zr	0.709713	1.005282	-0.120550
Zr16	Zr	0.557745	1.005288	0.120505
Zr17	Zr	0.557741	1.246344	-0.120545
Zr18	Zr	0.709717	0.764226	0.120500
O19	O	0.681364	1.196890	0.075545
O20	O	0.681368	1.196891	-0.267197
O21	O	0.465290	1.196898	0.075553
O22	O	0.802164	0.813671	0.267145
O23	O	0.802168	0.813672	-0.075598
O24	O	0.586090	0.813679	0.267152
O25	O	0.802163	1.005279	-0.075598
O26	O	0.681367	1.005283	0.267149
O27	O	0.586085	1.005286	0.267152
O28	O	0.802161	1.005278	0.075542
O29	O	0.586081	1.348038	-0.267194
O30	O	0.681377	0.662532	0.267149
O31	O	0.802168	0.662528	0.267145
O32	O	0.802171	0.662528	0.075542
O33	O	0.465288	1.348042	-0.075587
O34	O	0.586079	1.348037	-0.075591
O35	O	0.669284	0.892487	0.169167
O36	O	0.740394	0.892484	0.056371
O37	O	0.669281	1.118080	-0.056421
O38	O	0.598171	1.118083	0.056375
C39	C	0.633738	0.703761	-0.000022
C40	C	0.633741	0.601426	-0.000022
C41	C	0.686216	0.373931	0.083243
C42	C	0.686230	0.470073	0.083242
C43	C	0.581239	0.636639	-0.083297
C44	C	0.581229	0.540498	-0.083299
C45	C	0.738705	0.242577	0.166519
C46	C	0.791207	0.207357	0.249793
C47	C	0.791221	0.303499	0.249792
C48	C	0.738731	0.434860	0.166517
C49	C	0.443645	1.005292	-0.000016
C50	C	0.379132	1.005295	-0.000014
C51	C	0.348830	1.005304	-0.083283
C52	C	0.288218	1.005292	-0.083283
C53	C	0.257902	1.005297	-0.000022
C54	C	0.288213	1.005280	0.083262
C55	C	0.348828	1.005279	0.083266
N56	N	0.139547	1.078832	0.025185
N57	N	0.081964	1.078835	0.025174
C58	C	0.075272	1.005298	-0.000028
N59	N	0.128333	0.931772	-0.025240
N60	N	0.185920	0.931774	-0.025235
C61	C	0.192175	1.005297	-0.000017
C62	C	-0.020752	1.005293	-0.083302
C63	C	-0.081362	1.005273	-0.083294
C64	C	-0.081370	1.005274	0.083247
C65	C	-0.020757	1.005280	0.083244
C66	C	0.009547	1.005296	-0.000037
C67	C	0.823813	1.005278	-0.000029
C68	C	0.888326	1.005275	-0.000031
C69	C	0.633733	1.005286	-0.301540
C70	C	0.633734	1.005286	-0.403872
C71	C	0.633720	1.306809	-0.000023
C72	C	0.633717	1.409143	-0.000023
C73	C	0.686223	1.005289	-0.451958
C74	C	0.686219	1.005284	-0.548107
C75	C	0.581233	1.005277	-0.548079
C76	C	0.581239	1.005273	-0.451927
C77	C	0.738717	1.005302	-0.403903
C78	C	0.791210	1.005307	-0.451990
C79	C	0.791206	1.005302	-0.548139
C80	C	0.738711	1.005291	-0.596201
C81	C	0.633725	1.005284	0.301495
C82	C	0.633724	1.005284	0.403827
C83	C	0.823822	0.703754	-0.000029
C84	C	0.888338	0.601417	-0.000031
C85	C	0.633734	0.703760	0.301495
C86	C	0.633736	0.601426	0.403827
C87	C	0.823818	0.703753	0.301489
C88	C	0.888333	0.601416	0.403819
C89	C	0.443640	1.306817	-0.301534
C90	C	0.379126	1.409154	-0.403864
C91	C	0.443636	1.306816	-0.000016
C92	C	0.379120	1.409153	-0.000014
C93	C	0.633724	1.306810	-0.301540
C94	C	0.633723	1.409144	-0.403872
C95	C	0.881518	0.553360	-0.058918
C96	C	0.942132	0.457217	-0.058942
C97	C	1.009564	0.409126	-0.000072
C98	C	1.016383	0.457192	0.058817
C99	C	0.955770	0.553340	0.058834
C100	C	0.955754	0.553356	0.392996
C101	C	1.016378	0.457213	0.489136
C102	C	1.009579	0.409125	0.596099
C103	C	0.942150	0.457194	0.606920
C104	C	0.881528	0.553342	0.510781
C105	C	0.311704	1.457225	-0.393041
C106	C	0.251080	1.553399	-0.489182
C107	C	0.257879	1.601492	-0.596144
C108	C	0.325308	1.553416	-0.606965
C109	C	0.385930	1.457251	-0.510826
C110	C	0.385940	1.457220	0.058863
C111	C	0.325326	1.553390	0.058860
C112	C	0.257894	1.601484	-0.000013
C113	C	0.251076	1.553413	-0.058897
C114	C	0.311688	1.457252	-0.058901
C115	C	0.670854	0.553342	0.510779
C116	C	0.670850	0.457193	0.606928
C117	C	0.596608	0.457215	0.489158
C118	C	0.596608	0.553369	0.393012
C119	C	0.707982	0.601399	0.521594
C120	C	0.745105	0.553314	0.628551
C121	C	0.745100	0.457165	0.724699
C122	C	0.707974	0.409100	0.713891
H123	H	0.738750	0.513139	0.166517
H124	H	0.833975	0.274817	0.317591
Cl125	Cl	0.933615	0.396724	0.741397
Cl126	Cl	0.333843	1.613885	-0.741442
H127	H	1.058913	0.330835	-0.000094
H128	H	0.961332	0.592456	0.106793
Cl129	Cl	0.181660	1.722384	-0.716997
Cl130	Cl	0.738688	0.121707	0.166531
Cl131	Cl	1.101161	0.396715	0.132825
Cl132	Cl	0.303103	1.396827	-0.132917
H133	H	0.833945	0.100400	0.317589
Cl134	Cl	0.857199	1.005293	-0.608582
Cl135	Cl	0.964320	0.613798	0.258539
H136	H	0.707991	0.679686	0.443312
H137	H	1.071276	0.418085	0.480306
Cl138	Cl	0.515255	0.801771	-0.187974
Cl139	Cl	1.085798	0.288249	0.716952
H140	H	0.738717	1.005274	-0.674486
Cl141	Cl	0.250105	1.005278	0.187938
H142	H	0.826633	0.592460	0.519609
Cl143	Cl	0.333914	1.613796	0.132898
H144	H	0.196164	1.592586	-0.106830
Cl145	Cl	0.470705	1.396785	0.132878
H146	H	0.538481	0.569174	-0.151104
H147	H	0.003914	1.005280	0.151046
H148	H	0.196183	1.592525	-0.480349
H149	H	0.833953	1.005305	-0.412847
H150	H	0.306154	1.418073	-0.305955
Cl151	Cl	0.933544	0.396805	-0.132974
Cl152	Cl	0.738722	1.005316	-0.283034
H153	H	0.373503	1.005312	-0.151093
H154	H	0.538499	1.005268	-0.412774
H155	H	0.440826	1.418112	-0.519652
H156	H	0.263542	1.005300	-0.151093
H157	H	0.538492	1.005270	-0.587218
Cl158	Cl	0.386924	1.005269	0.187955
H159	H	0.208545	1.679785	-0.000000
Cl160	Cl	0.791767	0.613749	0.642137
H161	H	0.775322	0.418026	0.811784
Cl162	Cl	0.707964	0.288236	0.834766
Cl163	Cl	0.549940	0.396786	0.475576
Cl164	Cl	0.017349	1.005302	-0.187991
H165	H	-0.106051	1.005270	0.151044
Cl166	Cl	-0.119455	1.005274	-0.187979
Cl167	Cl	0.796753	0.613802	-0.132940
H168	H	0.566384	0.592518	0.305926
