data_functionalizedCrystal
_audit_creation_method	'MofGen! by Chris Wilmer'
_symmetry_space_group_name_H-M	'P1'
_symmetry_Int_Tables_number	1
_symmetry_cell_setting	triclinic
loop_
_symmetry_equiv_pos_as_xyz
  x,y,z
_cell_length_a	23.096457
_cell_length_b	14.446369
_cell_length_c	14.446369
_cell_angle_alpha	119.997408
_cell_angle_beta	90.000015
_cell_angle_gamma	60.000829
loop_
_atom_site_label
_atom_site_type_symbol
_atom_site_fract_x
_atom_site_fract_y
_atom_site_fract_z
Zr1	Zr	0.557773	1.013242	0.121548
O2	O	0.465329	1.206340	0.269348
O3	O	0.586111	0.820129	0.076234
O4	O	0.586116	1.013224	0.269346
O5	O	0.465320	1.013264	-0.076088
O6	O	0.681397	1.013227	0.269352
O7	O	0.465323	1.013245	0.076235
O8	O	0.681388	0.667815	-0.076091
O9	O	0.465329	1.358676	0.269355
O10	O	0.669305	0.899566	0.056919
O11	O	0.598196	0.899578	-0.056762
O12	O	0.598202	1.126923	0.170603
O13	O	0.527093	1.126935	0.056921
Zr14	Zr	0.709729	1.013276	-0.121381
Zr15	Zr	0.709734	1.013246	0.121557
Zr16	Zr	0.557768	1.013272	-0.121390
Zr17	Zr	0.557774	1.256200	0.121560
Zr18	Zr	0.709728	0.770318	-0.121392
O19	O	0.681391	1.206389	-0.076067
O20	O	0.681398	1.206346	0.269361
O21	O	0.465321	1.206383	-0.076079
O22	O	0.802173	0.820177	-0.269181
O23	O	0.802181	0.820135	0.076246
O24	O	0.586104	0.820172	-0.269193
O25	O	0.802182	1.013254	0.076255
O26	O	0.681385	1.013293	-0.269179
O27	O	0.586105	1.013291	-0.269185
O28	O	0.802178	1.013273	-0.076068
O29	O	0.586118	1.358679	0.269362
O30	O	0.681383	0.667838	-0.269195
O31	O	0.802172	0.667842	-0.269188
O32	O	0.802176	0.667818	-0.076084
O33	O	0.465325	1.358700	0.076251
O34	O	0.586114	1.358703	0.076258
O35	O	0.669300	0.899594	-0.170436
O36	O	0.740409	0.899582	-0.056754
O37	O	0.669306	1.126939	0.056930
O38	O	0.598197	1.126951	-0.056752
C39	C	0.633749	0.709355	0.000070
C40	C	0.633749	0.606213	0.000065
C41	C	0.443671	1.013254	0.000072
C42	C	0.379159	1.013252	0.000069
C43	C	0.589115	0.459211	-0.071962
C44	C	0.588872	0.566831	-0.071671
C45	C	0.601036	0.655193	0.123594
C46	C	0.600700	0.547961	0.123220
C47	C	0.711127	0.372764	-0.050374
C48	C	0.711013	0.478915	-0.052894
C49	C	0.385968	0.894578	-0.059262
C50	C	0.325353	0.894576	-0.059267
C51	C	0.257929	1.013255	0.000081
C52	C	0.251122	1.131945	0.059414
C53	C	0.311737	1.131944	0.059408
N54	N	0.135135	1.101588	0.096662
N55	N	0.077556	1.101581	0.096666
C56	C	0.075296	1.013267	0.000101
N57	N	0.132797	0.924939	-0.096466
N58	N	0.190383	0.924942	-0.096468
C59	C	0.192197	1.013270	0.000094
C60	C	0.016381	0.894582	-0.059240
C61	C	-0.044237	0.894585	-0.059249
C62	C	-0.118468	1.131958	0.059444
C63	C	-0.057850	1.131951	0.059441
C64	C	0.009572	1.013260	0.000101
C65	C	0.823831	1.013264	0.000095
C66	C	0.888343	1.013266	0.000098
C67	C	0.633757	1.013221	0.303963
C68	C	0.633760	1.013208	0.407096
C69	C	0.633753	1.317162	0.000098
C70	C	0.633753	1.420304	0.000102
C71	C	0.678830	0.869819	0.482072
C72	C	0.678633	0.869730	0.374747
C73	C	0.556499	1.084429	0.481652
C74	C	0.556748	1.083511	0.588507
C75	C	0.665332	1.086467	0.590087
C76	C	0.666893	1.083772	0.481420
C77	C	0.633750	1.013279	0.696196
C78	C	0.633763	1.013240	0.593037
C79	C	0.823830	0.709361	0.000081
C80	C	0.888340	0.606220	0.000080
C81	C	0.633743	0.709393	-0.303809
C82	C	0.633740	0.606264	-0.406948
C83	C	0.823823	0.709398	-0.303798
C84	C	0.888332	0.606271	-0.406933
C85	C	0.443679	1.317119	0.303965
C86	C	0.379170	1.420247	0.407100
C87	C	0.443672	1.317157	0.000086
C88	C	0.379161	1.420297	0.000087
C89	C	0.633759	1.317125	0.303976
C90	C	0.633762	1.420254	0.407115
C91	C	0.881520	0.557776	0.059426
C92	C	0.942129	0.460878	0.059448
C93	C	1.009558	0.412420	0.000116
C94	C	1.016377	0.460873	-0.059232
C95	C	0.955769	0.557776	-0.059246
C96	C	0.955750	0.557835	-0.396025
C97	C	1.016369	0.460949	-0.492922
C98	C	1.009568	0.412494	-0.600725
C99	C	0.942142	0.460940	-0.611630
C100	C	0.881525	0.557831	-0.514735
C101	C	0.311751	1.468695	0.396193
C102	C	0.251133	1.565611	0.493089
C103	C	0.257934	1.614070	0.600892
C104	C	0.325360	1.565618	0.611798
C105	C	0.385977	1.468711	0.514902
C106	C	0.385982	1.468752	-0.059248
C107	C	0.325373	1.565676	-0.059243
C108	C	0.257944	1.614138	0.000091
C109	C	0.251125	1.565680	0.059435
C110	C	0.311733	1.468764	0.059436
C111	C	0.588674	0.459953	-0.481937
C112	C	0.588867	0.566867	-0.374607
C113	C	0.711002	0.479418	-0.481500
C114	C	0.710757	0.372050	-0.588360
C115	C	0.602174	0.547020	-0.589944
C116	C	0.600609	0.655483	-0.481272
H117	H	0.610815	0.530133	-0.162633
H118	H	0.440881	1.429301	-0.107574
H119	H	0.961302	0.597272	-0.308255
H120	H	1.071264	0.421514	-0.484023
H121	H	0.826632	0.597255	-0.523632
H122	H	0.521341	1.188737	0.667087
H123	H	0.610942	0.370355	-0.163151
H124	H	0.440863	0.797929	-0.107574
H125	H	0.306170	1.429315	0.107751
H126	H	1.058932	0.333600	-0.679615
H127	H	0.543764	0.588652	0.163628
H128	H	0.330898	0.797934	-0.107582
H129	H	0.306200	1.429244	0.308423
H130	H	0.532379	0.494968	-0.037262
H131	H	0.736030	0.281298	-0.588089
H132	H	0.196238	1.605044	0.484188
H133	H	0.196221	1.228575	0.107735
H134	H	0.330939	1.605114	-0.107572
H135	H	0.656737	0.813485	0.320959
H136	H	0.735872	0.813528	0.479734
H137	H	0.936614	0.421474	-0.699417
H138	H	0.208570	1.692978	0.679782
H139	H	0.746163	0.342104	-0.666936
H140	H	0.747074	0.500412	-0.005865
H141	H	0.546139	0.586591	-0.594062
H142	H	0.657134	0.813805	0.481035
H143	H	0.306187	1.228586	0.107720
H144	H	0.071280	0.797936	-0.107582
H145	H	0.531974	0.656209	-0.320340
H146	H	0.936563	0.421439	0.107775
H147	H	0.330889	1.605087	0.699582
H148	H	0.531800	0.655626	-0.036678
H149	H	0.208598	1.693053	0.000081
H150	H	0.440871	1.429265	0.523797
H151	H	0.196216	1.605152	0.107743
H152	H	-0.173365	1.228589	0.107767
H153	H	-0.063398	1.228589	0.107763
H154	H	0.531475	1.032892	0.588234
H155	H	-0.038686	0.797942	-0.107571
H156	H	0.735526	0.813851	0.320476
H157	H	0.961332	0.597207	-0.107579
H158	H	0.634845	0.522240	-0.668155
H159	H	1.058903	0.333514	0.000136
H160	H	0.521460	1.189924	0.508885
H161	H	0.531634	0.497191	-0.479604
H162	H	0.738458	0.279029	-0.139935
H163	H	1.071286	0.421404	-0.107537
H164	H	0.531045	1.034959	0.430047
H165	H	0.610368	0.370288	-0.480904
H166	H	0.610767	0.529395	-0.320824
H167	H	0.746040	0.501669	-0.508727
H168	H	0.736454	0.440855	-0.429895
H169	H	0.630025	0.687612	-0.506790
H170	H	0.631113	0.525986	0.179830
H171	H	0.631987	0.683973	0.179608
H172	H	0.826621	0.597230	0.107754
H173	H	0.543689	0.745970	-0.429853
H174	H	0.544644	0.747494	0.164278
H175	H	0.723816	1.031832	0.430005
H176	H	0.735452	0.439326	-0.143899
H177	H	0.744542	0.346783	0.001866
H178	H	0.721367	1.040570	0.594205
H179	H	0.632651	1.192132	0.668286
H180	H	0.637480	1.188446	0.506937
