data_functionalizedCrystal
_audit_creation_method	'MofGen! by Chris Wilmer'
_symmetry_space_group_name_H-M	'P1'
_symmetry_Int_Tables_number	1
_symmetry_cell_setting	triclinic
loop_
_symmetry_equiv_pos_as_xyz
  x,y,z
_cell_length_a	14.560438
_cell_length_b	14.560438
_cell_length_c	14.560438
_cell_angle_alpha	59.998190
_cell_angle_beta	59.999682
_cell_angle_gamma	89.995580
loop_
_atom_site_label
_atom_site_type_symbol
_atom_site_fract_x
_atom_site_fract_y
_atom_site_fract_z
Zr1	Zr	0.884781	-0.120496	1.005262
O2	O	0.929751	-0.267142	1.005259
O3	O	0.738128	-0.075544	1.005265
O4	O	0.738147	-0.267143	1.196863
O5	O	1.080858	0.075597	0.662522
O6	O	0.738147	-0.267141	1.348002
O7	O	0.929732	-0.075543	0.813660
O8	O	0.738113	0.075594	1.005268
O9	O	1.080891	-0.267139	1.005256
O10	O	0.836109	-0.056368	1.118057
O11	O	0.948892	0.056424	0.892471
O12	O	0.948914	-0.169159	1.118053
O13	O	1.061698	-0.056367	0.892467
Zr14	Zr	1.125810	0.120556	1.005262
Zr15	Zr	0.884781	-0.120494	1.246311
Zr16	Zr	1.125809	0.120554	0.764213
Zr17	Zr	1.125833	-0.120492	1.005258
Zr18	Zr	0.884758	0.120552	1.005266
O19	O	1.272463	0.075604	1.005259
O20	O	0.929751	-0.267138	1.347999
O21	O	1.272462	0.075600	0.662519
O22	O	1.080840	0.267202	1.005265
O23	O	0.738128	-0.075540	1.348005
O24	O	1.080839	0.267198	0.662525
O25	O	0.929733	-0.075537	1.348002
O26	O	1.272444	0.267203	0.813661
O27	O	1.272444	0.267201	0.662522
O28	O	1.080859	0.075603	1.196863
O29	O	1.080892	-0.267137	1.196858
O30	O	0.929699	0.267197	0.813666
O31	O	0.929699	0.267199	1.005268
O32	O	0.738114	0.075596	1.196869
O33	O	1.272477	-0.075536	0.813655
O34	O	1.272477	-0.075534	1.005256
O35	O	1.061676	0.169219	0.892471
O36	O	0.948893	0.056427	1.118057
O37	O	1.061698	-0.056364	1.118053
O38	O	1.174482	0.056428	0.892467
C39	C	0.703776	0.000024	1.005267
C40	C	0.601443	0.000022	1.005269
C41	C	0.494495	-0.058854	1.123020
C42	C	0.398346	-0.058844	1.123014
C43	C	0.516107	0.058921	0.887495
C44	C	0.612253	0.058917	0.887502
C45	C	1.005324	-0.301484	1.005257
C46	C	1.005334	-0.403816	1.005255
C47	C	1.005295	0.000027	0.703747
C48	C	1.005295	0.000025	0.601415
C49	C	1.306815	0.000036	1.005257
C50	C	1.409148	0.000038	1.005255
C51	C	1.064183	-0.393018	0.887504
C52	C	1.064148	-0.489173	0.887510
C53	C	0.946406	-0.606920	1.123029
C54	C	0.946448	-0.510766	1.123022
C55	C	1.123069	-0.286067	0.769737
C56	C	1.181921	-0.275264	0.651976
C57	C	1.181886	-0.371419	0.651982
C58	C	1.122998	-0.478377	0.769749
C59	C	1.005266	0.301544	1.005267
C60	C	1.005256	0.403876	1.005269
C61	C	0.922039	-0.083240	0.636605
C62	C	0.922037	-0.083234	0.540451
C63	C	1.088556	0.083309	0.373920
C64	C	1.088553	0.083306	0.470073
C65	C	1.005296	0.000033	1.306777
C66	C	1.005296	0.000034	1.409108
C67	C	0.703805	-0.301487	1.306777
C68	C	0.601482	-0.403819	1.409108
C69	C	0.703776	0.000028	1.306782
C70	C	0.601443	0.000027	1.409115
C71	C	1.005266	0.301541	0.703752
C72	C	1.005256	0.403871	0.601422
C73	C	1.306814	0.000032	0.703742
C74	C	1.409147	0.000033	0.601409
C75	C	1.306785	0.301547	0.703747
C76	C	1.409108	0.403879	0.601416
C77	C	1.005325	-0.301481	1.306772
C78	C	1.005335	-0.403811	1.409102
C79	C	0.612291	-0.510770	1.457184
C80	C	0.516144	-0.606918	1.553347
C81	C	0.398382	-0.489150	1.553346
C82	C	0.494528	-0.393004	1.457191
C83	C	0.494495	-0.058849	1.457192
C84	C	0.398347	-0.058853	1.553353
C85	C	0.516108	0.058902	1.553348
C86	C	0.612254	0.058900	1.457195
C87	C	1.064121	0.510824	0.553347
C88	C	1.064117	0.606970	0.457188
C89	C	0.946373	0.489197	0.457193
C90	C	0.946384	0.393053	0.553343
H91	H	0.699342	0.106866	0.791609
H92	H	0.524955	-0.694000	1.592488
H93	H	1.156350	0.151116	0.441411
C94	C	0.729938	-0.522671	1.404307
N95	N	0.818550	-0.531640	1.364487
C96	C	0.830443	-0.174828	0.579170
N97	N	0.761448	-0.243817	0.608338
H98	H	0.311291	-0.480358	1.592506
C99	C	1.128867	0.724618	0.404315
N100	N	1.177639	0.813233	0.364494
C101	C	0.482634	-0.275346	1.404303
N102	N	0.473677	-0.186729	1.364470
H103	H	0.311268	-0.106798	1.592494
C104	C	0.527987	0.123669	1.606234
N105	N	0.536937	0.172457	1.646063
C106	C	0.830445	-0.174843	0.781080
N107	N	0.761451	-0.243839	0.889900
H108	H	0.898440	0.480403	0.418037
H109	H	0.485687	-0.106808	1.218913
H110	H	0.699343	0.106843	1.418053
C111	C	1.128891	0.522728	0.606221
N112	N	1.177681	0.531699	0.646039
H113	H	0.898449	0.305961	0.592485
C114	C	1.122968	-0.584147	0.769749
N115	N	1.122942	-0.663812	0.769747
H116	H	0.311266	-0.106785	1.218898
C117	C	1.246698	-0.157613	0.522440
N118	N	1.295488	-0.068997	0.424870
H119	H	0.898460	-0.694009	1.218911
H120	H	0.524895	0.106870	0.791613
H121	H	1.123100	-0.207766	0.769719
C122	C	1.246639	-0.359533	0.522445
N123	N	1.295411	-0.350577	0.424872
H124	H	0.898529	-0.519563	1.218906
C125	C	1.180114	0.174933	0.229439
N126	N	1.249071	0.243953	0.120614
H127	H	0.485687	-0.106798	1.418060
