data_functionalizedCrystal
_audit_creation_method	'MofGen! by Chris Wilmer'
_symmetry_space_group_name_H-M	'P1'
_symmetry_Int_Tables_number	1
_symmetry_cell_setting	triclinic
loop_
_symmetry_equiv_pos_as_xyz
  x,y,z
_cell_length_a	9.065218
_cell_length_b	15.186229
_cell_length_c	9.065218
_cell_angle_alpha	90.001905
_cell_angle_beta	94.984081
_cell_angle_gamma	89.994468
loop_
_atom_site_label
_atom_site_type_symbol
_atom_site_fract_x
_atom_site_fract_y
_atom_site_fract_z
O1	O	-1.960399	0.073270	0.216356
O2	O	-1.531114	0.073261	0.234102
O3	O	-1.754630	0.073264	0.010587
O4	O	-1.736884	0.073267	0.439872
O5	O	-1.754615	-0.073193	0.010583
O6	O	-1.531099	-0.073196	0.234099
O7	O	-1.960384	-0.073188	0.216353
Zn8	Zn	-1.745739	-0.096445	0.225225
Zn9	Zn	-1.745759	0.096519	0.225230
O10	O	-1.736868	-0.073190	0.439868
C11	C	-1.476120	0.000032	0.232395
C12	C	-1.312277	0.000028	0.227295
N13	N	-1.745736	-0.228138	0.225221
C14	C	-1.844744	-0.453859	0.126283
C15	C	-1.844748	-0.546049	0.126280
C16	C	-1.646756	-0.546060	0.324165
C17	C	-1.646745	-0.453872	0.324160
C18	C	-1.745747	-0.407774	0.225221
C19	C	-1.745763	-0.592152	0.225222
C20	C	-1.745767	-0.692108	0.225219
C21	C	-1.745742	-0.307812	0.225222
C22	C	-1.015378	0.000039	0.218060
C23	C	-1.179221	0.000031	0.223159
C24	C	-1.752917	0.000037	-0.044402
C25	C	-1.747817	0.000041	-0.208244
N26	N	-1.745774	0.228211	0.225222
C27	C	-1.738581	0.000039	0.494856
C28	C	-1.743681	0.000041	0.658699
H29	H	-1.925358	-0.583569	0.045714
H30	H	-1.566123	-0.416347	0.404728
O31	O	-1.940954	-0.409215	0.030027
C32	C	-2.028354	-0.469665	-0.057274
H33	H	-1.967843	-0.535385	-0.059775
H34	H	-2.138606	-0.479457	-0.007841
C35	C	-2.130954	-0.352973	-0.212965
C36	C	-2.056627	-0.433689	-0.216047
H37	H	-2.148401	-0.330781	-0.310901
H38	H	-2.072076	-0.312246	-0.154145
H39	H	-2.222822	-0.361144	-0.171763
H40	H	-1.964754	-0.425515	-0.257230
H41	H	-2.115491	-0.474414	-0.274877
O42	O	-1.550741	-0.590978	0.420225
C43	C	-1.571954	-0.682229	0.398995
H44	H	-1.688527	-0.694810	0.345476
H45	H	-1.487454	-0.708404	0.323830
C46	C	-1.408626	-0.714100	0.615370
C47	C	-1.551807	-0.729553	0.549648
H48	H	-1.396192	-0.743294	0.708298
H49	H	-1.394329	-0.652623	0.629671
H50	H	-1.338225	-0.735913	0.552718
H51	H	-1.622204	-0.707731	0.612292
H52	H	-1.566115	-0.791028	0.535361
