data_functionalizedCrystal
_audit_creation_method	'MofGen! by Chris Wilmer'
_symmetry_space_group_name_H-M	'P1'
_symmetry_Int_Tables_number	1
_symmetry_cell_setting	triclinic
loop_
_symmetry_equiv_pos_as_xyz
  x,y,z
_cell_length_a	29.839131
_cell_length_b	29.839134
_cell_length_c	11.169409
_cell_angle_alpha	89.964765
_cell_angle_beta	90.040119
_cell_angle_gamma	89.965835
loop_
_atom_site_label
_atom_site_type_symbol
_atom_site_fract_x
_atom_site_fract_y
_atom_site_fract_z
Zn1	Zn	-0.178904	-0.686768	0.678971
Zn2	Zn	-0.254045	-0.686686	0.478261
Zn3	Zn	-0.178921	-0.611637	0.478251
Zn4	Zn	-0.253998	-0.611599	0.678852
O5	O	-0.216467	-0.649172	0.578584
O6	O	-0.188884	-0.749624	0.652400
O7	O	-0.244107	-0.676712	0.310310
O8	O	-0.116051	-0.621653	0.504924
O9	O	-0.244090	-0.749564	0.504939
O10	O	-0.116039	-0.676852	0.652391
O11	O	-0.188913	-0.621573	0.310303
O12	O	-0.188867	-0.548764	0.504808
O13	O	-0.244010	-0.621589	0.846817
O14	O	-0.244026	-0.548737	0.652188
O15	O	-0.188838	-0.676815	0.846905
O16	O	-0.316906	-0.676675	0.504823
O17	O	-0.316871	-0.621509	0.652197
C18	C	-0.333189	-0.649091	0.578524
C19	C	-0.383124	-0.649098	0.578539
C20	C	-0.216444	-0.532450	0.578484
C21	C	-0.216444	-0.482515	0.578470
C22	C	-0.216417	-0.649207	0.891626
C23	C	-0.216396	-0.649222	1.025026
C24	C	-0.692773	-0.677950	0.501959
C25	C	-0.880446	-0.678005	0.502005
O26	O	-0.904715	-0.702472	0.436848
N27	N	-0.903909	-0.649265	0.578674
C28	C	-0.880451	-0.620512	0.655343
O29	O	-0.904714	-0.596072	0.720564
C30	C	-0.692779	-0.620459	0.655301
C31	C	-0.669318	-0.649197	0.578619
C32	C	-0.669312	-0.706686	0.425283
C33	C	-0.622396	-0.706670	0.425268
C34	C	-0.598942	-0.677918	0.501928
C35	C	-0.622403	-0.649182	0.578603
C36	C	-0.669322	-0.591708	0.731975
C37	C	-0.622401	-0.591698	0.731960
C38	C	-0.598940	-0.620437	0.655277
C39	C	-0.552033	-0.620413	0.655248
N40	N	-0.528569	-0.649153	0.578578
C41	C	-0.552024	-0.677905	0.501919
C42	C	-0.978982	-0.620541	0.655357
C43	C	-1.025899	-0.620554	0.655366
C44	C	-1.025891	-0.678048	0.502030
C45	C	-0.978972	-0.678032	0.502016
C46	C	-0.955518	-0.649281	0.578688
C47	C	-0.453498	-0.677870	0.501891
C48	C	-0.406579	-0.677850	0.501879
C49	C	-0.406591	-0.620358	0.655219
C50	C	-0.453507	-0.620376	0.655227
C51	C	-0.476959	-0.649135	0.578559
O52	O	-0.527734	-0.595963	0.720380
O53	O	-0.527753	-0.702349	0.436726
C54	C	-0.739688	-0.677966	0.501974
C55	C	-0.763149	-0.649229	0.578650
C56	C	-0.739694	-0.620477	0.655309
C57	C	-0.810067	-0.649242	0.578659
C58	C	-0.833521	-0.677994	0.501999
C59	C	-0.810058	-0.706734	0.425330
C60	C	-0.763143	-0.706718	0.425314
C61	C	-0.763158	-0.591737	0.731979
C62	C	-0.810073	-0.591755	0.731987
C63	C	-0.833528	-0.620507	0.655327
C64	C	-0.099289	-0.649266	0.578670
C65	C	-0.049354	-0.649306	0.578706
C66	C	-0.216491	-0.766351	0.578684
C67	C	-0.216501	-0.816285	0.578727
C68	C	-0.187703	-0.125930	0.502000
C69	C	-0.187690	-0.313603	0.501927
O70	O	-0.163215	-0.337870	0.436797
N71	N	-0.216452	-0.337070	0.578531
C72	C	-0.245216	-0.313616	0.655164
O73	O	-0.269676	-0.337882	0.720328
C74	C	-0.245226	-0.125944	0.655242
C75	C	-0.216466	-0.102479	0.578624
C76	C	-0.158945	-0.102466	0.425389
C77	C	-0.158950	-0.055550	0.425404
C78	C	-0.187713	-0.032099	0.502028
C79	C	-0.216471	-0.055564	0.578639
C80	C	-0.273988	-0.102490	0.731881
C81	C	-0.273987	-0.055569	0.731895
C82	C	-0.245227	-0.032105	0.655278
C83	C	-0.245240	0.014803	0.655278
N84	N	-0.216478	0.038269	0.578674
C85	C	-0.187715	0.014819	0.502049
C86	C	-0.245209	-0.412147	0.655116
C87	C	-0.245207	-0.459064	0.655095
C88	C	-0.187681	-0.459048	0.501859
C89	C	-0.187686	-0.412130	0.501875
C90	C	-0.216448	-0.388680	0.578512
C91	C	-0.187729	0.113344	0.502084
C92	C	-0.187738	0.160264	0.502102
C93	C	-0.245262	0.160244	0.655342
C94	C	-0.245255	0.113328	0.655320
C95	C	-0.216485	0.089880	0.578688
O96	O	-0.269698	0.039098	0.720383
O97	O	-0.163252	0.039093	0.436914
C98	C	-0.187698	-0.172846	0.501985
C99	C	-0.216456	-0.196310	0.578596
C100	C	-0.245219	-0.172859	0.655221
C101	C	-0.216454	-0.243228	0.578575
C102	C	-0.187691	-0.266679	0.501950
C103	C	-0.158930	-0.243212	0.425346
C104	C	-0.158935	-0.196297	0.425360
C105	C	-0.273980	-0.196326	0.731825
C106	C	-0.273973	-0.243242	0.731803
C107	C	-0.245210	-0.266693	0.655178
C108	C	-0.216484	-0.649164	0.266759
C109	C	-0.216379	-0.649236	0.133360
H110	H	-0.472587	-0.701289	0.439463
H111	H	-0.135520	-0.121554	0.362992
O112	O	-0.599549	-0.563809	0.806401
C113	C	-0.527275	-0.538283	0.874297
C114	C	-0.553097	-0.569898	0.789958
H115	H	-0.489714	-0.543187	0.861014
H116	H	-0.536431	-0.546159	0.971124
H117	H	-0.536569	-0.502070	0.853130
H118	H	-0.543818	-0.606121	0.811017
H119	H	-0.543939	-0.561983	0.693156
H120	H	-0.829171	-0.568349	0.794430
H121	H	-0.135511	-0.262314	0.362951
H122	H	-1.044996	-0.701459	0.439611
O123	O	-0.131003	-0.032702	0.351131
C124	C	-0.070345	0.020239	0.335222
C125	C	-0.101968	-0.005602	0.419485
H126	H	-0.046856	0.042148	0.390454
H127	H	-0.090938	0.042256	0.272415
H128	H	-0.049808	-0.004587	0.280407
H129	H	-0.122512	0.019191	0.474378
H130	H	-0.081349	-0.027626	0.482213
H131	H	-0.387478	-0.701252	0.439430
O132	O	-0.273163	-0.481786	0.729625
C133	C	-0.330237	-0.476837	0.881570
C134	C	-0.298595	-0.451052	0.797237
H135	H	-0.350815	-0.451999	0.936238
H136	H	-0.309659	-0.498819	0.944499
H137	H	-0.353687	-0.498786	0.826334
H138	H	-0.275139	-0.429078	0.852376
H139	H	-0.319202	-0.429098	0.734304
H140	H	-1.044997	-0.597148	0.717798
O141	O	-0.159704	-0.389408	0.427417
C142	C	-0.102666	-0.394357	0.275373
C143	C	-0.134328	-0.420142	0.359656
H144	H	-0.082148	-0.419194	0.220548
H145	H	-0.079166	-0.372434	0.330535
H146	H	-0.123273	-0.372348	0.212578
H147	H	-0.113758	-0.442175	0.422468
H148	H	-0.157829	-0.442036	0.304419
O149	O	-0.599679	-0.734634	0.350752
C150	C	-0.604640	-0.791648	0.198634
C151	C	-0.630419	-0.760005	0.282979
H152	H	-0.629482	-0.812162	0.143799
H153	H	-0.582652	-0.815153	0.253747
H154	H	-0.582697	-0.771028	0.135850
H155	H	-0.652386	-0.780589	0.345779
H156	H	-0.652379	-0.736499	0.227790
H157	H	-0.387487	-0.596947	0.717631
O158	O	-0.273174	0.182982	0.729947
C159	C	-0.295025	0.197324	0.934015
C160	C	-0.263400	0.171535	0.849648
H161	H	-0.287128	0.188085	1.030812
H162	H	-0.331253	0.188123	0.912888
H163	H	-0.290088	0.234884	0.920797
H164	H	-0.268298	0.133969	0.862820
H165	H	-0.227184	0.180773	0.870796
H166	H	-0.744044	-0.730119	0.362872
O167	O	-0.740427	-0.563825	0.806611
C168	C	-0.726019	-0.541979	1.010693
C169	C	-0.751794	-0.573616	0.926308
H170	H	-0.735192	-0.549890	1.107486
H171	H	-0.735299	-0.505757	0.989594
H172	H	-0.688457	-0.546891	0.997462
H173	H	-0.789362	-0.568745	0.939491
H174	H	-0.742477	-0.609827	0.947426
H175	H	-0.297397	-0.262343	0.794192
H176	H	-0.268633	-0.393058	0.717526
H177	H	-0.472609	-0.596976	0.717672
H178	H	-0.297403	-0.177237	0.794224
O179	O	-0.301938	-0.125207	0.806426
C180	C	-0.359007	-0.120251	0.958386
C181	C	-0.327367	-0.094470	0.874036
H182	H	-0.379581	-0.095411	1.013052
H183	H	-0.338426	-0.142231	1.021315
H184	H	-0.382460	-0.142201	0.903163
H185	H	-0.303908	-0.072494	0.929162
H186	H	-0.347976	-0.072518	0.811103
O187	O	-0.956233	-0.705928	0.427366
C188	C	-0.941903	-0.727753	0.223270
C189	C	-0.967688	-0.696139	0.307678
H190	H	-0.951147	-0.719844	0.126484
H191	H	-0.951103	-0.763984	0.244358
H192	H	-0.904342	-0.722817	0.236487
H193	H	-1.005254	-0.701035	0.294508
H194	H	-0.958451	-0.659920	0.286569
H195	H	-0.135515	-0.177196	0.362971
H196	H	-0.164262	-0.478150	0.439467
O197	O	-0.692126	-0.563748	0.806302
C198	C	-0.745163	-0.503123	0.822342
C199	C	-0.719358	-0.534752	0.738019
H200	H	-0.767194	-0.479678	0.767170
H201	H	-0.720354	-0.482543	0.877111
H202	H	-0.767068	-0.523756	0.885188
H203	H	-0.697452	-0.514154	0.675100
H204	H	-0.744191	-0.555334	0.683333
O205	O	-0.159847	0.183126	0.427694
C206	C	-0.134353	0.255409	0.359800
C207	C	-0.165964	0.229576	0.444114
H208	H	-0.139281	0.292968	0.373065
H209	H	-0.142212	0.246241	0.262968
H210	H	-0.098138	0.246138	0.381010
H211	H	-0.202190	0.238834	0.423013
H212	H	-0.158066	0.238746	0.540922
O213	O	-0.956252	-0.592628	0.730001
C214	C	-0.941849	-0.570784	0.934086
C215	C	-0.967622	-0.602419	0.849695
H216	H	-0.951025	-0.578694	1.030877
H217	H	-0.951125	-0.534560	0.912987
H218	H	-0.904286	-0.575697	0.920863
H219	H	-1.005191	-0.597545	0.862870
H220	H	-0.958308	-0.638630	0.870814
H221	H	-0.688404	-0.730102	0.362857
H222	H	-0.829163	-0.730143	0.362907
H223	H	-0.164299	0.094258	0.439688
H224	H	-0.297408	-0.036479	0.794308
O225	O	-0.273243	0.090513	0.729566
C226	C	-0.333880	0.037548	0.745427
C227	C	-0.302222	0.063360	0.661196
H228	H	-0.357311	0.015581	0.690185
H229	H	-0.354472	0.062351	0.800167
H230	H	-0.313268	0.015577	0.808305
H231	H	-0.322800	0.085331	0.598245
H232	H	-0.281629	0.038532	0.606540
