data_functionalizedCrystal
_audit_creation_method	'MofGen! by Chris Wilmer'
_symmetry_space_group_name_H-M	'P1'
_symmetry_Int_Tables_number	1
_symmetry_cell_setting	triclinic
loop_
_symmetry_equiv_pos_as_xyz
  x,y,z
_cell_length_a	11.792241
_cell_length_b	14.044190
_cell_length_c	10.268362
_cell_angle_alpha	89.989939
_cell_angle_beta	89.999626
_cell_angle_gamma	88.692597
loop_
_atom_site_label
_atom_site_type_symbol
_atom_site_fract_x
_atom_site_fract_y
_atom_site_fract_z
O1	O	1.519116	0.129987	-0.108189
O2	O	2.019116	0.629987	0.391811
O3	O	1.190032	0.143384	-0.108221
O4	O	1.690032	0.643384	0.391779
O5	O	1.349630	-0.001325	-0.108179
O6	O	1.849630	0.498675	0.391821
O7	O	1.359518	0.274696	-0.108230
O8	O	1.859518	0.774696	0.391770
O9	O	1.349615	-0.001331	0.108421
O10	O	1.849615	0.498669	0.608421
O11	O	1.190017	0.143378	0.108380
O12	O	1.690017	0.643378	0.608380
O13	O	1.519100	0.129981	0.108412
O14	O	2.019100	0.629981	0.608412
Cu15	Cu	1.354557	0.136679	0.128173
Cu16	Cu	1.854557	0.636679	0.628173
Cu17	Cu	1.354575	0.136686	-0.127982
Cu18	Cu	1.854575	0.636686	0.372018
O19	O	1.359502	0.274690	0.108371
O20	O	1.859502	0.774690	0.608371
C21	C	1.345297	-0.036664	0.000124
C22	C	1.845297	0.463336	0.500124
C23	C	1.332395	-0.141957	0.000134
C24	C	1.832395	0.358043	0.500134
C25	C	1.147655	0.142539	0.000076
C26	C	1.647655	0.642539	0.500076
C27	C	1.021404	0.140021	0.000065
C28	C	1.521404	0.640021	0.500065
C29	C	0.790257	0.135389	0.000103
C30	C	1.290257	0.635389	0.500103
C31	C	0.918884	0.137962	0.000082
C32	C	1.418884	0.637962	0.500082
C33	C	1.400312	-0.391894	0.000090
C34	C	1.900312	0.108106	0.500090
C35	C	1.308825	-0.334735	0.000090
C36	C	1.808825	0.165265	0.500090
C37	C	1.321943	-0.227463	0.000115
C38	C	1.821943	0.272537	0.500115
C39	C	1.387197	-0.499176	0.000065
C40	C	1.887197	0.000824	0.500065
C41	C	1.561478	0.130826	0.000112
C42	C	2.061478	0.630826	0.500112
C43	C	1.687728	0.133344	0.000115
C44	C	2.187728	0.633344	0.500115
C45	C	1.363835	0.310029	0.000064
C46	C	1.863835	0.810029	0.500064
C47	C	1.376737	0.415322	0.000046
C48	C	1.876737	0.915322	0.500046
N49	N	1.354552	0.136673	0.308339
N50	N	1.854552	0.636673	0.808339
N51	N	1.354589	0.136684	-0.308148
N52	N	1.854589	0.636684	0.191852
C53	C	1.354570	0.136684	0.574010
C54	C	1.854570	0.636684	1.074010
C55	C	1.354556	0.136681	0.426172
C56	C	1.854556	0.636681	0.926172
H57	H	1.488481	-0.360267	0.000112
H58	H	1.988481	0.139733	0.500112
H59	H	1.220649	-0.366364	0.000074
H60	H	1.720649	0.133636	0.500074
