data_functionalizedCrystal
_audit_creation_method	'MofGen! by Chris Wilmer'
_symmetry_space_group_name_H-M	'P1'
_symmetry_Int_Tables_number	1
_symmetry_cell_setting	triclinic
loop_
_symmetry_equiv_pos_as_xyz
  x,y,z
_cell_length_a	21.295418
_cell_length_b	21.395364
_cell_length_c	21.395355
_cell_angle_alpha	89.975448
_cell_angle_beta	89.982705
_cell_angle_gamma	90.043338
loop_
_atom_site_label
_atom_site_type_symbol
_atom_site_fract_x
_atom_site_fract_y
_atom_site_fract_z
Zn1	Zn	-0.250431	0.957869	-0.354267
Zn2	Zn	-0.355682	0.957776	-0.249492
Zn3	Zn	-0.250459	0.853084	-0.249504
Zn4	Zn	-0.355694	0.853058	-0.354232
O5	O	-0.303066	0.905447	-0.301873
O6	O	-0.264377	1.045535	-0.340378
O7	O	-0.341731	0.943861	-0.161815
O8	O	-0.162366	0.867034	-0.263420
O9	O	-0.341704	1.045466	-0.263400
O10	O	-0.162345	0.944020	-0.340389
O11	O	-0.264424	0.866944	-0.161824
O12	O	-0.264434	0.765403	-0.263386
O13	O	-0.341724	0.866989	-0.441914
O14	O	-0.341750	0.765383	-0.340330
O15	O	-0.264387	0.943994	-0.441940
O16	O	-0.443773	0.943835	-0.263366
O17	O	-0.443782	0.866899	-0.340318
C18	C	-0.303097	0.742659	-0.301856
C19	C	-0.303125	0.673018	-0.301863
C20	C	-0.466618	0.905371	-0.301851
C21	C	-0.536586	0.905395	-0.301862
C22	C	-0.262927	0.640363	-0.342007
C23	C	-0.262910	0.574927	-0.342010
C24	C	-0.303103	0.542150	-0.301875
C25	C	-0.343305	0.574813	-0.261722
C26	C	-0.343316	0.640247	-0.261717
C27	C	-0.359793	0.438428	-0.296838
C28	C	-0.359783	0.372995	-0.296848
C29	C	-0.303068	0.340329	-0.301888
C30	C	-0.246363	0.373104	-0.306932
C31	C	-0.246374	0.438538	-0.306926
C32	C	-0.303095	0.471197	-0.301876
C33	C	-0.262848	0.236721	-0.342038
C34	C	-0.262830	0.171285	-0.342036
C35	C	-0.343231	0.171171	-0.261751
C36	C	-0.343243	0.236606	-0.261750
C37	C	-0.303053	0.269378	-0.301897
C38	C	-1.035980	0.945611	-0.342032
C39	C	-0.970238	0.945593	-0.342022
C40	C	-0.937426	0.905532	-0.301912
C41	C	-0.970361	0.865499	-0.261799
C42	C	-1.036102	0.865523	-0.261805
N43	N	-0.834270	0.850652	-0.297045
N44	N	-0.771818	0.850631	-0.297042
C45	C	-0.739351	0.905459	-0.301889
N46	N	-0.771694	0.960309	-0.306751
N47	N	-0.834152	0.960329	-0.306757
C48	C	-0.866140	0.905502	-0.301901
C49	C	-0.635138	0.945473	-0.341986
C50	C	-0.569394	0.945456	-0.341972
C51	C	-0.569519	0.865356	-0.261752
C52	C	-0.635261	0.865379	-0.261763
C53	C	-0.668067	0.905436	-0.301884
C54	C	-0.138876	0.905540	-0.301910
C55	C	-0.068908	0.905580	-0.301926
C56	C	-0.303054	0.905499	-0.465297
C57	C	-0.303048	0.905521	-0.534938
C58	C	-0.303036	1.068870	-0.301891
C59	C	-0.303023	1.138511	-0.301899
C60	C	-0.262778	0.945616	-0.567666
C61	C	-0.262751	0.945615	-0.633101
C62	C	-0.303005	0.905526	-0.665806
C63	C	-0.343279	0.865424	-0.633071
C64	C	-0.343300	0.865421	-0.567637
C65	C	-0.359687	0.900552	-0.769473
C66	C	-0.359666	0.900559	-0.834906
C67	C	-0.302939	0.905530	-0.867627
C68	C	-0.246230	0.910507	-0.834907
C69	C	-0.246251	0.910504	-0.769473
C70	C	-0.302986	0.905524	-0.736759
C71	C	-0.262635	0.945626	-0.971307
C72	C	-0.262607	0.945620	-1.036744
C73	C	-0.343141	0.865432	-1.036713
C74	C	-0.343164	0.865434	-0.971277
C75	C	-0.302912	0.905534	-0.938579
C76	C	-0.303034	0.905431	-0.139086
C77	C	-0.302862	0.905530	-0.069445
H78	H	-0.230172	0.548335	-0.374699
C79	C	-0.422041	0.895092	-0.870895
H80	H	-0.413906	0.895816	-0.914551
H81	H	-0.442182	0.856937	-0.860161
H82	H	-0.448516	0.929165	-0.860181
H83	H	-1.062912	0.832923	-0.229146
H84	H	-0.229954	0.978263	-0.659753
C85	C	-0.218711	0.676408	-0.386159
H86	H	-0.194763	0.647584	-0.410063
H87	H	-0.242832	0.701929	-0.413414
H88	H	-0.191249	0.701943	-0.362231
C89	C	-0.387445	0.135123	-0.217606
H90	H	-0.381685	0.091476	-0.223361
H91	H	-0.378177	0.145833	-0.175523
H92	H	-0.429757	0.145814	-0.226708
C93	C	-0.422089	0.895084	-0.733483
H94	H	-0.413981	0.895789	-0.689827
H95	H	-0.448558	0.929153	-0.744221
H96	H	-0.442221	0.856926	-0.744192
C97	C	-0.184003	0.474589	-0.312464
H98	H	-0.150221	0.445768	-0.315462
H99	H	-0.184877	0.500136	-0.348777
H100	H	-0.178426	0.500099	-0.276557
C101	C	-0.387601	0.821319	-0.531632
H102	H	-0.381847	0.827058	-0.487978
H103	H	-0.429891	0.830462	-0.542361
H104	H	-0.378387	0.779224	-0.542336
C105	C	-0.387466	0.821336	-0.935272
H106	H	-0.381711	0.827073	-0.891619
H107	H	-0.429756	0.830481	-0.946001
H108	H	-0.378253	0.779242	-0.945979
H109	H	-0.375980	0.263195	-0.229063
H110	H	-0.405956	0.346314	-0.292745
C111	C	-0.422180	0.474357	-0.291290
H112	H	-0.414066	0.518020	-0.292002
H113	H	-0.448710	0.463628	-0.325326
H114	H	-0.442247	0.463593	-0.253107
H115	H	-0.542803	0.832740	-0.229092
H116	H	-0.200181	0.346509	-0.311036
H117	H	-0.375911	0.832785	-1.063341
H118	H	-0.376030	0.548121	-0.229043
C119	C	-0.387561	0.821330	-0.669044
H120	H	-0.381786	0.827079	-0.712702
H121	H	-0.378361	0.779236	-0.658306
H122	H	-0.429859	0.830480	-0.658322
C123	C	-0.218637	0.272772	-0.386191
H124	H	-0.194686	0.243950	-0.410094
H125	H	-0.242761	0.298288	-0.413447
H126	H	-0.191177	0.298312	-0.362266
H127	H	-0.230092	0.144698	-0.374725
H128	H	-0.376051	0.666834	-0.229025
C129	C	-1.072063	0.989678	-0.386156
H130	H	-1.043033	1.013521	-0.410037
H131	H	-1.097727	0.965708	-0.413435
H132	H	-1.097685	1.017004	-0.362213
H133	H	-0.943423	0.978192	-0.374682
C134	C	-0.183877	0.915969	-0.733483
H135	H	-0.150086	0.918925	-0.762338
H136	H	-0.184694	0.952283	-0.707969
H137	H	-0.178365	0.880056	-0.707947
C138	C	-0.934271	0.821431	-0.217682
H139	H	-0.890401	0.827145	-0.223427
H140	H	-0.945049	0.830626	-0.175594
H141	H	-0.945091	0.779331	-0.226817
H142	H	-0.661849	0.978086	-0.374659
C143	C	-0.183864	0.916382	-0.870891
H144	H	-0.191981	0.915788	-0.914547
H145	H	-0.164008	0.954636	-0.860030
H146	H	-0.157142	0.882458	-0.860303
C147	C	-0.533173	0.989494	-0.386089
H148	H	-0.562129	1.013348	-0.409986
H149	H	-0.507508	1.016800	-0.362147
H150	H	-0.507542	0.965497	-0.413362
C151	C	-0.218358	0.989727	-0.935333
H152	H	-0.224144	0.983989	-0.891675
H153	H	-0.176060	0.980582	-0.946049
H154	H	-0.227563	1.031821	-0.946076
C155	C	-0.671483	0.821337	-0.217654
H156	H	-0.642528	0.797471	-0.193768
H157	H	-0.697115	0.845326	-0.190380
H158	H	-0.697148	0.794032	-0.241604
C159	C	-0.218497	0.989719	-0.531700
H160	H	-0.194506	1.013594	-0.560567
H161	H	-0.242579	1.017003	-0.506184
H162	H	-0.191078	0.965762	-0.506167
C163	C	-0.218308	0.989727	-1.072745
H164	H	-0.194345	1.013611	-1.043896
H165	H	-0.190873	0.965780	-1.098260
H166	H	-0.242381	1.017013	-1.098282
