data_functionalizedCrystal
_audit_creation_method	'MofGen! by Chris Wilmer'
_symmetry_space_group_name_H-M	'P1'
_symmetry_Int_Tables_number	1
_symmetry_cell_setting	triclinic
loop_
_symmetry_equiv_pos_as_xyz
  x,y,z
_cell_length_a	17.077404
_cell_length_b	18.101395
_cell_length_c	17.077396
_cell_angle_alpha	90.027467
_cell_angle_beta	90.019501
_cell_angle_gamma	90.031329
loop_
_atom_site_label
_atom_site_type_symbol
_atom_site_fract_x
_atom_site_fract_y
_atom_site_fract_z
Zn1	Zn	1.200010	-0.294825	0.443848
Zn2	Zn	1.199898	-0.418674	0.312585
Zn3	Zn	1.068742	-0.294851	0.312596
Zn4	Zn	1.068691	-0.418630	0.443808
O5	O	1.134335	-0.356745	0.378209
O6	O	1.309842	-0.311261	0.426448
O7	O	1.182474	-0.402278	0.202739
O8	O	1.086223	-0.191215	0.330029
O9	O	1.309760	-0.402253	0.330009
O10	O	1.182665	-0.191196	0.426459
O11	O	1.086114	-0.311306	0.202748
O12	O	0.958888	-0.311263	0.329990
O13	O	1.086136	-0.402178	0.553660
O14	O	0.958851	-0.402203	0.426391
O15	O	1.182616	-0.311219	0.553690
O16	O	1.182425	-0.522301	0.329970
O17	O	1.086028	-0.522269	0.426379
C18	C	0.930387	-0.356732	0.378188
C19	C	0.843137	-0.356744	0.378197
C20	C	0.802148	-0.404167	0.428312
C21	C	0.720168	-0.404169	0.428325
C22	C	0.679178	-0.356750	0.378218
C23	C	0.720173	-0.309321	0.328100
C24	C	0.802152	-0.309316	0.328092
C25	C	0.549303	-0.309336	0.328119
C26	C	0.467318	-0.309341	0.328126
C27	C	0.467319	-0.404188	0.428352
C28	C	0.549298	-0.404184	0.428344
C29	C	0.590287	-0.356755	0.378225
C30	C	1.134230	-0.549156	0.378186
C31	C	1.134257	-0.631470	0.378203
C32	C	1.134429	-0.930561	0.378245
C33	C	1.073919	-0.899246	0.439054
C34	C	1.073632	-0.813628	0.438863
C35	C	1.134344	-0.782178	0.378225
C36	C	1.111947	-0.813330	0.295495
C37	C	1.111557	-0.898975	0.295859
C38	C	1.217469	-0.898904	0.399437
C39	C	1.216980	-0.813253	0.401252
C40	C	1.134297	-0.698319	0.378208
C41	C	1.134474	-1.014420	0.378256
C42	C	1.339079	-0.356759	0.378231
C43	C	1.426329	-0.356765	0.378241
C44	C	1.134383	-0.356690	0.582954
C45	C	1.134403	-0.356667	0.670203
C46	C	1.134462	-0.163583	0.378250
C47	C	1.134516	-0.081269	0.378267
C48	C	1.134333	-0.356746	0.174261
C49	C	1.134465	-0.356561	0.087012
C50	C	1.184642	-0.309301	0.711210
C51	C	1.184651	-0.309276	0.793191
C52	C	1.134425	-0.356622	0.834163
C53	C	1.084181	-0.403990	0.793150
C54	C	1.084168	-0.404011	0.711171
C55	C	1.084212	-0.403946	0.964021
C56	C	1.084226	-0.403927	1.046005
C57	C	1.184695	-0.309211	1.046040
C58	C	1.184683	-0.309232	0.964061
C59	C	1.134439	-0.356601	0.923054
H60	H	0.433942	-0.442804	0.469163
H61	H	0.686798	-0.442787	0.469133
H62	H	0.433946	-0.270720	0.287333
H63	H	1.225585	-0.270683	0.930704
H64	H	1.225604	-0.270640	1.079432
H65	H	1.264448	-0.791840	0.360190
C66	C	1.195630	-0.209623	0.885384
C67	C	1.239871	-0.257200	0.838258
H68	H	1.229722	-0.177466	0.913200
H69	H	1.165732	-0.237814	0.921520
H70	H	1.161442	-0.181313	0.853389
H71	H	1.274055	-0.285514	0.870254
H72	H	1.269783	-0.229006	0.802117
C73	C	0.641537	-0.414588	0.533898
C74	C	0.594356	-0.456305	0.483423
H75	H	0.669356	-0.446767	0.567900
H76	H	0.609583	-0.382369	0.563985
H77	H	0.677677	-0.386346	0.504039
H78	H	0.558212	-0.484544	0.513283
H79	H	0.626312	-0.488538	0.453333
C80	C	0.541072	-0.215596	0.229032
C81	C	0.594360	-0.257210	0.273019
H82	H	0.568890	-0.183425	0.195010
H83	H	0.509133	-0.187305	0.263284
H84	H	0.509061	-0.247839	0.198959
H85	H	0.626367	-0.224967	0.303096
H86	H	0.626312	-0.285504	0.238761
C87	C	0.793922	-0.215577	0.229012
C88	C	0.847210	-0.257193	0.272996
H89	H	0.821740	-0.183401	0.194995
H90	H	0.761980	-0.187290	0.263266
H91	H	0.761914	-0.247818	0.198934
H92	H	0.879214	-0.224952	0.303079
H93	H	0.879165	-0.285482	0.238737
C94	C	1.104217	-0.845296	0.571910
C95	C	1.092530	-0.785186	0.521677
H96	H	1.115873	-0.827738	0.623040
H97	H	1.146618	-0.874317	0.553258
H98	H	1.058077	-0.874593	0.573509
H99	H	1.138671	-0.755892	0.520074
H100	H	1.050124	-0.756153	0.540334
H101	H	0.686792	-0.270709	0.287305
H102	H	1.050855	-0.919018	0.277907
H103	H	1.087793	-0.919793	0.500595
H104	H	1.043326	-0.442478	1.079363
C105	C	0.984931	-0.497596	0.972217
C106	C	1.029002	-0.456032	0.918944
H107	H	0.950858	-0.529760	0.944387
H108	H	0.954915	-0.465326	1.004182
H109	H	1.019133	-0.525900	1.004202
H110	H	0.994800	-0.427723	0.886962
H111	H	1.059020	-0.488306	0.886965
C112	C	1.257405	-0.868407	0.530345
C113	C	1.245041	-0.927986	0.479488
H114	H	1.274426	-0.886363	0.579764
H115	H	1.209918	-0.841782	0.536702
H116	H	1.296269	-0.836677	0.509063
H117	H	1.206173	-0.959713	0.500768
H118	H	1.292534	-0.954623	0.473134
C119	C	1.144473	-0.901038	0.159194
C120	C	1.168462	-0.926967	0.232615
H121	H	1.179599	-0.918326	0.120152
H122	H	1.144337	-0.848566	0.159396
H123	H	1.093215	-0.918648	0.148237
H124	H	1.219718	-0.909351	0.243575
H125	H	1.168606	-0.979449	0.232414
C126	C	0.991232	-1.005652	0.424152
C127	C	0.991331	-0.928382	0.420340
H128	H	0.940247	-1.023638	0.412592
H129	H	1.005937	-1.020897	0.475295
H130	H	1.027437	-1.024823	0.387145
H131	H	0.955130	-0.909211	0.457351
H132	H	0.976617	-0.913130	0.369190
C133	C	0.962762	-0.743095	0.482182
C134	C	0.990541	-0.786054	0.419909
H135	H	0.911461	-0.726078	0.470478
H136	H	0.996490	-0.701972	0.489796
H137	H	0.961483	-0.772106	0.528503
H138	H	0.991826	-0.757041	0.373589
H139	H	0.956804	-0.827182	0.412285
H140	H	1.051888	-0.791945	0.277221
H141	H	1.154633	-0.792959	0.248952
H142	H	1.233870	-0.792890	0.462136
C143	C	1.281061	-1.003545	0.340984
C144	C	1.278337	-0.926244	0.339661
H145	H	1.318638	-1.020425	0.304083
H146	H	1.231012	-1.022844	0.327872
H147	H	1.295393	-1.019788	0.391894
H148	H	1.263999	-0.910001	0.288752
H149	H	1.328396	-0.906938	0.352768
C150	C	0.984882	-0.497651	0.719366
C151	C	1.028958	-0.456090	0.666094
H152	H	0.950802	-0.529807	0.691536
H153	H	0.954874	-0.465378	0.751336
H154	H	1.019082	-0.525962	0.751347
H155	H	0.994758	-0.427774	0.634116
H156	H	1.058968	-0.488367	0.634110
C157	C	1.283945	-0.215672	0.719487
C158	C	1.239851	-0.257254	0.666178
H159	H	1.318024	-0.183535	0.691686
H160	H	1.313954	-0.247931	0.751458
H161	H	1.249757	-0.187338	0.751464
H162	H	1.274038	-0.285593	0.634204
H163	H	1.209839	-0.224991	0.634194
H164	H	1.043283	-0.442538	0.826517
H165	H	0.835516	-0.442784	0.469113
