data_functionalizedCrystal
_audit_creation_method	'MofGen! by Chris Wilmer'
_symmetry_space_group_name_H-M	'P1'
_symmetry_Int_Tables_number	1
_symmetry_cell_setting	triclinic
loop_
_symmetry_equiv_pos_as_xyz
  x,y,z
_cell_length_a	21.295418
_cell_length_b	18.050589
_cell_length_c	18.050583
_cell_angle_alpha	89.971909
_cell_angle_beta	90.037417
_cell_angle_gamma	89.955964
loop_
_atom_site_label
_atom_site_type_symbol
_atom_site_fract_x
_atom_site_fract_y
_atom_site_fract_z
Zn1	Zn	0.962327	0.295321	0.420315
Zn2	Zn	1.212327	0.545321	0.670315
Zn3	Zn	1.462327	0.795321	0.920315
Zn4	Zn	1.712327	1.045321	1.170315
Zn5	Zn	0.962245	0.419525	0.296135
Zn6	Zn	1.212245	0.669525	0.546135
Zn7	Zn	1.462245	0.919525	0.796135
Zn8	Zn	1.712245	1.169525	1.046135
Zn9	Zn	0.857061	0.295388	0.296098
Zn10	Zn	1.107061	0.545388	0.546098
Zn11	Zn	1.357061	0.795388	0.796098
Zn12	Zn	1.607061	1.045388	1.046098
Zn13	Zn	0.857023	0.419508	0.420242
Zn14	Zn	1.107023	0.669508	0.670242
Zn15	Zn	1.357023	0.919508	0.920242
Zn16	Zn	1.607023	1.169508	1.170242
O17	O	0.909664	0.357435	0.358197
O18	O	1.159664	0.607435	0.608197
O19	O	1.409664	0.857435	0.858197
O20	O	1.659664	1.107435	1.108197
O21	O	1.050405	0.311776	0.403889
O22	O	1.300405	0.561776	0.653889
O23	O	1.550405	0.811776	0.903889
O24	O	1.800405	1.061776	1.153889
O25	O	0.948274	0.403094	0.192205
O26	O	1.198274	0.653094	0.442205
O27	O	1.448274	0.903094	0.692205
O28	O	1.698274	1.153094	0.942205
O29	O	0.871075	0.191454	0.312591
O30	O	1.121075	0.441454	0.562591
O31	O	1.371075	0.691454	0.812591
O32	O	1.621075	0.941454	1.062591
O33	O	1.050345	0.403029	0.312654
O34	O	1.300345	0.653029	0.562654
O35	O	1.550345	0.903029	0.812654
O36	O	1.800345	1.153029	1.062654
O37	O	0.948413	0.191405	0.403853
O38	O	1.198413	0.441405	0.653853
O39	O	1.448413	0.691405	0.903853
O40	O	1.698413	0.941405	1.153853
O41	O	0.870996	0.311891	0.192178
O42	O	1.120996	0.561891	0.442178
O43	O	1.370996	0.811891	0.692178
O44	O	1.620996	1.061891	0.942178
O45	O	0.768967	0.311873	0.312520
O46	O	1.018967	0.561873	0.562520
O47	O	1.268967	0.811873	0.812520
O48	O	1.518967	1.061873	1.062520
O49	O	0.871010	0.402998	0.524176
O50	O	1.121010	0.652998	0.774176
O51	O	1.371010	0.902998	1.024176
O52	O	1.621010	1.152998	1.274176
O53	O	0.768939	0.403064	0.403727
O54	O	1.018939	0.653064	0.653727
O55	O	1.268939	0.903064	0.903727
O56	O	1.518939	1.153064	1.153727
O57	O	0.948376	0.311759	0.524230
O58	O	1.198376	0.561759	0.774230
O59	O	1.448376	0.811759	1.024230
O60	O	1.698376	1.061759	1.274230
O61	O	0.948237	0.523448	0.312582
O62	O	1.198237	0.773448	0.562582
O63	O	1.448237	1.023448	0.812582
O64	O	1.698237	1.273448	1.062582
O65	O	0.870931	0.523435	0.403763
O66	O	1.120931	0.773435	0.653763
O67	O	1.370931	1.023435	0.903763
O68	O	1.620931	1.273435	1.153763
C69	C	0.909588	0.550388	0.358185
C70	C	1.159588	0.800388	0.608185
C71	C	1.409588	1.050388	0.858185
C72	C	1.659588	1.300388	1.108185
C73	C	0.909613	0.632933	0.358205
C74	C	1.159613	0.882933	0.608205
C75	C	1.409613	1.132933	0.858205
C76	C	1.659613	1.382933	1.108205
C77	C	0.746112	0.357474	0.358112
C78	C	0.996112	0.607474	0.608112
C79	C	1.246112	0.857474	0.858112
C80	C	1.496112	1.107474	1.108112
C81	C	0.676144	0.357509	0.358093
C82	C	0.926144	0.607509	0.608093
C83	C	1.176144	0.857509	0.858093
C84	C	1.426144	1.107509	1.108093
C85	C	0.909698	0.357369	0.551903
C86	C	1.159698	0.607369	0.801903
C87	C	1.409698	0.857369	1.051903
C88	C	1.659698	1.107369	1.301903
C89	C	0.909713	0.357341	0.634449
C90	C	1.159713	0.607341	0.884449
C91	C	1.409713	0.857341	1.134449
C92	C	1.659713	1.107341	1.384449
C93	C	0.643280	0.405055	0.405514
C94	C	0.893280	0.655055	0.655514
C95	C	1.143280	0.905055	0.905514
C96	C	1.393280	1.155055	1.155514
C97	C	0.577537	0.405036	0.405547
C98	C	0.827537	0.655036	0.655547
C99	C	1.077537	0.905036	0.905547
C100	C	1.327537	1.155036	1.155547
C101	C	0.544662	0.357480	0.358146
C102	C	0.794662	0.607480	0.608146
C103	C	1.044662	0.857480	0.858146
C104	C	1.294662	1.107480	1.108146
C105	C	0.577534	0.309925	0.310722
C106	C	0.827534	0.559925	0.560722
C107	C	1.077534	0.809925	0.810722
C108	C	1.327534	1.059925	1.060722
C109	C	0.643276	0.309940	0.310695
C110	C	0.893276	0.559940	0.560695
C111	C	1.143276	0.809940	0.810695
C112	C	1.393276	1.059940	1.060695
N113	N	0.441392	0.351684	0.293191
N114	N	0.691392	0.601684	0.543191
N115	N	0.941392	0.851684	0.793191
N116	N	1.191392	1.101684	1.043191
N117	N	0.378940	0.351675	0.293218
N118	N	0.628940	0.601675	0.543218
N119	N	0.878940	0.851675	0.793218
N120	N	1.128940	1.101675	1.043218
C121	C	0.346587	0.357433	0.358225
C122	C	0.596587	0.607433	0.608225
C123	C	0.846587	0.857433	0.858225
C124	C	1.096587	1.107433	1.108225
N125	N	0.379045	0.363215	0.423205
N126	N	0.629045	0.613215	0.673205
N127	N	0.879045	0.863215	0.923205
N128	N	1.129045	1.113215	1.173205
N129	N	0.441502	0.363228	0.423177
N130	N	0.691502	0.613228	0.673177
N131	N	0.941502	0.863228	0.923177
N132	N	1.191502	1.113228	1.173177
C133	C	0.473376	0.357459	0.358170
C134	C	0.723376	0.607459	0.608170
C135	C	0.973376	0.857459	0.858170
C136	C	1.223376	1.107459	1.108170
C137	C	0.242437	0.404961	0.405686
C138	C	0.492437	0.654961	0.655686
C139	C	0.742437	0.904961	0.905686
C140	C	0.992437	1.154961	1.155686
C141	C	0.176693	0.404938	0.405721
C142	C	0.426693	0.654938	0.655721
C143	C	0.676693	0.904938	0.905721
C144	C	0.926693	1.154938	1.155721
C145	C	0.176692	0.309831	0.310889
C146	C	0.426692	0.559831	0.560889
C147	C	0.676692	0.809831	0.810889
C148	C	0.926692	1.059831	1.060889
C149	C	0.242434	0.309850	0.310861
C150	C	0.492434	0.559850	0.560861
C151	C	0.742434	0.809850	0.810861
C152	C	0.992434	1.059850	1.060861
C153	C	0.275303	0.357419	0.358259
C154	C	0.525303	0.607419	0.608259
C155	C	0.775303	0.857419	0.858259
C156	C	1.025303	1.107419	1.108259
C157	C	1.073854	0.357397	0.358284
C158	C	1.323854	0.607397	0.608284
C159	C	1.573854	0.857397	0.858284
C160	C	1.823854	1.107397	1.108284
C161	C	1.143822	0.357380	0.358320
C162	C	1.393822	0.607380	0.608320
C163	C	1.643822	0.857380	0.858320
C164	C	1.893822	1.107380	1.108320
C165	C	0.909757	0.163730	0.358226
C166	C	1.159757	0.413730	0.608226
C167	C	1.409757	0.663730	0.858226
C168	C	1.659757	0.913730	1.108226
C169	C	0.909797	0.081184	0.358238
C170	C	1.159797	0.331184	0.608238
C171	C	1.409797	0.581184	0.858238
C172	C	1.659797	0.831184	1.108238
C173	C	0.867616	0.832404	0.407771
C174	C	1.117616	1.082404	0.657771
C175	C	1.367616	1.332404	0.907771
C176	C	1.617616	1.582404	1.157771
C177	C	0.852272	0.881854	0.339998
C178	C	1.102272	1.131854	0.589998
C179	C	1.352272	1.381854	0.839998
C180	C	1.602272	1.631854	1.089998
C181	C	0.909675	0.784064	0.358214
C182	C	1.159675	1.034064	0.608214
C183	C	1.409675	1.284064	0.858214
C184	C	1.659675	1.534064	1.108214
C185	C	0.925049	0.881695	0.425996
C186	C	1.175049	1.131695	0.675996
C187	C	1.425049	1.381695	0.925996
C188	C	1.675049	1.631695	1.175996
C189	C	0.909733	0.930049	0.358230
C190	C	1.159733	1.180049	0.608230
C191	C	1.409733	1.430049	0.858230
C192	C	1.659733	1.680049	1.108230
C193	C	0.894301	0.832427	0.290405
C194	C	1.144301	1.082427	0.540405
C195	C	1.394301	1.332427	0.790405
C196	C	1.644301	1.582427	1.040405
C197	C	0.967105	0.832263	0.376448
C198	C	1.217105	1.082263	0.626448
C199	C	1.467105	1.332263	0.876448
C200	C	1.717105	1.582263	1.126448
C201	C	0.951784	0.881691	0.308628
C202	C	1.201784	1.131691	0.558628
C203	C	1.451784	1.381691	0.808628
C204	C	1.701784	1.631691	1.058628
C205	C	0.909640	0.699965	0.358206
C206	C	1.159640	0.949965	0.608206
C207	C	1.409640	1.199965	0.858206
C208	C	1.659640	1.449965	1.108206
C209	C	0.909769	1.014145	0.358230
C210	C	1.159769	1.264145	0.608230
C211	C	1.409769	1.514145	0.858230
C212	C	1.659769	1.764145	1.108230
C213	C	0.909666	0.357448	0.165245
C214	C	1.159666	0.607448	0.415245
C215	C	1.409666	0.857448	0.665245
C216	C	1.659666	1.107448	0.915245
C217	C	0.909774	0.357267	0.082700
C218	C	1.159774	0.607267	0.332700
C219	C	1.409774	0.857267	0.582700
C220	C	1.659774	1.107267	0.832700
C221	C	0.951824	0.307674	0.883304
C222	C	1.201824	0.557674	1.133304
C223	C	1.451824	0.807674	1.383304
C224	C	1.701824	1.057674	1.633304
C225	C	0.967184	0.375433	0.833901
C226	C	1.217184	0.625433	1.083901
C227	C	1.467184	0.875433	1.333901
C228	C	1.717184	1.125433	1.583901
C229	C	0.909753	0.357293	0.931570
C230	C	1.159753	0.607293	1.181570
C231	C	1.409753	0.857293	1.431570
C232	C	1.659753	1.107293	1.681570
C233	C	0.894402	0.289563	0.833891
C234	C	1.144402	0.539563	1.083891
C235	C	1.394402	0.789563	1.333891
C236	C	1.644402	1.039563	1.583891
C237	C	0.909735	0.357313	0.785584
C238	C	1.159735	0.607313	1.035584
C239	C	1.409735	0.857313	1.285584
C240	C	1.659735	1.107313	1.535584
C241	C	0.925144	0.425087	0.883254
C242	C	1.175144	0.675087	1.133254
C243	C	1.425144	0.925087	1.383254
C244	C	1.675144	1.175087	1.633254
C245	C	0.852335	0.339171	0.883248
C246	C	1.102335	0.589171	1.133248
C247	C	1.352335	0.839171	1.383248
C248	C	1.602335	1.089171	1.633248
C249	C	0.867674	0.406977	0.833867
C250	C	1.117674	0.656977	1.083867
C251	C	1.367674	0.906977	1.333867
C252	C	1.617674	1.156977	1.583867
C253	C	0.909766	0.357281	1.015668
C254	C	1.159766	0.607281	1.265668
C255	C	1.409766	0.857281	1.515668
C256	C	1.659766	1.107281	1.765668
C257	C	0.909723	0.357333	0.701488
C258	C	1.159723	0.607333	0.951488
C259	C	1.409723	0.857333	1.201488
C260	C	1.659723	1.107333	1.451488
H261	H	0.550773	0.443753	0.444166
H262	H	0.800773	0.693753	0.694166
H263	H	1.050773	0.943753	0.944166
H264	H	1.300773	1.193753	1.194166
O265	O	0.877036	0.803888	0.214459
O266	O	1.127036	1.053888	0.464459
O267	O	1.377036	1.303888	0.714459
O268	O	1.627036	1.553888	0.964459
H269	H	0.829542	0.824243	0.199279
H270	H	1.079542	1.074243	0.449279
H271	H	1.329542	1.324243	0.699279
H272	H	1.579542	1.574243	0.949279
H273	H	0.938030	0.903336	0.483311
H274	H	1.188030	1.153336	0.733311
H275	H	1.438030	1.403336	0.983311
H276	H	1.688030	1.653336	1.233311
H277	H	0.803732	0.903653	0.324590
H278	H	1.053732	1.153653	0.574590
H279	H	1.303732	1.403653	0.824590
H280	H	1.553732	1.653653	1.074590
H281	H	0.881427	0.232275	0.812205
H282	H	1.131427	0.482275	1.062205
H283	H	1.381427	0.732275	1.312205
H284	H	1.631427	0.982275	1.562205
O285	O	0.820437	0.803728	0.463207
O286	O	1.070437	1.053728	0.713207
O287	O	1.320437	1.303728	0.963207
O288	O	1.570437	1.553728	1.213207
H289	H	0.821146	0.742243	0.463080
H290	H	1.071146	0.992243	0.713080
H291	H	1.321146	1.242243	0.963080
H292	H	1.571146	1.492243	1.213080
O293	O	0.788042	0.318828	0.911979
O294	O	1.038042	0.568828	1.161979
O295	O	1.288042	0.818828	1.411979
O296	O	1.538042	1.068828	1.661979
H297	H	0.769236	0.365159	0.945763
H298	H	1.019236	0.615159	1.195763
H299	H	1.269236	0.865159	1.445763
H300	H	1.519236	1.115159	1.695763
H301	H	0.269193	0.271137	0.272242
H302	H	0.519193	0.521137	0.522242
H303	H	0.769193	0.771137	0.772242
H304	H	1.019193	1.021137	1.022242
H305	H	0.149925	0.271106	0.272298
H306	H	0.399925	0.521106	0.522298
H307	H	0.649925	0.771106	0.772298
H308	H	0.899925	1.021106	1.022298
O309	O	0.998931	0.910184	0.253063
O310	O	1.248931	1.160184	0.503063
O311	O	1.498931	1.410184	0.753063
O312	O	1.748931	1.660184	1.003063
H313	H	1.046412	0.889433	0.267755
H314	H	1.296412	1.139433	0.517755
H315	H	1.546412	1.389433	0.767755
H316	H	1.796412	1.639433	1.017755
H317	H	1.015634	0.810466	0.391889
H318	H	1.265634	1.060466	0.641889
H319	H	1.515634	1.310466	0.891889
H320	H	1.765634	1.560466	1.141889
H321	H	0.987436	0.265757	0.905009
H322	H	1.237436	0.515757	1.155009
H323	H	1.487436	0.765757	1.405009
H324	H	1.737436	1.015757	1.655009
H325	H	0.550763	0.271204	0.272129
H326	H	0.800763	0.521204	0.522129
H327	H	1.050763	0.771204	0.772129
H328	H	1.300763	1.021204	1.022129
H329	H	0.269200	0.443691	0.444284
H330	H	0.519200	0.693691	0.694284
H331	H	0.769200	0.943691	0.944284
H332	H	1.019200	1.193691	1.194284
H333	H	0.670037	0.443788	0.444110
H334	H	0.920037	0.693788	0.694110
H335	H	1.170037	0.943788	0.944110
H336	H	1.420037	1.193788	1.194110
H337	H	0.670034	0.271220	0.272079
H338	H	0.920034	0.521220	0.522079
H339	H	1.170034	0.771220	0.772079
H340	H	1.420034	1.021220	1.022079
H341	H	0.149936	0.443654	0.444341
H342	H	0.399936	0.693654	0.694341
H343	H	0.649936	0.943654	0.944341
H344	H	0.899936	1.193654	1.194341
O345	O	1.031489	0.395762	0.805182
O346	O	1.281489	0.645762	1.055182
O347	O	1.531489	0.895762	1.305182
O348	O	1.781489	1.145762	1.555182
H349	H	1.049899	0.349867	0.770512
H350	H	1.299899	0.599867	1.020512
H351	H	1.549899	0.849867	1.270512
H352	H	1.799899	1.099867	1.520512
O353	O	0.942413	0.500994	0.911845
O354	O	1.192413	0.750994	1.161845
O355	O	1.442413	1.000994	1.411845
O356	O	1.692413	1.250994	1.661845
H357	H	0.942310	0.500382	0.973333
H358	H	1.192310	0.750382	1.223333
H359	H	1.442310	1.000382	1.473333
H360	H	1.692310	1.250382	1.723333
O361	O	0.820544	0.462629	0.805273
O362	O	1.070544	0.712629	1.055273
O363	O	1.320544	0.962629	1.305273
O364	O	1.570544	1.212629	1.555273
H365	H	0.833430	0.518781	0.825145
H366	H	1.083430	0.768781	1.075145
H367	H	1.333430	1.018781	1.325145
H368	H	1.583430	1.268781	1.575145
