data_functionalizedCrystal
_audit_creation_method	'MofGen! by Chris Wilmer'
_symmetry_space_group_name_H-M	'P1'
_symmetry_Int_Tables_number	1
_symmetry_cell_setting	triclinic
loop_
_symmetry_equiv_pos_as_xyz
  x,y,z
_cell_length_a	16.109302
_cell_length_b	16.109301
_cell_length_c	15.186229
_cell_angle_alpha	89.986602
_cell_angle_beta	90.009858
_cell_angle_gamma	96.538369
loop_
_atom_site_label
_atom_site_type_symbol
_atom_site_fract_x
_atom_site_fract_y
_atom_site_fract_z
O1	O	1.103135	-0.106878	0.073271
O2	O	0.861073	-0.120177	0.073264
O3	O	0.988753	0.007503	0.073259
O4	O	0.975454	-0.234559	0.073276
O5	O	0.988736	0.007524	-0.073198
O6	O	0.861055	-0.120156	-0.073193
O7	O	1.103117	-0.106858	-0.073186
Zn8	Zn	0.982084	-0.113504	-0.096443
Zn9	Zn	0.982106	-0.113531	0.096521
O10	O	0.975437	-0.234538	-0.073181
C11	C	0.830089	-0.119628	0.000035
C12	C	0.737794	-0.118013	0.000032
C13	C	0.525444	-0.114266	-0.079793
C14	C	0.438724	-0.112739	-0.079790
C15	C	0.438753	-0.112766	0.079885
C16	C	0.525472	-0.114287	0.079881
C17	C	0.568815	-0.115041	0.000039
C18	C	0.395375	-0.111994	0.000046
C19	C	0.301350	-0.110338	0.000050
C20	C	0.662847	-0.116695	0.000035
C21	C	0.988206	0.038488	0.000030
C22	C	0.986591	0.130784	0.000028
C23	C	1.134101	-0.107407	0.000045
C24	C	1.226396	-0.109022	0.000054
N25	N	0.982074	-0.113485	-0.228136
C26	C	0.975984	-0.265523	0.000050
C27	C	0.977599	-0.357819	0.000057
C28	C	1.058599	0.353056	0.000044
C29	C	1.057074	0.439776	0.000052
C30	C	0.905586	0.419902	0.000044
C31	C	0.907111	0.333184	0.000043
C32	C	0.983620	0.299763	0.000039
C33	C	0.980571	0.473202	0.000047
C34	C	0.978918	0.567228	0.000055
C35	C	0.985273	0.205731	0.000033
C36	C	0.931693	-0.063082	-0.546093
C37	C	0.931686	-0.063070	-0.453903
C38	C	1.032509	-0.163949	-0.453835
C39	C	1.032520	-0.163956	-0.546023
C40	C	0.982107	-0.113524	-0.592150
C41	C	0.982089	-0.113505	-0.407772
C42	C	0.982082	-0.113492	-0.307816
C43	C	0.982116	-0.113535	-0.692112
N44	N	0.982123	-0.113543	0.228214
H45	H	0.403453	-0.112153	0.144890
H46	H	1.120897	0.325848	0.000043
O47	O	0.572188	-0.115080	-0.165908
H48	H	0.619131	-0.059145	-0.169734
O49	O	0.877332	-0.008651	-0.404216
H50	H	0.832642	-0.048482	-0.362196
O51	O	1.086870	-0.218355	-0.404086
H52	H	1.078385	-0.209885	-0.332244
H53	H	1.118130	0.483165	0.000058
O54	O	0.391918	-0.112132	-0.165899
H55	H	0.324325	-0.111021	-0.152487
O56	O	0.572261	-0.115126	0.165990
H57	H	0.527553	-0.114359	0.221510
H58	H	0.846050	0.289790	0.000041
O59	O	0.823067	0.455948	0.000030
H60	H	0.834602	0.525202	0.000019
O61	O	0.877346	-0.008667	-0.595848
H62	H	0.842301	0.026422	-0.548330
O63	O	1.086896	-0.218365	-0.595710
H64	H	1.121940	-0.253442	-0.548149
