data_functionalizedCrystal
_audit_creation_method	'MofGen! by Chris Wilmer'
_symmetry_space_group_name_H-M	'P1'
_symmetry_Int_Tables_number	1
_symmetry_cell_setting	triclinic
loop_
_symmetry_equiv_pos_as_xyz
  x,y,z
_cell_length_a	16.625548
_cell_length_b	16.120484
_cell_length_c	16.625539
_cell_angle_alpha	87.131385
_cell_angle_beta	90.020568
_cell_angle_gamma	92.926626
loop_
_atom_site_label
_atom_site_type_symbol
_atom_site_fract_x
_atom_site_fract_y
_atom_site_fract_z
Zn1	Zn	1.216388	-0.331882	0.472167
Zn2	Zn	1.466388	-0.081882	0.722167
Zn3	Zn	1.716388	0.168118	0.972167
Zn4	Zn	1.966388	0.418118	1.222167
Zn5	Zn	1.209447	-0.471307	0.344164
Zn6	Zn	1.459447	-0.221307	0.594164
Zn7	Zn	1.709447	0.028693	0.844164
Zn8	Zn	1.959447	0.278693	1.094164
Zn9	Zn	1.081548	-0.331914	0.337349
Zn10	Zn	1.331548	-0.081914	0.587349
Zn11	Zn	1.581548	0.168086	0.837349
Zn12	Zn	1.831548	0.418086	1.087349
Zn13	Zn	1.074678	-0.471259	0.478951
Zn14	Zn	1.324678	-0.221259	0.728951
Zn15	Zn	1.574678	0.028741	0.978951
Zn16	Zn	1.824678	0.278741	1.228951
O17	O	1.145515	-0.401591	0.408158
O18	O	1.395515	-0.151591	0.658158
O19	O	1.645515	0.098409	0.908158
O20	O	1.895515	0.348409	1.158158
O21	O	1.328299	-0.350384	0.455200
O22	O	1.578299	-0.100384	0.705200
O23	O	1.828299	0.149616	0.955200
O24	O	2.078299	0.399616	1.205200
O25	O	1.192451	-0.452849	0.230429
O26	O	1.442451	-0.202849	0.480429
O27	O	1.692451	0.047151	0.730429
O28	O	1.942451	0.297151	0.980429
O29	O	1.105215	-0.215244	0.349541
O30	O	1.355215	0.034756	0.599541
O31	O	1.605215	0.284756	0.849541
O32	O	1.855215	0.534756	1.099541
O33	O	1.323200	-0.452819	0.361156
O34	O	1.573200	-0.202819	0.611156
O35	O	1.823200	0.047181	0.861156
O36	O	2.073200	0.297181	1.111156
O37	O	1.204281	-0.215221	0.448592
O38	O	1.454281	0.034779	0.698592
O39	O	1.704281	0.284779	0.948592
O40	O	1.954281	0.534779	1.198592
O41	O	1.098484	-0.350438	0.225422
O42	O	1.348484	-0.100438	0.475422
O43	O	1.598484	0.149562	0.725422
O44	O	1.848484	0.399562	0.975422
O45	O	0.967805	-0.350392	0.356120
O46	O	1.217805	-0.100392	0.606120
O47	O	1.467805	0.149608	0.856120
O48	O	1.717805	0.399608	1.106120
O49	O	1.093506	-0.452737	0.590882
O50	O	1.343506	-0.202737	0.840882
O51	O	1.593506	0.047263	1.090882
O52	O	1.843506	0.297263	1.340882
O53	O	0.962757	-0.452768	0.460155
O54	O	1.212757	-0.202768	0.710155
O55	O	1.462757	0.047232	0.960155
O56	O	1.712757	0.297232	1.210155
O57	O	1.197620	-0.350338	0.585898
O58	O	1.447620	-0.100338	0.835898
O59	O	1.697620	0.149662	1.085898
O60	O	1.947620	0.399662	1.335898
O61	O	1.185789	-0.587966	0.367735
O62	O	1.435789	-0.337966	0.617735
O63	O	1.685789	-0.087966	0.867735
O64	O	1.935789	0.162034	1.117735
O65	O	1.086775	-0.587931	0.466763
O66	O	1.336775	-0.337931	0.716763
O67	O	1.586775	-0.087931	0.966763
O68	O	1.836775	0.162069	1.216763
C69	C	0.936025	-0.401579	0.408135
C70	C	1.186025	-0.151579	0.658135
C71	C	1.436025	0.098421	0.908135
C72	C	1.686025	0.348421	1.158135
C73	C	0.846403	-0.401594	0.408145
C74	C	1.096403	-0.151594	0.658145
C75	C	1.346403	0.098406	0.908145
C76	C	1.596403	0.348406	1.158145
C77	C	0.518227	-0.401599	0.408180
C78	C	0.768227	-0.151599	0.658180
C79	C	1.018227	0.098401	0.908180
C80	C	1.268227	0.348401	1.158180
C81	C	0.609536	-0.401595	0.408167
C82	C	0.859536	-0.151595	0.658167
C83	C	1.109536	0.098405	0.908167
C84	C	1.359536	0.348405	1.158167
C85	C	0.682312	-0.401597	0.408162
C86	C	0.932312	-0.151597	0.658162
C87	C	1.182312	0.098403	0.908162
C88	C	1.432312	0.348403	1.158162
C89	C	0.773627	-0.401592	0.408150
C90	C	1.023627	-0.151592	0.658150
C91	C	1.273627	0.098408	0.908150
C92	C	1.523627	0.348408	1.158150
C93	C	1.134805	-0.618199	0.418742
C94	C	1.384805	-0.368199	0.668742
C95	C	1.634805	-0.118199	0.918742
C96	C	1.884805	0.131801	1.168742
C97	C	1.130297	-0.710865	0.423297
C98	C	1.380297	-0.460865	0.673297
C99	C	1.630297	-0.210865	0.923297
C100	C	1.880297	0.039135	1.173297
C101	C	1.122072	-0.880527	0.431630
C102	C	1.372072	-0.630527	0.681630
C103	C	1.622072	-0.380527	0.931630
C104	C	1.872072	-0.130527	1.181630
C105	C	1.169103	-0.921814	0.384698
C106	C	1.419103	-0.671814	0.634698
C107	C	1.669103	-0.421814	0.884698
C108	C	1.919103	-0.171814	1.134698
C109	C	1.164526	-1.016220	0.389335
C110	C	1.414526	-0.766220	0.639335
C111	C	1.664526	-0.516220	0.889335
C112	C	1.914526	-0.266220	1.139335
C113	C	1.126648	-0.786113	0.426995
C114	C	1.376648	-0.536113	0.676995
C115	C	1.626648	-0.286113	0.926995
C116	C	1.876648	-0.036113	1.176995
C117	C	1.355823	-0.401603	0.408181
C118	C	1.605823	-0.151603	0.658181
C119	C	1.855823	0.098397	0.908181
C120	C	2.105823	0.348397	1.158181
C121	C	1.445444	-0.401609	0.408192
C122	C	1.695444	-0.151609	0.658192
C123	C	1.945444	0.098391	0.908192
C124	C	2.195444	0.348391	1.158192
C125	C	1.145571	-0.401529	0.618464
C126	C	1.395571	-0.151529	0.868464
C127	C	1.645571	0.098471	1.118464
C128	C	1.895571	0.348471	1.368464
C129	C	1.145594	-0.401502	0.708084
C130	C	1.395594	-0.151502	0.958084
C131	C	1.645594	0.098498	1.208084
C132	C	1.895594	0.348498	1.458084
C133	C	1.156289	-0.184136	0.397549
C134	C	1.406289	0.065864	0.647549
C135	C	1.656289	0.315864	0.897549
C136	C	1.906289	0.565864	1.147549
C137	C	1.160880	-0.091470	0.393029
C138	C	1.410880	0.158530	0.643029
C139	C	1.660880	0.408530	0.893029
C140	C	1.910880	0.658530	1.143029
C141	C	1.145509	-0.401592	0.198667
C142	C	1.395509	-0.151592	0.448667
C143	C	1.645509	0.098408	0.698667
C144	C	1.895509	0.348408	0.948667
C145	C	1.145653	-0.401384	0.109036
C146	C	1.395653	-0.151384	0.359036
C147	C	1.645653	0.098616	0.609036
C148	C	1.895653	0.348616	0.859036
C149	C	1.145636	-0.401409	1.036255
C150	C	1.395636	-0.151409	1.286255
C151	C	1.645636	0.098591	1.536255
C152	C	1.895636	0.348591	1.786255
C153	C	1.145622	-0.401437	0.944948
C154	C	1.395622	-0.151437	1.194948
C155	C	1.645622	0.098563	1.444948
C156	C	1.895622	0.348563	1.694948
C157	C	1.145616	-0.401456	0.872172
C158	C	1.395616	-0.151456	1.122172
C159	C	1.645616	0.098544	1.372172
C160	C	1.895616	0.348544	1.622172
C161	C	1.145601	-0.401483	0.780859
C162	C	1.395601	-0.151483	1.030859
C163	C	1.645601	0.098517	1.280859
C164	C	1.895601	0.348517	1.530859
H165	H	1.212805	-0.886260	0.341036
H166	H	1.462805	-0.636260	0.591036
H167	H	1.712805	-0.386260	0.841036
H168	H	1.962805	-0.136260	1.091036
Cl169	Cl	1.054601	-0.935416	0.499035
Cl170	Cl	1.304601	-0.685416	0.749035
Cl171	Cl	1.554601	-0.435416	0.999035
Cl172	Cl	1.804601	-0.185416	1.249035
