data_functionalizedCrystal
_audit_creation_method	'MofGen! by Chris Wilmer'
_symmetry_space_group_name_H-M	'P1'
_symmetry_Int_Tables_number	1
_symmetry_cell_setting	triclinic
loop_
_symmetry_equiv_pos_as_xyz
  x,y,z
_cell_length_a	19.805407
_cell_length_b	19.805405
_cell_length_c	19.805399
_cell_angle_alpha	90.029301
_cell_angle_beta	90.017803
_cell_angle_gamma	90.023727
loop_
_atom_site_label
_atom_site_type_symbol
_atom_site_fract_x
_atom_site_fract_y
_atom_site_fract_z
Zn1	Zn	1.034736	-0.269527	0.382680
Zn2	Zn	1.284736	-0.019527	0.632680
Zn3	Zn	1.534736	0.230473	0.882680
Zn4	Zn	1.784736	0.480473	1.132680
Zn5	Zn	1.034650	-0.382716	0.269488
Zn6	Zn	1.284650	-0.132716	0.519488
Zn7	Zn	1.534650	0.117284	0.769488
Zn8	Zn	1.784650	0.367284	1.019488
Zn9	Zn	0.921550	-0.269541	0.269508
Zn10	Zn	1.171550	-0.019541	0.519508
Zn11	Zn	1.421550	0.230459	0.769508
Zn12	Zn	1.671550	0.480459	1.019508
Zn13	Zn	0.921514	-0.382674	0.382638
Zn14	Zn	1.171514	-0.132674	0.632638
Zn15	Zn	1.421514	0.117326	0.882638
Zn16	Zn	1.671514	0.367326	1.132638
O17	O	0.978113	-0.326115	0.326078
O18	O	1.228113	-0.076115	0.576078
O19	O	1.478113	0.173885	0.826078
O20	O	1.728113	0.423885	1.076078
O21	O	1.129441	-0.284554	0.367674
O22	O	1.379441	-0.034554	0.617674
O23	O	1.629441	0.215446	0.867674
O24	O	1.879441	0.465446	1.117674
O25	O	1.019627	-0.367726	0.174774
O26	O	1.269627	-0.117726	0.424774
O27	O	1.519627	0.132274	0.674774
O28	O	1.769627	0.382274	0.924774
O29	O	0.936615	-0.174822	0.284546
O30	O	1.186615	0.075178	0.534546
O31	O	1.436615	0.325178	0.784546
O32	O	1.686615	0.575178	1.034546
O33	O	1.129378	-0.367713	0.284512
O34	O	1.379378	-0.117713	0.534512
O35	O	1.629378	0.132287	0.784512
O36	O	1.879378	0.382287	1.034512
O37	O	1.019772	-0.174813	0.367693
O38	O	1.269772	0.075187	0.617693
O39	O	1.519772	0.325187	0.867693
O40	O	1.769772	0.575187	1.117693
O41	O	0.936533	-0.284576	0.174788
O42	O	1.186533	-0.034576	0.424788
O43	O	1.436533	0.215424	0.674788
O44	O	1.686533	0.465424	0.924788
O45	O	0.826829	-0.284536	0.284506
O46	O	1.076829	-0.034536	0.534506
O47	O	1.326829	0.215464	0.784506
O48	O	1.576829	0.465464	1.034506
O49	O	0.936553	-0.367642	0.477360
O50	O	1.186553	-0.117642	0.727360
O51	O	1.436553	0.132358	0.977360
O52	O	1.686553	0.382358	1.227360
O53	O	0.826802	-0.367655	0.367622
O54	O	1.076802	-0.117655	0.617622
O55	O	1.326802	0.132345	0.867622
O56	O	1.576802	0.382345	1.117622
O57	O	1.019737	-0.284514	0.477391
O58	O	1.269737	-0.034514	0.727391
O59	O	1.519737	0.215486	0.977391
O60	O	1.769737	0.465486	1.227391
O61	O	1.019592	-0.477427	0.284472
O62	O	1.269592	-0.227427	0.534472
O63	O	1.519592	0.022573	0.784472
O64	O	1.769592	0.272573	1.034472
O65	O	0.936471	-0.477397	0.367603
O66	O	1.186471	-0.227397	0.617603
O67	O	1.436471	0.022603	0.867603
O68	O	1.686471	0.272603	1.117603
C69	C	0.802257	-0.326093	0.326062
C70	C	1.052257	-0.076093	0.576062
C71	C	1.302257	0.173907	0.826062
C72	C	1.552257	0.423907	1.076062
C73	C	0.727025	-0.326101	0.326071
C74	C	0.977025	-0.076101	0.576071
C75	C	1.227025	0.173899	0.826071
C76	C	1.477025	0.423899	1.076071
C77	C	0.691714	-0.282876	0.369439
C78	C	0.941714	-0.032876	0.619439
C79	C	1.191714	0.217124	0.869439
C80	C	1.441714	0.467124	1.119439
C81	C	0.621025	-0.282880	0.369442
C82	C	0.871025	-0.032880	0.619442
C83	C	1.121025	0.217120	0.869442
C84	C	1.371025	0.467120	1.119442
C85	C	0.585649	-0.326112	0.326079
C86	C	0.835649	-0.076112	0.576079
C87	C	1.085649	0.173888	0.826079
C88	C	1.335649	0.423888	1.076079
C89	C	0.620965	-0.369338	0.282706
C90	C	0.870965	-0.119338	0.532706
C91	C	1.120965	0.130662	0.782706
C92	C	1.370965	0.380662	1.032706
C93	C	0.691652	-0.369330	0.282701
C94	C	0.941652	-0.119330	0.532701
C95	C	1.191652	0.130670	0.782701
C96	C	1.441652	0.380670	1.032701
C97	C	0.335892	-0.369368	0.282727
C98	C	0.585892	-0.119368	0.532727
C99	C	0.835892	0.130632	0.782727
C100	C	1.085892	0.380632	1.032727
C101	C	0.265199	-0.369374	0.282737
C102	C	0.515199	-0.119374	0.532737
C103	C	0.765199	0.130626	0.782737
C104	C	1.015199	0.380626	1.032737
C105	C	0.265265	-0.282918	0.369468
C106	C	0.515265	-0.032918	0.619468
C107	C	0.765265	0.217082	0.869468
C108	C	1.015265	0.467082	1.119468
C109	C	0.335952	-0.282910	0.369462
C110	C	0.585952	-0.032910	0.619462
C111	C	0.835952	0.217090	0.869462
C112	C	1.085952	0.467090	1.119462
C113	C	0.371262	-0.326134	0.326087
C114	C	0.621262	-0.076134	0.576087
C115	C	0.871262	0.173866	0.826087
C116	C	1.121262	0.423866	1.076087
C117	C	0.447910	-0.326128	0.326084
C118	C	0.697910	-0.076128	0.576084
C119	C	0.947910	0.173872	0.826084
C120	C	1.197910	0.423872	1.076084
C121	C	0.509002	-0.326121	0.326085
C122	C	0.759002	-0.076121	0.576085
C123	C	1.009002	0.173879	0.826085
C124	C	1.259002	0.423879	1.076085
C125	C	0.978036	-0.501971	0.326046
C126	C	1.228036	-0.251971	0.576046
C127	C	1.478036	-0.001971	0.826046
C128	C	1.728036	0.248029	1.076046
C129	C	0.978066	-0.577203	0.326054
C130	C	1.228066	-0.327203	0.576054
C131	C	1.478066	-0.077203	0.826054
C132	C	1.728066	0.172797	1.076054
C133	C	1.021389	-0.612540	0.282813
C134	C	1.271389	-0.362540	0.532813
C135	C	1.521389	-0.112540	0.782813
C136	C	1.771389	0.137460	1.032813
C137	C	1.021418	-0.683228	0.282828
C138	C	1.271418	-0.433228	0.532828
C139	C	1.521418	-0.183228	0.782828
C140	C	1.771418	0.066772	1.032828
C141	C	0.978119	-0.718578	0.326081
C142	C	1.228119	-0.468578	0.576081
C143	C	1.478119	-0.218578	0.826081
C144	C	1.728119	0.031422	1.076081
C145	C	0.934794	-0.683236	0.369327
C146	C	1.184794	-0.433236	0.619327
C147	C	1.434794	-0.183236	0.869327
C148	C	1.684794	0.066764	1.119327
C149	C	0.934769	-0.612549	0.369315
C150	C	1.184769	-0.362549	0.619315
C151	C	1.434769	-0.112549	0.869315
C152	C	1.684769	0.137451	1.119315
C153	C	0.934894	-0.968309	0.369377
C154	C	1.184894	-0.718309	0.619377
C155	C	1.434894	-0.468309	0.869377
C156	C	1.684894	-0.218309	1.119377
C157	C	0.934921	-1.039001	0.369384
C158	C	1.184921	-0.789001	0.619384
C159	C	1.434921	-0.539001	0.869384
C160	C	1.684921	-0.289001	1.119384
C161	C	1.021542	-1.038989	0.282890
C162	C	1.271542	-0.788989	0.532890
C163	C	1.521542	-0.538989	0.782890
C164	C	1.771542	-0.288989	1.032890
C165	C	1.021517	-0.968302	0.282878
C166	C	1.271517	-0.718302	0.532878
C167	C	1.521517	-0.468302	0.782878
C168	C	1.771517	-0.218302	1.032878
C169	C	0.978195	-0.932965	0.326126
C170	C	1.228195	-0.682965	0.576126
C171	C	1.478195	-0.432965	0.826126
C172	C	1.728195	-0.182965	1.076126
C173	C	0.978165	-0.856317	0.326110
C174	C	1.228165	-0.606317	0.576110
C175	C	1.478165	-0.356317	0.826110
C176	C	1.728165	-0.106317	1.076110
C177	C	0.978145	-0.795225	0.326094
C178	C	1.228145	-0.545225	0.576094
C179	C	1.478145	-0.295225	0.826094
C180	C	1.728145	-0.045225	1.076094
C181	C	1.154655	-0.326136	0.326095
C182	C	1.404655	-0.076136	0.576095
C183	C	1.654655	0.173864	0.826095
C184	C	1.904655	0.423864	1.076095
C185	C	1.229887	-0.326146	0.326102
C186	C	1.479887	-0.076146	0.576102
C187	C	1.729887	0.173854	0.826102
C188	C	1.979887	0.423854	1.076102
C189	C	0.978151	-0.326072	0.502621
C190	C	1.228151	-0.076072	0.752621
C191	C	1.478151	0.173928	1.002621
C192	C	1.728151	0.423928	1.252621
C193	C	0.978167	-0.326054	0.577853
C194	C	1.228167	-0.076054	0.827853
C195	C	1.478167	0.173946	1.077853
C196	C	1.728167	0.423946	1.327853
C197	C	0.978207	-0.149572	0.326126
C198	C	1.228207	0.100428	0.576126
C199	C	1.478207	0.350428	0.826126
C200	C	1.728207	0.600428	1.076126
C201	C	0.978248	-0.074340	0.326146
C202	C	1.228248	0.175660	0.576146
C203	C	1.478248	0.425660	0.826146
C204	C	1.728248	0.675660	1.076146
C205	C	0.978114	-0.326108	0.150222
C206	C	1.228114	-0.076108	0.400222
C207	C	1.478114	0.173892	0.650222
C208	C	1.728114	0.423892	0.900222
C209	C	0.978229	-0.325936	0.074991
C210	C	1.228229	-0.075936	0.324991
C211	C	1.478229	0.174064	0.574991
C212	C	1.728229	0.424064	0.824991
C213	C	1.021481	-0.282767	0.613214
C214	C	1.271481	-0.032767	0.863214
C215	C	1.521481	0.217233	1.113214
C216	C	1.771481	0.467233	1.363214
C217	C	1.021488	-0.282747	0.683903
C218	C	1.271488	-0.032747	0.933903
C219	C	1.521488	0.217253	1.183903
C220	C	1.771488	0.467253	1.433903
C221	C	0.978184	-0.326018	0.719229
C222	C	1.228184	-0.076018	0.969229
C223	C	1.478184	0.173982	1.219229
C224	C	1.728184	0.423982	1.469229
C225	C	0.934864	-0.369308	0.683863
C226	C	1.184864	-0.119308	0.933863
C227	C	1.434864	0.130692	1.183863
C228	C	1.684864	0.380692	1.433863
C229	C	0.934854	-0.369323	0.613176
C230	C	1.184854	-0.119323	0.863176
C231	C	1.434854	0.130677	1.113176
C232	C	1.684854	0.380677	1.363176
C233	C	0.934902	-0.369244	0.968936
C234	C	1.184902	-0.119244	1.218936
C235	C	1.434902	0.130756	1.468936
C236	C	1.684902	0.380756	1.718936
C237	C	0.934917	-0.369227	1.039628
C238	C	1.184917	-0.119227	1.289628
C239	C	1.434917	0.130773	1.539628
C240	C	1.684917	0.380773	1.789628
C241	C	1.021536	-0.282668	1.039663
C242	C	1.271536	-0.032668	1.289663
C243	C	1.521536	0.217332	1.539663
C244	C	1.771536	0.467332	1.789663
C245	C	1.021527	-0.282684	0.968976
C246	C	1.271527	-0.032684	1.218976
C247	C	1.521527	0.217316	1.468976
C248	C	1.771527	0.467316	1.718976
C249	C	0.978205	-0.325970	0.933616
C250	C	1.228205	-0.075970	1.183616
C251	C	1.478205	0.174030	1.433616
C252	C	1.728205	0.424030	1.683616
C253	C	0.978197	-0.325990	0.856968
C254	C	1.228197	-0.075990	1.106968
C255	C	1.478197	0.174010	1.356968
C256	C	1.728197	0.424010	1.606968
C257	C	0.978194	-0.326002	0.795876
C258	C	1.228194	-0.076002	1.045876
C259	C	1.478194	0.173998	1.295876
C260	C	1.728194	0.423998	1.545876
H261	H	0.592156	-0.404535	0.247397
H262	H	0.842156	-0.154535	0.497397
H263	H	1.092156	0.095465	0.747397
H264	H	1.342156	0.345465	0.997397
H265	H	0.364632	-0.404564	0.247409
H266	H	0.614632	-0.154564	0.497409
H267	H	0.864632	0.095436	0.747409
H268	H	1.114632	0.345436	0.997409
O269	O	0.729743	-0.415951	0.235927
O270	O	0.979743	-0.165951	0.485927
O271	O	1.229743	0.084049	0.735927
O272	O	1.479743	0.334049	0.985927
H273	H	0.693270	-0.446019	0.205778
H274	H	0.943270	-0.196019	0.455778
H275	H	1.193270	0.053981	0.705778
H276	H	1.443270	0.303981	0.955778
H277	H	0.236507	-0.247721	0.404783
H278	H	0.486507	0.002279	0.654783
H279	H	0.736507	0.252279	0.904783
H280	H	0.986507	0.502279	1.154783
H281	H	1.056644	-0.583763	0.247589
H282	H	1.306644	-0.333763	0.497589
H283	H	1.556644	-0.083763	0.747589
H284	H	1.806644	0.166237	0.997589
O285	O	1.068140	-0.721345	0.236186
O286	O	1.318140	-0.471345	0.486186
O287	O	1.568140	-0.221345	0.736186
O288	O	1.818140	0.028655	0.986186
H289	H	1.098237	-0.684889	0.206101
H290	H	1.348237	-0.434889	0.456101
H291	H	1.598237	-0.184889	0.706101
H292	H	1.848237	0.065111	0.956101
H293	H	0.899576	-0.404565	0.584385
H294	H	1.149576	-0.154565	0.834385
H295	H	1.399576	0.095435	1.084385
H296	H	1.649576	0.345435	1.334385
H297	H	1.056809	-0.247420	1.068462
H298	H	1.306809	0.002580	1.318462
H299	H	1.556809	0.252580	1.568462
H300	H	1.806809	0.502580	1.818462
H301	H	0.899650	-0.404465	1.068389
H302	H	1.149650	-0.154465	1.318389
H303	H	1.399650	0.095535	1.568389
H304	H	1.649650	0.345535	1.818389
H305	H	1.056773	-0.939522	0.247655
H306	H	1.306773	-0.689522	0.497655
H307	H	1.556773	-0.439522	0.747655
H308	H	1.806773	-0.189522	0.997655
H309	H	0.899492	-0.583777	0.404527
H310	H	1.149492	-0.333777	0.654527
H311	H	1.399492	-0.083777	0.904527
H312	H	1.649492	0.166223	1.154527
O313	O	0.888155	-0.415979	0.721963
O314	O	1.138155	-0.165979	0.971963
O315	O	1.388155	0.084021	1.221963
O316	O	1.638155	0.334021	1.471963
H317	H	0.835038	-0.404359	0.708394
H318	H	1.085038	-0.154359	0.958394
H319	H	1.335038	0.095641	1.208394
H320	H	1.585038	0.345641	1.458394
H321	H	1.056820	-1.067768	0.247678
H322	H	1.306820	-0.817768	0.497678
H323	H	1.556820	-0.567768	0.747678
H324	H	1.806820	-0.317768	0.997678
H325	H	1.056792	-0.247450	0.940217
H326	H	1.306792	0.002550	1.190217
H327	H	1.556792	0.252550	1.440217
H328	H	1.806792	0.502550	1.690217
O329	O	1.068189	-0.236095	0.575113
O330	O	1.318189	0.013905	0.825113
O331	O	1.568189	0.263905	1.075113
O332	O	1.818189	0.513905	1.325113
H333	H	1.098305	-0.205987	0.611581
H334	H	1.348305	0.044013	0.861581
H335	H	1.598305	0.294013	1.111581
H336	H	1.848305	0.544013	1.361581
O337	O	0.888224	-1.077133	0.416043
O338	O	1.138224	-0.827133	0.666043
O339	O	1.388224	-0.577133	0.916043
O340	O	1.638224	-0.327133	1.166043
H341	H	0.858100	-1.040686	0.446120
H342	H	1.108100	-0.790686	0.696120
H343	H	1.358100	-0.540686	0.946120
H344	H	1.608100	-0.290686	1.196120
O345	O	0.374104	-0.236280	0.416233
O346	O	0.624104	0.013720	0.666233
O347	O	0.874104	0.263720	0.916233
O348	O	1.124104	0.513720	1.166233
H349	H	0.429190	-0.243541	0.408947
H350	H	0.679190	0.006459	0.658947
H351	H	0.929190	0.256459	0.908947
H352	H	1.179190	0.506459	1.158947
H353	H	0.236398	-0.404580	0.247424
H354	H	0.486398	-0.154580	0.497424
H355	H	0.736398	0.095420	0.747424
H356	H	0.986398	0.345420	0.997424
H357	H	0.899618	-0.939544	0.404590
H358	H	1.149618	-0.689544	0.654590
H359	H	1.399618	-0.439544	0.904590
H360	H	1.649618	-0.189544	1.154590
H361	H	0.592278	-0.247684	0.404757
H362	H	0.842278	0.002316	0.654757
H363	H	1.092278	0.252316	0.904757
H364	H	1.342278	0.502316	1.154757
H365	H	1.056761	-0.247500	0.712691
H366	H	1.306761	0.002500	0.962691
H367	H	1.556761	0.252500	1.212691
H368	H	1.806761	0.502500	1.462691
O369	O	0.729869	-0.236243	0.416205
O370	O	0.979869	0.013757	0.666205
O371	O	1.229869	0.263757	0.916205
O372	O	1.479869	0.513757	1.166205
H373	H	0.693436	-0.206182	0.446355
H374	H	0.943436	0.043818	0.696355
H375	H	1.193436	0.293818	0.946355
H376	H	1.443436	0.543818	1.196355
O377	O	0.888084	-0.721358	0.415973
O378	O	1.138084	-0.471358	0.665973
O379	O	1.388084	-0.221358	0.915973
O380	O	1.638084	0.028642	1.165973
H381	H	0.895371	-0.776448	0.408710
H382	H	1.145371	-0.526448	0.658710
H383	H	1.395371	-0.276448	0.908710
H384	H	1.645371	-0.026448	1.158710
O385	O	0.888145	-0.415895	0.930801
O386	O	1.138145	-0.165895	1.180801
O387	O	1.388145	0.084105	1.430801
O388	O	1.638145	0.334105	1.680801
H389	H	0.858027	-0.445971	0.967244
H390	H	1.108027	-0.195971	1.217244
H391	H	1.358027	0.054029	1.467244
H392	H	1.608027	0.304029	1.717244
