data_functionalizedCrystal
_audit_creation_method	'MofGen! by Chris Wilmer'
_symmetry_space_group_name_H-M	'P1'
_symmetry_Int_Tables_number	1
_symmetry_cell_setting	triclinic
loop_
_symmetry_equiv_pos_as_xyz
  x,y,z
_cell_length_a	16.120530
_cell_length_b	14.908520
_cell_length_c	14.908294
_cell_angle_alpha	96.360837
_cell_angle_beta	89.451255
_cell_angle_gamma	89.416769
loop_
_atom_site_label
_atom_site_type_symbol
_atom_site_fract_x
_atom_site_fract_y
_atom_site_fract_z
Zn1	Zn	1.217778	0.460873	0.603407
Zn2	Zn	1.217685	0.603512	0.460772
Zn3	Zn	1.087709	0.444592	0.444498
Zn4	Zn	1.070710	0.603617	0.603531
O5	O	1.148470	0.528148	0.528052
O6	O	1.333710	0.486564	0.591244
O7	O	1.207519	0.575574	0.332364
O8	O	1.112116	0.320504	0.458715
O9	O	1.333641	0.591361	0.486451
O10	O	1.207677	0.332465	0.575465
O11	O	1.112026	0.458815	0.320408
O12	O	0.969510	0.458917	0.458836
O13	O	1.083143	0.591539	0.729764
O14	O	0.957020	0.575752	0.575677
O15	O	1.191194	0.486665	0.729672
O16	O	1.191035	0.729774	0.486571
O17	O	1.083053	0.729850	0.591456
C18	C	1.135211	0.762549	0.540814
C19	C	1.129612	0.862833	0.546308
C20	C	0.933202	0.515579	0.515504
C21	C	0.841107	0.510225	0.510159
C22	C	1.135283	0.540930	0.763368
C23	C	1.129663	0.546376	0.863646
C24	C	0.672488	0.500430	0.500407
C25	C	0.625286	0.555937	0.555767
C26	C	0.531461	0.550486	0.550340
C27	C	0.766322	0.505879	0.505832
C28	C	1.364579	0.540767	0.540649
C29	C	1.456672	0.546144	0.546017
C30	C	1.161803	0.292834	0.515261
C31	C	1.167485	0.192558	0.509810
C32	C	1.231638	1.051147	0.447516
C33	C	1.226380	1.145372	0.452675
C34	C	1.113845	1.145511	0.561791
C35	C	1.119102	1.051286	0.556632
C36	C	1.178000	1.004107	0.499491
C37	C	1.183252	0.909879	0.494327
C38	C	1.070721	0.910020	0.603448
C39	C	1.065464	1.004246	0.608607
C40	C	1.161658	0.515354	0.293650
C41	C	1.167452	0.509663	0.193368
C42	C	1.065489	0.608644	1.005032
C43	C	1.070767	0.603533	0.910812
C44	C	1.183283	0.494325	0.910707
C45	C	1.178005	0.499436	1.004927
C46	C	1.119106	0.556599	1.052086
C47	C	1.113832	0.561714	1.146308
C48	C	1.226344	0.452502	1.146200
C49	C	1.231622	0.447391	1.051981
H50	H	0.655341	0.607551	0.607238
N51	N	1.291792	0.389006	1.003820
N52	N	1.339663	0.342545	1.045847
H53	H	1.382162	0.301310	1.011836
N54	N	1.005320	0.667029	1.053195
N55	N	0.957447	0.713490	1.011170
H56	H	0.914946	0.754720	1.045182
N57	N	1.005302	1.052426	0.666981
N58	N	1.006648	1.046701	0.749972
H59	H	0.964155	1.080724	0.791199
H60	H	0.642435	0.448820	0.448940
H61	H	1.231208	0.871467	0.447798
H62	H	1.279589	1.012732	0.400983
N63	N	1.281178	1.193409	0.399580
N64	N	1.333759	1.151270	0.348569
H65	H	1.372463	1.185196	0.311068
H66	H	1.065898	1.183941	0.608319
H67	H	1.065876	0.608261	1.184704
H68	H	1.027043	0.871709	0.645767
H69	H	1.027101	0.645908	0.872503
N70	N	1.243429	0.435935	0.862511
N71	N	1.248125	0.431377	0.778387
H72	H	1.290603	0.390138	0.744347
N73	N	1.281116	0.399346	1.194280
N74	N	1.276401	0.403920	1.278404
H75	H	1.315084	0.366383	1.312363
