data_functionalizedCrystal
_audit_creation_method	'MofGen! by Chris Wilmer'
_symmetry_space_group_name_H-M	'P1'
_symmetry_Int_Tables_number	1
_symmetry_cell_setting	triclinic
loop_
_symmetry_equiv_pos_as_xyz
  x,y,z
_cell_length_a	19.288835
_cell_length_b	10.654550
_cell_length_c	9.130313
_cell_angle_alpha	90.004127
_cell_angle_beta	90.012492
_cell_angle_gamma	83.804445
loop_
_atom_site_label
_atom_site_type_symbol
_atom_site_fract_x
_atom_site_fract_y
_atom_site_fract_z
O1	O	-0.922386	-0.156474	-0.122086
O2	O	-0.720261	-0.177646	-0.122026
O3	O	-0.825971	0.015780	-0.122049
O4	O	-0.816676	-0.349900	-0.122064
O5	O	-0.825962	0.015784	0.121550
O6	O	-0.720252	-0.177642	0.121572
O7	O	-0.922377	-0.156470	0.121512
Cu8	Cu	-0.821314	-0.167055	0.143785
Cu9	Cu	-0.821324	-0.167060	-0.144299
O10	O	-0.816668	-0.349895	0.121535
C11	C	-0.694375	-0.176969	-0.000219
C12	C	-0.617257	-0.174943	-0.000196
C13	C	-0.581052	-0.173972	-0.132984
C14	C	-0.508592	-0.172054	-0.132998
C15	C	-0.472343	-0.171082	-0.000218
C16	C	-0.508556	-0.172060	0.132588
C17	C	-0.581014	-0.173991	0.132598
C18	C	-0.362510	-0.094467	0.101498
C19	C	-0.290054	-0.092529	0.101482
C20	C	-0.248859	-0.165134	-0.000245
C21	C	-0.280131	-0.239661	-0.101980
C22	C	-0.352588	-0.241591	-0.101970
C23	C	-0.393775	-0.168990	-0.000214
C24	C	-0.134085	-0.162085	-0.133058
C25	C	-0.061623	-0.160175	-0.133067
C26	C	-0.061590	-0.160169	0.132523
C27	C	-0.134049	-0.162091	0.132528
C28	C	-0.170293	-0.163044	-0.000266
C29	C	0.051738	-0.157155	-0.000286
C30	C	-0.025379	-0.159205	-0.000285
C31	C	-0.825284	0.062565	-0.000250
C32	C	-0.823242	0.201964	-0.000251
C33	C	-0.817354	-0.396681	-0.000268
C34	C	-0.819396	-0.536080	-0.000275
N35	N	-0.821312	-0.167051	0.346408
C36	C	-0.885482	0.282794	-0.000270
C37	C	-0.883560	0.413774	-0.000288
C38	C	-0.757151	0.383080	-0.000261
C39	C	-0.759075	0.252103	-0.000254
C40	C	-0.868136	-0.081438	0.423050
C41	C	-0.868142	-0.081439	0.576386
C42	C	-0.774498	-0.252676	0.576426
C43	C	-0.774489	-0.252669	0.423092
N44	N	-0.821327	-0.167059	0.653078
H45	H	-0.479108	-0.171265	-0.241133
H46	H	-0.736377	-0.322386	0.638877
H47	H	-0.032075	-0.159385	0.240636
Br48	Br	-0.183189	-0.163406	0.312751
H49	H	-0.032146	-0.159392	-0.241203
Br50	Br	-0.931680	0.034760	0.318984
Br51	Br	-0.931688	0.034761	0.680398
H52	H	-0.704908	0.423919	-0.000260
H53	H	-0.736356	-0.322386	0.360686
H54	H	-0.396045	-0.035340	0.184343
H55	H	-0.610557	-0.174747	-0.241116
H56	H	-0.937732	0.241976	-0.000271
Br57	Br	-0.674599	0.142395	-0.000248
H58	H	-0.378046	-0.302277	-0.184803
H59	H	-0.246591	-0.298788	-0.184811
H60	H	-0.610492	-0.174783	0.240734
Br61	Br	-0.183276	-0.163386	-0.313274
Br62	Br	-0.247620	0.008582	0.239578
H63	H	-0.479037	-0.171272	0.240699
H64	H	-0.934242	0.479581	-0.000306
