data_functionalizedCrystal
_audit_creation_method	'MofGen! by Chris Wilmer'
_symmetry_space_group_name_H-M	'P1'
_symmetry_Int_Tables_number	1
_symmetry_cell_setting	triclinic
loop_
_symmetry_equiv_pos_as_xyz
  x,y,z
_cell_length_a	25.639242
_cell_length_b	25.639240
_cell_length_c	19.076919
_cell_angle_alpha	87.738531
_cell_angle_beta	87.727009
_cell_angle_gamma	90.027658
loop_
_atom_site_label
_atom_site_type_symbol
_atom_site_fract_x
_atom_site_fract_y
_atom_site_fract_z
Zn1	Zn	0.787383	-0.220112	0.398053
Zn2	Zn	0.790824	-0.304033	0.280341
Zn3	Zn	0.703467	-0.216607	0.280357
Zn4	Zn	0.699916	-0.307508	0.397978
O5	O	0.745397	-0.262065	0.339182
O6	O	0.861004	-0.231257	0.382463
O7	O	0.782162	-0.289515	0.181855
O8	O	0.714645	-0.143907	0.296007
O9	O	0.863532	-0.292914	0.295981
O10	O	0.776298	-0.146483	0.382478
O11	O	0.717982	-0.225283	0.181867
O12	O	0.629832	-0.228652	0.295934
O13	O	0.708592	-0.298836	0.496476
O14	O	0.627222	-0.295437	0.382350
O15	O	0.772854	-0.234626	0.496531
O16	O	0.778718	-0.377658	0.295908
O17	O	0.711929	-0.380211	0.382335
C18	C	0.609556	-0.262042	0.339136
C19	C	0.551442	-0.262045	0.339133
C20	C	0.301595	-0.227237	0.294263
C21	C	0.356200	-0.227231	0.294254
O22	O	0.385582	-0.197604	0.256064
N23	N	0.382167	-0.262052	0.339169
C24	C	0.353528	-0.296877	0.384100
O25	O	0.380629	-0.326494	0.422303
C26	C	0.298924	-0.296879	0.384112
C27	C	0.272959	-0.262059	0.339190
C28	C	0.275630	-0.192420	0.249345
C29	C	0.221029	-0.192425	0.249353
C30	C	0.192393	-0.227248	0.294280
C31	C	0.218358	-0.262065	0.339198
C32	C	0.270285	-0.331700	0.429047
C33	C	0.215678	-0.331699	0.429055
C34	C	0.189713	-0.296880	0.384133
C35	C	0.135122	-0.296894	0.384133
N36	N	0.109154	-0.262073	0.339218
C37	C	0.137790	-0.227251	0.294292
C38	C	0.468199	-0.296869	0.384073
C39	C	0.522802	-0.296870	0.384058
C40	C	0.525470	-0.227224	0.294212
C41	C	0.470866	-0.227226	0.294224
C42	C	0.442231	-0.262048	0.339158
C43	C	0.023124	-0.227266	0.294312
C44	C	-0.031482	-0.227276	0.294322
C45	C	-0.034145	-0.296920	0.384169
C46	C	0.020456	-0.296912	0.384157
C47	C	0.049089	-0.262080	0.339226
O48	O	0.105705	-0.326505	0.422305
O49	O	0.110681	-0.197634	0.256102
C50	C	0.745325	-0.397906	0.339127
C51	C	0.745341	-0.456020	0.339127
C52	C	0.777514	-0.817690	0.384289
C53	C	0.777529	-0.872294	0.384303
O54	O	0.804797	-0.901640	0.422645
N55	N	0.745468	-0.898306	0.339250
C56	C	0.713386	-0.869710	0.294185
O57	O	0.686116	-0.896849	0.255866
C58	C	0.713368	-0.815107	0.294175
C59	C	0.745436	-0.789098	0.339226
C60	C	0.809578	-0.791681	0.429337
C61	C	0.809564	-0.737080	0.429321
C62	C	0.777485	-0.708488	0.384258
C63	C	0.745421	-0.734497	0.339210
C64	C	0.681284	-0.786512	0.249114
C65	C	0.681269	-0.731905	0.249108
C66	C	0.713336	-0.705896	0.294159
C67	C	0.713328	-0.651304	0.294132
N68	N	0.745389	-0.625292	0.339185
C69	C	0.777468	-0.653884	0.384248
C70	C	0.713424	-0.984382	0.294211
C71	C	0.713444	-1.038984	0.294217
C72	C	0.777587	-1.041564	0.384336
C73	C	0.777569	-0.986961	0.384326
C74	C	0.745485	-0.958370	0.339264
C75	C	0.777436	-0.539218	0.384212
C76	C	0.777420	-0.484612	0.384190
C77	C	0.713275	-0.482036	0.294074
C78	C	0.713293	-0.536638	0.294092
C79	C	0.745375	-0.565227	0.339167
O80	O	0.686072	-0.621924	0.255812
O81	O	0.804728	-0.626738	0.422567
C82	C	0.881769	-0.262089	0.339229
C83	C	0.939883	-0.262099	0.339248
C84	C	0.739943	-0.267510	0.522754
C85	C	0.737619	-0.269830	0.600981
C86	C	0.745484	-0.125694	0.339253
C87	C	0.745521	-0.067581	0.339283
C88	C	0.750861	-0.256604	0.156324
C89	C	0.753286	-0.254136	0.078097
C90	C	0.769983	-0.237491	0.637763
C91	C	0.767793	-0.239669	0.711266
C92	C	0.733241	-0.274190	0.747986
C93	C	0.700873	-0.306530	0.711200
C94	C	0.703061	-0.304349	0.637698
C95	C	0.723107	-0.284295	0.967809
C96	C	0.720922	-0.286475	1.041316
C97	C	0.787841	-0.219614	1.041377
C98	C	0.790029	-0.217438	0.967874
C99	C	0.757659	-0.249776	0.931094
N100	N	0.731002	-0.276418	0.823118
N101	N	0.759895	-0.247545	0.855963
H102	H	0.449729	-0.198871	0.257647
O103	O	0.187916	-0.365503	0.472804
C104	C	0.199190	-0.356223	0.542975
H105	H	0.238799	-0.336167	0.544475
H106	H	0.200118	-0.394924	0.574440
H107	H	0.167770	-0.330076	0.566753
O108	O	0.823605	-0.183857	0.932315
C109	C	0.851711	-0.155789	0.980541
H110	H	0.828737	-0.155528	1.032928
H111	H	0.857947	-0.113967	0.959328
H112	H	0.891174	-0.175175	0.988366
H113	H	0.041598	-0.325268	0.420731
O114	O	0.650044	-0.704111	0.205433
C115	C	0.615062	-0.673712	0.245446
H116	H	0.610159	-0.691789	0.300877
H117	H	0.575597	-0.672379	0.219936
H118	H	0.631141	-0.632387	0.247879
O119	O	0.553350	-0.193464	0.250538
C120	C	0.586255	-0.221826	0.204988
H121	H	0.593686	-0.262212	0.229702
H122	H	0.624939	-0.200240	0.195612
H123	H	0.566747	-0.225960	0.152817
H124	H	0.794148	-0.213337	0.741210
H125	H	0.672738	-0.334635	0.741103
O126	O	0.687322	-0.319935	1.077061
C127	C	0.652304	-0.291417	1.119565
H128	H	0.670448	-0.252128	1.130606
H129	H	0.643741	-0.314244	1.171237
H130	H	0.614406	-0.284818	1.091224
O131	O	-0.062047	-0.330695	0.427788
C132	C	-0.115808	-0.323236	0.418147
H133	H	-0.122568	-0.282181	0.395197
H134	H	-0.138116	-0.328401	0.470857
H135	H	-0.130213	-0.353094	0.380592
H136	H	0.676702	-0.330677	0.607752
H137	H	0.835700	-0.814955	0.466037
O138	O	-0.056622	-0.193400	0.250661
C139	C	-0.019633	-0.162672	0.210997
H140	H	0.018441	-0.161749	0.239826
H141	H	-0.035174	-0.121250	0.203599
H142	H	-0.012257	-0.180169	0.157494
O143	O	0.547938	-0.330716	0.427756
C144	C	0.510948	-0.361459	0.467394
H145	H	0.471961	-0.340121	0.469888
H146	H	0.525086	-0.368745	0.522830
H147	H	0.505886	-0.400371	0.441516
H148	H	0.046431	-0.198900	0.257728
O149	O	0.819227	-0.188219	1.077214
C150	C	0.809898	-0.197553	1.149963
H151	H	0.769240	-0.214969	1.159976
H152	H	0.812636	-0.159219	1.177918
H153	H	0.840273	-0.226018	1.170820
H154	H	0.199894	-0.164072	0.212773
O155	O	0.691638	-0.315753	0.932196
C156	C	0.660662	-0.346675	0.980371
H157	H	0.680524	-0.350055	1.032767
H158	H	0.655674	-0.387234	0.959105
H159	H	0.620740	-0.327742	0.988195
O160	O	0.808669	-1.069370	0.428192
C161	C	0.777529	-1.102315	0.473596
H162	H	0.736217	-1.086012	0.477878
H163	H	0.794794	-1.104509	0.527788
H164	H	0.776397	-1.143061	0.451838
H165	H	0.687337	-1.060156	0.257524
O166	O	0.682246	-0.956689	0.250361
C167	C	0.653946	-0.991362	0.210615
H168	H	0.675450	-1.030196	0.208224
H169	H	0.650045	-0.973972	0.155150
H170	H	0.613459	-0.997955	0.236331
H171	H	0.298940	-0.164060	0.212760
H172	H	0.803556	-0.562489	0.420920
O173	O	0.440331	-0.330726	0.427620
C174	C	0.409923	-0.363270	0.387470
H175	H	0.403311	-0.343187	0.334186
H176	H	0.370683	-0.371168	0.416132
H177	H	0.431185	-0.401771	0.379625
H178	H	0.803535	-0.463437	0.420876
O179	O	0.295553	-0.365449	0.472727
C180	C	0.325796	-0.337080	0.518269
H181	H	0.334730	-0.296699	0.493541
H182	H	0.363903	-0.358667	0.527658
H183	H	0.303211	-0.332933	0.570436
H184	H	0.655172	-0.807679	0.212428
H185	H	0.835674	-0.715906	0.466007
O186	O	0.808729	-0.961781	0.428160
C187	C	0.837054	-0.998732	0.467918
H188	H	0.815577	-1.037743	0.470324
H189	H	0.840944	-0.984580	0.523379
H190	H	0.877546	-1.003753	0.442205
H191	H	0.687186	-0.557815	0.257403
H192	H	0.687159	-0.458748	0.257382
O193	O	0.803561	-0.203912	0.602205
C194	C	0.831665	-0.175845	0.650434
H195	H	0.808690	-0.175587	0.702820
H196	H	0.837900	-0.134022	0.629223
H197	H	0.871128	-0.195230	0.658259
