data_functionalizedCrystal
_audit_creation_method	'MofGen! by Chris Wilmer'
_symmetry_space_group_name_H-M	'P1'
_symmetry_Int_Tables_number	1
_symmetry_cell_setting	triclinic
loop_
_symmetry_equiv_pos_as_xyz
  x,y,z
_cell_length_a	18.215405
_cell_length_b	11.169417
_cell_length_c	11.169409
_cell_angle_alpha	90.021683
_cell_angle_beta	89.960202
_cell_angle_gamma	89.976177
loop_
_atom_site_label
_atom_site_type_symbol
_atom_site_fract_x
_atom_site_fract_y
_atom_site_fract_z
Zn1	Zn	-0.292946	-1.834841	-0.678540
Zn2	Zn	0.207054	-1.334841	-0.178540
Zn3	Zn	-0.416037	-1.834679	-0.477831
Zn4	Zn	0.083963	-1.334679	0.022169
Zn5	Zn	-0.292986	-1.634127	-0.477868
Zn6	Zn	0.207014	-1.134127	0.022132
Zn7	Zn	-0.415973	-1.634083	-0.678469
Zn8	Zn	0.084027	-1.134083	-0.178469
O9	O	-0.354485	-1.734433	-0.578177
O10	O	0.145515	-1.234433	-0.078177
O11	O	-0.309284	-2.002769	-0.651930
O12	O	0.190716	-1.502769	-0.151930
O13	O	-0.399758	-1.808026	-0.309886
O14	O	0.100242	-1.308026	0.190114
O15	O	-0.189997	-1.660838	-0.504533
O16	O	0.310003	-1.160838	-0.004533
O17	O	-0.399718	-2.002651	-0.504469
O18	O	0.100282	-1.502651	-0.004469
O19	O	-0.189967	-1.808302	-0.651966
O20	O	0.310033	-1.308302	-0.151966
O21	O	-0.309353	-1.660681	-0.309913
O22	O	0.190647	-1.160681	0.190087
O23	O	-0.309291	-1.466171	-0.504464
O24	O	0.190709	-0.966171	-0.004464
O25	O	-0.399609	-1.660764	-0.846428
O26	O	0.100391	-1.160764	-0.346428
O27	O	-0.399648	-1.466140	-0.651845
O28	O	0.100352	-0.966140	-0.151845
O29	O	-0.309221	-1.808260	-0.846480
O30	O	0.190779	-1.308260	-0.346480
O31	O	-0.519012	-1.807984	-0.504401
O32	O	-0.019012	-1.307984	-0.004401
O33	O	-0.518965	-1.660607	-0.651809
O34	O	-0.018965	-1.160607	-0.151809
C35	C	-0.354468	-1.422608	-0.578151
C36	C	0.145532	-0.922608	-0.078151
C37	C	-0.354478	-1.289208	-0.578169
C38	C	0.145522	-0.789208	-0.078169
C39	C	-0.545692	-1.734306	-0.578119
C40	C	-0.045692	-1.234306	-0.078119
C41	C	-0.627490	-1.734362	-0.578135
C42	C	-0.127490	-1.234362	-0.078135
C43	C	-0.815684	-1.811281	-0.501520
C44	C	-0.315684	-1.311281	-0.001520
C45	C	-0.892543	-1.811335	-0.501550
C46	C	-0.392543	-1.311335	-0.001550
C47	C	-0.892534	-1.657738	-0.654920
C48	C	-0.392534	-1.157738	-0.154920
C49	C	-0.815677	-1.657691	-0.654896
C50	C	-0.315677	-1.157691	-0.154896
C51	C	-0.777254	-1.734461	-0.578189
C52	C	-0.277254	-1.234461	-0.078189
C53	C	-0.930970	-1.734561	-0.578242
C54	C	-0.430970	-1.234561	-0.078242
C55	C	-1.014304	-1.734619	-0.578274
C56	C	-0.514304	-1.234619	-0.078274
C57	C	-0.693915	-1.734405	-0.578159
C58	C	-0.193915	-1.234405	-0.078159
C59	C	-0.162532	-1.734593	-0.578261
C60	C	0.337468	-1.234593	-0.078261
C61	C	-0.080733	-1.734661	-0.578297
C62	C	0.419267	-1.234661	-0.078297
C63	C	-0.354404	-1.734525	-0.891220
C64	C	0.145596	-1.234525	-0.391220
C65	C	-0.354369	-1.734564	-1.024620
C66	C	0.145631	-1.234564	-0.524620
C67	C	-0.354497	-1.047475	-0.578194
C68	C	0.145503	-0.547475	-0.078194
C69	C	-0.354487	-1.180875	-0.578177
C70	C	0.145513	-0.680875	-0.078177
C71	C	-0.354514	-1.734410	-0.266352
C72	C	0.145486	-1.234410	0.233648
C73	C	-0.354341	-1.734603	-0.132953
C74	C	0.145659	-1.234603	0.367047
H75	H	-0.784402	-1.873793	-0.439063
H76	H	-0.284402	-1.373793	0.060937
H77	H	-0.923830	-1.873891	-0.439120
H78	H	-0.423830	-1.373891	0.060880
H79	H	-0.923827	-1.595233	-0.717369
H80	H	-0.423827	-1.095233	-0.217369
H81	H	-0.784385	-1.595135	-0.717335
H82	H	-0.284385	-1.095135	-0.217335
