data_functionalizedCrystal
_audit_creation_method	'MofGen! by Chris Wilmer'
_symmetry_space_group_name_H-M	'P1'
_symmetry_Int_Tables_number	1
_symmetry_cell_setting	triclinic
loop_
_symmetry_equiv_pos_as_xyz
  x,y,z
_cell_length_a	23.096457
_cell_length_b	23.096457
_cell_length_c	19.377169
_cell_angle_alpha	52.467358
_cell_angle_beta	75.504500
_cell_angle_gamma	60.000612
loop_
_atom_site_label
_atom_site_type_symbol
_atom_site_fract_x
_atom_site_fract_y
_atom_site_fract_z
Zr1	Zr	0.577425	0.633747	-0.093556
O2	O	0.508877	0.754533	-0.207367
O3	O	0.598437	0.512960	-0.058668
O4	O	0.629664	0.633747	-0.207374
O5	O	0.453019	0.633746	0.058643
O6	O	0.724946	0.633749	-0.207379
O7	O	0.477649	0.633745	-0.058661
O8	O	0.669085	0.417683	0.058629
O9	O	0.508879	0.849812	-0.207365
O10	O	0.678508	0.562643	-0.043791
O11	O	0.589019	0.562642	0.043755
O12	O	0.625785	0.704853	-0.131327
O13	O	0.536296	0.704852	-0.043782
Zr14	Zr	0.690104	0.633750	0.093523
Zr15	Zr	0.729388	0.633750	-0.093563
Zr16	Zr	0.538142	0.633747	0.093530
Zr17	Zr	0.577428	0.785706	-0.093553
Zr18	Zr	0.690101	0.481791	0.093520
O19	O	0.669092	0.754537	0.058635
O20	O	0.724948	0.754536	-0.207376
O21	O	0.453021	0.754533	0.058645
O22	O	0.758652	0.512964	0.207333
O23	O	0.814508	0.512964	-0.058678
O24	O	0.542581	0.512961	0.207343
O25	O	0.814511	0.633751	-0.058676
O26	O	0.637865	0.633750	0.207341
O27	O	0.542584	0.633748	0.207345
O28	O	0.789880	0.633751	0.058628
O29	O	0.629669	0.849814	-0.207370
O30	O	0.637860	0.417683	0.207337
O31	O	0.758650	0.417685	0.207332
O32	O	0.789875	0.417685	0.058624
O33	O	0.477654	0.849812	-0.058657
O34	O	0.598444	0.849814	-0.058662
O35	O	0.641744	0.562643	0.131294
O36	O	0.731233	0.562644	0.043748
O37	O	0.678511	0.704855	-0.043788
O38	O	0.589022	0.704854	0.043758
C39	C	0.633761	0.443670	-0.000020
C40	C	0.633759	0.379160	-0.000021
C41	C	0.443682	0.633745	-0.000008
C42	C	0.379170	0.633744	-0.000005
C43	C	0.594855	-0.028872	-0.064638
C44	C	0.594849	0.031746	-0.064637
C45	C	0.633770	0.009570	-0.000017
C46	C	0.672687	-0.073235	0.064620
C47	C	0.672687	-0.133851	0.064623
N48	N	0.691909	0.065673	0.019546
N49	N	0.691908	0.123259	0.019538
C50	C	0.633771	0.192200	-0.000020
N51	N	0.575636	0.201387	-0.019587
N52	N	0.575639	0.143797	-0.019584
C53	C	0.633774	0.075292	-0.000012
C54	C	0.594846	0.340723	-0.064649
C55	C	0.594838	0.401341	-0.064643
C56	C	0.672683	0.296357	0.064611
C57	C	0.672685	0.235742	0.064608
C58	C	0.633767	0.257930	-0.000027
C59	C	0.376387	0.559514	0.045680
C60	C	0.315771	0.559513	0.045683
C61	C	0.257942	0.633746	-0.000015
C62	C	0.260728	0.707986	-0.045701
C63	C	0.321342	0.707985	-0.045697
N64	N	0.150764	0.689002	-0.074387
N65	N	0.093185	0.688998	-0.074390
C66	C	0.075312	0.633753	-0.000030
N67	N	0.117200	0.578501	0.074332
N68	N	0.174786	0.578503	0.074333
C69	C	0.192213	0.633755	-0.000024
C70	C	0.006804	0.559517	0.045663
C71	C	-0.053816	0.559519	0.045669
C72	C	-0.108857	0.707994	-0.045724
C73	C	-0.048239	0.707990	-0.045722
C74	C	0.009589	0.633749	-0.000030
C75	C	0.823847	0.633752	-0.000025
C76	C	0.888359	0.633753	-0.000028
C77	C	0.682902	0.633748	-0.234032
C78	C	0.699579	0.633748	-0.313455
C79	C	0.633769	0.823827	-0.000013
C80	C	0.633770	0.888337	-0.000012
C81	C	0.491953	0.633748	-0.574636
C82	C	0.507633	0.633747	-0.649265
C83	C	0.612613	0.633749	-0.649269
C84	C	0.596943	0.633746	-0.574636
C85	C	0.536611	0.633747	-0.537326
C86	C	0.641601	0.633745	-0.537326
C87	C	0.625930	0.633746	-0.462702
C88	C	0.565601	0.633750	-0.425388
C89	C	0.520940	0.633749	-0.462702
C90	C	0.701930	0.633750	-0.574641
C91	C	0.746589	0.633748	-0.537331
C92	C	0.730921	0.633744	-0.462702
C93	C	0.670591	0.633747	-0.425389
C94	C	0.775581	0.633745	-0.425389
C95	C	0.759910	0.633747	-0.350765
C96	C	0.654920	0.633749	-0.350765
C97	C	0.584627	0.633749	0.233999
C98	C	0.567950	0.633749	0.313422
C99	C	0.823843	0.443674	-0.000029
C100	C	0.888353	0.379164	-0.000033
C101	C	0.584623	0.443671	0.233995
C102	C	0.567945	0.379160	0.313417
C103	C	0.774705	0.443674	0.233987
C104	C	0.822539	0.379165	0.313406
C105	C	0.492824	0.823823	-0.234020
C106	C	0.444990	0.888332	-0.313439
C107	C	0.443686	0.823823	-0.000004
C108	C	0.379176	0.888333	-0.000000
C109	C	0.682906	0.823826	-0.234029
C110	C	0.699584	0.888337	-0.313450
C111	C	0.891128	0.348869	-0.045737
C112	C	0.951740	0.288263	-0.045759
C113	C	1.009577	0.257950	-0.000070
C114	C	1.006801	0.288251	0.045636
C115	C	0.946190	0.348860	0.045651
C116	C	0.587633	0.348866	0.396417
C117	C	0.571958	0.288260	0.471049
C118	C	0.536599	0.257945	0.462679
C119	C	0.516908	0.288245	0.379671
C120	C	0.532579	0.348854	0.305041
C121	C	0.891721	0.348871	0.305003
C122	C	0.936674	0.288266	0.379619
C123	C	0.912443	0.257951	0.462635
C124	C	0.843254	0.288251	0.471035
C125	C	0.798303	0.348859	0.396421
C126	C	0.375808	0.918634	-0.305037
C127	C	0.330855	0.979257	-0.379652
C128	C	0.355086	1.009575	-0.462668
C129	C	0.424275	0.979271	-0.471068
C130	C	0.469226	0.918653	-0.396454
C131	C	0.376403	0.918634	0.045696
C132	C	0.315795	0.979257	0.045697
C133	C	0.257959	1.009572	0.000006
C134	C	0.260734	0.979268	-0.045696
C135	C	0.321343	0.918651	-0.045702
C136	C	0.734945	0.918632	-0.305053
C137	C	0.750628	0.979239	-0.379671
C138	C	0.730946	1.009553	-0.462685
C139	C	0.695584	0.979251	-0.471081
C140	C	0.679905	0.918641	-0.396464
H141	H	0.563163	-0.010799	-0.117266
H142	H	0.796276	0.633747	-0.320388
Br143	Br	1.085299	0.247101	0.107641
Br144	Br	0.598689	0.247150	0.583691
Br145	Br	0.973457	0.175696	0.563890
H146	H	0.741971	0.373517	0.403274
Br147	Br	0.812645	0.389997	-0.107753
H148	H	0.743716	1.058905	-0.523436
Br149	Br	1.091830	0.175695	-0.000100
Br150	Br	0.942435	0.389963	0.107690
H151	H	0.488117	0.263554	0.372869
Br152	Br	0.175709	1.091839	0.000022
Br153	Br	0.325119	0.808734	-0.107701
H154	H	0.523843	0.208593	0.523455
Br155	Br	0.182236	1.020417	-0.107699
H156	H	0.704369	0.278299	0.117230
Br157	Br	0.955492	0.247152	-0.107790
Br158	Br	0.924624	0.390003	0.192348
H159	H	0.651110	0.893981	-0.403313
H160	H	0.356066	0.893952	-0.237447
H161	H	0.323591	0.893981	-0.082911
Br162	Br	0.542033	0.144119	-0.152351
Br163	Br	0.761664	0.877506	-0.192400
H164	H	0.313504	0.499064	0.082886
H165	H	0.661734	0.633751	-0.679657
Br166	Br	0.798616	1.020353	-0.368256
Br167	Br	0.725503	-0.103335	0.152326
Br168	Br	0.505856	0.389957	0.192401
Br169	Br	0.563118	0.877533	-0.407873
Br170	Br	0.312044	1.020368	0.107728
Br171	Br	0.668870	1.020407	-0.583750
H172	H	0.443998	1.003964	-0.538669
Br173	Br	0.542031	0.370830	-0.152364
Br174	Br	0.725503	-0.246218	0.152338
H175	H	0.993008	0.263602	0.372763
Br176	Br	0.635626	0.389990	0.407799
H177	H	0.823533	0.263560	0.538637
H178	H	0.274521	1.003920	-0.372795
H179	H	0.318477	1.058934	-0.523417
H180	H	0.704377	0.168328	0.117230
Br181	Br	0.542012	0.513708	-0.152349
Br182	Br	0.454864	0.458759	0.107693
H183	H	0.471815	0.633741	-0.432317
Br184	Br	0.182245	0.808732	-0.107713
Br185	Br	0.454886	0.877508	0.107710
Br186	Br	0.085286	0.458765	0.107674
Br187	Br	0.410078	0.633733	-0.523986
Br188	Br	-0.187335	0.808741	-0.107734
Br189	Br	-0.057594	0.458769	0.107690
H190	H	-0.045975	0.768436	-0.082930
H191	H	0.605795	0.633741	-0.320380
H192	H	0.471261	0.633749	-0.679639
H193	H	0.552842	0.633755	-0.364627
Br194	Br	0.828463	0.633753	-0.587974
Br195	Br	0.723192	0.633756	-0.675923
H196	H	0.824700	0.633753	-0.455781
