data_functionalizedCrystal
_audit_creation_method	'MofGen! by Chris Wilmer'
_symmetry_space_group_name_H-M	'P1'
_symmetry_Int_Tables_number	1
_symmetry_cell_setting	triclinic
loop_
_symmetry_equiv_pos_as_xyz
  x,y,z
_cell_length_a	14.044220
_cell_length_b	27.732048
_cell_length_c	13.101039
_cell_angle_alpha	93.329410
_cell_angle_beta	86.340132
_cell_angle_gamma	87.915767
loop_
_atom_site_label
_atom_site_type_symbol
_atom_site_fract_x
_atom_site_fract_y
_atom_site_fract_z
O1	O	1.261246	0.114020	-0.085126
O2	O	0.985339	0.109817	-0.085151
O3	O	1.131860	0.041925	-0.085119
O4	O	1.114725	0.181913	-0.085159
O5	O	1.121348	0.046805	0.085309
O6	O	0.974827	0.114697	0.085276
O7	O	1.250733	0.118900	0.085301
Zn8	Zn	1.111111	0.117574	0.112348
Zn9	Zn	1.124962	0.111144	-0.112198
O10	O	1.104212	0.186793	0.085268
C11	C	0.944796	0.110418	0.000059
C12	C	0.839651	0.104930	0.000051
C13	C	1.126244	0.026341	0.000098
C14	C	1.125160	-0.027364	0.000106
C15	C	0.647135	0.094899	0.000074
C16	C	0.588932	0.133816	0.000067
C17	C	0.481810	0.128235	0.000080
C18	C	0.754268	0.100480	0.000061
C19	C	1.204929	-0.362438	0.000061
C20	C	1.200910	-0.564286	0.000046
O21	O	1.273853	-0.592120	0.000008
N22	N	1.114029	-0.587487	0.000039
C23	C	1.028146	-0.560223	0.000029
O24	O	0.954156	-0.584589	0.000012
C25	C	1.032166	-0.358376	0.000037
C26	C	1.119052	-0.335177	0.000054
C27	C	1.291808	-0.339239	0.000077
C28	C	1.292812	-0.288779	0.000086
C29	C	1.206935	-0.261519	0.000079
C30	C	1.120056	-0.284718	0.000063
C31	C	0.946285	-0.331113	0.000019
C32	C	0.947297	-0.280648	0.000018
C33	C	1.034184	-0.257449	0.000036
C34	C	1.035183	-0.206998	0.000066
N35	N	1.122064	-0.183797	0.000072
C36	C	1.207941	-0.211057	0.000079
C37	C	1.026042	-0.666196	0.000027
C38	C	1.025036	-0.716658	0.000027
C39	C	1.197801	-0.720717	0.000043
C40	C	1.198805	-0.670255	0.000050
C41	C	1.112923	-0.642995	0.000034
C42	C	1.210041	-0.105089	0.000100
C43	C	1.211037	-0.054625	0.000113
C44	C	1.038273	-0.050570	0.000093
C45	C	1.037276	-0.101030	0.000085
C46	C	1.123168	-0.128288	0.000085
O47	O	0.962280	-0.179134	0.000092
O48	O	1.281921	-0.186683	0.000073
C49	C	1.203925	-0.412897	0.000052
C50	C	1.117046	-0.436096	0.000035
C51	C	1.031169	-0.408835	0.000029
C52	C	1.116040	-0.486557	0.000035
C53	C	1.201917	-0.513818	0.000042
C54	C	1.288798	-0.490617	0.000049
C55	C	1.289802	-0.440157	0.000059
C56	C	0.944288	-0.432037	0.000022
C57	C	0.943292	-0.482496	0.000013
C58	C	1.029168	-0.509756	0.000020
C59	C	1.291277	0.118300	0.000088
C60	C	1.396422	0.123787	0.000090
C61	C	1.109828	0.202376	0.000050
C62	C	1.110913	0.256082	0.000034
N63	N	1.101664	0.121962	0.265594
N64	N	1.134415	0.106752	-0.265444
C65	C	1.088813	0.127936	0.474634
C66	C	1.147264	0.100779	0.525523
C67	C	1.140113	0.104104	0.641839
C68	C	1.095962	0.124612	0.358306
H69	H	0.619555	0.171325	0.000051
O70	O	0.952946	-0.123627	-0.000060
C71	C	0.952634	-0.155201	-0.088349
H72	H	1.029298	-0.165362	-0.117771
H73	H	0.914205	-0.136513	-0.150154
C74	C	0.806482	-0.188731	-0.025425
C75	C	0.900642	-0.201214	-0.061555
H76	H	0.774408	-0.217113	-0.008899
H77	H	0.806690	-0.167458	0.034057
H78	H	0.774471	-0.173156	-0.076935
H79	H	0.932655	-0.216782	-0.010041
H80	H	0.900439	-0.222491	-0.121028
O81	O	1.372304	-0.517028	0.000098
C82	C	1.449216	-0.485738	0.000080
H83	H	1.422633	-0.448249	0.032353
H84	H	1.480922	-0.483331	-0.081681
C85	C	1.558962	-0.551496	0.027274
C86	C	1.526313	-0.505453	0.066920
H87	H	1.606522	-0.563658	0.068500
H88	H	1.507146	-0.572578	0.027282
H89	H	1.585377	-0.549484	-0.040860
H90	H	1.499888	-0.507467	0.135048
H91	H	1.578127	-0.484372	0.066925
O92	O	1.022669	0.158588	0.526979
C93	C	0.960744	0.131979	0.589034
H94	H	0.997937	0.096231	0.604979
H95	H	0.893250	0.124563	0.547774
C96	C	0.888353	0.205123	0.671435
C97	C	0.934037	0.161219	0.691025
H98	H	0.871874	0.223161	0.734346
H99	H	0.930070	0.223051	0.629625
H100	H	0.832113	0.198938	0.637049
H101	H	0.990282	0.167405	0.725399
H102	H	0.892329	0.143294	0.732844
H103	H	1.202677	0.075033	0.481733
H104	H	0.872532	-0.501380	0.000008
H105	H	0.954283	-0.735541	0.000031
H106	H	0.616514	0.057393	0.000090
O107	O	1.295529	-0.032168	0.000080
C108	C	1.371106	-0.067053	0.000106
H109	H	1.347051	-0.103349	-0.032167
H110	H	1.392517	-0.070712	0.081870
C111	C	1.486777	-0.006610	-0.027082
C112	C	1.457235	-0.051188	-0.066728
H113	H	1.539907	0.003177	-0.068304
H114	H	1.435860	0.016893	-0.027095
H115	H	1.504612	-0.009665	0.041054
H116	H	1.439389	-0.048131	-0.134858
H117	H	1.508151	-0.074690	-0.066728
O118	O	1.293405	-0.131611	0.000241
C119	C	1.292564	-0.158392	0.088517
H120	H	1.215600	-0.163355	0.117931
H121	H	1.331755	-0.138178	0.150334
C122	C	1.437196	-0.202152	0.025583
C123	C	1.342668	-0.208251	0.061704
H124	H	1.468107	-0.232907	0.009046
H125	H	1.437766	-0.184108	-0.033889
H126	H	1.469843	-0.185305	0.077103
H127	H	1.310020	-0.225092	0.010179
H128	H	1.342094	-0.226300	0.121167
O129	O	0.860773	-0.405631	0.000066
C130	C	0.783886	-0.436936	0.000032
H131	H	0.806518	-0.472581	0.032287
H132	H	0.762257	-0.444012	-0.081732
C133	C	0.670745	-0.369644	0.027257
C134	C	0.698540	-0.413423	0.066882
H135	H	0.618098	-0.355140	0.068489
H136	H	0.722545	-0.348553	0.027276
H137	H	0.652727	-0.375547	-0.040879
H138	H	0.716569	-0.407519	0.135011
H139	H	0.646741	-0.434513	0.066875
H140	H	1.363564	-0.269896	0.000096
H141	H	1.361743	-0.361429	0.000079
H142	H	1.269556	-0.651370	0.000063
O143	O	1.281140	-0.747277	-0.000005
C144	C	1.261608	-0.796788	0.000015
H145	H	1.189215	-0.802849	-0.032243
H146	H	1.260384	-0.808871	0.081775
C147	C	1.428630	-0.818917	-0.027212
C148	C	1.339719	-0.826362	-0.066841
H149	H	1.476814	-0.837160	-0.068448
H150	H	1.441790	-0.785561	-0.027222
H151	H	1.427597	-0.828986	0.040920
H152	H	1.340750	-0.816287	-0.134967
H153	H	1.326561	-0.859717	-0.066844
H154	H	0.875533	-0.349993	-0.000001
O155	O	0.942520	-0.639791	0.000067
C156	C	0.865633	-0.671097	0.000039
H157	H	0.888265	-0.706740	0.032302
H158	H	0.844004	-0.678176	-0.081724
C159	C	0.752491	-0.603805	0.027249
C160	C	0.780286	-0.647581	0.066883
H161	H	0.699843	-0.589299	0.068477
H162	H	0.804291	-0.582713	0.027264
H163	H	0.734474	-0.609710	-0.040887
H164	H	0.798314	-0.641674	0.135012
H165	H	0.728488	-0.668671	0.066881
H166	H	0.968354	-0.028365	0.000091
O167	O	0.863816	-0.254224	-0.000131
C168	C	0.816483	-0.267832	-0.088421
H169	H	0.842137	-0.305888	-0.117849
H170	H	0.832836	-0.241477	-0.150222
C171	C	0.676527	-0.220152	-0.025483
C172	C	0.708030	-0.266894	-0.061622
H173	H	0.609628	-0.219572	-0.008955
H174	H	0.708416	-0.210983	0.033998
H175	H	0.690162	-0.198195	-0.076990
H176	H	0.694405	-0.288850	-0.010111
H177	H	0.676136	-0.276067	-0.121094
H178	H	1.360554	-0.421273	0.000072
