data_functionalizedCrystal
_audit_creation_method	'MofGen! by Chris Wilmer'
_symmetry_space_group_name_H-M	'P1'
_symmetry_Int_Tables_number	1
_symmetry_cell_setting	triclinic
loop_
_symmetry_equiv_pos_as_xyz
  x,y,z
_cell_length_a	10.540539
_cell_length_b	9.616153
_cell_length_c	17.699083
_cell_angle_alpha	89.996845
_cell_angle_beta	96.095747
_cell_angle_gamma	90.004826
loop_
_atom_site_label
_atom_site_type_symbol
_atom_site_fract_x
_atom_site_fract_y
_atom_site_fract_z
O1	O	1.683941	0.115583	-0.106657
O2	O	1.314345	0.115601	-0.116706
O3	O	1.509585	0.115579	-0.001560
O4	O	1.488701	0.115605	-0.221803
O5	O	1.509558	-0.115712	-0.001563
O6	O	1.314318	-0.115691	-0.116709
O7	O	1.683915	-0.115708	-0.106659
Zn8	Zn	1.499112	-0.152422	-0.111684
Zn9	Zn	1.499147	0.152314	-0.111681
O10	O	1.488674	-0.115687	-0.221805
C11	C	1.267042	-0.000043	-0.115954
C12	C	1.126135	-0.000037	-0.113699
C13	C	0.944289	-0.000587	-0.027300
C14	C	1.090865	-0.000051	-0.029586
C15	C	1.063738	0.132042	-0.154176
C16	C	0.917246	0.132138	-0.151306
C17	C	0.916695	-0.130884	-0.153020
C18	C	1.063663	-0.132615	-0.153794
N19	N	1.499097	-0.360396	-0.111686
C20	C	1.394345	-0.580755	-0.173075
C21	C	1.394569	-0.419587	-0.173305
C22	C	1.631492	-0.418850	-0.129651
C23	C	1.630920	-0.580068	-0.130086
C24	C	1.472780	-0.580316	-0.032130
C25	C	1.469724	-0.419089	-0.032646
C26	C	1.731217	-0.000062	-0.107412
C27	C	1.872124	-0.000059	-0.109666
C28	C	1.508823	-0.000067	0.026641
C29	C	1.506578	-0.000067	0.110673
N30	N	1.499172	0.360289	-0.111673
C31	C	1.489436	-0.000038	-0.250006
C32	C	1.491681	-0.000028	-0.334038
C33	C	1.621180	-0.000074	0.158549
C34	C	1.619064	-0.000062	0.237506
C35	C	1.502343	-0.000052	0.268586
C36	C	1.387732	-0.000041	0.220704
C37	C	1.389851	-0.000043	0.141748
C38	C	1.379187	-0.000029	0.539122
C39	C	1.377078	-0.000031	0.618084
C40	C	1.608400	-0.000048	0.634880
C41	C	1.610518	-0.000050	0.555925
C42	C	1.495908	-0.000032	0.508050
C43	C	1.498205	-0.000042	0.422436
C44	C	1.500045	-0.000051	0.354198
H45	H	0.868171	0.138139	-0.211799
O46	O	1.416856	-0.368455	-0.251472
H47	H	1.427528	-0.458880	-0.289254
O48	O	1.574010	-0.630915	0.028398
H49	H	1.528416	-0.691554	0.071544
H50	H	1.654213	-0.617650	-0.188118
H51	H	1.084961	0.136963	-0.215947
O52	O	1.747072	-0.000072	0.125028
H53	H	1.826406	-0.000057	0.171587
O54	O	1.146960	0.125579	0.012894
H55	H	1.216113	0.091067	0.060904
O56	O	1.737335	-0.631742	-0.073159
H57	H	1.788983	-0.541578	-0.045446
O58	O	0.905086	0.124163	0.016537
H59	H	0.956569	0.122781	0.074591
H60	H	1.295615	-0.619563	-0.162431
O61	O	1.742669	-0.000093	0.289147
H62	H	1.824186	-0.000126	0.254270
O63	O	1.251182	-0.000009	0.651611
H64	H	1.171840	0.000017	0.605056
O65	O	1.732017	-0.000062	0.686522
H66	H	1.813533	-0.000089	0.651644
H67	H	1.296530	-0.000037	0.102768
O68	O	1.120821	0.262248	-0.116928
H69	H	1.193615	0.233225	-0.069593
O70	O	1.737276	-0.368068	-0.072036
H71	H	1.696513	-0.300460	-0.029887
H72	H	1.285864	-0.000014	0.500152
H73	H	1.292697	-0.000024	0.246015
H74	H	0.885636	-0.230998	-0.125800
O75	O	1.118615	-0.262056	-0.114633
H76	H	1.190128	-0.232108	-0.066813
H77	H	1.134050	-0.094731	0.002264
H78	H	0.916300	-0.095308	0.005929
H79	H	1.086767	-0.140582	-0.215119
O80	O	0.852657	-0.132084	-0.233493
H81	H	0.789385	-0.040010	-0.242605
H82	H	1.296150	-0.380069	-0.162495
O83	O	0.880604	0.262887	-0.111661
H84	H	0.967476	0.325450	-0.094714
H85	H	1.705564	-0.000065	0.530624
H86	H	1.410939	-0.621248	-0.231754
O87	O	1.663089	-0.365369	-0.205657
H88	H	1.584711	-0.297175	-0.230754
O89	O	1.347677	-0.634211	-0.009490
H90	H	1.302911	-0.703941	-0.054686
O91	O	1.340714	-0.368512	-0.014604
H92	H	1.297686	-0.301840	-0.061726
H93	H	1.541127	-0.378802	0.015241
