data_functionalizedCrystal
_audit_creation_method	'MofGen! by Chris Wilmer'
_symmetry_space_group_name_H-M	'P1'
_symmetry_Int_Tables_number	1
_symmetry_cell_setting	triclinic
loop_
_symmetry_equiv_pos_as_xyz
  x,y,z
_cell_length_a	15.995300
_cell_length_b	13.185407
_cell_length_c	12.376897
_cell_angle_alpha	74.682514
_cell_angle_beta	77.342854
_cell_angle_gamma	67.722645
loop_
_atom_site_label
_atom_site_type_symbol
_atom_site_fract_x
_atom_site_fract_y
_atom_site_fract_z
O1	O	1.069278	0.121639	0.094036
O2	O	1.569278	0.621639	0.594036
O3	O	0.821573	0.139057	0.094029
O4	O	1.321573	0.639057	0.594029
O5	O	0.987865	-0.028410	0.094029
O6	O	1.487865	0.471590	0.594029
O7	O	0.902986	0.289106	0.094035
O8	O	1.402986	0.789106	0.594035
O9	O	1.008078	0.008915	-0.093967
O10	O	1.508078	0.508915	0.406033
O11	O	0.841786	0.176382	-0.093968
O12	O	1.341786	0.676382	0.406032
O13	O	1.089491	0.158964	-0.093961
O14	O	1.589491	0.658964	0.406039
Zn15	Zn	0.968848	0.173599	-0.123813
Zn16	Zn	1.468848	0.673599	0.376187
Zn17	Zn	0.942216	0.124422	0.123881
Zn18	Zn	1.442216	0.624422	0.623881
O19	O	0.923199	0.326431	-0.093962
O20	O	1.423199	0.826431	0.406038
C21	C	0.800644	0.157009	0.000029
C22	C	1.300644	0.657009	0.500029
C23	C	0.708172	0.154880	0.000026
C24	C	1.208172	0.654880	0.500026
C25	C	0.538874	0.150946	0.000035
C26	C	1.038874	0.650946	0.500035
C27	C	0.464538	0.270186	0.000035
C28	C	0.964538	0.770186	0.500035
C29	C	0.368295	0.267925	0.000464
C30	C	0.868295	0.767925	0.500464
C31	C	0.372189	0.147073	0.000042
C32	C	0.872189	0.647073	0.500042
C33	C	0.415133	0.066642	0.107185
C34	C	0.915133	0.566642	0.607185
C35	C	0.511077	0.069642	0.107272
C36	C	1.011077	0.569642	0.607272
C37	C	0.534741	0.110324	-0.106523
C38	C	1.034741	0.610324	0.393477
C39	C	0.437946	0.110614	-0.107928
C40	C	0.937946	0.610614	0.392072
C41	C	0.277987	0.144878	0.000050
C42	C	0.777987	0.644878	0.500050
C43	C	0.633076	0.153136	0.000035
C44	C	1.133076	0.653136	0.500035
C45	C	1.006576	-0.050379	0.000033
C46	C	1.506576	0.449621	0.500033
C47	C	1.032205	-0.171446	0.000037
C48	C	1.532205	0.328554	0.500037
C49	C	1.110420	0.141011	0.000041
C50	C	1.610420	0.641011	0.500041
C51	C	1.202891	0.143139	0.000051
C52	C	1.702891	0.643139	0.500051
C53	C	0.787603	-0.460644	0.000041
C54	C	1.287603	0.039356	0.500041
C55	C	0.763519	-0.346897	0.000047
C56	C	1.263519	0.153103	0.500047
C57	C	0.830688	-0.303028	0.000044
C58	C	1.330688	0.196972	0.500044
C59	C	0.921946	-0.372918	0.000036
C60	C	1.421946	0.127082	0.500036
C61	C	0.946031	-0.486678	0.000038
C62	C	1.446031	0.013322	0.500038
C63	C	0.989117	-0.329063	0.000042
C64	C	1.489117	0.170937	0.500042
C65	C	1.080375	-0.398953	0.000033
C66	C	1.580375	0.101047	0.500033
C67	C	1.104456	-0.512701	0.000034
C68	C	1.604456	-0.012701	0.500034
C69	C	1.037286	-0.556569	0.000037
C70	C	1.537286	-0.056569	0.500037
C71	C	0.965032	-0.215303	0.000040
C72	C	1.465032	0.284697	0.500040
C73	C	1.123460	-0.241337	0.000037
C74	C	1.623460	0.258663	0.500037
C75	C	1.147544	-0.355084	0.000030
C76	C	1.647544	0.144916	0.500030
C77	C	0.904488	0.348399	0.000037
C78	C	1.404488	0.848399	0.500037
C79	C	0.878858	0.469465	0.000040
C80	C	1.378858	0.969465	0.500040
N81	N	0.987031	0.207161	-0.292858
N82	N	1.487031	0.707161	0.207142
C83	C	0.881806	0.012934	-0.647922
C84	C	1.381806	0.512934	-0.147922
C85	C	0.869068	-0.010559	-0.529592
C86	C	1.369068	0.489441	-0.029592
C87	C	0.898557	0.043870	-0.470402
C88	C	1.398557	0.543870	0.029598
C89	C	0.940788	0.121794	-0.529555
C90	C	1.440788	0.621794	-0.029555
C91	C	0.953534	0.145283	-0.647897
C92	C	1.453534	0.645283	-0.147897
C93	C	0.970285	0.176218	-0.470377
C94	C	1.470285	0.676218	0.029623
C95	C	1.012516	0.254143	-0.529530
C96	C	1.512516	0.754143	-0.029530
C97	C	1.025259	0.277628	-0.647860
C98	C	1.525259	0.777628	-0.147860
C99	C	0.995770	0.223199	-0.707050
C100	C	1.495770	0.723199	-0.207050
C101	C	0.957538	0.152730	-0.352036
C102	C	1.457538	0.652730	0.147964
C103	C	1.029266	0.285078	-0.352011
C104	C	1.529266	0.785078	0.147989
C105	C	1.042005	0.308571	-0.470341
C106	C	1.542005	0.808571	0.029659
N107	N	0.924042	0.090851	0.292925
N108	N	1.424042	0.590851	0.792925
H109	H	0.586444	0.022615	-0.107555
H110	H	1.086444	0.522615	0.392445
H111	H	0.834686	-0.074007	-0.481438
H112	H	1.334686	0.425993	0.018562
H113	H	0.811074	-0.210409	0.000048
H114	H	1.311074	0.289591	0.500048
Cl115	Cl	0.648800	-0.259046	0.000066
Cl116	Cl	1.148800	0.240954	0.500066
H117	H	1.178149	-0.205632	0.000093
H118	H	1.678149	0.294368	0.500093
Cl119	Cl	0.882539	0.014337	-0.321642
Cl120	Cl	1.382539	0.514337	0.178358
H121	H	0.890729	-0.158409	0.000046
H122	H	1.390729	0.341591	0.500046
Cl123	Cl	0.423669	-0.071683	0.112878
Cl124	Cl	0.923669	0.428317	0.612878
H125	H	0.732922	-0.496375	0.000052
H126	H	1.232922	0.003625	0.500052
Cl127	Cl	0.489572	0.367919	-0.118073
Cl128	Cl	0.989572	0.867919	0.381927
H129	H	0.321710	0.298871	0.077718
H130	H	0.821710	0.798871	0.577718
H131	H	1.059656	0.341069	-0.696019
H132	H	1.559656	0.841069	-0.196019
H133	H	1.056892	-0.649188	0.000019
H134	H	1.556892	-0.149188	0.500019
Cl135	Cl	0.844744	-0.055485	-0.722336
Cl136	Cl	1.344744	0.444515	-0.222336
H137	H	1.178763	-0.569606	0.000038
H138	H	1.678763	-0.069606	0.500038
H139	H	1.221847	-0.412004	0.000024
H140	H	1.721847	0.087996	0.500024
Cl141	Cl	0.343973	0.104815	0.230760
Cl142	Cl	0.843973	0.604815	0.730760
H143	H	1.076390	0.372018	-0.518520
H144	H	1.576390	0.872018	-0.018520
Cl145	Cl	0.904451	0.054771	-0.277687
Cl146	Cl	1.404451	0.554771	0.222313
Cl147	Cl	1.066346	0.353502	-0.277610
Cl148	Cl	1.566346	0.853502	0.222390
Cl149	Cl	0.320916	0.363241	-0.118081
Cl150	Cl	0.820916	0.863241	0.381919
Cl151	Cl	0.465646	0.319554	0.118484
Cl152	Cl	0.965646	0.819554	0.618484
H153	H	1.006135	0.242328	-0.803404
H154	H	1.506135	0.742328	-0.303404
Cl155	Cl	0.590610	-0.066940	0.114333
Cl156	Cl	1.090610	0.433060	0.614333
Cl157	Cl	0.511184	0.110824	0.231396
Cl158	Cl	1.011184	0.610824	0.731396
Cl159	Cl	0.393865	0.201607	-0.230313
Cl160	Cl	0.893865	0.701607	0.269687
Cl161	Cl	0.446065	-0.023433	-0.118418
Cl162	Cl	0.946065	0.476567	0.381582
Cl163	Cl	0.566218	0.195835	-0.231944
Cl164	Cl	1.066218	0.695835	0.268056
