data_functionalizedCrystal
_audit_creation_method	'MofGen! by Chris Wilmer'
_symmetry_space_group_name_H-M	'P1'
_symmetry_Int_Tables_number	1
_symmetry_cell_setting	triclinic
loop_
_symmetry_equiv_pos_as_xyz
  x,y,z
_cell_length_a	15.944545
_cell_length_b	15.944551
_cell_length_c	15.455313
_cell_angle_alpha	92.664316
_cell_angle_beta	87.321378
_cell_angle_gamma	83.497455
loop_
_atom_site_label
_atom_site_type_symbol
_atom_site_fract_x
_atom_site_fract_y
_atom_site_fract_z
O1	O	1.118206	0.104636	-0.072076
O2	O	0.873657	0.117997	-0.072091
O3	O	1.002609	-0.010958	-0.072075
O4	O	0.989254	0.233591	-0.072092
O5	O	0.995235	-0.003614	0.072186
O6	O	0.866282	0.125341	0.072171
O7	O	1.110832	0.111980	0.072185
Cu8	Cu	0.987884	0.119331	0.085350
Cu9	Cu	0.996605	0.110646	-0.085256
O10	O	0.981880	0.240935	0.072170
C11	C	0.838676	0.121115	0.000038
C12	C	0.745429	0.119454	0.000033
C13	C	0.998367	-0.038580	0.000055
C14	C	0.996705	-0.131826	0.000056
C15	C	0.474796	0.034562	0.000048
C16	C	0.521742	0.079111	0.071176
C17	C	0.409785	0.113535	0.000048
C18	C	0.528993	0.071892	-0.071055
C19	C	0.574699	0.116439	0.000039
C20	C	0.455499	0.158066	0.071235
C21	C	0.462750	0.150832	-0.071059
C22	C	0.509662	0.195441	0.000086
C23	C	0.314782	0.111859	0.000054
C24	C	0.669698	0.118121	0.000040
C25	C	0.912801	-0.346682	0.000039
C26	C	0.948128	-0.404079	0.071171
C27	C	0.993698	-0.302552	0.000049
C28	C	0.955417	-0.411303	-0.071059
C29	C	0.990788	-0.467466	0.000039
C30	C	1.029044	-0.358718	0.071240
C31	C	1.036325	-0.365939	-0.071055
C32	C	1.071710	-0.423318	0.000095
C33	C	0.995372	-0.207550	0.000056
C34	C	0.989120	-0.562467	0.000038
C35	C	1.145813	0.108861	0.000054
C36	C	1.239059	0.110522	0.000054
C37	C	0.986121	0.268557	0.000037
C38	C	0.987784	0.361802	0.000031
N39	N	0.981756	0.125439	0.205345
N40	N	1.002739	0.104531	-0.205250
C41	C	1.036559	0.070674	0.250745
C42	C	1.031933	0.075301	0.341553
C43	C	0.972507	0.134697	0.386958
C44	C	0.917699	0.189464	0.341551
C45	C	0.922322	0.184833	0.250745
C46	C	0.952553	0.154666	0.658537
C47	C	0.947936	0.159296	0.749349
C48	C	1.062170	0.045131	0.749345
C49	C	1.066791	0.040508	0.658537
C50	C	1.011979	0.095272	0.613138
N51	N	0.967779	0.139430	0.479777
N52	N	1.016704	0.090535	0.520320
H53	H	0.459139	-0.033447	0.000122
H54	H	1.060154	-0.335664	0.131442
H55	H	0.877695	0.229427	0.213781
H56	H	0.910838	-0.421125	0.131303
Cl57	Cl	1.141498	-0.034161	0.601456
H58	H	1.073586	-0.348871	-0.131190
H59	H	0.907925	0.199259	0.621580
H60	H	0.547599	0.048820	0.131313
H61	H	0.845650	-0.313369	0.000106
H62	H	1.138915	-0.456476	0.000139
H63	H	0.423613	0.194458	0.131432
Cl64	Cl	0.907314	-0.447047	-0.163898
Cl65	Cl	1.111273	-0.003995	0.193674
Cl66	Cl	1.100828	0.006452	0.398629
Cl67	Cl	1.131068	-0.023714	0.806422
Cl68	Cl	0.578385	0.015654	-0.163889
H69	H	0.899542	0.207667	0.786314
H70	H	0.525152	0.263507	0.000123
Cl71	Cl	0.422801	0.197554	-0.163911
H72	H	0.869309	0.237823	0.378525
