data_functionalizedCrystal
_audit_creation_method	'MofGen! by Chris Wilmer'
_symmetry_space_group_name_H-M	'P1'
_symmetry_Int_Tables_number	1
_symmetry_cell_setting	triclinic
loop_
_symmetry_equiv_pos_as_xyz
  x,y,z
_cell_length_a	16.959455
_cell_length_b	16.959453
_cell_length_c	21.395355
_cell_angle_alpha	90.017325
_cell_angle_beta	90.029472
_cell_angle_gamma	90.017008
loop_
_atom_site_label
_atom_site_type_symbol
_atom_site_fract_x
_atom_site_fract_y
_atom_site_fract_z
Zn1	Zn	1.208455	-0.314836	0.354349
Zn2	Zn	1.541789	0.018497	0.687682
Zn3	Zn	1.875122	0.351831	1.021016
Zn4	Zn	1.208357	-0.446997	0.249574
Zn5	Zn	1.541690	-0.113663	0.582907
Zn6	Zn	1.875024	0.219670	0.916240
Zn7	Zn	1.076263	-0.314829	0.249577
Zn8	Zn	1.409596	0.018504	0.582910
Zn9	Zn	1.742929	0.351837	0.916243
Zn10	Zn	1.076249	-0.446969	0.354305
Zn11	Zn	1.409582	-0.113636	0.687638
Zn12	Zn	1.742915	0.219697	1.020971
O13	O	1.142331	-0.380908	0.301951
O14	O	1.475664	-0.047574	0.635284
O15	O	1.808998	0.285759	0.968618
O16	O	1.319053	-0.332382	0.340467
O17	O	1.652386	0.000952	0.673801
O18	O	1.985720	0.334285	1.007134
O19	O	1.190799	-0.429473	0.161896
O20	O	1.524133	-0.096140	0.495229
O21	O	1.857466	0.237194	0.828563
O22	O	1.093845	-0.204219	0.263495
O23	O	1.427179	0.129114	0.596828
O24	O	1.760512	0.462447	0.930161
O25	O	1.318981	-0.429479	0.263489
O26	O	1.652314	-0.096146	0.596823
O27	O	1.985648	0.237187	0.930156
O28	O	1.190967	-0.204224	0.340470
O29	O	1.524300	0.129109	0.673804
O30	O	1.857633	0.462443	1.007137
O31	O	1.093750	-0.332370	0.161898
O32	O	1.427083	0.000963	0.495232
O33	O	1.760417	0.334297	0.828565
O34	O	0.965650	-0.332344	0.263452
O35	O	1.298983	0.000990	0.596785
O36	O	1.632317	0.334323	0.930118
O37	O	1.093821	-0.429433	0.441989
O38	O	1.427155	-0.096100	0.775322
O39	O	1.760488	0.237234	1.108655
O40	O	0.965640	-0.429427	0.340395
O41	O	1.298973	-0.096093	0.673728
O42	O	1.632306	0.237240	1.007062
O43	O	1.190953	-0.332355	0.442021
O44	O	1.524286	0.000978	0.775354
O45	O	1.857620	0.334312	1.108688
O46	O	1.190785	-0.557604	0.263447
O47	O	1.524119	-0.224271	0.596780
O48	O	1.857452	0.109063	0.930113
O49	O	1.093726	-0.557584	0.340392
O50	O	1.427059	-0.224251	0.673726
O51	O	1.760393	0.109083	1.007059
C52	C	0.936965	-0.380882	0.301919
C53	C	1.270298	-0.047549	0.635253
C54	C	1.603631	0.285785	0.968586
C55	C	0.849108	-0.380890	0.301921
C56	C	1.182441	-0.047557	0.635254
C57	C	1.515775	0.285777	0.968587
C58	C	0.477584	-0.431417	0.261848
C59	C	0.810917	-0.098083	0.595181
C60	C	1.144251	0.235250	0.928515
C61	C	0.477681	-0.330465	0.342130
C62	C	0.811014	0.002869	0.675463
C63	C	1.144347	0.336202	1.008797
C64	C	0.560227	-0.330452	0.342115
C65	C	0.893560	0.002882	0.675448
C66	C	1.226893	0.336215	1.008781
C67	C	0.601455	-0.380923	0.301966
C68	C	0.934788	-0.047589	0.635300
C69	C	1.268122	0.285744	0.968633
C70	C	0.560138	-0.431407	0.261833
C71	C	0.893471	-0.098073	0.595166
C72	C	1.226804	0.235260	0.928500
C73	C	0.601550	-0.279974	0.382252
C74	C	0.934883	0.053359	0.715585
C75	C	1.268217	0.386693	1.048919
C76	C	0.684101	-0.279960	0.382239
C77	C	1.017434	0.053374	0.715572
C78	C	1.350768	0.386707	1.048905
C79	C	0.725331	-0.330427	0.342087
C80	C	1.058664	0.002906	0.675420
C81	C	1.391998	0.336239	1.008753
C82	C	0.684009	-0.380913	0.301951
C83	C	1.017342	-0.047580	0.635284
C84	C	1.350675	0.285754	0.968618
C85	C	0.725237	-0.431384	0.261803
C86	C	1.058570	-0.098051	0.595136
C87	C	1.391904	0.235283	0.928469
C88	C	0.683916	-0.481866	0.221663
C89	C	1.017249	-0.148533	0.554997
C90	C	1.350583	0.184801	0.888330
C91	C	0.601368	-0.481875	0.221681
C92	C	0.934701	-0.148541	0.555014
C93	C	1.268034	0.184792	0.888347
C94	C	0.807880	-0.330419	0.342069
C95	C	1.141213	0.002914	0.675403
C96	C	1.474546	0.336248	1.008736
C97	C	0.807791	-0.431374	0.261787
C98	C	1.141124	-0.098041	0.595121
C99	C	1.474457	0.235293	0.928454
C100	C	1.142265	-0.586274	0.301928
C101	C	1.475598	-0.252941	0.635261
C102	C	1.808932	0.080393	0.968595
C103	C	1.142309	-0.674131	0.301939
C104	C	1.475642	-0.340797	0.635272
C105	C	1.808976	-0.007464	0.968606
C106	C	1.192967	-1.045550	0.342108
C107	C	1.526300	-0.712217	0.675441
C108	C	1.859633	-0.378884	1.008774
C109	C	1.091916	-1.045662	0.261887
C110	C	1.425249	-0.712329	0.595220
C111	C	1.758583	-0.378995	0.928554
C112	C	1.091887	-0.963116	0.261873
C113	C	1.425220	-0.629783	0.595206
C114	C	1.758553	-0.296450	0.928539
C115	C	1.142397	-0.921784	0.301977
C116	C	1.475731	-0.588450	0.635310
C117	C	1.809064	-0.255117	0.968644
C118	C	1.192937	-0.962997	0.342096
C119	C	1.526271	-0.629663	0.675429
C120	C	1.859604	-0.296330	1.008763
C121	C	1.041342	-0.921897	0.221759
C122	C	1.374675	-0.588564	0.555092
C123	C	1.708008	-0.255230	0.888426
C124	C	1.041310	-0.839346	0.221744
C125	C	1.374643	-0.506013	0.555077
C126	C	1.707977	-0.172679	0.888410
C127	C	1.091825	-0.798012	0.261845
C128	C	1.425158	-0.464678	0.595179
C129	C	1.758492	-0.131345	0.928512
C130	C	1.142368	-0.839230	0.301965
C131	C	1.475701	-0.505897	0.635299
C132	C	1.809034	-0.172563	0.968632
C133	C	1.192879	-0.797897	0.342070
C134	C	1.526212	-0.464564	0.675403
C135	C	1.859545	-0.131231	1.008736
C136	C	1.243426	-0.839114	0.382187
C137	C	1.576759	-0.505781	0.715520
C138	C	1.910092	-0.172447	1.048854
C139	C	1.243453	-0.921663	0.382198
C140	C	1.576786	-0.588329	0.715531
C141	C	1.910119	-0.254996	1.048864
C142	C	1.091798	-0.715463	0.261835
C143	C	1.425132	-0.382130	0.595168
C144	C	1.758465	-0.048797	0.928501
C145	C	1.192849	-0.715344	0.342058
C146	C	1.526182	-0.382011	0.675391
C147	C	1.859516	-0.048677	1.008725
C148	C	1.348499	-0.380934	0.301983
C149	C	1.681832	-0.047601	0.635316
C150	C	2.015166	0.285732	0.968650
C151	C	1.436356	-0.380946	0.301997
C152	C	1.769689	-0.047612	0.635330
C153	C	2.103022	0.285721	0.968663
C154	C	1.142396	-0.380892	0.465374
C155	C	1.475730	-0.047558	0.798708
C156	C	1.809063	0.285775	1.132041
C157	C	1.142424	-0.380885	0.535016
C158	C	1.475758	-0.047552	0.868349
C159	C	1.809091	0.285782	1.201682
C160	C	1.142419	-0.174740	0.301988
C161	C	1.475752	0.158594	0.635321
C162	C	1.809085	0.491927	0.968654
C163	C	1.142456	-0.086883	0.302003
C164	C	1.475789	0.246450	0.635337
C165	C	1.809123	0.579784	0.968670
C166	C	1.142311	-0.380867	0.139163
C167	C	1.475644	-0.047533	0.472497
C168	C	1.808978	0.285800	0.805830
C169	C	1.142436	-0.380651	0.069522
C170	C	1.475770	-0.047318	0.402856
C171	C	1.809103	0.286016	0.736189
C172	C	1.192999	-0.330334	0.567747
C173	C	1.526332	0.002999	0.901080
C174	C	1.859665	0.336332	1.234413
C175	C	1.192998	-0.330300	0.633182
C176	C	1.526331	0.003033	0.966515
C177	C	1.859664	0.336366	1.299849
C178	C	1.142431	-0.380831	0.665884
C179	C	1.475764	-0.047498	0.999217
C180	C	1.809097	0.285836	1.332551
C181	C	1.091846	-0.431385	0.633145
C182	C	1.425180	-0.098052	0.966478
C183	C	1.758513	0.235281	1.299812
C184	C	1.091843	-0.431412	0.567711
C185	C	1.425177	-0.098079	0.901044
C186	C	1.758510	0.235254	1.234378
C187	C	1.136166	-0.452002	0.769550
C188	C	1.469500	-0.118669	1.102884
C189	C	1.802833	0.214665	1.436217
C190	C	1.136175	-0.451976	0.834983
C191	C	1.469508	-0.118643	1.168317
C192	C	1.802842	0.214690	1.501650
C193	C	1.142435	-0.380748	0.867705
C194	C	1.475769	-0.047414	1.201038
C195	C	1.809102	0.285919	1.534371
C196	C	1.148704	-0.309542	0.834985
C197	C	1.482037	0.023791	1.168319
C198	C	1.815371	0.357125	1.501652
C199	C	1.148701	-0.309569	0.769551
C200	C	1.482034	0.023764	1.102884
C201	C	1.815367	0.357098	1.436218
C202	C	1.142428	-0.380807	0.736836
C203	C	1.475761	-0.047474	1.070170
C204	C	1.809095	0.285859	1.403503
C205	C	1.193011	-0.330156	0.971388
C206	C	1.526345	0.003177	1.304722
C207	C	1.859678	0.336511	1.638055
C208	C	1.193005	-0.330121	1.036825
C209	C	1.526338	0.003213	1.370158
C210	C	1.859671	0.336546	1.703492
C211	C	1.091858	-0.431213	1.036787
C212	C	1.425191	-0.097879	1.370120
C213	C	1.758524	0.235454	1.703453
C214	C	1.091860	-0.431241	0.971351
C215	C	1.425193	-0.097907	1.304685
C216	C	1.758527	0.235426	1.638018
C217	C	1.142441	-0.380714	0.938656
C218	C	1.475775	-0.047380	1.271989
C219	C	1.809108	0.285953	1.605323
H220	H	0.841353	-0.472472	0.229091
H221	H	1.174686	-0.139138	0.562424
H222	H	1.508020	0.194195	0.895758
H223	H	1.234180	-0.289132	0.659837
H224	H	1.567513	0.044202	0.993170
H225	H	1.900846	0.377535	1.326503
H226	H	1.050789	-1.079320	0.229238
H227	H	1.384122	-0.745987	0.562572
H228	H	1.717456	-0.412653	0.895905
H229	H	1.233984	-0.681696	0.374714
H230	H	1.567318	-0.348362	0.708047
H231	H	1.900651	-0.015029	1.041380
Cl232	Cl	1.306988	-0.973482	0.432629
Cl233	Cl	1.640321	-0.640149	0.765962
Cl234	Cl	1.973654	-0.306816	1.099296
Cl235	Cl	0.549717	-0.216540	0.432729
Cl236	Cl	0.883050	0.116793	0.766062
Cl237	Cl	1.216384	0.450127	1.099396
H238	H	1.000217	-0.955556	0.189110
H239	H	1.333550	-0.622223	0.522443
H240	H	1.666883	-0.288889	0.855777
H241	H	0.717738	-0.238854	0.414922
H242	H	1.051071	0.094480	0.748255
H243	H	1.384404	0.427813	1.081589
H244	H	0.717495	-0.522964	0.188978
H245	H	1.050828	-0.189630	0.522311
H246	H	1.384162	0.143703	0.855644
H247	H	0.841519	-0.289319	0.374751
H248	H	1.174853	0.044015	0.708084
H249	H	1.508186	0.377348	1.041418
Cl250	Cl	1.256582	-0.266810	0.526647
Cl251	Cl	1.589915	0.066523	0.859981
Cl252	Cl	1.923248	0.399857	1.193314
H253	H	1.050656	-0.472576	0.541062
H254	H	1.383989	-0.139242	0.874395
H255	H	1.717323	0.194091	1.207728
Cl256	Cl	1.128319	-0.541558	0.728421
Cl257	Cl	1.461653	-0.208225	1.061755
Cl258	Cl	1.794986	0.125109	1.395088
Cl259	Cl	1.156578	-0.219991	0.876113
Cl260	Cl	1.489911	0.113342	1.209447
Cl261	Cl	1.823245	0.446676	1.542780
H262	H	0.567717	-0.522974	0.189001
H263	H	0.901050	-0.189641	0.522335
H264	H	1.234383	0.143693	0.855668
H265	H	1.284548	-0.805452	0.414843
H266	H	1.617882	-0.472118	0.748177
H267	H	1.951215	-0.138785	1.081510
H268	H	1.234123	-1.079113	0.374769
H269	H	1.567457	-0.745779	0.708102
H270	H	1.900790	-0.412446	1.041435
H271	H	0.443937	-0.472516	0.229166
H272	H	0.777270	-0.139182	0.562499
H273	H	1.110604	0.194151	0.895833
Cl274	Cl	0.977765	-0.787538	0.171313
Cl275	Cl	1.311098	-0.454205	0.504646
Cl276	Cl	1.644431	-0.120872	0.837979
Cl277	Cl	0.425850	-0.267027	0.392606
Cl278	Cl	0.759183	0.066306	0.725940
Cl279	Cl	1.092517	0.399639	1.059273
Cl280	Cl	1.256602	-0.266577	1.077973
Cl281	Cl	1.589936	0.066756	1.411307
Cl282	Cl	1.923269	0.400089	1.744640
H283	H	1.050640	-0.681908	0.229175
H284	H	1.383973	-0.348575	0.562508
H285	H	1.717307	-0.015242	0.895841
H286	H	1.050672	-0.472525	0.659775
H287	H	1.384005	-0.139192	0.993108
H288	H	1.717339	0.194141	1.326442
H289	H	1.050677	-0.472348	1.063412
H290	H	1.384010	-0.139014	1.396745
H291	H	1.717344	0.194319	1.730079
H292	H	1.153803	-0.251591	0.742914
H293	H	1.487136	0.081742	1.076247
H294	H	1.820469	0.415075	1.409580
H295	H	1.234193	-0.289009	0.944766
H296	H	1.567526	0.044324	1.278100
H297	H	1.900860	0.377657	1.611433
Cl298	Cl	1.028280	-0.494797	0.930202
Cl299	Cl	1.361614	-0.161464	1.263535
Cl300	Cl	1.694947	0.171869	1.596868
H301	H	1.131076	-0.509956	0.861618
H302	H	1.464409	-0.176623	1.194952
H303	H	1.797742	0.156710	1.528285
