data_functionalizedCrystal
_audit_creation_method	'MofGen! by Chris Wilmer'
_symmetry_space_group_name_H-M	'P1'
_symmetry_Int_Tables_number	1
_symmetry_cell_setting	triclinic
loop_
_symmetry_equiv_pos_as_xyz
  x,y,z
_cell_length_a	8.634740
_cell_length_b	14.853559
_cell_length_c	7.681481
_cell_angle_alpha	84.252160
_cell_angle_beta	96.618670
_cell_angle_gamma	92.100880
loop_
_atom_site_label
_atom_site_type_symbol
_atom_site_fract_x
_atom_site_fract_y
_atom_site_fract_z
O1	O	2.032111	0.301259	-0.146417
O2	O	1.583108	0.276607	-0.146420
O3	O	1.819610	0.158736	-0.146417
O4	O	1.795609	0.419130	-0.146420
O5	O	1.848720	0.144190	0.146442
O6	O	1.612217	0.262060	0.146438
O7	O	2.061221	0.286713	0.146441
Zn8	Zn	1.841341	0.272077	0.192937
Zn9	Zn	1.802988	0.291243	-0.192916
O10	O	1.824718	0.404583	0.146438
C11	C	1.540201	0.263749	0.000008
C12	C	1.368982	0.247098	0.000007
C13	C	1.833079	0.117781	0.000009
C14	C	1.829827	0.017417	-0.000001
C15	C	1.800164	-0.399017	-0.159638
C16	C	1.831900	-0.414871	0.159647
C17	C	1.834968	-0.320573	0.159649
C18	C	1.820632	-0.265493	0.000004
C19	C	1.803227	-0.304710	-0.159641
C20	C	1.852357	-0.281349	0.319292
C21	C	1.855424	-0.187046	0.319300
C22	C	1.841099	-0.131964	0.159653
C23	C	1.823695	-0.171187	0.000001
C24	C	1.809359	-0.116107	-0.159643
C25	C	1.791966	-0.155327	-0.319297
C26	C	1.788902	-0.249628	-0.319288
C27	C	1.844163	-0.037663	0.159644
C28	C	1.812422	-0.021800	-0.159647
C29	C	2.104128	0.299571	0.000009
C30	C	2.275345	0.316222	-0.000001
C31	C	1.811249	0.445539	0.000008
C32	C	1.814500	0.545903	0.000006
N33	N	1.867527	0.258997	0.456272
N34	N	1.776814	0.304316	-0.456251
H35	H	1.326167	0.388140	0.000014
C36	C	1.300322	0.149931	0.000001
N37	N	1.248606	0.076747	-0.000006
C38	C	1.992641	0.196507	0.557869
N39	N	2.086873	0.149439	0.634393
C40	C	1.874567	-0.143912	0.494921
N41	N	1.888992	-0.111422	0.627201
C42	C	1.769755	-0.292779	-0.494891
N43	N	1.755325	-0.325284	-0.627155
H44	H	1.780282	-0.110469	-0.449280
C45	C	1.651705	0.366802	0.442160
N46	N	1.557469	0.413866	0.365631
H47	H	1.800755	0.023041	-0.289650
H48	H	1.786009	-0.430955	-0.289625
H49	H	1.843562	-0.459722	0.289622
H50	H	1.864021	-0.326202	0.449265
H51	H	1.858289	-0.005734	0.289632
