data_functionalizedCrystal
_audit_creation_method	'MofGen! by Chris Wilmer'
_symmetry_space_group_name_H-M	'P1'
_symmetry_Int_Tables_number	1
_symmetry_cell_setting	triclinic
loop_
_symmetry_equiv_pos_as_xyz
  x,y,z
_cell_length_a	11.792241
_cell_length_b	16.109302
_cell_length_c	14.586319
_cell_angle_alpha	89.994552
_cell_angle_beta	89.996059
_cell_angle_gamma	83.827598
loop_
_atom_site_label
_atom_site_type_symbol
_atom_site_fract_x
_atom_site_fract_y
_atom_site_fract_z
O1	O	0.145889	1.103817	-0.076282
O2	O	0.479223	1.437150	0.257051
O3	O	0.812556	1.770484	0.590385
O4	O	0.164044	0.861841	-0.076275
O5	O	0.497377	1.195174	0.257059
O6	O	0.830710	1.528507	0.590392
O7	O	-0.010256	0.988701	-0.076272
O8	O	0.323078	1.322034	0.257061
O9	O	0.656411	1.655368	0.590395
O10	O	0.320188	0.976957	-0.076285
O11	O	0.653522	1.310290	0.257049
O12	O	0.986855	1.643623	0.590382
O13	O	-0.010258	0.988692	0.076209
O14	O	0.323075	1.322025	0.409542
O15	O	0.656408	1.655359	0.742875
O16	O	0.164041	0.861832	0.076206
O17	O	0.497374	1.195165	0.409539
O18	O	0.830708	1.528498	0.742873
O19	O	0.145887	1.103808	0.076199
O20	O	0.479220	1.437141	0.409532
O21	O	0.812553	1.770475	0.742866
Cu22	Cu	0.154964	0.982819	0.090125
Cu23	Cu	0.488297	1.316152	0.423459
Cu24	Cu	0.821630	1.649486	0.756792
Cu25	Cu	0.154967	0.982830	-0.090201
Cu26	Cu	0.488300	1.316163	0.243132
Cu27	Cu	0.821633	1.649496	0.576466
O28	O	0.320186	0.976948	0.076196
O29	O	0.653519	1.310281	0.409530
O30	O	0.986852	1.643614	0.742863
C31	C	0.163307	0.830858	-0.000033
C32	C	0.496640	1.164191	0.333300
C33	C	0.829973	1.497524	0.666633
C34	C	0.161102	0.738552	-0.000030
C35	C	0.494435	1.071885	0.333303
C36	C	0.827768	1.405219	0.666636
C37	C	0.156001	0.526182	0.083078
C38	C	0.489335	0.859516	0.416411
C39	C	0.822668	1.192849	0.749745
C40	C	0.153917	0.439453	0.083075
C41	C	0.487250	0.772786	0.416408
C42	C	0.820584	1.106119	0.749741
C43	C	0.153926	0.439473	-0.083168
C44	C	0.487259	0.772806	0.250165
C45	C	0.820592	1.106139	0.583499
C46	C	0.156002	0.526202	-0.083164
C47	C	0.489335	0.859535	0.250169
C48	C	0.822668	1.192868	0.583503
C49	C	0.157045	0.569554	-0.000038
C50	C	0.490378	0.902887	0.333295
C51	C	0.823712	1.236220	0.666628
C52	C	0.152885	0.396095	-0.000046
C53	C	0.486218	0.729428	0.333288
C54	C	0.819552	1.062762	0.666621
C55	C	0.150625	0.302059	-0.000050
C56	C	0.483959	0.635392	0.333284
C57	C	0.817292	0.968725	0.666617
C58	C	0.159303	0.663596	-0.000034
C59	C	0.492636	0.996930	0.333299
C60	C	0.825970	1.330263	0.666633
C61	C	-0.052541	0.987959	-0.000032
C62	C	0.280792	1.321292	0.333301
C63	C	0.614125	1.654625	0.666635
C64	C	-0.178536	0.985751	-0.000033
C65	C	0.154798	1.319084	0.333301
C66	C	0.488131	1.652417	0.666634
C67	C	-0.409212	0.981690	-0.000048
C68	C	-0.075879	1.315024	0.333285
C69	C	0.257454	1.648357	0.666619
C70	C	-0.280847	0.983946	-0.000040
C71	C	0.052486	1.317280	0.333294
C72	C	0.385820	1.650613	0.666627
C73	C	0.362472	0.977690	-0.000046
C74	C	0.695805	1.311023	0.333287
C75	C	1.029138	1.644357	0.666621
C76	C	0.488466	0.979898	-0.000051
C77	C	0.821799	1.313231	0.333282
C78	C	1.155133	1.646565	0.666616
C79	C	0.146623	1.134791	-0.000044
C80	C	0.479957	1.468124	0.333289
C81	C	0.813290	1.801458	0.666622
C82	C	0.148829	1.227097	-0.000053
C83	C	0.482162	1.560430	0.333280
C84	C	0.815495	1.893763	0.666613
N85	N	0.154961	0.982818	0.216957
N86	N	0.488294	1.316151	0.550290
N87	N	0.821627	1.649484	0.883624
N88	N	0.154960	0.982837	-0.217033
N89	N	0.488294	1.316171	0.116301
N90	N	0.821627	1.649504	0.449634
C91	C	0.077807	1.039010	0.451965
C92	C	0.411140	1.372344	0.785298
C93	C	0.744474	1.705677	1.118631
C94	C	0.077804	1.039013	0.547946
C95	C	0.411137	1.372346	0.881279
C96	C	0.744471	1.705679	1.214613
C97	C	0.232118	0.926639	0.547953
C98	C	0.565451	1.259972	0.881286
C99	C	0.898785	1.593306	1.214620
C100	C	0.232114	0.926633	0.451973
C101	C	0.565448	1.259966	0.785307
C102	C	0.898781	1.593300	1.118640
C103	C	0.154960	0.982824	0.403982
C104	C	0.488293	1.316157	0.737315
C105	C	0.821627	1.649490	1.070648
C106	C	0.154961	0.982832	0.595942
C107	C	0.488294	1.316165	0.929276
C108	C	0.821628	1.649498	1.262609
C109	C	0.154959	0.982834	0.700010
C110	C	0.488292	1.316167	1.033343
C111	C	0.821625	1.649501	1.366676
C112	C	0.154961	0.982821	0.299908
C113	C	0.488294	1.316154	0.633241
C114	C	0.821627	1.649487	0.966575
H115	H	0.153067	0.404143	0.150756
H116	H	0.486401	0.737477	0.484090
H117	H	0.819734	1.070810	0.817423
Br118	Br	-0.026904	1.115267	0.386836
Br119	Br	0.306429	1.448600	0.720170
Br120	Br	0.639762	1.781933	1.053503
Br121	Br	0.336821	0.850368	0.386846
Br122	Br	0.670154	1.183701	0.720179
Br123	Br	1.003487	1.517035	1.053513
Br124	Br	0.157413	0.585015	0.195891
Br125	Br	0.490747	0.918349	0.529224
Br126	Br	0.824080	1.251682	0.862557
H127	H	0.153077	0.404165	-0.150846
H128	H	0.486411	0.737498	0.182487
H129	H	0.819744	1.070831	0.515821
Br130	Br	-0.026913	1.115265	0.613064
Br131	Br	0.306420	1.448598	0.946397
Br132	Br	0.639754	1.781932	1.279731
H133	H	0.156849	0.561516	-0.150851
H134	H	0.490182	0.894849	0.182482
H135	H	0.823515	1.228183	0.515815
Br136	Br	0.336826	0.850385	0.613087
Br137	Br	0.670159	1.183718	0.946421
Br138	Br	1.003492	1.517052	1.279754
