data_functionalizedCrystal
_audit_creation_method	'MofGen! by Chris Wilmer'
_symmetry_space_group_name_H-M	'P1'
_symmetry_Int_Tables_number	1
_symmetry_cell_setting	triclinic
loop_
_symmetry_equiv_pos_as_xyz
  x,y,z
_cell_length_a	12.784890
_cell_length_b	12.837942
_cell_length_c	18.366186
_cell_angle_alpha	89.994829
_cell_angle_beta	89.991815
_cell_angle_gamma	83.967749
loop_
_atom_site_label
_atom_site_type_symbol
_atom_site_fract_x
_atom_site_fract_y
_atom_site_fract_z
O1	O	1.410976	0.006427	-0.060527
O2	O	1.105976	0.050422	-0.060533
O3	O	1.251713	-0.121869	-0.060526
O4	O	1.265239	0.178718	-0.060535
O5	O	1.251685	-0.121874	0.060573
O6	O	1.105948	0.050416	0.060566
O7	O	1.410948	0.006422	0.060572
Zn8	Zn	1.258444	0.028418	0.079796
Zn9	Zn	1.258481	0.028425	-0.079757
O10	O	1.265211	0.178712	0.060565
C11	C	1.066653	0.053280	0.000015
C12	C	0.949521	0.061794	0.000013
C13	C	0.781351	0.168495	0.000009
C14	C	0.891407	0.160502	0.000009
C15	C	0.897572	-0.028928	0.000015
C16	C	0.787516	-0.020935	0.000014
C17	C	0.729410	0.077780	0.000013
C18	C	0.619353	0.085771	0.000018
C19	C	0.625519	-0.103657	0.000018
C20	C	0.735575	-0.111650	0.000018
C21	C	1.247130	-0.160080	0.000023
C22	C	1.233502	-0.273929	0.000022
C23	C	1.397334	-0.529655	0.000010
C24	C	1.384534	-0.636627	0.000008
C25	C	1.195104	-0.594847	0.000012
C26	C	1.207904	-0.487875	0.000014
C27	C	1.309022	-0.455284	0.000014
C28	C	1.321820	-0.348309	0.000020
C29	C	1.132391	-0.306531	0.000019
C30	C	1.119591	-0.413503	0.000017
C31	C	1.450272	0.003563	0.000022
C32	C	1.567404	-0.004950	0.000019
C33	C	1.269795	0.216924	0.000014
C34	C	1.283422	0.330772	0.000011
N35	N	1.258426	0.028412	0.188687
N36	N	1.258506	0.028423	-0.188649
C37	C	1.322985	-0.047846	0.226791
C38	C	1.322991	-0.047851	0.303019
C39	C	1.258450	0.028419	0.341140
C40	C	1.193878	0.104683	0.303027
C41	C	1.193866	0.104680	0.226801
C42	C	1.254126	0.123218	0.461897
C43	C	1.254146	0.123222	0.538122
C44	C	1.258481	0.028429	0.576248
C45	C	1.262819	-0.066374	0.538138
C46	C	1.262807	-0.066377	0.461912
C47	C	1.258455	0.028430	0.423795
C48	C	1.323051	-0.047841	0.697006
C49	C	1.323049	-0.047847	0.773235
C50	C	1.193942	0.104696	0.773242
C51	C	1.193937	0.104693	0.697015
C52	C	1.258497	0.028426	0.658901
H53	H	1.404156	-0.321777	0.000023
C54	C	0.960621	-0.136120	-0.000143
C55	C	0.935740	-0.191298	-0.062456
C56	C	0.993813	-0.290040	-0.062634
H57	H	0.943907	-0.173868	0.042037
H58	H	1.033614	-0.127922	-0.000188
H59	H	0.862763	-0.199500	-0.062405
H60	H	0.952458	-0.153581	-0.104646
H61	H	1.066806	-0.281842	-0.062679
H62	H	0.977095	-0.327779	-0.020452
H63	H	0.976947	-0.327487	-0.104916
C64	C	1.393102	-0.130776	0.185543
C65	C	1.449622	-0.197578	0.235235
C66	C	1.514211	-0.273995	0.197263
H67	H	1.440772	-0.097882	0.155791
H68	H	1.350900	-0.170207	0.155836
H69	H	1.491821	-0.158151	0.264929
H70	H	1.401979	-0.230496	0.264989
H71	H	1.472008	-0.313426	0.167556
H72	H	1.561874	-0.241092	0.167512
H73	H	1.552560	-0.319335	0.230972
H74	H	1.375565	-0.109951	0.334049
H75	H	0.782900	-0.192020	0.000017
H76	H	1.375618	-0.109950	0.804260
H77	H	1.141325	0.166782	0.334069
H78	H	0.933693	0.234372	0.000008
C79	C	0.569265	-0.202246	-0.000092
C80	C	0.597926	-0.261343	-0.062383
C81	C	0.546138	-0.352173	-0.062500
H82	H	0.495386	-0.183501	-0.000127
H83	H	0.588590	-0.242529	0.042118
H84	H	0.578594	-0.221067	-0.104582
H85	H	0.671797	-0.280115	-0.062361
H86	H	0.565463	-0.392457	-0.020290
H87	H	0.472261	-0.333418	-0.062534
H88	H	0.565585	-0.392286	-0.104760
H89	H	0.734040	0.248872	0.000016
C90	C	1.507200	-0.494471	-0.000027
C91	C	1.581804	-0.582501	-0.000046
C92	C	1.683024	-0.550132	-0.000090
H93	H	1.516271	-0.453641	0.042191
H94	H	1.516191	-0.453640	-0.042275
H95	H	1.572817	-0.623314	0.042198
H96	H	1.572767	-0.623340	-0.042260
H97	H	1.692015	-0.509301	-0.042338
H98	H	1.692084	-0.509302	0.042128
H99	H	1.733655	-0.609854	-0.000110
H100	H	1.112778	-0.621402	0.000004
H101	H	1.456447	-0.697179	0.000003
H102	H	1.037264	-0.440054	0.000014
C103	C	1.267456	-0.169403	0.420667
C104	C	1.271230	-0.252423	0.470363
C105	C	1.275494	-0.347344	0.432395
H106	H	1.328560	-0.177124	0.390916
H107	H	1.206667	-0.169761	0.390960
H108	H	1.332013	-0.252066	0.500058
H109	H	1.210132	-0.244736	0.500115
H110	H	1.214704	-0.347702	0.402687
H111	H	1.336598	-0.355055	0.402646
H112	H	1.278045	-0.403684	0.466108
H113	H	1.060481	-0.245964	0.000028
H114	H	1.266349	-0.143563	0.569178
C115	C	1.393166	-0.130769	0.655751
C116	C	1.449679	-0.197580	0.705441
C117	C	1.514268	-0.273994	0.667466
H118	H	1.440839	-0.097874	0.626003
H119	H	1.350963	-0.170195	0.626040
H120	H	1.491879	-0.158159	0.735140
H121	H	1.402033	-0.230500	0.735191
H122	H	1.472066	-0.313420	0.637755
H123	H	1.561934	-0.241090	0.637720
H124	H	1.552613	-0.319340	0.701175
H125	H	1.141387	0.166792	0.804280
H126	H	1.141372	0.166793	0.665988
C127	C	1.249380	0.226258	0.579363
C128	C	1.245537	0.309275	0.529662
C129	C	1.241133	0.404210	0.567624
H130	H	1.310123	0.226725	0.609089
H131	H	1.188239	0.233884	0.609095
H132	H	1.306673	0.301652	0.499942
H133	H	1.184798	0.308843	0.499934
H134	H	1.179992	0.411836	0.597356
H135	H	1.301877	0.404666	0.597348
H136	H	1.238515	0.460549	0.533908
H137	H	1.141293	0.166779	0.195776
C138	C	1.249590	0.226054	0.420411
C139	C	1.339226	0.226210	0.376621
C140	C	1.335077	0.320912	0.338385
H141	H	1.247067	0.282600	0.453935
H142	H	1.188497	0.233632	0.390642
H143	H	1.400303	0.218642	0.406387
H144	H	1.341766	0.169684	0.343083
H145	H	1.273983	0.328491	0.308616
H146	H	1.332552	0.377452	0.371915
H147	H	1.395888	0.321027	0.308664
H148	H	0.572044	0.166150	0.000020
