data_functionalizedCrystal
_audit_creation_method	'MofGen! by Chris Wilmer'
_symmetry_space_group_name_H-M	'P1'
_symmetry_Int_Tables_number	1
_symmetry_cell_setting	triclinic
loop_
_symmetry_equiv_pos_as_xyz
  x,y,z
_cell_length_a	23.532361
_cell_length_b	23.532407
_cell_length_c	13.330367
_cell_angle_alpha	89.990692
_cell_angle_beta	89.996730
_cell_angle_gamma	82.839173
loop_
_atom_site_label
_atom_site_type_symbol
_atom_site_fract_x
_atom_site_fract_y
_atom_site_fract_z
O1	O	0.755279	0.069008	-0.083333
O2	O	0.589412	0.079039	-0.083359
O3	O	0.677347	-0.008909	-0.083327
O4	O	0.667344	0.156956	-0.083365
O5	O	0.677335	-0.008911	0.083521
O6	O	0.589399	0.079037	0.083489
O7	O	0.755267	0.069006	0.083514
Cu8	Cu	0.672332	0.074022	0.098736
Cu9	Cu	0.672347	0.074024	-0.098580
O10	O	0.667331	0.156954	0.083482
C11	C	0.568189	0.078787	0.000062
C12	C	0.504971	0.078032	0.000053
C13	C	0.231734	0.074729	-0.090888
C14	C	0.291134	0.075444	-0.090891
O15	O	0.321865	0.075795	-0.168238
N16	N	0.320832	0.075804	0.000058
C17	C	0.291129	0.075444	0.091015
O18	O	0.321845	0.075815	0.168374
C19	C	0.231731	0.074725	0.091016
C20	C	0.202035	0.074370	0.000062
C21	C	0.202038	0.074374	-0.181836
C22	C	0.142642	0.073661	-0.181833
C23	C	0.112942	0.073302	-0.090882
C24	C	0.142639	0.073657	0.000065
C25	C	0.202029	0.074360	0.181973
C26	C	0.142627	0.073640	0.181966
C27	C	0.112931	0.073286	0.091012
C28	C	0.053544	0.072584	0.091018
N29	N	0.023845	0.072224	0.000069
C30	C	0.053544	0.072583	-0.090881
C31	C	0.415869	0.076953	0.091005
C32	C	0.475266	0.077676	0.091004
C33	C	0.475266	0.077675	-0.090902
C34	C	0.415868	0.076956	-0.090901
C35	C	0.386171	0.076593	0.000056
C36	C	-0.071191	0.071084	-0.090868
C37	C	-0.130593	0.070373	-0.090857
C38	C	-0.130588	0.070370	0.091049
C39	C	-0.071192	0.071085	0.091039
C40	C	-0.041495	0.071440	0.000072
O41	O	0.022774	0.072230	0.168325
O42	O	0.022823	0.072204	-0.168227
C43	C	0.677086	-0.030126	0.000099
C44	C	0.676320	-0.093343	0.000107
C45	C	0.723555	-0.492454	0.000059
C46	C	0.722844	-0.551854	0.000052
O47	O	0.766630	-0.588606	0.000021
N48	N	0.670566	-0.574471	0.000044
C49	C	0.618997	-0.537685	0.000035
O50	O	0.574465	-0.562377	0.000027
C51	C	0.619709	-0.478286	0.000035
C52	C	0.671990	-0.455672	0.000053
C53	C	0.775832	-0.469839	0.000076
C54	C	0.776543	-0.410443	0.000085
C55	C	0.724977	-0.373662	0.000079
C56	C	0.672701	-0.396276	0.000062
C57	C	0.568140	-0.441501	0.000018
C58	C	0.568857	-0.382099	0.000018
C59	C	0.621137	-0.359485	0.000035
C60	C	0.621847	-0.300099	0.000065
N61	N	0.674124	-0.277481	0.000072
C62	C	0.725690	-0.314263	0.000079
C63	C	0.617505	-0.662427	0.000032
C64	C	0.616793	-0.721825	0.000038
C65	C	0.720640	-0.735990	0.000053
C66	C	0.721352	-0.676591	0.000054
C67	C	0.669783	-0.639810	0.000039
C68	C	0.727179	-0.189526	0.000100
C69	C	0.727886	-0.130124	0.000114
C70	C	0.624039	-0.115965	0.000093
C71	C	0.623332	-0.175361	0.000085
C72	C	0.674907	-0.212141	0.000085
O73	O	0.578083	-0.263312	0.000091
O74	O	0.770214	-0.289562	0.000074
C75	C	0.776489	0.069258	0.000091
C76	C	0.839708	0.070014	0.000094
C77	C	0.667592	0.178171	0.000054
C78	C	0.668358	0.241388	0.000040
N79	N	0.672326	0.074020	0.237517
N80	N	0.672358	0.074021	-0.237362
C81	C	0.633408	0.112952	0.710126
C82	C	0.711302	0.035091	0.710122
C83	C	0.711295	0.035089	0.605104
C84	C	0.672345	0.074020	0.552592
C85	C	0.633401	0.112953	0.605098
C86	C	0.750242	-0.003839	0.552590
C87	C	0.750238	-0.003841	0.447565
C88	C	0.711284	0.035087	0.395051
C89	C	0.672338	0.074021	0.447564
C90	C	0.633388	0.112951	0.395052
C91	C	0.594439	0.151883	0.447562
C92	C	0.594448	0.151881	0.552584
C93	C	0.711276	0.035089	0.290029
C94	C	0.633382	0.112952	0.290024
H95	H	0.391692	0.076664	0.165077
H96	H	0.763923	-0.658183	0.000067
H97	H	0.742990	0.003394	0.247280
C98	C	0.511416	-0.466119	-0.000169
C99	C	0.507988	-0.499805	-0.086004
C100	C	0.455742	-0.522495	-0.086209
H101	H	0.480766	-0.435756	-0.000232
H102	H	0.508958	-0.489035	0.057978
H103	H	0.510441	-0.476890	-0.144137
H104	H	0.538626	-0.530176	-0.085960
H105	H	0.453283	-0.545411	-0.028061
H106	H	0.425095	-0.492129	-0.086269
H107	H	0.453411	-0.545358	-0.144441
C108	C	0.792368	-0.046173	0.390377
C109	C	0.783979	-0.037891	0.287164
C110	C	0.822726	-0.076928	0.234450
H111	H	0.786307	-0.084121	0.407611
H112	H	0.830410	-0.040314	0.407389
H113	H	0.745946	-0.043754	0.270159
H114	H	0.790045	0.000049	0.269900
H115	H	0.860767	-0.071070	0.251462
H116	H	0.816661	-0.114874	0.251692
H117	H	0.817042	-0.071311	0.164415
H118	H	0.499458	0.077967	-0.164959
C119	C	0.552178	0.194087	0.390362
C120	C	0.560506	0.185744	0.287151
C121	C	0.521582	0.224606	0.234423
H122	H	0.558106	0.232091	0.407439
H123	H	0.514192	0.188095	0.407518
H124	H	0.598482	0.191741	0.270002
H125	H	0.554573	0.147748	0.270043
H126	H	0.483597	0.218614	0.251579
H127	H	0.527514	0.262608	0.251509
H128	H	0.527224	0.218947	0.164389
C129	C	0.776644	-0.775905	0.000257
C130	C	0.808136	-0.765758	0.086111
C131	C	0.859723	-0.802523	0.086339
H132	H	0.798167	-0.769111	-0.057856
H133	H	0.768751	-0.814527	0.000304
H134	H	0.816031	-0.727145	0.086055
H135	H	0.786631	-0.772556	0.144238
H136	H	0.851830	-0.841145	0.086386
H137	H	0.881240	-0.795726	0.028222
H138	H	0.881094	-0.795647	0.144595
C139	C	0.831779	-0.509836	0.000242
C140	C	0.834395	-0.544366	0.086070
C141	C	0.885925	-0.581219	0.086258
H142	H	0.863058	-0.487924	0.000302
H143	H	0.833676	-0.533332	-0.057910
H144	H	0.832504	-0.520873	0.144207
H145	H	0.803128	-0.566290	0.086028
H146	H	0.887822	-0.604715	0.028106
H147	H	0.917200	-0.559303	0.086315
H148	H	0.887705	-0.604656	0.144486
H149	H	0.580761	-0.193774	0.000099
C150	C	0.110371	0.073129	0.280693
C151	C	0.082971	0.023707	0.286033
C152	C	0.053259	0.023214	0.376969
H153	H	0.082625	0.106026	0.284571
H154	H	0.136554	0.073412	0.334885
H155	H	0.056790	0.023430	0.231857
H156	H	0.110704	-0.009198	0.282173
H157	H	0.079442	0.023497	0.431160
H158	H	0.025516	0.056113	0.380839
H159	H	0.034669	-0.010320	0.380608
C160	C	0.792466	-0.046077	0.609783
C161	C	0.784122	-0.037756	0.712995
C162	C	0.823004	-0.076662	0.765717
H163	H	0.830464	-0.040127	0.592686
H164	H	0.786494	-0.084068	0.592642
H165	H	0.790098	0.000226	0.730129
H166	H	0.746132	-0.043710	0.730122
H167	H	0.817033	-0.114653	0.748576
H168	H	0.860999	-0.070709	0.748612
H169	H	0.817345	-0.071025	0.835752
H170	H	0.575509	-0.632483	0.000028
H171	H	-0.047013	0.071384	0.165101
H172	H	-0.154780	0.070080	0.165098
C173	C	0.507404	0.078037	0.189861
C174	C	0.468676	0.077556	0.269504
C175	C	0.498260	0.077876	0.360589
H176	H	0.526046	0.111522	0.193781
H177	H	0.535098	0.045086	0.193709
H178	H	0.440993	0.110503	0.265658
H179	H	0.450032	0.044073	0.265618
H180	H	0.525954	0.044925	0.364437
H181	H	0.516901	0.111362	0.364498
H182	H	0.471988	0.077545	0.414637
H183	H	0.770461	-0.111716	0.000131
H184	H	0.526862	-0.352154	0.000004
H185	H	0.562737	0.183578	0.595345
C186	C	0.568074	-0.075995	-0.000125
C187	C	0.565461	-0.041484	-0.085978
C188	C	0.513912	-0.004660	-0.086228
H189	H	0.566134	-0.052480	0.057989
H190	H	0.536817	-0.097946	-0.000191
H191	H	0.596710	-0.019535	-0.085902
H192	H	0.567392	-0.064984	-0.144106
H193	H	0.482654	-0.026611	-0.086294
H194	H	0.511976	0.018851	-0.028110
H195	H	0.512130	0.018756	-0.144482
C196	C	0.591030	0.155152	0.767080
C197	C	0.535120	0.146196	0.741564
C198	C	0.496067	0.185054	0.794022
H199	H	0.596917	0.193157	0.749903
H200	H	0.596571	0.149573	0.837158
H201	H	0.529581	0.151780	0.671502
H202	H	0.529214	0.108199	0.758744
H203	H	0.501608	0.179475	0.864100
H204	H	0.501959	0.223056	0.776841
H205	H	0.458128	0.178980	0.776724
C206	C	0.783235	-0.229358	0.000156
C207	C	0.829163	-0.196829	0.000200
C208	C	0.880810	-0.233503	0.000272
H209	H	0.785209	-0.252832	-0.058013
H210	H	0.785145	-0.252823	0.058362
H211	H	0.827255	-0.173375	-0.057999
H212	H	0.827209	-0.173357	0.058365
H213	H	0.882719	-0.256967	0.058477
H214	H	0.882777	-0.256974	-0.057898
H215	H	0.911978	-0.211437	0.000311
C216	C	0.833324	-0.385930	-0.000115
C217	C	0.864470	-0.404639	-0.085965
C218	C	0.916779	-0.382069	-0.086194
H219	H	0.854606	-0.398570	0.058001
H220	H	0.826397	-0.345284	-0.000168
H221	H	0.871399	-0.445277	-0.085903
H222	H	0.843205	-0.392000	-0.144095
H223	H	0.909852	-0.341422	-0.086247
H224	H	0.938056	-0.394710	-0.028075
H225	H	0.937916	-0.394755	-0.144447
C226	C	-0.162727	0.069959	-0.189718
C227	C	-0.123997	0.070409	-0.269365
C228	C	-0.153575	0.070019	-0.360446
H229	H	-0.190432	0.102887	-0.193652
H230	H	-0.181351	0.036451	-0.193546
H231	H	-0.105382	0.103913	-0.265539
H232	H	-0.096291	0.037483	-0.265463
H233	H	-0.172199	0.036512	-0.364274
H234	H	-0.181279	0.102948	-0.364371
H235	H	-0.127300	0.070320	-0.414498
C236	C	-0.038894	0.071565	-0.189555
C237	C	-0.011472	0.120973	-0.194873
C238	C	0.018291	0.121436	-0.285761
H239	H	-0.065032	0.071282	-0.243798
H240	H	-0.011158	0.038646	-0.193349
H241	H	-0.039205	0.153883	-0.191089
H242	H	0.014675	0.121266	-0.140651
H243	H	0.046028	0.088518	-0.289555
H244	H	-0.007851	0.121152	-0.339997
H245	H	0.036905	0.154956	-0.289377
H246	H	0.118468	0.073369	-0.255897
H247	H	0.574220	-0.740232	0.000041
H248	H	0.226213	0.074665	-0.255902
H249	H	0.391693	0.076668	-0.164964
H250	H	0.743017	0.003397	0.752881
C251	C	0.234163	0.074711	0.280831
C252	C	0.195431	0.074223	0.360469
C253	C	0.225011	0.074537	0.451558
H254	H	0.252804	0.108195	0.284763
H255	H	0.261856	0.041759	0.284675
H256	H	0.167748	0.107171	0.356627
H257	H	0.176788	0.040741	0.356571
H258	H	0.252705	0.041586	0.455402
H259	H	0.243652	0.108023	0.455478
H260	H	0.198737	0.074201	0.505602
H261	H	0.601661	0.144652	0.247274
