data_functionalizedCrystal
_audit_creation_method	'MofGen! by Chris Wilmer'
_symmetry_space_group_name_H-M	'P1'
_symmetry_Int_Tables_number	1
_symmetry_cell_setting	triclinic
loop_
_symmetry_equiv_pos_as_xyz
  x,y,z
_cell_length_a	10.489746
_cell_length_b	10.489716
_cell_length_c	9.198806
_cell_angle_alpha	90.000858
_cell_angle_beta	89.998974
_cell_angle_gamma	84.535218
loop_
_atom_site_label
_atom_site_type_symbol
_atom_site_fract_x
_atom_site_fract_y
_atom_site_fract_z
O1	O	1.694033	0.179999	-0.120780
O2	O	1.322837	0.196885	-0.120803
O3	O	1.516898	0.002842	-0.120797
O4	O	1.499972	0.374041	-0.120787
O5	O	1.516882	0.002841	0.120988
O6	O	1.322821	0.196884	0.120982
O7	O	1.694018	0.179998	0.121005
Cu8	Cu	1.508418	0.188441	0.143070
Cu9	Cu	1.508437	0.188442	-0.142869
O10	O	1.499957	0.374041	0.120998
C11	C	1.275298	0.195608	0.000086
C12	C	1.133669	0.191788	0.000077
C13	C	0.980822	0.066063	0.000094
C14	C	1.058203	0.128920	0.119304
C15	C	1.058174	0.128950	-0.119077
C16	C	0.958701	0.247903	0.119421
C17	C	0.958666	0.247915	-0.119068
C18	C	1.035998	0.310860	0.000172
C19	C	1.515618	-0.044690	0.000091
C20	C	1.511814	-0.186322	0.000078
C21	C	1.630818	-0.283993	0.000099
C22	C	1.567941	-0.361355	-0.119114
C23	C	1.567898	-0.361319	0.119267
C24	C	1.448987	-0.261818	-0.119233
C25	C	1.448961	-0.261777	0.119255
C26	C	1.385997	-0.339089	0.000013
C27	C	1.741557	0.181275	0.000112
C28	C	1.883186	0.185095	0.000112
C29	C	1.501236	0.421573	0.000107
C30	C	1.505041	0.563204	0.000111
N31	N	1.508415	0.188440	0.344184
N32	N	1.508450	0.188433	-0.343983
C33	C	1.589895	0.106607	0.416384
C34	C	1.589915	0.106603	0.583796
H35	H	0.915168	0.298120	-0.219855
N36	N	1.115765	0.062355	0.252810
H37	H	1.179092	-0.011396	0.222408
H38	H	1.161070	0.125105	0.312485
N39	N	1.115736	0.062365	-0.252577
H40	H	1.078117	0.106363	-0.342619
H41	H	1.211578	0.066166	-0.251953
N42	N	1.416029	0.281233	0.573792
H43	H	1.361665	0.335839	0.644998
H44	H	1.465583	0.337904	0.510631
N45	N	1.248789	-0.371480	-0.000110
H46	H	1.203469	-0.333646	0.089042
H47	H	1.204141	-0.334929	-0.090270
H48	H	1.438666	0.258492	0.406310
H49	H	1.734331	-0.259315	-0.000016
N50	N	1.682333	0.013802	0.666025
H51	H	1.669249	0.026956	0.773962
H52	H	1.666542	-0.076791	0.639499
H53	H	0.956111	-0.037440	0.000212
H54	H	0.915411	0.298117	0.220320
H55	H	1.618153	-0.404791	0.220049
H56	H	1.398784	-0.218514	-0.220130
H57	H	1.618184	-0.404849	-0.219896
N58	N	1.382458	-0.204110	0.252739
H59	H	1.350381	-0.274370	0.313893
H60	H	1.444795	-0.157308	0.311307
N61	N	1.068397	0.448065	0.000234
H62	H	1.031852	0.492861	0.090317
H63	H	1.164493	0.449805	-0.000687
N64	N	1.682253	0.013771	0.334109
H65	H	1.669133	0.026920	0.226177
H66	H	1.772977	0.029084	0.360603
