data_functionalizedCrystal
_audit_creation_method	'MofGen! by Chris Wilmer'
_symmetry_space_group_name_H-M	'P1'
_symmetry_Int_Tables_number	1
_symmetry_cell_setting	triclinic
loop_
_symmetry_equiv_pos_as_xyz
  x,y,z
_cell_length_a	12.594516
_cell_length_b	12.759401
_cell_length_c	12.759393
_cell_angle_alpha	90.019837
_cell_angle_beta	89.970826
_cell_angle_gamma	89.982423
loop_
_atom_site_label
_atom_site_type_symbol
_atom_site_fract_x
_atom_site_fract_y
_atom_site_fract_z
Zn1	Zn	-0.423635	-1.606245	-0.594038
Zn2	Zn	-0.601655	-1.606135	-0.418366
Zn3	Zn	-0.423696	-1.430547	-0.418373
Zn4	Zn	-0.601577	-1.430532	-0.594003
O5	O	-0.512641	-1.518365	-0.506195
O6	O	-0.447258	-1.753252	-0.570746
O7	O	-0.578106	-1.582804	-0.271345
O8	O	-0.274742	-1.453906	-0.441693
O9	O	-0.578048	-1.753171	-0.441680
O10	O	-0.274698	-1.582991	-0.570754
O11	O	-0.447360	-1.453800	-0.271351
O12	O	-0.447285	-1.283524	-0.441659
O13	O	-0.577915	-1.453880	-0.741029
O14	O	-0.577973	-1.283513	-0.570694
O15	O	-0.447182	-1.582976	-0.741054
O16	O	-0.750590	-1.582789	-0.441646
O17	O	-0.750533	-1.453773	-0.570686
C18	C	-0.789182	-1.518296	-0.506185
C19	C	-0.907487	-1.518363	-0.506215
C20	C	-0.512628	-1.245397	-0.506174
C21	C	-0.512648	-1.128621	-0.506190
C22	C	-0.512533	-1.518438	-0.780228
C23	C	-0.512487	-1.518469	-0.897005
C24	C	-0.976748	-1.448184	-0.576351
C25	C	-1.047619	-1.422585	-0.480484
C26	C	-1.047415	-1.544058	-0.602099
C27	C	-0.976800	-1.492713	-0.410297
C28	C	-0.976590	-1.614230	-0.531977
C29	C	-1.047429	-1.588667	-0.436044
C30	C	-0.235020	-1.518463	-0.506228
C31	C	-0.116714	-1.518504	-0.506242
C32	C	-0.512655	-1.792398	-0.506216
C33	C	-0.512661	-1.909175	-0.506226
C34	C	-0.580801	-1.073780	-0.573272
C35	C	-0.580805	-0.964056	-0.573293
C36	C	-0.444500	-0.964023	-0.439140
C37	C	-0.444491	-1.073745	-0.439125
C38	C	-0.444395	-1.451321	-0.951869
C39	C	-0.444363	-1.451346	-1.061594
C40	C	-0.580517	-1.585676	-1.061579
C41	C	-0.580554	-1.585645	-0.951857
C42	C	-0.512671	-1.518352	-0.233228
C43	C	-0.512417	-1.518524	-0.116451
H44	H	-0.945712	-1.388731	-0.635576
H45	H	-0.635933	-1.640368	-1.106253
O46	O	-0.378398	-1.126977	-0.373805
C47	C	-0.401515	-1.100095	-0.269057
H48	H	-0.486541	-1.069909	-0.263612
H49	H	-0.392280	-1.172233	-0.217162
H50	H	-0.344420	-1.036409	-0.241696
O51	O	-1.084285	-1.659656	-0.365369
C52	C	-1.145801	-1.735793	-0.417556
H53	H	-1.121803	-1.738893	-0.503661
H54	H	-1.131892	-1.815698	-0.380038
H55	H	-1.233448	-1.714357	-0.411169
H56	H	-0.388971	-1.396622	-0.907212
H57	H	-1.078841	-1.341578	-0.458716
O58	O	-0.647064	-0.910669	-0.638309
C59	C	-0.715757	-0.847173	-0.578387
H60	H	-0.678120	-0.830702	-0.498835
H61	H	-0.730079	-0.770035	-0.621172
H62	H	-0.794618	-0.889433	-0.566701
O63	O	-0.647111	-1.127134	-0.638274
C64	C	-0.715767	-1.190578	-0.578342
H65	H	-0.722250	-1.157474	-0.495589
H66	H	-0.797722	-1.191821	-0.616209
H67	H	-0.682848	-1.273741	-0.574768
H68	H	-0.945370	-1.695219	-0.553791
O69	O	-1.084296	-1.569801	-0.698899
C70	C	-1.048304	-1.495512	-0.772567
H71	H	-0.973837	-1.455458	-0.741392
H72	H	-1.029136	-1.536648	-0.849618
H73	H	-1.112834	-1.434361	-0.786263
H74	H	-0.636007	-1.640328	-0.907185
O75	O	-0.378398	-0.910552	-0.374029
C76	C	-0.392999	-0.801948	-0.388444
H77	H	-0.475185	-0.786959	-0.422711
H78	H	-0.385681	-0.760210	-0.309767
H79	H	-0.329938	-0.770854	-0.444507
H80	H	-0.945909	-1.470943	-0.329198
O81	O	-0.378115	-1.386087	-1.114726
C82	C	-0.318071	-1.326774	-1.042779
H83	H	-0.314416	-1.369791	-0.964571
H84	H	-0.234198	-1.315608	-1.074495
H85	H	-0.357043	-1.246962	-1.031093
