data_functionalizedCrystal
_audit_creation_method	'MofGen! by Chris Wilmer'
_symmetry_space_group_name_H-M	'P1'
_symmetry_Int_Tables_number	1
_symmetry_cell_setting	triclinic
loop_
_symmetry_equiv_pos_as_xyz
  x,y,z
_cell_length_a	12.837943
_cell_length_b	12.503572
_cell_length_c	12.837942
_cell_angle_alpha	86.103696
_cell_angle_beta	94.828940
_cell_angle_gamma	93.890817
loop_
_atom_site_label
_atom_site_type_symbol
_atom_site_fract_x
_atom_site_fract_y
_atom_site_fract_z
O1	O	1.407773	0.089300	0.266682
O2	O	1.907773	0.589300	0.766682
O3	O	1.104640	0.089307	0.253238
O4	O	1.604640	0.589307	0.753238
O5	O	1.249484	0.089297	0.108394
O6	O	1.749484	0.589297	0.608394
O7	O	1.262928	0.089310	0.411526
O8	O	1.762928	0.589310	0.911526
O9	O	1.238593	-0.089344	0.119307
O10	O	1.738593	0.410656	0.619307
O11	O	1.093749	-0.089334	0.264151
O12	O	1.593749	0.410666	0.764151
O13	O	1.396882	-0.089341	0.277595
O14	O	1.896882	0.410659	0.777595
Cu15	Cu	1.244321	-0.105649	0.271870
Cu16	Cu	1.744321	0.394351	0.771870
Cu17	Cu	1.257201	0.105615	0.258964
Cu18	Cu	1.757201	0.605615	0.758964
O19	O	1.252037	-0.089331	0.422440
O20	O	1.752037	0.410669	0.922440
C21	C	1.060125	-0.000013	0.254153
C22	C	1.560125	0.499987	0.754153
C23	C	0.943710	-0.000011	0.240609
C24	C	1.443710	0.499989	0.740609
N25	N	1.235269	-0.254241	0.280947
N26	N	1.735269	0.245759	0.780947
C27	C	0.718836	-0.000019	0.403439
C28	C	1.218836	0.499981	0.903439
C29	C	0.609453	-0.000018	0.390717
C30	C	1.109453	0.499982	0.890717
C31	C	0.615561	-0.000014	0.202446
C32	C	1.115561	0.499986	0.702446
C33	C	0.724943	-0.000016	0.215167
C34	C	1.224943	0.499984	0.715167
C35	C	0.776577	-0.000017	0.315667
C36	C	1.276577	0.499983	0.815667
C37	C	0.885961	-0.000010	0.328387
C38	C	1.385961	0.499990	0.828387
C39	C	0.892066	-0.000014	0.140117
C40	C	1.392066	0.499986	0.640117
C41	C	0.782684	-0.000013	0.127395
C42	C	1.282684	0.499987	0.627395
C43	C	1.221955	-0.473355	0.294310
C44	C	1.721955	0.026645	0.794310
C45	C	1.279571	-0.526686	0.236519
C46	C	1.779571	-0.026686	0.736519
C47	C	1.272163	-0.648609	0.243954
C48	C	1.772163	-0.148609	0.743954
C49	C	1.229362	-0.351421	0.286876
C50	C	1.729362	0.148579	0.786876
C51	C	1.441397	-0.000019	0.276680
C52	C	1.941397	0.499981	0.776680
C53	C	1.557812	-0.000014	0.290224
C54	C	2.057812	0.499986	0.790224
C55	C	1.239497	-0.000023	0.074781
C56	C	1.739497	0.499977	0.574781
C57	C	1.225953	-0.000021	-0.041634
C58	C	1.725953	0.499979	0.458366
N59	N	1.266260	0.254207	0.249879
N60	N	1.766260	0.754207	0.749879
C61	C	1.388784	-0.000002	-0.266509
C62	C	1.888784	0.499998	0.233491
C63	C	1.376062	0.000000	-0.375892
C64	C	1.876062	0.500000	0.124108
C65	C	1.187791	-0.000007	-0.369784
C66	C	1.687791	0.499993	0.130216
C67	C	1.200512	-0.000009	-0.260402
C68	C	1.700512	0.499991	0.239598
C69	C	1.301012	-0.000008	-0.208768
C70	C	1.801012	0.499992	0.291232
C71	C	1.313731	-0.000018	-0.099383
C72	C	1.813731	0.499982	0.400617
C73	C	1.125461	-0.000017	-0.093278
C74	C	1.625461	0.499983	0.406722
C75	C	1.112740	-0.000015	-0.202660
C76	C	1.612740	0.499985	0.297340
C77	C	1.262024	-0.000009	0.456052
C78	C	1.762024	0.499991	0.956052
C79	C	1.275569	-0.000004	0.572467
C80	C	1.775569	0.499996	1.072467
H81	H	0.928000	-0.000013	0.410219
H82	H	1.428000	0.499987	0.910219
H83	H	1.167068	-0.519259	0.349366
H84	H	1.667068	-0.019259	0.849366
Cl85	Cl	1.440071	-0.000024	-0.034473
Cl86	Cl	1.940071	0.499976	0.465527
H87	H	0.760877	-0.000018	0.485269
H88	H	1.260877	0.499982	0.985269
H89	H	1.470614	-0.000011	-0.224468
H90	H	1.970614	0.499989	0.275532
Cl91	Cl	1.364759	-0.455812	0.151951
Cl92	Cl	1.864759	0.044188	0.651951
H93	H	1.447536	0.000009	-0.422901
H94	H	1.947536	0.500009	0.077099
H95	H	1.105969	0.000004	-0.411844
H96	H	1.605969	0.500004	0.088156
H97	H	0.562444	-0.000023	0.462191
H98	H	1.062444	0.499977	0.962191
H99	H	1.030916	-0.000012	-0.244716
H100	H	1.530916	0.499988	0.255284
Cl101	Cl	1.015112	-0.000039	-0.020682
Cl102	Cl	1.515112	0.499961	0.479318
H103	H	0.573496	-0.000102	0.120629
H104	H	1.073496	0.499898	0.620629
H105	H	0.740628	-0.000025	0.045572
H106	H	1.240628	0.499975	0.545572
H107	H	0.939091	-0.000005	0.068646
H108	H	1.439091	0.499995	0.568646
