data_functionalizedCrystal
_audit_creation_method	'MofGen! by Chris Wilmer'
_symmetry_space_group_name_H-M	'P1'
_symmetry_Int_Tables_number	1
_symmetry_cell_setting	triclinic
loop_
_symmetry_equiv_pos_as_xyz
  x,y,z
_cell_length_a	14.044220
_cell_length_b	17.699083
_cell_length_c	16.776229
_cell_angle_alpha	90.007545
_cell_angle_beta	90.002022
_cell_angle_gamma	88.235946
loop_
_atom_site_label
_atom_site_type_symbol
_atom_site_fract_x
_atom_site_fract_y
_atom_site_fract_z
O1	O	-1.257290	-0.182444	-0.066207
O2	O	-0.981336	-0.175860	-0.066227
O3	O	-1.127109	-0.069500	-0.066209
O4	O	-1.111516	-0.288803	-0.066224
O5	O	-1.127090	-0.069492	0.066367
O6	O	-0.981317	-0.175852	0.066350
O7	O	-1.257271	-0.182435	0.066370
Zn8	Zn	-1.119290	-0.179142	0.087409
Zn9	Zn	-1.119316	-0.179153	-0.087266
O10	O	-1.111497	-0.288795	0.066352
C11	C	-1.126541	-0.041261	0.000079
C12	C	-1.124865	0.042873	0.000079
C13	C	-0.946018	-0.172974	0.000059
C14	C	-0.840812	-0.164378	0.000052
C15	C	-1.292588	-0.185321	0.000082
C16	C	-1.397794	-0.193917	0.000085
C17	C	-0.648187	-0.148663	0.000069
C18	C	-0.590414	-0.209629	0.000068
C19	C	-0.483230	-0.200885	0.000077
C20	C	-0.755381	-0.157406	0.000059
C21	C	-1.112066	-0.317035	0.000062
C22	C	-1.113742	-0.401168	0.000057
N23	N	-1.119280	-0.179134	0.206620
C24	C	-1.210431	0.085591	0.000087
C25	C	-1.208850	0.164644	0.000080
C26	C	-1.121702	0.200976	0.000071
C27	C	-1.036130	0.158252	0.000061
C28	C	-1.037712	0.079201	0.000063
C29	C	-1.029750	0.477055	0.000054
C30	C	-1.028175	0.556112	0.000055
C31	C	-1.200888	0.562498	0.000071
C32	C	-1.202470	0.483447	0.000073
C33	C	-1.116898	0.440730	0.000059
C34	C	-1.118613	0.355012	0.000065
C35	C	-1.119987	0.286692	0.000070
N36	N	-1.119334	-0.179155	-0.206477
C37	C	-1.183848	-0.132061	0.248345
C38	C	-1.183853	-0.132061	0.331798
C39	C	-1.119294	-0.179138	0.373523
C40	C	-1.054719	-0.226214	0.331793
C41	C	-1.054710	-0.226210	0.248342
C42	C	-1.054754	-0.226231	0.668340
C43	C	-1.054770	-0.226233	0.751796
C44	C	-1.183897	-0.132082	0.751795
C45	C	-1.183888	-0.132078	0.668345
C46	C	-1.119310	-0.179150	0.626621
C47	C	-1.119304	-0.179149	0.536133
C48	C	-1.119304	-0.179144	0.464010
H49	H	-0.617153	-0.089906	0.000077
O50	O	-0.937459	0.430985	0.000060
H51	H	-0.876598	0.469533	0.000067
H52	H	-0.621449	-0.268391	0.000060
O53	O	-0.985114	-0.277011	0.623347
H54	H	-0.939115	-0.242026	0.585344
O55	O	-1.304431	0.046413	0.000091
H56	H	-1.309286	0.010562	0.054131
O57	O	-0.934177	0.595304	0.000044
H58	H	-0.893084	0.578605	-0.054002
H59	H	-1.270565	0.597288	0.000079
O60	O	-1.301138	0.210722	0.000101
H61	H	-1.362002	0.172177	0.000122
O62	O	-1.253549	-0.081310	0.796802
H63	H	-1.298448	-0.048583	0.753766
O64	O	-0.985071	-0.276976	0.203325
H65	H	-0.997005	-0.336795	0.219314
O66	O	-1.296463	0.444258	0.000071
H67	H	-1.355699	0.487244	0.000064
H68	H	-1.002194	-0.264571	0.785768
H69	H	-0.965173	0.187840	0.000049
O70	O	-0.985088	-0.276996	0.376791
H71	H	-0.995949	-0.269099	0.441830
O72	O	-0.945424	0.033120	0.000063
H73	H	-0.884558	0.071663	0.000066
O74	O	-1.253476	-0.081281	0.203342
H75	H	-1.298368	-0.048541	0.246379
O76	O	-1.253511	-0.081304	0.376804
H77	H	-1.298415	-0.048579	0.333770
H78	H	-1.236461	-0.093745	0.634374
