data_functionalizedCrystal
_audit_creation_method	'MofGen! by Chris Wilmer'
_symmetry_space_group_name_H-M	'P1'
_symmetry_Int_Tables_number	1
_symmetry_cell_setting	triclinic
loop_
_symmetry_equiv_pos_as_xyz
  x,y,z
_cell_length_a	19.121175
_cell_length_b	12.759401
_cell_length_c	12.759399
_cell_angle_alpha	90.016641
_cell_angle_beta	92.416770
_cell_angle_gamma	87.544509
loop_
_atom_site_label
_atom_site_type_symbol
_atom_site_fract_x
_atom_site_fract_y
_atom_site_fract_z
Zn1	Zn	-0.397100	1.631535	-0.443580
Zn2	Zn	0.102900	2.131535	0.056420
Zn3	Zn	-0.279657	1.623950	-0.611781
Zn4	Zn	0.220343	2.123950	-0.111781
Zn5	Zn	-0.279668	1.448360	-0.436122
Zn6	Zn	0.220332	1.948360	0.063878
Zn7	Zn	-0.397071	1.455822	-0.619220
Zn8	Zn	0.102929	1.955822	-0.119220
O9	O	-0.338374	1.539917	-0.527676
O10	O	0.161626	2.039917	-0.027676
O11	O	-0.381529	1.777550	-0.465900
O12	O	0.118471	2.277550	0.034100
O13	O	-0.181375	1.594361	-0.582245
O14	O	0.318625	2.094361	-0.082245
O15	O	-0.295263	1.472710	-0.290091
O16	O	0.204737	1.972710	0.209909
O17	O	-0.295244	1.771978	-0.589477
O18	O	0.204756	2.271978	-0.089477
O19	O	-0.381540	1.607287	-0.295570
O20	O	0.118460	2.107287	0.204430
O21	O	-0.181383	1.465356	-0.453190
O22	O	0.318617	1.965356	0.046810
O23	O	-0.295234	1.302328	-0.460403
O24	O	0.204766	1.802328	0.039597
O25	O	-0.495358	1.485428	-0.602155
O26	O	0.004642	1.985428	-0.102155
O27	O	-0.381489	1.307811	-0.594924
O28	O	0.118511	1.807811	-0.094924
O29	O	-0.495380	1.614523	-0.473113
O30	O	0.004620	2.114523	0.026887
O31	O	-0.295216	1.601597	-0.759788
O32	O	0.204784	2.101597	-0.259788
O33	O	-0.381479	1.478074	-0.765253
O34	O	0.118521	1.978074	-0.265253
C35	C	-0.338360	1.266949	-0.527662
C36	C	0.161640	1.766949	-0.027662
C37	C	-0.338371	1.150173	-0.527683
C38	C	0.161629	1.650173	-0.027683
C39	C	-0.521566	1.551654	-0.539296
C40	C	-0.021566	2.051654	-0.039296
C41	C	-0.599631	1.556655	-0.544247
C42	C	-0.099631	2.056655	-0.044247
C43	C	-0.383213	1.098188	-0.597825
C44	C	0.116787	1.598188	-0.097825
C45	C	-0.383227	0.988465	-0.597830
C46	C	0.116773	1.488465	-0.097830
C47	C	-0.293550	0.982720	-0.457546
C48	C	0.206450	1.482720	0.042454
C49	C	-0.293541	1.092441	-0.457537
C50	C	0.206459	1.592441	0.042463
C51	C	-0.636310	1.491842	-0.479383
C52	C	-0.136310	1.991842	0.020617
C53	C	-0.709660	1.496537	-0.484044
C54	C	-0.209660	1.996537	0.015956
C55	C	-0.746331	1.566052	-0.553566
C56	C	-0.246331	2.066052	-0.053566
C57	C	-0.709647	1.630868	-0.618438
C58	C	-0.209647	2.130868	-0.118438
C59	C	-0.636297	1.626167	-0.613781
C60	C	-0.136297	2.126167	-0.113781
C61	C	-0.967798	1.583603	-0.570993
C62	C	-0.467798	2.083603	-0.070993
C63	C	-1.041152	1.588302	-0.575642
C64	C	-0.541152	2.088302	-0.075642
C65	C	-1.041161	1.453968	-0.441250
C66	C	-0.541161	1.953968	0.058750
C67	C	-0.967810	1.449278	-0.436594
C68	C	-0.467810	1.949278	0.063406
C69	C	-0.931132	1.514090	-0.501470
C70	C	-0.431132	2.014090	-0.001470
C71	C	-0.821307	1.570856	-0.558330
C72	C	-0.321307	2.070856	-0.058330
C73	C	-0.856158	1.509280	-0.496711
C74	C	-0.356158	2.009280	0.003289
C75	C	-0.155896	1.528286	-0.516025
C76	C	0.344104	2.028286	-0.016025
C77	C	-0.077831	1.523488	-0.510778
C78	C	0.422169	2.023488	-0.010778
C79	C	-0.338358	1.539851	-0.800642
C80	C	0.161642	2.039851	-0.300642
C81	C	-0.338375	1.539921	-0.917420
C82	C	0.161625	2.039921	-0.417420
C83	C	-0.338389	1.813951	-0.527690
C84	C	0.161611	2.313951	-0.027690
C85	C	-0.338395	1.930728	-0.527697
C86	C	0.161605	2.430728	-0.027697
C87	C	-0.293509	1.604319	-0.969404
C88	C	0.206491	2.104319	-0.469404
C89	C	-0.293532	1.604388	-1.079130
C90	C	0.206468	2.104388	-0.579130
C91	C	-0.383290	1.475652	-1.084877
C92	C	0.116710	1.975652	-0.584877
C93	C	-0.383270	1.475589	-0.975153
C94	C	0.116730	1.975589	-0.475153
C95	C	-0.338406	1.540012	-0.253644
C96	C	0.161594	2.040012	0.246356
C97	C	-0.338419	1.540053	-0.136869
C98	C	0.161581	2.040053	0.363131
H99	H	-0.419743	0.946145	-0.654946
H100	H	0.080257	1.446145	-0.154946
O101	O	-0.245148	1.673855	-1.135206
O102	O	0.254852	2.173855	-0.635206
H103	H	-0.209403	1.624619	-1.183008
H104	H	0.290597	2.124619	-0.683008
H105	H	-0.937944	1.636366	-0.623831
H106	H	-0.437944	2.136366	-0.123831
H107	H	-0.257050	0.935702	-0.400438
H108	H	0.242950	1.435702	0.099562
H109	H	-1.071031	1.401201	-0.388432
H110	H	-0.571031	1.901201	0.111568
H111	H	-0.851172	1.627454	-0.614936
H112	H	-0.351172	2.127454	-0.114936
H113	H	-0.419808	1.423148	-0.932825
H114	H	0.080192	1.923148	-0.432825
O115	O	-1.080705	1.663283	-0.650632
O116	O	-0.580705	2.163283	-0.150632
H117	H	-1.114121	1.618379	-0.706189
H118	H	-0.614121	2.118379	-0.206189
H119	H	-0.256954	1.656704	-0.922400
H120	H	0.243046	2.156704	-0.422400
O121	O	-0.245162	1.148522	-0.381895
O122	O	0.254838	1.648522	0.118105
H123	H	-0.213980	1.089946	-0.333136
H124	H	0.286020	1.589946	0.166864
H125	H	-0.419841	1.423273	-1.131897
H126	H	0.080159	1.923273	-0.631897
H127	H	-0.419719	1.145190	-0.654940
H128	H	0.080281	1.645190	-0.154940
H129	H	-0.739521	1.443755	-0.431228
H130	H	-0.239521	1.943755	0.068772
O131	O	-0.596758	1.416869	-0.404393
O132	O	-0.096758	1.916869	0.095607
H133	H	-0.634590	1.372584	-0.360078
H134	H	-0.134590	1.872584	0.139922
H135	H	-0.739509	1.687464	-0.675049
H136	H	-0.239509	2.187464	-0.175049
O137	O	-0.928257	1.374320	-0.361592
O138	O	-0.428257	1.874320	0.138408
H139	H	-0.966086	1.330041	-0.317266
H140	H	-0.466086	1.830041	0.182734
H141	H	-0.826297	1.452678	-0.440110
H142	H	-0.326297	1.952678	0.059890
O143	O	-0.596731	1.696082	-0.683731
O144	O	-0.096731	2.196082	-0.183731
H145	H	-0.634551	1.745220	-0.732847
H146	H	-0.134551	2.245220	-0.232847
