data_functionalizedCrystal
_audit_creation_method	'MofGen! by Chris Wilmer'
_symmetry_space_group_name_H-M	'P1'
_symmetry_Int_Tables_number	1
_symmetry_cell_setting	triclinic
loop_
_symmetry_equiv_pos_as_xyz
  x,y,z
_cell_length_a	10.654541
_cell_length_b	17.038272
_cell_length_c	9.730217
_cell_angle_alpha	89.996329
_cell_angle_beta	89.999932
_cell_angle_gamma	87.797742
loop_
_atom_site_label
_atom_site_type_symbol
_atom_site_fract_x
_atom_site_fract_y
_atom_site_fract_z
O1	O	1.678040	0.109868	-0.114249
O2	O	2.178040	0.609868	0.385751
O3	O	1.313533	0.120338	-0.114261
O4	O	1.813533	0.620338	0.385739
O5	O	1.493620	0.001275	-0.114245
O6	O	1.993620	0.501275	0.385755
O7	O	1.497953	0.228930	-0.114266
O8	O	1.997953	0.728930	0.385734
O9	O	1.493614	0.001274	0.114336
O10	O	1.993614	0.501274	0.614336
O11	O	1.313527	0.120337	0.114319
O12	O	1.813527	0.620337	0.614319
O13	O	1.678034	0.109867	0.114331
O14	O	2.178034	0.609867	0.614331
Zn15	Zn	1.495780	0.115102	0.150617
Zn16	Zn	1.995780	0.615102	0.650617
Zn17	Zn	1.495788	0.115103	-0.150547
Zn18	Zn	1.995788	0.615103	0.349453
O19	O	1.497947	0.228929	0.114314
O20	O	1.997947	0.728929	0.614314
C21	C	1.266661	0.119569	0.000027
C22	C	1.766661	0.619569	0.500027
C23	C	1.127004	0.117270	0.000023
C24	C	1.627004	0.617270	0.500023
C25	C	1.112253	0.259642	-0.000008
C26	C	1.612253	0.759642	0.499992
C27	C	1.039268	0.329744	-0.000029
C28	C	1.539268	0.829744	0.499971
C29	C	0.908049	0.327580	-0.000030
C30	C	1.408049	0.827580	0.499970
C31	C	0.849813	0.255304	-0.000006
C32	C	1.349813	0.755304	0.499994
C33	C	0.922798	0.185202	0.000015
C34	C	1.422798	0.685202	0.500015
C35	C	1.054019	0.187374	0.000012
C36	C	1.554019	0.687374	0.500012
C37	C	0.937548	0.042832	0.000055
C38	C	1.437548	0.542832	0.500055
C39	C	1.068768	0.044995	0.000047
C40	C	1.568768	0.544995	0.500047
C41	C	0.879312	-0.029443	0.000079
C42	C	1.379312	0.470557	0.500079
C43	C	0.952297	-0.099548	0.000090
C44	C	1.452297	0.400452	0.500090
C45	C	1.083524	-0.097380	0.000090
C46	C	1.583524	0.402620	0.500090
C47	C	1.141753	-0.025108	0.000067
C48	C	1.641753	0.474892	0.500067
C49	C	1.489677	-0.027875	0.000045
C50	C	1.989677	0.472125	0.500045
C51	C	1.477920	-0.114734	0.000044
C52	C	1.977920	0.385266	0.500044
C53	C	1.585864	-0.164246	0.000049
C54	C	2.085864	0.335754	0.500049
C55	C	1.574809	-0.245858	0.000036
C56	C	2.074809	0.254142	0.500036
C57	C	1.455809	-0.277957	0.000027
C58	C	1.955809	0.222043	0.500027
C59	C	1.347857	-0.228439	0.000018
C60	C	1.847857	0.271561	0.500018
C61	C	1.358913	-0.146828	0.000022
C62	C	1.858913	0.353172	0.500022
C63	C	1.416751	-0.523933	0.000007
C64	C	1.916751	-0.023933	0.500007
C65	C	1.405704	-0.605550	0.000008
C66	C	1.905704	-0.105550	0.500008
C67	C	1.632657	-0.622963	0.000023
C68	C	2.132657	-0.122963	0.500023
C69	C	1.643703	-0.541350	0.000035
C70	C	2.143703	-0.041350	0.500035
C71	C	1.535750	-0.491839	0.000018
C72	C	2.035750	0.008161	0.500018
C73	C	1.444507	-0.361377	0.000018
C74	C	1.944507	0.138623	0.500018
C75	C	1.547054	-0.408420	0.000018
C76	C	2.047054	0.091580	0.500018
C77	C	1.724907	0.110635	0.000039
C78	C	2.224907	0.610635	0.500039
C79	C	1.864564	0.112934	0.000034
C80	C	2.364564	0.612934	0.500034
C81	C	1.501891	0.258080	0.000021
C82	C	2.001891	0.758080	0.500021
C83	C	1.513648	0.344939	0.000013
C84	C	2.013648	0.844939	0.500013
N85	N	1.495784	0.115100	0.356153
N86	N	1.995784	0.615100	0.856153
N87	N	1.495793	0.115098	-0.356084
N88	N	1.995793	0.615098	0.143916
C89	C	1.655323	0.009701	0.356159
C90	C	2.155323	0.509701	0.856159
C91	C	1.735102	-0.042996	0.428101
C92	C	2.235102	0.457004	0.928101
C93	C	1.735115	-0.042997	0.571981
C94	C	2.235115	0.457003	1.071981
C95	C	1.655338	0.009704	0.643922
C96	C	2.155338	0.509704	1.143922
C97	C	1.575559	0.062402	0.571979
C98	C	2.075559	0.562402	1.071979
C99	C	1.575558	0.062398	0.428096
C100	C	2.075558	0.562398	0.928096
C101	C	1.416015	0.167796	0.571973
C102	C	1.916015	0.667796	1.071973
C103	C	1.416007	0.167801	0.428094
C104	C	1.916007	0.667801	0.928094
C105	C	1.336238	0.220496	0.643914
C106	C	1.836238	0.720496	1.143914
C107	C	1.256464	0.273199	0.571971
C108	C	1.756464	0.773199	1.071971
C109	C	1.256455	0.273198	0.428083
C110	C	1.756455	0.773198	0.928083
C111	C	1.336228	0.220498	0.356151
C112	C	1.836228	0.720498	0.856151
H113	H	1.248597	-0.023336	0.000051
H114	H	1.748597	0.476664	0.500051
H115	H	1.800053	-0.085906	0.369515
H116	H	2.300053	0.414094	0.869515
H117	H	1.219098	0.261412	-0.000037
H118	H	1.719098	0.761412	0.499963
C119	C	1.822874	-0.100966	0.651120
C120	C	2.322874	0.399034	1.151120
N121	N	1.888975	-0.144628	0.710728
N122	N	2.388975	0.355372	1.210728
H123	H	1.655342	0.009694	0.761076
H124	H	2.155342	0.509694	1.261076
H125	H	1.347616	-0.387521	0.000014
H126	H	1.847616	0.112479	0.500014
C127	C	1.274789	-0.640856	-0.000012
C128	C	1.774789	-0.140856	0.499988
N129	N	1.176189	-0.667448	-0.000027
N130	N	1.676189	-0.167448	0.499973
C131	C	1.297999	-0.469481	-0.000018
C132	C	1.797999	0.030519	0.499982
N133	N	1.208548	-0.428465	-0.000041
N134	N	1.708548	0.071535	0.499959
C135	C	1.168713	0.331183	0.348957
C136	C	1.668713	0.831183	0.848957
N137	N	1.102632	0.374864	0.289365
N138	N	1.602632	0.874864	0.789365
H139	H	0.848624	0.384663	-0.000037
H140	H	1.348624	0.884663	0.499963
C141	C	1.693558	-0.300318	0.000064
C142	C	2.193558	0.199682	0.500064
N143	N	1.783005	-0.341337	0.000092
N144	N	2.283005	0.158663	0.500092
H145	H	1.271013	-0.106516	0.000017
H146	H	1.771013	0.393484	0.500017
H147	H	1.191509	0.316101	0.630554
H148	H	1.691509	0.816101	1.130554
C149	C	1.336237	0.220484	0.802186
C150	C	1.836237	0.720484	1.302186
N151	N	1.336233	0.220475	0.921398
N152	N	1.836233	0.720475	1.421398
C153	C	1.216955	-0.263750	0.000020
C154	C	1.716955	0.236250	0.500020
N155	N	1.118357	-0.290346	0.000032
N156	N	1.618357	0.209654	0.500032
H157	H	1.643943	-0.382282	-0.000005
H158	H	2.143943	0.117718	0.499995
H159	H	0.904870	-0.158388	0.000108
H160	H	1.404870	0.341612	0.500108
H161	H	1.086699	0.388590	-0.000044
H162	H	1.586699	0.888590	0.499956
C163	C	1.716774	-0.128945	0.000059
C164	C	2.216774	0.371055	0.500059
N165	N	1.815379	-0.102360	0.000060
N166	N	2.315379	0.397640	0.500060
H167	H	1.740605	-0.515222	0.000042
H168	H	2.240605	-0.015222	0.500042
C169	C	1.336225	0.220491	0.197879
C170	C	1.836225	0.720491	0.697879
N171	N	1.336221	0.220481	0.078667
N172	N	1.836221	0.720481	0.578667
H173	H	1.655332	0.009703	0.239004
H174	H	2.155332	0.509703	0.739004
C175	C	0.705468	0.252927	0.000008
C176	C	1.205468	0.752927	0.500008
N177	N	0.596745	0.251136	0.000017
N178	N	1.096745	0.751136	0.500017
H179	H	0.772466	-0.031201	0.000086
H180	H	1.272466	0.468799	0.500086
H181	H	1.142941	-0.154466	0.000112
H182	H	1.642941	0.345534	0.500112
H183	H	1.720546	-0.663284	0.000034
H184	H	2.220546	-0.163284	0.500034
