data_functionalizedCrystal
_audit_creation_method	'MofGen! by Chris Wilmer'
_symmetry_space_group_name_H-M	'P1'
_symmetry_Int_Tables_number	1
_symmetry_cell_setting	triclinic
loop_
_symmetry_equiv_pos_as_xyz
  x,y,z
_cell_length_a	20.453700
_cell_length_b	27.923496
_cell_length_c	27.923456
_cell_angle_alpha	82.409838
_cell_angle_beta	81.036587
_cell_angle_gamma	98.963946
loop_
_atom_site_label
_atom_site_type_symbol
_atom_site_fract_x
_atom_site_fract_y
_atom_site_fract_z
V1	V	-1.318106	-0.067845	0.151583
O2	O	-1.322024	0.002521	0.148381
O3	O	-1.294782	-0.133815	0.150849
O4	O	-1.294785	-0.067126	0.217554
O5	O	-1.322021	-0.064629	0.081215
V6	V	-1.481179	-0.059390	0.143129
O7	O	-1.401029	-0.086392	0.170126
O8	O	-1.548322	-0.040844	0.124586
O9	O	-1.430101	0.006579	0.143862
O10	O	-1.516394	-0.129756	0.146330
O11	O	-1.516397	-0.062606	0.213497
O12	O	-1.430098	-0.060109	0.077157
V13	V	-0.984773	-0.067845	0.151583
O14	O	-0.988690	0.002521	0.148381
O15	O	-0.961449	-0.133815	0.150849
O16	O	-0.961452	-0.067126	0.217554
O17	O	-0.988688	-0.064629	0.081215
V18	V	-1.147846	-0.059390	0.143129
O19	O	-1.067695	-0.086392	0.170126
O20	O	-1.214989	-0.040844	0.124586
O21	O	-1.096768	0.006579	0.143862
O22	O	-1.183061	-0.129756	0.146330
O23	O	-1.183063	-0.062606	0.213497
O24	O	-1.096765	-0.060109	0.077157
V25	V	-0.651440	-0.067845	0.151583
O26	O	-0.655357	0.002521	0.148381
O27	O	-0.628116	-0.133815	0.150849
O28	O	-0.628118	-0.067126	0.217554
O29	O	-0.655354	-0.064629	0.081215
V30	V	-0.814512	-0.059390	0.143129
O31	O	-0.734362	-0.086392	0.170126
O32	O	-0.881656	-0.040844	0.124586
O33	O	-0.763434	0.006579	0.143862
O34	O	-0.849727	-0.129756	0.146330
O35	O	-0.849730	-0.062606	0.213497
O36	O	-0.763432	-0.060109	0.077157
C37	C	-1.241599	-0.149886	0.148536
C38	C	-1.249576	-0.203819	0.148377
C39	C	-1.359290	-0.540754	0.149871
C40	C	-1.389312	-0.743461	0.149294
O41	O	-1.444364	-0.771786	0.151309
N42	N	-1.332901	-0.766324	0.146787
C43	C	-1.268980	-0.738507	0.144428
O44	O	-1.221689	-0.762606	0.142288
C45	C	-1.238960	-0.535802	0.145009
C46	C	-1.295374	-0.512942	0.147511
C47	C	-1.415700	-0.517893	0.152374
C48	C	-1.408194	-0.467219	0.152515
C49	C	-1.344278	-0.439406	0.150155
C50	C	-1.287868	-0.462268	0.147653
C51	C	-1.175040	-0.507988	0.142654
C52	C	-1.167540	-0.457309	0.142800
C53	C	-1.223955	-0.434448	0.145302
C54	C	-1.216446	-0.383781	0.145434
N55	N	-1.272857	-0.360918	0.147940
C56	C	-1.336773	-0.388731	0.150301
C57	C	-1.284746	-0.844930	0.144122
C58	C	-1.292250	-0.895606	0.143976
C59	C	-1.412582	-0.900556	0.148843
C60	C	-1.405076	-0.849879	0.148986
C61	C	-1.341157	-0.822067	0.146629
C62	C	-1.321005	-0.282311	0.150598
C63	C	-1.313492	-0.231632	0.150737
C64	C	-1.193162	-0.226687	0.145873
C65	C	-1.200673	-0.277361	0.145731
C66	C	-1.264600	-0.305173	0.148095
O67	O	-1.161418	-0.355426	0.143425
O68	O	-1.384057	-0.364625	0.152452
C69	C	-1.366796	-0.591428	0.149730
C70	C	-1.310387	-0.614289	0.147228
C71	C	-1.246471	-0.586477	0.144867
C72	C	-1.317891	-0.664965	0.147082
C73	C	-1.381807	-0.692778	0.149442
C74	C	-1.438218	-0.669915	0.151949
C75	C	-1.430712	-0.619241	0.152090
C76	C	-1.190059	-0.609340	0.142361
C77	C	-1.197570	-0.660014	0.142219
C78	C	-1.261486	-0.687827	0.144579
C79	C	-1.241602	-0.064818	0.233625
C80	C	-1.249581	-0.064666	0.287559
C81	C	-1.371065	0.022649	0.146174
C82	C	-1.356166	0.076581	0.146337
C83	C	-1.371062	-0.062419	0.061084
C84	C	-1.356163	-0.062568	0.007150
C85	C	-0.908266	-0.149886	0.148536
C86	C	-0.916243	-0.203819	0.148377
C87	C	-1.359288	-0.066114	0.624486
C88	C	-1.389308	-0.065526	0.827191
O89	O	-1.444352	-0.067498	0.855509
N90	N	-1.332898	-0.063021	0.850055
C91	C	-1.268976	-0.060660	0.822238
O92	O	-1.221684	-0.058511	0.846336
C93	C	-1.238956	-0.061245	0.619534
C94	C	-1.295372	-0.063755	0.596674
C95	C	-1.415698	-0.068624	0.601626
C96	C	-1.408193	-0.068773	0.550953
C97	C	-1.344278	-0.066414	0.523141
C98	C	-1.287867	-0.063905	0.546001
C99	C	-1.175035	-0.058880	0.591718
C100	C	-1.167534	-0.059026	0.541039
C101	C	-1.223950	-0.061535	0.518179
C102	C	-1.216446	-0.061695	0.467516
N103	N	-1.272857	-0.064200	0.444653
C104	C	-1.336773	-0.066559	0.472465
C105	C	-1.284742	-0.060354	0.928661
C106	C	-1.292247	-0.060209	0.979337
C107	C	-1.412579	-0.065074	0.984286
C108	C	-1.405073	-0.065223	0.933610
C109	C	-1.341153	-0.062859	0.905798
C110	C	-1.321007	-0.066874	0.366048
C111	C	-1.313497	-0.067025	0.315371
C112	C	-1.193166	-0.062158	0.310426
C113	C	-1.200676	-0.062009	0.361099
C114	C	-1.264602	-0.064365	0.388909
O115	O	-1.161423	-0.059718	0.439167
O116	O	-1.384055	-0.068697	0.448357
C117	C	-1.366792	-0.065965	0.675159
C118	C	-1.310382	-0.063456	0.698019
C119	C	-1.246466	-0.061096	0.670207
C120	C	-1.317887	-0.063310	0.748695
C121	C	-1.381802	-0.065670	0.776508
C122	C	-1.438213	-0.068175	0.753644
C123	C	-1.430708	-0.068324	0.702971
C124	C	-1.190055	-0.058591	0.693071
C125	C	-1.197565	-0.058442	0.743744
C126	C	-1.261481	-0.060802	0.771556
C127	C	-0.908269	-0.064818	0.233625
C128	C	-0.916248	-0.064666	0.287559
C129	C	-1.037731	0.022649	0.146174
C130	C	-1.022833	0.076581	0.146337
C131	C	-1.037729	-0.062419	0.061084
C132	C	-1.022829	-0.062568	0.007150
C133	C	-0.574932	-0.149886	0.148536
C134	C	-0.582910	-0.203819	0.148377
C135	C	-0.574936	-0.064818	0.233625
C136	C	-0.582914	-0.064666	0.287559
C137	C	-0.704398	0.022649	0.146174
C138	C	-0.689500	0.076581	0.146337
C139	C	-0.704395	-0.062419	0.061084
C140	C	-0.689496	-0.062568	0.007150
C141	C	-0.980159	-0.231632	0.150737
C142	C	-0.987665	-0.282310	0.150595
C143	C	-0.931254	-0.305173	0.148088
C144	C	-0.867333	-0.277356	0.145729
C145	C	-0.859829	-0.226680	0.145875
C146	C	-0.980164	-0.067025	0.315371
C147	C	-0.987669	-0.066877	0.366048
C148	C	-0.931258	-0.064372	0.388911
C149	C	-0.867337	-0.062011	0.361095
C150	C	-0.859832	-0.062156	0.310419
C151	C	-1.073913	0.104394	0.143978
C152	C	-1.059921	0.155071	0.144123
C153	C	-0.994850	0.177934	0.146630
C154	C	-0.943766	0.150117	0.148988
C155	C	-0.957757	0.099442	0.148840
C156	C	-0.957753	-0.065068	-0.015702
C157	C	-0.943742	-0.065202	-0.066380
C158	C	-0.994811	-0.062841	-0.094205
C159	C	-1.059893	-0.060340	-0.071351
C160	C	-1.073901	-0.060202	-0.020674
C161	C	-0.646826	-0.231632	0.150737
C162	C	-0.654332	-0.282310	0.150595
C163	C	-0.597921	-0.305173	0.148088
C164	C	-0.534000	-0.277356	0.145729
C165	C	-0.526495	-0.226680	0.145875
C166	C	-0.646830	-0.067025	0.315371
C167	C	-0.654336	-0.066877	0.366048
C168	C	-0.597925	-0.064372	0.388911
C169	C	-0.534004	-0.062011	0.361095
C170	C	-0.526499	-0.062156	0.310419
C171	C	-0.740579	0.104394	0.143978
C172	C	-0.726587	0.155071	0.144123
C173	C	-0.661516	0.177934	0.146630
C174	C	-0.610433	0.150117	0.148988
C175	C	-0.624424	0.099442	0.148840
C176	C	-0.624419	-0.065068	-0.015702
C177	C	-0.610409	-0.065202	-0.066380
C178	C	-0.661478	-0.062841	-0.094205
C179	C	-0.726559	-0.060340	-0.071351
C180	C	-0.740568	-0.060202	-0.020674
H181	H	-1.359435	-0.213021	0.152773
C182	C	-1.112977	-0.533124	0.139904
N183	N	-1.066227	-0.552055	0.137835
C184	C	-0.568228	0.068852	0.151442
N185	N	-0.525898	0.045814	0.153402
C186	C	-1.057983	-0.312898	0.153184
N187	N	-1.110946	-0.335935	0.155134
C188	C	-1.375562	-0.069784	0.290228
N189	N	-1.422308	-0.071859	0.271291
C190	C	-0.606187	-0.360918	0.147924
N191	N	-0.612417	-0.402905	0.147799
C192	C	-0.568230	-0.067662	0.014897
N193	N	-0.525904	-0.069613	0.037940
H194	H	-1.454134	-0.448611	0.154556
H195	H	-0.604045	-0.064254	0.430175
H196	H	-0.768191	0.177712	0.142203
C197	C	-0.789518	-0.059569	0.279832
N198	N	-0.736555	-0.057623	0.256797
C199	C	-0.456178	-0.196090	0.143270
N200	N	-0.403212	-0.173052	0.141307
H201	H	-0.821410	-0.059971	0.379719
C202	C	-0.805285	-0.302512	0.142963
N203	N	-0.758549	-0.321460	0.140875
H204	H	-0.557412	-0.067239	-0.084980
C205	C	-0.939520	-0.360918	0.147924
N206	N	-0.945750	-0.402905	0.147799
C207	C	-0.646058	-0.062997	-0.149950
N208	N	-0.634441	-0.063116	-0.191937
H209	H	-0.488073	-0.295979	0.143688
C210	C	-0.812161	-0.057456	0.004457
N211	N	-0.866088	-0.055388	0.023383
C212	C	-0.872150	-0.067962	-0.091508
N213	N	-0.818228	-0.070043	-0.110433
H214	H	-1.126901	0.085786	0.141936
C215	C	-0.901562	0.068852	0.151442
N216	N	-0.859231	0.045814	0.153402
C217	C	-0.724655	-0.069477	0.396637
N218	N	-0.777620	-0.071437	0.419675
H219	H	-1.373059	-0.304950	0.152524
C220	C	-1.508528	-0.700520	0.154549
N221	N	-1.561484	-0.723574	0.156512
H222	H	-0.983466	0.219197	0.146751
H223	H	-1.115489	-0.434667	0.140884
H224	H	-1.101524	0.177712	0.142203
C225	C	-0.872189	0.175275	0.151746
N226	N	-0.818278	0.194224	0.153825
H227	H	-1.026099	-0.213024	0.152775
C228	C	-0.471948	-0.059202	0.386245
N229	N	-0.425205	-0.057068	0.405186
H230	H	-0.692770	-0.069067	0.296763
C231	C	-1.057989	-0.069477	0.396637
N232	N	-1.110954	-0.071437	0.419675
H233	H	-1.467750	-0.540534	0.154297
H234	H	-1.026104	-0.069067	0.296763
H235	H	-1.373061	-0.068794	0.388685
C236	C	-0.708890	-0.206494	0.153498
N237	N	-0.755641	-0.187563	0.155581
H238	H	-0.807780	-0.204038	0.143950
H239	H	-0.916161	-0.066991	0.006947
H240	H	-0.474450	-0.060236	0.287778
C241	C	-0.979392	-0.062997	-0.149950
N242	N	-0.967775	-0.063116	-0.191937
C243	C	-0.939525	-0.064213	0.444657
N244	N	-0.945756	-0.064094	0.486646
C245	C	-1.122855	-0.196083	0.143272
N246	N	-1.069900	-0.173030	0.141314
H247	H	-0.768135	-0.058415	-0.094014
H248	H	-1.151620	-0.056402	0.762352
H249	H	-1.101469	-0.058415	-0.094014
H250	H	-0.793568	0.085786	0.141936
C251	C	-1.467138	-0.824738	0.151746
N252	N	-1.513888	-0.805805	0.153830
H253	H	-0.557451	0.168740	0.151029
H254	H	-1.126895	-0.058169	-0.002073
H255	H	-0.650133	0.219197	0.146751
C256	C	-1.230188	-0.920746	0.141218
N257	N	-1.183440	-0.939680	0.139143
H258	H	-1.454134	-0.070815	0.532345
H259	H	-0.706384	-0.304951	0.152514
H260	H	-1.232693	-0.822290	0.142203
C261	C	-1.492777	-0.594104	0.154857
N262	N	-1.539530	-0.575174	0.156948
H263	H	-1.154736	-0.295976	0.143697
C264	C	-1.135504	-0.685154	0.139466
N265	N	-1.088757	-0.704090	0.137397
H266	H	-1.464625	-0.923209	0.150760
C267	C	-1.467134	-0.067979	0.908468
N268	N	-1.513882	-0.070053	0.889533
C269	C	-1.230185	-0.057453	1.004478
N270	N	-1.183437	-0.055374	1.023412
C271	C	-1.486015	-0.071219	0.632212
N272	N	-1.538982	-0.073177	0.655246
C273	C	-1.112969	-0.056114	0.616852
N274	N	-1.066216	-0.054028	0.635781
C275	C	-1.097216	-0.056428	0.510449
N276	N	-1.044253	-0.054473	0.487410
C277	C	-1.122860	-0.059562	0.279823
N278	N	-1.069905	-0.057603	0.256771
C279	C	-1.508522	-0.070768	0.784247
N280	N	-1.561475	-0.072718	0.807299
C281	C	-1.214423	-0.057762	0.898075
N282	N	-1.161458	-0.055814	0.875041
H283	H	-1.138012	-0.586699	0.140439
H284	H	-1.154738	-0.059970	0.379714
H285	H	-1.464623	-0.066997	1.006940
H286	H	-1.476649	-0.070368	0.684363
H287	H	-1.138008	-0.056672	0.670431
