data_functionalizedCrystal
_audit_creation_method	'MofGen! by Chris Wilmer'
_symmetry_space_group_name_H-M	'P1'
_symmetry_Int_Tables_number	1
_symmetry_cell_setting	triclinic
loop_
_symmetry_equiv_pos_as_xyz
  x,y,z
_cell_length_a	18.101398
_cell_length_b	14.908520
_cell_length_c	14.908858
_cell_angle_alpha	90.221996
_cell_angle_beta	93.272135
_cell_angle_gamma	86.683700
loop_
_atom_site_label
_atom_site_type_symbol
_atom_site_fract_x
_atom_site_fract_y
_atom_site_fract_z
Zn1	Zn	1.091540	0.328709	-0.529182
Zn2	Zn	1.591540	0.828709	-0.029182
Zn3	Zn	1.090628	0.487763	-0.387495
Zn4	Zn	1.590628	0.987763	0.112505
Zn5	Zn	0.974406	0.337411	-0.378826
Zn6	Zn	1.474406	0.837411	0.121174
Zn7	Zn	0.960141	0.479016	-0.537788
Zn8	Zn	1.460141	0.979016	-0.037788
O9	O	1.029179	0.408225	-0.458323
O10	O	1.529179	0.908225	0.041677
O11	O	1.195050	0.349826	-0.510414
O12	O	1.695050	0.849826	-0.010414
O13	O	1.080800	0.475121	-0.260523
O14	O	1.580800	0.975121	0.239477
O15	O	0.996295	0.210430	-0.391541
O16	O	1.496295	0.710430	0.108459
O17	O	1.194380	0.466683	-0.406317
O18	O	1.694380	0.966683	0.093683
O19	O	1.082353	0.204037	-0.502008
O20	O	1.582353	0.704037	-0.002008
O21	O	0.995411	0.364658	-0.254154
O22	O	1.495411	0.864658	0.245846
O23	O	0.868883	0.356177	-0.399886
O24	O	1.368883	0.856177	0.100114
O25	O	0.971983	0.451775	-0.662469
O26	O	1.471983	0.951775	-0.162469
O27	O	0.858402	0.460214	-0.516674
O28	O	1.358402	0.960214	-0.016674
O29	O	1.068522	0.341345	-0.656146
O30	O	1.568522	0.841345	-0.156146
O31	O	1.066968	0.612429	-0.414662
O32	O	1.566968	1.112429	0.085338
O33	O	0.971099	0.606003	-0.525081
O34	O	1.471099	1.106003	-0.025081
C35	C	0.836772	0.408191	-0.458274
C36	C	1.336772	0.908191	0.041726
C37	C	0.754458	0.408197	-0.458275
C38	C	1.254458	0.908197	0.041725
C39	C	1.017406	0.641841	-0.471765
C40	C	1.517406	1.141841	0.028235
C41	C	1.012436	0.741781	-0.477546
C42	C	1.512436	1.241781	0.022454
C43	C	1.018763	0.394614	-0.692844
C44	C	1.518763	0.894614	-0.192844
C45	C	1.014324	0.388814	-0.792783
C46	C	1.514324	0.888814	-0.292783
C47	C	0.455361	0.408249	-0.458354
C48	C	0.955361	0.908249	0.041646
C49	C	0.493257	0.342425	-0.385193
C50	C	0.993257	0.842425	0.114807
C51	C	0.578879	0.342629	-0.384909
C52	C	1.078879	0.842629	0.115091
C53	C	0.603746	0.408222	-0.458315
C54	C	1.103746	0.908222	0.041685
C55	C	0.569049	0.504435	-0.437888
C56	C	1.069049	1.004435	0.062112
C57	C	0.483445	0.504075	-0.437385
C58	C	0.983445	1.004075	0.062615
C59	C	0.483932	0.378674	-0.552153
C60	C	0.983932	0.878674	-0.052153
C61	C	0.569712	0.376595	-0.551512
C62	C	1.069712	0.876595	-0.051512
C63	C	0.687607	0.408213	-0.458295
C64	C	1.187607	0.908213	0.041705
C65	C	0.371499	0.408265	-0.458373
C66	C	0.871499	0.908265	0.041627
C67	C	1.222337	0.408259	-0.458373
C68	C	1.722337	0.908259	0.041627
C69	C	1.304649	0.408274	-0.458394
C70	C	1.804649	0.908274	0.041606
C71	C	1.041017	0.173696	-0.444848
C72	C	1.541017	0.673696	0.055152
C73	C	1.046062	0.073753	-0.439105
C74	C	1.546062	0.573753	0.060895
C75	C	1.103018	0.936204	-0.373522
C76	C	1.603018	1.436204	0.126478
C77	C	1.098350	1.030107	-0.378951
C78	C	1.598350	1.530107	0.121049
C79	C	0.998438	1.023491	-0.493836
C80	C	1.498438	1.523491	0.006164
C81	C	1.003105	0.929588	-0.488408
C82	C	1.503105	1.429588	0.011592
C83	C	1.055396	0.885948	-0.428248
C84	C	1.555396	1.385948	0.071752
C85	C	1.060059	0.792044	-0.422815
C86	C	1.560059	1.292044	0.077185
C87	C	0.960151	0.785429	-0.537704
C88	C	1.460151	1.285429	-0.037704
C89	C	0.955484	0.879332	-0.543133
C90	C	1.455484	1.379332	-0.043133
C91	C	0.963616	0.323129	-0.930326
C92	C	1.463616	0.823129	-0.430326
C93	C	0.967784	0.328577	-0.836424
C94	C	1.467784	0.828577	-0.336424
C95	C	1.056702	0.443604	-0.843050
C96	C	1.556702	0.943604	-0.343050
C97	C	1.052534	0.438156	-0.936952
C98	C	1.552534	0.938156	-0.436952
C99	C	1.005989	0.377917	-0.980586
C100	C	1.505989	0.877917	-0.480586
C101	C	1.001817	0.372474	-1.074490
C102	C	1.501817	0.872474	-0.574490
C103	C	1.090739	0.487497	-1.081114
C104	C	1.590739	0.987497	-0.581114
C105	C	1.094906	0.492945	-0.987213
C106	C	1.594906	0.992945	-0.487213
C107	C	1.039600	0.421718	-0.224710
C108	C	1.539600	0.921718	0.275290
C109	C	1.044195	0.427265	-0.124757
C110	C	1.544195	0.927265	0.375243
H111	H	0.602706	0.271455	-0.397086
H112	H	1.102706	0.771455	0.102914
O113	O	0.609090	0.369113	-0.292697
O114	O	1.109090	0.869113	0.207303
H115	H	0.670421	0.369342	-0.292169
H116	H	1.170421	0.869342	0.207831
H117	H	0.955870	1.059038	-0.542821
H118	H	1.455870	1.559038	-0.042821
O119	O	1.145104	0.557912	-0.940140
O120	O	1.645104	1.057912	-0.440140
H121	H	1.203205	0.541453	-0.957285
H122	H	1.703205	1.041453	-0.457285
O123	O	0.899086	0.926414	-0.608008
O124	O	1.399086	1.426414	-0.108008
H125	H	0.909496	0.904266	-0.677552
H126	H	1.409496	1.404266	-0.177552
H127	H	0.457887	0.555074	-0.488645
H128	H	0.957887	1.055074	0.011355
O129	O	0.908784	0.731227	-0.596739
O130	O	1.408784	1.231227	-0.096739
H131	H	0.920815	0.658598	-0.582863
H132	H	1.420815	1.158598	-0.082863
O133	O	0.951623	0.307501	-1.121559
O134	O	1.451623	0.807501	-0.621559
H135	H	0.922867	0.270311	-1.070829
H136	H	1.422867	0.770311	-0.570829
H137	H	0.592497	0.529184	-0.370251
H138	H	1.092497	1.029184	0.129749
H139	H	0.465517	0.528513	-0.368976
H140	H	0.965517	1.028513	0.131024
O141	O	0.458470	0.286974	-0.578154
O142	O	0.958470	0.786974	-0.078154
H143	H	0.425162	0.261453	-0.524505
H144	H	0.925162	0.761453	-0.024505
H145	H	0.584568	0.555031	-0.489747
H146	H	1.084568	1.055031	0.010253
H147	H	1.145590	0.900672	-0.324531
H148	H	1.645590	1.400672	0.175469
H149	H	0.458836	0.426551	-0.606598
H150	H	0.958836	0.926551	-0.106598
H151	H	1.137130	1.071022	-0.334390
H152	H	1.637130	1.571022	0.165610
H153	H	0.933281	0.283961	-0.795505
H154	H	1.433281	0.783961	-0.295505
O155	O	0.913417	0.258163	-0.977399
O156	O	1.413417	0.758163	-0.477399
H157	H	0.884654	0.220976	-0.926672
H158	H	1.384654	0.720976	-0.426672
O159	O	0.600118	0.282775	-0.572060
O160	O	1.100118	0.782775	-0.072060
H161	H	0.639311	0.258764	-0.516138
H162	H	1.139311	0.758764	-0.016138
O163	O	1.136448	0.546594	-1.135321
O164	O	1.636448	1.046594	-0.635321
H165	H	1.125735	0.532684	-1.207948
H166	H	1.625735	1.032684	-0.707948
O167	O	0.467823	0.368613	-0.293500
O168	O	0.967823	0.868613	0.206500
H169	H	0.516466	0.384863	-0.248941
H170	H	1.016466	0.884863	0.251059
O171	O	1.106907	0.508565	-0.795980
O172	O	1.606907	1.008565	-0.295980
H173	H	1.073354	0.556790	-0.755818
H174	H	1.573354	1.056790	-0.255818
O175	O	0.469675	0.247893	-0.401051
O176	O	0.969675	0.747893	0.098949
H177	H	0.485995	0.224648	-0.468304
H178	H	0.985995	0.724648	0.031696
O179	O	1.116460	0.744968	-0.357938
O180	O	1.616460	1.244968	0.142062
H181	H	1.148796	0.795694	-0.320805
H182	H	1.648796	1.295694	0.179195
H183	H	0.586340	0.420605	-0.608502
H184	H	1.086340	0.920605	-0.108502
