data_functionalizedCrystal
_audit_creation_method	'MofGen! by Chris Wilmer'
_symmetry_space_group_name_H-M	'P1'
_symmetry_Int_Tables_number	1
_symmetry_cell_setting	triclinic
loop_
_symmetry_equiv_pos_as_xyz
  x,y,z
_cell_length_a	18.215407
_cell_length_b	21.395361
_cell_length_c	18.215399
_cell_angle_alpha	90.032630
_cell_angle_beta	90.016416
_cell_angle_gamma	90.028167
loop_
_atom_site_label
_atom_site_type_symbol
_atom_site_fract_x
_atom_site_fract_y
_atom_site_fract_z
Zn1	Zn	1.125039	-0.249485	0.416036
Zn2	Zn	1.124936	-0.354265	0.292961
Zn3	Zn	1.001972	-0.249501	0.292990
Zn4	Zn	1.001925	-0.354224	0.415992
O5	O	1.063468	-0.301869	0.354495
O6	O	1.228009	-0.263395	0.399717
O7	O	1.108601	-0.340392	0.189981
O8	O	1.018360	-0.161821	0.309343
O9	O	1.227933	-0.340376	0.309294
O10	O	1.108777	-0.161809	0.399745
O11	O	1.018260	-0.263422	0.190002
O12	O	0.898982	-0.263382	0.309300
O13	O	1.018279	-0.340306	0.518982
O14	O	0.898947	-0.340322	0.399669
O15	O	1.108730	-0.263355	0.519015
O16	O	1.108555	-0.441937	0.309251
O17	O	1.018179	-0.441907	0.399641
C18	C	1.063371	-0.464656	0.354454
C19	C	1.063396	-0.534298	0.354461
C20	C	0.872261	-0.301849	0.354484
C21	C	0.790463	-0.301856	0.354496
C22	C	1.110497	-0.567006	0.307443
C23	C	1.110531	-0.632441	0.307459
C24	C	1.063452	-0.665166	0.354486
C25	C	1.016348	-0.632450	0.401514
C26	C	1.016320	-0.567016	0.401501
C27	C	0.997188	-0.768878	0.360257
C28	C	0.997214	-0.834310	0.360264
C29	C	1.063537	-0.866987	0.354529
C30	C	1.129836	-0.834222	0.348772
C31	C	1.129808	-0.768787	0.348759
C32	C	1.063477	-0.736118	0.354506
C33	C	1.110679	-0.970647	0.307527
C34	C	1.110714	-1.036084	0.307548
C35	C	1.016525	-1.036091	0.401599
C36	C	1.016496	-0.970656	0.401581
C37	C	1.063572	-0.937938	0.354541
C38	C	0.525406	-0.341997	0.401486
C39	C	0.602265	-0.341992	0.401482
C40	C	0.602271	-0.261754	0.307517
C41	C	0.525413	-0.261763	0.307518
C42	C	0.486983	-0.301884	0.354506
C43	C	0.640699	-0.301869	0.354502
C44	C	0.724033	-0.301863	0.354498
C45	C	0.403644	-0.301891	0.354509
C46	C	1.255421	-0.301888	0.354507
C47	C	1.337220	-0.301897	0.354512
C48	C	1.063511	-0.301824	0.546448
C49	C	1.063529	-0.301805	0.628247
C50	C	1.063585	-0.138445	0.354552
C51	C	1.063635	-0.068804	0.354577
C52	C	1.063467	-0.301868	0.163289
C53	C	1.063591	-0.301710	0.081490
C54	C	1.110655	-0.261683	0.893323
C55	C	1.110646	-0.261700	0.816464
C56	C	1.016464	-0.341837	0.816420
C57	C	1.016477	-0.341823	0.893277
C58	C	1.063571	-0.301742	0.931727
C59	C	1.063549	-0.301773	0.778010
C60	C	1.063540	-0.301792	0.694677
C61	C	1.063582	-0.301724	1.015066
H62	H	1.148888	-0.659077	0.269172
O63	O	0.483958	-0.218500	0.256844
H64	H	0.498721	-0.169335	0.269569
O65	O	1.201383	-0.869447	0.342584
H66	H	1.208889	-0.899216	0.391900
O67	O	0.965661	-0.385054	0.774944
H68	H	0.932925	-0.412910	0.814564
O69	O	0.483928	-0.385271	0.452138
H70	H	0.448890	-0.417098	0.419106
O71	O	0.643710	-0.385252	0.452158
H72	H	0.604072	-0.413145	0.484834
H73	H	0.978135	-0.374447	0.924546
H74	H	1.183790	-0.742112	0.344073
H75	H	1.149074	-1.062713	0.269262
O76	O	0.965571	-0.667745	0.452235
H77	H	0.932817	-0.634005	0.484934
H78	H	0.977965	-0.540384	0.439790
H79	H	1.148830	-0.540368	0.269142
H80	H	1.149013	-0.944007	0.269226
O81	O	0.965741	-1.071377	0.452320
H82	H	0.973668	-1.122373	0.444427
H83	H	0.633570	-0.229089	0.269262
H84	H	1.149001	-0.229046	0.924626
O85	O	0.965676	-0.935371	0.452274
H86	H	0.932935	-0.969118	0.484971
O87	O	0.925712	-0.869649	0.366473
H88	H	0.879590	-0.835936	0.370474
O89	O	1.161428	-0.218493	0.775040
H90	H	1.194172	-0.190619	0.814691
H91	H	0.943175	-0.742279	0.364929
