data_functionalizedCrystal
_audit_creation_method	'MofGen! by Chris Wilmer'
_symmetry_space_group_name_H-M	'P1'
_symmetry_Int_Tables_number	1
_symmetry_cell_setting	triclinic
loop_
_symmetry_equiv_pos_as_xyz
  x,y,z
_cell_length_a	17.038272
_cell_length_b	17.699077
_cell_length_c	16.176319
_cell_angle_alpha	89.993140
_cell_angle_beta	89.993159
_cell_angle_gamma	87.196066
loop_
_atom_site_label
_atom_site_type_symbol
_atom_site_fract_x
_atom_site_fract_y
_atom_site_fract_z
O1	O	0.098839	1.010622	-0.068736
O2	O	0.111706	0.791094	-0.068741
O3	O	-0.008541	0.899553	-0.068732
O4	O	0.219085	0.902163	-0.068745
O5	O	-0.008549	0.899537	0.068761
O6	O	0.111698	0.791078	0.068753
O7	O	0.098831	1.010605	0.068757
Cu8	Cu	0.105264	0.900840	0.081309
Cu9	Cu	0.105273	0.900859	-0.081293
O10	O	0.219078	0.902146	0.068748
C11	C	0.111241	0.762858	0.000006
C12	C	0.109861	0.678749	0.000004
C13	C	0.109206	0.639229	0.074953
C14	C	0.107896	0.560200	0.074954
C15	C	0.107247	0.520691	0.000005
C16	C	0.107899	0.560216	-0.074949
C17	C	0.109203	0.639245	-0.074949
C18	C	0.102638	0.241505	-0.074950
C19	C	0.101336	0.162471	-0.074945
C20	C	0.101331	0.162460	0.074952
C21	C	0.102635	0.241489	0.074952
C22	C	0.103283	0.281007	-0.000001
C23	C	0.104702	0.366700	-0.000002
C24	C	0.105833	0.435000	0.000004
C25	C	-0.037669	0.897172	0.000014
C26	C	-0.124450	0.890091	0.000014
C27	C	-0.174672	0.955101	0.000016
C28	C	-0.256212	0.948444	0.000008
C29	C	-0.287528	0.876775	0.000004
C30	C	-0.237300	0.811759	-0.000001
C31	C	-0.155762	0.818418	0.000002
C32	C	-0.533247	0.853252	-0.000008
C33	C	-0.614791	0.846598	-0.000007
C34	C	-0.633697	0.983283	-0.000000
C35	C	-0.552157	0.989935	0.000007
C36	C	-0.501936	0.924920	-0.000002
C37	C	-0.370874	0.869968	-0.000001
C38	C	-0.418591	0.931727	-0.000002
C39	C	0.248206	0.904528	-0.000000
C40	C	0.334987	0.911609	-0.000005
C41	C	0.099295	1.038841	0.000009
C42	C	0.100676	1.122951	0.000005
N43	N	0.105257	0.900832	0.195674
N44	N	0.105273	0.900873	-0.195658
C45	C	0.052033	0.948874	0.238942
C46	C	0.052033	0.948878	0.325489
C47	C	0.105260	0.900843	0.368767
C48	C	0.158486	0.852795	0.325493
C49	C	0.158482	0.852788	0.238947
C50	C	0.158500	0.852822	0.674521
C51	C	0.158501	0.852834	0.761072
C52	C	0.052051	0.948912	0.761063
C53	C	0.052047	0.948905	0.674517
C54	C	0.105270	0.900855	0.631251
C55	C	0.105269	0.900850	0.537407
C56	C	0.105265	0.900850	0.462609
H57	H	-0.149181	1.013462	0.000025
O58	O	-0.484581	0.790021	0.000031
C59	C	-0.529710	0.725340	0.000013
H60	H	-0.590608	0.740632	0.026040
H61	H	-0.535467	0.703622	-0.065948
C62	C	-0.414171	0.644584	0.021972
C63	C	-0.488965	0.663364	0.053945
H64	H	-0.389037	0.606352	0.055236
H65	H	-0.383766	0.688160	0.021981
H66	H	-0.418979	0.626490	-0.032996
H67	H	-0.484156	0.681466	0.108907
H68	H	-0.519369	0.619789	0.053946
O69	O	0.000230	0.995518	0.367424
C70	C	-0.077147	0.978236	0.346306
H71	H	-0.077017	0.949061	0.283479
H72	H	-0.101283	0.939026	0.395032
C73	C	-0.129401	1.087571	0.419453
C74	C	-0.129242	1.051743	0.342284
H75	H	-0.161537	1.132912	0.416976
H76	H	-0.077271	1.099212	0.433684
H77	H	-0.149512	1.054888	0.460050
H78	H	-0.109122	1.084422	0.301691
H79	H	-0.181370	1.040108	0.328047
O80	O	0.109983	0.677595	-0.147775
C81	C	0.177336	0.654057	-0.193384
H82	H	0.224279	0.629378	-0.149533
H83	H	0.161281	0.609145	-0.240119
C84	C	0.151530	0.752666	-0.293168
C85	C	0.209188	0.722360	-0.239309
H86	H	0.171176	0.794796	-0.321500
H87	H	0.106151	0.768522	-0.262442
H88	H	0.138155	0.715232	-0.332106
H89	H	0.222554	0.759790	-0.200366
H90	H	0.254570	0.706511	-0.270029
O91	O	0.107133	0.521884	-0.147777
C92	C	0.039787	0.545430	-0.193382
H93	H	-0.007165	0.570094	-0.149528
H94	H	0.055847	0.590357	-0.240113
C95	C	0.065619	0.446852	-0.293176
C96	C	0.007949	0.477138	-0.239312
H97	H	0.045981	0.404728	-0.321511
H98	H	0.110993	0.430990	-0.262453
H99	H	0.078998	0.484297	-0.332111
H100	H	-0.005422	0.439696	-0.200372
H101	H	-0.037429	0.492992	-0.270029
H102	H	-0.674595	1.036215	0.000006
H103	H	-0.640285	0.788234	0.000003
H104	H	0.103164	0.273672	-0.135982
H105	H	0.109741	0.671391	0.135984
H106	H	-0.297099	1.001382	0.000012
H107	H	-0.393090	0.990080	-0.000017
H108	H	0.103168	0.273652	0.135983
H109	H	0.201847	0.813715	0.796308
H110	H	0.201822	0.813679	0.360734
O111	O	0.000266	0.995590	0.632607
C112	C	-0.046699	1.038008	0.689356
H113	H	-0.047539	1.006932	0.751057
H114	H	-0.021391	1.095860	0.698540
C115	C	-0.130026	1.086343	0.579808
C116	C	-0.131062	1.048171	0.655588
H117	H	-0.182064	1.092615	0.558978
H118	H	-0.098382	1.057767	0.541574
H119	H	-0.108931	1.134548	0.587472
H120	H	-0.152147	0.999963	0.647922
H121	H	-0.162711	1.076739	0.693820
O122	O	0.107301	0.521926	0.147833
C123	C	0.108141	0.573744	0.213983
H124	H	0.133811	0.628537	0.192005
H125	H	0.045588	0.586057	0.237038
C126	C	0.127352	0.472401	0.311781
C127	C	0.158887	0.539697	0.284789
H128	H	0.158651	0.451399	0.355460
H129	H	0.126783	0.437490	0.267215
H130	H	0.075225	0.482671	0.330988
H131	H	0.211008	0.529425	0.265573
H132	H	0.159465	0.574606	0.329354
O133	O	-0.267682	0.742124	-0.000153
C134	C	-0.241983	0.702179	-0.071354
H135	H	-0.225094	0.744003	-0.121123
H136	H	-0.188760	0.663427	-0.055257
C137	C	-0.329362	0.603024	-0.042518
C138	C	-0.308625	0.654394	-0.103648
H139	H	-0.370468	0.573545	-0.062438
H140	H	-0.346674	0.629934	0.005453
H141	H	-0.285004	0.570739	-0.029110
H142	H	-0.352980	0.686684	-0.117048
H143	H	-0.291322	0.627488	-0.151622
O144	O	0.000264	0.995414	0.196834
C145	C	-0.047924	0.951751	0.146833
H146	H	-0.016681	0.894553	0.133855
H147	H	-0.105669	0.942858	0.180233
C148	C	-0.103134	1.063582	0.080567
C149	C	-0.064758	0.993333	0.064622
H150	H	-0.113522	1.089232	0.029857
H151	H	-0.070671	1.092999	0.114255
H152	H	-0.151251	1.056161	0.108402
H153	H	-0.016639	1.000755	0.036797
H154	H	-0.097214	0.963918	0.030927
H155	H	0.201821	0.813665	0.203719
O156	O	0.210314	0.806234	0.632541
C157	C	0.287684	0.823510	0.653695
H158	H	0.287981	0.884128	0.677463
H159	H	0.310699	0.783054	0.703944
C160	C	0.340342	0.740696	0.547621
C161	C	0.340708	0.815150	0.576808
H162	H	0.373051	0.735536	0.500196
H163	H	0.288217	0.729054	0.533371
H164	H	0.359519	0.706990	0.589503
H165	H	0.321522	0.848853	0.534930
H166	H	0.392831	0.826798	0.591049
O167	O	-0.106942	0.755289	-0.000145
C168	C	-0.059191	0.755073	-0.071344
H169	H	-0.089125	0.791855	-0.121112
H170	H	0.000063	0.778478	-0.055244
C171	C	-0.009871	0.628355	-0.042511
C172	C	-0.046640	0.673527	-0.103640
H173	H	-0.002126	0.578054	-0.062432
H174	H	-0.042040	0.628502	0.005459
H175	H	0.039503	0.647869	-0.029100
H176	H	-0.096017	0.654019	-0.117043
H177	H	-0.014479	0.673375	-0.151613
H178	H	0.100800	0.130275	0.135983
O179	O	0.100668	0.124211	-0.147828
C180	C	0.101539	0.176035	-0.213985
H181	H	0.077726	0.233909	-0.192014
H182	H	0.164369	0.180535	-0.237040
C183	C	0.079030	0.077303	-0.311771
C184	C	0.049776	0.148384	-0.284788
H185	H	0.047104	0.060247	-0.355447
H186	H	0.078447	0.042387	-0.267200
H187	H	0.131389	0.081063	-0.330978
H188	H	-0.002577	0.144622	-0.265572
H189	H	0.050350	0.183299	-0.329357
O190	O	-0.521869	1.059612	-0.000023
C191	C	-0.583682	1.115567	0.000002
H192	H	-0.639029	1.090793	-0.026038
H193	H	-0.595272	1.135856	0.065967
C194	C	-0.492802	1.213172	-0.021923
C195	C	-0.560779	1.182746	-0.053912
H196	H	-0.478675	1.254613	-0.055176
H197	H	-0.451157	1.175475	-0.021937
H198	H	-0.502470	1.230074	0.033047
H199	H	-0.551108	1.165837	-0.108876
H200	H	-0.602422	1.220442	-0.053909
H201	H	0.008711	0.988035	0.796300
H202	H	-0.396381	0.811614	-0.000003
