data_functionalizedCrystal
_audit_creation_method	'MofGen! by Chris Wilmer'
_symmetry_space_group_name_H-M	'P1'
_symmetry_Int_Tables_number	1
_symmetry_cell_setting	triclinic
loop_
_symmetry_equiv_pos_as_xyz
  x,y,z
_cell_length_a	10.686285
_cell_length_b	10.685972
_cell_length_c	11.169409
_cell_angle_alpha	94.398131
_cell_angle_beta	85.599660
_cell_angle_gamma	90.336301
loop_
_atom_site_label
_atom_site_type_symbol
_atom_site_fract_x
_atom_site_fract_y
_atom_site_fract_z
Zn1	Zn	-0.352394	-1.956358	-0.795842
Zn2	Zn	-0.562221	-1.972351	-0.581043
Zn3	Zn	-0.368538	-1.746564	-0.578669
Zn4	Zn	-0.578177	-1.762666	-0.765202
O5	O	-0.465333	-1.859485	-0.680189
O6	O	-0.366794	-2.134033	-0.781165
O7	O	-0.536608	-1.942354	-0.412769
O8	O	-0.190848	-1.760962	-0.619307
O9	O	-0.520954	-2.145783	-0.623353
O10	O	-0.178987	-1.915097	-0.778863
O11	O	-0.394309	-1.776469	-0.411025
O12	O	-0.409781	-1.573147	-0.589597
O13	O	-0.548148	-1.788406	-0.937226
O14	O	-0.563802	-1.584977	-0.726642
O15	O	-0.382266	-1.930711	-0.959737
O16	O	-0.739886	-1.957967	-0.593643
O17	O	-0.751609	-1.803913	-0.728944
C18	C	-0.490275	-1.533543	-0.654537
C19	C	-0.500976	-1.394106	-0.643590
C20	C	-0.791263	-1.884457	-0.658255
C21	C	-0.930689	-1.895255	-0.648921
C22	C	-0.138127	-1.834450	-0.702238
C23	C	0.001309	-1.823781	-0.711634
C24	C	-0.465186	-1.859570	-0.993249
C25	C	-0.465123	-1.859607	-1.126656
C26	C	-0.440285	-1.186699	-0.705937
C27	C	-0.429589	-1.326136	-0.716896
C28	C	-0.465383	-1.859465	-0.368359
C29	C	-0.465073	-1.859644	-0.234996
H30	H	-0.360278	-1.374618	-0.788031
Cl31	Cl	-0.607981	-1.319253	-0.533740
Cl32	Cl	-0.923900	-1.716550	-0.805562
H33	H	-0.979140	-1.964702	-0.588073
