data_functionalizedCrystal
_audit_creation_method	'MofGen! by Chris Wilmer'
_symmetry_space_group_name_H-M	'P1'
_symmetry_Int_Tables_number	1
_symmetry_cell_setting	triclinic
loop_
_symmetry_equiv_pos_as_xyz
  x,y,z
_cell_length_a	21.295420
_cell_length_b	21.295417
_cell_length_c	18.101389
_cell_angle_alpha	90.022566
_cell_angle_beta	90.019054
_cell_angle_gamma	90.026289
loop_
_atom_site_label
_atom_site_type_symbol
_atom_site_fract_x
_atom_site_fract_y
_atom_site_fract_z
Zn1	Zn	0.962321	-0.250746	0.418713
Zn2	Zn	0.962233	-0.356000	0.294863
Zn3	Zn	0.857054	-0.250740	0.294886
Zn4	Zn	0.857014	-0.355974	0.418663
O5	O	0.909656	-0.303365	0.356781
O6	O	1.050399	-0.264721	0.402296
O7	O	0.948262	-0.342045	0.191233
O8	O	0.871072	-0.162652	0.311342
O9	O	1.050334	-0.342051	0.311303
O10	O	0.948411	-0.162656	0.402318
O11	O	0.870987	-0.264712	0.191250
O12	O	0.768960	-0.264687	0.311294
O13	O	0.871002	-0.342006	0.522302
O14	O	0.768930	-0.342001	0.402232
O15	O	0.948371	-0.264696	0.522339
O16	O	0.948222	-0.444086	0.311254
O17	O	0.870918	-0.444066	0.402210
C18	C	0.746104	-0.303341	0.356760
C19	C	0.676136	-0.303346	0.356769
C20	C	0.176711	-0.263194	0.404249
C21	C	0.242453	-0.263190	0.404249
C22	C	0.275296	-0.303384	0.356798
C23	C	0.242392	-0.343597	0.309358
C24	C	0.176650	-0.343605	0.309364
N25	N	0.378492	-0.308121	0.291953
N26	N	0.440943	-0.308109	0.291948
C27	C	0.473371	-0.303363	0.356777
N28	N	0.440988	-0.298617	0.421610
N29	N	0.378531	-0.298625	0.421614
C30	C	0.346582	-0.303380	0.356786
C31	C	0.577553	-0.263151	0.404218
C32	C	0.643297	-0.263150	0.404219
C33	C	0.643234	-0.343555	0.309321
C34	C	0.577492	-0.343558	0.309327
C35	C	0.544655	-0.303353	0.356774
C36	C	0.909573	-0.466917	0.356740
C37	C	0.909595	-0.536885	0.356747
C38	C	0.949884	-0.569740	0.309435
C39	C	0.949913	-0.635483	0.309452
C40	C	0.909643	-0.668367	0.356773
C41	C	0.869352	-0.635504	0.404094
C42	C	0.869328	-0.569762	0.404081
N43	N	0.854576	-0.771630	0.362411
N44	N	0.854600	-0.834081	0.362419
C45	C	0.909714	-0.866442	0.356815
N46	N	0.964803	-0.833992	0.351189
N47	N	0.964778	-0.771535	0.351177
C48	C	0.909665	-0.739653	0.356792
C49	C	0.950037	-0.970583	0.309519
C50	C	0.950068	-1.036327	0.309541
C51	C	0.869501	-1.036346	0.404179
C52	C	0.869476	-0.970604	0.404161
C53	C	0.909743	-0.937726	0.356827
C54	C	1.073846	-0.303390	0.356803
C55	C	1.143814	-0.303400	0.356812
C56	C	0.909692	-0.303349	0.549943
C57	C	0.909707	-0.303342	0.632257
C58	C	0.909756	-0.139175	0.356838
C59	C	0.909798	-0.069207	0.356863
C60	C	0.909656	-0.303335	0.164371
C61	C	0.909762	-0.303165	0.082057
C62	C	0.909744	-0.303224	0.931348
C63	C	0.860898	-0.351711	0.900000
C64	C	0.861030	-0.351936	0.814381
C65	C	0.909725	-0.303283	0.782966
C66	C	0.976048	-0.321294	0.814063
C67	C	0.975776	-0.321613	0.899708
C68	C	0.892844	-0.236618	0.899780
C69	C	0.891368	-0.237003	0.814129
C70	C	0.909719	-0.303315	0.699106
C71	C	0.909755	-0.303194	1.015208
H72	H	0.670081	-0.230412	0.442853
H73	H	0.924349	-0.198959	0.792745
H74	H	0.872188	-0.401307	0.793894
H75	H	0.842561	-0.223420	0.793804
H76	H	0.149979	-0.230459	0.442887
H77	H	0.550707	-0.376295	0.270695
H78	H	0.990103	-0.370303	0.919685
H79	H	0.928421	-0.200493	0.920055
H80	H	0.836667	-0.943851	0.442684
H81	H	0.845322	-0.220209	0.921373
H82	H	0.982673	-0.542973	0.270895
H83	H	0.811569	-0.340555	0.920592
H84	H	0.269243	-0.230447	0.442877
H85	H	0.836715	-1.063120	0.442712
H86	H	0.269137	-0.376326	0.270725
H87	H	0.811849	-0.340664	0.793355
H88	H	1.013404	-0.287830	0.920447
H89	H	0.149866	-0.376347	0.270734
H90	H	1.013420	-0.287089	0.793716
H91	H	0.871945	-0.400780	0.921520
H92	H	0.990623	-0.369467	0.792615
H93	H	0.550817	-0.230413	0.442852
H94	H	0.669975	-0.376287	0.270692
H95	H	0.982723	-0.662239	0.270925
H96	H	0.836565	-0.662282	0.442624
H97	H	0.982827	-0.943813	0.270979
H98	H	0.836520	-0.543011	0.442609
H99	H	0.982879	-1.063077	0.271015
