data_functionalizedCrystal
_audit_creation_method	'MofGen! by Chris Wilmer'
_symmetry_space_group_name_H-M	'P1'
_symmetry_Int_Tables_number	1
_symmetry_cell_setting	triclinic
loop_
_symmetry_equiv_pos_as_xyz
  x,y,z
_cell_length_a	19.121102
_cell_length_b	19.121449
_cell_length_c	18.215399
_cell_angle_alpha	92.467880
_cell_angle_beta	92.458396
_cell_angle_gamma	85.039789
loop_
_atom_site_label
_atom_site_type_symbol
_atom_site_fract_x
_atom_site_fract_y
_atom_site_fract_z
Zn1	Zn	1.087630	-0.326089	0.450102
Zn2	Zn	1.420963	0.007244	0.783435
Zn3	Zn	1.754296	0.340578	1.116769
Zn4	Zn	1.092558	-0.443752	0.321999
Zn5	Zn	1.425892	-0.110419	0.655333
Zn6	Zn	1.759225	0.222914	0.988666
Zn7	Zn	0.969965	-0.321083	0.322020
Zn8	Zn	1.303298	0.012250	0.655354
Zn9	Zn	1.636632	0.345583	0.988687
Zn10	Zn	0.974946	-0.438687	0.440000
Zn11	Zn	1.308279	-0.105354	0.773333
Zn12	Zn	1.641613	0.227980	1.106667
O13	O	1.031275	-0.382403	0.383530
O14	O	1.364608	-0.049070	0.716864
O15	O	1.697941	0.284264	1.050197
O16	O	1.186747	-0.345912	0.437328
O17	O	1.520081	-0.012579	0.770661
O18	O	1.853414	0.320755	1.103995
O19	O	1.076274	-0.427505	0.219016
O20	O	1.409607	-0.094172	0.552349
O21	O	1.742941	0.239161	0.885682
O22	O	0.981426	-0.223287	0.343247
O23	O	1.314759	0.110046	0.676581
O24	O	1.648093	0.443379	1.009914
O25	O	1.190369	-0.432359	0.343211
O26	O	1.523702	-0.099026	0.676545
O27	O	1.857035	0.234308	1.009878
O28	O	1.067874	-0.226965	0.437348
O29	O	1.401207	0.106369	0.770682
O30	O	1.734540	0.439702	1.104015
O31	O	0.986205	-0.337381	0.219031
O32	O	1.319539	-0.004047	0.552364
O33	O	1.652872	0.329286	0.885698
O34	O	0.872162	-0.332469	0.333452
O35	O	1.205495	0.000864	0.666785
O36	O	1.538828	0.334198	1.000118
O37	O	0.989916	-0.423726	0.544327
O38	O	1.323249	-0.090392	0.877660
O39	O	1.656582	0.242941	1.210993
O40	O	0.875821	-0.418872	0.420131
O41	O	1.209155	-0.085539	0.753464
O42	O	1.542488	0.247795	1.086797
O43	O	1.072704	-0.341000	0.551748
O44	O	1.406037	-0.007667	0.885082
O45	O	1.739370	0.325666	1.218415
O46	O	1.081104	-0.541541	0.333416
O47	O	1.414437	-0.208207	0.666749
O48	O	1.747771	0.125126	1.000082
O49	O	0.994695	-0.537819	0.420110
O50	O	1.328028	-0.204486	0.753444
O51	O	1.661362	0.128847	1.086777
C52	C	0.848461	-0.374578	0.375698
C53	C	1.181794	-0.041245	0.709031
C54	C	1.515128	0.292088	1.042364
C55	C	0.770253	-0.371248	0.372364
C56	C	1.103586	-0.037914	0.705697
C57	C	1.436920	0.295419	1.039030
C58	C	0.735437	-0.414736	0.415850
C59	C	1.068771	-0.081403	0.749183
C60	C	1.402104	0.251930	1.082516
C61	C	0.661952	-0.411598	0.412721
C62	C	0.995286	-0.078264	0.746054
C63	C	1.328619	0.255069	1.079387
C64	C	0.623284	-0.364973	0.366101
C65	C	0.956618	-0.031640	0.699435
C66	C	1.289951	0.301693	1.032768
C67	C	0.658105	-0.321480	0.322614
C68	C	0.991438	0.011853	0.655947
C69	C	1.324772	0.345187	0.989281
C70	C	0.731589	-0.324616	0.325747
C71	C	1.064922	0.008718	0.659080
C72	C	1.398255	0.342051	0.992414
C73	C	0.401315	-0.353249	0.354391
C74	C	0.734649	-0.019915	0.687724
C75	C	1.067982	0.313418	1.021058
C76	C	0.327827	-0.350118	0.351259
C77	C	0.661160	-0.016785	0.684593
C78	C	0.994493	0.316549	1.017926
C79	C	0.331679	-0.440235	0.441368
C80	C	0.665012	-0.106902	0.774701
C81	C	0.998346	0.226432	1.108034
C82	C	0.405164	-0.443369	0.444493
C83	C	0.738497	-0.110036	0.777827
C84	C	1.071831	0.223297	1.111160
C85	C	0.439978	-0.399873	0.401009
C86	C	0.773311	-0.066540	0.734342
C87	C	1.106645	0.266793	1.067675
C88	C	0.548171	-0.361766	0.362900
C89	C	0.881504	-0.028432	0.696234
C90	C	1.214838	0.304901	1.029567
C91	C	0.515090	-0.403078	0.404214
C92	C	0.848423	-0.069745	0.737547
C93	C	1.181757	0.263589	1.070881
C94	C	1.038994	-0.565210	0.375682
C95	C	1.372327	-0.231877	0.709015
C96	C	1.705661	0.101456	1.042348
C97	C	1.042361	-0.643419	0.372351
C98	C	1.375694	-0.310086	0.705684
C99	C	1.709027	0.023248	1.039018
C100	C	0.998923	-0.678248	0.415883
C101	C	1.332256	-0.344915	0.749217
C102	C	1.665590	-0.011581	1.082550
C103	C	1.002089	-0.751733	0.412751
C104	C	1.335423	-0.418400	0.746085
C105	C	1.668756	-0.085067	1.079418
C106	C	1.048698	-0.790388	0.366090
C107	C	1.382031	-0.457055	0.699423
C108	C	1.715364	-0.123722	1.032757
C109	C	1.092137	-0.755554	0.322553
C110	C	1.425470	-0.422221	0.655886
C111	C	1.758804	-0.088888	0.989220
C112	C	1.088967	-0.682070	0.325682
C113	C	1.422300	-0.348737	0.659015
C114	C	1.755633	-0.015403	0.992348
C115	C	1.060519	-1.012359	0.354384
C116	C	1.393853	-0.679025	0.687717
C117	C	1.727186	-0.345692	1.021050
C118	C	1.063688	-1.085848	0.351260
C119	C	1.397021	-0.752515	0.684593
C120	C	1.730355	-0.419181	1.017926
C121	C	0.973639	-1.082022	0.441457
C122	C	1.306972	-0.748689	0.774791
C123	C	1.640306	-0.415355	1.108124
C124	C	0.970476	-1.008537	0.444585
C125	C	1.303809	-0.675203	0.777919
C126	C	1.637142	-0.341870	1.111252
C127	C	1.013913	-0.973709	0.401045
C128	C	1.347246	-0.640376	0.734379
C129	C	1.680579	-0.307042	1.067712
C130	C	1.051937	-0.865502	0.362889
C131	C	1.385270	-0.532169	0.696222
C132	C	1.718603	-0.198836	1.029556
C133	C	1.010669	-0.898596	0.404243
C134	C	1.344003	-0.565263	0.737576
C135	C	1.677336	-0.231929	1.070910
C136	C	1.214803	-0.390259	0.391394
C137	C	1.548136	-0.056925	0.724728
C138	C	1.881469	0.276408	1.058061
C139	C	1.293011	-0.393607	0.394745
C140	C	1.626344	-0.060273	0.728079
C141	C	1.959678	0.273060	1.061412
C142	C	1.031316	-0.382356	0.575487
C143	C	1.364649	-0.049023	0.908821
C144	C	1.697982	0.284310	1.242154
C145	C	1.031333	-0.382336	0.657288
C146	C	1.364666	-0.049003	0.990621
C147	C	1.698000	0.284330	1.323955
C148	C	1.023545	-0.198883	0.391427
C149	C	1.356878	0.134451	0.724760
C150	C	1.690211	0.467784	1.058094
C151	C	1.020250	-0.120677	0.394792
C152	C	1.353584	0.212656	0.728125
C153	C	1.686917	0.545990	1.061459
C154	C	1.031272	-0.382400	0.192324
C155	C	1.364606	-0.049067	0.525658
C156	C	1.697939	0.284266	0.858991
C157	C	1.031383	-0.382228	0.110538
C158	C	1.364716	-0.048895	0.443872
C159	C	1.698050	0.284439	0.777205
C160	C	1.074455	-0.339220	0.849350
C161	C	1.407788	-0.005887	1.182684
C162	C	1.741122	0.327447	1.516017
C163	C	1.074463	-0.339200	0.926210
C164	C	1.407796	-0.005866	1.259544
C165	C	1.741129	0.327467	1.592877
C166	C	0.988256	-0.425346	0.918470
C167	C	1.321589	-0.092013	1.251804
C168	C	1.654923	0.241320	1.585137
C169	C	0.988245	-0.425362	0.841612
C170	C	1.321579	-0.092029	1.174945
C171	C	1.654912	0.241304	1.508278
C172	C	1.031349	-0.382300	0.807054
C173	C	1.364682	-0.048967	1.140387
C174	C	1.698015	0.284366	1.473721
C175	C	1.031367	-0.382264	0.960772
C176	C	1.364700	-0.048931	1.294106
C177	C	1.698034	0.284403	1.627439
C178	C	1.031375	-0.382243	1.044107
C179	C	1.364708	-0.048909	1.377441
C180	C	1.698042	0.284424	1.710774
C181	C	1.031340	-0.382321	0.723714
C182	C	1.364674	-0.048987	1.057047
C183	C	1.698007	0.284346	1.390380
H184	H	0.303326	-0.475646	0.476771
H185	H	0.636659	-0.142312	0.810105
H186	H	0.969992	0.191021	1.143438
F187	F	1.120328	-0.293388	0.812574
F188	F	1.453661	0.039946	1.145907
F189	F	1.786994	0.373279	1.479240
F190	F	0.920871	-0.967403	0.494251
F191	F	1.254205	-0.634069	0.827584
F192	F	1.587538	-0.300736	1.160918
F193	F	0.942360	-0.471213	0.796594
F194	F	1.275693	-0.137880	1.129927
F195	F	1.609026	0.195453	1.463261
H196	H	0.766916	-0.452705	0.453809
H197	H	1.100249	-0.119372	0.787143
H198	H	1.433583	0.213962	1.120476
H199	H	0.953164	-0.460407	0.946617
H200	H	1.286498	-0.127074	1.279950
H201	H	1.619831	0.206259	1.613284
H202	H	0.633609	-0.447011	0.448131
H203	H	0.966942	-0.113678	0.781464
H204	H	1.300276	0.219655	1.114798
H205	H	1.109563	-0.304118	0.960645
H206	H	1.442896	0.029215	1.293978
H207	H	1.776229	0.362548	1.627312
F208	F	1.106758	-0.975302	0.308054
F209	F	1.440092	-0.641969	0.641387
F210	F	1.773425	-0.308635	0.974721
F211	F	1.135196	-0.645003	0.279345
F212	F	1.468529	-0.311669	0.612678
F213	F	1.801862	0.021664	0.946011
F214	F	0.446312	-0.492995	0.494110
F215	F	0.779646	-0.159661	0.827444
F216	F	1.112979	0.173672	1.160777
H217	H	0.429652	-0.317837	0.318977
H218	H	0.762985	0.015497	0.652310
H219	H	1.096319	0.348830	0.985643
F220	F	0.616950	-0.271855	0.273003
F221	F	0.950283	0.061479	0.606336
F222	F	1.283616	0.394812	0.939669
F223	F	0.286675	-0.300496	0.301634
F224	F	0.620008	0.032837	0.634967
F225	F	0.953341	0.366171	0.968300
F226	F	0.768641	-0.278328	0.279465
F227	F	1.101975	0.055006	0.612798
F228	F	1.435308	0.388339	0.946131
H229	H	0.546576	-0.441036	0.442174
H230	H	0.879910	-0.107703	0.775508
H231	H	1.213243	0.225630	1.108841
F232	F	1.113297	-1.126986	0.301594
F233	F	1.446630	-0.793653	0.634928
F234	F	1.779964	-0.460320	0.968261
F235	F	0.927413	-1.119094	0.487791
F236	F	1.260746	-0.785760	0.821124
F237	F	1.594079	-0.452427	1.154458
H238	H	0.960973	-0.646780	0.453883
H239	H	1.294306	-0.313447	0.787217
H240	H	1.627639	0.019887	1.120550
F241	F	0.955863	-0.788798	0.459091
F242	F	1.289196	-0.455465	0.792424
F243	F	1.622529	-0.122131	1.125758
H244	H	1.130083	-0.787033	0.284557
H245	H	1.463416	-0.453699	0.617890
H246	H	1.796750	-0.120366	0.951223
F247	F	0.507011	-0.312146	0.313286
F248	F	0.840345	0.021187	0.646620
F249	F	1.173678	0.354521	0.979953
H250	H	1.089886	-0.896983	0.324898
H251	H	1.423219	-0.563650	0.658231
H252	H	1.756553	-0.230317	0.991565
F253	F	0.961065	-0.857455	0.453899
F254	F	1.294399	-0.524122	0.787233
F255	F	1.627732	-0.190789	1.120566
