data_functionalizedCrystal
_audit_creation_method	'MofGen! by Chris Wilmer'
_symmetry_space_group_name_H-M	'P1'
_symmetry_Int_Tables_number	1
_symmetry_cell_setting	triclinic
loop_
_symmetry_equiv_pos_as_xyz
  x,y,z
_cell_length_a	8.597340
_cell_length_b	8.559649
_cell_length_c	7.088929
_cell_angle_alpha	95.344185
_cell_angle_beta	103.954719
_cell_angle_gamma	102.374957
loop_
_atom_site_label
_atom_site_type_symbol
_atom_site_fract_x
_atom_site_fract_y
_atom_site_fract_z
O1	O	2.074465	-0.219480	0.182749
O2	O	2.574465	0.280520	0.682749
O3	O	1.606585	-0.245569	0.105672
O4	O	2.106585	0.254431	0.605672
O5	O	1.881746	0.000135	0.151003
O6	O	2.381746	0.500135	0.651003
O7	O	1.799304	-0.465184	0.137418
O8	O	2.299304	0.034816	0.637418
O9	O	1.918527	0.033046	0.475038
O10	O	2.418527	0.533046	0.975038
O11	O	1.643366	-0.212659	0.429707
O12	O	2.143366	0.287341	0.929707
O13	O	2.111247	-0.186570	0.506784
O14	O	2.611247	0.313430	1.006784
Cu15	Cu	1.880665	-0.196609	0.497833
Cu16	Cu	2.380665	0.303391	0.997833
Cu17	Cu	1.837167	-0.235529	0.114624
Cu18	Cu	2.337167	0.264471	0.614624
O19	O	1.836086	-0.432274	0.461453
O20	O	2.336086	0.067726	0.961453
C21	C	1.565631	-0.228145	0.257914
C22	C	2.065631	0.271855	0.757914
C23	C	1.388806	-0.225241	0.228784
C24	C	1.888806	0.274759	0.728784
C25	C	1.906384	0.076129	0.314046
C26	C	2.406384	0.576129	0.814046
C27	C	1.924980	0.253534	0.317099
C28	C	2.424980	0.753534	0.817099
C29	C	2.152200	-0.203994	0.354539
C30	C	2.652200	0.296006	0.854539
C31	C	2.329024	-0.206900	0.383656
C32	C	2.829024	0.293100	0.883656
C33	C	1.811447	-0.508268	0.298406
C34	C	2.311447	-0.008268	0.798406
C35	C	1.792850	-0.685674	0.295340
C36	C	2.292850	-0.185674	0.795340
N37	N	1.911271	-0.169234	0.767363
N38	N	2.411271	0.330766	1.267363
N39	N	1.806574	-0.262892	-0.154904
N40	N	2.306574	0.237108	0.345096
H41	H	1.413123	-0.193407	0.538542
H42	H	1.913123	0.306593	1.038542
H43	H	1.304701	-0.238722	0.073888
H44	H	1.804701	0.261278	0.573888
H45	H	2.052339	0.337220	0.338095
H46	H	2.552339	0.837220	0.838095
C47	C	1.620800	0.201284	0.266986
C48	C	2.120800	0.701284	0.766986
N49	N	1.491209	0.116131	0.245625
N50	N	1.991209	0.616131	0.745625
H51	H	1.698069	-0.359948	0.745574
H52	H	2.198069	0.140052	1.245574
C53	C	2.057874	-0.038113	0.901823
C54	C	2.557874	0.461887	1.401823
N55	N	2.168291	0.060649	1.003100
N56	N	2.668291	0.560649	1.503100
