data_functionalizedCrystal
_audit_creation_method	'MofGen! by Chris Wilmer'
_symmetry_space_group_name_H-M	'P1'
_symmetry_Int_Tables_number	1
_symmetry_cell_setting	triclinic
loop_
_symmetry_equiv_pos_as_xyz
  x,y,z
_cell_length_a	17.077404
_cell_length_b	17.640280
_cell_length_c	17.077396
_cell_angle_alpha	78.774026
_cell_angle_beta	89.982756
_cell_angle_gamma	78.800538
loop_
_atom_site_label
_atom_site_type_symbol
_atom_site_fract_x
_atom_site_fract_y
_atom_site_fract_z
Zn1	Zn	1.263272	-0.314653	-0.380746
Zn2	Zn	1.289749	-0.446836	-0.222974
Zn3	Zn	1.132015	-0.314683	-0.249488
Zn4	Zn	1.158526	-0.446787	-0.354207
O5	O	1.210891	-0.380740	-0.301854
O6	O	1.376633	-0.332196	-0.359828
O7	O	1.268810	-0.429338	-0.116638
O8	O	1.127251	-0.204074	-0.289103
O9	O	1.396085	-0.429310	-0.243913
O10	O	1.223685	-0.204052	-0.385537
O11	O	1.152924	-0.332246	-0.136117
O12	O	1.025683	-0.332199	-0.263369
O13	O	1.172436	-0.429226	-0.467581
O14	O	1.045161	-0.429255	-0.340306
O15	O	1.249392	-0.332148	-0.487079
O16	O	1.294517	-0.557434	-0.218179
O17	O	1.198109	-0.557398	-0.314596
C18	C	1.006940	-0.380725	-0.301835
C19	C	0.919693	-0.380738	-0.301842
C20	C	0.888880	-0.431352	-0.341807
C21	C	0.806900	-0.431354	-0.341819
C22	C	0.755735	-0.380745	-0.301861
C23	C	0.786551	-0.330126	-0.261895
C24	C	0.868529	-0.330121	-0.261888
C25	C	0.615684	-0.330142	-0.261911
C26	C	0.533701	-0.330148	-0.261916
C27	C	0.554055	-0.431374	-0.341842
C28	C	0.636033	-0.431369	-0.341835
C29	C	0.666845	-0.380751	-0.301867
C30	C	1.252084	-0.586095	-0.260648
C31	C	1.269779	-0.673947	-0.243046
C32	C	1.076788	-0.962924	-0.435859
C33	C	1.093416	-1.045475	-0.419294
C34	C	1.193869	-1.045446	-0.318997
C35	C	1.177251	-0.962895	-0.335556
C36	C	1.118709	-0.921640	-0.393987
C37	C	1.219173	-0.921610	-0.293684
C38	C	1.202554	-0.839066	-0.310239
C39	C	1.144013	-0.797805	-0.368666
C40	C	1.102090	-0.839095	-0.410542
C41	C	1.277711	-0.962866	-0.235249
C42	C	1.319632	-0.921582	-0.193378
C43	C	1.303017	-0.839036	-0.209936
C44	C	1.244477	-0.797776	-0.268363
C45	C	1.344940	-0.797746	-0.168060
C46	C	1.328321	-0.715201	-0.184615
C47	C	1.227857	-0.715231	-0.284918
C48	C	1.415638	-0.380755	-0.301873
C49	C	1.502889	-0.380761	-0.301881
C50	C	1.210918	-0.380679	-0.506611
C51	C	1.210929	-0.380652	-0.593866
C52	C	1.169557	-0.174583	-0.343238
C53	C	1.151943	-0.086731	-0.360873
C54	C	1.150601	-0.330090	-0.645000
C55	C	1.150611	-0.330073	-0.726984
C56	C	1.210952	-0.380613	-0.757833
C57	C	1.271283	-0.431181	-0.706692
C58	C	1.271270	-0.431202	-0.624709
C59	C	1.271307	-0.431131	-0.877572
C60	C	1.271321	-0.431109	-0.959561
C61	C	1.150648	-0.330002	-0.979847
C62	C	1.150635	-0.330023	-0.897864
C63	C	1.210967	-0.380590	-0.846729
C64	C	1.210897	-0.380744	-0.097905
C65	C	1.210993	-0.380547	-0.010695
H66	H	0.893614	-0.288902	-0.229349
H67	H	1.130477	-0.730592	-0.382138
H68	H	1.054425	-0.805504	-0.458128
N69	N	1.336344	-0.485730	-0.569556
H70	H	1.327178	-0.478076	-0.512940
H71	H	1.335446	-0.542175	-0.572552
H72	H	1.320410	-0.472336	-0.731815
N73	N	1.382771	-0.966090	-0.130362
H74	H	1.435948	-0.951679	-0.145499
H75	H	1.367665	-0.951746	-0.077161
N76	N	1.373537	-0.670662	-0.139465
H77	H	1.334772	-0.636457	-0.109919
H78	H	1.413148	-0.709367	-0.099982
N79	N	0.648919	-0.275544	-0.218808
H80	H	0.604068	-0.243486	-0.193493
H81	H	0.689364	-0.307670	-0.175980
N82	N	1.085541	-0.275541	-0.782136
H83	H	1.047316	-0.243524	-0.750153
H84	H	1.110166	-0.238959	-0.823500
N85	N	0.944065	-0.485943	-0.384899
H86	H	0.912102	-0.518005	-0.410219
H87	H	0.971648	-0.453815	-0.427722
H88	H	1.029123	-0.929333	-0.483445
N89	N	1.336397	-0.485636	-0.992822
H90	H	1.311834	-0.522246	-1.019480
H91	H	1.366330	-0.453466	-1.033254
N92	N	0.773668	-0.485955	-0.384911
H93	H	0.818522	-0.518021	-0.410214
H94	H	0.746976	-0.522486	-0.345558
H95	H	0.744885	-0.288916	-0.229364
N96	N	1.085520	-0.275570	-0.611738
H97	H	1.031896	-0.287837	-0.623537
H98	H	1.094733	-0.283273	-0.552052
H99	H	1.101502	-0.288865	-0.872750
H100	H	1.392599	-0.831348	-0.120480
N101	N	1.085580	-0.275453	-1.034996
H102	H	1.094741	-0.283107	-1.091613
H103	H	1.031976	-0.287743	-1.018194
N104	N	1.164711	-0.670729	-0.347936
H105	H	1.160545	-0.612173	-0.352065
H106	H	1.179788	-0.685115	-0.401126
H107	H	1.320441	-0.472301	-0.835941
H108	H	1.059283	-1.079085	-0.453405
H109	H	0.528965	-0.472587	-0.374388
N110	N	0.478512	-0.275564	-0.218820
H111	H	0.510468	-0.243493	-0.193505
H112	H	0.437181	-0.239036	-0.258171
N113	N	0.691223	-0.485959	-0.384923
H114	H	0.659267	-0.518026	-0.410244
H115	H	0.718807	-0.453831	-0.427744
N116	N	1.256999	-1.089944	-0.255969
H117	H	1.261164	-1.148501	-0.251831
H118	H	1.310141	-1.075471	-0.271139
H119	H	1.291242	-1.030080	-0.221775
