data_functionalizedCrystal
_audit_creation_method	'MofGen! by Chris Wilmer'
_symmetry_space_group_name_H-M	'P1'
_symmetry_Int_Tables_number	1
_symmetry_cell_setting	triclinic
loop_
_symmetry_equiv_pos_as_xyz
  x,y,z
_cell_length_a	21.295417
_cell_length_b	16.120490
_cell_length_c	21.295411
_cell_angle_alpha	87.080431
_cell_angle_beta	89.978356
_cell_angle_gamma	87.122615
loop_
_atom_site_label
_atom_site_type_symbol
_atom_site_fract_x
_atom_site_fract_y
_atom_site_fract_z
Zn1	Zn	-0.299608	1.274548	-0.404623
Zn2	Zn	0.200392	1.774548	0.095377
Zn3	Zn	-0.404855	1.274419	-0.299343
Zn4	Zn	0.095145	1.774419	0.200657
Zn5	Zn	-0.294256	1.135119	-0.294039
Zn6	Zn	0.205744	1.635119	0.205961
Zn7	Zn	-0.399489	1.135079	-0.399250
Zn8	Zn	0.100511	1.635079	0.100750
O9	O	-0.349552	1.204791	-0.349314
O10	O	0.150448	1.704791	0.150686
O11	O	-0.318054	1.391197	-0.395126
O12	O	0.181946	1.891197	0.104874
O13	O	-0.390189	1.255903	-0.210549
O14	O	0.109811	1.755903	0.289451
O15	O	-0.206879	1.153686	-0.308737
O16	O	0.293121	1.653686	0.191263
O17	O	-0.395379	1.391102	-0.317777
O18	O	0.104621	1.891102	0.182223
O19	O	-0.210811	1.256124	-0.389983
O20	O	0.289189	1.756124	0.110017
O21	O	-0.308933	1.153560	-0.206652
O22	O	0.191067	1.653560	0.293348
O23	O	-0.303730	1.018448	-0.303527
O24	O	0.196270	1.518448	0.196473
O25	O	-0.386234	1.153617	-0.488053
O26	O	0.113766	1.653617	0.011947
O27	O	-0.381045	1.018418	-0.380825
O28	O	0.118955	1.518418	0.119175
O29	O	-0.312852	1.256084	-0.492001
O30	O	0.187148	1.756084	0.007999
O31	O	-0.492230	1.255864	-0.312567
O32	O	0.007770	1.755864	0.187433
O33	O	-0.488288	1.153491	-0.385968
O34	O	0.011712	1.653491	0.114032
C35	C	-0.341225	0.988183	-0.341018
C36	C	0.158775	1.488183	0.158982
C37	C	-0.337678	0.895517	-0.337483
C38	C	0.162322	1.395517	0.162517
C39	C	-0.367947	0.684574	-0.367647
C40	C	0.132053	1.184574	0.132353
C41	C	-0.331207	0.725860	-0.331030
C42	C	0.168793	1.225860	0.168970
C43	C	-0.334808	0.820266	-0.334622
C44	C	0.165192	1.320266	0.165378
C45	C	-0.364347	0.590160	-0.364056
C46	C	0.135653	1.090160	0.135944
C47	C	-0.513099	1.204682	-0.349275
C48	C	-0.013099	1.704682	0.150725
C49	C	-0.583069	1.204712	-0.349282
C50	C	-0.083069	1.704712	0.150718
C51	C	-0.617969	1.258064	-0.311105
C52	C	-0.117969	1.758064	0.188895
C53	C	-0.683713	1.258103	-0.311121
C54	C	-0.183713	1.758103	0.188879
C55	C	-0.714554	1.204775	-0.349306
C56	C	-0.214554	1.704775	0.150694
C57	C	-0.679645	1.151418	-0.387490
C58	C	-0.179645	1.651418	0.112510
C59	C	-0.613903	1.151387	-0.387478
C60	C	-0.113903	1.651387	0.112522
N61	N	-0.815021	1.131844	-0.351312
N62	N	-0.315021	1.631844	0.148688
N63	N	-0.877473	1.131876	-0.351320
N64	N	-0.377473	1.631876	0.148680
C65	C	-0.912632	1.204868	-0.349346
C66	C	-0.412632	1.704868	0.150654
N67	N	-0.882979	1.277828	-0.347351
N68	N	-0.382979	1.777828	0.152649
N69	N	-0.820520	1.277795	-0.347340
N70	N	-0.320520	1.777795	0.152660
C71	C	-0.785840	1.204804	-0.349324
C72	C	-0.285840	1.704804	0.150676
C73	C	-1.018819	1.258268	-0.311184
C74	C	-0.518819	1.758268	0.188816
C75	C	-1.084565	1.258308	-0.311204
C76	C	-0.584565	1.758308	0.188796
C77	C	-1.080496	1.151616	-0.387570
C78	C	-0.580496	1.651616	0.112430
C79	C	-1.014752	1.151583	-0.387554
C80	C	-0.514752	1.651583	0.112446
C81	C	-0.983918	1.204908	-0.349357
C82	C	-0.483918	1.704908	0.150643
C83	C	-0.185367	1.204924	-0.349368
C84	C	0.314633	1.704924	0.150632
C85	C	-0.115401	1.204980	-0.349390
C86	C	0.384599	1.704980	0.150610
C87	C	-0.349541	1.204860	-0.513507
C88	C	0.150459	1.704860	-0.013507
C89	C	-0.349537	1.204890	-0.583476
C90	C	0.150463	1.704890	-0.083476
C91	C	-0.357912	1.422246	-0.357643
C92	C	0.142088	1.922246	0.142357
C93	C	-0.361475	1.514912	-0.361192
C94	C	0.138525	2.014912	0.138808
C95	C	-0.311325	1.258243	-0.618399
C96	C	0.188675	1.758243	-0.118399
C97	C	-0.311297	1.258241	-0.684142
C98	C	0.188703	1.758241	-0.184142
C99	C	-0.349494	1.204896	-0.714959
C100	C	0.150506	1.704896	-0.214959
C101	C	-0.387708	1.151533	-0.680027
C102	C	0.112292	1.651533	-0.180027
C103	C	-0.387730	1.151530	-0.614286
C104	C	0.112270	1.651530	-0.114286
N105	N	-0.404315	1.198464	-0.817928
N106	N	0.095685	1.698464	-0.317928
N107	N	-0.404292	1.198472	-0.880380
N108	N	0.095708	1.698472	-0.380380
C109	C	-0.349430	1.204902	-0.913034
C110	C	0.150570	1.704902	-0.413034
N111	N	-0.294590	1.211339	-0.880877
N112	N	0.205410	1.711339	-0.380877
N113	N	-0.294613	1.211336	-0.818420
N114	N	0.205387	1.711336	-0.318420
C115	C	-0.349474	1.204894	-0.786244
C116	C	0.150526	1.704894	-0.286244
C117	C	-0.311185	1.258256	-1.019243
C118	C	0.188815	1.758256	-0.519243
C119	C	-0.311156	1.258249	-1.084986
C120	C	0.188844	1.758249	-0.584986
C121	C	-0.387573	1.151545	-1.080871
C122	C	0.112427	1.651545	-0.580871
C123	C	-0.387596	1.151548	-1.015128
C124	C	0.112404	1.651548	-0.515128
C125	C	-0.349403	1.204908	-0.984318
C126	C	0.150597	1.704908	-0.484318
C127	C	-0.349519	1.204770	-0.185761
C128	C	0.150481	1.704770	0.314239
C129	C	-0.349352	1.204902	-0.115799
C130	C	0.150648	1.704902	0.384201
H131	H	-0.592866	1.301487	-0.280005
H132	H	-0.092866	1.801487	0.219995
H133	H	-0.712134	1.301553	-0.280033
H134	H	-0.212134	1.801553	0.219967
H135	H	-0.402104	0.720126	-0.401691
H136	H	0.097896	1.220126	0.098309
C137	C	-0.285059	0.677834	-0.285038
C138	C	0.214941	1.177834	0.214962
H139	H	-0.288663	0.619763	-0.288625
H140	H	0.211337	1.119763	0.211375
H141	H	-0.243311	0.692082	-0.294861
H142	H	0.256689	1.192082	0.205139
H143	H	-0.294742	0.692018	-0.243252
H144	H	0.205258	1.192018	0.256748
C145	C	-0.713567	1.092757	-0.429492
C146	C	-0.213567	1.592757	0.070508
H147	H	-0.757720	1.100410	-0.424027
H148	H	-0.257720	1.600410	0.075973
H149	H	-0.703231	1.104924	-0.472259
H150	H	-0.203231	1.604924	0.027741
H151	H	-0.700684	1.036739	-0.418093
H152	H	-0.200684	1.536739	0.081907
H153	H	-0.280036	1.301694	-1.113420
H154	H	0.219964	1.801694	-0.613420
C155	C	-0.575511	1.092691	-0.429471
C156	C	-0.075511	1.592691	0.070529
H157	H	-0.603292	1.060932	-0.452214
H158	H	-0.103292	1.560932	0.047786
H159	H	-0.551049	1.124551	-0.458132
H160	H	-0.051049	1.624551	0.041868
H161	H	-0.548512	1.056365	-0.403967
H162	H	-0.048512	1.556365	0.096033
H163	H	-0.418667	1.108102	-1.105961
H164	H	0.081333	1.608102	-0.605961
C165	C	-0.269165	1.316934	-0.985348
C166	C	0.230835	1.816934	-0.485348
H167	H	-0.246393	1.348699	-1.015565
H168	H	0.253607	1.848699	-0.515565
H169	H	-0.294644	1.353243	-0.961099
H170	H	0.205356	1.853243	-0.461099
H171	H	-0.240520	1.285052	-0.958478
H172	H	0.259480	1.785052	-0.458478
H173	H	-0.993713	1.301691	-0.280084
H174	H	-0.493713	1.801691	0.219916
C175	C	-0.429635	1.092866	-0.976711
C176	C	0.070365	1.592866	-0.476711
H177	H	-0.452383	1.061098	-1.004479
H178	H	0.047617	1.561098	-0.504479
H179	H	-0.404168	1.056559	-0.949668
H180	H	0.095832	1.556559	-0.449668
H181	H	-0.458299	1.124739	-0.952293
H182	H	0.041701	1.624739	-0.452293
H183	H	-1.112980	1.301760	-0.280117
H184	H	-0.612980	1.801760	0.219883
H185	H	-1.105606	1.108198	-0.418664
H186	H	-0.605606	1.608198	0.081336
H187	H	-0.418806	1.108097	-0.705123
H188	H	0.081194	1.608097	-0.205123
C189	C	-0.269308	1.316926	-0.584508
C190	C	0.230692	1.816926	-0.084508
H191	H	-0.274795	1.309288	-0.540353
H192	H	0.225205	1.809288	-0.040353
H193	H	-0.226543	1.304760	-0.594818
H194	H	0.273457	1.804760	-0.094818
H195	H	-0.280675	1.372938	-0.597438
H196	H	0.219325	1.872938	-0.097438
C197	C	-0.429767	1.092845	-0.575866
C198	C	0.070233	1.592845	-0.075866
H199	H	-0.424307	1.100482	-0.532300
H200	H	0.075693	1.600482	-0.032300
H201	H	-0.472526	1.105008	-0.587108
H202	H	0.027474	1.605008	-0.087108
H203	H	-0.418391	1.036833	-0.584481
H204	H	0.081609	1.536833	-0.084481
H205	H	-0.986334	1.108134	-0.418638
H206	H	-0.486334	1.608134	0.081362
H207	H	-0.280177	1.301686	-0.712581
H208	H	0.219823	1.801686	-0.212581
