data_functionalizedCrystal
_audit_creation_method	'MofGen! by Chris Wilmer'
_symmetry_space_group_name_H-M	'P1'
_symmetry_Int_Tables_number	1
_symmetry_cell_setting	triclinic
loop_
_symmetry_equiv_pos_as_xyz
  x,y,z
_cell_length_a	23.532407
_cell_length_b	23.532409
_cell_length_c	11.295483
_cell_angle_alpha	94.072292
_cell_angle_beta	85.925856
_cell_angle_gamma	82.849119
loop_
_atom_site_label
_atom_site_type_symbol
_atom_site_fract_x
_atom_site_fract_y
_atom_site_fract_z
O1	O	0.759112	0.065284	-0.098868
O2	O	0.593250	0.075286	-0.098902
O3	O	0.681182	-0.012647	-0.098886
O4	O	0.671180	0.153216	-0.098885
O5	O	0.673459	-0.004935	0.099163
O6	O	0.585527	0.082997	0.099147
O7	O	0.751389	0.072995	0.099181
Cu8	Cu	0.667752	0.078700	0.117247
Cu9	Cu	0.676886	0.069581	-0.116969
O10	O	0.663457	0.160928	0.099164
C11	C	0.568172	0.078886	0.000118
C12	C	0.504956	0.078120	0.000105
C13	C	0.677065	-0.030007	0.000136
C14	C	0.676299	-0.093225	0.000127
C15	C	0.677251	-0.370673	-0.107836
C16	C	0.677962	-0.311273	-0.107836
O17	O	0.681930	-0.284123	-0.199645
N18	N	0.674104	-0.277368	0.000123
C19	C	0.669541	-0.302866	0.108089
O20	O	0.666325	-0.268572	0.199916
C21	C	0.668833	-0.362265	0.108087
C22	C	0.672685	-0.396167	0.000122
C23	C	0.681103	-0.404575	-0.215792
C24	C	0.680390	-0.463971	-0.215792
C25	C	0.675825	-0.489465	-0.107835
C26	C	0.671973	-0.455563	0.000122
C27	C	0.664273	-0.387763	0.216052
C28	C	0.663567	-0.447167	0.216041
C29	C	0.667419	-0.481069	0.108076
C30	C	0.666695	-0.540453	0.108080
N31	N	0.670552	-0.574359	0.000122
C32	C	0.675118	-0.548865	-0.107836
C33	C	0.671028	-0.178123	0.108083
C34	C	0.671731	-0.118723	0.108085
C35	C	0.680154	-0.127135	-0.107840
C36	C	0.679446	-0.186535	-0.107841
C37	C	0.674885	-0.212028	0.000124
C38	C	0.673620	-0.673600	-0.107826
C39	C	0.672905	-0.733001	-0.107816
C40	C	0.664485	-0.724584	0.108108
C41	C	0.665197	-0.665189	0.108098
C42	C	0.669767	-0.639699	0.000122
O43	O	0.662730	-0.567643	0.199843
O44	O	0.678340	-0.583166	-0.199647
C45	C	0.105851	0.125356	0.000159
C46	C	0.046450	0.124644	0.000166
O47	O	0.009705	0.168432	0.000210
N48	N	0.023824	0.072368	0.000164
C49	C	0.060601	0.020800	0.000166
O50	O	0.035901	-0.023730	0.000166
C51	C	0.120000	0.021512	0.000168
C52	C	0.142624	0.073791	0.000158
C53	C	0.128475	0.177631	0.000150
C54	C	0.187871	0.178342	0.000141
C55	C	0.224644	0.126777	0.000140
C56	C	0.202020	0.074502	0.000148
C57	C	0.156776	-0.030055	0.000179
C58	C	0.216178	-0.029338	0.000181
C59	C	0.238802	0.022941	0.000171
C60	C	0.298189	0.023649	0.000138
N61	N	0.320816	0.075925	0.000140
C62	C	0.284043	0.127489	0.000141
C63	C	-0.064141	0.019309	0.000166
C64	C	-0.123539	0.018596	0.000156
C65	C	-0.137686	0.122440	0.000158
C66	C	-0.078287	0.123152	0.000159
C67	C	-0.041515	0.071585	0.000168
C68	C	0.408781	0.128978	0.000120
C69	C	0.468183	0.129684	0.000106
C70	C	0.482324	0.025840	0.000110
C71	C	0.422927	0.025133	0.000118
C72	C	0.386156	0.076707	0.000127
O73	O	0.334970	-0.020116	0.000099
O74	O	0.308751	0.172013	0.000157
C75	C	0.776466	0.069394	0.000158
C76	C	0.839683	0.070160	0.000163
C77	C	0.667573	0.178288	0.000140
C78	C	0.668339	0.241505	0.000141
N79	N	0.661333	0.085114	0.281983
N80	N	0.683310	0.063162	-0.281704
C81	C	0.729525	0.016959	0.531285
C82	C	0.724677	0.021810	0.655948
C83	C	0.646787	0.099664	0.655973
C84	C	0.651635	0.094813	0.531310
C85	C	0.693006	0.053460	0.468971
C86	C	0.697855	0.048612	0.344305
C87	C	0.619964	0.126463	0.344333
C88	C	0.615116	0.131314	0.468996
H89	H	0.676040	-0.760602	-0.195739
Cl90	Cl	0.659424	-0.345156	0.351789
H91	H	0.246115	-0.071332	0.000189
H92	H	0.404507	-0.017437	0.000109
Cl93	Cl	0.528563	-0.038980	0.000114
Cl94	Cl	-0.017919	-0.045527	0.000163
Cl95	Cl	0.657835	-0.479212	0.351778
Cl96	Cl	0.781538	-0.035021	0.452913
Cl97	Cl	0.574055	0.172355	0.265984
H98	H	0.731543	0.014941	0.293550
H99	H	0.206286	0.220913	0.000132
H100	H	0.581431	0.164982	0.519767
Cl101	Cl	0.660354	-0.622568	0.243828
Cl102	Cl	0.666874	-0.076109	0.243819
H103	H	0.677342	-0.652854	-0.195751
H104	H	0.754414	-0.007913	0.706680
H105	H	-0.059871	0.165723	0.000158
Cl106	Cl	0.685241	-0.506584	-0.351528
H107	H	-0.141953	-0.023976	0.000145
Cl108	Cl	0.686843	-0.372537	-0.351529
Cl109	Cl	0.684291	-0.229149	-0.243574
Cl110	Cl	0.594776	0.151643	0.734355
Cl111	Cl	-0.183925	0.187265	0.000166
H112	H	0.660766	-0.745352	0.196004
H113	H	0.138367	-0.072626	0.000188
Cl114	Cl	0.496620	0.195412	0.000090
Cl115	Cl	0.362563	0.193815	0.000130
Cl116	Cl	0.082256	0.242463	0.000149
H117	H	0.683869	-0.106367	-0.195745
H118	H	0.667309	-0.198874	0.196006
