data_functionalizedCrystal
_audit_creation_method	'MofGen! by Chris Wilmer'
_symmetry_space_group_name_H-M	'P1'
_symmetry_Int_Tables_number	1
_symmetry_cell_setting	triclinic
loop_
_symmetry_equiv_pos_as_xyz
  x,y,z
_cell_length_a	10.967874
_cell_length_b	10.967829
_cell_length_c	7.681481
_cell_angle_alpha	72.153773
_cell_angle_beta	83.725034
_cell_angle_gamma	82.165976
loop_
_atom_site_label
_atom_site_type_symbol
_atom_site_fract_x
_atom_site_fract_y
_atom_site_fract_z
O1	O	1.601099	0.231226	-0.702415
O2	O	1.246339	0.239570	-0.597304
O3	O	1.436293	0.049614	-0.597294
O4	O	1.411145	0.421182	-0.702425
O5	O	1.459673	0.026179	-0.304418
O6	O	1.269720	0.216135	-0.304429
O7	O	1.624480	0.207791	-0.409540
Zn8	Zn	1.450812	0.208242	-0.310484
Zn9	Zn	1.420007	0.239119	-0.696360
O10	O	1.434526	0.397747	-0.409550
C11	C	1.212686	0.225475	-0.436386
C12	C	1.077577	0.218375	-0.393237
C13	C	1.447920	-0.009762	-0.436377
C14	C	1.447717	-0.151770	-0.393231
C15	C	1.005229	0.227349	-0.525717
C16	C	0.865587	0.220011	-0.481123
C17	C	1.435515	-0.202935	-0.525715
C18	C	1.435305	-0.349707	-0.481125
C19	C	1.658133	0.221887	-0.570461
C20	C	1.793241	0.228988	-0.613623
C21	C	1.422899	0.457123	-0.570470
C22	C	1.423101	0.599132	-0.613628
N23	N	1.471845	0.187169	-0.047136
N24	N	1.398984	0.260182	-0.959707
H25	H	0.824149	0.206902	-0.334679
H26	H	1.546235	0.112650	0.028112
H27	H	1.445589	-0.414558	-0.334677
O28	O	1.310370	0.349261	-0.049470
C29	C	1.231323	0.573682	-0.150243
C30	C	1.331770	0.472937	-0.048565
H31	H	1.248575	0.673694	-0.149511
H32	H	1.234051	0.571044	-0.297845
H33	H	1.136917	0.550868	-0.078527
H34	H	1.426224	0.495682	-0.120127
H35	H	1.328933	0.475596	0.099039
O36	O	1.410949	-0.323616	-0.788425
C37	C	1.494826	-0.271399	-1.102505
C38	C	1.508737	-0.359025	-0.904665
H39	H	1.573889	-0.299977	-1.196534
H40	H	1.403211	-0.282442	-1.150235
H41	H	1.497120	-0.166833	-1.107181
H42	H	1.506499	-0.463625	-0.899836
H43	H	1.600340	-0.347871	-0.857018
O44	O	0.842868	0.244579	-0.788224
C45	C	1.027279	0.266245	-0.991900
C46	C	0.971243	0.248554	-0.794085
H47	H	1.131073	0.269491	-0.996710
H48	H	1.008720	0.182188	-1.039557
H49	H	0.983500	0.360254	-1.085913
H50	H	1.014987	0.154592	-0.699933
H51	H	0.989788	0.332681	-0.746578
H52	H	1.046670	0.240472	-0.672154
H53	H	1.036134	0.205266	-0.246803
H54	H	1.425217	-0.138079	-0.672150
H55	H	1.458001	-0.216624	-0.246793
