data_functionalizedCrystal
_audit_creation_method	'MofGen! by Chris Wilmer'
_symmetry_space_group_name_H-M	'P1'
_symmetry_Int_Tables_number	1
_symmetry_cell_setting	triclinic
loop_
_symmetry_equiv_pos_as_xyz
  x,y,z
_cell_length_a	10.654550
_cell_length_b	10.540539
_cell_length_c	9.130313
_cell_angle_alpha	89.997616
_cell_angle_beta	89.999724
_cell_angle_gamma	84.505211
loop_
_atom_site_label
_atom_site_type_symbol
_atom_site_fract_x
_atom_site_fract_y
_atom_site_fract_z
O1	O	1.667902	0.178301	-0.121682
O2	O	1.302430	0.195288	-0.121709
O3	O	1.493504	0.002085	-0.121693
O4	O	1.476828	0.371504	-0.121698
O5	O	1.493491	0.002079	0.121906
O6	O	1.302416	0.195282	0.121890
O7	O	1.667889	0.178295	0.121916
Cu8	Cu	1.485152	0.186788	0.144146
Cu9	Cu	1.485167	0.186795	-0.143938
O10	O	1.476815	0.371498	0.121901
C11	C	1.255625	0.194038	0.000087
C12	C	1.116180	0.190306	0.000077
C13	C	1.036735	0.304061	0.000080
C14	C	0.905712	0.300547	0.000105
C15	C	0.933594	0.069513	0.000119
C16	C	1.064614	0.073029	0.000104
C17	C	1.492247	-0.045221	0.000104
C18	C	1.488505	-0.186167	0.000095
C19	C	1.345134	-0.369543	-0.000462
C20	C	1.348927	-0.222926	0.000087
C21	C	1.555669	-0.247852	0.139207
C22	C	1.550905	-0.394395	0.139324
C23	C	1.553759	-0.394908	-0.137693
C24	C	1.555045	-0.247926	-0.139532
C25	C	1.714694	0.179545	0.000117
C26	C	1.854139	0.183277	0.000118
C27	C	1.478072	0.418804	0.000101
C28	C	1.481813	0.559750	0.000099
N29	N	1.485150	0.186783	0.346768
N30	N	1.485179	0.186790	-0.346561
C31	C	1.569786	0.101269	0.423427
C32	C	1.569798	0.101269	0.576764
C33	C	1.400533	0.272308	0.576770
C34	C	1.400516	0.272301	0.423436
H35	H	0.841032	0.393178	0.000111
H36	H	1.638715	0.031634	0.639175
O37	O	1.318279	0.355208	0.651413
C38	C	1.240189	0.286495	0.740105
H39	H	1.289327	0.187629	0.763077
H40	H	1.220810	0.339300	0.847928
H41	H	1.147287	0.276995	0.681032
O42	O	1.318250	0.355498	0.349187
C43	C	1.243540	0.430966	0.449732
H44	H	1.295051	0.432898	0.559026
H45	H	1.225275	0.532163	0.405411
H46	H	1.149883	0.388866	0.466060
H47	H	1.290003	-0.398120	-0.100221
O48	O	1.086977	0.417901	0.000258
C49	C	1.161918	0.426861	0.126427
H50	H	1.193654	0.327094	0.168490
H51	H	1.248148	0.478223	0.098036
H52	H	1.104553	0.482512	0.214775
O53	O	0.883438	-0.044372	-0.000127
C54	C	0.808453	-0.053302	-0.126265
H55	H	0.840023	0.013310	-0.214450
H56	H	0.819292	-0.155507	-0.168610
H57	H	0.705412	-0.024930	-0.097734
O58	O	1.141616	-0.037599	0.000035
C59	C	1.068011	-0.141865	0.000086
H60	H	0.970525	-0.110513	-0.046026
H61	H	1.115617	-0.221639	-0.070635
H62	H	1.058372	-0.177756	0.116957
H63	H	1.651288	-0.442400	0.145642
O64	O	1.285984	-0.172242	-0.119033
C65	C	1.343806	-0.223802	-0.247560
H66	H	1.398547	-0.319357	-0.221307
H67	H	1.268430	-0.238229	-0.332969
H68	H	1.411196	-0.155515	-0.292335
O69	O	1.279810	-0.405638	0.117989
C70	C	1.357072	-0.494587	0.201336
H71	H	1.460361	-0.482753	0.177684
H72	H	1.337265	-0.477634	0.322823
H73	H	1.336067	-0.595297	0.170901
H74	H	1.295697	-0.181153	0.099967
H75	H	1.501257	-0.422579	0.243306
H76	H	1.658171	-0.225535	0.144387
H77	H	1.509003	-0.205238	0.242723
H78	H	1.508590	-0.426442	-0.243131
H79	H	1.505902	-0.207048	-0.242443
O80	O	1.674010	-0.451343	-0.139078
C81	C	1.694125	-0.524095	-0.267989
H82	H	1.623837	-0.486222	-0.355380
H83	H	1.794212	-0.516891	-0.309144
H84	H	1.680595	-0.627999	-0.243688
O85	O	1.676369	-0.218866	-0.149757
C86	C	1.692476	-0.152707	-0.281612
H87	H	1.597330	-0.106021	-0.320380
H88	H	1.759467	-0.076239	-0.262544
H89	H	1.733655	-0.222361	-0.368532
H90	H	1.638698	0.031633	0.361008
