data_functionalizedCrystal
_audit_creation_method	'MofGen! by Chris Wilmer'
_symmetry_space_group_name_H-M	'P1'
_symmetry_Int_Tables_number	1
_symmetry_cell_setting	triclinic
loop_
_symmetry_equiv_pos_as_xyz
  x,y,z
_cell_length_a	19.188930
_cell_length_b	19.188930
_cell_length_c	17.666332
_cell_angle_alpha	90.011603
_cell_angle_beta	89.976766
_cell_angle_gamma	96.855221
loop_
_atom_site_label
_atom_site_type_symbol
_atom_site_fract_x
_atom_site_fract_y
_atom_site_fract_z
O1	O	0.926150	-0.087169	-0.063200
O2	O	0.722838	-0.098903	-0.063149
O3	O	0.830361	0.008620	-0.063161
O4	O	0.818627	-0.194692	-0.063188
O5	O	0.830342	0.008625	0.062735
O6	O	0.722820	-0.098897	0.062747
O7	O	0.926131	-0.087163	0.062697
Cu8	Cu	0.824473	-0.093030	0.074217
Cu9	Cu	0.824496	-0.093036	-0.074670
O10	O	0.818608	-0.194686	0.062709
C11	C	0.696818	-0.098520	-0.000194
C12	C	0.619313	-0.097380	-0.000174
C13	C	0.574389	-0.160470	-0.000194
C14	C	0.501566	-0.159399	-0.000203
C15	C	0.473669	-0.095233	-0.000206
C16	C	0.518603	-0.032133	-0.000181
C17	C	0.591425	-0.033207	-0.000166
N18	N	0.365695	-0.046188	-0.043078
N19	N	0.296517	-0.045172	-0.043095
C20	C	0.254260	-0.091994	-0.000252
N21	N	0.283795	-0.139881	0.042599
N22	N	0.352979	-0.140899	0.042612
C23	C	0.394707	-0.094062	-0.000222
C24	C	0.130372	-0.153928	-0.000280
C25	C	0.057547	-0.152853	-0.000283
C26	C	0.074586	-0.025586	-0.000270
C27	C	0.147409	-0.026662	-0.000258
C28	C	0.175298	-0.090835	-0.000267
C29	C	0.829972	0.034634	-0.000211
C30	C	0.828831	0.112138	-0.000204
C31	C	0.952151	-0.087546	-0.000260
C32	C	1.029656	-0.088687	-0.000285
C33	C	0.818997	-0.220700	-0.000244
C34	C	0.820138	-0.298204	-0.000255
N35	N	0.824463	-0.093025	0.178937
C36	C	0.891922	0.157062	-0.000216
C37	C	0.890850	0.229886	-0.000228
C38	C	0.826684	0.257782	-0.000212
C39	C	0.763585	0.212849	-0.000205
C40	C	0.764658	0.140026	-0.000200
N41	N	0.777630	0.365789	0.042645
N42	N	0.776615	0.434968	0.042642
C43	C	0.823446	0.477191	-0.000227
N44	N	0.871341	0.447624	-0.043084
N45	N	0.872359	0.378439	-0.043079
C46	C	0.825513	0.336745	-0.000218
C47	C	0.885379	0.601079	-0.000253
C48	C	0.884305	0.673904	-0.000270
C49	C	0.757038	0.656865	-0.000239
C50	C	0.758114	0.584042	-0.000230
C51	C	0.822287	0.556154	-0.000233
N52	N	0.824512	-0.093036	-0.179390
C53	C	0.872089	-0.045437	0.218541
C54	C	0.872093	-0.045433	0.297789
C55	C	0.824478	-0.093030	0.337429
C56	C	0.776842	-0.140621	0.297815
C57	C	0.776835	-0.140619	0.218569
N58	N	0.815401	-0.154837	0.461841
N59	N	0.815413	-0.154837	0.537121
C60	C	0.824496	-0.093040	0.576193
N61	N	0.833582	-0.031239	0.537140
N62	N	0.833574	-0.031240	0.461853
C63	C	0.824480	-0.093038	0.423358
C64	C	0.872130	-0.045444	0.701727
C65	C	0.872129	-0.045440	0.780976
C66	C	0.776881	-0.140634	0.781000
C67	C	0.776878	-0.140632	0.701753
C68	C	0.824506	-0.093038	0.662121
H69	H	0.051874	0.026659	-0.000319
H70	H	0.910878	-0.006680	0.330041
C71	C	0.640846	0.036194	-0.000149
H72	H	0.688211	0.026364	-0.000137
H73	H	0.632435	0.062515	-0.044050
H74	H	0.632391	0.062515	0.043762
H75	H	0.020970	-0.204232	-0.000295
H76	H	0.183988	0.024713	-0.000246
C77	C	0.487920	0.038447	-0.000189
H78	H	0.438115	0.030051	-0.000210
H79	H	0.503327	0.064420	0.043719
H80	H	0.503380	0.064411	-0.044093
C81	C	0.724504	-0.192989	0.824595
H82	H	0.731331	-0.186178	0.877464
H83	H	0.677931	-0.185523	0.811634
H84	H	0.731946	-0.239571	0.811592
C85	C	0.962509	0.126388	-0.000233
H86	H	0.999930	0.163578	-0.000250
H87	H	0.965570	0.098341	0.043667
H88	H	0.965577	0.098329	-0.044144
C89	C	0.161053	-0.224513	-0.000281
H90	H	0.123865	-0.261936	-0.000284
H91	H	0.189128	-0.227580	-0.044180
H92	H	0.189084	-0.227574	0.043631
H93	H	0.910869	-0.006681	0.186275
H94	H	0.738072	-0.179374	0.330094
C95	C	0.960253	0.279311	-0.000236
H96	H	0.998624	0.252272	-0.000233
H97	H	0.962490	0.308067	-0.044139
H98	H	0.962464	0.308078	0.043673
H99	H	0.711340	0.235567	-0.000194
H100	H	0.738051	-0.179371	0.186322
H101	H	0.713281	0.103448	-0.000190
C102	C	0.724496	-0.192987	0.658186
H103	H	0.696142	-0.221338	0.693142
H104	H	0.695509	-0.167944	0.627292
H105	H	0.749525	-0.221991	0.627253
C106	C	0.924510	0.006913	0.658128
H107	H	0.952869	0.035264	0.693068
H108	H	0.953493	-0.018129	0.627192
H109	H	0.899477	0.035917	0.627236
C110	C	0.955964	0.570399	-0.000266
H111	H	0.993387	0.607587	-0.000286
H112	H	0.959023	0.542357	0.043640
H113	H	0.959034	0.542334	-0.044172
C114	C	0.924522	0.006908	0.824541
H115	H	0.952889	0.035247	0.789585
H116	H	0.899505	0.035915	0.855476
H117	H	0.953507	-0.018146	0.855432
H118	H	0.935683	0.710481	-0.000284
H119	H	0.597091	-0.212725	-0.000203
C120	C	0.686456	0.687543	-0.000224
H121	H	0.694852	0.737348	-0.000225
H122	H	0.660494	0.672097	-0.044120
H123	H	0.660481	0.672120	0.043692
H124	H	0.706738	0.547464	-0.000216
H125	H	0.464982	-0.210776	-0.000217
