data_functionalizedCrystal
_audit_creation_method	'MofGen! by Chris Wilmer'
_symmetry_space_group_name_H-M	'P1'
_symmetry_Int_Tables_number	1
_symmetry_cell_setting	triclinic
loop_
_symmetry_equiv_pos_as_xyz
  x,y,z
_cell_length_a	16.959455
_cell_length_b	19.121063
_cell_length_c	16.959447
_cell_angle_alpha	92.406624
_cell_angle_beta	89.983277
_cell_angle_gamma	92.467995
loop_
_atom_site_label
_atom_site_type_symbol
_atom_site_fract_x
_atom_site_fract_y
_atom_site_fract_z
Zn1	Zn	1.194917	-0.279619	-0.460360
Zn2	Zn	1.694917	0.220381	0.039640
Zn3	Zn	1.189182	-0.397080	-0.333811
Zn4	Zn	1.689182	0.102920	0.166189
Zn5	Zn	1.062744	-0.279645	-0.328193
Zn6	Zn	1.562744	0.220355	0.171807
Zn7	Zn	1.057055	-0.397032	-0.465941
Zn8	Zn	1.557055	0.102968	0.034059
O9	O	1.125974	-0.338344	-0.397076
O10	O	1.625974	0.161656	0.102924
O11	O	1.304766	-0.295210	-0.443588
O12	O	1.804766	0.204790	0.056412
O13	O	1.172391	-0.381533	-0.222456
O14	O	1.672391	0.118467	0.277544
O15	O	1.085058	-0.181357	-0.341039
O16	O	1.585058	0.318643	0.158961
O17	O	1.300553	-0.381508	-0.350613
O18	O	1.800553	0.118492	0.149387
O19	O	1.182165	-0.181338	-0.438141
O20	O	1.682165	0.318662	0.061859
O21	O	1.079497	-0.295254	-0.218329
O22	O	1.579497	0.204746	0.281671
O23	O	0.951379	-0.295207	-0.346451
O24	O	1.451379	0.204793	0.153549
O25	O	1.075362	-0.381425	-0.575811
O26	O	1.575362	0.118575	-0.075811
O27	O	0.947199	-0.381451	-0.447654
O28	O	1.447199	0.118549	0.052346
O29	O	1.176648	-0.295163	-0.571710
O30	O	1.676648	0.204837	-0.071710
O31	O	1.166874	-0.495358	-0.356025
O32	O	1.666874	0.004642	0.143975
O33	O	1.069801	-0.495322	-0.453101
O34	O	1.569801	0.004678	0.046899
C35	C	0.920609	-0.338327	-0.397049
C36	C	1.420609	0.161673	0.102951
C37	C	0.832752	-0.338337	-0.397057
C38	C	1.332752	0.161663	0.102943
C39	C	0.793634	-0.293370	-0.344443
C40	C	1.293634	0.206630	0.155557
C41	C	0.789316	-0.383309	-0.449682
C42	C	1.289316	0.116691	0.050318
C43	C	0.706770	-0.383317	-0.449694
C44	C	1.206770	0.116683	0.050306
C45	C	0.667652	-0.338350	-0.397081
C46	C	1.167652	0.161650	0.102919
C47	C	0.711080	-0.293375	-0.344455
C48	C	1.211080	0.206625	0.155545
C49	C	0.663336	-0.428286	-0.502325
C50	C	1.163336	0.071714	-0.002325
C51	C	0.580785	-0.428296	-0.502339
C52	C	1.080785	0.071704	-0.002339
C53	C	0.541665	-0.383332	-0.449721
C54	C	1.041665	0.116668	0.050279
C55	C	0.585098	-0.338355	-0.397093
C56	C	1.085098	0.161645	0.102907
C57	C	0.545980	-0.293388	-0.344479
C58	C	1.045980	0.206612	0.155521
C59	C	0.589411	-0.248415	-0.291846
C60	C	1.089411	0.251585	0.208154
C61	C	0.671960	-0.248411	-0.291836
C62	C	1.171960	0.251589	0.208164
C63	C	0.459116	-0.383336	-0.449730
C64	C	0.959116	0.116664	0.050270
C65	C	0.463426	-0.293394	-0.344491
C66	C	0.963426	0.206606	0.155509
C67	C	1.117120	-0.520824	-0.405795
C68	C	1.617120	-0.020824	0.094205
C69	C	1.113404	-0.598890	-0.409552
C70	C	1.613404	-0.098890	0.090448
C71	C	1.162238	-0.635561	-0.360816
C72	C	1.662238	-0.135561	0.139184
C73	C	1.158748	-0.708912	-0.364354
C74	C	1.658748	-0.208912	0.135646
C75	C	1.106419	-0.745591	-0.416624
C76	C	1.606419	-0.245591	0.083376
C77	C	1.057583	-0.708915	-0.465364
C78	C	1.557583	-0.208915	0.034636
C79	C	1.061077	-0.635565	-0.461830
C80	C	1.561077	-0.135565	0.038170
C81	C	1.093341	-0.967060	-0.429825
C82	C	1.593341	-0.467060	0.070175
C83	C	1.089848	-1.040415	-0.433353
C84	C	1.589848	-0.540415	0.066647
C85	C	1.191015	-1.040406	-0.332344
C86	C	1.691015	-0.540406	0.167656
C87	C	1.194502	-0.967055	-0.328811
C88	C	1.694502	-0.467055	0.171189
C89	C	1.145668	-0.930386	-0.377554
C90	C	1.645668	-0.430386	0.122446
C91	C	1.102849	-0.820567	-0.420239
C92	C	1.602849	-0.320567	0.079761
C93	C	1.149243	-0.855411	-0.373942
C94	C	1.649243	-0.355411	0.126058
C95	C	1.332142	-0.338361	-0.397104
C96	C	1.832142	0.161639	0.102896
C97	C	1.419998	-0.338369	-0.397116
C98	C	1.919998	0.161631	0.102884
C99	C	1.126010	-0.338286	-0.603242
C100	C	1.626010	0.161714	-0.103242
C101	C	1.126025	-0.338261	-0.691097
C102	C	1.626025	0.161739	-0.191097
C103	C	1.134885	-0.155151	-0.388341
C104	C	1.634885	0.344849	0.111659
C105	C	1.138683	-0.077085	-0.384618
C106	C	1.638683	0.422915	0.115382
C107	C	1.073388	-0.383100	-1.064707
C108	C	1.573388	0.116900	-0.564707
C109	C	1.178859	-0.293274	-1.060432
C110	C	1.678859	0.206726	-0.560432
C111	C	1.178837	-0.293289	-0.977887
C112	C	1.678837	0.206711	-0.477887
C113	C	1.126091	-0.338211	-0.938748
C114	C	1.626091	0.161789	-0.438748
C115	C	1.073366	-0.383118	-0.982154
C116	C	1.573366	0.116882	-0.482154
C117	C	1.231566	-0.248388	-0.934475
C118	C	1.731566	0.251612	-0.434475
C119	C	1.231547	-0.248402	-0.851924
C120	C	1.731547	0.251598	-0.351924
C121	C	1.178796	-0.293320	-0.812784
C122	C	1.678796	0.206680	-0.312784
C123	C	1.126069	-0.338228	-0.856195
C124	C	1.626069	0.161772	-0.356195
C125	C	1.073323	-0.383150	-0.817056
C126	C	1.573323	0.116850	-0.317056
C127	C	1.020591	-0.428055	-0.860466
C128	C	1.520591	0.071945	-0.360466
C129	C	1.020616	-0.428036	-0.943014
C130	C	1.520616	0.071964	-0.443014
C131	C	1.178771	-0.293339	-0.730236
C132	C	1.678771	0.206661	-0.230236
C133	C	1.073301	-0.383168	-0.734504
C134	C	1.573301	0.116832	-0.234504
C135	C	1.125987	-0.338351	-0.191710
C136	C	1.625987	0.161649	0.308290
C137	C	1.126134	-0.338178	-0.103846
C138	C	1.626134	0.161822	0.396154
H139	H	0.545430	-0.464917	-0.545195
H140	H	1.045430	0.035083	-0.045195
Br141	Br	0.400177	-0.444359	-0.521162
Br142	Br	0.900177	0.055641	-0.021162
Br143	Br	0.410343	-0.232369	-0.273076
Br144	Br	0.910343	0.267631	0.226924
Br145	Br	0.852572	-0.232341	-0.273012
Br146	Br	1.352572	0.267659	0.226988
H147	H	1.230774	-1.070271	-0.292660
H148	H	1.730774	-0.570271	0.207340
Br149	Br	1.225031	-0.758677	-0.298214
Br150	Br	1.725031	-0.258677	0.201786
H151	H	0.695192	-0.464894	-0.545162
H152	H	1.195192	0.035106	-0.045162
Br153	Br	1.001706	-0.444131	-0.681393
Br154	Br	1.501706	0.055869	-0.181393
Br155	Br	0.986571	-0.758693	-0.536310
Br156	Br	1.486571	-0.258693	-0.036310
H157	H	1.030453	-0.419658	-1.100055
H158	H	1.530453	0.080342	-0.600055
H159	H	0.557551	-0.211800	-0.249011
H160	H	1.057551	0.288200	0.250989
Br161	Br	1.250447	-0.232319	-1.113550
Br162	Br	1.750447	0.267681	-0.613550
Br163	Br	0.730907	-0.187379	-0.220416
Br164	Br	1.230907	0.312621	0.279584
Br165	Br	0.949016	-0.489024	-0.807340
Br166	Br	1.449016	0.010976	-0.307340
Br167	Br	1.233252	-0.585789	-0.289868
Br168	Br	1.733252	-0.085789	0.210132
H169	H	0.977687	-0.464598	-0.978366
H170	H	1.477687	0.035402	-0.478366
H171	H	0.821172	-0.419916	-0.492521
H172	H	1.321172	0.080084	0.007479
H173	H	1.021312	-0.605709	-0.501517
H174	H	1.521312	-0.105709	-0.001517
Br175	Br	1.265532	-0.917281	-0.257881
Br176	Br	1.765532	-0.417281	0.242119
Br177	Br	1.303153	-0.187434	-0.987595
Br178	Br	1.803153	0.312566	-0.487595
Br179	Br	1.303107	-0.187460	-0.793018
Br180	Br	1.803107	0.312540	-0.293018
H181	H	1.191853	-0.825544	-0.331387
H182	H	1.691853	-0.325544	0.168613
H183	H	1.047245	-1.070277	-0.475932
H184	H	1.547245	-0.570277	0.024068
H185	H	1.060241	-0.850440	-0.462796
H186	H	1.560241	-0.350440	0.037204
H187	H	1.053577	-0.937209	-0.469512
H188	H	1.553577	-0.437209	0.030488
H189	H	1.221707	-0.256780	-0.694896
H190	H	1.721707	0.243220	-0.194896
