data_functionalizedCrystal
_audit_creation_method	'MofGen! by Chris Wilmer'
_symmetry_space_group_name_H-M	'P1'
_symmetry_Int_Tables_number	1
_symmetry_cell_setting	triclinic
loop_
_symmetry_equiv_pos_as_xyz
  x,y,z
_cell_length_a	12.645331
_cell_length_b	18.215405
_cell_length_c	18.215399
_cell_angle_alpha	89.969449
_cell_angle_beta	90.019880
_cell_angle_gamma	89.976136
loop_
_atom_site_label
_atom_site_type_symbol
_atom_site_fract_x
_atom_site_fract_y
_atom_site_fract_z
Zn1	Zn	1.620649	0.293012	0.416103
Zn2	Zn	2.120649	0.793012	0.916103
Zn3	Zn	1.620517	0.416083	0.293032
Zn4	Zn	2.120517	0.916083	0.793032
Zn5	Zn	1.443372	0.293033	0.293051
Zn6	Zn	1.943372	0.793033	0.793051
Zn7	Zn	1.443323	0.416039	0.416056
Zn8	Zn	1.943323	0.916039	0.916056
O9	O	1.531965	0.354542	0.354561
O10	O	2.031965	0.854542	0.854561
O11	O	1.768979	0.309347	0.399789
O12	O	2.268979	0.809347	0.899789
O13	O	1.596984	0.399787	0.190050
O14	O	2.096984	0.899787	0.690050
O15	O	1.466964	0.190046	0.309402
O16	O	1.966964	0.690046	0.809402
O17	O	1.768882	0.399767	0.309369
O18	O	2.268882	0.899767	0.809369
O19	O	1.597209	0.190030	0.399808
O20	O	2.097209	0.690030	0.899808
O21	O	1.466836	0.309383	0.190064
O22	O	1.966836	0.809383	0.690064
O23	O	1.295018	0.309340	0.309356
O24	O	1.795018	0.809340	0.809356
O25	O	1.466880	0.399692	0.519047
O26	O	1.966880	0.899692	1.019047
O27	O	1.294982	0.399712	0.399728
O28	O	1.794982	0.899712	0.899728
O29	O	1.597161	0.309304	0.519082
O30	O	2.097161	0.809304	1.019082
O31	O	1.596936	0.519062	0.309323
O32	O	2.096936	1.019062	0.809323
O33	O	1.466752	0.519029	0.399709
O34	O	1.966752	1.019029	0.899709
C35	C	1.256536	0.354524	0.354539
C36	C	1.756536	0.854524	0.854539
C37	C	1.138706	0.354534	0.354548
C38	C	1.638706	0.854534	0.854548
C39	C	1.531853	0.545748	0.354525
C40	C	2.031853	1.045748	0.854525
C41	C	1.531902	0.627547	0.354535
C42	C	2.031902	1.127547	0.854535
C43	C	1.532030	0.354491	0.546514
C44	C	2.032030	0.854491	1.046514
C45	C	1.532057	0.354469	0.628312
C46	C	2.032057	0.854469	1.128312
C47	C	0.971129	0.297420	0.298008
C48	C	1.471129	0.797420	0.798008
C49	C	1.093689	0.297568	0.297759
C50	C	1.593689	0.797568	0.797759
C51	C	1.094173	0.432059	0.333354
C52	C	1.594173	0.932059	0.833354
C53	C	0.971574	0.431747	0.332968
C54	C	1.471574	0.931747	0.832968
C55	C	0.971554	0.334862	0.432499
C56	C	1.471554	0.834862	0.932499
C57	C	1.094160	0.333130	0.432066
C58	C	1.594160	0.833130	0.932066
C59	C	1.808471	0.354560	0.354582
C60	C	2.308471	0.854560	0.854582
C61	C	1.926301	0.354568	0.354592
C62	C	2.426301	0.854568	0.854592
C63	C	1.532107	0.162589	0.354612
C64	C	2.032107	0.662589	0.854612
C65	C	1.532167	0.080790	0.354634
C66	C	2.032167	0.580790	0.854634
C67	C	1.599848	0.815733	0.307557
C68	C	2.099848	1.315733	0.807557
C69	C	1.599896	0.892592	0.307575
C70	C	2.099896	1.392592	0.807575
C71	C	1.464218	0.892598	0.401617
C72	C	1.964218	1.392598	0.901617
C73	C	1.464177	0.815741	0.401602
C74	C	1.964177	1.315741	0.901602
C75	C	1.531990	0.777310	0.354568
C76	C	2.031990	1.277310	0.854568
C77	C	1.532079	0.931026	0.354601
C78	C	2.032079	1.431026	0.854601
C79	C	1.532130	1.014360	0.354620
C80	C	2.032130	1.514360	0.854620
C81	C	1.531941	0.693971	0.354549
C82	C	2.031941	1.193971	0.854549
C83	C	1.531962	0.354539	0.163354
C84	C	2.031962	0.854539	0.663354
C85	C	1.532140	0.354353	0.081556
C86	C	2.032140	0.854353	0.581556
C87	C	1.599919	0.307361	0.816526
C88	C	2.099919	0.807361	1.316526
C89	C	1.599932	0.307339	0.893385
C90	C	2.099932	0.807339	1.393385
C91	C	1.464271	0.401464	0.893337
C92	C	1.964271	0.901464	1.393337
C93	C	1.464254	0.401482	0.816480
C94	C	1.964254	0.901482	1.316480
C95	C	1.532084	0.354431	0.778076
C96	C	2.032084	0.854431	1.278076
C97	C	1.532114	0.354392	0.931792
C98	C	2.032114	0.854392	1.431792
C99	C	1.532127	0.354369	1.015126
C100	C	2.032127	0.854369	1.515126
C101	C	1.532069	0.354452	0.694737
C102	C	2.032069	0.854452	1.194737
H103	H	1.123799	0.240080	0.311045
H104	H	1.623799	0.740080	0.811045
N105	N	1.669106	0.776478	0.259509
N106	N	2.169106	1.276478	0.759509
N107	N	1.662138	0.785117	0.191598
N108	N	2.162138	1.285117	0.691598
H109	H	1.711054	0.757394	0.157662
H110	H	2.211054	1.257394	0.657662
N111	N	1.669179	0.259294	0.777285
N112	N	2.169179	0.759294	1.277285
N113	N	1.669155	0.259313	0.708663
N114	N	2.169155	0.759313	1.208663
H115	H	1.718069	0.225363	0.680950
H116	H	2.218069	0.725363	1.180950
N117	N	1.394945	0.931868	0.449642
N118	N	1.894945	1.431868	0.949642
N119	N	1.327441	0.974811	0.423708
N120	N	1.827441	1.474811	0.923708
H121	H	1.278513	1.002546	0.457625
H122	H	1.778513	1.502546	0.957625
N123	N	1.394976	0.449524	0.932556
N124	N	1.894976	0.949524	1.432556
N125	N	1.334401	0.491539	0.898214
N126	N	1.834401	0.991539	1.398214
H127	H	1.285453	0.525479	0.925910
H128	H	1.785453	1.025479	1.425910
H129	H	1.122968	0.310591	0.240027
H130	H	1.622968	0.810591	0.740027
N131	N	0.935633	0.452688	0.261515
N132	N	1.435633	0.952688	0.761515
N133	N	0.879730	0.409677	0.224761
N134	N	1.379730	0.909677	0.724761
H135	H	0.854351	0.424464	0.174294
H136	H	1.354351	0.924464	0.674294
N137	N	0.932793	0.265186	0.456673
N138	N	1.432793	0.765186	0.956673
N139	N	0.871335	0.229202	0.416770
N140	N	1.371335	0.729202	0.916770
H141	H	0.843957	0.179991	0.433835
H142	H	1.343957	0.679991	0.933835
H143	H	1.124829	0.449057	0.277011
H144	H	1.624829	0.949057	0.777011
H145	H	1.655154	0.923872	0.269295
H146	H	2.155154	1.423872	0.769295
N147	N	1.669211	0.259249	0.932660
N148	N	2.169211	0.759249	1.432660
N149	N	1.662223	0.191343	0.924093
N150	N	2.162223	0.691343	1.424093
H151	H	1.711152	0.157375	0.951831
H152	H	2.211152	0.657375	1.451831
H153	H	1.408918	0.784455	0.439887
H154	H	1.908918	1.284455	0.939887
H155	H	1.123274	0.276081	0.448047
H156	H	1.623274	0.776081	0.948047
N157	N	1.394941	0.449555	0.777200
N158	N	1.894941	0.949555	1.277200
N159	N	1.297127	0.444662	0.785773
N160	N	1.797127	0.944662	1.285773
H161	H	1.248172	0.478610	0.758032
H162	H	1.748172	0.978610	1.258032
N163	N	0.934183	0.225083	0.314495
N164	N	1.434183	0.725083	0.814495
N165	N	0.955186	0.196468	0.375161
N166	N	1.455186	0.696468	0.875161
H167	H	0.929083	0.145378	0.386806
H168	H	1.429083	0.645378	0.886806
H169	H	0.940283	0.310299	0.240616
H170	H	1.440283	0.810299	0.740616
H171	H	0.941919	0.475768	0.372383
H172	H	1.441919	0.975768	0.872383
H173	H	1.123331	0.475776	0.373272
H174	H	1.623331	0.975776	0.873272
H175	H	1.124808	0.371718	0.476480
H176	H	1.624808	0.871718	0.976480
N177	N	0.935207	0.387094	0.485378
N178	N	1.435207	0.887094	0.985378
N179	N	0.876231	0.438627	0.465873
N180	N	1.376231	0.938627	0.965873
H181	H	0.850563	0.475523	0.503211
H182	H	1.350563	0.975523	1.003211
