data_functionalizedCrystal
_audit_creation_method	'MofGen! by Chris Wilmer'
_symmetry_space_group_name_H-M	'P1'
_symmetry_Int_Tables_number	1
_symmetry_cell_setting	triclinic
loop_
_symmetry_equiv_pos_as_xyz
  x,y,z
_cell_length_a	10.489741
_cell_length_b	10.654550
_cell_length_c	9.130313
_cell_angle_alpha	89.993688
_cell_angle_beta	89.998131
_cell_angle_gamma	84.512052
loop_
_atom_site_label
_atom_site_type_symbol
_atom_site_fract_x
_atom_site_fract_y
_atom_site_fract_z
O1	O	-1.693968	-0.177195	0.121708
O2	O	-1.193968	0.322805	0.621708
O3	O	-1.322764	-0.193828	0.121731
O4	O	-0.822764	0.306172	0.621731
O5	O	-1.516901	-0.002776	0.121710
O6	O	-1.016901	0.497224	0.621710
O7	O	-1.499831	-0.368247	0.121729
O8	O	-0.999831	0.131753	0.621729
O9	O	-1.516884	-0.002764	-0.121889
O10	O	-1.016884	0.497236	0.378111
O11	O	-1.322748	-0.193815	-0.121868
O12	O	-0.822748	0.306185	0.378132
O13	O	-1.693951	-0.177183	-0.121890
O14	O	-1.193951	0.322817	0.378110
Cu15	Cu	-1.508348	-0.185498	-0.144122
Cu16	Cu	-1.008348	0.314502	0.355878
Cu17	Cu	-1.508368	-0.185513	0.143962
Cu18	Cu	-1.008368	0.314487	0.643962
O19	O	-1.499815	-0.368234	-0.121869
O20	O	-0.999815	0.131766	0.378131
C21	C	-1.515639	0.044029	-0.000089
C22	C	-1.015639	0.544029	0.499911
C23	C	-1.511889	0.183474	-0.000086
C24	C	-1.011889	0.683474	0.499914
C25	C	-1.275225	-0.192565	-0.000065
C26	C	-0.775225	0.307435	0.499935
C27	C	-1.133597	-0.188807	-0.000057
C28	C	-0.633597	0.311193	0.499943
C29	C	-1.741491	-0.178445	-0.000091
C30	C	-1.241491	0.321555	0.499909
C31	C	-1.883118	-0.182204	-0.000090
C32	C	-1.383118	0.317796	0.499910
C33	C	-1.065516	-0.067246	-0.000077
C34	C	-0.565516	0.432754	0.499923
C35	C	-0.973369	-0.124676	0.120030
C36	C	-0.473369	0.375324	0.620030
C37	C	-0.973387	-0.124693	-0.120140
C38	C	-0.473387	0.375307	0.379860
C39	C	-1.043316	-0.246287	0.120149
C40	C	-0.543316	0.253713	0.620149
C41	C	-1.043343	-0.246287	-0.120128
C42	C	-0.543343	0.253713	0.379872
C43	C	-0.951224	-0.303805	0.000008
C44	C	-0.451224	0.196195	0.500008
C45	C	-1.501076	-0.415039	-0.000068
C46	C	-1.001076	0.084961	0.499932
C47	C	-1.504826	-0.554484	-0.000060
C48	C	-1.004826	-0.054484	0.499940
N49	N	-1.508343	-0.185487	-0.346744
N50	N	-1.008343	0.314513	0.153256
C51	C	-1.626194	0.262906	-0.000093
C52	C	-1.126194	0.762906	0.499907
C53	C	-1.622663	0.393928	-0.000074
C54	C	-1.122663	0.893928	0.499926
C55	C	-1.390513	0.366074	-0.000050
C56	C	-0.890513	0.866074	0.499950
C57	C	-1.394045	0.235054	-0.000057
C58	C	-0.894045	0.735054	0.499943
C59	C	-1.430342	-0.108590	-0.576790
C60	C	-0.930342	0.391410	-0.076790
C61	C	-1.430326	-0.108573	-0.423453
C62	C	-0.930326	0.391427	0.076547
C63	C	-1.586392	-0.262414	-0.423380
C64	C	-1.086392	0.237586	0.076620
C65	C	-1.586415	-0.262423	-0.576714
C66	C	-1.086415	0.237577	-0.076714
N67	N	-1.508382	-0.185514	0.346585
N68	N	-1.008382	0.314486	0.846585
H69	H	-1.115254	0.032684	0.000068
H70	H	-0.615254	0.532684	0.500068
F71	F	-1.751614	0.208015	-0.000122
F72	F	-1.251614	0.708015	0.499878
H73	H	-1.366779	-0.045933	-0.361071
H74	H	-0.866779	0.454067	0.138929
H75	H	-1.366804	-0.045965	-0.639235
H76	H	-0.866804	0.454035	-0.139235
F77	F	-0.932875	-0.057458	0.252750
F78	F	-0.432875	0.442542	0.752750
H79	H	-1.715742	0.458597	-0.000077
H80	H	-1.215742	0.958597	0.499923
H81	H	-1.074126	-0.297687	0.221805
H82	H	-0.574126	0.202313	0.721805
H83	H	-1.649971	-0.325065	-0.639104
H84	H	-1.149971	0.174935	-0.139104
H85	H	-0.901752	-0.403841	0.000079
H86	H	-0.401752	0.096159	0.500079
F87	F	-0.932922	-0.057432	-0.252864
F88	F	-0.432922	0.442568	0.247136
F89	F	-1.083885	-0.313455	-0.252852
F90	F	-0.583885	0.186545	0.247148
H91	H	-1.294568	0.408087	-0.000029
H92	H	-0.794568	0.908087	0.499971
F93	F	-1.272380	0.150510	-0.000040
F94	F	-0.772380	0.650510	0.499960
F95	F	-1.669432	-0.344265	-0.341737
F96	F	-1.169432	0.155735	0.158263
