data_functionalizedCrystal
_audit_creation_method	'MofGen! by Chris Wilmer'
_symmetry_space_group_name_H-M	'P1'
_symmetry_Int_Tables_number	1
_symmetry_cell_setting	triclinic
loop_
_symmetry_equiv_pos_as_xyz
  x,y,z
_cell_length_a	19.077105
_cell_length_b	14.908520
_cell_length_c	19.076919
_cell_angle_alpha	84.570994
_cell_angle_beta	89.923776
_cell_angle_gamma	91.150228
loop_
_atom_site_label
_atom_site_type_symbol
_atom_site_fract_x
_atom_site_fract_y
_atom_site_fract_z
Zn1	Zn	1.037881	-0.436364	0.459234
Zn2	Zn	1.035744	-0.581390	0.347980
Zn3	Zn	0.925663	-0.424281	0.336506
Zn4	Zn	0.913591	-0.580846	0.460710
O5	O	0.978220	-0.505720	0.401107
O6	O	1.135682	-0.460886	0.448660
O7	O	1.025299	-0.555720	0.247919
O8	O	0.946495	-0.299666	0.347366
O9	O	1.134112	-0.567437	0.366923
O10	O	1.028941	-0.308543	0.437534
O11	O	0.944423	-0.440292	0.239489
O12	O	0.825977	-0.439765	0.348797
O13	O	0.925920	-0.566510	0.559053
O14	O	0.817107	-0.554793	0.440049
O15	O	1.017235	-0.460359	0.557969
O16	O	1.013594	-0.707536	0.368354
O17	O	0.923848	-0.707136	0.451175
C18	C	0.796110	-0.495910	0.393339
C19	C	0.718201	-0.491735	0.390033
C20	C	0.967198	-0.740065	0.411186
C21	C	0.962545	-0.840323	0.415524
C22	C	0.676998	-0.549746	0.435923
C23	C	0.603795	-0.545812	0.432820
C24	C	0.571795	-0.483870	0.383823
C25	C	0.613003	-0.425853	0.337931
C26	C	0.686205	-0.429783	0.341038
C27	C	0.353358	-0.465680	0.369446
C28	C	0.280150	-0.461756	0.366341
C29	C	0.270947	-0.581715	0.461231
C30	C	0.344151	-0.585643	0.464331
C31	C	0.385353	-0.527623	0.418441
N32	N	0.496969	-0.479850	0.380648
N33	N	0.460177	-0.531640	0.421620
C34	C	1.047344	-1.029082	0.337510
C35	C	1.042976	-1.123283	0.341584
C36	C	0.949443	-1.122929	0.427749
C37	C	0.953812	-1.028727	0.423675
C38	C	1.002763	-0.981807	0.378553
C39	C	1.007128	-0.887604	0.374476
C40	C	0.913600	-0.887251	0.460644
C41	C	0.909231	-0.981453	0.464718
C42	C	1.161040	-0.515570	0.408907
C43	C	1.238948	-0.519767	0.412230
C44	C	0.970470	-0.514721	0.584776
C45	C	0.967167	-0.518557	0.663044
C46	C	0.989303	-0.270463	0.391006
C47	C	0.994026	-0.170210	0.386701
C48	C	0.985983	-0.496691	0.218153
C49	C	0.989433	-0.492609	0.139879
C50	C	1.013156	-0.465095	0.699251
C51	C	1.010044	-0.468695	0.772793
C52	C	0.960947	-0.525763	0.810125
C53	C	0.914953	-0.579227	0.773913
C54	C	0.918062	-0.575622	0.700373
C55	C	0.946548	-0.542468	1.030127
C56	C	0.943444	-0.546071	1.103672
C57	C	1.038535	-0.435537	1.102547
C58	C	1.041642	-0.431941	1.029006
C59	C	0.995646	-0.485402	0.992799
N60	N	0.957767	-0.529446	0.885296
N61	N	0.998824	-0.481713	0.917629
H62	H	0.703047	-0.600189	0.475819
H63	H	0.869378	-1.019668	0.501457
O64	O	1.086270	-1.169350	0.301808
C65	C	1.121015	-1.314630	0.269919
C66	C	1.071936	-1.262572	0.315001
H67	H	1.109434	-1.390009	0.280558
H68	H	1.177862	-1.299733	0.283976
H69	H	1.112050	-1.292675	0.211803
H70	H	1.080838	-1.284497	0.373130
H71	H	1.015107	-1.277472	0.300884
H72	H	0.254099	-0.411305	0.326445
O73	O	0.393270	-0.409283	0.324799
C74	C	0.394667	-0.289841	0.230388
C75	C	0.349379	-0.353679	0.280898
H76	H	0.359200	-0.244856	0.194891
H77	H	0.428533	-0.331154	0.196694
H78	H	0.429804	-0.246210	0.262225
H79	H	0.314201	-0.397324	0.249117
H80	H	0.315559	-0.312313	0.314593
O81	O	0.901916	-1.168653	0.471517
C82	C	0.853772	-1.313628	0.516010
C83	C	0.907619	-1.261957	0.466402
H84	H	0.858375	-1.389074	0.511902
H85	H	0.798624	-1.291602	0.500387
H86	H	0.864489	-1.298454	0.572512
H87	H	0.896967	-1.277106	0.409885
H88	H	0.962750	-1.283989	0.482085
O89	O	1.094830	-0.983356	0.293693
C90	C	1.143036	-0.838391	0.249260
C91	C	1.089216	-0.890060	0.298901
H92	H	1.138526	-0.762954	0.253465
H93	H	1.132311	-0.853440	0.192731
H94	H	1.198156	-0.860543	0.264873
H95	H	1.034076	-0.867939	0.283351
H96	H	1.100002	-0.875009	0.355418
O97	O	0.230955	-0.638191	0.505745
C98	C	0.199951	-0.792145	0.545430
C99	C	0.245269	-0.728290	0.494961
H100	H	0.211519	-0.865003	0.536739
H101	H	0.142122	-0.778777	0.534800
H102	H	0.212699	-0.779918	0.602155
H103	H	0.232582	-0.740479	0.438218
H104	H	0.303085	-0.741671	0.505652
H105	H	0.877297	-0.848750	0.494062
O106	O	1.060872	-0.409580	0.663096
C107	C	1.154884	-0.300361	0.669753
C108	C	1.100870	-0.363180	0.710782
H109	H	1.187247	-0.262844	0.708290
H110	H	1.126418	-0.249719	0.631941
H111	H	1.191010	-0.342068	0.638647
H112	H	1.064730	-0.321547	0.741928
H113	H	1.129382	-0.413825	0.748551
O114	O	0.901929	-0.594530	0.995009
C115	C	0.861563	-0.745006	0.977687
C116	C	0.912152	-0.686155	1.017495
H117	H	0.869801	-0.819096	0.995862
H118	H	0.872200	-0.732711	0.918705
H119	H	0.805195	-0.726767	0.989057
H120	H	0.968539	-0.704359	1.006183
H121	H	0.901455	-0.698459	1.076465
O122	O	0.563875	-0.602267	0.477420
C123	C	0.562472	-0.721650	0.571875
C124	C	0.607764	-0.657775	0.521397
H125	H	0.597938	-0.766532	0.607454
H126	H	0.527365	-0.765376	0.540084
H127	H	0.528575	-0.680277	0.605492
H128	H	0.641703	-0.699077	0.487770
H129	H	0.642825	-0.614047	0.553230
O130	O	0.375199	-0.645720	0.512026
C131	C	0.390460	-0.696850	0.634593
C132	C	0.355270	-0.628742	0.580657
H133	H	0.374349	-0.683159	0.690093
H134	H	0.449864	-0.689701	0.628996
H135	H	0.373180	-0.768163	0.624613
H136	H	0.372494	-0.557400	0.590603
H137	H	0.295872	-0.635970	0.586267
O138	O	0.581884	-0.365803	0.290267
C139	C	0.503771	-0.344374	0.191203
C140	C	0.538978	-0.412479	0.245130
H141	H	0.469062	-0.382084	0.154705
H142	H	0.545764	-0.303594	0.158886
H143	H	0.470385	-0.297013	0.220132
H144	H	0.572360	-0.459898	0.216258
H145	H	0.496950	-0.453194	0.277446
H146	H	0.719751	-0.382540	0.303673
H147	H	1.047495	-0.425162	0.802269
O148	O	1.089356	-0.376423	0.992849
C149	C	1.183372	-0.267207	0.999499
C150	C	1.129357	-0.330022	1.040532
H151	H	1.215737	-0.229690	1.038034
H152	H	1.154905	-0.216566	0.961687
H153	H	1.219495	-0.308919	0.968393
H154	H	1.093219	-0.288385	1.071678
H155	H	1.157869	-0.380666	1.078301
H156	H	0.874974	-0.625690	0.804315
H157	H	1.046985	-0.849402	0.337734
H158	H	1.075982	-0.392011	1.132034
H159	H	0.903461	-0.592545	1.134066
O160	O	0.873366	-0.627657	0.665311
C161	C	0.778709	-0.737655	0.674182
C162	C	0.829296	-0.678785	0.713977
H163	H	0.743056	-0.778993	0.713511
H164	H	0.810094	-0.784919	0.643178
H165	H	0.745494	-0.692578	0.636386
H166	H	0.862523	-0.723791	0.751809
H167	H	0.797870	-0.631514	0.744936
