data_functionalizedCrystal
_audit_creation_method	'MofGen! by Chris Wilmer'
_symmetry_space_group_name_H-M	'P1'
_symmetry_Int_Tables_number	1
_symmetry_cell_setting	triclinic
loop_
_symmetry_equiv_pos_as_xyz
  x,y,z
_cell_length_a	18.215407
_cell_length_b	18.215404
_cell_length_c	18.215399
_cell_angle_alpha	89.972485
_cell_angle_beta	90.019833
_cell_angle_gamma	89.975729
loop_
_atom_site_label
_atom_site_type_symbol
_atom_site_fract_x
_atom_site_fract_y
_atom_site_fract_z
Zn1	Zn	1.125077	0.292983	0.416118
Zn2	Zn	1.625077	0.792983	0.916118
Zn3	Zn	1.124988	0.416054	0.293053
Zn4	Zn	1.624988	0.916054	0.793053
Zn5	Zn	1.002010	0.293007	0.293065
Zn6	Zn	1.502010	0.793007	0.793065
Zn7	Zn	1.001978	0.416013	0.416078
Zn8	Zn	1.501978	0.916013	0.916078
O9	O	1.063513	0.354514	0.354578
O10	O	1.563513	0.854514	0.854578
O11	O	1.228050	0.309316	0.399805
O12	O	1.728050	0.809316	0.899805
O13	O	1.108651	0.399759	0.190070
O14	O	1.608651	0.899759	0.690070
O15	O	1.018386	0.190020	0.309411
O16	O	1.518386	0.690020	0.809411
O17	O	1.227984	0.399736	0.309389
O18	O	1.727984	0.899736	0.809389
O19	O	1.108803	0.190002	0.399817
O20	O	1.608803	0.690002	0.899817
O21	O	1.018299	0.309357	0.190079
O22	O	1.518299	0.809357	0.690079
O23	O	0.899021	0.309317	0.309372
O24	O	1.399021	0.809317	0.809372
O25	O	1.018332	0.399666	0.519067
O26	O	1.518332	0.899666	1.019067
O27	O	0.898998	0.399689	0.399748
O28	O	1.398998	0.899689	0.899748
O29	O	1.108772	0.309276	0.519097
O30	O	1.608772	0.809276	1.019097
O31	O	1.108620	0.519033	0.309350
O32	O	1.608620	1.019033	0.809350
O33	O	1.018245	0.519003	0.399736
O34	O	1.518245	1.019003	0.899736
C35	C	0.872307	0.354502	0.354557
C36	C	1.372307	0.854502	0.854557
C37	C	0.790508	0.354514	0.354566
C38	C	1.290508	0.854514	0.854566
C39	C	0.602321	0.401645	0.401566
C40	C	1.102321	0.901645	0.901566
C41	C	0.525463	0.401647	0.401575
C42	C	1.025463	0.901647	0.901575
C43	C	0.525457	0.307397	0.307607
C44	C	1.025457	0.807397	0.807607
C45	C	0.602315	0.307392	0.307602
C46	C	1.102315	0.807392	0.807602
C47	C	0.640745	0.354520	0.354581
C48	C	1.140745	0.854520	0.854581
C49	C	0.487029	0.354528	0.354595
C50	C	0.987029	0.854528	0.854595
C51	C	0.403695	0.354530	0.354604
C52	C	0.903695	0.854530	0.854604
C53	C	0.724084	0.354517	0.354572
C54	C	1.224084	0.854517	0.854572
C55	C	1.063439	0.545721	0.354553
C56	C	1.563439	1.045721	0.854553
C57	C	1.063475	0.627520	0.354567
C58	C	1.563475	1.127520	0.854567
C59	C	1.110647	0.815705	0.307600
C60	C	1.610647	1.315705	0.807600
C61	C	1.110681	0.892563	0.307622
C62	C	1.610681	1.392563	0.807622
C63	C	1.016492	0.892572	0.401663
C64	C	1.516492	1.392572	0.901663
C65	C	1.016462	0.815715	0.401644
C66	C	1.516462	1.315715	0.901644
C67	C	1.063539	0.777283	0.354609
C68	C	1.563539	1.277283	0.854609
C69	C	1.063603	0.930999	0.354649
C70	C	1.563603	1.430999	0.854649
C71	C	1.063640	1.014333	0.354673
C72	C	1.563640	1.514333	0.854673
C73	C	1.063503	0.693944	0.354585
C74	C	1.563503	1.193944	0.854585
C75	C	1.255466	0.354528	0.354600
C76	C	1.755466	0.854528	0.854600
C77	C	1.337265	0.354533	0.354609
C78	C	1.837265	0.854533	0.854609
C79	C	1.063558	0.354464	0.546531
C80	C	1.563558	0.854464	1.046531
C81	C	1.063577	0.354442	0.628330
C82	C	1.563577	0.854442	1.128330
C83	C	1.063613	1.162561	0.354633
C84	C	1.563613	1.662561	0.854633
C85	C	1.063667	1.080763	0.354691
C86	C	1.563667	1.580763	0.854691
C87	C	1.063511	0.354512	0.163372
C88	C	1.563511	0.854512	0.663372
C89	C	1.063635	0.354326	0.081574
C90	C	1.563635	0.854326	0.581574
C91	C	1.110687	0.307332	0.816541
C92	C	1.610687	0.807332	1.316541
C93	C	1.110695	0.307311	0.893400
C94	C	1.610695	0.807311	1.393400
C95	C	1.016520	0.401438	0.893358
C96	C	1.516520	0.901438	1.393358
C97	C	1.016508	0.401455	0.816500
C98	C	1.516508	0.901455	1.316500
C99	C	1.063596	0.354403	0.778094
C100	C	1.563596	0.854403	1.278094
C101	C	1.063616	0.354365	0.931810
C102	C	1.563616	0.854365	1.431810
C103	C	1.063625	0.354342	1.015144
C104	C	1.563625	0.854342	1.515144
C105	C	1.063586	0.354425	0.694755
C106	C	1.563586	0.854425	1.194755
H107	H	0.494182	0.440020	0.439836
H108	H	0.994182	0.940020	0.939836
H109	H	0.633600	0.269012	0.269341
H110	H	1.133600	0.769012	0.769341
C111	C	1.162435	0.773429	0.255868
C112	C	1.662435	1.273429	0.755868
C113	C	1.214257	0.815696	0.204162
C114	C	1.714257	1.315696	0.704162
C115	C	1.266048	0.773423	0.152430
C116	C	1.766048	1.273423	0.652430
C117	C	1.266018	0.688883	0.152404
C118	C	1.766018	1.188883	0.652404
C119	C	1.214194	0.646611	0.204111
C120	C	1.714194	1.146611	0.704111
C121	C	1.162403	0.688884	0.255843
C122	C	1.662403	1.188884	0.755843
H123	H	1.214281	0.878282	0.204180
H124	H	1.714281	1.378282	0.704180
H125	H	1.304411	0.804715	0.114153
H126	H	1.804411	1.304715	0.614153
H127	H	1.304357	0.657589	0.114109
H128	H	1.804357	1.157589	0.614109
H129	H	1.214170	0.584025	0.204093
H130	H	1.714170	1.084025	0.704093
H131	H	1.124040	0.657592	0.294120
H132	H	1.624040	1.157592	0.794120
H133	H	0.978156	0.439786	0.785196
H134	H	1.478156	0.939786	1.285196
C135	C	1.162501	0.934826	0.255909
C136	C	1.662501	1.434826	0.755909
C137	C	1.156540	0.924327	0.172239
C138	C	1.656540	1.424327	0.672239
C139	C	1.208364	0.966589	0.120526
C140	C	1.708364	1.466589	0.620526
C141	C	1.266149	1.019350	0.152483
C142	C	1.766149	1.519350	0.652483
C143	C	1.272112	1.029852	0.236157
C144	C	1.772112	1.529852	0.736157
C145	C	1.220288	0.987590	0.287871
C146	C	1.720288	1.487590	0.787871
H147	H	1.113762	0.885267	0.148579
H148	H	1.613762	1.385267	0.648579
H149	H	1.203949	0.958814	0.058584
H150	H	1.703949	1.458814	0.558584
H151	H	1.304512	1.050635	0.114202
H152	H	1.804512	1.550635	0.614202
H153	H	1.314890	1.068911	0.259818
H154	H	1.814890	1.568911	0.759818
H155	H	1.224703	0.995365	0.349812
H156	H	1.724703	1.495365	0.849812
H157	H	0.978164	0.923873	0.439957
H158	H	1.478164	1.423873	0.939957
C159	C	0.964639	0.773446	0.453358
C160	C	1.464639	1.273446	0.953358
C161	C	0.906863	0.720675	0.421401
C162	C	1.406863	1.220675	0.921401
C163	C	0.855044	0.678406	0.473114
C164	C	1.355044	1.178406	0.973114
C165	C	0.861002	0.688909	0.556784
C166	C	1.361002	1.188909	1.056784
C167	C	0.918780	0.741682	0.588745
C168	C	1.418780	1.241682	1.088745
C169	C	0.970599	0.783951	0.537032
C170	C	1.470599	1.283951	1.037032
H171	H	0.902450	0.712898	0.359459
H172	H	1.402450	1.212898	0.859459
H173	H	0.812273	0.639340	0.449453
H174	H	1.312273	1.139340	0.949453
H175	H	0.822642	0.657619	0.595065
H176	H	1.322642	1.157619	1.095065
H177	H	0.923192	0.749459	0.650687
H178	H	1.423192	1.249459	1.150687
H179	H	1.013370	0.823017	0.560692
H180	H	1.513370	1.323017	1.060692
H181	H	0.633609	0.440018	0.439820
H182	H	1.133609	0.940018	0.939820
C183	C	1.162476	0.255571	0.774294
C184	C	1.662476	0.755571	1.274294
C185	C	1.220235	0.287470	0.721461
C186	C	1.720235	0.787470	1.221461
C187	C	1.272024	0.235705	0.679217
C188	C	1.772024	0.735705	1.179217
C189	C	1.266054	0.152041	0.689804
C190	C	1.766054	0.652041	1.189804
C191	C	1.208292	0.120138	0.742639
C192	C	1.708292	0.620138	1.242639
C193	C	1.156503	0.171902	0.784884
C194	C	1.656503	0.671902	1.284884
H195	H	1.224657	0.349407	0.713621
H196	H	1.724657	0.849407	1.213621
H197	H	1.314783	0.259323	0.640105
H198	H	1.814783	0.759323	1.140105
H199	H	1.304392	0.113722	0.658532
H200	H	1.804392	0.613722	1.158532
H201	H	1.203871	0.058201	0.750479
H202	H	1.703871	0.558201	1.250479
H203	H	1.113744	0.148285	0.823996
H204	H	1.613744	0.648285	1.323996
H205	H	1.149040	0.268979	0.924700
H206	H	1.649040	0.768979	1.424700
H207	H	0.494158	0.269028	0.269358
H208	H	0.994158	0.769028	0.769358
H209	H	0.978185	0.439748	0.924637
H210	H	1.478185	0.939748	1.424637
