data_functionalizedCrystal
_audit_creation_method	'MofGen! by Chris Wilmer'
_symmetry_space_group_name_H-M	'P1'
_symmetry_Int_Tables_number	1
_symmetry_cell_setting	triclinic
loop_
_symmetry_equiv_pos_as_xyz
  x,y,z
_cell_length_a	6.817900
_cell_length_b	19.551823
_cell_length_c	16.255661
_cell_angle_alpha	95.874627
_cell_angle_beta	103.488922
_cell_angle_gamma	101.663376
loop_
_atom_site_label
_atom_site_type_symbol
_atom_site_fract_x
_atom_site_fract_y
_atom_site_fract_z
V1	V	-4.017644	-0.097240	-0.264269
O2	O	-4.014572	0.004092	-0.258831
O3	O	-3.960336	-0.192252	-0.262853
O4	O	-3.969322	-0.095999	-0.379347
O5	O	-4.005524	-0.092827	-0.141531
V6	V	-4.502416	-0.085090	-0.249541
O7	O	-4.276162	-0.123894	-0.296576
O8	O	-4.694095	-0.058436	-0.217234
O9	O	-4.336518	0.009923	-0.250957
O10	O	-4.622886	-0.186422	-0.254979
O11	O	-4.631934	-0.089502	-0.372279
O12	O	-4.327532	-0.086330	-0.134463
C13	C	-3.803167	-0.215406	-0.258785
C14	C	-3.837598	-0.293082	-0.258395
C15	C	-4.035543	-0.333136	-0.262444
C16	C	-4.067899	-0.406121	-0.262085
C17	C	-3.902291	-0.439047	-0.257661
C18	C	-3.704321	-0.398984	-0.253617
C19	C	-3.671975	-0.326001	-0.253984
C20	C	-3.789026	-0.545420	-0.203995
C21	C	-3.821377	-0.618401	-0.203623
C22	C	-4.002053	-0.664151	-0.256533
C23	C	-4.150402	-0.636910	-0.309805
C24	C	-4.118055	-0.563927	-0.310172
C25	C	-3.937345	-0.518184	-0.257263
C26	C	-4.235095	-0.783344	-0.260194
C27	C	-4.267447	-0.856332	-0.259841
C28	C	-3.903859	-0.849192	-0.251364
C29	C	-3.871517	-0.776207	-0.251726
C30	C	-4.037140	-0.743287	-0.256137
C31	C	-3.814629	-0.092625	-0.407384
C32	C	-3.856344	-0.092239	-0.501464
C33	C	-3.767331	-0.087630	-0.724263
C34	C	-3.918199	-0.147123	-0.793983
C35	C	-3.932796	-0.091516	-0.673709
C36	C	-3.856282	-0.031341	-0.771624
C37	C	-4.006630	-0.090813	-0.840090
C38	C	-4.083142	-0.151062	-0.742199
C39	C	-4.021167	-0.035228	-0.719825
C40	C	-4.172171	-0.094738	-0.789525
C41	C	-3.890258	-0.091921	-0.577862
C42	C	-4.049185	-0.090414	-0.935937
C43	C	-4.157028	0.033073	-0.255022
C44	C	-4.101835	0.110747	-0.255418
C45	C	-4.145567	-0.089707	-0.106422
C46	C	-4.083090	-0.090089	-0.012341
H47	H	-4.428643	-0.888944	-0.263144
N48	N	-3.729781	0.035679	-0.789344
H49	H	-3.577300	0.038298	-0.765494
H50	H	-3.767323	0.077935	-0.761209
H51	H	-3.641884	-0.508176	-0.160912
H52	H	-4.369954	-0.756540	-0.263785
N53	N	-4.214184	-0.297633	-0.267229
H54	H	-4.344498	-0.334088	-0.269748
H55	H	-4.235370	-0.274416	-0.320310
N56	N	-3.725233	-0.884695	-0.246601
H57	H	-3.775759	-0.937008	-0.246986
H58	H	-3.613479	-0.863483	-0.192079
H59	H	-3.595850	-0.084701	-0.695771
N60	N	-3.661348	-0.647779	-0.146187
H61	H	-3.709250	-0.700955	-0.153983
H62	H	-3.642800	-0.627260	-0.084515
N63	N	-3.525692	-0.434490	-0.248836
H64	H	-3.576215	-0.486802	-0.249211
H65	H	-3.413955	-0.413271	-0.194311
N66	N	-4.281409	-0.449253	-0.266305
H67	H	-4.276026	-0.472733	-0.213555
H68	H	-4.329884	-0.486599	-0.319068
H69	H	-3.510783	-0.293389	-0.250687
H70	H	-4.064174	0.012082	-0.687522
N71	N	-4.278022	-0.534542	-0.367632
H72	H	-4.414580	-0.547561	-0.352242
H73	H	-4.296383	-0.555023	-0.429302
N74	N	-4.345262	-0.686244	-0.366893
H75	H	-4.343236	-0.736613	-0.358589
H76	H	-4.352396	-0.681239	-0.428681
N77	N	-4.209627	-0.218158	-0.724643
H78	H	-4.295337	-0.248261	-0.780661
H79	H	-4.304481	-0.205845	-0.689047
H80	H	-3.875115	-0.194430	-0.826262
N81	N	-3.658017	-0.733000	-0.247360
H82	H	-3.558010	-0.764931	-0.244504
H83	H	-3.609955	-0.695663	-0.194593
N84	N	-4.399453	-0.098732	-0.827090
H85	H	-4.485185	-0.143945	-0.816643
H86	H	-4.426197	-0.097998	-0.890738
