data_functionalizedCrystal
_audit_creation_method	'MofGen! by Chris Wilmer'
_symmetry_space_group_name_H-M	'P1'
_symmetry_Int_Tables_number	1
_symmetry_cell_setting	triclinic
loop_
_symmetry_equiv_pos_as_xyz
  x,y,z
_cell_length_a	19.851628
_cell_length_b	14.560438
_cell_length_c	14.560438
_cell_angle_alpha	90.001361
_cell_angle_beta	60.005638
_cell_angle_gamma	59.997024
loop_
_atom_site_label
_atom_site_type_symbol
_atom_site_fract_x
_atom_site_fract_y
_atom_site_fract_z
Zr1	Zr	0.737341	-0.120557	0.884824
O2	O	0.877869	-0.267215	0.738193
O3	O	0.596810	-0.075593	0.929765
O4	O	0.737340	-0.267203	0.929780
O5	O	0.737342	0.075533	0.738176
O6	O	0.737342	-0.267200	1.080919
O7	O	0.737340	-0.075605	0.738178
O8	O	0.485960	0.075555	1.080891
O9	O	0.988723	-0.267222	0.738203
O10	O	0.654615	-0.056422	1.061736
O11	O	0.654615	0.056369	0.948942
O12	O	0.820070	-0.169227	0.948960
O13	O	0.820070	-0.056436	0.836166
Zr14	Zr	0.737347	0.120494	1.125870
Zr15	Zr	0.737344	-0.120554	1.125872
Zr16	Zr	0.737344	0.120491	0.884822
Zr17	Zr	0.914140	-0.120569	0.884841
Zr18	Zr	0.560548	0.120506	1.125853
O19	O	0.877878	0.075530	1.080929
O20	O	0.877873	-0.267210	1.080932
O21	O	0.877873	0.075524	0.738190
O22	O	0.596819	0.267152	1.272501
O23	O	0.596814	-0.075587	1.272504
O24	O	0.596814	0.267147	0.929762
O25	O	0.737346	-0.075596	1.272518
O26	O	0.737348	0.267140	1.080914
O27	O	0.737346	0.267137	0.929775
O28	O	0.737348	0.075542	1.272516
O29	O	0.988726	-0.267219	0.929804
O30	O	0.485962	0.267156	1.080890
O31	O	0.485965	0.267159	1.272491
O32	O	0.485962	0.075558	1.272492
O33	O	0.988726	-0.075621	0.738202
O34	O	0.988728	-0.075618	0.929803
O35	O	0.654618	0.169164	1.061734
O36	O	0.654618	0.056373	1.174528
O37	O	0.820073	-0.056432	1.061752
O38	O	0.820073	0.056359	0.948958
C39	C	0.516195	-0.000017	1.005326
C40	C	0.441139	-0.000012	1.005319
C41	C	0.737340	-0.000036	0.703833
C42	C	0.737339	-0.000038	0.601501
C43	C	0.737348	0.301483	1.005344
C44	C	0.737349	0.403814	1.005343
C45	C	0.259780	0.061476	0.943838
C46	C	0.270116	-0.044587	0.899269
C47	C	0.303719	-0.000028	1.005337
C48	C	0.159667	0.106009	1.049871
C49	C	0.170974	-0.000034	1.005354
C50	C	0.315089	-0.106153	0.960706
C51	C	0.204594	0.044519	1.111367
C52	C	0.214965	-0.061608	1.066825
C53	C	0.380190	-0.000023	1.005325
C54	C	0.094509	-0.000050	1.005365
C55	C	0.958493	-0.000046	1.005368
C56	C	1.033549	-0.000051	1.005375
C57	C	0.737340	-0.301546	1.005350
C58	C	0.737339	-0.403877	1.005351
C59	C	0.823713	0.393009	0.946481
C60	C	0.823709	0.489164	0.946481
C61	C	0.650968	0.606925	1.064215
C62	C	0.650973	0.510772	1.064208
C63	C	0.923444	0.325022	0.878512
C64	C	0.923440	0.421177	0.878512
C65	C	0.650975	0.058845	0.612291
C66	C	0.650979	0.058855	0.516136
C67	C	0.823720	-0.058910	0.398405
C68	C	0.823715	-0.058913	0.494559
C69	C	0.551244	0.126832	0.680261
C70	C	0.551248	0.126842	0.584106
C71	C	0.737348	-0.000027	1.306861
C72	C	0.737349	-0.000025	1.409193
C73	C	0.516199	-0.000012	1.306840
C74	C	0.441144	-0.000006	1.409164
C75	C	0.516199	0.301497	1.005323
C76	C	0.441144	0.403833	1.005315
C77	C	0.516202	0.301502	1.306837
C78	C	0.441149	0.403840	1.409160
C79	C	0.958485	-0.301565	0.703857
C80	C	1.033539	-0.403903	0.601533
C81	C	0.958489	-0.000051	0.703854
C82	C	1.033544	-0.000057	0.601530
C83	C	0.958489	-0.301560	1.005371
C84	C	1.033544	-0.403896	1.005379
C85	C	0.405896	-0.058891	1.398341
C86	C	0.335384	-0.058907	1.494476
C87	C	0.300116	-0.000031	1.601433
C88	C	0.335371	0.058855	1.612255
C89	C	0.405887	0.058864	1.516121
C90	C	0.405899	0.510779	1.064187
C91	C	0.335387	0.606944	1.064175
C92	C	0.300117	0.596160	1.005297
C93	C	0.335368	0.489203	0.946417
C94	C	0.405884	0.393041	0.946423
C95	C	0.405903	0.393023	1.516100
C96	C	0.335392	0.489171	1.612252
C97	C	0.300124	0.596134	1.601463
C98	C	0.335377	0.606949	1.494513
C99	C	0.405891	0.510802	1.398362
C100	C	1.068793	-0.393086	0.494594
C101	C	1.139326	-0.489234	0.398442
C102	C	1.174598	-0.596198	0.409231
C103	C	1.139341	-0.607012	0.516181
C104	C	1.068814	-0.510865	0.612331
C105	C	1.068799	0.058817	0.612353
C106	C	1.139331	0.058807	0.516218
C107	C	1.174601	-0.000072	0.409261
C108	C	1.139343	-0.058953	0.398439
C109	C	1.068817	-0.058949	0.494573
C110	C	1.068792	-0.393077	1.064269
C111	C	1.139305	-0.489223	1.064298
C112	C	1.174572	-0.596188	1.005431
C113	C	1.139317	-0.607005	0.946540
C114	C	1.068801	-0.510860	0.946517
H115	H	0.279523	0.113408	0.891763
H116	H	0.242697	-0.000047	1.679703
H117	H	0.961728	0.421169	0.916341
Br118	Br	1.020973	-0.525566	0.757460
Br119	Br	0.499673	0.271937	0.569554
H120	H	1.168071	-0.106891	0.311341
H121	H	1.232025	-0.674477	0.330930
H122	H	0.242706	0.674414	1.679764
Br123	Br	0.287551	-0.138827	1.479763
H124	H	0.177645	0.082230	1.201010
Br125	Br	1.270275	-0.726661	1.005471
H126	H	0.520302	0.081968	0.731166
H127	H	1.040110	-0.519685	0.898557
Br128	Br	1.187164	0.138727	0.530931
H129	H	0.306651	0.694052	1.485745
H130	H	1.040088	-0.305989	1.112206
Br131	Br	1.270315	-0.000066	0.278803
Br132	Br	0.487459	0.063779	0.584067
H133	H	1.168069	-0.694113	0.524953
H134	H	1.040114	-0.106889	0.485745
H135	H	0.434610	-0.106848	1.311259
Br136	Br	0.453712	0.525503	1.253234
Br137	Br	0.204416	0.726680	1.005300
Br138	Br	0.453757	0.247870	1.530774
Br139	Br	0.533760	0.525440	1.144069
Br140	Br	0.287495	0.138756	1.757421
H141	H	0.434577	0.106822	1.524949
Br142	Br	0.487416	0.276881	0.767271
Br143	Br	0.975025	0.240140	0.953277
Br144	Br	0.182392	-0.148416	1.153503
H145	H	0.894041	-0.106857	0.485765
Br146	Br	0.974904	0.435806	0.733459
H147	H	1.168043	-0.694109	0.898611
Br148	Br	0.940938	-0.138803	0.253268
Br149	Br	0.453746	0.525445	1.144109
H150	H	0.306693	0.694023	1.112126
H151	H	1.168002	-0.480393	1.112253
H152	H	0.297080	-0.082272	0.809606
H153	H	0.306697	0.480345	1.699328
H154	H	0.093238	0.195685	1.087528
H155	H	0.580644	0.694020	1.112139
Br156	Br	0.287491	0.474588	0.866517
H157	H	0.434571	0.305964	0.898486
Br158	Br	1.187158	-0.474530	0.253309
H159	H	1.040088	0.106771	0.699435
Br160	Br	0.987272	0.238011	0.728469
Br161	Br	1.020937	-0.247933	0.479920
H162	H	0.381487	-0.195872	0.922945
