data_functionalizedCrystal
_audit_creation_method	'MofGen! by Chris Wilmer'
_symmetry_space_group_name_H-M	'P1'
_symmetry_Int_Tables_number	1
_symmetry_cell_setting	triclinic
loop_
_symmetry_equiv_pos_as_xyz
  x,y,z
_cell_length_a	10.685727
_cell_length_b	10.686285
_cell_length_c	10.686551
_cell_angle_alpha	99.084519
_cell_angle_beta	99.074299
_cell_angle_gamma	80.939845
loop_
_atom_site_label
_atom_site_type_symbol
_atom_site_fract_x
_atom_site_fract_y
_atom_site_fract_z
Zn1	Zn	-2.038245	0.595594	-0.823884
Zn2	Zn	-1.704912	0.928927	-0.490550
Zn3	Zn	-1.371579	1.262261	-0.157217
Zn4	Zn	-2.038142	0.824167	-0.595374
Zn5	Zn	-1.704809	1.157500	-0.262041
Zn6	Zn	-1.371475	1.490833	0.071293
Zn7	Zn	-1.809683	0.595640	-0.595400
Zn8	Zn	-1.476350	0.928973	-0.262066
Zn9	Zn	-1.143016	1.262306	0.071267
Zn10	Zn	-1.840094	0.793653	-0.793501
Zn11	Zn	-1.506760	1.126986	-0.460167
Zn12	Zn	-1.173427	1.460320	-0.126834
O13	O	-1.931541	0.702263	-0.702040
O14	O	-1.598208	1.035597	-0.368706
O15	O	-1.264874	1.368930	-0.035373
O16	O	-2.216770	0.638666	-0.806276
O17	O	-1.883436	0.971999	-0.472943
O18	O	-1.550103	1.305332	-0.139610
O19	O	-1.995066	0.806641	-0.416839
O20	O	-1.661733	1.139974	-0.083506
O21	O	-1.328400	1.473308	0.249827
O22	O	-1.827318	0.417106	-0.638435
O23	O	-1.493985	0.750439	-0.305101
O24	O	-1.160652	1.083773	0.028232
O25	O	-2.216694	0.806597	-0.638391
O26	O	-1.883360	1.139930	-0.305058
O27	O	-1.550027	1.473264	0.028275
O28	O	-1.995242	0.417072	-0.806301
O29	O	-1.661909	0.750406	-0.472968
O30	O	-1.328575	1.083739	-0.139634
O31	O	-1.827218	0.638743	-0.416858
O32	O	-1.493885	0.972077	-0.083525
O33	O	-1.160552	1.305410	0.249808
O34	O	-1.635179	0.609156	-0.608973
O35	O	-1.301846	0.942489	-0.275640
O36	O	-0.968512	1.275822	0.057693
O37	O	-1.879149	0.754591	-0.976069
O38	O	-1.545816	1.087924	-0.642736
O39	O	-1.212482	1.421257	-0.309402
O40	O	-1.657522	0.754635	-0.754517
O41	O	-1.324188	1.087968	-0.421184
O42	O	-0.990855	1.421302	-0.087851
O43	O	-2.024730	0.609078	-0.998391
O44	O	-1.691397	0.942411	-0.665058
O45	O	-1.358063	1.275744	-0.331725
O46	O	-2.024554	0.998646	-0.608930
O47	O	-1.691221	1.331980	-0.275596
O48	O	-1.357888	1.665313	0.057737
O49	O	-1.879049	0.976228	-0.754492
O50	O	-1.545716	1.309562	-0.421159
O51	O	-1.212382	1.642895	-0.087826
C52	C	-1.600057	0.678590	-0.678452
C53	C	-1.266724	1.011923	-0.345118
C54	C	-0.933391	1.345257	-0.011785
C55	C	-1.458252	0.668491	-0.668389
C56	C	-1.124918	1.001824	-0.335056
C57	C	-0.791585	1.335158	-0.001722
C58	C	-1.955127	1.033728	-0.678442
C59	C	-1.621794	1.367061	-0.345108
C60	C	-1.288460	1.700395	-0.011775
C61	C	-1.965337	1.175535	-0.668397
C62	C	-1.632004	1.508869	-0.335064
C63	C	-1.298670	1.842202	-0.001731
C64	C	-1.955343	0.678425	-1.034818
C65	C	-1.622010	1.011759	-0.701484
C66	C	-1.288677	1.345092	-0.368151
C67	C	-1.965486	0.668267	-1.176628
C68	C	-1.632153	1.001600	-0.843294
C69	C	-1.298820	1.334934	-0.509961
C70	C	-1.264318	0.726016	-0.725715
C71	C	-0.930984	1.059350	-0.392381
C72	C	-0.597651	1.392683	-0.059048
C73	C	-1.406123	0.736103	-0.735789
C74	C	-1.072790	1.069437	-0.402456
C75	C	-0.739457	1.402770	-0.069122
C76	C	-1.907900	0.369505	-0.725760
C77	C	-1.574566	0.702838	-0.392427
C78	C	-1.241233	1.036171	-0.059093
C79	C	-1.897825	0.227703	-0.735868
C80	C	-1.564492	0.561036	-0.402535
C81	C	-1.231158	0.894369	-0.069201
C82	C	-1.907898	0.725922	-0.370568
C83	C	-1.574565	1.059255	-0.037235
C84	C	-1.241231	1.392588	0.296099
C85	C	-1.897977	0.735738	-0.228802
C86	C	-1.564643	1.069071	0.104532
C87	C	-1.231310	1.402405	0.437865
H88	H	-1.394388	0.602871	-0.602985
H89	H	-1.061055	0.936205	-0.269652
H90	H	-0.727722	1.269538	0.063681
H91	H	-1.832422	0.801278	-1.164981
H92	H	-1.499089	1.134611	-0.831648
H93	H	-1.165756	1.467945	-0.498314
H94	H	-1.832215	1.163880	-0.801319
H95	H	-1.498882	1.497213	-0.467986
H96	H	-1.165549	1.830547	-0.134652
H97	H	-2.030942	1.239366	-0.602934
H98	H	-1.697608	1.572700	-0.269600
H99	H	-1.364275	1.906033	0.063733
H100	H	-2.031055	0.602732	-1.240455
H101	H	-1.697721	0.936066	-0.907122
H102	H	-1.364388	1.269399	-0.573789
H103	H	-1.469980	0.801707	-0.801200
H104	H	-1.136646	1.135040	-0.467867
H105	H	-0.803313	1.468374	-0.134534
