data_functionalizedCrystal
_audit_creation_method	'MofGen! by Chris Wilmer'
_symmetry_space_group_name_H-M	'P1'
_symmetry_Int_Tables_number	1
_symmetry_cell_setting	triclinic
loop_
_symmetry_equiv_pos_as_xyz
  x,y,z
_cell_length_a	21.395364
_cell_length_b	14.908520
_cell_length_c	14.908748
_cell_angle_alpha	89.821209
_cell_angle_beta	93.303344
_cell_angle_gamma	93.335646
loop_
_atom_site_label
_atom_site_type_symbol
_atom_site_fract_x
_atom_site_fract_y
_atom_site_fract_z
Zn1	Zn	0.965833	-0.328428	0.529050
Zn2	Zn	1.299166	0.004905	0.862383
Zn3	Zn	1.632500	0.338239	1.195717
Zn4	Zn	0.953728	-0.487437	0.387359
Zn5	Zn	1.287061	-0.154104	0.720692
Zn6	Zn	1.620394	0.179229	1.054026
Zn7	Zn	0.854703	-0.337131	0.378705
Zn8	Zn	1.188037	-0.003798	0.712038
Zn9	Zn	1.521370	0.329536	1.045372
Zn10	Zn	0.855350	-0.478792	0.537674
Zn11	Zn	1.188684	-0.145458	0.871007
Zn12	Zn	1.522017	0.187875	1.204341
O13	O	0.907404	-0.407947	0.458197
O14	O	1.240737	-0.074614	0.791530
O15	O	1.574070	0.258720	1.124864
O16	O	1.051906	-0.349497	0.510267
O17	O	1.385240	-0.016164	0.843600
O18	O	1.718573	0.317170	1.176934
O19	O	0.935255	-0.474759	0.260384
O20	O	1.268588	-0.141426	0.593717
O21	O	1.601922	0.191907	0.927050
O22	O	0.874240	-0.210145	0.391418
O23	O	1.207573	0.123189	0.724751
O24	O	1.540907	0.456522	1.058085
O25	O	1.043013	-0.466320	0.406167
O26	O	1.376346	-0.132987	0.739500
O27	O	1.709679	0.200346	1.072834
O28	O	0.955887	-0.203751	0.501876
O29	O	1.289220	0.129583	0.835209
O30	O	1.622553	0.462916	1.168542
O31	O	0.862502	-0.364330	0.254026
O32	O	1.195835	-0.030996	0.587359
O33	O	1.529169	0.302337	0.920692
O34	O	0.767110	-0.355946	0.399780
O35	O	1.100443	-0.022613	0.733113
O36	O	1.433776	0.310720	1.066447
O37	O	0.875343	-0.451585	0.662357
O38	O	1.208677	-0.118252	0.995691
O39	O	1.542010	0.215081	1.329024
O40	O	0.767585	-0.460024	0.516574
O41	O	1.100919	-0.126691	0.849907
O42	O	1.434252	0.206642	1.183240
O43	O	0.956514	-0.341114	0.656021
O44	O	1.289847	-0.007780	0.989355
O45	O	1.623181	0.325553	1.322688
O46	O	0.935882	-0.612122	0.414529
O47	O	1.269216	-0.278789	0.747863
O48	O	1.602549	0.054544	1.081196
O49	O	0.863605	-0.605770	0.524965
O50	O	1.196939	-0.272437	0.858298
O51	O	1.530272	0.060896	1.191632
C52	C	0.744613	-0.407992	0.458174
C53	C	1.077947	-0.074659	0.791508
C54	C	1.411280	0.258674	1.124841
C55	C	0.674971	-0.408032	0.458187
C56	C	1.008304	-0.074699	0.791520
C57	C	1.341638	0.258635	1.124854
C58	C	0.646911	-0.347291	0.512486
C59	C	0.980245	-0.013958	0.845820
C60	C	1.313578	0.319376	1.179153
C61	C	0.581477	-0.347267	0.512488
C62	C	0.914810	-0.013934	0.845822
C63	C	1.248144	0.319400	1.179155
C64	C	0.544104	-0.407999	0.458202
C65	C	0.877438	-0.074666	0.791535
C66	C	1.210771	0.258667	1.124868
C67	C	0.572171	-0.468745	0.403891
C68	C	0.905505	-0.135412	0.737225
C69	C	1.238838	0.197922	1.070558
C70	C	0.637605	-0.468761	0.403884
C71	C	0.970938	-0.135428	0.737218
C72	C	1.304271	0.197905	1.070551
C73	C	0.437025	-0.489393	0.455645
C74	C	0.770358	-0.156060	0.788979
C75	C	1.103691	0.177274	1.122312
C76	C	0.371593	-0.489378	0.455659
C77	C	0.704926	-0.156044	0.788992
C78	C	1.038259	0.177289	1.122326
C79	C	0.342286	-0.407949	0.458219
C80	C	0.675620	-0.074615	0.791552
C81	C	1.008953	0.258718	1.124885
C82	C	0.378421	-0.326531	0.460784
C83	C	0.711754	0.006802	0.794117
C84	C	1.045088	0.340136	1.127450
C85	C	0.443854	-0.326547	0.460776
C86	C	0.777187	0.006786	0.794110
C87	C	1.110521	0.340119	1.127443
C88	C	0.473153	-0.407988	0.458203
C89	C	0.806486	-0.074655	0.791536
C90	C	1.139819	0.258679	1.124870
C91	C	0.243276	-0.347176	0.512523
C92	C	0.576609	-0.013843	0.845856
C93	C	0.909942	0.319490	1.179190
C94	C	0.177840	-0.347151	0.512519
C95	C	0.511173	-0.013818	0.845852
C96	C	0.844507	0.319516	1.179185
C97	C	0.168536	-0.468637	0.403927
C98	C	0.501869	-0.135304	0.737260
C99	C	0.835202	0.198030	1.070594
C100	C	0.233970	-0.468654	0.403926
C101	C	0.567304	-0.135321	0.737259
C102	C	0.900637	0.198012	1.070593
C103	C	0.271337	-0.407925	0.458229
C104	C	0.604670	-0.074592	0.791562
C105	C	0.938003	0.258741	1.124896
C106	C	0.898518	-0.641572	0.471642
C107	C	1.231852	-0.308238	0.804975
C108	C	1.565185	0.025095	1.138308
C109	C	0.894776	-0.741516	0.477423
C110	C	1.228109	-0.408182	0.810757
C111	C	1.561442	-0.074849	1.144090
C112	C	0.963092	-0.935869	0.373384
C113	C	1.296425	-0.602535	0.706717
C114	C	1.629758	-0.269202	1.040050
C115	C	0.959577	-1.029775	0.378813
C116	C	1.292911	-0.696442	0.712147
C117	C	1.626244	-0.363109	1.045480
C118	C	0.884236	-1.023236	0.493716
C119	C	1.217569	-0.689903	0.827049
C120	C	1.550903	-0.356570	1.160382
C121	C	0.887751	-0.929330	0.488286
C122	C	1.221084	-0.595997	0.821620
C123	C	1.554417	-0.262663	1.154953
C124	C	0.927179	-0.885650	0.428117
C125	C	1.260512	-0.552316	0.761451
C126	C	1.593846	-0.218983	1.094784
C127	C	0.930690	-0.791742	0.422684
C128	C	1.264023	-0.458408	0.756017
C129	C	1.597356	-0.125075	1.089350
C130	C	0.855352	-0.785205	0.537590
C131	C	1.188686	-0.451871	0.870924
C132	C	1.522019	-0.118538	1.204257
C133	C	0.851838	-0.879111	0.543020
C134	C	1.185171	-0.545778	0.876353
C135	C	1.518505	-0.212444	1.209687
C136	C	1.070830	-0.407902	0.458220
C137	C	1.404163	-0.074569	0.791554
C138	C	1.737496	0.258764	1.124887
C139	C	1.140472	-0.407883	0.458230
C140	C	1.473805	-0.074550	0.791564
C141	C	1.807139	0.258784	1.124897
C142	C	0.917351	-0.394414	0.692727
C143	C	1.250685	-0.061081	1.026060
C144	C	1.584018	0.272252	1.359394
C145	C	0.921590	-0.388647	0.792670
C146	C	1.254924	-0.055314	1.126003
C147	C	1.588257	0.278019	1.459337
C148	C	0.916341	-0.173409	0.444720
C149	C	1.249675	0.159925	0.778053
C150	C	1.583008	0.493258	1.111386
C151	C	0.920150	-0.073463	0.438976
C152	C	1.253483	0.259871	0.772310
C153	C	1.586817	0.593204	1.105643
C154	C	0.969821	-0.323009	0.930237
C155	C	1.303155	0.010324	1.263571
C156	C	1.636488	0.343658	1.596904
C157	C	0.965842	-0.328424	0.836332
C158	C	1.299175	0.004909	1.169665
C159	C	1.632509	0.338243	1.502999
C160	C	0.881316	-0.443462	0.842920
C161	C	1.214650	-0.110129	1.176253
C162	C	1.547983	0.223205	1.509587
C163	C	0.885296	-0.438047	0.936825
C164	C	1.218629	-0.104714	1.270159
C165	C	1.551963	0.228620	1.603492
C166	C	0.929549	-0.377818	0.980481
C167	C	1.262883	-0.044484	1.313814
C168	C	1.596216	0.288849	1.647147
C169	C	0.933526	-0.372399	1.074387
C170	C	1.266859	-0.039065	1.407721
C171	C	1.600192	0.294268	1.741054
C172	C	0.849003	-0.487440	1.080974
C173	C	1.182337	-0.154107	1.414307
C174	C	1.515670	0.179226	1.747640
C175	C	0.845024	-0.492855	0.987068
C176	C	1.178357	-0.159522	1.320402
C177	C	1.511691	0.173811	1.653735
C178	C	0.897490	-0.421447	1.224580
C179	C	1.230823	-0.088114	1.557914
C180	C	1.564156	0.245220	1.891247
C181	C	0.893252	-0.427213	1.124637
C182	C	1.226585	-0.093880	1.457971
C183	C	1.559918	0.239454	1.791304
H184	H	0.558626	-0.297800	0.556704
H185	H	0.891960	0.035533	0.890037
H186	H	1.225293	0.368867	1.223370
C187	C	0.832645	-0.509709	0.794889
C188	C	1.165978	-0.176375	1.128222
C189	C	1.499312	0.156958	1.461555
H190	H	0.836044	-0.505079	0.731766
H191	H	1.169377	-0.171745	1.065100
H192	H	1.502710	0.161588	1.398433
H193	H	0.840163	-0.569236	0.813750
H194	H	1.173496	-0.235902	1.147084
H195	H	1.506829	0.097431	1.480417
H196	H	0.791697	-0.495668	0.809507
H197	H	1.125030	-0.162334	1.142840
H198	H	1.458363	0.170999	1.476173
C199	C	0.840876	-1.071291	0.559904
C200	C	1.174209	-0.737957	0.893238
C201	C	1.507542	-0.404624	1.226571
H202	H	0.819993	-1.027934	0.591733
H203	H	1.153326	-0.694600	0.925066
H204	H	1.486660	-0.361267	1.258400
H205	H	0.810765	-1.109976	0.527599
H206	H	1.144098	-0.776642	0.860932
H207	H	1.477431	-0.443309	1.194266
H208	H	0.865125	-1.105599	0.601231
H209	H	1.198459	-0.772266	0.934565
H210	H	1.531792	-0.438932	1.267898
C211	C	0.815849	-0.729962	0.597802
C212	C	1.149182	-0.396628	0.931136
C213	C	1.482515	-0.063295	1.264469
H214	H	0.823590	-0.667778	0.585957
H215	H	1.156923	-0.334444	0.919290
H216	H	1.490257	-0.001111	1.252623
H217	H	0.772620	-0.746190	0.585480
H218	H	1.105953	-0.412857	0.918814
H219	H	1.439287	-0.079523	1.252147
H220	H	0.826975	-0.741827	0.659121
H221	H	1.160309	-0.408493	0.992454
H222	H	1.493642	-0.075160	1.325788
H223	H	0.998636	-0.283794	0.795427
H224	H	1.331969	0.049540	1.128761
H225	H	1.665303	0.382873	1.462094
H226	H	0.808996	-0.541895	0.951511
H227	H	1.142329	-0.208561	1.284845
H228	H	1.475662	0.124772	1.618178
H229	H	0.541738	-0.518193	0.359690
H230	H	0.875072	-0.184860	0.693023
H231	H	1.208405	0.148474	1.026357
H232	H	0.969556	-0.323353	1.109930
H233	H	1.302889	0.009981	1.443263
H234	H	1.636223	0.343314	1.776596
C235	C	0.469255	-0.578971	0.452837
C236	C	0.802589	-0.245638	0.786170
C237	C	1.135922	0.087696	1.119503
H238	H	0.438366	-0.627456	0.451326
H239	H	0.771699	-0.294122	0.784659
H240	H	1.105033	0.039211	1.117992
H241	H	0.492613	-0.580743	0.400646
H242	H	0.825947	-0.247410	0.733979
H243	H	1.159280	0.085923	1.067312
H244	H	0.496664	-0.583981	0.504821
H245	H	0.829998	-0.250648	0.838155
H246	H	1.163331	0.082686	1.171488
H247	H	0.256816	-0.518120	0.359714
H248	H	0.590149	-0.184787	0.693047
H249	H	0.923483	0.148547	1.026380
C250	C	0.999075	-1.085018	0.318602
C251	C	1.332408	-0.751685	0.651935
C252	C	1.665742	-0.418351	0.985268
H253	H	0.991339	-1.147202	0.330454
H254	H	1.324672	-0.813868	0.663787
H255	H	1.658005	-0.480535	0.997121
H256	H	0.987952	-1.073148	0.257288
H257	H	1.321286	-0.739815	0.590621
H258	H	1.654619	-0.406482	0.923955
H259	H	1.042307	-1.068794	0.330930
H260	H	1.375641	-0.735460	0.664263
H261	H	1.708974	-0.402127	0.997596
C262	C	0.127437	-0.535441	0.344208
C263	C	0.460770	-0.202107	0.677541
C264	C	0.794103	0.131226	1.010874
H265	H	0.153523	-0.571617	0.311864
H266	H	0.486856	-0.238284	0.645198
H267	H	0.820189	0.095050	0.978531
H268	H	0.101865	-0.572686	0.380796
H269	H	0.435198	-0.239352	0.714129
H270	H	0.768531	0.093981	1.047462
H271	H	0.101571	-0.503225	0.303101
H272	H	0.434905	-0.169892	0.636435
H273	H	0.768238	0.163442	0.969768
C274	C	0.331849	-0.578929	0.452844
C275	C	0.665182	-0.245596	0.786178
C276	C	0.998515	0.087737	1.119511
H277	H	0.288683	-0.567259	0.453228
H278	H	0.622016	-0.233926	0.786562
H279	H	0.955349	0.099408	1.119895
H280	H	0.339138	-0.610760	0.399705
H281	H	0.672472	-0.277427	0.733038
H282	H	1.005805	0.055907	1.066372
H283	H	0.343200	-0.614013	0.503880
H284	H	0.676534	-0.280679	0.837214
H285	H	1.009867	0.052654	1.170547
C286	C	0.668471	-0.535587	0.344161
C287	C	1.001805	-0.202253	0.677494
C288	C	1.335138	0.131080	1.010828
H289	H	0.636845	-0.571758	0.311832
H290	H	0.970178	-0.238425	0.645165
H291	H	1.303511	0.094908	0.978499
H292	H	0.693658	-0.503397	0.303056
H293	H	1.026991	-0.170064	0.636389
H294	H	1.360325	0.163270	0.969723
H295	H	0.693949	-0.572848	0.380759
H296	H	1.027282	-0.239514	0.714092
H297	H	1.360616	0.093819	1.047426
C298	C	1.006458	-0.887818	0.307200
C299	C	1.339791	-0.554484	0.640533
C300	C	1.673124	-0.221151	0.973867
H301	H	1.027345	-0.931177	0.275381
H302	H	1.360678	-0.597843	0.608714
H303	H	1.694011	-0.264510	0.942048
H304	H	0.982218	-0.853499	0.265877
H305	H	1.315552	-0.520165	0.599210
H306	H	1.648885	-0.186832	0.932544
H307	H	1.036574	-0.849143	0.339518
H308	H	1.369907	-0.515810	0.672851
H309	H	1.703241	-0.182476	1.006184
C310	C	1.018495	-0.256760	0.978261
C311	C	1.351828	0.076573	1.311594
C312	C	1.685162	0.409907	1.644928
H313	H	1.041912	-0.224895	0.934888
H314	H	1.375245	0.108439	1.268221
H315	H	1.708579	0.441772	1.601555
H316	H	0.997572	-0.215479	1.012641
H317	H	1.330905	0.117855	1.345974
H318	H	1.664238	0.451188	1.679308
H319	H	1.046040	-0.289043	1.016872
H320	H	1.379374	0.044291	1.350206
H321	H	1.712707	0.377624	1.683539
C322	C	0.804708	-0.547741	1.136243
C323	C	1.138041	-0.214407	1.469577
C324	C	1.471375	0.118926	1.802910
H325	H	0.813418	-0.535897	1.198423
H326	H	1.146752	-0.202564	1.531757
H327	H	1.480085	0.130770	1.865090
H328	H	0.762457	-0.535489	1.120090
H329	H	1.095791	-0.202155	1.453424
H330	H	1.429124	0.131178	1.786757
H331	H	0.810932	-0.609044	1.124323
H332	H	1.144266	-0.275710	1.457657
H333	H	1.477599	0.057623	1.790990
H334	H	0.677331	-0.297840	0.556703
H335	H	1.010665	0.035494	0.890037
H336	H	1.343998	0.368827	1.223370
C337	C	0.974061	-0.743694	0.356505
C338	C	1.307394	-0.410361	0.689838
C339	C	1.640728	-0.077027	1.023172
H340	H	0.994951	-0.787055	0.324693
H341	H	1.328284	-0.453722	0.658026
H342	H	1.661617	-0.120389	0.991360
H343	H	0.949827	-0.709375	0.315176
H344	H	1.283160	-0.376042	0.648509
H345	H	1.616493	-0.042709	0.981842
H346	H	1.004175	-0.705019	0.388827
H347	H	1.337508	-0.371686	0.722161
H348	H	1.670842	-0.038352	1.055494
H349	H	0.819738	-0.914688	0.592010
H350	H	1.153072	-0.581355	0.925343
H351	H	1.486405	-0.248022	1.258677
H352	H	0.154996	-0.297683	0.556734
H353	H	0.488329	0.035650	0.890067
H354	H	0.821662	0.368983	1.223400
H355	H	0.473272	-0.260255	0.462862
H356	H	0.806605	0.073079	0.796195
H357	H	1.139939	0.406412	1.129529
H358	H	0.273701	-0.297722	0.556734
H359	H	0.607034	0.035612	0.890067
H360	H	0.940368	0.368945	1.223400
C361	C	0.346193	-0.236954	0.463603
C362	C	0.679527	0.096379	0.796936
C363	C	1.012860	0.429712	1.130270
H364	H	0.302049	-0.248601	0.463231
H365	H	0.635382	0.084732	0.796564
H366	H	0.968715	0.418066	1.129898
H367	H	0.360347	-0.205131	0.516740
H368	H	0.693680	0.128202	0.850073
H369	H	1.027014	0.461536	1.183407
H370	H	0.356294	-0.201875	0.412565
H371	H	0.689627	0.131459	0.745898
H372	H	1.022960	0.464792	1.079232
