data_functionalizedCrystal
_audit_creation_method	'MofGen! by Chris Wilmer'
_symmetry_space_group_name_H-M	'P1'
_symmetry_Int_Tables_number	1
_symmetry_cell_setting	triclinic
loop_
_symmetry_equiv_pos_as_xyz
  x,y,z
_cell_length_a	8.597340
_cell_length_b	8.597304
_cell_length_c	14.048226
_cell_angle_alpha	82.293729
_cell_angle_beta	97.695678
_cell_angle_gamma	86.359595
loop_
_atom_site_label
_atom_site_type_symbol
_atom_site_fract_x
_atom_site_fract_y
_atom_site_fract_z
O1	O	2.085993	0.234297	0.072720
O2	O	1.629345	0.252275	0.033790
O3	O	1.866654	0.014956	0.072721
O4	O	1.848684	0.471616	0.033790
O5	O	1.866624	0.014941	0.231041
O6	O	1.629316	0.252260	0.192110
O7	O	2.085963	0.234283	0.231040
Zn8	Zn	1.857635	0.243269	0.236712
Zn9	Zn	1.857673	0.243288	0.028118
O10	O	1.848655	0.471602	0.192110
C11	C	1.570830	0.250337	0.108310
C12	C	1.396519	0.244567	0.094486
C13	C	1.864708	-0.043553	0.156519
C14	C	1.858936	-0.217869	0.170338
C15	C	2.144478	0.236220	0.156518
C16	C	2.318789	0.241990	0.170336
C17	C	1.850600	0.530110	0.108309
C18	C	1.856373	0.704427	0.094484
N19	N	1.857620	0.243255	0.379073
N20	N	1.857700	0.243290	-0.114240
C21	C	1.962734	0.138215	0.446128
C22	C	1.962745	0.138214	0.545787
C23	C	1.857648	0.243262	0.578388
C24	C	1.752522	0.348308	0.511324
C25	C	1.752505	0.348299	0.411667
C26	C	1.752567	0.348320	0.719041
C27	C	1.752586	0.348330	0.818704
C28	C	1.962808	0.138234	0.853160
C29	C	1.962791	0.138226	0.753504
C30	C	1.857666	0.243274	0.686447
H31	H	1.385596	0.244186	0.245856
O32	O	1.316721	0.242217	0.004377
C33	C	1.115868	0.371696	-0.122732
C34	C	1.206143	0.374569	-0.020688
H35	H	1.026422	0.478672	-0.143020
H36	H	1.202339	0.374665	-0.177667
H37	H	1.051935	0.259540	-0.123024
H38	H	1.270081	0.486706	-0.020301
H39	H	1.119597	0.371516	0.034202
H40	H	2.048336	0.052681	0.600384
O41	O	1.858783	-0.215678	0.004406
C42	C	1.729148	-0.014967	-0.122749
C43	C	1.726274	-0.105303	-0.020710
H44	H	1.622010	0.074268	-0.143095
H45	H	1.841170	0.049175	-0.123129
H46	H	1.726345	-0.101562	-0.177595
H47	H	1.729018	-0.018815	0.034194
H48	H	1.614261	-0.169470	-0.020411
H49	H	1.856696	-0.284707	0.245860
O50	O	2.064886	0.036019	0.414629
C51	C	2.273454	-0.172310	0.459335
C52	C	2.157829	-0.056674	0.495135
H53	H	2.348651	-0.247259	0.524405
H54	H	2.204556	-0.251925	0.413599
H55	H	2.352832	-0.103260	0.413484
H56	H	2.078423	-0.125596	0.541025
H57	H	2.226824	0.022941	0.540819
O58	O	2.064939	0.036036	0.721998
C59	C	2.273514	-0.172289	0.766684
C60	C	2.157894	-0.056664	0.802497
H61	H	2.348721	-0.247243	0.831749
H62	H	2.204612	-0.251900	0.720948
H63	H	2.352883	-0.103231	0.720831
H64	H	2.078498	-0.125593	0.848389
H65	H	2.226894	0.022948	0.848181
H66	H	2.048402	0.052701	0.907765
H67	H	1.667003	0.433870	0.845241
H68	H	1.666959	0.433856	0.664444
H69	H	1.666942	0.433835	0.537873
H70	H	1.666908	0.433832	0.357070
