data_functionalizedCrystal
_audit_creation_method	'MofGen! by Chris Wilmer'
_symmetry_space_group_name_H-M	'P1'
_symmetry_Int_Tables_number	1
_symmetry_cell_setting	triclinic
loop_
_symmetry_equiv_pos_as_xyz
  x,y,z
_cell_length_a	12.759401
_cell_length_b	21.295416
_cell_length_c	21.295420
_cell_angle_alpha	89.984921
_cell_angle_beta	90.012332
_cell_angle_gamma	89.970624
loop_
_atom_site_label
_atom_site_type_symbol
_atom_site_fract_x
_atom_site_fract_y
_atom_site_fract_z
Zn1	Zn	1.606077	0.250722	0.355869
Zn2	Zn	1.605942	0.355967	0.250599
Zn3	Zn	1.430398	0.250714	0.250620
Zn4	Zn	1.430319	0.355956	0.355837
O5	O	1.518184	0.303340	0.303231
O6	O	1.753080	0.264692	0.341910
O7	O	1.582632	0.342006	0.162513
O8	O	1.453791	0.162625	0.264604
O9	O	1.752981	0.342014	0.264569
O10	O	1.582861	0.162632	0.341930
O11	O	1.453661	0.264677	0.162528
O12	O	1.283366	0.264666	0.264572
O13	O	1.453657	0.341996	0.443930
O14	O	1.283309	0.341987	0.341875
O15	O	1.582785	0.264681	0.443954
O16	O	1.582556	0.444055	0.264537
O17	O	1.453527	0.444047	0.341854
C18	C	1.245217	0.303325	0.303223
C19	C	1.128440	0.303334	0.303234
C20	C	1.073622	0.263148	0.343568
C21	C	0.963898	0.263160	0.343572
C22	C	0.963819	0.343549	0.262906
C23	C	1.073541	0.343533	0.262899
C24	C	1.073667	0.216738	0.390142
C25	C	0.963943	0.216750	0.390146
C26	C	1.518047	0.466891	0.303204
C27	C	1.518085	0.536859	0.303213
C28	C	1.585330	0.569709	0.262996
C29	C	1.585380	0.635452	0.263013
C30	C	1.518165	0.668342	0.303240
C31	C	1.450915	0.635484	0.343465
C32	C	1.450875	0.569743	0.343451
N33	N	1.426257	0.771608	0.308041
N34	N	1.426299	0.834059	0.308050
C35	C	1.518284	0.866417	0.303285
N36	N	1.610228	0.833963	0.298498
N37	N	1.610186	0.771506	0.298485
C38	C	1.518202	0.739627	0.303260
C39	C	1.585588	0.970552	0.263085
C40	C	1.585640	1.036296	0.263106
C41	C	1.451166	1.036327	0.343554
C42	C	1.451124	0.970584	0.343536
C43	C	1.518334	0.937701	0.303298
C44	C	1.792217	0.303355	0.303241
C45	C	1.908994	0.303362	0.303244
C46	C	1.518351	1.139149	0.303284
C47	C	1.518426	1.069181	0.303334
C48	C	1.518228	0.303338	0.467422
C49	C	1.518246	0.303337	0.537390
C50	C	1.451101	0.263075	0.570254
C51	C	1.451082	0.263079	0.635997
C52	C	1.518227	0.303338	0.668872
C53	C	1.585377	0.343608	0.636000
C54	C	1.585387	0.343608	0.570258
N55	N	1.610172	0.308170	0.772108
N56	N	1.610159	0.308166	0.834559
C57	C	1.518200	0.303341	0.866947
N58	N	1.426250	0.298507	0.834524
N59	N	1.426264	0.298508	0.772067
C60	C	1.518223	0.303342	0.740158
C61	C	1.451028	0.263080	0.971097
C62	C	1.451007	0.263088	1.036841
C63	C	1.585311	0.343614	1.036842
C64	C	1.585323	0.343609	0.971100
C65	C	1.518183	0.303339	0.938231
C66	C	1.518142	0.303353	1.139680
C67	C	1.518151	0.303348	1.069712
H68	H	1.107716	0.234270	0.436418
O69	O	1.132662	0.386871	0.219388
H70	H	1.218183	0.380103	0.226153
O71	O	0.924507	0.234158	0.454691
H72	H	0.992217	0.242678	0.486285
O73	O	1.378581	0.219657	1.072288
H74	H	1.389843	0.226426	1.123525
H75	H	1.640318	0.943777	0.230322
H76	H	1.640059	0.542938	0.230234
H77	H	1.639984	0.376392	1.063609
H78	H	1.640143	0.662203	0.230264
H79	H	1.396190	0.662267	0.376219
H80	H	1.396114	0.542996	0.376201
H81	H	0.929926	0.170411	0.372774
H82	H	1.640069	0.376393	0.543500
H83	H	1.103458	0.167959	0.377172
H84	H	1.640003	0.376394	0.944341
H85	H	1.396357	0.230290	0.944334
O86	O	0.904609	0.386908	0.219405
H87	H	0.819102	0.380170	0.226186
O88	O	1.658170	1.071732	0.219726
H89	H	1.704887	1.037819	0.191742
O90	O	1.378684	0.219640	0.534810
H91	H	1.325203	0.247804	0.504836
H92	H	1.396443	1.063105	0.376310
O93	O	1.378567	0.935146	0.386896
H94	H	1.331824	0.969060	0.414865
O95	O	1.378668	0.219646	0.671457
H96	H	1.331990	0.191641	0.637556
H97	H	1.640046	0.376387	0.662771
