data_functionalizedCrystal
_audit_creation_method	'MofGen! by Chris Wilmer'
_symmetry_space_group_name_H-M	'P1'
_symmetry_Int_Tables_number	1
_symmetry_cell_setting	triclinic
loop_
_symmetry_equiv_pos_as_xyz
  x,y,z
_cell_length_a	27.435584
_cell_length_b	27.434948
_cell_length_c	27.431174
_cell_angle_alpha	60.005483
_cell_angle_beta	60.011353
_cell_angle_gamma	59.993028
loop_
_atom_site_label
_atom_site_type_symbol
_atom_site_fract_x
_atom_site_fract_y
_atom_site_fract_z
O1	O	0.067437	-0.712144	0.595551
O2	O	0.567437	-0.212144	1.095551
O3	O	0.025356	-0.554453	0.479848
O4	O	0.525356	-0.054453	0.979848
O5	O	0.125206	-0.654236	0.479781
O6	O	0.625206	-0.154236	0.979781
O7	O	-0.032412	-0.612361	0.595618
O8	O	0.467588	-0.112361	1.095618
O9	O	0.158328	-0.621117	0.512835
O10	O	0.658328	-0.121117	1.012835
O11	O	0.058479	-0.521333	0.512902
O12	O	0.558479	-0.021333	1.012902
O13	O	0.100560	-0.679025	0.628605
O14	O	0.600560	-0.179025	1.128605
Zn15	Zn	0.084778	-0.594921	0.576001
Zn16	Zn	0.584778	-0.094921	1.076001
Zn17	Zn	0.041138	-0.638557	0.532452
Zn18	Zn	0.541138	-0.138557	1.032452
O19	O	0.000710	-0.579241	0.628672
O20	O	0.500710	-0.079241	1.128672
N21	N	0.114563	-0.565144	0.605726
N22	N	0.614563	-0.065144	1.105726
N23	N	0.011358	-0.668338	0.502727
N24	N	0.511358	-0.168338	1.002727
C25	C	0.156385	-0.523520	0.904506
C26	C	0.656385	-0.023520	1.404506
C27	C	0.413419	-0.523497	0.647322
C28	C	0.913419	-0.023497	1.147322
C29	C	0.156253	-0.523488	0.647384
C30	C	0.656253	-0.023488	1.147384
C31	C	0.156238	-0.266354	0.647407
C32	C	0.656238	0.233646	1.147407
C33	C	0.197637	-0.390463	0.688753
C34	C	0.697637	0.109537	1.188753
C35	C	0.197646	-0.482126	0.688741
C36	C	0.697646	0.017874	1.188741
C37	C	0.220575	-0.459215	0.711654
C38	C	0.720575	0.040785	1.211654
C39	C	0.320555	-0.441991	0.659023
C40	C	0.820555	0.058009	1.159023
C41	C	0.383051	-0.462825	0.638179
C42	C	0.883051	0.037175	1.138179
C43	C	0.383069	-0.563942	0.676737
C44	C	0.883069	-0.063942	1.176737
C45	C	0.320575	-0.543107	0.697583
C46	C	0.820575	-0.043107	1.197583
C47	C	0.212704	-0.359206	0.627313
C48	C	0.712704	0.140794	1.127313
C49	C	0.191849	-0.296705	0.606496
C50	C	0.691849	0.203295	1.106496
C51	C	0.140866	-0.296722	0.708562
C52	C	0.640866	0.203278	1.208562
C53	C	0.161721	-0.359223	0.729379
C54	C	0.661721	0.140777	1.229379
C55	C	0.136200	-0.467030	0.703858
C56	C	0.636200	0.032970	1.203858
C57	C	0.115361	-0.487857	0.683021
C58	C	0.615361	0.012143	1.183021
C59	C	0.217408	-0.538877	0.631968
C60	C	0.717408	-0.038877	1.131968
C61	C	0.238249	-0.518050	0.652796
C62	C	0.738249	-0.018050	1.152796
C63	C	0.136259	-0.467047	0.811668
C64	C	0.636259	0.032953	1.311668
C65	C	0.115461	-0.487892	0.874167
C66	C	0.615461	0.012108	1.374167
C67	C	0.217537	-0.538923	0.874131
C68	C	0.717537	-0.038923	1.374131
C69	C	0.238333	-0.518080	0.811631
C70	C	0.738333	-0.018080	1.311631
C71	C	0.197693	-0.482140	0.780401
C72	C	0.697693	0.017860	1.280401
C73	C	0.289320	-0.482131	0.688723
C74	C	0.789320	0.017869	1.188723
C75	C	0.132699	-0.546027	0.973247
C76	C	0.632699	-0.046027	1.473247
C77	C	0.482158	-0.545613	0.624075
C78	C	0.982158	-0.045613	1.124075
C79	C	0.132521	-0.546006	0.624886
C80	C	0.632521	-0.046006	1.124886
C81	C	0.132917	-0.197607	0.625310
C82	C	0.632917	0.302393	1.125310
C83	C	-0.098217	-0.686189	0.484419
C84	C	0.401783	-0.186189	0.984419
C85	C	-0.006438	-0.686322	0.392891
C86	C	0.493562	-0.186322	0.892891
C87	C	-0.006621	-0.777944	0.484592
C88	C	0.493379	-0.277944	0.984592
C89	C	-0.006606	-0.686315	0.484649
C90	C	0.493394	-0.186315	0.984649
C91	C	-0.029470	-0.709193	0.461638
C92	C	0.470530	-0.209193	0.961638
N93	N	0.538410	-0.565162	0.605628
N94	N	1.038410	-0.065162	1.105628
O95	O	0.742647	-0.575135	0.458625
O96	O	1.242647	-0.075135	0.958625
O97	O	0.742821	-0.691181	0.616169
O98	O	1.242821	-0.191181	1.116169
O99	O	0.742757	-0.690917	0.516248
O100	O	1.242757	-0.190917	1.016248
O101	O	0.742711	-0.575399	0.558546
O102	O	1.242711	-0.075399	1.058546
O103	O	0.643472	-0.657878	0.549405
O104	O	1.143472	-0.157878	1.049405
O105	O	0.643536	-0.658142	0.649326
O106	O	1.143536	-0.158142	1.149326
O107	O	0.643362	-0.542096	0.491782
O108	O	1.143362	-0.042096	0.991782
Zn109	Zn	0.627685	-0.594873	0.575818
Zn110	Zn	1.127685	-0.094873	1.075818
Zn111	Zn	0.758498	-0.638404	0.532133
Zn112	Zn	1.258498	-0.138404	1.032133
O113	O	0.643426	-0.542360	0.591702
O114	O	1.143426	-0.042360	1.091702
N115	N	0.847774	-0.668115	0.502317
N116	N	1.347774	-0.168115	1.002317
N117	N	0.114542	-0.141354	0.605766
N118	N	0.614542	0.358646	1.105766
O119	O	-0.032397	0.062987	0.595660
O120	O	0.467603	0.562987	1.095660
O121	O	0.125155	0.062987	0.479633
O122	O	0.625155	0.562987	0.979633
O123	O	0.025219	0.062974	0.479910
O124	O	0.525219	0.562974	0.979910
O125	O	0.067539	0.063001	0.595383
O126	O	0.567539	0.563001	1.095383
O127	O	0.058343	-0.036320	0.513009
O128	O	0.558343	0.463680	1.013009
O129	O	0.158279	-0.036306	0.512732
O130	O	0.658279	0.463694	1.012732
O131	O	0.000728	-0.036306	0.628759
O132	O	0.500728	0.463694	1.128759
Zn133	Zn	0.084763	-0.052071	0.576000
Zn134	Zn	0.584763	0.447929	1.076000
Zn135	Zn	0.041120	0.078752	0.532392
Zn136	Zn	0.541120	0.578752	1.032392
O137	O	0.100664	-0.036292	0.628482
O138	O	0.600664	0.463708	1.128482
N139	N	0.011333	0.168036	0.502628
N140	N	0.511333	0.668036	1.002628
N141	N	0.114782	-0.565197	1.029501
N142	N	0.614782	-0.065197	1.529501
O143	O	0.104681	-0.712124	1.233827
O144	O	0.604681	-0.212124	1.733827
O145	O	-0.011334	-0.554523	1.233839
O146	O	0.488666	-0.054523	1.733839
O147	O	-0.011066	-0.654443	1.233797
O148	O	0.488934	-0.154443	1.733797
O149	O	0.104414	-0.612204	1.233869
O150	O	0.604414	-0.112204	1.733869
O151	O	0.022028	-0.621336	1.134509
O152	O	0.522028	-0.121336	1.634509
O153	O	0.021760	-0.521417	1.134551
O154	O	0.521760	-0.021417	1.634551
O155	O	0.137775	-0.679018	1.134539
O156	O	0.637775	-0.179018	1.634539
Zn157	Zn	0.085022	-0.594961	1.118780
Zn158	Zn	0.585022	-0.094961	1.618780
Zn159	Zn	0.041420	-0.638580	1.249597
Zn160	Zn	0.541420	-0.138580	1.749597
O161	O	0.137508	-0.579098	1.134580
O162	O	0.637508	-0.079098	1.634580
N163	N	0.011658	-0.668350	1.338876
N164	N	0.511658	-0.168350	1.838876
C165	C	0.037974	-0.518023	0.480435
C166	C	0.537974	-0.018023	0.980435
C167	C	0.161625	-0.641592	0.480351
C168	C	0.661625	-0.141592	0.980351
C169	C	0.087941	-0.715455	0.628017
C170	C	0.587941	-0.215455	1.128017
C171	C	-0.035710	-0.591885	0.628101
C172	C	0.464290	-0.091885	1.128101
C173	C	0.693199	-0.690642	0.652596
C174	C	1.193199	-0.190642	1.152596
C175	C	0.693122	-0.690315	0.528855
C176	C	1.193122	-0.190315	1.028855
C177	C	0.692981	-0.542634	0.455356
C178	C	1.192981	-0.042634	0.955356
C179	C	0.693062	-0.542961	0.579095
C180	C	1.193062	-0.042961	1.079095
C181	C	0.161524	0.013463	0.480164
C182	C	0.661524	0.513463	0.980164
C183	C	0.037807	0.013324	0.480547
C184	C	0.537807	0.513324	0.980547
C185	C	-0.035683	0.013341	0.628188
C186	C	0.464317	0.513341	1.128188
C187	C	0.088076	0.013357	0.627845
C188	C	0.588076	0.513357	1.127845
C189	C	-0.010764	-0.518114	1.184196
C190	C	0.489236	-0.018114	1.684196
C191	C	-0.010426	-0.641846	1.184125
C192	C	0.489574	-0.141846	1.684125
C193	C	0.137205	-0.715426	1.184182
C194	C	0.637205	-0.215426	1.684182
C195	C	0.136875	-0.591687	1.184231
C196	C	0.636875	-0.091687	1.684231
H197	H	0.103160	-0.437777	0.786243
H198	H	0.603160	0.062223	1.286243
C199	C	-0.109942	-0.464721	1.235224
C200	C	0.390058	0.035279	1.735224
C201	C	-0.059938	-0.457012	1.184197
C202	C	0.440062	0.042988	1.684197
H203	H	-0.140301	-0.426998	1.235221
H204	H	0.359699	0.073002	1.735221
H205	H	-0.099096	-0.482581	1.269850
H206	H	0.400904	0.017419	1.769850
H207	H	-0.124347	-0.489803	1.235202
H208	H	0.375653	0.010197	1.735202
H209	H	-0.045531	-0.431933	1.184221
H210	H	0.454469	0.068067	1.684221
H211	H	-0.070785	-0.439143	1.149562
H212	H	0.429215	0.060857	1.649562
C213	C	-0.110587	-0.603135	1.184023
C214	C	0.389413	-0.103135	1.684023
C215	C	-0.059385	-0.654018	1.184041
C216	C	0.440615	-0.154018	1.684041
H217	H	-0.140812	-0.610652	1.183975
H218	H	0.359188	-0.110652	1.683975
H219	H	-0.101280	-0.570577	1.149419
H220	H	0.398720	-0.070577	1.649419
H221	H	-0.124398	-0.593674	1.218668
H222	H	0.375602	-0.093674	1.718668
H223	H	-0.045571	-0.663476	1.149394
H224	H	0.454429	-0.163476	1.649394
H225	H	-0.068692	-0.686585	1.218648
H226	H	0.431308	-0.186585	1.718648
H227	H	0.206895	-0.650521	0.443974
H228	H	0.706895	-0.150521	0.943974
H229	H	0.206679	0.013739	0.443646
H230	H	0.706679	0.513739	0.943646
C231	C	0.165126	-0.813488	1.184151
C232	C	0.665126	-0.313488	1.684151
C233	C	0.186379	-0.776528	1.184177
C234	C	0.686379	-0.276528	1.684177
H235	H	0.195484	-0.851210	1.184151
H236	H	0.695484	-0.351210	1.684151
H237	H	0.154285	-0.795619	1.149522
H238	H	0.654285	-0.295619	1.649522
H239	H	0.131201	-0.818708	1.218770
H240	H	0.631201	-0.318708	1.718770
H241	H	0.220302	-0.771305	1.149556
H242	H	0.720302	-0.271305	1.649556
H243	H	0.197229	-0.794401	1.218810
H244	H	0.697229	-0.294401	1.718810
C245	C	0.156296	-0.226406	0.523880
C246	C	0.656296	0.273594	1.023880
C247	C	0.208407	-0.262343	0.538957
C248	C	0.708407	0.237657	1.038957
H249	H	0.166520	-0.205196	0.482184
H250	H	0.666520	0.294804	0.982184
H251	H	0.131928	-0.198859	0.545093
H252	H	0.631928	0.301141	1.045093
H253	H	0.135103	-0.250795	0.534130
H254	H	0.635103	0.249205	1.034130
H255	H	0.229598	-0.237954	0.528711
H256	H	0.729598	0.262046	1.028711
H257	H	0.232785	-0.289893	0.517736
H258	H	0.732785	0.210107	1.017736
C259	C	0.237063	-0.630371	1.184251
C260	C	0.737063	-0.130371	1.684251
C261	C	0.185855	-0.579494	1.184250
C262	C	0.685855	-0.079494	1.684250
H263	H	0.267299	-0.622844	1.184266
H264	H	0.767299	-0.122844	1.684266
H265	H	0.250849	-0.639840	1.149623
H266	H	0.750849	-0.139840	1.649623
H267	H	0.227771	-0.662931	1.218871
H268	H	0.727771	-0.162931	1.718871
H269	H	0.195146	-0.546935	1.149628
H270	H	0.695146	-0.046935	1.649628
H271	H	0.172068	-0.570017	1.218882
H272	H	0.672068	-0.070017	1.718882
H273	H	0.096930	-0.760753	0.664356
H274	H	0.596930	-0.260753	1.164356
H275	H	-0.080982	-0.582959	0.664476
H276	H	0.419018	-0.082959	1.164476
H277	H	0.693242	-0.727072	0.697844
H278	H	1.193242	-0.227072	1.197844
H279	H	0.250633	-0.568176	0.899553
H280	H	0.750633	-0.068176	1.399553
H281	H	0.693140	-0.726605	0.519802
H282	H	1.193140	-0.226605	1.019802
H283	H	0.103135	-0.437780	0.733124
H284	H	0.603135	0.062220	1.233124
C285	C	0.016652	-0.435338	0.867915
C286	C	0.516652	0.064662	1.367915
C287	C	0.047926	-0.471288	0.908529
C288	C	0.547926	0.028712	1.408529
H289	H	-0.025040	-0.425086	0.889131
H290	H	0.474960	0.074914	1.389131
H291	H	0.026883	-0.456539	0.843539
H292	H	0.526883	0.043461	1.343539
H293	H	0.026897	-0.400004	0.843538
H294	H	0.526897	0.099996	1.343538
H295	H	0.037685	-0.506624	0.932903
H296	H	0.537685	-0.006624	1.432903
H297	H	0.037691	-0.450087	0.932916
H298	H	0.537691	0.049913	1.432916
C299	C	0.066202	-0.037738	0.415557
C300	C	0.566202	0.462262	0.915557
C301	C	0.025594	0.013309	0.431567
C302	C	0.525594	0.513309	0.931567
H303	H	0.058667	-0.037745	0.385314
H304	H	0.558667	0.462255	0.885314
H305	H	0.061756	-0.072353	0.449510
H306	H	0.561756	0.427647	0.949510
H307	H	0.105725	-0.037728	0.400978
H308	H	0.605725	0.462272	0.900978
H309	H	-0.013928	0.013297	0.446149
H310	H	0.486072	0.513297	0.946149
H311	H	0.030036	0.047933	0.397607
H312	H	0.530036	0.547933	0.897607
C313	C	0.337143	-0.570613	0.817877
C314	C	0.837143	-0.070613	1.317877
C315	C	0.305868	-0.534672	0.777264
C316	C	0.805868	-0.034672	1.277264
H317	H	0.378835	-0.580853	0.796660
H318	H	0.878835	-0.080853	1.296660
H319	H	0.326911	-0.605949	0.842249
H320	H	0.826911	-0.105949	1.342249
H321	H	0.326901	-0.549407	0.842258
H322	H	0.826901	-0.049407	1.342258
H323	H	0.316106	-0.555880	0.752886
H324	H	0.816106	-0.055880	1.252886
H325	H	0.316105	-0.499330	0.752882
H326	H	0.816105	0.000670	1.252882
H327	H	0.097136	0.013366	0.664120
H328	H	0.597136	0.513366	1.164120
C329	C	0.016579	-0.435351	0.735596
C330	C	0.516579	0.064649	1.235596
C331	C	0.047819	-0.471274	0.699640
C332	C	0.547819	0.028726	1.199640
H333	H	-0.025118	-0.425118	0.745860
H334	H	0.474882	0.074882	1.245860
H335	H	0.026804	-0.400010	0.714397
H336	H	0.526804	0.099990	1.214397
H337	H	0.026858	-0.456567	0.770922
H338	H	0.526858	0.043433	1.270922
H339	H	0.037544	-0.450056	0.664312
H340	H	0.537544	0.049944	1.164312
H341	H	0.037590	-0.506620	0.720840
H342	H	0.537590	-0.006620	1.220840
H343	H	0.692924	-0.506199	0.410112
H344	H	1.192924	-0.006199	0.910112
C345	C	0.693092	-0.515482	0.649570
C346	C	1.193092	-0.015482	1.149570
C347	C	0.693041	-0.493969	0.591310
C348	C	1.193041	0.006031	1.091310
H349	H	0.693075	-0.485234	0.657111
H350	H	1.193075	0.014766	1.157111
H351	H	0.727737	-0.549416	0.653992
H352	H	1.227737	-0.049416	1.153992
H353	H	0.658491	-0.526376	0.677118
H354	H	1.158491	-0.026376	1.177118
H355	H	0.727645	-0.483079	0.563762
H356	H	1.227645	0.016921	1.063762
H357	H	0.658392	-0.460025	0.586883
H358	H	1.158392	0.039975	1.086883
C359	C	-0.141537	0.064397	0.657177
C360	C	0.358463	0.564397	1.157177
C361	C	-0.096765	0.013354	0.677366
C362	C	0.403235	0.513354	1.177366
H363	H	-0.179246	0.064408	0.687539
H364	H	0.320754	0.564408	1.187539
H365	H	-0.141491	0.064382	0.622536
H366	H	0.358509	0.564382	1.122536
H367	H	-0.134240	0.099019	0.647772
H368	H	0.365760	0.599019	1.147772
H369	H	-0.104060	-0.021268	0.686766
H370	H	0.395940	0.478732	1.186766
H371	H	-0.096812	0.013364	0.712017
H372	H	0.403188	0.513364	1.212017
C373	C	0.320374	-0.587216	0.583599
C374	C	0.820374	-0.087216	1.083599
C375	C	0.262043	-0.578366	0.592460
C376	C	0.762043	-0.078366	1.092460
H377	H	0.347930	-0.611592	0.559204
H378	H	0.847930	-0.111592	1.059204
H379	H	0.326395	-0.606304	0.621050
H380	H	0.826395	-0.106304	1.121050
H381	H	0.326360	-0.549751	0.564522
H382	H	0.826360	-0.049751	1.064522
H383	H	0.256056	-0.615831	0.611541
H384	H	0.756056	-0.115831	1.111541
H385	H	0.256020	-0.559279	0.555002
H386	H	0.756020	-0.059279	1.055002
H387	H	0.295144	-0.575796	0.721768
H388	H	0.795144	-0.075796	1.221768
C389	C	0.320850	-0.482525	0.604946
C390	C	0.820850	0.017475	1.104946
C391	C	0.305789	-0.534631	0.636189
C392	C	0.805789	-0.034631	1.136189
H393	H	0.362545	-0.492761	0.594692
H394	H	0.862545	0.007239	1.094692
H395	H	0.299642	-0.458156	0.629337
H396	H	0.799642	0.041844	1.129337
H397	H	0.310583	-0.461324	0.569613
H398	H	0.810583	0.038676	1.069613
H399	H	0.316052	-0.555830	0.671523
H400	H	0.816052	-0.055830	1.171523
H401	H	0.327004	-0.559009	0.611797
H402	H	0.827004	-0.059009	1.111797
C403	C	0.076745	-0.456647	0.380209
C404	C	0.576745	0.043353	0.880209
C405	C	0.025847	-0.456874	0.431375
C406	C	0.525847	0.043126	0.931375
H407	H	0.069258	-0.418895	0.349923
H408	H	0.569258	0.081105	0.849923
H409	H	0.086195	-0.486988	0.366473
H410	H	0.586195	0.013012	0.866473
H411	H	0.109299	-0.463895	0.389529
H412	H	0.609299	0.036105	0.889529
H413	H	-0.006706	-0.449631	0.422056
H414	H	0.493294	0.050369	0.922056
H415	H	0.016390	-0.426524	0.445113
H416	H	0.516390	0.073476	0.945113
C417	C	0.376816	-0.661803	0.716940
C418	C	0.876816	-0.161803	1.216940
C419	C	0.417430	-0.630968	0.686468
C420	C	0.917430	-0.130968	1.186468
H421	H	0.398030	-0.703181	0.722949
H422	H	0.898030	-0.203181	1.222949
H423	H	0.352426	-0.647141	0.694048
H424	H	0.852426	-0.147141	1.194048
H425	H	0.352455	-0.656005	0.754493
H426	H	0.852455	-0.156005	1.254493
H427	H	0.441789	-0.636763	0.648913
H428	H	0.941789	-0.136763	1.148913
H429	H	0.441831	-0.645636	0.709359
H430	H	0.941831	-0.145636	1.209359
H431	H	0.295112	-0.392340	0.651807
H432	H	0.795112	0.107660	1.151807
C433	C	0.402254	-0.376524	0.554339
C434	C	0.902254	0.123476	1.054339
C435	C	0.417386	-0.418702	0.605527
C436	C	0.917386	0.081298	1.105527
H437	H	0.423455	-0.349286	0.534180
H438	H	0.923455	0.150714	1.034180
H439	H	0.360566	-0.355392	0.565488
H440	H	0.860566	0.144608	1.065488
H441	H	0.412489	-0.396290	0.528630
H442	H	0.912489	0.103710	1.028630
H443	H	0.407147	-0.398935	0.631238
H444	H	0.907147	0.101065	1.131238
H445	H	0.459083	-0.439835	0.594379
H446	H	0.959083	0.060165	1.094379
C447	C	0.220889	-0.378441	0.546746
C448	C	0.720889	0.121559	1.046746
C449	C	0.252179	-0.393549	0.582661
C450	C	0.752179	0.106451	1.082661
H451	H	0.245259	-0.399647	0.519182
H452	H	0.745259	0.100353	1.019182
H453	H	0.210631	-0.336750	0.525555
H454	H	0.710631	0.163250	1.025555
H455	H	0.185561	-0.388690	0.571144
H456	H	0.685561	0.111310	1.071144
H457	H	0.287505	-0.383296	0.558263
H458	H	0.787505	0.116704	1.058263
H459	H	0.262445	-0.435250	0.603853
H460	H	0.762445	0.064750	1.103853
C461	C	0.092580	-0.303013	0.811543
C462	C	0.592580	0.196987	1.311543
C463	C	0.101391	-0.262379	0.753216
C464	C	0.601391	0.237621	1.253216
H465	H	0.068206	-0.281811	0.839110
H466	H	0.568206	0.218189	1.339110
H467	H	0.130047	-0.327385	0.817527
H468	H	0.630047	0.172615	1.317527
H469	H	0.073500	-0.327395	0.817550
H470	H	0.573500	0.172605	1.317550
H471	H	0.120475	-0.238000	0.747208
H472	H	0.620475	0.262000	1.247208
H473	H	0.063917	-0.237997	0.747230
H474	H	0.563917	0.262003	1.247230
H475	H	0.149444	-0.384673	0.779411
H476	H	0.649444	0.115327	1.279411
