data_functionalizedCrystal
_audit_creation_method	'MofGen! by Chris Wilmer'
_symmetry_space_group_name_H-M	'P1'
_symmetry_Int_Tables_number	1
_symmetry_cell_setting	triclinic
loop_
_symmetry_equiv_pos_as_xyz
  x,y,z
_cell_length_a	17.077404
_cell_length_b	29.839131
_cell_length_c	29.839135
_cell_angle_alpha	90.015469
_cell_angle_beta	90.013726
_cell_angle_gamma	90.041645
loop_
_atom_site_label
_atom_site_type_symbol
_atom_site_fract_x
_atom_site_fract_y
_atom_site_fract_z
Zn1	Zn	1.199909	-0.178924	0.254007
Zn2	Zn	1.699909	0.321076	0.754007
Zn3	Zn	1.199787	-0.254033	0.178877
Zn4	Zn	1.699787	0.245967	0.678877
Zn5	Zn	1.068654	-0.178918	0.178890
Zn6	Zn	1.568654	0.321082	0.678890
Zn7	Zn	1.068566	-0.254028	0.253978
Zn8	Zn	1.568566	0.245972	0.753978
O9	O	1.134229	-0.216475	0.216438
O10	O	1.634229	0.283525	0.716438
O11	O	1.309739	-0.188892	0.244048
O12	O	1.809739	0.311108	0.744048
O13	O	1.182377	-0.244068	0.116012
O14	O	1.682377	0.255932	0.616012
O15	O	1.086153	-0.116051	0.188871
O16	O	1.586153	0.383949	0.688871
O17	O	1.309650	-0.244074	0.188850
O18	O	1.809650	0.255926	0.688850
O19	O	1.182585	-0.116056	0.244060
O20	O	1.682585	0.383944	0.744060
O21	O	1.086034	-0.188882	0.116021
O22	O	1.586034	0.311118	0.616021
O23	O	0.958795	-0.188877	0.188844
O24	O	1.458795	0.311123	0.688844
O25	O	1.086003	-0.244065	0.316849
O26	O	1.586003	0.255935	0.816849
O27	O	0.958731	-0.244060	0.244011
O28	O	1.458731	0.255940	0.744011
O29	O	1.182500	-0.188887	0.316871
O30	O	1.682500	0.311113	0.816871
O31	O	1.182292	-0.316899	0.188822
O32	O	1.682292	0.183101	0.688822
O33	O	1.085885	-0.316895	0.243999
O34	O	1.585885	0.183105	0.743999
C35	C	0.930281	-0.216467	0.216426
C36	C	1.430281	0.283533	0.716426
C37	C	0.843031	-0.216475	0.216431
C38	C	1.343031	0.283525	0.716431
C39	C	0.802028	-0.245252	0.245111
C40	C	1.302028	0.254748	0.745111
C41	C	0.720047	-0.245253	0.245118
C42	C	1.220047	0.254747	0.745118
C43	C	0.679072	-0.216478	0.216443
C44	C	1.179072	0.283522	0.716443
C45	C	0.720081	-0.187698	0.187762
C46	C	1.220081	0.312302	0.687762
C47	C	0.802060	-0.187695	0.187757
C48	C	1.302060	0.312305	0.687757
C49	C	0.549211	-0.187707	0.187773
C50	C	1.049211	0.312293	0.687773
C51	C	0.467226	-0.187710	0.187777
C52	C	0.967226	0.312290	0.687777
C53	C	0.467198	-0.245264	0.245133
C54	C	0.967198	0.254736	0.745133
C55	C	0.549177	-0.245261	0.245129
C56	C	1.049177	0.254739	0.745129
C57	C	0.590181	-0.216482	0.216447
C58	C	1.090181	0.283518	0.716447
C59	C	1.134087	-0.333198	0.216416
C60	C	1.634087	0.166802	0.716416
C61	C	1.134098	-0.383132	0.216421
C62	C	1.634098	0.116868	0.716421
C63	C	1.184519	-0.692765	0.187750
C64	C	1.684519	-0.192765	0.687750
C65	C	1.184616	-0.880438	0.187767
C66	C	1.684616	-0.380438	0.687767
O67	O	1.227373	-0.904694	0.163372
O68	O	1.727373	-0.404694	0.663372
N69	N	1.134392	-0.903917	0.216472
N70	N	1.634392	-0.403917	0.716472
C71	C	1.084143	-0.880476	0.245177
C72	C	1.584143	-0.380476	0.745177
O73	O	1.041432	-0.904752	0.269596
O74	O	1.541432	-0.404752	0.769596
C75	C	1.084050	-0.692803	0.245161
C76	C	1.584050	-0.192803	0.745161
C77	C	1.134273	-0.669327	0.216451
C78	C	1.634273	-0.169327	0.716451
C79	C	1.234738	-0.669288	0.159042
C80	C	1.734738	-0.169288	0.659042
C81	C	1.234710	-0.622373	0.159037
C82	C	1.734710	-0.122373	0.659037
C83	C	1.184464	-0.598934	0.187738
C84	C	1.684464	-0.098934	0.687738
C85	C	1.134245	-0.622411	0.216445
C86	C	1.634245	-0.122411	0.716445
C87	C	1.033806	-0.669362	0.273868
C88	C	1.533806	-0.169362	0.773868
C89	C	1.033789	-0.622441	0.273862
C90	C	1.533789	-0.122441	0.773862
C91	C	1.084011	-0.598965	0.245152
C92	C	1.584011	-0.098965	0.745152
C93	C	1.083971	-0.552057	0.245141
C94	C	1.583971	-0.052057	0.745141
N95	N	1.134195	-0.528578	0.216436
N96	N	1.634195	-0.028578	0.716436
C97	C	1.184442	-0.552016	0.187735
C98	C	1.684442	-0.052016	0.687735
C99	C	1.084194	-0.979006	0.245182
C100	C	1.584194	-0.479006	0.745182
C101	C	1.084216	-1.025924	0.245186
C102	C	1.584216	-0.525924	0.745186
C103	C	1.184690	-1.025883	0.187776
C104	C	1.684690	-0.525883	0.687776
C105	C	1.184664	-0.978965	0.187771
C106	C	1.684664	-0.478965	0.687771
C107	C	1.134418	-0.955527	0.216477
C108	C	1.634418	-0.455527	0.716477
C109	C	1.184379	-0.453491	0.187724
C110	C	1.684379	0.046509	0.687724
C111	C	1.184345	-0.406571	0.187720
C112	C	1.684345	0.093429	0.687720
C113	C	1.083873	-0.406616	0.245130
C114	C	1.583873	0.093384	0.745130
C115	C	1.083905	-0.453531	0.245134
C116	C	1.583905	0.046469	0.745134
C117	C	1.134164	-0.476967	0.216429
C118	C	1.634164	0.023033	0.716429
O119	O	1.041242	-0.527772	0.269527
O120	O	1.541242	-0.027772	0.769527
O121	O	1.227159	-0.527731	0.163326
O122	O	1.727159	-0.027731	0.663326
C123	C	1.184547	-0.739681	0.187755
C124	C	1.684547	-0.239681	0.687755
C125	C	1.134328	-0.763157	0.216463
C126	C	1.634328	-0.263157	0.716463
C127	C	1.084082	-0.739719	0.245164
C128	C	1.584082	-0.239719	0.745164
C129	C	1.134350	-0.810075	0.216466
C130	C	1.634350	-0.310075	0.716466
C131	C	1.184597	-0.833514	0.187765
C132	C	1.684597	-0.333514	0.687765
C133	C	1.234821	-0.810034	0.159060
C134	C	1.734821	-0.310034	0.659060
C135	C	1.234794	-0.763119	0.159054
C136	C	1.734794	-0.263119	0.659054
C137	C	1.033857	-0.763198	0.273869
C138	C	1.533857	-0.263198	0.773869
C139	C	1.033888	-0.810114	0.273872
C140	C	1.533888	-0.310114	0.773872
C141	C	1.084135	-0.833552	0.245171
C142	C	1.584135	-0.333552	0.745171
C143	C	1.338973	-0.216484	0.216451
C144	C	1.838973	0.283516	0.716451
C145	C	1.426223	-0.216488	0.216456
C146	C	1.926223	0.283512	0.716456
C147	C	1.134256	-0.216476	0.333616
C148	C	1.634256	0.283524	0.833616
C149	C	1.134267	-0.216476	0.383551
C150	C	1.634267	0.283524	0.883551
C151	C	1.134392	-0.099297	0.216470
C152	C	1.634392	0.400703	0.716470
C153	C	1.134462	-0.049363	0.216484
C154	C	1.634462	0.450637	0.716484
C155	C	1.084060	-0.187743	0.693202
C156	C	1.584060	0.312257	1.193202
C157	C	1.084047	-0.187740	0.880875
C158	C	1.584047	0.312260	1.380875
O159	O	1.041364	-0.163318	0.905146
O160	O	1.541364	0.336682	1.405146
N161	N	1.134207	-0.216471	0.904336
N162	N	1.634207	0.283529	1.404336
C163	C	1.184371	-0.245207	0.880876
C164	C	1.684371	0.254793	1.380876
O165	O	1.227030	-0.269647	0.905137
O166	O	1.727030	0.230353	1.405137
C167	C	1.184379	-0.245211	0.693204
C168	C	1.684379	0.254789	1.193204
C169	C	1.134221	-0.216475	0.669745
C170	C	1.634221	0.283525	1.169745
C171	C	1.033905	-0.159009	0.669743
C172	C	1.533905	0.340991	1.169743
C173	C	1.033911	-0.159008	0.622828
C174	C	1.533911	0.340992	1.122828
C175	C	1.084073	-0.187741	0.599371
C176	C	1.584073	0.312259	1.099371
C177	C	1.134228	-0.216474	0.622830
C178	C	1.634228	0.283526	1.122830
C179	C	1.234538	-0.273949	0.669744
C180	C	1.734538	0.226051	1.169744
C181	C	1.234535	-0.273949	0.622823
C182	C	1.734535	0.226051	1.122823
C183	C	1.184376	-0.245212	0.599365
C184	C	1.684376	0.254788	1.099365
C185	C	1.184396	-0.245206	0.552457
C186	C	1.684396	0.254794	1.052457
N187	N	1.134235	-0.216475	0.528996
N188	N	1.634235	0.283525	1.028996
C189	C	1.084074	-0.187743	0.552453
C190	C	1.584074	0.312257	1.052453
C191	C	1.184364	-0.245202	0.979406
C192	C	1.684364	0.254798	1.479406
C193	C	1.184364	-0.245200	1.026324
C194	C	1.684364	0.254800	1.526324
C195	C	1.084038	-0.187734	1.026320
C196	C	1.584038	0.312266	1.526320
C197	C	1.084043	-0.187733	0.979402
C198	C	1.584043	0.312267	1.479402
C199	C	1.134204	-0.216471	0.955945
C200	C	1.634204	0.283529	1.455945
C201	C	1.084092	-0.187743	0.453927
C202	C	1.584092	0.312257	0.953927
C203	C	1.084106	-0.187743	0.407008
C204	C	1.584106	0.312257	0.907008
C205	C	1.184428	-0.245211	0.407016
C206	C	1.684428	0.254789	0.907016
C207	C	1.184418	-0.245209	0.453931
C208	C	1.684418	0.254791	0.953931
C209	C	1.134243	-0.216474	0.477386
C210	C	1.634243	0.283526	0.977386
O211	O	1.227050	-0.269619	0.528157
O212	O	1.727050	0.230381	1.028157
O213	O	1.041409	-0.163313	0.528184
O214	O	1.541409	0.336687	1.028184
C215	C	1.084053	-0.187743	0.740117
C216	C	1.584053	0.312257	1.240117
C217	C	1.134208	-0.216477	0.763576
C218	C	1.634208	0.283523	1.263576
C219	C	1.184369	-0.245209	0.740119
C220	C	1.684369	0.254791	1.240119
C221	C	1.134207	-0.216475	0.810494
C222	C	1.634207	0.283525	1.310494
C223	C	1.084045	-0.187742	0.833951
C224	C	1.584045	0.312258	1.333951
C225	C	1.033885	-0.159011	0.810490
C226	C	1.533885	0.340989	1.310490
C227	C	1.033891	-0.159011	0.763574
C228	C	1.533891	0.340989	1.263574
C229	C	1.234530	-0.273940	0.763580
C230	C	1.734530	0.226060	1.263580
C231	C	1.234520	-0.273939	0.810496
C232	C	1.734520	0.226061	1.310496
C233	C	1.184358	-0.245206	0.833952
C234	C	1.684358	0.254794	1.333952
C235	C	1.134201	-0.216481	1.099716
C236	C	1.634201	0.283519	1.599716
C237	C	1.134202	-0.216467	1.049781
C238	C	1.634202	0.283533	1.549781
H239	H	0.686712	-0.164268	0.164416
H240	H	1.186712	0.335732	0.664416
H241	H	1.275372	-0.297338	0.829592
H242	H	1.775372	0.202662	1.329592
Cl243	Cl	1.247856	-1.055357	0.151694
Cl244	Cl	1.747856	-0.555357	0.651694
H245	H	1.225270	-0.268603	0.387909
H246	H	1.725270	0.231397	0.887909
Cl247	Cl	1.297599	-0.310064	0.734099
Cl248	Cl	1.797599	0.189936	1.234099
Cl249	Cl	0.415652	-0.281438	0.281196
Cl250	Cl	0.915652	0.218562	0.781196
H251	H	0.835443	-0.164260	0.164406
H252	H	1.335443	0.335740	0.664406
H253	H	0.686666	-0.268686	0.268471
H254	H	1.186666	0.231314	0.768471
H255	H	1.043276	-0.959926	0.268559
H256	H	1.543276	-0.459926	0.768559
H257	H	0.433866	-0.164275	0.164432
H258	H	0.933866	0.335725	0.664432
H259	H	0.992984	-0.829225	0.297251
H260	H	1.492984	-0.329225	0.797251
H261	H	1.043012	-0.472647	0.268513
H262	H	1.543012	0.027353	0.768513
Cl263	Cl	0.970675	-0.698865	0.309968
Cl264	Cl	1.470675	-0.198865	0.809968
Cl265	Cl	0.600689	-0.281438	0.281175
Cl266	Cl	1.100689	0.218562	0.781175
Cl267	Cl	1.021067	-1.055432	0.281274
Cl268	Cl	1.521067	-0.555432	0.781274
Cl269	Cl	1.247486	-0.377060	0.151625
Cl270	Cl	1.747486	0.122940	0.651625
H271	H	0.992941	-0.744118	0.297242
H272	H	1.492941	-0.244118	0.797242
H273	H	1.225216	-0.268595	1.045420
H274	H	1.725216	0.231405	1.545420
Cl275	Cl	0.600756	-0.151526	0.151715
Cl276	Cl	1.100756	0.348474	0.651715
H277	H	0.992874	-0.603361	0.297240
H278	H	1.492874	-0.103361	0.797240
Cl279	Cl	1.021046	-0.151614	0.377520
Cl280	Cl	1.521046	0.348386	0.877520
Cl281	Cl	1.297596	-0.310079	0.593339
Cl282	Cl	1.797596	0.189921	1.093339
H283	H	1.042961	-0.387525	0.268498
H284	H	1.542961	0.112475	0.768498
H285	H	1.043236	-0.164343	0.473019
H286	H	1.543236	0.335657	0.973019
Cl287	Cl	1.247562	-0.482946	0.151637
Cl288	Cl	1.747562	0.017054	0.651637
H289	H	1.275608	-0.603261	0.135660
H290	H	1.775608	-0.103261	0.635660
Cl291	Cl	1.297914	-0.698745	0.122956
Cl292	Cl	1.797914	-0.198745	0.622956
Cl293	Cl	1.247804	-0.949456	0.151678
Cl294	Cl	1.747804	-0.449456	0.651678
Cl295	Cl	1.297986	-0.839509	0.122977
Cl296	Cl	1.797986	-0.339509	0.622977
Cl297	Cl	1.297937	-0.733612	0.122961
Cl298	Cl	1.797937	-0.233612	0.622961
H299	H	0.993064	-0.135610	0.603732
H300	H	1.493064	0.364390	1.103732
H301	H	0.993053	-0.135611	0.688837
H302	H	1.493053	0.364389	1.188837
H303	H	1.043201	-0.164333	0.960305
H304	H	1.543201	0.335667	1.460305
H305	H	1.043196	-0.164337	1.045427
H306	H	1.543196	0.335663	1.545427
H307	H	1.225212	-0.268605	0.960313
H308	H	1.725212	0.231395	1.460313
Cl309	Cl	1.297592	-0.310081	0.699224
Cl310	Cl	1.797592	0.189919	1.199224
H311	H	1.225269	-0.268604	0.473032
H312	H	1.725269	0.231396	0.973032
Cl313	Cl	0.970830	-0.122884	0.734091
Cl314	Cl	1.470830	0.377116	1.234091
H315	H	0.993044	-0.135614	0.829597
H316	H	1.493044	0.364386	1.329597
H317	H	0.835385	-0.268684	0.268460
H318	H	1.335385	0.231316	0.768460
