data_functionalizedCrystal
_audit_creation_method	'MofGen! by Chris Wilmer'
_symmetry_space_group_name_H-M	'P1'
_symmetry_Int_Tables_number	1
_symmetry_cell_setting	triclinic
loop_
_symmetry_equiv_pos_as_xyz
  x,y,z
_cell_length_a	13.897448
_cell_length_b	11.169417
_cell_length_c	11.169406
_cell_angle_alpha	89.969315
_cell_angle_beta	89.949141
_cell_angle_gamma	90.018942
loop_
_atom_site_label
_atom_site_type_symbol
_atom_site_fract_x
_atom_site_fract_y
_atom_site_fract_z
Zn1	Zn	-0.383759	1.835033	-0.678506
Zn2	Zn	0.116241	2.335033	-0.178506
Zn3	Zn	-0.545138	1.834858	-0.477812
Zn4	Zn	-0.045138	2.334858	0.022188
Zn5	Zn	-0.383862	1.634280	-0.477841
Zn6	Zn	0.116138	2.134280	0.022159
Zn7	Zn	-0.545017	1.634301	-0.678458
Zn8	Zn	-0.045017	2.134301	-0.178458
O9	O	-0.464444	1.734618	-0.578154
O10	O	0.035556	2.234618	-0.078154
O11	O	-0.405174	2.002960	-0.651891
O12	O	0.094826	2.502960	-0.151891
O13	O	-0.523838	1.808169	-0.309866
O14	O	-0.023838	2.308169	0.190134
O15	O	-0.248867	1.660975	-0.504493
O16	O	0.251133	2.160975	-0.004493
O17	O	-0.523738	2.002831	-0.504442
O18	O	-0.023738	2.502831	-0.004442
O19	O	-0.248791	1.808468	-0.651920
O20	O	0.251209	2.308468	-0.151920
O21	O	-0.405349	1.660805	-0.309888
O22	O	0.094651	2.160805	0.190112
O23	O	-0.405232	1.466333	-0.504446
O24	O	0.094768	1.966333	-0.004446
O25	O	-0.523533	1.661011	-0.846414
O26	O	-0.023533	2.161011	-0.346414
O27	O	-0.523632	1.466349	-0.651838
O28	O	-0.023632	1.966349	-0.151838
O29	O	-0.405057	1.808488	-0.846450
O30	O	0.094943	2.308488	-0.346450
O31	O	-0.680104	1.808189	-0.504395
O32	O	-0.180104	2.308189	-0.004395
O33	O	-0.680015	1.660841	-0.651809
O34	O	-0.180015	2.160841	-0.151809
C35	C	-0.464431	1.422793	-0.578140
C36	C	0.035569	1.922793	-0.078140
C37	C	-0.464449	1.289393	-0.578163
C38	C	0.035551	1.789393	-0.078163
C39	C	-0.715059	1.734530	-0.578119
C40	C	-0.215059	2.234530	-0.078119
C41	C	-0.822272	1.734603	-0.578145
C42	C	-0.322272	2.234603	-0.078145
C43	C	-1.018567	1.734729	-0.578220
C44	C	-0.518567	2.234729	-0.078220
C45	C	-0.909335	1.734655	-0.578182
C46	C	-0.409335	2.234655	-0.078182
C47	C	-0.212851	1.734739	-0.578215
C48	C	0.287149	2.234739	-0.078215
C49	C	-0.105637	1.734790	-0.578241
C50	C	0.394363	2.234790	-0.078241
C51	C	-0.464270	1.734771	-0.891197
C52	C	0.035730	2.234771	-0.391197
C53	C	-0.464196	1.734837	-1.024597
C54	C	0.035804	2.234837	-0.524597
C55	C	-0.464458	2.047660	-0.578169
C56	C	0.035542	2.547660	-0.078169
C57	C	-0.464464	2.181060	-0.578175
C58	C	0.035536	2.681060	-0.078175
C59	C	-0.464548	1.734534	-0.266329
C60	C	0.035452	2.234534	0.233671
C61	C	-0.464351	1.734702	-0.132930
C62	C	0.035649	2.234702	0.367070
