data_functionalizedCrystal
_audit_creation_method	'MofGen! by Chris Wilmer'
_symmetry_space_group_name_H-M	'P1'
_symmetry_Int_Tables_number	1
_symmetry_cell_setting	triclinic
loop_
_symmetry_equiv_pos_as_xyz
  x,y,z
_cell_length_a	12.759395
_cell_length_b	12.759394
_cell_length_c	12.759387
_cell_angle_alpha	90.031660
_cell_angle_beta	90.019431
_cell_angle_gamma	90.014682
loop_
_atom_site_label
_atom_site_type_symbol
_atom_site_fract_x
_atom_site_fract_y
_atom_site_fract_z
Zn1	Zn	1.606268	-0.418215	0.593969
Zn2	Zn	1.606158	-0.593932	0.418286
Zn3	Zn	1.430566	-0.418268	0.418309
Zn4	Zn	1.430558	-0.593853	0.593929
O5	O	1.518387	-0.506067	0.506123
O6	O	1.753274	-0.441536	0.570671
O7	O	1.582823	-0.570685	0.271268
O8	O	1.453922	-0.271240	0.441636
O9	O	1.753194	-0.570635	0.441598
O10	O	1.583010	-0.271201	0.570693
O11	O	1.453816	-0.441625	0.271285
O12	O	1.283544	-0.441548	0.441598
O13	O	1.453909	-0.570499	0.740955
O14	O	1.283538	-0.570549	0.570625
O15	O	1.583002	-0.441459	0.740984
O16	O	1.582815	-0.740943	0.441560
O17	O	1.453802	-0.740884	0.570603
C18	C	1.245420	-0.506046	0.506110
C19	C	1.128643	-0.506063	0.506130
C20	C	1.518324	-0.779035	0.506098
C21	C	1.518393	-0.895811	0.506122
C22	C	1.128708	-0.371849	0.640750
C23	C	1.073879	-0.304756	0.708069
C24	C	0.964158	-0.304774	0.708082
C25	C	0.909262	-0.371892	0.640767
C26	C	0.964091	-0.438986	0.573448
C27	C	1.073815	-0.438962	0.573445
C28	C	0.964026	-0.573192	0.438824
C29	C	1.073747	-0.573180	0.438814
C30	C	0.909130	-0.640309	0.371508
C31	C	0.963959	-0.707410	0.304193
C32	C	1.073687	-0.707389	0.304184
C33	C	1.128576	-0.640274	0.371495
C34	C	1.652835	-0.895819	0.371849
C35	C	1.720083	-0.950684	0.304726
C36	C	1.720145	-1.060405	0.304754
C37	C	1.652953	-1.115265	0.371916
C38	C	1.585705	-1.060400	0.439040
C39	C	1.585648	-0.950676	0.439002
C40	C	1.451270	-1.060392	0.573316
C41	C	1.451202	-0.950671	0.573284
C42	C	1.384079	-1.115252	0.640478
C43	C	1.316823	-1.060387	0.707598
C44	C	1.316764	-0.950659	0.707566
C45	C	1.383954	-0.895806	0.640408
C46	C	1.792421	-0.506089	0.506137
C47	C	1.909197	-0.506098	0.506143
C48	C	1.518467	-0.505964	0.780157
C49	C	1.518500	-0.505920	0.896934
C50	C	1.518479	-0.232034	0.506172
C51	C	1.518518	-0.115257	0.506192
C52	C	1.518369	-0.506094	0.233156
C53	C	1.518538	-0.505842	0.116379
C54	C	1.652934	-0.371560	0.896984
C55	C	1.720166	-0.304364	0.951870
C56	C	1.720192	-0.304326	1.061591
C57	C	1.652976	-0.371488	1.116430
C58	C	1.585744	-0.438684	1.061544
C59	C	1.585728	-0.438717	0.951819
C60	C	1.451307	-0.573038	1.061494
C61	C	1.451285	-0.573083	0.951772
C62	C	1.384091	-0.640200	1.116332
C63	C	1.316863	-0.707403	1.061446
C64	C	1.316841	-0.707439	0.951717
C65	C	1.384053	-0.640279	0.896886
H66	H	1.218049	-0.371823	0.640742
H67	H	1.652994	-0.371442	1.205771
H68	H	1.217917	-0.640245	0.371489
H69	H	0.819921	-0.371893	0.640775
O70	O	1.251506	-0.772822	0.898567
C71	C	1.192176	-0.832070	0.970501
H72	H	1.235219	-0.835675	1.048723
H73	H	1.180937	-0.914862	0.938789
H74	H	1.112397	-0.793586	0.982159
O75	O	0.802547	-0.640421	0.371689
C76	C	0.765934	-0.667516	0.472342
H77	H	0.829182	-0.713362	0.515683
H78	H	0.692524	-0.717899	0.464735
H79	H	0.746489	-0.593198	0.517998
H80	H	1.118588	-0.250108	0.762874
O81	O	1.126898	-0.772717	0.238902
C82	C	1.100062	-0.877461	0.261655
H83	H	1.069934	-0.882877	0.345579
H84	H	1.172209	-0.929345	0.252503
H85	H	1.036345	-0.904858	0.205282
H86	H	0.919254	-0.762047	0.249386
H87	H	1.774931	-0.249602	1.106279
O88	O	1.383893	-0.789223	0.640182
C89	C	1.356907	-0.752673	0.539465
H90	H	1.374911	-0.815943	0.478982
H91	H	1.404268	-0.679249	0.520802
H92	H	1.269725	-0.733271	0.537169
O93	O	1.251676	-0.772603	1.114876
C94	C	1.266088	-0.758133	1.223488
H95	H	1.347185	-0.723729	1.238490
H96	H	1.258938	-0.836809	1.265178
H97	H	1.203798	-0.702161	1.254621
O98	O	1.652827	-1.221848	0.371952
C99	C	1.552177	-1.258621	0.344879
H100	H	1.491613	-1.195427	0.362753
H101	H	1.533527	-1.331996	0.392284
H102	H	1.550004	-1.278176	0.257712
O103	O	1.251386	-0.897253	0.772628
C104	C	1.183494	-0.833912	0.712748
H105	H	1.220567	-0.817506	0.633151
H106	H	1.169350	-0.756734	0.755514
H107	H	1.105666	-0.876276	0.701161
O108	O	1.652765	-0.789236	0.371622
C109	C	1.625773	-0.752692	0.270905
H110	H	1.643785	-0.815960	0.210423
H111	H	1.673123	-0.679262	0.252240
H112	H	1.538588	-0.733302	0.268610
H113	H	1.652930	-0.371594	0.807643
H114	H	0.919517	-0.250135	0.762893
H115	H	1.774792	-0.906008	0.250045
O116	O	1.785315	-0.239079	0.898482
C117	C	1.725522	-0.171213	0.835036
H118	H	1.645880	-0.208252	0.818580
H119	H	1.768309	-0.157174	0.757888
H120	H	1.714027	-0.093335	0.877333
H121	H	1.774909	-1.105076	0.250101
H122	H	1.384138	-1.204593	0.640501
O123	O	1.384233	-0.640315	0.790303
C124	C	1.484903	-0.667352	0.753663
H125	H	1.545433	-0.649401	0.816915
H126	H	1.503594	-0.619984	0.680278
H127	H	1.487087	-0.754531	0.734168
O128	O	1.251708	-1.113791	0.772885
C129	C	1.311537	-1.177126	0.840826
H130	H	1.391184	-1.193521	0.803840
H131	H	1.268788	-1.254310	0.854896
H132	H	1.323017	-1.134762	0.918681
H133	H	1.384113	-0.640160	1.205673
