data_functionalizedCrystal
_audit_creation_method	'MofGen! by Chris Wilmer'
_symmetry_space_group_name_H-M	'P1'
_symmetry_Int_Tables_number	1
_symmetry_cell_setting	triclinic
loop_
_symmetry_equiv_pos_as_xyz
  x,y,z
_cell_length_a	25.639242
_cell_length_b	29.839131
_cell_length_c	25.639234
_cell_angle_alpha	89.974256
_cell_angle_beta	89.970648
_cell_angle_gamma	90.036947
loop_
_atom_site_label
_atom_site_type_symbol
_atom_site_fract_x
_atom_site_fract_y
_atom_site_fract_z
Zn1	Zn	0.799252	-0.178934	-0.295739
Zn2	Zn	1.132586	0.154399	0.037594
Zn3	Zn	1.465919	0.487732	0.370927
Zn4	Zn	0.799161	-0.254057	-0.208302
Zn5	Zn	1.132494	0.079277	0.125031
Zn6	Zn	1.465827	0.412610	0.458364
Zn7	Zn	0.711818	-0.178936	-0.208303
Zn8	Zn	1.045151	0.154398	0.125030
Zn9	Zn	1.378484	0.487731	0.458363
Zn10	Zn	0.711769	-0.254032	-0.295692
Zn11	Zn	1.045103	0.079301	0.037641
Zn12	Zn	1.378436	0.412635	0.370975
O13	O	0.755500	-0.216490	-0.252009
O14	O	1.088833	0.116844	0.081324
O15	O	1.422167	0.450177	0.414657
O16	O	0.872405	-0.188909	-0.284160
O17	O	1.205739	0.144424	0.049174
O18	O	1.539072	0.477758	0.382507
O19	O	0.787556	-0.244103	-0.135137
O20	O	1.120889	0.089230	0.198196
O21	O	1.454223	0.422564	0.531530
O22	O	0.723474	-0.116068	-0.219922
O23	O	1.056808	0.217265	0.113411
O24	O	1.390141	0.550598	0.446745
O25	O	0.872338	-0.244101	-0.219920
O26	O	1.205671	0.089232	0.113413
O27	O	1.539005	0.422565	0.446746
O28	O	0.787712	-0.116067	-0.284161
O29	O	1.121046	0.217266	0.049173
O30	O	1.454379	0.550599	0.382506
O31	O	0.723386	-0.188912	-0.135138
O32	O	1.056719	0.144422	0.198195
O33	O	1.390052	0.477755	0.531529
O34	O	0.638646	-0.188888	-0.219876
O35	O	0.971979	0.144446	0.113457
O36	O	1.305313	0.477779	0.446790
O37	O	0.723392	-0.244059	-0.368864
O38	O	1.056726	0.089274	-0.035530
O39	O	1.390059	0.422607	0.297803
O40	O	0.638611	-0.244061	-0.284081
O41	O	0.971944	0.089273	0.049253
O42	O	1.305277	0.422606	0.382586
O43	O	0.787666	-0.188885	-0.368898
O44	O	1.120999	0.144448	-0.035565
O45	O	1.454332	0.477782	0.297768
O46	O	0.787509	-0.316921	-0.219875
O47	O	1.120843	0.016413	0.113459
O48	O	1.454176	0.349746	0.446792
O49	O	0.723304	-0.316903	-0.284080
O50	O	1.056637	0.016431	0.049254
O51	O	1.389970	0.349764	0.382587
C52	C	0.619657	-0.216472	-0.251974
C53	C	0.952991	0.116861	0.081360
C54	C	1.286324	0.450195	0.414693
C55	C	0.561543	-0.216475	-0.251971
C56	C	0.894877	0.116858	0.081362
C57	C	1.228210	0.450191	0.414696
C58	C	0.201171	-0.245266	-0.285409
C59	C	0.534504	0.088067	0.047925
C60	C	0.867837	0.421400	0.381258
C61	C	0.146566	-0.245269	-0.285417
C62	C	0.479900	0.088064	0.047916
C63	C	0.813233	0.421398	0.381250
O64	O	0.118322	-0.269726	-0.313817
O65	O	0.451655	0.063607	0.019517
O66	O	0.784988	0.396940	0.352850
N67	N	0.119261	-0.216502	-0.252043
N68	N	0.452594	0.116831	0.081290
N69	N	0.785928	0.450165	0.414623
C70	C	0.146562	-0.187727	-0.218663
C71	C	0.479896	0.145606	0.114670
C72	C	0.813229	0.478939	0.448004
O73	O	0.118323	-0.163259	-0.190277
O74	O	0.451656	0.170075	0.143056
O75	O	0.784990	0.503408	0.476389
C76	C	0.201166	-0.187723	-0.218658
C77	C	0.534499	0.145611	0.114675
C78	C	0.867832	0.478944	0.448009
C79	C	0.228469	-0.216495	-0.252030
C80	C	0.561802	0.116839	0.081303
C81	C	0.895135	0.450172	0.414637
C82	C	0.228474	-0.274036	-0.318778
C83	C	0.561807	0.059298	0.014555
C84	C	0.895140	0.392631	0.347888
C85	C	0.283074	-0.274033	-0.318769
C86	C	0.616407	0.059300	0.014564
C87	C	0.949741	0.392633	0.347897
C88	C	0.310372	-0.245262	-0.285391
C89	C	0.643705	0.088072	0.047943
C90	C	0.977039	0.421405	0.381276
C91	C	0.283069	-0.216492	-0.252021
C92	C	0.616402	0.116841	0.081313
C93	C	0.949736	0.450174	0.414646
C94	C	0.228466	-0.158946	-0.185281
C95	C	0.561800	0.174387	0.148053
C96	C	0.895133	0.507721	0.481386
C97	C	0.283073	-0.158943	-0.185279
C98	C	0.616407	0.174390	0.148055
C99	C	0.949740	0.507723	0.481388
C100	C	0.310376	-0.187716	-0.218651
C101	C	0.643709	0.145618	0.114683
C102	C	0.977043	0.478951	0.448016
C103	C	0.364967	-0.187719	-0.218633
C104	C	0.698301	0.145615	0.114700
C105	C	1.031634	0.478948	0.448034
N106	N	0.392273	-0.216485	-0.252007
N107	N	0.725606	0.116848	0.081327
N108	N	1.058940	0.450181	0.414660
C109	C	0.364975	-0.245257	-0.285385
C110	C	0.698309	0.088076	0.047948
C111	C	1.031642	0.421410	0.381281
C112	C	0.031892	-0.187739	-0.218677
C113	C	0.365225	0.145595	0.114656
C114	C	0.698558	0.478928	0.447989
C115	C	-0.022711	-0.187745	-0.218679
C116	C	0.310623	0.145588	0.114654
C117	C	0.643956	0.478921	0.447987
C118	C	-0.022703	-0.245287	-0.285434
C119	C	0.310631	0.088047	0.047899
C120	C	0.643964	0.421380	0.381233
C121	C	0.031901	-0.245282	-0.285429
C122	C	0.365234	0.088051	0.047904
C123	C	0.698567	0.421385	0.381238
C124	C	0.059197	-0.216506	-0.252051
C125	C	0.392531	0.116828	0.081283
C126	C	0.725864	0.450161	0.414616
C127	C	0.479640	-0.245250	-0.285363
C128	C	0.812974	0.088083	0.047970
C129	C	1.146307	0.421416	0.381303
C130	C	0.534246	-0.245247	-0.285350
C131	C	0.867579	0.088086	0.047984
C132	C	1.200912	0.421420	0.381317
C133	C	0.534233	-0.187704	-0.218597
C134	C	0.867566	0.145629	0.114736
C135	C	1.200900	0.478962	0.448069
C136	C	0.479632	-0.187709	-0.218609
C137	C	0.812966	0.145624	0.114725
C138	C	1.146299	0.478958	0.448058
C139	C	0.452337	-0.216484	-0.251996
C140	C	0.785671	0.116850	0.081337
C141	C	1.119004	0.450183	0.414671
O142	O	0.393247	-0.163273	-0.190249
O143	O	0.726580	0.170061	0.143084
O144	O	1.059914	0.503394	0.476418
O145	O	0.393221	-0.269717	-0.313771
O146	O	0.726555	0.063616	0.019562
O147	O	1.059888	0.396949	0.352896
C148	C	0.755406	-0.333212	-0.251983
C149	C	1.088739	0.000121	0.081350
C150	C	1.422072	0.333454	0.414683
C151	C	0.755413	-0.383147	-0.251990
C152	C	1.088746	-0.049813	0.081344
C153	C	1.422080	0.283520	0.414677
C154	C	0.788993	-0.692787	-0.218627
C155	C	1.122326	-0.359454	0.114707
C156	C	1.455659	-0.026120	0.448040
C157	C	0.789057	-0.880460	-0.218647
C158	C	1.122391	-0.547127	0.114686
C159	C	1.455724	-0.213793	0.448020
O160	O	0.817533	-0.904722	-0.190260
O161	O	1.150866	-0.571389	0.143073
O162	O	1.484200	-0.238055	0.476406
N163	N	0.755608	-0.903932	-0.252049
N164	N	1.088942	-0.570598	0.081285
N165	N	1.422275	-0.237265	0.414618
C166	C	0.722143	-0.880482	-0.285450
C167	C	1.055477	-0.547149	0.047883
C168	C	1.388810	-0.213816	0.381216
O169	O	0.693698	-0.904753	-0.313865
O170	O	1.027032	-0.571420	0.019469
O171	O	1.360365	-0.238086	0.352802
C172	C	0.722082	-0.692810	-0.285432
C173	C	1.055415	-0.359477	0.047901
C174	C	1.388749	-0.026144	0.381235
C175	C	0.755529	-0.669341	-0.252024
C176	C	1.088863	-0.336008	0.081309
C177	C	1.422196	-0.002674	0.414642
C178	C	0.822438	-0.669318	-0.185222
C179	C	1.155771	-0.335984	0.148111
C180	C	1.489104	-0.002651	0.481445
C181	C	0.822419	-0.622402	-0.185215
C182	C	1.155753	-0.289069	0.148118
C183	C	1.489086	0.044265	0.481451
C184	C	0.788956	-0.598956	-0.218613
C185	C	1.122289	-0.265623	0.114720
C186	C	1.455622	0.067711	0.448054
C187	C	0.755511	-0.622425	-0.252018
C188	C	1.088844	-0.289092	0.081316
C189	C	1.422177	0.044241	0.414649
C190	C	0.688620	-0.669362	-0.318836
C191	C	1.021953	-0.336028	0.014497
C192	C	1.355287	-0.002695	0.347831
C193	C	0.688608	-0.622441	-0.318829
C194	C	1.021942	-0.289107	0.014504
C195	C	1.355275	0.044226	0.347837
C196	C	0.722056	-0.598971	-0.285422
C197	C	1.055389	-0.265638	0.047912
C198	C	1.388722	0.067695	0.381245
C199	C	0.722029	-0.552064	-0.285409
C200	C	1.055362	-0.218731	0.047925
C201	C	1.388695	0.114603	0.381258
N202	N	0.755478	-0.528592	-0.252007
N203	N	1.088811	-0.195259	0.081326
N204	N	1.422144	0.138074	0.414660
C205	C	0.788941	-0.552038	-0.218609
C206	C	1.122274	-0.218705	0.114724
C207	C	1.455608	0.114628	0.448058
C208	C	0.722177	-0.979013	-0.285457
C209	C	1.055511	-0.645680	0.047877
C210	C	1.388844	-0.312346	0.381210
C211	C	0.722192	-1.025931	-0.285461
C212	C	1.055525	-0.692598	0.047873
C213	C	1.388859	-0.359264	0.381206
C214	C	0.789107	-1.025905	-0.218658
C215	C	1.122440	-0.692572	0.114676
C216	C	1.455773	-0.359238	0.448009
C217	C	0.789089	-0.978986	-0.218652
C218	C	1.122422	-0.645653	0.114682
C219	C	1.455756	-0.312320	0.448015
C220	C	0.755626	-0.955541	-0.252055
C221	C	1.088960	-0.622208	0.081279
C222	C	1.422293	-0.288875	0.414612
C223	C	0.788899	-0.453512	-0.218597
C224	C	1.122233	-0.120179	0.114736
C225	C	1.455566	0.213154	0.448070
C226	C	0.788877	-0.406593	-0.218592
C227	C	1.122210	-0.073259	0.114742
C228	C	1.455543	0.260074	0.448075
C229	C	0.721964	-0.406623	-0.285396
C230	C	1.055297	-0.073289	0.047937
C231	C	1.388631	0.260044	0.381270
C232	C	0.721985	-0.453538	-0.285400
C233	C	1.055318	-0.120205	0.047933
C234	C	1.388651	0.213129	0.381267
C235	C	0.755457	-0.476982	-0.251999
C236	C	1.088790	-0.143649	0.081335
C237	C	1.422123	0.189685	0.414668
O238	O	0.693572	-0.527773	-0.313785
O239	O	1.026905	-0.194440	0.019549
O240	O	1.360239	0.138894	0.352882
O241	O	0.817390	-0.527760	-0.190207
O242	O	1.150723	-0.194426	0.143126
O243	O	1.484057	0.138907	0.476460
C244	C	0.789011	-0.739702	-0.218633
C245	C	1.122345	-0.406369	0.114700
C246	C	1.455678	-0.073036	0.448033
C247	C	0.755566	-0.763172	-0.252038
C248	C	1.088900	-0.429838	0.081295
C249	C	1.422233	-0.096505	0.414629
C250	C	0.722103	-0.739726	-0.285436
C251	C	1.055436	-0.406392	0.047898
C252	C	1.388769	-0.073059	0.381231
C253	C	0.755581	-0.810090	-0.252042
C254	C	1.088914	-0.476756	0.081291
C255	C	1.422247	-0.143423	0.414625
C256	C	0.789044	-0.833536	-0.218644
C257	C	1.122378	-0.500202	0.114689
C258	C	1.455711	-0.166869	0.448023
C259	C	0.822493	-0.810064	-0.185242
C260	C	1.155827	-0.476731	0.148091
C261	C	1.489160	-0.143397	0.481424
C262	C	0.822475	-0.763148	-0.185235
C263	C	1.155808	-0.429815	0.148098
C264	C	1.489141	-0.096482	0.481431
C265	C	0.688654	-0.763198	-0.318838
C266	C	1.021987	-0.429864	0.014496
C267	C	1.355320	-0.096531	0.347829
C268	C	0.688675	-0.810113	-0.318841
C269	C	1.022008	-0.476780	0.014492
C270	C	1.355341	-0.143446	0.347825
C271	C	0.722138	-0.833559	-0.285443
C272	C	1.055471	-0.500226	0.047890
C273	C	1.388805	-0.166892	0.381223
C274	C	0.891873	-0.216508	-0.252045
C275	C	1.225206	0.116825	0.081288
C276	C	1.558540	0.450159	0.414622
C277	C	0.949987	-0.216516	-0.252060
C278	C	1.283320	0.116818	0.081273
C279	C	1.616654	0.450151	0.414606
C280	C	0.755534	-0.216469	-0.388382
C281	C	1.088867	0.116864	-0.055049
C282	C	1.422201	0.450197	0.278284
C283	C	0.755548	-0.216461	-0.446496
C284	C	1.088882	0.116873	-0.113163
C285	C	1.422215	0.450206	0.220170
C286	C	0.755609	-0.099311	-0.252047
C287	C	1.088942	0.234022	0.081287
C288	C	1.422276	0.567355	0.414620
C289	C	0.755655	-0.049377	-0.252063
C290	C	1.088989	0.283956	0.081271
C291	C	1.422322	0.617290	0.414604
C292	C	0.722150	-0.187669	-0.806865
C293	C	1.055483	0.145664	-0.473532
C294	C	1.388816	0.478998	-0.140199
C295	C	0.722152	-0.187661	-0.861470
C296	C	1.055486	0.145672	-0.528136
C297	C	1.388819	0.479006	-0.194803
O298	O	0.693729	-0.163231	-0.889712
O299	O	1.027062	0.170103	-0.556378
O300	O	1.360396	0.503436	-0.223045
N301	N	0.755566	-0.216390	-0.888779
N302	N	1.088899	0.116943	-0.555446
N303	N	1.422232	0.450277	-0.222112
C304	C	0.788975	-0.245132	-0.861481
C305	C	1.122308	0.088201	-0.528148
C306	C	1.455642	0.421534	-0.194814
O307	O	0.817396	-0.269568	-0.889724
O308	O	1.150729	0.063765	-0.556390
O309	O	1.484062	0.397098	-0.223057
C310	C	0.788969	-0.245143	-0.806878
C311	C	1.122302	0.088191	-0.473544
C312	C	1.455636	0.421524	-0.140211
C313	C	0.755557	-0.216408	-0.779571
C314	C	1.088890	0.116925	-0.446238
C315	C	1.422224	0.450258	-0.112905
C316	C	0.688740	-0.158937	-0.779559
C317	C	1.022073	0.174396	-0.446226
C318	C	1.355407	0.507729	-0.112892
C319	C	0.688738	-0.158945	-0.724958
C320	C	1.022071	0.174388	-0.391625
C321	C	1.355405	0.507722	-0.058292
C322	C	0.722146	-0.187684	-0.697664
C323	C	1.055479	0.145649	-0.364331
C324	C	1.388812	0.478982	-0.030998
C325	C	0.755555	-0.216416	-0.724971
C326	C	1.088888	0.116917	-0.391637
C327	C	1.422222	0.450251	-0.058304
C328	C	0.822375	-0.273887	-0.779581
C329	C	1.155708	0.059446	-0.446247
C330	C	1.489042	0.392780	-0.112914
C331	C	0.822366	-0.273895	-0.724974
C332	C	1.155699	0.059439	-0.391640
C333	C	1.489033	0.392772	-0.058307
C334	C	0.788954	-0.245160	-0.697667
C335	C	1.122287	0.088173	-0.364334
C336	C	1.455621	0.421506	-0.031001
C337	C	0.788961	-0.245163	-0.643076
C338	C	1.122294	0.088170	-0.309743
C339	C	1.455627	0.421504	0.023591
N340	N	0.755547	-0.216434	-0.615767
N341	N	1.088881	0.116900	-0.282434
N342	N	1.422214	0.450233	0.050900
C343	C	0.722140	-0.187694	-0.643061
C344	C	1.055473	0.145639	-0.309728
C345	C	1.388806	0.478972	0.023606
C346	C	0.788984	-0.245110	-0.976152
C347	C	1.122317	0.088224	-0.642818
C348	C	1.455651	0.421557	-0.309485
C349	C	0.788993	-0.245098	-1.030754
C350	C	1.122326	0.088236	-0.697421
C351	C	1.455660	0.421569	-0.364087
C352	C	0.722169	-0.187627	-1.030739
C353	C	1.055503	0.145707	-0.697406
C354	C	1.388836	0.479040	-0.364072
C355	C	0.722164	-0.187637	-0.976136
C356	C	1.055497	0.145697	-0.642802
C357	C	1.388830	0.479030	-0.309469
C358	C	0.755571	-0.216381	-0.948843
C359	C	1.088904	0.116953	-0.615509
C360	C	1.422237	0.450286	-0.282176
C361	C	0.722138	-0.187712	-0.528396
C362	C	1.055472	0.145621	-0.195062
C363	C	1.388805	0.478954	0.138271
C364	C	0.722141	-0.187721	-0.473790
C365	C	1.055474	0.145612	-0.140457
C366	C	1.388807	0.478945	0.192876
C367	C	0.788962	-0.245194	-0.473810
C368	C	1.122295	0.088139	-0.140477
C369	C	1.455629	0.421473	0.192856
C370	C	0.788962	-0.245184	-0.528411
C371	C	1.122295	0.088150	-0.195078
C372	C	1.455628	0.421483	0.138256
C373	C	0.755546	-0.216441	-0.555702
C374	C	1.088879	0.116892	-0.222369
C375	C	1.422212	0.450225	0.110964
O376	O	0.817368	-0.269582	-0.614800
O377	O	1.150701	0.063752	-0.281466
O378	O	1.484035	0.397085	0.051867
O379	O	0.693719	-0.163267	-0.614812
O380	O	1.027052	0.170067	-0.281478
O381	O	1.360386	0.503400	0.051855
C382	C	0.755496	-0.216478	-0.116167
C383	C	1.088830	0.116856	0.217167
C384	C	1.422163	0.450189	0.550500
C385	C	0.755583	-0.216360	-0.058053
C386	C	1.088916	0.116973	0.275280
C387	C	1.422250	0.450307	0.608614
H388	H	0.305299	-0.297462	-0.345945
H389	H	0.638633	0.035872	-0.012612
H390	H	0.971966	0.369205	0.320721
H391	H	0.054114	-0.164306	-0.191493
H392	H	0.387447	0.169027	0.141840
H393	H	0.720780	0.502361	0.475174
Cl394	Cl	0.680133	-0.151575	-0.562697
Cl395	Cl	1.013466	0.181758	-0.229363
Cl396	Cl	1.346800	0.515091	0.103970
H397	H	0.661528	-0.135548	-0.702730
H398	H	0.994862	0.197785	-0.369397
H399	H	1.328195	0.531118	-0.036064
Cl400	Cl	0.646575	-0.698855	-0.360843
Cl401	Cl	0.979908	-0.365521	-0.027510
Cl402	Cl	1.313242	-0.032188	0.305823
H403	H	0.849691	-0.688402	-0.158025
H404	H	1.183024	-0.355069	0.175308
H405	H	1.516357	-0.021736	0.508641
H406	H	0.457401	-0.164282	-0.191433
H407	H	0.790735	0.169052	0.141900
H408	H	1.124068	0.502385	0.475233
Cl409	Cl	0.646730	-0.122808	-0.813862
Cl410	Cl	0.980063	0.210525	-0.480528
Cl411	Cl	1.313396	0.543858	-0.147195
Cl412	Cl	0.680157	-0.151513	-0.941813
Cl413	Cl	1.013491	0.181820	-0.608480
Cl414	Cl	1.346824	0.515153	-0.275147
H415	H	0.694967	-0.164226	-1.052972
H416	H	1.028300	0.169108	-0.719638
H417	H	1.361634	0.502441	-0.386305
H418	H	0.206246	-0.135518	-0.158104
H419	H	0.539579	0.197816	0.175229
H420	H	0.872912	0.531149	0.508563
H421	H	0.816325	-0.959880	-0.191448
H422	H	1.149658	-0.626547	0.141885
H423	H	1.482992	-0.293214	0.475218
Cl424	Cl	0.568560	-0.151536	-0.176638
Cl425	Cl	0.901894	0.181798	0.156695
Cl426	Cl	1.235227	0.515131	0.490028
H427	H	0.816206	-0.268491	-1.052982
H428	H	1.149539	0.064842	-0.719649
H429	H	1.482873	0.398176	-0.386316
H430	H	0.816194	-0.268514	-0.953933
H431	H	1.149528	0.064820	-0.620600
H432	H	1.482861	0.398153	-0.287266
H433	H	0.849582	-0.297286	-0.801804
H434	H	1.182916	0.036047	-0.468471
H435	H	1.516249	0.369381	-0.135138
Cl436	Cl	-0.057027	-0.151579	-0.176717
Cl437	Cl	0.276306	0.181754	0.156616
Cl438	Cl	0.609639	0.515088	0.489949
Cl439	Cl	0.830928	-0.377091	-0.176590
Cl440	Cl	1.164261	-0.043758	0.156743
Cl441	Cl	1.497595	0.289575	0.490076
H442	H	0.849574	-0.297299	-0.702754
H443	H	1.182907	0.036034	-0.369421
H444	H	1.516241	0.369367	-0.036088
Cl445	Cl	0.830978	-0.482977	-0.176605
Cl446	Cl	1.164311	-0.149644	0.156728
Cl447	Cl	1.497645	0.183689	0.490061
H448	H	-0.044938	-0.268713	-0.312615
H449	H	0.288395	0.064621	0.020719
H450	H	0.621728	0.397954	0.354052
H451	H	0.694927	-0.959927	-0.312658
H452	H	1.028260	-0.626594	0.020675
H453	H	1.361593	-0.293260	0.354008
Cl454	Cl	0.317386	-0.122765	-0.143315
Cl455	Cl	0.650719	0.210568	0.190018
Cl456	Cl	0.984053	0.543902	0.523352
Cl457	Cl	0.864478	-0.592905	-0.143222
Cl458	Cl	1.197811	-0.259571	0.190111
Cl459	Cl	1.531144	0.073762	0.523444
Cl460	Cl	0.646621	-0.839612	-0.360844
Cl461	Cl	0.979955	-0.506278	-0.027510
Cl462	Cl	1.313288	-0.172945	0.305823
H463	H	0.816354	-1.045003	-0.191464
H464	H	1.149687	-0.711670	0.141869
H465	H	1.483021	-0.378336	0.475203
Cl466	Cl	0.646539	-0.592970	-0.360826
Cl467	Cl	0.979872	-0.259636	-0.027492
Cl468	Cl	1.313205	0.073697	0.305841
H469	H	0.694933	-0.164320	-0.451560
H470	H	1.028266	0.169013	-0.118227
H471	H	1.361600	0.502346	0.215107
Cl472	Cl	0.830975	-0.281299	-0.562740
Cl473	Cl	1.164308	0.052034	-0.229407
Cl474	Cl	1.497641	0.385367	0.103927
Cl475	Cl	0.680136	-1.055429	-0.327454
Cl476	Cl	1.013469	-0.722096	0.005879
Cl477	Cl	1.346802	-0.388763	0.339212
H478	H	0.816163	-0.268591	-0.451578
H479	H	1.149496	0.064742	-0.118244
H480	H	1.482830	0.398075	0.215089
Cl481	Cl	0.679926	-0.483043	-0.327388
Cl482	Cl	1.013259	-0.149710	0.005945
Cl483	Cl	1.346592	0.183623	0.339279
H484	H	0.849711	-0.744043	-0.158032
H485	H	1.183044	-0.410710	0.175301
H486	H	1.516377	-0.077376	0.508635
Cl487	Cl	0.568566	-0.281421	-0.327305
Cl488	Cl	0.901899	0.051912	0.006028
Cl489	Cl	1.235232	0.385246	0.339361
Cl490	Cl	0.194166	-0.310211	-0.360746
Cl491	Cl	0.527500	0.023122	-0.027413
Cl492	Cl	0.860833	0.356456	0.305921
Cl493	Cl	0.066218	-0.281453	-0.327385
Cl494	Cl	0.399552	0.051881	0.005948
Cl495	Cl	0.732885	0.385214	0.339282
Cl496	Cl	0.679901	-0.377139	-0.327383
Cl497	Cl	1.013234	-0.043805	0.005951
Cl498	Cl	1.346567	0.289528	0.339284
H499	H	0.457423	-0.268680	-0.312552
H500	H	0.790756	0.064653	0.020782
H501	H	1.124090	0.397986	0.354115
H502	H	0.849739	-0.829162	-0.158047
H503	H	1.183072	-0.495828	0.175286
H504	H	1.516406	-0.162495	0.508620
Cl505	Cl	0.646581	-0.733730	-0.360828
Cl506	Cl	0.979914	-0.400396	-0.027495
Cl507	Cl	1.313247	-0.067063	0.305839
