data_functionalizedCrystal
_audit_creation_method	'MofGen! by Chris Wilmer'
_symmetry_space_group_name_H-M	'P1'
_symmetry_Int_Tables_number	1
_symmetry_cell_setting	triclinic
loop_
_symmetry_equiv_pos_as_xyz
  x,y,z
_cell_length_a	18.050589
_cell_length_b	18.050591
_cell_length_c	19.805399
_cell_angle_alpha	90.024639
_cell_angle_beta	89.972193
_cell_angle_gamma	89.983460
loop_
_atom_site_label
_atom_site_type_symbol
_atom_site_fract_x
_atom_site_fract_y
_atom_site_fract_z
Zn1	Zn	-0.295756	-1.135359	-0.382810
Zn2	Zn	0.204244	-0.635359	0.117190
Zn3	Zn	-0.419948	-1.135279	-0.269621
Zn4	Zn	0.080052	-0.635279	0.230379
Zn5	Zn	-0.295768	-1.011171	-0.269625
Zn6	Zn	0.204232	-0.511171	0.230375
Zn7	Zn	-0.419900	-1.011143	-0.382758
Zn8	Zn	0.080100	-0.511143	0.117242
O9	O	-0.357843	-1.073238	-0.326204
O10	O	0.142157	-0.573238	0.173796
O11	O	-0.312245	-1.239273	-0.367816
O12	O	0.187755	-0.739273	0.132184
O13	O	-0.403500	-1.118793	-0.174905
O14	O	0.096500	-0.618793	0.325095
O15	O	-0.191841	-1.027690	-0.284662
O16	O	0.308159	-0.527690	0.215338
O17	O	-0.403489	-1.239214	-0.284656
O18	O	0.096511	-0.739214	0.215344
O19	O	-0.191833	-1.118931	-0.367819
O20	O	0.308167	-0.618931	0.132181
O21	O	-0.312265	-1.027611	-0.174908
O22	O	0.187735	-0.527611	0.325092
O23	O	-0.312219	-0.907242	-0.284612
O24	O	0.187781	-0.407242	0.215388
O25	O	-0.403407	-1.027643	-0.477482
O26	O	0.096593	-0.527643	0.022518
O27	O	-0.403418	-0.907222	-0.367730
O28	O	0.096582	-0.407222	0.132270
O29	O	-0.312199	-1.118904	-0.477520
O30	O	0.187801	-0.618904	0.022480
O31	O	-0.523866	-1.118767	-0.284606
O32	O	-0.023866	-0.618767	0.215394
O33	O	-0.523831	-1.027565	-0.367727
O34	O	-0.023831	-0.527565	0.132273
C35	C	-0.357815	-0.880286	-0.326166
C36	C	0.142185	-0.380286	0.173834
C37	C	-0.357821	-0.797740	-0.326166
C38	C	0.142179	-0.297740	0.173834
C39	C	-0.550795	-1.073174	-0.326175
C40	C	-0.050795	-0.573174	0.173825
C41	C	-0.633341	-1.073215	-0.326186
C42	C	-0.133341	-0.573215	0.173814
C43	C	-0.357796	-1.073280	-0.502746
C44	C	0.142204	-0.573280	-0.002746
C45	C	-0.357776	-1.073297	-0.577978
C46	C	0.142224	-0.573297	-0.077978
C47	C	-0.882158	-1.122940	-0.281060
C48	C	-0.382158	-0.622940	0.218940
C49	C	-0.832822	-1.055181	-0.264429
C50	C	-0.332822	-0.555181	0.235571
C51	C	-0.930461	-1.073308	-0.326238
C52	C	-0.430461	-0.573308	0.173762
C53	C	-0.832715	-1.141017	-0.342811
C54	C	-0.332715	-0.641017	0.157189
C55	C	-0.784476	-1.073266	-0.326211
C56	C	-0.284476	-0.573266	0.173789
C57	C	-0.882212	-1.005514	-0.309575
C58	C	-0.382212	-0.505514	0.190425
C59	C	-0.882110	-1.091396	-0.387987
C60	C	-0.382110	-0.591396	0.112013
C61	C	-0.832796	-1.023590	-0.371379
C62	C	-0.332796	-0.523590	0.128621
C63	C	-1.014559	-1.073334	-0.326252
C64	C	-0.514559	-0.573334	0.173748
C65	C	-0.700379	-1.073233	-0.326197
C66	C	-0.200379	-0.573233	0.173803
C67	C	-0.164137	-1.073322	-0.326247
C68	C	0.335863	-0.573322	0.173753
C69	C	-0.081591	-1.073358	-0.326265
C70	C	0.418409	-0.573358	0.173735
C71	C	-0.357871	-1.266944	-0.326241
C72	C	0.142129	-0.766944	0.173759
C73	C	-0.357883	-1.349489	-0.326258
C74	C	0.142117	-0.849489	0.173742
C75	C	-0.308169	-0.598279	-0.281070
C76	C	0.191831	-0.098279	0.218930
C77	C	-0.375907	-0.548867	-0.264412
C78	C	0.124093	-0.048867	0.235588
C79	C	-0.357844	-0.646610	-0.326197
C80	C	0.142156	-0.146610	0.173803
C81	C	-0.290130	-0.548940	-0.342853
C82	C	0.209870	-0.048940	0.157147
C83	C	-0.357859	-0.500625	-0.326225
C84	C	0.142141	-0.000625	0.173775
C85	C	-0.425616	-0.598285	-0.309506
C86	C	0.074384	-0.098285	0.190494
C87	C	-0.339794	-0.598362	-0.387976
C88	C	0.160206	-0.098362	0.112024
C89	C	-0.407578	-0.548973	-0.371341
C90	C	0.092422	-0.048973	0.128659
C91	C	-0.357834	-0.730708	-0.326179
C92	C	0.142166	-0.230708	0.173821
C93	C	-0.357877	-0.416528	-0.326243
C94	C	0.142123	0.083472	0.173757
C95	C	-0.310282	-1.120818	-0.613343
C96	C	0.189718	-0.620818	-0.113343
C97	C	-0.310260	-1.120826	-0.684032
C98	C	0.189740	-0.620826	-0.184032
C99	C	-0.357737	-1.073316	-0.719354
C100	C	0.142263	-0.573316	-0.219354
C101	C	-0.405234	-1.025790	-0.683984
C102	C	0.094766	-0.525790	-0.183984
C103	C	-0.405251	-1.025779	-0.613297
C104	C	0.094749	-0.525779	-0.113297
C105	C	-0.405165	-1.025832	-0.969057
C106	C	0.094835	-0.525832	-0.469057
C107	C	-0.405145	-1.025848	-1.039750
C108	C	0.094855	-0.525848	-0.539750
C109	C	-0.310174	-1.120878	-1.039793
C110	C	0.189826	-0.620878	-0.539793
C111	C	-0.310191	-1.120868	-0.969105
C112	C	0.189809	-0.620868	-0.469105
C113	C	-0.357684	-1.073339	-0.933742
C114	C	0.142316	-0.573339	-0.433742
C115	C	-0.357706	-1.073331	-0.857093
C116	C	0.142294	-0.573331	-0.357093
C117	C	-0.357720	-1.073328	-0.796001
C118	C	0.142280	-0.573328	-0.296001
C119	C	-0.357836	-1.073239	-0.150348
C120	C	0.142164	-0.573239	0.349652
C121	C	-0.357646	-1.073365	-0.075116
C122	C	0.142354	-0.573365	0.424884
H123	H	-0.903832	-1.164877	-0.242836
H124	H	-0.403832	-0.664877	0.257164
H125	H	-0.324495	-0.620120	-0.440194
H126	H	0.175505	-0.120120	0.059806
Br127	Br	-0.194677	-0.512803	-0.366312
Br128	Br	0.305323	-0.012803	0.133688
H129	H	-0.271622	-1.159509	-0.584589
H130	H	0.228378	-0.659509	-0.084589
Br131	Br	-0.521101	-0.634256	-0.285945
Br132	Br	-0.021101	-0.134256	0.214055
Br133	Br	-0.477681	-0.513113	-0.434970
Br134	Br	0.022319	-0.013113	0.065030
H135	H	-0.443888	-0.987104	-0.712749
H136	H	0.056112	-0.487104	-0.212749
Br137	Br	-0.401374	-0.512632	-0.177355
Br138	Br	0.098626	-0.012632	0.322645
H139	H	-0.811171	-1.039859	-0.212197
H140	H	-0.311171	-0.539859	0.287803
H141	H	-0.271587	-1.159524	-0.712823
H142	H	0.228413	-0.659524	-0.212823
H143	H	-0.271533	-1.159558	-0.940350
H144	H	0.228467	-0.659558	-0.440350
H145	H	-0.903861	-0.948220	-0.295487
H146	H	-0.403861	-0.448220	0.204513
Br147	Br	-0.918229	-1.116966	-0.475018
Br148	Br	-0.418229	-0.616966	0.024982
Br149	Br	-0.469706	-0.961280	-0.565300
Br150	Br	0.030294	-0.461280	-0.065300
H151	H	-0.271500	-1.159576	-1.068594
H152	H	0.228500	-0.659576	-0.568594
H153	H	-0.443808	-0.987156	-1.068507
H154	H	0.056192	-0.487156	-0.568507
H155	H	-0.443847	-0.987142	-0.940273
H156	H	0.056153	-0.487142	-0.440273
H157	H	-0.811259	-0.981552	-0.409574
H158	H	-0.311259	-0.481552	0.090426
H159	H	-0.810974	-1.198294	-0.356840
H160	H	-0.310974	-0.698294	0.143160
H161	H	-0.266207	-0.619928	-0.242867
H162	H	0.233793	-0.119928	0.257133
