data_functionalizedCrystal
_audit_creation_method	'MofGen! by Chris Wilmer'
_symmetry_space_group_name_H-M	'P1'
_symmetry_Int_Tables_number	1
_symmetry_cell_setting	triclinic
loop_
_symmetry_equiv_pos_as_xyz
  x,y,z
_cell_length_a	14.908571
_cell_length_b	12.594516
_cell_length_c	14.908308
_cell_angle_alpha	93.271498
_cell_angle_beta	90.175053
_cell_angle_gamma	86.712497
loop_
_atom_site_label
_atom_site_type_symbol
_atom_site_fract_x
_atom_site_fract_y
_atom_site_fract_z
Zn1	Zn	1.345329	-0.555460	-0.587618
Zn2	Zn	1.353920	-0.723816	-0.437269
Zn3	Zn	1.203643	-0.535016	-0.428614
Zn4	Zn	1.194948	-0.722551	-0.578920
O5	O	1.274460	-0.634211	-0.508105
O6	O	1.472295	-0.586878	-0.574935
O7	O	1.341220	-0.690745	-0.310295
O8	O	1.222482	-0.388787	-0.449724
O9	O	1.478607	-0.710568	-0.464475
O10	O	1.326578	-0.403807	-0.566543
O11	O	1.230812	-0.552034	-0.303937
O12	O	1.076663	-0.550808	-0.441291
O13	O	1.207662	-0.708413	-0.705899
O14	O	1.070275	-0.688589	-0.551720
O15	O	1.318147	-0.585652	-0.712289
O16	O	1.332788	-0.872590	-0.456041
O17	O	1.215992	-0.871661	-0.560112
C18	C	1.040844	-0.617344	-0.494623
C19	C	0.940900	-0.610155	-0.488877
C20	C	0.746501	-0.740319	-0.592914
C21	C	0.652595	-0.733568	-0.587518
C22	C	0.659180	-0.589898	-0.472693
C23	C	0.753086	-0.596649	-0.478089
C24	C	0.796743	-0.671863	-0.538201
C25	C	0.890651	-0.678619	-0.543592
C26	C	0.897235	-0.534943	-0.428772
C27	C	0.803329	-0.528192	-0.423376
C28	C	1.274402	-0.910747	-0.508093
C29	C	1.274457	-1.029058	-0.508123
C30	C	1.210928	-1.097842	-0.564684
C31	C	1.193759	-1.161862	-0.481377
C32	C	1.291708	-1.175844	-0.591449
C33	C	1.257247	-1.091515	-0.424769
C34	C	1.355231	-1.105496	-0.534899
C35	C	1.338096	-1.169483	-0.451537
C36	C	1.508989	-0.651145	-0.521641
C37	C	1.608931	-0.658361	-0.527409
C38	C	1.260976	-0.649172	-0.742631
C39	C	1.255230	-0.655547	-0.842572
C40	C	1.274542	-0.356598	-0.508138
C41	C	1.274577	-0.238296	-0.508153
C42	C	1.359477	-0.539672	-1.037028
C43	C	1.354081	-0.545658	-1.130932
C44	C	1.239037	-0.673502	-1.124285
C45	C	1.244433	-0.667515	-1.030381
C46	C	1.304656	-0.600599	-0.986756
C47	C	1.310057	-0.594618	-0.892851
C48	C	1.195009	-0.722455	-0.886206
C49	C	1.189612	-0.728442	-0.980110
C50	C	1.287944	-0.619235	-0.274494
C51	C	1.293864	-0.612572	-0.174564
H52	H	0.926195	-0.739864	-0.592536
H53	H	1.306251	-1.212658	-0.661905
C54	C	1.328645	-0.445618	-0.787982
C55	C	1.376247	-0.521060	-0.844894
H56	H	1.369509	-0.400207	-0.758375
H57	H	1.287379	-0.404425	-0.822361
H58	H	1.296776	-0.481061	-0.744603
H59	H	1.408111	-0.485617	-0.888278
H60	H	1.417529	-0.562258	-0.810513
H61	H	0.767770	-0.466952	-0.374438
C62	C	1.468960	-0.546325	-1.243517
C63	C	1.414339	-0.478688	-1.186195
H64	H	1.506156	-0.504974	-1.277638
H65	H	1.505449	-0.592830	-1.208864
H66	H	1.432314	-0.587029	-1.282934
H67	H	1.450985	-0.437989	-1.146773
H68	H	1.377847	-0.432164	-1.220851
C69	C	1.125856	-0.799263	-1.108295
C70	C	1.172840	-0.747046	-1.172248
H71	H	1.084984	-0.844660	-1.137907
H72	H	1.167125	-0.840472	-1.073931
H73	H	1.093581	-0.748066	-1.069682
H74	H	1.205119	-0.798243	-1.210856
H75	H	1.131565	-0.705835	-1.206626
H76	H	1.140579	-0.782921	-1.015642
C77	C	0.730563	-0.881657	-0.705869
C78	C	0.794494	-0.822992	-0.658985
H79	H	0.760193	-0.932691	-0.746663
H80	H	0.696182	-0.917163	-0.664532
H81	H	0.691964	-0.834901	-0.738221
H82	H	0.833089	-0.869748	-0.626627
H83	H	0.828890	-0.787484	-0.700328
H84	H	1.391875	-1.200727	-0.403659
H85	H	1.150372	-0.772070	-0.845265
C86	C	1.378085	-0.390681	-0.932149
C87	C	1.425676	-0.466130	-0.989065
H88	H	1.418957	-0.345286	-0.902536
H89	H	1.336829	-0.349473	-0.966526
H90	H	1.346206	-0.426120	-0.888774
H91	H	1.457551	-0.430691	-1.032444
H92	H	1.466949	-0.507342	-0.954685
C93	C	0.540071	-0.748691	-0.702379
C94	C	0.597366	-0.808817	-0.647659
H95	H	0.505979	-0.795150	-0.739514
H96	H	0.500633	-0.702946	-0.665808
H97	H	0.574746	-0.707214	-0.738939
H98	H	0.562690	-0.850289	-0.611095
H99	H	0.636809	-0.854582	-0.684235
C100	C	0.518145	-0.515704	-0.413499
C101	C	0.611180	-0.507187	-0.406659
H102	H	0.488513	-0.464634	-0.372737
H103	H	0.499327	-0.503023	-0.473058
H104	H	0.503500	-0.585229	-0.399324
H105	H	0.625825	-0.437664	-0.420841
H106	H	0.630005	-0.519861	-0.347087
C107	C	1.044108	-0.481496	-0.386052
C108	C	0.952464	-0.459689	-0.368626
H109	H	1.078202	-0.435036	-0.348923
H110	H	1.060242	-0.553239	-0.373679
H111	H	1.056034	-0.470984	-0.447374
H112	H	0.940537	-0.470209	-0.307307
H113	H	0.936324	-0.387928	-0.380994
C114	C	1.053822	-1.083547	-0.600902
C115	C	1.138291	-1.055371	-0.629148
H116	H	1.008980	-1.057319	-0.640694
H117	H	1.053014	-1.158905	-0.600960
H118	H	1.042182	-1.053507	-0.541901
H119	H	1.149934	-1.085417	-0.688148
H120	H	1.139102	-0.979998	-0.629100
C121	C	1.303704	-1.078978	-0.270357
C122	C	1.237504	-1.041989	-0.329623
H123	H	1.291515	-1.048395	-0.211622
H124	H	1.303646	-1.154348	-0.269789
H125	H	1.360848	-1.059260	-0.289462
H126	H	1.180361	-1.061714	-0.310521
H127	H	1.237554	-0.966602	-0.330188
C128	C	1.102931	-1.306845	-0.450375
C129	C	1.101619	-1.195619	-0.450811
H130	H	1.046048	-1.327679	-0.431505
H131	H	1.115576	-1.336923	-0.509165
H132	H	1.148052	-1.331361	-0.410146
H133	H	1.056503	-1.171103	-0.491046
H134	H	1.088964	-1.165529	-0.392012
C135	C	1.485340	-1.008476	-0.496738
C136	C	1.447348	-1.071714	-0.565487
H137	H	1.542211	-0.987627	-0.515629
H138	H	1.446884	-0.946883	-0.483383
H139	H	1.492703	-1.048040	-0.444580
H140	H	1.439979	-1.032147	-0.617643
H141	H	1.485813	-1.133316	-0.578854
