data_functionalizedCrystal
_audit_creation_method	'MofGen! by Chris Wilmer'
_symmetry_space_group_name_H-M	'P1'
_symmetry_Int_Tables_number	1
_symmetry_cell_setting	triclinic
loop_
_symmetry_equiv_pos_as_xyz
  x,y,z
_cell_length_a	12.759400
_cell_length_b	11.169417
_cell_length_c	11.169409
_cell_angle_alpha	90.021683
_cell_angle_beta	89.966206
_cell_angle_gamma	89.986377
loop_
_atom_site_label
_atom_site_type_symbol
_atom_site_fract_x
_atom_site_fract_y
_atom_site_fract_z
Zn1	Zn	-0.418211	-1.834926	-0.678590
Zn2	Zn	-0.593937	-1.834800	-0.477902
Zn3	Zn	-0.418269	-1.634212	-0.477918
Zn4	Zn	-0.593845	-1.634204	-0.678540
O5	O	-0.506065	-1.734536	-0.578238
O6	O	-0.441535	-2.002859	-0.651982
O7	O	-0.570697	-1.808142	-0.309954
O8	O	-0.271240	-1.660893	-0.504565
O9	O	-0.570640	-2.002767	-0.504538
O10	O	-0.271198	-1.808357	-0.651998
O11	O	-0.441634	-1.660771	-0.309966
O12	O	-0.441546	-1.466261	-0.504517
O13	O	-0.570484	-1.660880	-0.846497
O14	O	-0.570541	-1.466256	-0.651913
O15	O	-0.441447	-1.808349	-0.846533
O16	O	-0.740946	-1.808135	-0.504489
O17	O	-0.740878	-1.660758	-0.651898
C18	C	-0.506040	-1.422711	-0.578212
C19	C	-0.506055	-1.289311	-0.578230
C20	C	-0.779033	-1.734464	-0.578213
C21	C	-0.895809	-1.734544	-0.578242
C22	C	-0.950672	-1.811368	-0.501571
C23	C	-1.060396	-1.811442	-0.501608
C24	C	-1.060386	-1.657857	-0.654990
C25	C	-0.950664	-1.657790	-0.654958
C26	C	-0.895817	-1.888122	-0.424855
C27	C	-0.950680	-1.964952	-0.348178
C28	C	-1.060404	-1.965025	-0.348215
C29	C	-1.115265	-1.888270	-0.424929
C30	C	-0.232032	-1.734640	-0.578289
C31	C	-0.115256	-1.734684	-0.578311
C32	C	-0.505949	-1.734628	-0.891280
C33	C	-0.505899	-1.734667	-1.024680
C34	C	-0.506083	-1.047578	-0.578254
C35	C	-0.506067	-1.180978	-0.578237
C36	C	-0.506106	-1.734513	-0.266413
C37	C	-0.505860	-1.734706	-0.133013
H38	H	-0.806475	-1.888067	-0.424813
C39	C	-1.120082	-1.574713	-0.738337
C40	C	-1.182993	-1.642666	-0.815318
C41	C	-1.238009	-1.566111	-0.892100
H42	H	-1.071813	-1.528920	-0.784111
H43	H	-1.163013	-1.522490	-0.692421
H44	H	-1.140066	-1.694869	-0.861229
H45	H	-1.231281	-1.688457	-0.769576
H46	H	-1.280940	-1.513888	-0.846184
H47	H	-1.189733	-1.520322	-0.937866
H48	H	-1.280708	-1.612205	-0.944333
H49	H	-0.906005	-2.027451	-0.285726
C50	C	-0.891280	-1.574259	-0.738254
C51	C	-0.962801	-1.507030	-0.805420
C52	C	-0.908135	-1.430066	-0.882164
H53	H	-0.848410	-1.619997	-0.790675
H54	H	-0.848563	-1.521895	-0.692321
H55	H	-1.005500	-1.559387	-0.851350
H56	H	-1.005674	-1.461267	-0.753031
H57	H	-0.865418	-1.377703	-0.836231
H58	H	-0.865267	-1.475814	-0.934577
H59	H	-0.956653	-1.384434	-0.927737
H60	H	-1.204610	-1.888345	-0.424963
C61	C	-1.119781	-2.048485	-0.264841
C62	C	-1.048253	-2.115663	-0.197635
C63	C	-1.102910	-2.192545	-0.120801
H64	H	-1.162516	-2.100893	-0.310674
H65	H	-1.162633	-2.002652	-0.212459
H66	H	-1.005419	-2.161493	-0.250011
H67	H	-1.005515	-2.063287	-0.151778
H68	H	-1.145762	-2.146712	-0.068418
H69	H	-1.145643	-2.244945	-0.166643
H70	H	-1.054387	-2.238126	-0.075184
