data_functionalizedCrystal
_audit_creation_method	'MofGen! by Chris Wilmer'
_symmetry_space_group_name_H-M	'P1'
_symmetry_Int_Tables_number	1
_symmetry_cell_setting	triclinic
loop_
_symmetry_equiv_pos_as_xyz
  x,y,z
_cell_length_a	11.169417
_cell_length_b	11.169416
_cell_length_c	11.169409
_cell_angle_alpha	90.028030
_cell_angle_beta	90.021649
_cell_angle_gamma	90.011311
loop_
_atom_site_label
_atom_site_type_symbol
_atom_site_fract_x
_atom_site_fract_y
_atom_site_fract_z
Zn1	Zn	-1.834939	0.477767	-0.678637
Zn2	Zn	-1.584939	0.727767	-0.428637
Zn3	Zn	-1.334939	0.977767	-0.178637
Zn4	Zn	-1.084939	1.227767	0.071363
Zn5	Zn	-1.834819	0.678507	-0.477969
Zn6	Zn	-1.584819	0.928507	-0.227969
Zn7	Zn	-1.334819	1.178507	0.022031
Zn8	Zn	-1.084819	1.428507	0.272031
Zn9	Zn	-1.634225	0.477831	-0.477965
Zn10	Zn	-1.384225	0.727831	-0.227965
Zn11	Zn	-1.134225	0.977831	0.022035
Zn12	Zn	-0.884225	1.227831	0.272035
Zn13	Zn	-1.634223	0.678400	-0.678608
Zn14	Zn	-1.384223	0.928400	-0.428608
Zn15	Zn	-1.134223	1.178400	-0.178608
Zn16	Zn	-0.884223	1.428400	0.071392
O17	O	-1.734552	0.578126	-0.578295
O18	O	-1.484552	0.828126	-0.328295
O19	O	-1.234552	1.078126	-0.078295
O20	O	-0.984552	1.328126	0.171705
O21	O	-2.002873	0.504414	-0.652032
O22	O	-1.752873	0.754414	-0.402032
O23	O	-1.502873	1.004414	-0.152032
O24	O	-1.252873	1.254414	0.097968
O25	O	-1.808161	0.651959	-0.310019
O26	O	-1.558161	0.901959	-0.060019
O27	O	-1.308161	1.151959	0.189981
O28	O	-1.058161	1.401959	0.439981
O29	O	-1.660902	0.309873	-0.504595
O30	O	-1.410902	0.559873	-0.254595
O31	O	-1.160902	0.809873	-0.004595
O32	O	-0.910902	1.059873	0.245405
O33	O	-2.002785	0.651897	-0.504602
O34	O	-1.752785	0.901897	-0.254602
O35	O	-1.502785	1.151897	-0.004602
O36	O	-1.252785	1.401897	0.245398
O37	O	-1.808365	0.309826	-0.652028
O38	O	-1.558365	0.559826	-0.402028
O39	O	-1.308365	0.809826	-0.152028
O40	O	-1.058365	1.059826	0.097972
O41	O	-1.660785	0.504522	-0.310016
O42	O	-1.410785	0.754522	-0.060016
O43	O	-1.160785	1.004522	0.189984
O44	O	-0.910785	1.254522	0.439984
O45	O	-1.466275	0.504419	-0.504567
O46	O	-1.216275	0.754419	-0.254567
O47	O	-0.966275	1.004419	-0.004567
O48	O	-0.716275	1.254419	0.245433
O49	O	-1.660898	0.651714	-0.846561
O50	O	-1.410898	0.901714	-0.596561
O51	O	-1.160898	1.151714	-0.346561
O52	O	-0.910898	1.401714	-0.096561
O53	O	-1.466274	0.651776	-0.651978
O54	O	-1.216274	0.901776	-0.401978
O55	O	-0.966274	1.151776	-0.151978
O56	O	-0.716274	1.401776	0.098022
O57	O	-1.808363	0.504310	-0.846583
O58	O	-1.558363	0.754310	-0.596583
O59	O	-1.308363	1.004310	-0.346583
O60	O	-1.058363	1.254310	-0.096583
O61	O	-1.808158	0.846443	-0.504573
O62	O	-1.558158	1.096443	-0.254573
O63	O	-1.308158	1.346443	-0.004573
O64	O	-1.058158	1.596443	0.245427
O65	O	-1.660781	0.846364	-0.651982
O66	O	-1.410781	1.096364	-0.401982
O67	O	-1.160781	1.346364	-0.151982
O68	O	-0.910781	1.596364	0.098018
C69	C	-1.422727	0.578094	-0.578269
C70	C	-1.172727	0.828094	-0.328269
C71	C	-0.922727	1.078094	-0.078269
C72	C	-0.672727	1.328094	0.171731
C73	C	-1.289327	0.578109	-0.578287
C74	C	-1.039327	0.828109	-0.328287
C75	C	-0.789327	1.078109	-0.078287
C76	C	-0.539327	1.328109	0.171713
C77	C	-1.734489	0.889951	-0.578301
C78	C	-1.484489	1.139951	-0.328301
C79	C	-1.234489	1.389951	-0.078301
C80	C	-0.984489	1.639951	0.171699
C81	C	-1.734572	1.023351	-0.578344
C82	C	-1.484572	1.273351	-0.328344
C83	C	-1.234572	1.523351	-0.078344
C84	C	-0.984572	1.773351	0.171656
C85	C	-1.734644	0.577993	-0.891337
C86	C	-1.484644	0.827993	-0.641337
C87	C	-1.234644	1.077993	-0.391337
C88	C	-0.984644	1.327993	-0.141337
C89	C	-1.734683	0.577936	-1.024737
C90	C	-1.484683	0.827936	-0.774737
C91	C	-1.234683	1.077936	-0.524737
C92	C	-0.984683	1.327936	-0.274737
C93	C	-1.047594	0.578148	-0.578313
C94	C	-0.797594	0.828148	-0.328313
C95	C	-0.547594	1.078148	-0.078313
C96	C	-0.297594	1.328148	0.171687
C97	C	-1.180994	0.578128	-0.578300
C98	C	-0.930994	0.828128	-0.328300
C99	C	-0.680994	1.078128	-0.078300
C100	C	-0.430994	1.328128	0.171700
C101	C	-1.734635	1.265084	-0.578327
C102	C	-1.484635	1.515084	-0.328327
C103	C	-1.234635	1.765084	-0.078327
C104	C	-0.984635	2.015084	0.171673
C105	C	-1.734640	1.131684	-0.578373
C106	C	-1.484640	1.381684	-0.328373
C107	C	-1.234640	1.631684	-0.078373
C108	C	-0.984640	1.881684	0.171627
C109	C	-1.734529	0.578172	-0.266470
C110	C	-1.484529	0.828172	-0.016470
C111	C	-1.234529	1.078172	0.233530
C112	C	-0.984529	1.328172	0.483530
C113	C	-1.734722	0.577891	-0.133070
C114	C	-1.484722	0.827891	0.116930
C115	C	-1.234722	1.077891	0.366930
C116	C	-0.984722	1.327891	0.616930
