data_functionalizedCrystal
_audit_creation_method	'MofGen! by Chris Wilmer'
_symmetry_space_group_name_H-M	'P1'
_symmetry_Int_Tables_number	1
_symmetry_cell_setting	triclinic
loop_
_symmetry_equiv_pos_as_xyz
  x,y,z
_cell_length_a	10.685980
_cell_length_b	21.295417
_cell_length_c	10.686551
_cell_angle_alpha	85.588773
_cell_angle_beta	81.591741
_cell_angle_gamma	94.395916
loop_
_atom_site_label
_atom_site_type_symbol
_atom_site_fract_x
_atom_site_fract_y
_atom_site_fract_z
Zn1	Zn	1.995712	-0.141098	-0.866666
Zn2	Zn	1.979228	-0.255140	-0.654372
Zn3	Zn	1.767130	-0.158619	-0.638126
Zn4	Zn	1.783352	-0.255079	-0.850282
O5	O	1.881356	-0.202484	-0.752361
O6	O	2.171163	-0.148919	-0.852160
O7	O	1.937405	-0.249694	-0.474583
O8	O	1.797561	-0.068199	-0.668500
O9	O	2.159052	-0.232705	-0.696189
O10	O	1.965500	-0.055326	-0.836407
O11	O	1.781578	-0.178781	-0.462647
O12	O	1.591644	-0.178721	-0.652613
O13	O	1.825210	-0.232601	-1.030089
O14	O	1.603563	-0.249590	-0.808483
O15	O	1.981230	-0.148860	-1.042127
O16	O	1.953136	-0.343228	-0.680302
O17	O	1.809226	-0.343183	-0.824237
C18	C	1.551544	-0.216051	-0.727008
C19	C	1.410452	-0.221869	-0.716192
C20	C	1.881189	-0.366045	-0.752285
C21	C	1.881237	-0.436010	-0.752303
C22	C	1.968641	-0.462117	-0.839787
C23	C	1.968688	-0.527856	-0.839822
C24	C	1.881343	-0.567487	-0.752351
C25	C	1.793923	-0.541374	-0.664860
C26	C	1.793870	-0.475635	-0.664836
N27	N	1.863221	-0.675730	-0.640525
N28	N	1.863279	-0.738179	-0.640552
C29	C	1.881496	-0.765553	-0.752420
N30	N	1.899678	-0.728120	-0.864264
N31	N	1.899626	-0.665665	-0.864236
C32	C	1.881390	-0.638770	-0.752368
C33	C	1.968955	-0.862941	-0.839949
C34	C	1.968994	-0.928682	-0.839985
C35	C	1.794235	-0.942199	-0.665012
C36	C	1.794191	-0.876459	-0.664987
C37	C	1.881558	-0.836834	-0.752454
C38	C	2.212455	-0.188865	-0.777814
C39	C	2.353550	-0.183061	-0.788661
C40	C	1.906868	-0.188769	-1.083454
C41	C	1.917740	-0.182925	-1.224546
C42	C	1.881560	-0.038282	-0.752469
C43	C	1.881647	0.031691	-0.752515
C44	C	1.856016	-0.216097	-0.422562
C45	C	1.845390	-0.221754	-0.281490
H46	H	1.351221	-0.259547	-0.645863
C47	C	1.751871	-0.272142	-1.202652
C48	C	1.781912	-0.331976	-1.236873
C49	C	1.695804	-0.378410	-1.164253
H50	H	1.668188	-0.265642	-1.217700
H51	H	1.756785	-0.269560	-1.115120
H52	H	1.776985	-0.334556	-1.324384
H53	H	1.865580	-0.338496	-1.221820
H54	H	1.700718	-0.375828	-1.076721
H55	H	1.612126	-0.371904	-1.179306
H56	H	1.716181	-0.419013	-1.187453
H57	H	1.723023	-0.855202	-0.593744
C58	C	1.432589	-0.132917	-0.882595
C59	C	1.514927	-0.162156	-0.969610
C60	C	1.587753	-0.115984	-1.056171
H61	H	1.480699	-0.105326	-0.838216
H62	H	1.378020	-0.109357	-0.926687
H63	H	1.569489	-0.185706	-0.925522
H64	H	1.466851	-0.189742	-1.014019
H65	H	1.533185	-0.092424	-1.100264
H66	H	1.635855	-0.088397	-1.011781
H67	H	1.643619	-0.135817	-1.115228
C68	C	2.063547	-0.419202	-0.934897
C69	C	2.140082	-0.456141	-1.011540
C70	C	2.227512	-0.416629	-1.099179
H71	H	2.115258	-0.393261	-0.890777
H72	H	2.019219	-0.393289	-0.986495
H73	H	2.184407	-0.482043	-0.959948
H74	H	2.088406	-0.482081	-1.055688
H75	H	2.183184	-0.390716	-1.150778
H76	H	2.279214	-0.390689	-1.055049
H77	H	2.279444	-0.441686	-1.151200
H78	H	1.988009	-0.145210	-1.283742
C79	C	1.699149	-0.584324	-0.569690
C80	C	1.717176	-0.572394	-0.446244
C81	C	1.629875	-0.611941	-0.358542
H82	H	1.711606	-0.627235	-0.582052
H83	H	1.615233	-0.576322	-0.581563
H84	H	1.801071	-0.580401	-0.434376
H85	H	1.704708	-0.529491	-0.433841
H86	H	1.545959	-0.603939	-0.370415
H87	H	1.642339	-0.654849	-0.370916
H88	H	1.642086	-0.603848	-0.274775
C89	C	1.698775	-0.447374	-0.569900
C90	C	1.575289	-0.467455	-0.587768
C91	C	1.487656	-0.441439	-0.500323
H92	H	1.711078	-0.402548	-0.582316
H93	H	1.710780	-0.460941	-0.486036
H94	H	1.563288	-0.453884	-0.671612
H95	H	1.562945	-0.512277	-0.575341
H96	H	1.499661	-0.455006	-0.416459
H97	H	1.499970	-0.396614	-0.512747
H98	H	1.403861	-0.455065	-0.512427
H99	H	2.040091	-0.830677	-0.911173
C100	C	2.063385	-0.556251	-0.934944
C101	C	1.997735	-0.593589	-1.010745
C102	C	2.084924	-0.619750	-1.098393
H103	H	2.115042	-0.581657	-0.890832
H104	H	2.115396	-0.523258	-0.987112
H105	H	1.945746	-0.626578	-0.958584
H106	H	1.946084	-0.568198	-1.054885
H107	H	2.136935	-0.586758	-1.150562
H108	H	2.136576	-0.645154	-1.054271
H109	H	2.040394	-0.645083	-1.149843
H110	H	2.040168	-0.949936	-0.911230
H111	H	1.723110	-0.974466	-0.593799
