data_functionalizedCrystal
_audit_creation_method	'MofGen! by Chris Wilmer'
_symmetry_space_group_name_H-M	'P1'
_symmetry_Int_Tables_number	1
_symmetry_cell_setting	triclinic
loop_
_symmetry_equiv_pos_as_xyz
  x,y,z
_cell_length_a	12.827893
_cell_length_b	21.295417
_cell_length_c	12.827885
_cell_angle_alpha	89.961710
_cell_angle_beta	89.980538
_cell_angle_gamma	90.030477
loop_
_atom_site_label
_atom_site_type_symbol
_atom_site_fract_x
_atom_site_fract_y
_atom_site_fract_z
Zn1	Zn	1.597562	-0.250578	-0.590788
Zn2	Zn	2.097562	0.249422	-0.090788
Zn3	Zn	1.597409	-0.355860	-0.416023
Zn4	Zn	2.097409	0.144140	0.083977
Zn5	Zn	1.422803	-0.250609	-0.416062
Zn6	Zn	1.922803	0.249391	0.083938
Zn7	Zn	1.422742	-0.355813	-0.590723
Zn8	Zn	1.922742	0.144187	-0.090723
O9	O	1.510129	-0.303215	-0.503399
O10	O	2.010129	0.196785	-0.003399
O11	O	1.743778	-0.264551	-0.567616
O12	O	2.243778	0.235449	-0.067616
O13	O	1.574209	-0.341931	-0.269792
O14	O	2.074209	0.158069	0.230208
O15	O	1.446074	-0.162516	-0.439283
O16	O	1.946074	0.337484	0.060717
O17	O	1.743665	-0.341901	-0.439217
O18	O	2.243665	0.158099	0.060783
O19	O	1.574469	-0.162493	-0.567654
O20	O	2.074469	0.337507	-0.067654
O21	O	1.445926	-0.264604	-0.269821
O22	O	1.945926	0.235396	0.230179
O23	O	1.276559	-0.264558	-0.439220
O24	O	1.776559	0.235442	0.060780
O25	O	1.445971	-0.341821	-0.736968
O26	O	1.945971	0.158179	-0.236968
O27	O	1.276514	-0.341851	-0.567543
O28	O	1.776514	0.158149	-0.067543
O29	O	1.574410	-0.264505	-0.737016
O30	O	2.074410	0.235495	-0.237016
O31	O	1.574150	-0.443944	-0.439154
O32	O	2.074150	0.056056	0.060846
O33	O	1.445823	-0.443909	-0.567505
O34	O	1.945823	0.056091	-0.067505
C35	C	1.238619	-0.303203	-0.503379
C36	C	1.738619	0.196797	-0.003379
C37	C	1.122466	-0.303213	-0.503396
C38	C	1.622466	0.196787	-0.003396
C39	C	1.070687	-0.341520	-0.566796
C40	C	1.570687	0.158480	-0.066796
C41	C	0.950637	-0.341531	-0.566814
C42	C	1.450637	0.158469	-0.066814
C43	C	1.509992	-0.466767	-0.503341
C44	C	2.009992	0.033233	-0.003341
C45	C	1.510029	-0.536735	-0.503351
C46	C	2.010029	-0.036735	-0.003351
C47	C	1.576908	-0.569599	-0.436587
C48	C	2.076908	-0.069599	0.063413
C49	C	1.576957	-0.635341	-0.436611
C50	C	2.076957	-0.135341	0.063389
C51	C	1.510108	-0.668217	-0.503387
C52	C	2.010108	-0.168217	-0.003387
C53	C	1.443224	-0.635346	-0.570165
C54	C	1.943224	-0.135346	-0.070165
C55	C	1.443185	-0.569604	-0.570147
C56	C	1.943185	-0.069604	-0.070147
N57	N	1.418692	-0.771483	-0.511347
N58	N	1.918692	-0.271483	-0.011347
N59	N	1.418732	-0.833934	-0.511358
N60	N	1.918732	-0.333934	-0.011358
C61	C	1.510225	-0.866292	-0.503447
C62	C	2.010225	-0.366292	-0.003447
N63	N	1.601678	-0.833839	-0.495504
N64	N	2.101678	-0.333839	0.004496
N65	N	1.601636	-0.771382	-0.495488
N66	N	2.101636	-0.271382	0.004512
C67	C	1.510144	-0.739503	-0.503415
C68	C	2.010144	-0.239503	-0.003415
C69	C	1.577163	-0.970441	-0.436705
C70	C	2.077163	-0.470441	0.063295
C71	C	1.577214	-1.036185	-0.436736
C72	C	2.077214	-0.536185	0.063264
C73	C	1.443472	-1.036188	-0.570284
C74	C	1.943472	-0.536188	-0.070284
C75	C	1.443431	-0.970446	-0.570259
C76	C	1.943431	-0.470446	-0.070259
C77	C	1.510275	-0.937576	-0.503464
C78	C	2.010275	-0.437576	-0.003464
C79	C	1.782699	-0.303228	-0.503420
C80	C	2.282699	0.196772	-0.003420
C81	C	1.898852	-0.303233	-0.503428
C82	C	2.398852	0.196767	-0.003428
C83	C	1.510201	-0.303154	-0.775969
C84	C	2.010201	0.196846	-0.275969
C85	C	1.510232	-0.303128	-0.892123
C86	C	2.010232	0.196872	-0.392123
C87	C	1.510295	-0.139025	-0.503480
C88	C	2.010295	0.360975	-0.003480
C89	C	1.510366	-0.069057	-0.503515
C90	C	2.010366	0.430943	-0.003515
C91	C	1.446696	-0.341371	-0.943884
C92	C	1.946696	0.158629	-0.443884
C93	C	1.446727	-0.341345	-1.063934
C94	C	1.946727	0.158655	-0.563934
C95	C	1.510117	-0.303231	-0.231889
C96	C	2.010117	0.196769	0.268111
C97	C	1.510289	-0.303079	-0.115737
C98	C	2.010289	0.196921	0.384263
H99	H	0.906108	-0.374329	-0.621090
H100	H	1.406108	0.125671	-0.121090
C101	C	1.373235	-0.385576	-1.124067
C102	C	1.873235	0.114424	-0.624067
N103	N	1.317878	-0.418892	-1.169361
N104	N	1.817878	0.081108	-0.669361
C105	C	1.369939	-1.072348	-0.643742
C106	C	1.869939	-0.572348	-0.143742
N107	N	1.314553	-1.099587	-0.699073
N108	N	1.814553	-0.599587	-0.199073
H109	H	1.115234	-0.374305	-0.621065
H110	H	1.615234	0.125695	-0.121065
H111	H	1.564682	-0.270334	-1.071230
H112	H	2.064682	0.229666	-0.571230
H113	H	1.564653	-0.270370	-0.936685
H114	H	2.064653	0.229630	-0.436685
H115	H	1.388967	-0.943686	-0.624620
H116	H	1.888967	-0.443686	-0.124620
H117	H	0.943374	-0.270438	-0.449143
H118	H	1.443374	0.229562	0.050857
H119	H	1.077919	-0.270423	-0.449134
H120	H	1.577919	0.229577	0.050866
C121	C	1.650428	-0.533446	-0.363099
C122	C	2.150428	-0.033446	0.136901
N123	N	1.705799	-0.506215	-0.307743
N124	N	2.205799	-0.006215	0.192257
C125	C	1.369622	-0.533453	-0.643609
C126	C	1.869622	-0.033453	-0.143609
N127	N	1.314218	-0.506223	-0.698946
N128	N	1.814218	-0.006223	-0.198946
H129	H	1.631422	-0.662104	-0.382244
H130	H	2.131422	-0.162104	0.117756
C131	C	1.373176	-0.385629	-0.883687
C132	C	1.873176	0.114371	-0.383687
N133	N	1.317797	-0.418965	-0.838349
N134	N	1.817797	0.081035	-0.338349
H135	H	1.388797	-0.662118	-0.624536
H136	H	1.888797	-0.162118	-0.124536
C137	C	1.650790	-1.072335	-0.363285
C138	C	2.150790	-0.572335	0.136715
N139	N	1.706206	-1.099564	-0.307959
N140	N	2.206206	-0.599564	0.192041
C141	C	1.650708	-0.934283	-0.363246
C142	C	2.150708	-0.434283	0.136754
N143	N	1.706106	-0.907050	-0.307919
N144	N	2.206106	-0.407050	0.192081
