data_functionalizedCrystal
_audit_creation_method	'MofGen! by Chris Wilmer'
_symmetry_space_group_name_H-M	'P1'
_symmetry_Int_Tables_number	1
_symmetry_cell_setting	triclinic
loop_
_symmetry_equiv_pos_as_xyz
  x,y,z
_cell_length_a	10.654550
_cell_length_b	14.044220
_cell_length_c	9.730223
_cell_angle_alpha	89.994583
_cell_angle_beta	89.999957
_cell_angle_gamma	88.836904
loop_
_atom_site_label
_atom_site_type_symbol
_atom_site_fract_x
_atom_site_fract_y
_atom_site_fract_z
O1	O	1.681228	0.133232	-0.114191
O2	O	1.317025	0.145925	-0.114216
O3	O	1.493659	0.001558	-0.114190
O4	O	1.504593	0.277599	-0.114217
O5	O	1.493647	0.001554	0.114390
O6	O	1.317012	0.145921	0.114364
O7	O	1.681215	0.133228	0.114389
Zn8	Zn	1.499111	0.139574	0.150668
Zn9	Zn	1.499128	0.139579	-0.150496
O10	O	1.504580	0.277595	0.114363
C11	C	1.270127	0.144991	0.000070
C12	C	1.130403	0.142202	0.000061
C13	C	1.488867	-0.033790	0.000100
C14	C	1.474592	-0.139110	0.000101
C15	C	1.059459	0.227204	0.000057
C16	C	0.928175	0.224578	0.000081
C17	C	0.938790	0.051942	0.000108
C18	C	1.070072	0.054569	0.000094
C19	C	1.448493	-0.331943	0.000079
C20	C	1.549741	-0.388910	0.000082
C21	C	1.535219	-0.496209	0.000070
C22	C	1.463013	-0.224634	0.000091
C23	C	1.728113	0.134162	0.000099
C24	C	1.867836	0.136950	0.000100
C25	C	1.509372	0.312943	0.000070
C26	C	1.523648	0.418262	0.000060
N27	N	1.499109	0.139570	0.356205
N28	N	1.499140	0.139576	-0.356032
C29	C	1.577355	0.075671	0.428142
C30	C	1.577367	0.075671	0.572025
C31	C	1.420885	0.203477	0.572021
C32	C	1.420867	0.203471	0.428140
H33	H	0.870417	0.293795	0.000080
O34	O	1.118266	0.312246	-0.000027
C35	C	1.249353	0.296342	-0.000008
H36	H	1.271842	0.222519	-0.043275
H37	H	1.295848	0.352466	-0.066386
H38	H	1.286369	0.301180	0.109647
O39	O	1.653384	0.013502	0.358476
C40	C	1.722469	-0.042881	0.452831
H41	H	1.670834	-0.044308	0.555401
H42	H	1.733155	-0.118504	0.411277
H43	H	1.819278	-0.011424	0.468112
O44	O	1.666100	-0.350856	-0.000077
C45	C	1.680552	-0.294232	-0.118467
H46	H	1.584219	-0.270351	-0.157953
H47	H	1.737764	-0.229046	-0.091820
H48	H	1.731357	-0.337509	-0.201359
O49	O	0.879981	-0.033099	0.000067
C50	C	0.748895	-0.017193	0.000110
H51	H	0.726400	0.056630	-0.043173
H52	H	0.702386	-0.073317	-0.066242
H53	H	0.711898	-0.022030	0.109775
H54	H	1.350913	-0.363754	0.000069
O55	O	1.653195	0.013507	0.641966
C56	C	1.579356	-0.045475	0.725237
H57	H	1.480061	-0.047778	0.681892
H58	H	1.622197	-0.120511	0.726875
H59	H	1.576104	-0.015833	0.834277
H60	H	1.357184	0.255506	0.630605
H61	H	1.357144	0.255506	0.369565
O62	O	1.138806	-0.028095	0.000035
C63	C	1.057408	-0.106006	0.000089
H64	H	0.962265	-0.082579	-0.043182
H65	H	1.099052	-0.165615	-0.066267
H66	H	1.045088	-0.132824	0.109756
