data_functionalizedCrystal
_audit_creation_method	'MofGen! by Chris Wilmer'
_symmetry_space_group_name_H-M	'P1'
_symmetry_Int_Tables_number	1
_symmetry_cell_setting	triclinic
loop_
_symmetry_equiv_pos_as_xyz
  x,y,z
_cell_length_a	14.853567
_cell_length_b	14.853567
_cell_length_c	9.730223
_cell_angle_alpha	90.002764
_cell_angle_beta	90.002458
_cell_angle_gamma	83.634930
loop_
_atom_site_label
_atom_site_type_symbol
_atom_site_fract_x
_atom_site_fract_y
_atom_site_fract_z
O1	O	0.117700	1.196360	-0.114183
O2	O	0.617700	1.696360	0.385817
O3	O	0.131722	0.933900	-0.114205
O4	O	0.631722	1.433900	0.385795
O5	O	-0.006519	1.072141	-0.114198
O6	O	0.493481	1.572141	0.385802
O7	O	0.255941	1.058119	-0.114191
O8	O	0.755941	1.558119	0.385809
O9	O	-0.006515	1.072139	0.114382
O10	O	0.493485	1.572139	0.614382
O11	O	0.131725	0.933898	0.114375
O12	O	0.631725	1.433898	0.614375
O13	O	0.117704	1.196358	0.114397
O14	O	0.617704	1.696358	0.614397
Zn15	Zn	0.124715	1.065128	0.150678
Zn16	Zn	0.624715	1.565128	0.650678
Zn17	Zn	0.124710	1.065130	-0.150486
Zn18	Zn	0.624710	1.565130	0.349514
O19	O	0.255944	1.058118	0.114389
O20	O	0.755944	1.558118	0.614389
C21	C	0.131088	0.900311	0.000082
C22	C	0.631088	1.400311	0.500082
C23	C	0.129184	0.800227	0.000073
C24	C	0.629184	1.300227	0.500073
C25	C	-0.040106	1.071504	0.000088
C26	C	0.459894	1.571504	0.500088
C27	C	-0.140189	1.069601	0.000076
C28	C	0.359811	1.569601	0.500076
C29	C	0.039019	0.387693	0.000101
C30	C	0.539019	0.887693	0.500101
C31	C	0.203251	0.366412	0.000104
C32	C	0.703251	0.866412	0.500104
C33	C	0.205042	0.460446	0.000100
C34	C	0.705042	0.960446	0.500100
C35	C	0.123819	0.518108	0.000094
C36	C	0.623819	1.018108	0.500094
C37	C	0.040806	0.481736	0.000092
C38	C	0.540806	0.981736	0.500092
C39	C	0.288053	0.496825	0.000087
C40	C	0.788053	0.996825	0.500087
C41	C	0.289846	0.590864	0.000081
C42	C	0.789846	1.090864	0.500081
C43	C	0.208623	0.648528	0.000085
C44	C	0.708623	1.148528	0.500085
C45	C	0.125607	0.612150	0.000085
C46	C	0.625607	1.112150	0.500085
C47	C	0.044384	0.669812	0.000080
C48	C	0.544384	1.169812	0.500080
C49	C	-0.038633	0.633437	0.000090
C50	C	0.461367	1.133437	0.500090
C51	C	-0.040417	0.539399	0.000096
C52	C	0.459583	1.039399	0.500096
C53	C	0.210407	0.742565	0.000078
C54	C	0.710407	1.242565	0.500078
C55	C	0.046172	0.763855	0.000071
C56	C	0.546172	1.263855	0.500071
C57	C	-0.552723	0.979435	0.000095
C58	C	-0.052723	1.479435	0.500095
C59	C	-0.574004	1.143668	0.000108
C60	C	-0.074004	1.643668	0.500108
C61	C	-0.479971	1.145458	0.000100
C62	C	0.020029	1.645458	0.500100
C63	C	-0.422309	1.064235	0.000092
C64	C	0.077691	1.564235	0.500092
C65	C	-0.458680	0.981223	0.000091
C66	C	0.041320	1.481223	0.500091
C67	C	-0.443591	1.228469	0.000115
C68	C	0.056409	1.728469	0.500115
C69	C	-0.349552	1.230262	0.000109
C70	C	0.150448	1.730262	0.500109
C71	C	-0.291889	1.149039	0.000090
C72	C	0.208111	1.649039	0.500090
C73	C	-0.328266	1.066023	0.000088
C74	C	0.171734	1.566023	0.500088
C75	C	-0.270604	0.984800	0.000079
C76	C	0.229396	1.484800	0.500079
C77	C	-0.306979	0.901783	0.000067
C78	C	0.193021	1.401783	0.500067
C79	C	-0.401017	0.899999	0.000072
C80	C	0.098983	1.399999	0.500072
C81	C	-0.197851	1.150823	0.000085
C82	C	0.302149	1.650823	0.500085
C83	C	-0.176561	0.986588	0.000075
C84	C	0.323439	1.486588	0.500075
C85	C	0.289531	1.058754	0.000100
C86	C	0.789531	1.558754	0.500100
C87	C	0.389615	1.060657	0.000103
C88	C	0.889615	1.560657	0.500103
C89	C	0.118337	1.229947	0.000107
C90	C	0.618337	1.729947	0.500107
C91	C	0.120241	1.330031	0.000107
C92	C	0.620241	1.830031	0.500107
N93	N	0.124718	1.065133	0.356214
N94	N	0.624718	1.565133	0.856214
N95	N	0.124701	1.065132	-0.356023
N96	N	0.624701	1.565132	0.143977
C97	C	0.063525	1.126362	0.428143
C98	C	0.563525	1.626362	0.928143
C99	C	0.063514	1.126359	0.572026
C100	C	0.563514	1.626359	1.072026
C101	C	0.185896	1.003897	0.572038
C102	C	0.685896	1.503897	1.072038
C103	C	0.185902	1.003896	0.428158
C104	C	0.685902	1.503896	0.928158
C105	C	0.002341	1.187599	0.356200
C106	C	0.502341	1.687599	0.856200
C107	C	-0.058855	1.248833	0.428129
C108	C	0.441145	1.748833	0.928129
C109	C	-0.058866	1.248831	0.572012
C110	C	0.441134	1.748831	1.072012
C111	C	0.002319	1.187594	0.643966
C112	C	0.502319	1.687594	1.143966
H113	H	-0.104764	0.680397	0.000075
H114	H	0.395236	1.180397	0.500075
H115	H	-0.108005	0.509774	0.000137
H116	H	0.391995	1.009774	0.500137
H117	H	0.002299	1.187592	0.761125
H118	H	0.502299	1.687592	1.261125
N119	N	-0.310321	1.319796	0.000122
N120	N	0.189679	1.819796	0.500122
H121	H	-0.361120	1.370977	0.000130
H122	H	0.138880	1.870977	0.500130
H123	H	-0.271775	1.324116	-0.084620
H124	H	0.228225	1.824116	0.415380
H125	H	0.235712	0.954042	0.630632
H126	H	0.735712	1.454042	1.130632
H127	H	-0.260019	0.835652	0.000069
H128	H	0.239981	1.335652	0.500069
H129	H	0.235729	0.954037	0.369592
H130	H	0.735729	1.454037	0.869592
H131	H	-0.582344	0.911844	0.000079
H132	H	-0.082344	1.411844	0.500079
H133	H	-0.019971	0.810798	0.000072
H134	H	0.480029	1.310798	0.500072
H135	H	-0.028572	0.358072	0.000114
H136	H	0.471428	0.858072	0.500114
N137	N	0.290852	0.304226	0.000096
N138	N	0.790852	0.804226	0.500096
H139	H	0.277123	0.239134	0.000096
H140	H	0.777123	0.739134	0.500096
H141	H	0.327025	0.316017	0.084834
H142	H	0.827025	0.816017	0.584834
H143	H	0.354180	0.449870	0.000078
H144	H	0.854180	0.949870	0.500078
H145	H	0.357443	0.620472	0.000073
H146	H	0.857443	1.120472	0.500073
H147	H	0.277998	0.772178	0.000073
H148	H	0.777998	1.272178	0.500073
N149	N	-0.124841	1.314879	0.350528
N150	N	0.375159	1.814879	0.850528
H151	H	-0.163610	1.353665	0.417932
H152	H	0.336390	1.853665	0.917932
H153	H	-0.164759	1.280323	0.290815
H154	H	0.335241	1.780323	0.790815
H155	H	-0.129618	0.920445	0.000062
H156	H	0.370382	1.420445	0.500062
N157	N	-0.158615	1.240350	0.000112
N158	N	0.341385	1.740350	0.500112
H159	H	-0.209413	1.291533	0.000127
H160	H	0.290587	1.791533	0.500127
H161	H	-0.120068	1.244676	-0.084627
H162	H	0.379932	1.744676	0.415373
H163	H	-0.108701	1.298684	0.630576
H164	H	0.391299	1.798684	1.130576
N165	N	-0.440249	0.810466	0.000065
N166	N	0.059751	1.310466	0.500065
H167	H	-0.508571	0.821661	0.000077
H168	H	-0.008571	1.321661	0.500077
H169	H	-0.419158	0.774921	0.084799
H170	H	0.080842	1.274921	0.584799
H171	H	-0.620958	1.209795	0.000126
H172	H	-0.120958	1.709795	0.500126
H173	H	-0.490546	1.294596	0.000135
H174	H	0.009454	1.794596	0.500135
N175	N	0.002358	1.187595	0.201014
N176	N	0.502358	1.687595	0.701014
H177	H	0.015595	1.248858	0.166365
H178	H	0.515595	1.748858	0.666365
H179	H	-0.058930	1.174375	0.166447
H180	H	0.441070	1.674375	0.666447
