data_functionalizedCrystal
_audit_creation_method	'MofGen! by Chris Wilmer'
_symmetry_space_group_name_H-M	'P1'
_symmetry_Int_Tables_number	1
_symmetry_cell_setting	triclinic
loop_
_symmetry_equiv_pos_as_xyz
  x,y,z
_cell_length_a	10.723023
_cell_length_b	14.044190
_cell_length_c	9.798715
_cell_angle_alpha	89.992011
_cell_angle_beta	89.996770
_cell_angle_gamma	88.829662
loop_
_atom_site_label
_atom_site_type_symbol
_atom_site_fract_x
_atom_site_fract_y
_atom_site_fract_z
O1	O	1.670502	0.133036	-0.113494
O2	O	1.308624	0.145772	-0.113502
O3	O	1.484127	0.001384	-0.113471
O4	O	1.495000	0.277424	-0.113525
O5	O	1.484113	0.001384	0.113511
O6	O	1.308610	0.145771	0.113481
O7	O	1.670488	0.133036	0.113488
Zn8	Zn	1.489547	0.139404	0.149523
Zn9	Zn	1.489565	0.139404	-0.149536
O10	O	1.494985	0.277424	0.113458
C11	C	1.262025	0.144845	-0.000011
C12	C	1.123193	0.142073	-0.000013
C13	C	1.061290	0.140836	0.117570
C14	C	0.917800	0.137971	0.117571
C15	C	1.479363	-0.033962	0.000024
C16	C	1.465175	-0.139280	0.000036
C17	C	1.539861	-0.389081	-0.000016
C18	C	1.439257	-0.332106	-0.000009
C19	C	1.453681	-0.224808	0.000016
C20	C	1.525438	-0.496389	-0.000041
C21	C	1.717087	0.133963	-0.000005
C22	C	1.855919	0.136735	-0.000013
C23	C	1.499749	0.312769	-0.000040
C24	C	1.513937	0.418088	-0.000061
N25	N	1.489543	0.139403	0.353622
N26	N	1.489578	0.139398	-0.353636
C27	C	1.563205	0.078511	0.421412
C28	C	1.563225	0.078508	0.578575
H29	H	0.864564	0.136913	0.218238
Cl30	Cl	1.689556	-0.339978	0.000008
Cl31	Cl	1.660604	-0.001979	0.668574
Cl32	Cl	1.143466	0.142475	0.272999
H33	H	0.909146	0.137804	-0.100685
Cl34	Cl	1.660249	-0.002190	0.331391
H35	H	1.342294	-0.363911	-0.000019
Cl36	Cl	1.392210	0.219897	0.556374
H37	H	1.069961	0.141007	-0.100679
H38	H	1.426487	0.191529	0.411936
