data_functionalizedCrystal
_audit_creation_method	'MofGen! by Chris Wilmer'
_symmetry_space_group_name_H-M	'P1'
_symmetry_Int_Tables_number	1
_symmetry_cell_setting	triclinic
loop_
_symmetry_equiv_pos_as_xyz
  x,y,z
_cell_length_a	11.026607
_cell_length_b	17.038272
_cell_length_c	10.065875
_cell_angle_alpha	99.426590
_cell_angle_beta	79.302338
_cell_angle_gamma	99.848786
loop_
_atom_site_label
_atom_site_type_symbol
_atom_site_fract_x
_atom_site_fract_y
_atom_site_fract_z
O1	O	1.661277	0.323101	-0.113507
O2	O	1.304065	0.285271	-0.113508
O3	O	1.480547	0.190072	-0.113497
O4	O	1.484796	0.418300	-0.113518
O5	O	1.446904	0.208319	0.113490
O6	O	1.270422	0.303517	0.113479
O7	O	1.627634	0.341348	0.113479
Zn8	Zn	1.443687	0.325329	0.149518
Zn9	Zn	1.488013	0.301289	-0.149547
O10	O	1.451153	0.436546	0.113468
C11	C	1.241312	0.287415	-0.000014
C12	C	1.104451	0.266610	-0.000014
C13	C	1.036576	0.324055	-0.000020
C14	C	0.895122	0.302554	-0.000020
C15	C	1.459863	0.169523	-0.000004
C16	C	1.448341	0.081107	-0.000004
C17	C	1.554125	0.045899	-0.000002
C18	C	1.543294	-0.037179	-0.000015
C19	C	1.426676	-0.085047	-0.000020
C20	C	1.320885	-0.049835	-0.000026
C21	C	1.331719	0.033241	-0.000022
C22	C	1.388403	-0.336200	-0.000039
C23	C	1.377576	-0.419281	-0.000038
C24	C	1.599986	-0.406621	-0.000030
C25	C	1.610809	-0.323543	-0.000019
C26	C	1.505019	-0.288338	-0.000032
C27	C	1.415601	-0.169966	-0.000029
C28	C	1.516096	-0.203421	-0.000032
C29	C	1.690387	0.339203	-0.000017
C30	C	1.827251	0.360008	-0.000026
C31	C	1.471837	0.457095	-0.000028
C32	C	1.483360	0.545511	-0.000036
N33	N	1.413444	0.341737	0.353622
N34	N	1.518264	0.284877	-0.353650
C35	C	1.477482	0.306992	0.421405
C36	C	1.454217	0.319627	0.578571
H37	H	1.057843	0.201508	-0.000043
N38	N	1.251790	-0.470914	-0.000045
H39	H	1.186416	-0.436007	-0.000057
H40	H	1.254936	-0.512420	-0.084191
N41	N	0.888988	0.446243	-0.000045
H42	H	0.875987	0.466796	-0.084196
H43	H	0.851020	0.480272	0.084148
N44	N	1.679905	0.097526	0.000016
H45	H	1.745274	0.062612	0.000012
H46	H	1.701719	0.125512	-0.084128
N47	N	1.358765	0.371418	0.655809
H48	H	1.400871	0.417854	0.715085
H49	H	1.319253	0.392810	0.588897
H50	H	1.083188	0.389155	-0.000019
N51	N	0.833398	0.216316	0.000005
H52	H	0.741097	0.213180	0.000007
H53	H	0.871432	0.182278	-0.084137
H54	H	1.549527	0.267887	0.363085
N55	N	1.657387	-0.075154	-0.000006
H56	H	1.732905	-0.032223	0.000010
H57	H	1.645253	-0.102587	0.084141
N58	N	1.736588	-0.271915	-0.000006
H59	H	1.801960	-0.306826	-0.000006
H60	H	1.758402	-0.243928	-0.084148
N61	N	1.289825	-0.221600	-0.000019
H62	H	1.230623	-0.203152	0.084129
H63	H	1.255665	-0.216654	-0.084214
N64	N	1.714082	-0.444591	-0.000014
H65	H	1.689529	-0.504482	-0.000016
H66	H	1.777010	-0.434067	-0.084159
H67	H	1.590314	0.245770	0.588033
H68	H	1.341390	0.380834	0.411944
H69	H	1.225934	-0.088816	-0.000038
N70	N	1.274305	-0.298234	-0.000047
H71	H	1.198787	-0.341166	-0.000043
H72	H	1.261482	-0.257280	0.084100
H73	H	1.245578	0.061906	-0.000024
N74	N	1.641869	-0.151793	-0.000012
H75	H	1.707247	-0.186699	-0.000005
H76	H	1.663684	-0.123808	-0.084156
