data_functionalizedCrystal
_audit_creation_method	'MofGen! by Chris Wilmer'
_symmetry_space_group_name_H-M	'P1'
_symmetry_Int_Tables_number	1
_symmetry_cell_setting	triclinic
loop_
_symmetry_equiv_pos_as_xyz
  x,y,z
_cell_length_a	19.188905
_cell_length_b	19.188930
_cell_length_c	8.965430
_cell_angle_alpha	89.995304
_cell_angle_beta	89.989084
_cell_angle_gamma	83.139668
loop_
_atom_site_label
_atom_site_type_symbol
_atom_site_fract_x
_atom_site_fract_y
_atom_site_fract_z
O1	O	0.926156	0.087079	-0.124302
O2	O	0.722842	0.098832	-0.124253
O3	O	0.830366	-0.008701	-0.124250
O4	O	0.818632	0.194612	-0.124305
O5	O	0.830357	-0.008694	0.123829
O6	O	0.722833	0.098839	0.123826
O7	O	0.926147	0.087086	0.123777
Cu8	Cu	0.824489	0.092963	0.146453
Cu9	Cu	0.824500	0.092955	-0.146929
O10	O	0.818623	0.194619	0.123774
C11	C	0.696826	0.098458	-0.000207
C12	C	0.619321	0.097324	-0.000187
C13	C	0.829982	-0.034708	-0.000206
C14	C	0.828841	-0.112213	-0.000193
C15	C	0.582934	0.096775	-0.135419
C16	C	0.510110	0.095702	-0.135437
C17	C	0.473678	0.095164	-0.000216
C18	C	0.510073	0.095716	0.135034
C19	C	0.582895	0.096796	0.135048
N20	N	0.364654	0.053738	0.100427
N21	N	0.295477	0.052711	0.100404
C22	C	0.254272	0.091911	-0.000251
N23	N	0.284857	0.132169	-0.100905
N24	N	0.354041	0.133194	-0.100887
C25	C	0.394716	0.093993	-0.000216
C26	C	0.138921	0.090200	-0.135512
C27	C	0.066095	0.089131	-0.135524
C28	C	0.066061	0.089138	0.134950
C29	C	0.138884	0.090214	0.134959
C30	C	0.175310	0.090742	-0.000276
C31	C	0.891933	-0.157142	-0.000201
C32	C	0.890861	-0.229966	-0.000224
C33	C	0.826694	-0.257857	-0.000210
C34	C	0.763594	-0.212917	-0.000210
C35	C	0.764668	-0.140095	-0.000202
N36	N	0.777643	-0.365855	0.084228
N37	N	0.776628	-0.435033	0.084223
C38	C	0.823456	-0.477265	-0.000239
N39	N	0.871349	-0.447706	-0.084678
N40	N	0.872366	-0.378522	-0.084666
C41	C	0.825523	-0.336819	-0.000220
C42	C	0.885390	-0.601159	-0.000275
C43	C	0.884315	-0.673984	-0.000308
C44	C	0.757047	-0.656933	-0.000279
C45	C	0.758123	-0.584110	-0.000261
C46	C	0.822296	-0.556228	-0.000252
C47	C	0.952163	0.087460	-0.000272
C48	C	1.029668	0.088594	-0.000302
C49	C	0.819007	0.220626	-0.000273
C50	C	0.820148	0.298131	-0.000296
N51	N	0.824487	0.092969	0.352802
N52	N	0.824508	0.092944	-0.353278
C53	C	0.774745	0.142683	0.450106
C54	C	0.837798	0.156032	0.549500
C55	C	0.761461	0.079625	0.549536
C56	C	0.887571	0.106350	0.450007
C57	C	0.811193	0.029915	0.450034
C58	C	0.874291	0.043238	0.549383
H59	H	0.612588	0.097205	-0.245538
H60	H	0.944187	-0.134445	-0.000198
H61	H	0.849057	0.209345	0.593191
H62	H	0.168580	0.090637	-0.245628
H63	H	0.036470	0.088689	-0.245651
C64	C	0.959603	0.121673	0.391200
N65	N	1.013856	0.133217	0.346902
H66	H	0.704801	-0.679641	-0.000275
C67	C	0.953725	-0.723407	-0.000309
N68	N	1.006006	-0.760634	-0.000303
H69	H	0.706747	-0.547527	-0.000246
H70	H	0.937644	-0.578456	-0.000275
C71	C	0.960269	-0.279398	-0.000224
N72	N	1.012548	-0.316627	-0.000219
H73	H	0.916410	0.001183	0.592699
C74	C	0.470077	0.095094	-0.284208
N75	N	0.439927	0.094634	-0.396263
H76	H	0.732719	0.184762	0.406517
H77	H	0.480405	0.095279	0.245131
C78	C	0.622922	0.097394	0.283820
N79	N	0.653072	0.097841	0.395877
H80	H	0.036398	0.088704	0.245050
H81	H	0.799914	-0.023380	0.406309
H82	H	0.168511	0.090656	0.245079
H83	H	0.713289	-0.103513	-0.000195
H84	H	0.708152	0.068349	0.593258
H85	H	0.711349	-0.235631	-0.000202
