data_functionalizedCrystal
_audit_creation_method	'MofGen! by Chris Wilmer'
_symmetry_space_group_name_H-M	'P1'
_symmetry_Int_Tables_number	1
_symmetry_cell_setting	triclinic
loop_
_symmetry_equiv_pos_as_xyz
  x,y,z
_cell_length_a	12.811438
_cell_length_b	12.837942
_cell_length_c	11.892095
_cell_angle_alpha	85.697431
_cell_angle_beta	91.498957
_cell_angle_gamma	90.586849
loop_
_atom_site_label
_atom_site_type_symbol
_atom_site_fract_x
_atom_site_fract_y
_atom_site_fract_z
O1	O	1.403420	-0.143206	0.049889
O2	O	1.903420	0.356794	0.549889
O3	O	1.101352	-0.156216	0.018916
O4	O	1.601352	0.343784	0.518916
O5	O	1.245687	0.001268	0.033723
O6	O	1.745687	0.501268	0.533723
O7	O	1.259084	-0.300691	0.035083
O8	O	1.759084	0.199309	0.535083
O9	O	1.233651	-0.011842	0.220496
O10	O	1.733651	0.488158	0.720496
O11	O	1.089315	-0.169327	0.205689
O12	O	1.589315	0.330673	0.705689
O13	O	1.391383	-0.156317	0.236662
O14	O	1.891383	0.343683	0.736662
Zn15	Zn	1.238438	-0.164903	0.250830
Zn16	Zn	1.738438	0.335097	0.750830
Zn17	Zn	1.254297	-0.147630	0.004749
Zn18	Zn	1.754297	0.352370	0.504749
O19	O	1.247048	-0.313801	0.221855
O20	O	1.747048	0.186199	0.721855
C21	C	1.056401	-0.161639	0.108311
C22	C	1.556401	0.338361	0.608311
C23	C	0.940395	-0.158254	0.096416
C24	C	1.440395	0.341746	0.596416
C25	C	0.783448	-0.146337	-0.022146
C26	C	1.283448	0.353663	0.477854
C27	C	0.892446	-0.149516	-0.010980
C28	C	1.392446	0.350484	0.489020
C29	C	0.879338	-0.163810	0.192652
C30	C	1.379338	0.336190	0.692652
C31	C	0.770340	-0.160630	0.181485
C32	C	1.270340	0.339370	0.681485
C33	C	0.722398	-0.151895	0.074083
C34	C	1.222398	0.348105	0.574083
C35	C	0.613397	-0.148723	0.062917
C36	C	1.113397	0.351277	0.562917
C37	C	0.600292	-0.163009	0.266547
C38	C	1.100292	0.336991	0.766547
C39	C	0.709290	-0.166188	0.277714
C40	C	1.209290	0.333812	0.777714
C41	C	1.235144	0.033386	0.126645
C42	C	1.735144	0.533386	0.626645
C43	C	1.221647	0.148619	0.125259
C44	C	1.721647	0.648619	0.625259
C45	C	1.436334	-0.150893	0.147265
C46	C	1.936334	0.349107	0.647265
C47	C	1.552340	-0.154278	0.159153
C48	C	2.052340	0.345722	0.659153
C49	C	1.257591	-0.345919	0.128931
C50	C	1.757591	0.154081	0.628931
C51	C	1.271089	-0.461152	0.130310
C52	C	1.771089	0.038848	0.630310
N53	N	1.227623	-0.176691	0.418774
N54	N	1.727623	0.323309	0.918774
C55	C	1.383906	0.387704	0.141873
C56	C	1.883906	0.887704	0.641873
C57	C	1.371229	0.495977	0.140571
C58	C	1.871229	0.995977	0.640571
C59	C	1.183619	0.473439	0.121346
C60	C	1.683619	0.973439	0.621346
C61	C	1.196295	0.365167	0.122648
C62	C	1.696295	0.865167	0.622648
C63	C	1.296442	0.322303	0.132913
C64	C	1.796442	0.822303	0.632913
C65	C	1.309117	0.214028	0.134223
C66	C	1.809117	0.714028	0.634223
C67	C	1.121508	0.191493	0.114990
C68	C	1.621508	0.691493	0.614990
C69	C	1.108831	0.299766	0.113688
C70	C	1.608831	0.799766	0.613688
N71	N	1.265120	-0.135834	-0.163195
N72	N	1.765120	0.364166	0.336805
C73	C	1.340373	-0.053747	0.666989
C74	C	1.840373	0.446253	1.166989
C75	C	1.332821	-0.061995	0.784556
C76	C	1.832821	0.438005	1.284556
C77	C	1.204963	-0.201428	0.771478
C78	C	1.704963	0.298572	1.271478
C79	C	1.212515	-0.193180	0.653910
C80	C	1.712515	0.306820	1.153910
C81	C	1.280223	-0.119339	0.601670
C82	C	1.780223	0.380661	1.101670
C83	C	1.287779	-0.111097	0.484102
C84	C	1.787779	0.388903	0.984102
C85	C	1.159916	-0.250525	0.471025
C86	C	1.659916	0.249475	0.971025
C87	C	1.152365	-0.258772	0.588592
C88	C	1.652365	0.241228	1.088592
H89	H	0.744413	-0.139236	-0.109598
H90	H	1.244413	0.360764	0.390402
H91	H	1.342914	-0.050974	0.441569
H92	H	1.842914	0.449026	0.941569
Br93	Br	1.078291	-0.339555	0.382369
Br94	Br	1.578291	0.160445	0.882369
Br95	Br	0.548334	-0.136875	-0.082841
Br96	Br	1.048334	0.363125	0.417159
Br97	Br	1.002798	0.102727	0.102849
Br98	Br	1.502798	0.602727	0.602849
H99	H	1.102085	0.508359	0.112976
H100	H	1.602085	1.008359	0.612976
H101	H	1.395511	0.006371	0.624455
H102	H	1.895511	0.506371	1.124455
Br103	Br	1.414451	0.027031	0.873200
Br104	Br	1.914451	0.527031	1.373200
H105	H	0.550573	-0.167539	0.344904
H106	H	1.050573	0.332461	0.844904
Br107	Br	0.972926	0.357948	0.099743
Br108	Br	1.472926	0.857948	0.599743
Br109	Br	1.113063	-0.301622	0.842384
Br110	Br	1.613063	0.198378	1.342384
H111	H	0.942149	-0.144990	-0.089339
H112	H	1.442149	0.355010	0.410661
Br113	Br	0.944420	-0.175659	0.338400
Br114	Br	1.444420	0.324341	0.838400
H115	H	1.097235	-0.318890	0.631139
H116	H	1.597235	0.181110	1.131139
Br117	Br	1.445027	0.155856	0.148166
Br118	Br	1.945027	0.655856	0.648166
Br119	Br	0.774363	-0.178042	0.423467
Br120	Br	1.274363	0.321958	0.923467
H121	H	1.465448	0.352804	0.150242
H122	H	1.965448	0.852804	0.650242
Br123	Br	1.489936	0.584734	0.152724
Br124	Br	1.989936	1.084734	0.652724
