data_functionalizedCrystal
_audit_creation_method	'MofGen! by Chris Wilmer'
_symmetry_space_group_name_H-M	'P1'
_symmetry_Int_Tables_number	1
_symmetry_cell_setting	triclinic
loop_
_symmetry_equiv_pos_as_xyz
  x,y,z
_cell_length_a	8.559649
_cell_length_b	19.188930
_cell_length_c	7.681481
_cell_angle_alpha	84.272277
_cell_angle_beta	94.913240
_cell_angle_gamma	76.461723
loop_
_atom_site_label
_atom_site_type_symbol
_atom_site_fract_x
_atom_site_fract_y
_atom_site_fract_z
O1	O	2.105137	-0.016273	-0.146396
O2	O	1.639679	0.019799	-0.146415
O3	O	1.885844	-0.100597	-0.146371
O4	O	1.858973	0.104122	-0.146440
O5	O	1.916143	-0.115446	0.146493
O6	O	1.669978	0.004950	0.146449
O7	O	2.135436	-0.031122	0.146467
Zn8	Zn	1.907518	-0.015443	0.192956
Zn9	Zn	1.867598	0.004120	-0.192904
O10	O	1.889272	0.089274	0.146423
C11	C	1.595280	0.015108	0.000015
C12	C	1.417842	0.023245	0.000010
C13	C	1.900124	-0.133987	0.000066
C14	C	1.897514	-0.211356	0.000081
C15	C	2.041954	-0.263833	0.000095
C16	C	2.039498	-0.336527	0.000067
C17	C	1.892597	-0.356742	0.000060
C18	C	1.748137	-0.304254	0.000036
C19	C	1.750595	-0.231561	0.000047
N20	N	1.790620	-0.463929	0.099722
N21	N	1.788294	-0.532986	0.099716
C22	C	1.885180	-0.575761	0.000024
N23	N	1.984505	-0.546875	-0.099639
N24	N	1.986836	-0.477813	-0.099625
C25	C	1.889914	-0.435564	0.000047
C26	C	2.026966	-0.707062	0.000005
C27	C	2.024502	-0.779757	-0.000034
C28	C	1.733139	-0.747483	-0.000048
C29	C	1.735605	-0.674790	-0.000026
C30	C	1.882524	-0.654585	0.000008
C31	C	2.179835	-0.026431	0.000033
C32	C	2.357272	-0.034568	0.000027
C33	C	1.874991	0.122664	-0.000018
C34	C	1.877600	0.200033	-0.000044
N35	N	1.934774	-0.028796	0.456295
N36	N	1.840354	0.017467	-0.456243
H37	H	1.441159	-0.090289	0.000037
O38	O	1.317800	0.089758	-0.000329
C39	C	1.217542	0.210306	-0.152041
C40	C	1.330877	0.135010	-0.151896
H41	H	1.228102	0.246917	-0.274550
H42	H	1.087423	0.205297	-0.152159
H43	H	1.253285	0.234461	-0.029431
H44	H	1.295282	0.110812	-0.274485
H45	H	1.460968	0.140065	-0.151686
H46	H	1.617987	-0.632061	-0.000028
H47	H	2.161586	-0.247387	0.000117
H48	H	2.031176	-0.076016	0.531518
O49	O	1.725162	0.073774	0.454231
C50	C	1.441196	0.132522	0.397419
C51	C	1.571490	0.068728	0.498961
H52	H	1.316920	0.128456	0.433517
H53	H	1.465390	0.185527	0.433575
H54	H	1.444823	0.130784	0.249876
H55	H	1.567937	0.070397	0.646528
H56	H	1.547251	0.015750	0.462659
H57	H	2.146595	-0.690610	0.000025
O58	O	2.179969	-0.387426	0.000164
C59	C	2.469209	-0.411767	0.000106
C60	C	2.310252	-0.354056	0.000036
H61	H	2.574580	-0.384807	-0.000036
H62	H	2.488119	-0.452822	0.122695
H63	H	2.462582	-0.440396	-0.122430
H64	H	2.316764	-0.325372	0.122488
H65	H	2.291399	-0.313048	-0.122635
O66	O	1.610141	-0.180677	0.000120
C67	C	1.320882	-0.156331	-0.000009
C68	C	1.479831	-0.214034	-0.000056
H69	H	1.215481	-0.183277	-0.000189
H70	H	1.327321	-0.127726	0.122592
H71	H	1.302167	-0.115258	-0.122534
H72	H	1.498644	-0.255153	0.122385
H73	H	1.473317	-0.242584	-0.122738
H74	H	2.142127	-0.822484	-0.000033
H75	H	1.628528	-0.320718	0.000026
H76	H	1.613528	-0.763941	-0.000062
