data_functionalizedCrystal
_audit_creation_method	'MofGen! by Chris Wilmer'
_symmetry_space_group_name_H-M	'P1'
_symmetry_Int_Tables_number	1
_symmetry_cell_setting	triclinic
loop_
_symmetry_equiv_pos_as_xyz
  x,y,z
_cell_length_a	16.109296
_cell_length_b	16.109304
_cell_length_c	7.540329
_cell_angle_alpha	89.997271
_cell_angle_beta	90.001564
_cell_angle_gamma	83.460964
loop_
_atom_site_label
_atom_site_type_symbol
_atom_site_fract_x
_atom_site_fract_y
_atom_site_fract_z
O1	O	-1.103131	-0.106847	0.147388
O2	O	-0.861068	-0.120151	0.147408
O3	O	-0.988748	0.007532	0.147398
O4	O	-0.975451	-0.234530	0.147397
O5	O	-0.988747	0.007539	-0.147567
O6	O	-0.861067	-0.120144	-0.147557
O7	O	-1.103130	-0.106840	-0.147577
Cu8	Cu	-0.982098	-0.113492	-0.174500
Cu9	Cu	-0.982100	-0.113500	0.174331
O10	O	-0.975450	-0.234523	-0.147568
C11	C	-0.830093	-0.119610	-0.000072
C12	C	-0.737797	-0.117996	-0.000063
C13	C	-0.428799	-0.188485	-0.000098
C14	C	-0.515519	-0.190009	-0.000087
C15	C	-0.535391	-0.038520	-0.000063
C16	C	-0.448672	-0.036997	-0.000061
C17	C	-0.395378	-0.111983	-0.000088
C18	C	-0.568817	-0.115029	-0.000078
C19	C	-0.662844	-0.116680	-0.000066
C20	C	-0.301346	-0.110331	-0.000097
C21	C	-0.134105	-0.107387	-0.000097
C22	C	-0.226398	-0.109015	-0.000103
C23	C	-0.988208	0.038510	-0.000080
C24	C	-0.986592	0.130805	-0.000068
C25	C	-0.975990	-0.265502	-0.000085
C26	C	-0.977606	-0.357797	-0.000086
C27	C	-0.982859	0.343139	0.160711
C28	C	-0.981333	0.429859	0.160710
C29	C	-0.981336	0.429863	-0.160877
C30	C	-0.982856	0.343144	-0.160874
C31	C	-0.983622	0.299785	-0.000074
C32	C	-0.980576	0.473224	-0.000079
C33	C	-0.978921	0.567250	-0.000082
C34	C	-0.985275	0.205753	-0.000071
N35	N	-0.982101	-0.113500	0.419679
N36	N	-0.982104	-0.113485	-0.419848
H37	H	-0.385409	-0.249543	-0.000119
Br38	Br	-0.560873	-0.293839	-0.000086
Br39	Br	-0.983878	0.284299	-0.379099
Br40	Br	-0.607723	0.063240	-0.000041
H41	H	-0.983480	0.307838	0.291645
H42	H	-0.421462	0.025304	-0.000047
Br43	Br	-0.980293	0.488693	0.378929
H44	H	-0.980715	0.465178	-0.291795
