data_functionalizedCrystal
_audit_creation_method	'MofGen! by Chris Wilmer'
_symmetry_space_group_name_H-M	'P1'
_symmetry_Int_Tables_number	1
_symmetry_cell_setting	triclinic
loop_
_symmetry_equiv_pos_as_xyz
  x,y,z
_cell_length_a	16.625548
_cell_length_b	16.625546
_cell_length_c	16.625539
_cell_angle_alpha	90.030397
_cell_angle_beta	90.022345
_cell_angle_gamma	90.022327
loop_
_atom_site_label
_atom_site_type_symbol
_atom_site_fract_x
_atom_site_fract_y
_atom_site_fract_z
Zn1	Zn	-1.232680	0.321003	-0.455936
Zn2	Zn	-0.982680	0.571003	-0.205936
Zn3	Zn	-0.732680	0.821003	0.044064
Zn4	Zn	-0.482680	1.071003	0.294064
Zn5	Zn	-1.232584	0.455846	-0.321098
Zn6	Zn	-0.982584	0.705846	-0.071098
Zn7	Zn	-0.732584	0.955846	0.178902
Zn8	Zn	-0.482584	1.205846	0.428902
Zn9	Zn	-1.097842	0.321031	-0.321112
Zn10	Zn	-0.847842	0.571031	-0.071112
Zn11	Zn	-0.597842	0.821031	0.178888
Zn12	Zn	-0.347842	1.071031	0.428888
Zn13	Zn	-1.097813	0.455797	-0.455884
Zn14	Zn	-0.847813	0.705797	-0.205884
Zn15	Zn	-0.597813	0.955797	0.044116
Zn16	Zn	-0.347813	1.205797	0.294116
O17	O	-1.165230	0.388419	-0.388507
O18	O	-0.915230	0.638419	-0.138507
O19	O	-0.665230	0.888419	0.111493
O20	O	-0.415230	1.138419	0.361493
O21	O	-1.345500	0.338899	-0.438065
O22	O	-1.095500	0.588899	-0.188065
O23	O	-0.845500	0.838899	0.061935
O24	O	-0.595500	1.088899	0.311935
O25	O	-1.214682	0.437995	-0.208268
O26	O	-0.964682	0.687995	0.041732
O27	O	-0.714682	0.937995	0.291732
O28	O	-0.464682	1.187995	0.541732
O29	O	-1.115782	0.208195	-0.339024
O30	O	-0.865782	0.458195	-0.089024
O31	O	-0.615782	0.708195	0.160976
O32	O	-0.365782	0.958195	0.410976
O33	O	-1.345429	0.437968	-0.339001
O34	O	-1.095429	0.687968	-0.089001
O35	O	-0.845429	0.937968	0.160999
O36	O	-0.595429	1.187968	0.410999
O37	O	-1.214847	0.208174	-0.438079
O38	O	-0.964847	0.458174	-0.188079
O39	O	-0.714847	0.708174	0.061921
O40	O	-0.464847	0.958174	0.311921
O41	O	-1.115688	0.338947	-0.208278
O42	O	-0.865688	0.588947	0.041722
O43	O	-0.615688	0.838947	0.291722
O44	O	-0.365688	1.088947	0.541722
O45	O	-0.985006	0.338899	-0.338974
O46	O	-0.735006	0.588899	-0.088974
O47	O	-0.485006	0.838899	0.161026
O48	O	-0.235006	1.088899	0.411026
O49	O	-1.115731	0.437884	-0.568723
O50	O	-0.865731	0.687884	-0.318723
O51	O	-0.615731	0.937884	-0.068723
O52	O	-0.365731	1.187884	0.181277
O53	O	-0.984984	0.437911	-0.437990
O54	O	-0.734984	0.687911	-0.187990
O55	O	-0.484984	0.937911	0.062010
O56	O	-0.234984	1.187911	0.312010
O57	O	-1.214818	0.338852	-0.568761
O58	O	-0.964818	0.588852	-0.318761
O59	O	-0.714818	0.838852	-0.068761
O60	O	-0.464818	1.088852	0.181239
O61	O	-1.214653	0.568672	-0.338950
O62	O	-0.964653	0.818672	-0.088950
O63	O	-0.714653	1.068672	0.161050
O64	O	-0.464653	1.318672	0.411050
O65	O	-1.115637	0.568636	-0.437977
O66	O	-0.865637	0.818636	-0.187977
O67	O	-0.615637	1.068636	0.062023
O68	O	-0.365637	1.318636	0.312023
C69	C	-0.955739	0.388404	-0.388478
C70	C	-0.705739	0.638404	-0.138478
C71	C	-0.455739	0.888404	0.111522
C72	C	-0.205739	1.138404	0.361522
C73	C	-0.866118	0.388416	-0.388485
C74	C	-0.616118	0.638416	-0.138485
C75	C	-0.366118	0.888416	0.111515
C76	C	-0.116118	1.138416	0.361515
C77	C	-1.165153	0.597910	-0.388474
C78	C	-0.915153	0.847910	-0.138474
C79	C	-0.665153	1.097910	0.111526
C80	C	-0.415153	1.347910	0.361526
C81	C	-1.165195	0.687531	-0.388486
C82	C	-0.915195	0.937531	-0.138486
C83	C	-0.665195	1.187531	0.111514
C84	C	-0.415195	1.437531	0.361514
C85	C	-0.537942	0.388414	-0.388509
C86	C	-0.287942	0.638414	-0.138509
C87	C	-0.037942	0.888414	0.111491
C88	C	0.212058	1.138414	0.361491
C89	C	-0.629251	0.388413	-0.388500
C90	C	-0.379251	0.638413	-0.138500
C91	C	-0.129251	0.888413	0.111500
C92	C	0.120749	1.138413	0.361500
C93	C	-0.702027	0.388416	-0.388497
C94	C	-0.452027	0.638416	-0.138497
C95	C	-0.202027	0.888416	0.111503
C96	C	0.047973	1.138416	0.361503
C97	C	-0.793341	0.388413	-0.388489
C98	C	-0.543341	0.638413	-0.138489
C99	C	-0.293341	0.888413	0.111511
C100	C	-0.043341	1.138413	0.361511
C101	C	-1.165282	0.388359	-0.598816
C102	C	-0.915282	0.638359	-0.348816
C103	C	-0.665282	0.888359	-0.098816
C104	C	-0.415282	1.138359	0.151184
C105	C	-1.165305	0.388334	-0.688438
C106	C	-0.915305	0.638334	-0.438438
C107	C	-0.665305	0.888334	-0.188438
C108	C	-0.415305	1.138334	0.061562
C109	C	-0.375539	0.388431	-0.388529
C110	C	-0.125539	0.638431	-0.138529
C111	C	0.124461	0.888431	0.111471
C112	C	0.374461	1.138431	0.361471
C113	C	-0.465160	0.388422	-0.388519
C114	C	-0.215160	0.638422	-0.138519
C115	C	0.034840	0.888422	0.111481
C116	C	0.284840	1.138422	0.361481
C117	C	-1.165328	0.178111	-0.388559
C118	C	-0.915328	0.428111	-0.138559
C119	C	-0.665328	0.678111	0.111441
C120	C	-0.415328	0.928111	0.361441
C121	C	-1.165370	0.088489	-0.388581
C122	C	-0.915370	0.338489	-0.138581
C123	C	-0.665370	0.588489	0.111419
C124	C	-0.415370	0.838489	0.361419
C125	C	-1.165335	1.015707	-0.388570
C126	C	-0.915335	1.265707	-0.138570
C127	C	-0.665335	1.515707	0.111430
C128	C	-0.415335	1.765707	0.361430
C129	C	-1.165294	0.924399	-0.388549
C130	C	-0.915294	1.174399	-0.138549
C131	C	-0.665294	1.424399	0.111451
C132	C	-0.415294	1.674399	0.361451
C133	C	-1.165264	0.851622	-0.388528
C134	C	-0.915264	1.101622	-0.138528
C135	C	-0.665264	1.351622	0.111472
C136	C	-0.415264	1.601622	0.361472
C137	C	-1.165224	0.760308	-0.388508
C138	C	-0.915224	1.010308	-0.138508
C139	C	-0.665224	1.260308	0.111492
C140	C	-0.415224	1.510308	0.361492
C141	C	-1.165342	0.388243	-1.016614
C142	C	-0.915342	0.638243	-0.766614
C143	C	-0.665342	0.888243	-0.516614
C144	C	-0.415342	1.138243	-0.266614
C145	C	-1.165329	0.388271	-0.925305
C146	C	-0.915329	0.638271	-0.675305
C147	C	-0.665329	0.888271	-0.425305
C148	C	-0.415329	1.138271	-0.175305
C149	C	-1.165324	0.388289	-0.852529
C150	C	-0.915324	0.638289	-0.602529
C151	C	-0.665324	0.888289	-0.352529
C152	C	-0.415324	1.138289	-0.102529
C153	C	-1.165310	0.388316	-0.761214
C154	C	-0.915310	0.638316	-0.511214
C155	C	-0.665310	0.888316	-0.261214
C156	C	-0.415310	1.138316	-0.011214
C157	C	-1.165224	0.388421	-0.179017
C158	C	-0.915224	0.638421	0.070983
C159	C	-0.665224	0.888421	0.320983
C160	C	-0.415224	1.138421	0.570983
C161	C	-1.165358	0.388220	-0.089396
C162	C	-0.915358	0.638220	0.160604
C163	C	-0.665358	0.888220	0.410604
C164	C	-0.415358	1.138220	0.660604
