data_functionalizedCrystal
_audit_creation_method	'MofGen! by Chris Wilmer'
_symmetry_space_group_name_H-M	'P1'
_symmetry_Int_Tables_number	1
_symmetry_cell_setting	triclinic
loop_
_symmetry_equiv_pos_as_xyz
  x,y,z
_cell_length_a	18.215407
_cell_length_b	19.121063
_cell_length_c	18.215399
_cell_angle_alpha	92.407307
_cell_angle_beta	89.983176
_cell_angle_gamma	92.469446
loop_
_atom_site_label
_atom_site_type_symbol
_atom_site_fract_x
_atom_site_fract_y
_atom_site_fract_z
Zn1	Zn	1.112538	-0.279596	-0.428595
Zn2	Zn	1.445871	0.053738	-0.095262
Zn3	Zn	1.779204	0.387071	0.238071
Zn4	Zn	1.107196	-0.397056	-0.310772
Zn5	Zn	1.440529	-0.063722	0.022562
Zn6	Zn	1.773862	0.269611	0.355895
Zn7	Zn	0.989475	-0.279624	-0.305544
Zn8	Zn	1.322809	0.053710	0.027790
Zn9	Zn	1.656142	0.387043	0.361123
Zn10	Zn	0.984181	-0.397012	-0.433795
Zn11	Zn	1.317515	-0.063678	-0.100461
Zn12	Zn	1.650848	0.269655	0.232872
O13	O	1.048347	-0.338322	-0.369676
O14	O	1.381681	-0.004988	-0.036343
O15	O	1.715014	0.328345	0.296990
O16	O	1.214813	-0.295184	-0.412978
O17	O	1.548146	0.038149	-0.079644
O18	O	1.881480	0.371483	0.253689
O19	O	1.091560	-0.381508	-0.207095
O20	O	1.424893	-0.048175	0.126238
O21	O	1.758227	0.285159	0.459572
O22	O	1.010251	-0.181336	-0.317503
O23	O	1.343584	0.151998	0.015830
O24	O	1.676918	0.485331	0.349164
O25	O	1.210888	-0.381481	-0.326413
O26	O	1.544222	-0.048148	0.006920
O27	O	1.877555	0.285186	0.340254
O28	O	1.100664	-0.181315	-0.407908
O29	O	1.433997	0.152018	-0.074575
O30	O	1.767331	0.485352	0.258758
O31	O	1.005071	-0.295231	-0.203254
O32	O	1.338404	0.038102	0.130079
O33	O	1.671738	0.371435	0.463412
O34	O	0.885789	-0.295189	-0.322545
O35	O	1.219122	0.038145	0.010789
O36	O	1.552456	0.371478	0.344122
O37	O	1.001228	-0.381406	-0.536088
O38	O	1.334561	-0.048073	-0.202754
O39	O	1.667895	0.285261	0.130579
O40	O	0.881900	-0.381433	-0.416770
O41	O	1.215233	-0.048100	-0.083437
O42	O	1.548566	0.285234	0.249897
O43	O	1.095531	-0.295141	-0.532268
O44	O	1.428864	0.038192	-0.198935
O45	O	1.762197	0.371526	0.134399
O46	O	1.086427	-0.495334	-0.331455
O47	O	1.419760	-0.162001	0.001879
O48	O	1.753093	0.171332	0.335212
O49	O	0.996048	-0.495302	-0.421839
O50	O	1.329382	-0.161969	-0.088506
O51	O	1.662715	0.171365	0.244828
C52	C	0.857142	-0.338310	-0.369655
C53	C	1.190475	-0.004976	-0.036321
C54	C	1.523808	0.328357	0.297012
C55	C	0.775342	-0.338321	-0.369664
C56	C	1.108676	-0.004988	-0.036330
C57	C	1.442009	0.328345	0.297003
C58	C	0.585139	-0.383299	-0.418671
C59	C	0.918473	-0.049966	-0.085337
C60	C	1.251806	0.283367	0.247996
C61	C	0.508280	-0.383302	-0.418680
C62	C	0.841614	-0.049968	-0.085347
C63	C	1.174947	0.283365	0.247987
C64	C	0.512307	-0.293357	-0.320698
C65	C	0.845640	0.039977	0.012635
C66	C	1.178974	0.373310	0.345968
C67	C	0.589165	-0.293351	-0.320693
C68	C	0.922498	0.039982	0.012640
C69	C	1.255831	0.373315	0.345973
C70	C	0.625579	-0.338327	-0.369679
C71	C	0.958912	-0.004993	-0.036345
C72	C	1.292245	0.328340	0.296988
C73	C	0.471862	-0.338334	-0.369693
C74	C	0.805196	-0.005001	-0.036360
C75	C	1.138529	0.328332	0.296974
C76	C	0.388528	-0.338336	-0.369703
C77	C	0.721862	-0.005003	-0.036369
C78	C	1.055195	0.328330	0.296964
C79	C	0.708918	-0.338324	-0.369670
C80	C	1.042251	-0.004991	-0.036337
C81	C	1.375584	0.328343	0.296997
C82	C	1.040103	-0.520802	-0.377794
C83	C	1.373437	-0.187469	-0.044461
C84	C	1.706770	0.145865	0.288872
C85	C	1.036644	-0.598868	-0.381292
C86	C	1.369977	-0.265535	-0.047958
C87	C	1.703310	0.067799	0.285375
C88	C	1.082110	-0.635537	-0.335916
C89	C	1.415443	-0.302204	-0.002582
C90	C	1.748777	0.031130	0.330751
C91	C	1.078861	-0.708888	-0.339209
C92	C	1.412194	-0.375555	-0.005876
C93	C	1.745527	-0.042222	0.327457
C94	C	1.030141	-0.745569	-0.387876
C95	C	1.363474	-0.412236	-0.054543
C96	C	1.696808	-0.078902	0.278791
C97	C	0.984673	-0.708895	-0.433257
C98	C	1.318006	-0.375562	-0.099924
C99	C	1.651339	-0.042228	0.233409
C100	C	0.987926	-0.635545	-0.429967
C101	C	1.321260	-0.302212	-0.096633
C102	C	1.654593	0.031122	0.236700
C103	C	1.017965	-0.967039	-0.400167
C104	C	1.351298	-0.633705	-0.066834
C105	C	1.684631	-0.300372	0.266499
C106	C	1.014713	-1.040394	-0.403453
C107	C	1.348046	-0.707060	-0.070119
C108	C	1.681380	-0.373727	0.263214
C109	C	1.108902	-1.040382	-0.309405
C110	C	1.442236	-0.707049	0.023928
C111	C	1.775569	-0.373715	0.357261
C112	C	1.112149	-0.967031	-0.306116
C113	C	1.445482	-0.633697	0.027217
C114	C	1.778815	-0.300364	0.360551
C115	C	1.066683	-0.930363	-0.351500
C116	C	1.400016	-0.597030	-0.018167
C117	C	1.733350	-0.263696	0.315167
C118	C	1.026817	-0.820546	-0.391242
C119	C	1.360150	-0.487212	-0.057909
C120	C	1.693483	-0.153879	0.275424
C121	C	1.070012	-0.855387	-0.348137
C122	C	1.403345	-0.522054	-0.014804
C123	C	1.736678	-0.188721	0.318530
C124	C	1.240300	-0.338334	-0.369698
C125	C	1.573633	-0.005001	-0.036365
C126	C	1.906966	0.328332	0.296968
C127	C	1.322098	-0.338340	-0.369708
C128	C	1.655432	-0.005006	-0.036375
C129	C	1.988765	0.328327	0.296959
C130	C	1.048385	-0.338266	-0.561627
C131	C	1.381718	-0.004932	-0.228293
C132	C	1.715051	0.328401	0.105040
C133	C	1.048401	-0.338242	-0.643425
C134	C	1.381734	-0.004908	-0.310091
C135	C	1.715067	0.328425	0.023242
C136	C	1.056644	-0.155129	-0.361543
C137	C	1.389977	0.178205	-0.028209
C138	C	1.723311	0.511538	0.305124
C139	C	1.060179	-0.077063	-0.358077
C140	C	1.393513	0.256271	-0.024743
C141	C	1.726846	0.589604	0.308590
C142	C	1.003407	-0.293287	-0.829618
C143	C	1.336740	0.040046	-0.496285
C144	C	1.670074	0.373380	-0.162952
C145	C	1.003420	-0.293273	-0.906476
C146	C	1.336754	0.040060	-0.573143
C147	C	1.670087	0.373394	-0.239810
C148	C	1.093486	-0.383112	-0.910465
C149	C	1.426819	-0.049779	-0.577132
C150	C	1.760153	0.283554	-0.243799
C151	C	1.093468	-0.383130	-0.833609
C152	C	1.426801	-0.049796	-0.500275
C153	C	1.760135	0.283537	-0.166942
C154	C	1.048430	-0.338213	-0.793187
C155	C	1.381763	-0.004880	-0.459854
C156	C	1.715097	0.328454	-0.126520
C157	C	1.048461	-0.338182	-0.946902
C158	C	1.381795	-0.004848	-0.613568
C159	C	1.715128	0.328485	-0.280235
C160	C	1.048476	-0.338167	-1.030235
C161	C	1.381809	-0.004833	-0.696901
C162	C	1.715143	0.328500	-0.363568
C163	C	1.048414	-0.338229	-0.709849
C164	C	1.381747	-0.004895	-0.376515
C165	C	1.715081	0.328438	-0.043182
C166	C	1.048355	-0.338327	-0.178470
C167	C	1.381688	-0.004994	0.154863
C168	C	1.715022	0.328340	0.488196
C169	C	1.048491	-0.338153	-0.096664
C170	C	1.381824	-0.004820	0.236669
C171	C	1.715157	0.328514	0.570003
H172	H	0.482649	-0.256740	-0.280815
H173	H	0.815983	0.076593	0.052518
H174	H	1.149316	0.409926	0.385851
H175	H	0.975048	-1.070257	-0.443096
H176	H	1.308381	-0.736924	-0.109763
H177	H	1.641715	-0.403590	0.223571
H178	H	1.109682	-0.825520	-0.308515
H179	H	1.443015	-0.492187	0.024818
H180	H	1.776349	-0.158853	0.358152
Cl181	Cl	0.946807	-0.236801	-0.952273
Cl182	Cl	1.280141	0.096532	-0.618940
Cl183	Cl	1.613474	0.429865	-0.285606
H184	H	1.130133	-0.419716	-0.803946
H185	H	1.463466	-0.086383	-0.470612
H186	H	1.796800	0.246950	-0.137279
Cl187	Cl	1.150104	-0.439574	-0.961286
Cl188	Cl	1.483438	-0.106241	-0.627953
Cl189	Cl	1.816771	0.227093	-0.294619
H190	H	0.614785	-0.419920	-0.458559
H191	H	0.948118	-0.086586	-0.125226
H192	H	1.281452	0.246747	0.208107
H193	H	0.475358	-0.419922	-0.458575
H194	H	0.808691	-0.086589	-0.125242
H195	H	1.142025	0.246745	0.208091
H196	H	0.987147	-0.850419	-0.430866
H197	H	1.320481	-0.517086	-0.097532
H198	H	1.653814	-0.183753	0.235801
H199	H	0.966734	-0.256713	-0.796709
H200	H	1.300067	0.076620	-0.463376
H201	H	1.633401	0.409954	-0.130043
H202	H	1.121780	-0.605676	-0.296283
H203	H	1.455113	-0.272343	0.037051
H204	H	1.788446	0.060990	0.370384
Cl205	Cl	0.640007	-0.236805	-0.259102
Cl206	Cl	0.973340	0.096528	0.074231
Cl207	Cl	1.306674	0.429862	0.407564
H208	H	0.980943	-0.937189	-0.437119
H209	H	1.314277	-0.603856	-0.103786
H210	H	1.647610	-0.270523	0.229547
Cl211	Cl	0.923429	-0.755008	-0.494443
Cl212	Cl	1.256762	-0.421675	-0.161110
Cl213	Cl	1.590095	-0.088341	0.172224
H214	H	1.115884	-0.738741	-0.302259
H215	H	1.449217	-0.405408	0.031075
H216	H	1.782550	-0.072074	0.364408
H217	H	1.145919	-1.070245	-0.272458
H218	H	1.479252	-0.736911	0.060876
H219	H	1.812586	-0.403578	0.394209
Cl220	Cl	0.930768	-0.589447	-0.487016
Cl221	Cl	1.264102	-0.256113	-0.153683
Cl222	Cl	1.597435	0.077220	0.179651
Cl223	Cl	1.173409	-0.920923	-0.244943
Cl224	Cl	1.506743	-0.587590	0.088390
Cl225	Cl	1.840076	-0.254256	0.421724
