data_functionalizedCrystal
_audit_creation_method	'MofGen! by Chris Wilmer'
_symmetry_space_group_name_H-M	'P1'
_symmetry_Int_Tables_number	1
_symmetry_cell_setting	triclinic
loop_
_symmetry_equiv_pos_as_xyz
  x,y,z
_cell_length_a	17.038272
_cell_length_b	23.532407
_cell_length_c	16.098538
_cell_angle_alpha	92.700973
_cell_angle_beta	87.069734
_cell_angle_gamma	86.980117
loop_
_atom_site_label
_atom_site_type_symbol
_atom_site_fract_x
_atom_site_fract_y
_atom_site_fract_z
O1	O	1.039966	0.121251	-0.069166
O2	O	1.539966	0.621251	0.430834
O3	O	0.812351	0.119288	-0.069191
O4	O	1.312351	0.619288	0.430809
O5	O	0.933021	0.037699	-0.069163
O6	O	1.433021	0.537699	0.430837
O7	O	0.919295	0.202840	-0.069195
O8	O	1.419295	0.702840	0.430805
O9	O	0.925973	0.042445	0.069349
O10	O	1.425973	0.542445	0.569349
O11	O	0.805302	0.124034	0.069321
O12	O	1.305302	0.624034	0.569321
O13	O	1.032917	0.125997	0.069345
O14	O	1.532917	0.625997	0.569345
Zn15	Zn	0.917990	0.125769	0.091324
Zn16	Zn	1.417990	0.625769	0.591324
Zn17	Zn	0.927278	0.119516	-0.091170
Zn18	Zn	1.427278	0.619516	0.408830
O19	O	0.912247	0.207586	0.069317
O20	O	1.412247	0.707586	0.569317
C21	C	0.779712	0.119875	0.000062
C22	C	1.279712	0.619875	0.500062
C23	C	0.692959	0.114548	0.000054
C24	C	1.192959	0.614548	0.500054
C25	C	0.642483	0.163453	0.000045
C26	C	1.142483	0.663453	0.500045
C27	C	0.560969	0.158445	0.000057
C28	C	1.060969	0.658445	0.500057
C29	C	0.529932	0.104532	0.000072
C30	C	1.029932	0.604532	0.500072
C31	C	0.580415	0.055624	0.000084
C32	C	1.080415	0.555624	0.500084
C33	C	0.661927	0.060632	0.000077
C34	C	1.161927	0.560632	0.500077
C35	C	0.284304	0.086837	0.000098
C36	C	0.784304	0.586837	0.500098
C37	C	0.202786	0.081832	0.000102
C38	C	0.702786	0.581832	0.500102
C39	C	0.183345	0.184654	0.000077
C40	C	0.683345	0.684654	0.500077
C41	C	0.264860	0.189657	0.000066
C42	C	0.764860	0.689657	0.500066
C43	C	0.315335	0.140750	0.000081
C44	C	0.815335	0.640750	0.500081
C45	C	0.446612	0.099411	0.000083
C46	C	0.946612	0.599411	0.500083
C47	C	0.398653	0.145871	0.000077
C48	C	0.898653	0.645871	0.500077
C49	C	0.929147	0.018838	0.000095
C50	C	1.429147	0.518838	0.500095
C51	C	0.928096	-0.044434	0.000101
C52	C	1.428096	0.455566	0.500101
C53	C	0.992917	-0.440131	0.000063
C54	C	1.492917	0.059869	0.500063
C55	C	0.991941	-0.499583	0.000056
C56	C	1.491941	0.000417	0.500056
O57	O	1.052030	-0.533169	0.000032
O58	O	1.552030	-0.033169	0.500032
N59	N	0.920202	-0.525981	0.000049
N60	N	1.420202	-0.025981	0.500049
C61	C	0.849435	-0.492924	0.000040
C62	C	1.349435	0.007076	0.500040
O63	O	0.788325	-0.520836	0.000033
O64	O	1.288325	-0.020836	0.500033
C65	C	0.850412	-0.433473	0.000041
C66	C	1.350412	0.066527	0.500041
C67	C	0.922155	-0.407078	0.000056
C68	C	1.422155	0.092922	0.500056
C69	C	1.064654	-0.413736	0.000077
C70	C	1.564654	0.086264	0.500077
C71	C	1.065630	-0.354288	0.000085
C72	C	1.565630	0.145712	0.500085
C73	C	0.994868	-0.321236	0.000079
C74	C	1.494868	0.178764	0.500079
C75	C	0.923131	-0.347631	0.000064
C76	C	1.423131	0.152369	0.500064
C77	C	0.779646	-0.400418	0.000026
C78	C	1.279646	0.099582	0.500026
C79	C	0.780629	-0.340963	0.000025
C80	C	1.280629	0.159037	0.500025
C81	C	0.852372	-0.314569	0.000041
C82	C	1.352372	0.185431	0.500041
C83	C	0.853344	-0.255130	0.000066
C84	C	1.353344	0.244870	0.500066
N85	N	0.925083	-0.228732	0.000073
N86	N	1.425083	0.271268	0.500073
C87	C	0.995845	-0.261785	0.000079
C88	C	1.495845	0.238215	0.500079
C89	C	0.847388	-0.617774	0.000038
C90	C	1.347388	-0.117774	0.500038
C91	C	0.846410	-0.677223	0.000043
C92	C	1.346410	-0.177223	0.500043
C93	C	0.988917	-0.683878	0.000058
C94	C	1.488917	-0.183878	0.500058
C95	C	0.989894	-0.624428	0.000058
C96	C	1.489894	-0.124428	0.500058
C97	C	0.919127	-0.591376	0.000045
C98	C	1.419127	-0.091376	0.500045
C99	C	0.997889	-0.136940	0.000097
C100	C	1.497889	0.363060	0.500097
C101	C	0.998858	-0.077487	0.000108
C102	C	1.498858	0.422513	0.500108
C103	C	0.856352	-0.070837	0.000089
C104	C	1.356352	0.429163	0.500089
C105	C	0.855382	-0.130285	0.000082
C106	C	1.355382	0.369715	0.500082
C107	C	0.926157	-0.163336	0.000083
C108	C	1.426157	0.336664	0.500083
O109	O	0.793287	-0.221508	0.000086
O110	O	1.293287	0.278492	0.500086
O111	O	1.056945	-0.233865	0.000076
O112	O	1.556945	0.266135	0.500076
C113	C	1.065556	0.125410	0.000090
C114	C	1.565556	0.625410	0.500090
C115	C	1.152310	0.130737	0.000093
C116	C	1.652310	0.630737	0.500093
C117	C	0.916121	0.226447	0.000057
C118	C	1.416121	0.726447	0.500057
C119	C	0.917172	0.289719	0.000045
C120	C	1.417172	0.789719	0.500045
N121	N	0.911658	0.130036	0.215872
N122	N	1.411658	0.630036	0.715872
N123	N	0.933616	0.115244	-0.215718
N124	N	1.433616	0.615244	0.284282
C125	C	0.962894	0.095421	0.259469
C126	C	1.462894	0.595421	0.759469
C127	C	0.958471	0.098412	0.346657
C128	C	1.458471	0.598412	0.846657
C129	C	0.902816	0.136022	0.390246
C130	C	1.402816	0.636022	0.890246
C131	C	0.851574	0.170639	0.346643
C132	C	1.351574	0.670639	0.846643
C133	C	0.855994	0.167644	0.259457
C134	C	1.355994	0.667644	0.759457
C135	C	0.886795	0.146867	0.653493
C136	C	1.386795	0.646867	1.153493
C137	C	0.882380	0.149860	0.740685
C138	C	1.382380	0.649860	1.240685
C139	C	0.989277	0.077632	0.740693
C140	C	1.489277	0.577632	1.240693
C141	C	0.993694	0.074644	0.653505
C142	C	1.493694	0.574644	1.153505
C143	C	0.942450	0.109258	0.609909
C144	C	1.442450	0.609258	1.109909
C145	C	0.898295	0.139081	0.479366
C146	C	1.398295	0.639081	0.979366
C147	C	0.946968	0.106195	0.520791
C148	C	1.446968	0.606195	1.020791
H149	H	0.142240	0.224472	0.000066
H150	H	0.642240	0.724472	0.500066
H151	H	1.057282	-0.055999	0.000123
H152	H	1.557282	0.444001	0.500123
H153	H	0.555138	0.011727	0.000108
H154	H	1.055138	0.511727	0.500108
H155	H	1.000191	0.070225	0.382153
H156	H	1.500191	0.570225	0.882153
H157	H	0.992280	0.075571	0.485298
H158	H	1.492280	0.575571	0.985298
O159	O	0.416494	0.047033	0.000235
O160	O	0.916494	0.547033	0.500235
C161	C	0.438703	0.019428	0.071961
C162	C	0.938703	0.519428	0.571961
H163	H	0.452882	0.052599	0.122097
H164	H	0.952882	0.552599	0.622097
H165	H	0.388283	-0.006359	0.096045
H166	H	0.888283	0.493641	0.596045
H167	H	0.492899	-0.010278	0.055740
H168	H	0.992899	0.489722	0.555740
H169	H	0.789757	-0.590866	0.000034
H170	H	1.289757	-0.090866	0.500034
O171	O	0.172765	0.029416	0.000153
O172	O	0.672765	0.529416	0.500153
C173	C	0.234794	-0.012679	0.000144
C174	C	0.734794	0.487321	0.500144
H175	H	0.288718	0.006858	0.026365
H176	H	0.788718	0.506858	0.526365
H177	H	0.215994	-0.048703	0.040364
H178	H	0.715994	0.451297	0.540364
H179	H	0.249828	-0.030232	-0.066304
H180	H	0.749828	0.469768	0.433696
H181	H	0.837057	0.180488	0.776172
H182	H	1.337057	0.680488	1.276172
H183	H	0.814271	0.195831	0.223961
H184	H	1.314271	0.695831	0.723961
O185	O	0.776731	-0.702881	0.000183
O186	O	1.276731	-0.202881	0.500183
C187	C	0.768253	-0.734634	0.071903
C188	C	1.268253	-0.234634	0.571903
H189	H	0.806430	-0.716901	0.122051
H190	H	1.306430	-0.216901	0.622051
H191	H	0.703998	-0.731538	0.095973
H192	H	1.203998	-0.231538	0.595973
H193	H	0.787474	-0.781140	0.055680
H194	H	1.287474	-0.281140	0.555680
H195	H	1.039013	0.044019	0.618016
H196	H	1.539013	0.544019	1.118016
O197	O	1.057728	-0.715906	0.000093
O198	O	1.557728	-0.215906	0.500093
C199	C	1.121265	-0.679867	0.000079
C200	C	1.621265	-0.179867	0.500079
H201	H	1.099748	-0.635615	0.026307
H202	H	1.599748	-0.135615	0.526307
H203	H	1.168769	-0.698005	0.040293
H204	H	1.668769	-0.198005	0.540293
H205	H	1.146655	-0.676837	-0.066370
H206	H	1.646655	-0.176837	0.433630
H207	H	0.325392	0.047013	0.000112
H208	H	0.825392	0.547013	0.500112
O209	O	1.038965	0.044028	0.783171
O210	O	1.538965	0.544028	1.283171
C211	C	1.023147	0.054744	0.869471
C212	C	1.523147	0.554744	1.369471
H213	H	0.960244	0.073394	0.881382
H214	H	1.460244	0.573394	1.381382
H215	H	1.030498	0.013193	0.902619
H216	H	1.530498	0.513193	1.402619
H217	H	1.065906	0.086306	0.894196
H218	H	1.565906	0.586306	1.394196
O219	O	0.672672	0.215807	-0.000120
O220	O	1.172672	0.715807	0.499880
C221	C	0.722893	0.219318	-0.071851
C222	C	1.222893	0.719318	0.428149
H223	H	0.706391	0.186916	-0.121982
H224	H	1.206391	0.686916	0.378018
H225	H	0.716437	0.264019	-0.095941
H226	H	1.216437	0.764019	0.404059
H227	H	0.786460	0.209861	-0.055636
H228	H	1.286460	0.709861	0.444364
H229	H	1.124051	-0.332803	0.000094
H230	H	1.624051	0.167197	0.500094
O231	O	0.709887	-0.425958	-0.000030
O232	O	1.209887	0.074042	0.499970
C233	C	0.647650	-0.384025	-0.000021
C234	C	1.147650	0.115975	0.499979
H235	H	0.670584	-0.343521	-0.026234
H236	H	1.170584	0.156479	0.473766
H237	H	0.599581	-0.400239	-0.040248
H238	H	1.099581	0.099761	0.459752
H239	H	0.622458	-0.374408	0.066426
H240	H	1.122458	0.125592	0.566426
H241	H	0.845071	0.175052	0.618004
H242	H	1.345071	0.675052	1.118004
O243	O	0.710853	0.013067	0.000044
O244	O	1.210853	0.513067	0.500044
C245	C	0.665982	-0.035592	0.000078
C246	C	1.165982	0.464408	0.500078
H247	H	0.606357	-0.024990	-0.026144
H248	H	1.106357	0.475010	0.473856
H249	H	0.698374	-0.071478	-0.040130
H250	H	1.198374	0.428522	0.459870
H251	H	0.656931	-0.049655	0.066533
H252	H	1.156931	0.450345	0.566533
H253	H	0.806255	0.201259	0.382139
H254	H	1.306255	0.701259	0.882139
H255	H	0.723001	-0.314056	0.000013
H256	H	1.223001	0.185944	0.500013
H257	H	0.423926	0.189766	0.000069
H258	H	0.923926	0.689766	0.500069
O259	O	1.066708	-0.168954	0.000138
O260	O	1.566708	0.331046	0.500138
C261	C	1.130227	-0.132899	0.000132
C262	C	1.630227	0.367101	0.500132
H263	H	1.108689	-0.088651	0.026355
H264	H	1.608689	0.411349	0.526355
H265	H	1.177734	-0.151025	0.040353
H266	H	1.677734	0.348975	0.540353
H267	H	1.155624	-0.129866	-0.066315
H268	H	1.655624	0.370134	0.433685
O269	O	0.844202	0.175541	0.521806
O270	O	1.344202	0.675541	1.021806
C271	C	0.793660	0.144424	0.572239
C272	C	1.293660	0.644424	1.072239
H273	H	0.824472	0.101843	0.585299
H274	H	1.324472	0.601843	1.085299
H275	H	0.778011	0.169681	0.633548
H276	H	1.278011	0.669681	1.133548
H277	H	0.737629	0.136585	0.538653
H278	H	1.237629	0.636585	1.038653
O279	O	1.133456	-0.445781	-0.000025
O280	O	1.633456	0.054219	0.499975
C281	C	1.180685	-0.435736	-0.071762
C282	C	1.680685	0.064264	0.428238
H283	H	1.162339	-0.392445	-0.095686
H284	H	1.662339	0.107555	0.404314
H285	H	1.245078	-0.436183	-0.055614
H286	H	1.745078	0.063817	0.444386
H287	H	1.172830	-0.470455	-0.121995
H288	H	1.672830	0.029545	0.378005
O289	O	0.512050	0.206007	0.000010
O290	O	1.012050	0.706007	0.500010
C291	C	0.556921	0.254666	0.000012
C292	C	1.056921	0.754666	0.500012
H293	H	0.619205	0.242265	-0.026216
H294	H	1.119205	0.742265	0.473784
H295	H	0.528609	0.287796	-0.040208
H296	H	1.028609	0.787796	0.459792
H297	H	0.559233	0.273286	0.066457
H298	H	1.059233	0.773286	0.566457
O299	O	0.785748	-0.155999	-0.000037
O300	O	1.285748	0.344001	0.499963
C301	C	0.784564	-0.192621	-0.071793
C302	C	1.284564	0.307379	0.428207
H303	H	0.847499	-0.205232	-0.095703
H304	H	1.347499	0.294768	0.404297
H305	H	0.752902	-0.232469	-0.055673
H306	H	1.252902	0.267531	0.444327
H307	H	0.752335	-0.169778	-0.122024
H308	H	1.252335	0.330222	0.377976
H309	H	1.048313	-0.602941	0.000070
H310	H	1.548313	-0.102941	0.500070
H311	H	0.290124	0.233559	0.000043
H312	H	0.790124	0.733559	0.500043
O313	O	0.787646	-0.038704	-0.000067
O314	O	1.287646	0.461296	0.499933
C315	C	0.787623	-0.006557	-0.071793
C316	C	1.287623	0.493443	0.428207
H317	H	0.830314	-0.028080	-0.121923
H318	H	1.330314	0.471920	0.378077
H319	H	0.725844	-0.003753	-0.095888
H320	H	1.225844	0.496247	0.404112
H321	H	0.806689	0.038157	-0.055568
H322	H	1.306689	0.538157	0.444432
O323	O	1.016982	0.058838	0.217259
O324	O	1.516982	0.558838	0.717259
C325	C	1.061267	0.028937	0.274440
C326	C	1.561267	0.528937	0.774440
H327	H	1.026079	0.028863	0.336593
H328	H	1.526079	0.528863	0.836593
H329	H	1.074822	-0.016810	0.249265
H330	H	1.574822	0.483190	0.749265
H331	H	1.118709	0.050577	0.283698
H332	H	1.618709	0.550577	0.783698
