data_functionalizedCrystal
_audit_creation_method	'MofGen! by Chris Wilmer'
_symmetry_space_group_name_H-M	'P1'
_symmetry_Int_Tables_number	1
_symmetry_cell_setting	triclinic
loop_
_symmetry_equiv_pos_as_xyz
  x,y,z
_cell_length_a	27.732048
_cell_length_b	14.044220
_cell_length_c	13.101039
_cell_angle_alpha	86.332523
_cell_angle_beta	93.324104
_cell_angle_gamma	87.915766
loop_
_atom_site_label
_atom_site_type_symbol
_atom_site_fract_x
_atom_site_fract_y
_atom_site_fract_z
O1	O	-0.648645	-0.107455	-0.085084
O2	O	-0.508657	-0.124591	-0.085115
O3	O	-0.576549	0.021930	-0.085090
O4	O	-0.580752	-0.253976	-0.085109
O5	O	-0.571679	0.011400	0.085338
O6	O	-0.503786	-0.135121	0.085313
O7	O	-0.643774	-0.117985	0.085344
Zn8	Zn	-0.573007	-0.128225	0.112388
Zn9	Zn	-0.579424	-0.114351	-0.112159
O10	O	-0.575882	-0.264506	0.085319
C11	C	-0.488198	-0.129496	0.000095
C12	C	-0.434492	-0.128412	0.000083
N13	N	-0.568631	-0.137693	0.265634
C14	C	-0.664233	-0.113080	0.000132
C15	C	-0.717939	-0.114163	0.000137
C16	C	-0.099419	-0.208180	0.000122
C17	C	0.102429	-0.204161	0.000132
O18	O	0.130263	-0.277104	0.000171
N19	N	0.125630	-0.117280	0.000136
C20	C	0.098366	-0.031397	0.000144
O21	O	0.122732	0.042593	0.000159
C22	C	-0.103481	-0.035417	0.000142
C23	C	-0.126680	-0.122304	0.000128
C24	C	-0.122618	-0.295060	0.000109
C25	C	-0.173077	-0.296063	0.000101
C26	C	-0.200338	-0.210187	0.000106
C27	C	-0.177139	-0.123307	0.000120
C28	C	-0.130744	0.050464	0.000158
C29	C	-0.181209	0.049452	0.000160
C30	C	-0.204407	-0.037435	0.000146
C31	C	-0.254859	-0.038434	0.000117
N32	N	-0.278060	-0.125316	0.000113
C33	C	-0.250799	-0.211192	0.000108
C34	C	0.204339	-0.029292	0.000143
C35	C	0.254801	-0.028287	0.000142
C36	C	0.258860	-0.201052	0.000131
C37	C	0.208397	-0.202056	0.000125
C38	C	0.181138	-0.116174	0.000139
C39	C	-0.356768	-0.213293	0.000090
C40	C	-0.407232	-0.214288	0.000078
C41	C	-0.411287	-0.041524	0.000094
C42	C	-0.360827	-0.040528	0.000101
C43	C	-0.333569	-0.126420	0.000102
O44	O	-0.282722	0.034469	0.000090
O45	O	-0.275174	-0.285173	0.000116
C46	C	-0.048960	-0.207177	0.000130
C47	C	-0.025761	-0.120297	0.000144
C48	C	-0.053022	-0.034420	0.000149
C49	C	0.024700	-0.119291	0.000142
C50	C	0.051961	-0.205168	0.000137
C51	C	0.028760	-0.292050	0.000132
C52	C	-0.021700	-0.293053	0.000124
C53	C	-0.029821	0.052461	0.000153
C54	C	0.020639	0.053458	0.000160
C55	C	0.047899	-0.032419	0.000155
C56	C	-0.572274	0.051953	0.000124
C57	C	-0.566787	0.157098	0.000124
C58	C	-0.580157	-0.294528	0.000103
C59	C	-0.585644	-0.399673	0.000096
C60	C	-0.556756	0.349614	0.000107
C61	C	-0.595673	0.407817	0.000113
C62	C	-0.590091	0.514939	0.000103
C63	C	-0.562337	0.242481	0.000117
N64	N	-0.583803	-0.104876	-0.265406
C65	C	-0.562678	-0.150583	0.474675
C66	C	-0.589755	-0.091989	0.525561
C67	C	-0.586443	-0.099161	0.641878
C68	C	-0.565990	-0.143412	0.358347
H69	H	-0.426118	-0.285045	0.000065
O70	O	0.279816	0.065431	0.000146
H71	H	0.319486	0.051714	0.000137
H72	H	-0.203401	0.119389	0.000173
H73	H	-0.633184	0.377199	0.000052
H74	H	0.281064	-0.270976	0.000127
O75	O	0.183378	-0.295769	0.000116
H76	H	0.162466	-0.304650	0.069578
H77	H	0.182149	0.040647	0.000155
O78	O	-0.507072	0.390166	0.000098
H79	H	-0.485192	0.361251	0.069560
O80	O	-0.623760	-0.018404	0.467566
H81	H	-0.621063	-0.024248	0.383982
O82	O	-0.440696	0.051094	0.000116
H83	H	-0.465770	0.059061	-0.069340
H84	H	-0.334580	-0.283235	0.000094
O85	O	-0.198096	-0.389778	0.000115
H86	H	-0.170655	-0.449317	0.000130
O87	O	-0.528685	-0.224179	0.532673
H88	H	-0.491067	-0.211517	0.512172
H89	H	-0.040583	-0.363805	0.000114
H90	H	-0.111864	0.121217	0.000171
O91	O	-0.093219	-0.387691	0.000098
H92	H	-0.117837	-0.448262	0.000082
H93	H	-0.341938	0.030223	0.000098
H94	H	0.050964	-0.361973	0.000124
O95	O	0.045656	0.147180	0.000187
H96	H	0.033015	0.192712	-0.069264
O97	O	-0.059220	0.145089	0.000158
H98	H	-0.034605	0.205665	0.000157
