data_functionalizedCrystal
_audit_creation_method	'MofGen! by Chris Wilmer'
_symmetry_space_group_name_H-M	'P1'
_symmetry_Int_Tables_number	1
_symmetry_cell_setting	triclinic
loop_
_symmetry_equiv_pos_as_xyz
  x,y,z
_cell_length_a	19.188879
_cell_length_b	15.995292
_cell_length_c	14.472310
_cell_angle_alpha	89.985801
_cell_angle_beta	90.010885
_cell_angle_gamma	96.703654
loop_
_atom_site_label
_atom_site_type_symbol
_atom_site_fract_x
_atom_site_fract_y
_atom_site_fract_z
O1	O	-0.089800	1.110678	-0.076886
O2	O	0.410200	1.610678	0.423114
O3	O	-0.100956	0.866853	-0.076885
O4	O	0.399044	1.366853	0.423115
O5	O	0.006263	0.995824	-0.076857
O6	O	0.506263	1.495824	0.423143
O7	O	-0.197020	0.981707	-0.076915
O8	O	0.302980	1.481707	0.423085
O9	O	0.006257	0.995791	0.076825
O10	O	0.506257	1.495791	0.576825
O11	O	-0.100962	0.866820	0.076797
O12	O	0.399038	1.366820	0.576797
O13	O	-0.089806	1.110645	0.076796
O14	O	0.410194	1.610645	0.576796
Cu15	Cu	-0.095385	0.988730	0.090829
Cu16	Cu	0.404615	1.488730	0.590829
Cu17	Cu	-0.095378	0.988769	-0.090918
Cu18	Cu	0.404622	1.488769	0.409082
O19	O	-0.197026	0.981674	0.076767
O20	O	0.302974	1.481674	0.576767
C21	C	-0.100505	0.835643	-0.000044
C22	C	0.399495	1.335643	0.499956
C23	C	-0.099144	0.742695	-0.000042
C24	C	0.400856	1.242695	0.499958
C25	C	-0.094140	0.404976	-0.000051
C26	C	0.405860	0.904976	0.499949
C27	C	-0.171528	0.427988	-0.000416
C28	C	0.328472	0.927988	0.499584
C29	C	-0.172999	0.524658	-0.000066
C30	C	0.327001	1.024658	0.499934
C31	C	-0.096623	0.572522	-0.000047
C32	C	0.403377	1.072522	0.499953
C33	C	-0.057936	0.543552	0.087721
C34	C	0.442064	1.043552	0.587721
C35	C	-0.057004	0.446765	0.087791
C36	C	0.442996	0.946765	0.587791
C37	C	-0.055417	0.446953	-0.086974
C38	C	0.444583	0.946953	0.413026
C39	C	-0.058285	0.543435	-0.088131
C40	C	0.441715	1.043435	0.411869
C41	C	-0.098022	0.667213	-0.000041
C42	C	0.401978	1.167213	0.499959
C43	C	-0.092738	0.310286	-0.000050
C44	C	0.407262	0.810286	0.499950
C45	C	-0.223035	0.982141	-0.000081
C46	C	0.276965	1.482141	0.499919
C47	C	-0.300545	0.983492	-0.000104
C48	C	0.199455	1.483492	0.499896
C49	C	-0.336932	0.984130	0.083673
C50	C	0.163068	1.484130	0.583673
C51	C	-0.409758	0.985422	0.083689
C52	C	0.090242	1.485422	0.583689
C53	C	-0.446193	0.986094	-0.000076
C54	C	0.053807	1.486094	0.499924
C55	C	-0.409797	0.985451	-0.083864
C56	C	0.090203	1.485451	0.416136
C57	C	-0.336973	0.984150	-0.083878
C58	C	0.163027	1.484150	0.416122
N59	N	-0.555328	1.035800	-0.062409
N60	N	-0.055328	1.535800	0.437591
N61	N	-0.624507	1.037038	-0.062390
N62	N	-0.124507	1.537038	0.437610
C63	C	-0.665607	0.990011	-0.000040
C64	C	-0.165607	1.490011	0.499960
N65	N	-0.634912	0.941711	0.062305
N66	N	-0.134912	1.441711	0.562305
N67	N	-0.565726	0.940477	0.062289
N68	N	-0.065726	1.440477	0.562289
C69	C	-0.525158	0.987504	-0.000071
C70	C	-0.025158	1.487504	0.499929
C71	C	-0.780960	0.992049	0.083760
C72	C	-0.280960	1.492049	0.583760
C73	C	-0.853788	0.993336	0.083772
C74	C	-0.353788	1.493336	0.583772
C75	C	-0.853825	0.993374	-0.083783
C76	C	-0.353825	1.493374	0.416217
C77	C	-0.780999	0.992078	-0.083794
C78	C	-0.280999	1.492078	0.416206
C79	C	-0.744571	0.991420	-0.000019
C80	C	-0.244571	1.491420	0.499981
C81	C	0.032273	0.995358	-0.000010
C82	C	0.532273	1.495358	0.499990
C83	C	0.109782	0.994006	0.000006
C84	C	0.609782	1.494006	0.500006
C85	C	-0.090257	1.141856	-0.000048
C86	C	0.409743	1.641856	0.499952
C87	C	-0.091619	1.234803	-0.000056
C88	C	0.408381	1.734803	0.499944
N89	N	-0.095390	0.988708	0.218660
N90	N	0.404610	1.488708	0.718660
N91	N	-0.095367	0.988797	-0.218749
N92	N	0.404633	1.488797	0.281251
C93	C	-0.095375	0.988768	0.592751
C94	C	0.404625	1.488768	1.092751
C95	C	-0.152553	0.919528	0.553570
C96	C	0.347447	1.419528	1.053570
C97	C	-0.152762	0.919686	0.446482
C98	C	0.347238	1.419686	0.946482
C99	C	-0.095382	0.988737	0.407160
C100	C	0.404618	1.488737	0.907160
C101	C	-0.111279	1.076043	0.445991
C102	C	0.388721	1.576043	0.945991
C103	C	-0.111686	1.075653	0.553112
C104	C	0.388314	1.575653	1.053112
C105	C	-0.022130	0.971482	0.553301
C106	C	0.477870	1.471482	1.053301
C107	C	-0.022619	0.969477	0.446174
C108	C	0.477381	1.469477	0.946174
C109	C	-0.095385	0.988726	0.302272
C110	C	0.404615	1.488726	0.802272
C111	C	-0.095374	0.988785	0.697639
C112	C	0.404626	1.488785	1.197639
H113	H	-0.079603	0.418547	-0.153496
H114	H	0.420397	0.918547	0.346504
C115	C	-0.096333	0.568400	-0.175850
C116	C	0.403667	1.068400	0.324150
N117	N	-0.124991	0.587212	-0.241920
N118	N	0.375009	1.087212	0.258080
H119	H	-0.307277	0.983593	0.151889
H120	H	0.192723	1.483593	0.651889
C121	C	-0.893898	0.994110	-0.175927
C122	C	-0.393898	1.494110	0.324073
N123	N	-0.924085	0.994663	-0.245332
N124	N	-0.424085	1.494663	0.254668
C125	C	-0.449792	0.986131	0.175854
C126	C	0.050208	1.486131	0.675854
N127	N	-0.479943	0.986669	0.245273
N128	N	0.020057	1.486669	0.745273
C129	C	-0.449875	0.986195	-0.176006
C130	C	0.050125	1.486195	0.323994
N131	N	-0.480062	0.986754	-0.245411
N132	N	0.019938	1.486754	0.254589
C133	C	-0.139985	0.831559	0.588434
C134	C	0.360015	1.331559	1.088434
N135	N	-0.130522	0.765300	0.614706
N136	N	0.369478	1.265300	1.114706
C137	C	-0.296942	0.983480	-0.176043
C138	C	0.203058	1.483480	0.323957
N139	N	-0.266789	0.982986	-0.245463
N140	N	0.233211	1.482986	0.254537
H141	H	-0.143293	0.854782	0.420229
H142	H	0.356707	1.354782	0.920229
H143	H	-0.751300	0.991506	0.151974
H144	H	-0.251300	1.491506	0.651974
H145	H	-0.201194	0.398841	0.062157
H146	H	0.298806	0.898841	0.562157
H147	H	-0.002538	0.576622	-0.093417
H148	H	0.497462	1.076622	0.406583
C149	C	0.019649	0.427402	0.093200
C150	C	0.519649	0.927402	0.593200
N151	N	0.077383	0.412821	0.097280
N152	N	0.577383	0.912821	0.597280
H153	H	-0.071681	1.128771	0.579029
H154	H	0.428319	1.628771	1.079029
H155	H	-0.883414	0.993853	0.151996
H156	H	-0.383414	1.493853	0.651996
C157	C	-0.740966	0.991428	-0.175956
C158	C	-0.240966	1.491428	0.324044
N159	N	-0.710811	0.990952	-0.245377
N160	N	-0.210811	1.490952	0.254623
H161	H	0.001546	0.433181	-0.087553
H162	H	0.501546	0.933181	0.412447
C163	C	-0.225572	0.934190	0.589900
C164	C	0.274428	1.434190	1.089900
N165	N	-0.280568	0.945237	0.617266
N166	N	0.219432	1.445237	1.117266
C167	C	-0.226191	0.934564	0.411826
C168	C	0.273809	1.434564	0.911826
N169	N	-0.281501	0.945775	0.385724
N170	N	0.218499	1.445775	0.885724
H171	H	-0.165102	1.090929	0.578072
H172	H	0.334898	1.590929	1.078072
C173	C	-0.056515	1.147299	0.411577
C174	C	0.443485	1.647299	0.911577
N175	N	-0.015266	1.200968	0.385655
N176	N	0.484734	1.700968	0.885655
C177	C	-0.182625	1.097178	0.409727
C178	C	0.317375	1.597178	0.909727
N179	N	-0.236366	1.113091	0.382418
N180	N	0.263634	1.613091	0.882418
H181	H	-0.006840	0.909217	0.580374
H182	H	0.493160	1.409217	1.080374
C183	C	-0.093221	0.410373	0.176396
C184	C	0.406779	0.910373	0.676396
N185	N	-0.120505	0.382965	0.243132
N186	N	0.379495	0.882965	0.743132
H187	H	-0.010554	0.905255	0.420796
H188	H	0.489446	1.405255	0.920796
H189	H	0.021923	1.016654	0.419412
H190	H	0.521923	1.516654	0.919412
C191	C	0.035355	1.039696	0.587538
C192	C	0.535355	1.539696	1.087538
N193	N	0.078647	1.091076	0.613331
N194	N	0.578647	1.591076	1.113331
H195	H	-0.203293	0.543580	-0.062984
H196	H	0.296707	1.043580	0.437016
H197	H	-0.203485	0.542929	0.062940
H198	H	0.296515	1.042929	0.562940
C199	C	-0.211826	0.390024	-0.085447
C200	C	0.288174	0.890024	0.414553
N201	N	-0.242179	0.361424	-0.149496
N202	N	0.257821	0.861424	0.350504
H203	H	-0.001734	0.575637	0.090998
H204	H	0.498266	1.075637	0.590998
H205	H	-0.084807	0.563492	0.153024
H206	H	0.415193	1.063492	0.653024
