data_functionalizedCrystal
_audit_creation_method	'MofGen! by Chris Wilmer'
_symmetry_space_group_name_H-M	'P1'
_symmetry_Int_Tables_number	1
_symmetry_cell_setting	triclinic
loop_
_symmetry_equiv_pos_as_xyz
  x,y,z
_cell_length_a	17.640112
_cell_length_b	17.640280
_cell_length_c	17.639197
_cell_angle_alpha	87.831537
_cell_angle_beta	70.386601
_cell_angle_gamma	92.184069
loop_
_atom_site_label
_atom_site_type_symbol
_atom_site_fract_x
_atom_site_fract_y
_atom_site_fract_z
Zn1	Zn	1.193437	-0.110352	0.183748
Zn2	Zn	1.243949	-0.199826	0.023314
Zn3	Zn	1.083543	-0.110351	0.073770
Zn4	Zn	1.093708	-0.260592	0.173499
O5	O	1.153659	-0.170280	0.113583
O6	O	1.309006	-0.096791	0.145639
O7	O	1.239556	-0.162526	-0.078871
O8	O	1.072727	-0.010029	0.113764
O9	O	1.346116	-0.162527	0.027769
O10	O	1.153466	-0.010030	0.194564
O11	O	1.121706	-0.096789	-0.041801
O12	O	0.976024	-0.155711	0.103826
O13	O	1.090053	-0.266093	0.283737
O14	O	0.983492	-0.266092	0.177096
O15	O	1.163323	-0.155713	0.291267
O16	O	1.249413	-0.308209	0.017831
O17	O	1.139032	-0.352853	0.128171
C18	C	0.951530	-0.217496	0.144825
C19	C	0.865059	-0.237717	0.158204
C20	C	0.560976	-0.016655	0.011950
C21	C	0.479726	-0.035673	0.024529
C22	C	0.487616	-0.150699	0.100622
C23	C	0.568867	-0.131689	0.088052
C24	C	0.605541	-0.064667	0.043715
C25	C	0.613432	-0.179701	0.119818
C26	C	0.694677	-0.160695	0.107246
C27	C	0.731358	-0.093677	0.062909
C28	C	0.686786	-0.045661	0.031143
C29	C	0.576758	-0.246726	0.164150
C30	C	0.621323	-0.294738	0.195915
C31	C	0.702569	-0.275729	0.183348
C32	C	0.739249	-0.208711	0.139011
C33	C	0.747140	-0.323745	0.215113
C34	C	0.828386	-0.304739	0.202541
C35	C	0.820494	-0.189705	0.126439
C36	C	1.200825	-0.356542	0.066428
C37	C	1.221070	-0.436215	0.046270
C38	C	1.000138	-0.814589	0.266956
C39	C	1.019166	-0.889448	0.247989
C40	C	1.134152	-0.842903	0.133183
C41	C	1.115135	-0.768039	0.152142
C42	C	1.048127	-0.753889	0.219029
C43	C	1.163125	-0.707339	0.104216
C44	C	1.144107	-0.632481	0.123172
C45	C	1.077100	-0.618324	0.190054
C46	C	1.029109	-0.679031	0.237985
C47	C	1.230130	-0.721491	0.037326
C48	C	1.278119	-0.660790	-0.010600
C49	C	1.259105	-0.585931	0.008358
C50	C	1.192098	-0.571774	0.075241
C51	C	1.307096	-0.525224	-0.039573
C52	C	1.288078	-0.450366	-0.020617
C53	C	1.173080	-0.496916	0.094196
C54	C	1.356578	-0.122881	0.082219
C55	C	1.443050	-0.102682	0.068854
C56	C	1.122188	-0.217681	0.316522
C57	C	1.108776	-0.237881	0.403003
C58	C	1.106328	0.016710	0.160936
C59	C	1.086158	0.096394	0.181115
C60	C	1.051730	-0.323816	0.520975
C61	C	1.064336	-0.304829	0.439714
C62	C	1.140632	-0.189896	0.447545
C63	C	1.128035	-0.208876	0.528808
C64	C	1.083583	-0.275836	0.565516
C65	C	1.159888	-0.160896	0.573349
C66	C	1.147289	-0.179873	0.654606
C67	C	1.102837	-0.246829	0.691321
C68	C	1.070984	-0.294813	0.646773
C69	C	1.204336	-0.093934	0.536641
C70	C	1.236189	-0.045954	0.581182
C71	C	1.223595	-0.064933	0.662439
C72	C	1.179142	-0.131889	0.699154
C73	C	1.255448	-0.016949	0.706987
C74	C	1.242849	-0.035925	0.788244
C75	C	1.166543	-0.150865	0.780411
C76	C	1.185001	-0.123082	0.911430
C77	C	1.198396	-0.102885	0.824952
H78	H	0.590833	0.037929	-0.024139
O79	O	1.372262	-0.538884	-0.104505
C80	C	1.516268	-0.522035	-0.168387
C81	C	1.442537	-0.506495	-0.094814
H82	H	1.573105	-0.495871	-0.160570
H83	H	1.508716	-0.495827	-0.225329
H84	H	1.521569	-0.585969	-0.173708
H85	H	1.437192	-0.442576	-0.089417
H86	H	1.450120	-0.532756	-0.037910
O87	O	0.711435	-0.388773	0.258292
C88	C	0.605884	-0.444551	0.374996
C89	C	0.646256	-0.370849	0.326184
H90	H	0.553168	-0.430087	0.429888
H91	H	0.651641	-0.475615	0.395611
H92	H	0.582920	-0.482526	0.335587
H93	H	0.669218	-0.332816	0.365543
H94	H	0.600469	-0.339845	0.305560
H95	H	1.332675	-0.672323	-0.065061
H96	H	0.797514	-0.078204	0.052671
O97	O	0.871736	-0.351263	0.233448
C98	C	0.949651	-0.364127	0.321831
C99	C	0.900591	-0.311350	0.286880
H100	H	0.972980	-0.331883	0.365050
H101	H	1.002760	-0.384289	0.270716
H102	H	0.909480	-0.415304	0.355644
H103	H	0.940696	-0.260137	0.253076
H104	H	0.847476	-0.291248	0.338029
H105	H	1.118520	-0.485396	0.148667
H106	H	1.268782	0.003147	0.824512
H107	H	1.327156	-0.400941	-0.059645
H108	H	1.130352	-0.205395	0.810299
H109	H	0.974549	-0.667511	0.292456
O110	O	1.199225	-0.856787	0.068253
C111	C	1.279440	-0.951478	-0.011883
C112	C	1.205737	-0.935866	0.061689
H113	H	1.284720	-1.015412	-0.017224
H114	H	1.336320	-0.925317	-0.004149
H115	H	1.271811	-0.925255	-0.068780
H116	H	1.213288	-0.962087	0.118621
H117	H	1.148885	-0.962012	0.053885
H118	H	1.092573	-0.262274	0.757488
H119	H	1.291634	0.037574	0.677089
O120	O	0.436541	0.011073	-0.006355
C121	C	0.437305	0.127153	-0.083209
C122	C	0.486298	0.074295	-0.048261
H123	H	0.477517	0.178272	-0.117113
H124	H	0.384254	0.147395	-0.032088
H125	H	0.413880	0.094888	-0.126347
H126	H	0.509778	0.106510	-0.005133
H127	H	0.539308	0.054052	-0.099423
O128	O	1.183826	-0.124902	0.411749
C129	C	1.237021	-0.044708	0.290051
C130	C	1.188099	-0.118344	0.330484
H131	H	1.240477	-0.039374	0.224347
H132	H	1.300489	-0.046369	0.293080
H133	H	1.206263	0.006165	0.322818
H134	H	1.218787	-0.169256	0.297747
H135	H	1.124633	-0.116617	0.327465
H136	H	1.245613	-0.782446	0.021897
O137	O	0.972607	-0.948390	0.294658
C138	C	0.919997	-1.011031	0.427037
C139	C	0.972761	-0.944254	0.374277
H140	H	0.920090	-1.007699	0.491424
H141	H	0.945094	-1.066988	0.402065
H142	H	0.855690	-1.007811	0.426687
H143	H	1.037078	-0.947401	0.374605
H144	H	0.947597	-0.888325	0.399267
H145	H	1.034792	-0.349342	0.676661
O146	O	1.008504	-0.388877	0.556524
C147	C	0.934201	-0.500912	0.540173
C148	C	0.983119	-0.427251	0.499819
H149	H	0.913677	-0.531966	0.494341
H150	H	0.879252	-0.486427	0.592817
H151	H	0.973514	-0.538905	0.563230
H152	H	0.943872	-0.389223	0.476713
H153	H	1.038074	-0.441792	0.447213
O154	O	0.935140	-0.800793	0.332007
C155	C	0.886839	-0.743206	0.460047
C156	C	0.960514	-0.758796	0.386437
H157	H	0.907326	-0.709236	0.504065
H158	H	0.855798	-0.799423	0.491120
H159	H	0.842837	-0.709371	0.439417
H160	H	1.004573	-0.792607	0.406999
H161	H	0.991491	-0.702552	0.355379
H162	H	1.038376	-0.343894	0.403456
O163	O	1.279359	0.019133	0.545654
C164	C	1.353763	0.131107	0.561985
C165	C	1.304869	0.057430	0.602324
H166	H	1.374416	0.162083	0.607780
H167	H	1.314481	0.169191	0.538985
H168	H	1.408641	0.116560	0.509299
H169	H	1.249988	0.071906	0.655038
H170	H	1.344208	0.019366	0.625266
H171	H	0.850352	-0.135120	0.090349
H172	H	0.716643	0.008923	-0.004946
H173	H	0.457746	-0.205270	0.136718
O174	O	1.058642	-0.545575	0.208329
C175	C	1.022950	-0.425419	0.164022
C176	C	1.043860	-0.507781	0.143214
H177	H	1.010977	-0.394844	0.111396
H178	H	1.075495	-0.394706	0.176027
H179	H	0.966837	-0.425754	0.220082
H180	H	1.099950	-0.507517	0.087144
H181	H	0.991270	-0.538460	0.131261
O182	O	0.497817	-0.265233	0.176501
C183	C	0.365023	-0.291616	0.273787
C184	C	0.454399	-0.270667	0.259919
H185	H	0.329891	-0.296000	0.341228
H186	H	0.359514	-0.348498	0.246954
H187	H	0.339487	-0.245802	0.243434
H188	H	0.479993	-0.316431	0.290272
H189	H	0.459854	-0.213763	0.286733
H190	H	0.591453	-0.349309	0.232011
H191	H	1.214595	-0.078487	0.470476
