data_functionalizedCrystal
_audit_creation_method	'MofGen! by Chris Wilmer'
_symmetry_space_group_name_H-M	'P1'
_symmetry_Int_Tables_number	1
_symmetry_cell_setting	triclinic
loop_
_symmetry_equiv_pos_as_xyz
  x,y,z
_cell_length_a	11.892095
_cell_length_b	12.837943
_cell_length_c	12.837942
_cell_angle_alpha	94.828940
_cell_angle_beta	94.302569
_cell_angle_gamma	85.689438
loop_
_atom_site_label
_atom_site_type_symbol
_atom_site_fract_x
_atom_site_fract_y
_atom_site_fract_z
O1	O	0.093982	-1.408367	-0.266110
O2	O	0.593982	-0.908367	0.233890
O3	O	0.093989	-1.105234	-0.252667
O4	O	0.593989	-0.605234	0.247333
O5	O	0.093979	-1.250078	-0.107822
O6	O	0.593979	-0.750078	0.392178
O7	O	0.093992	-1.263522	-0.410955
O8	O	0.593992	-0.763522	0.089045
O9	O	-0.094028	-1.237999	-0.119879
O10	O	0.405972	-0.737999	0.380121
O11	O	-0.094018	-1.093155	-0.264723
O12	O	0.405982	-0.593155	0.235277
O13	O	-0.094025	-1.396288	-0.278167
O14	O	0.405975	-0.896288	0.221833
Zn15	Zn	-0.123871	-1.242803	-0.273359
Zn16	Zn	0.376129	-0.742803	0.226641
Zn17	Zn	0.123836	-1.258718	-0.257474
Zn18	Zn	0.623836	-0.758718	0.242526
O19	O	-0.094014	-1.251443	-0.423011
O20	O	0.405986	-0.751443	0.076989
C21	C	-0.000014	-1.060125	-0.254153
C22	C	0.499986	-0.560125	0.245847
C23	C	-0.000011	-0.943710	-0.240609
C24	C	0.499989	-0.443710	0.259391
N25	N	-0.292925	-1.231950	-0.284200
N26	N	0.207075	-0.731950	0.215800
C27	C	-0.000024	-1.239497	-0.074781
C28	C	0.499976	-0.739497	0.425219
C29	C	-0.000022	-1.225953	0.041634
C30	C	0.499978	-0.725953	0.541634
C31	C	-0.529580	-1.345098	-0.171130
C32	C	-0.029580	-0.845098	0.328870
C33	C	-0.647922	-1.337519	-0.178716
C34	C	-0.147922	-0.837519	0.321284
C35	C	-0.647951	-1.209210	-0.306952
C36	C	-0.147951	-0.709210	0.193048
C37	C	-0.529610	-1.216788	-0.299366
C38	C	-0.029610	-0.716788	0.200634
C39	C	-0.470428	-1.284736	-0.231454
C40	C	0.029572	-0.784736	0.268546
C41	C	-0.352085	-1.292319	-0.223874
C42	C	0.147915	-0.792319	0.276126
C43	C	-0.352116	-1.164005	-0.352104
C44	C	0.147884	-0.664005	0.147896
C45	C	-0.470458	-1.156426	-0.359690
C46	C	0.029542	-0.656426	0.140310
N47	N	0.292889	-1.269579	-0.246626
N48	N	0.792889	-0.769579	0.253374
C49	C	-0.000020	-1.441397	-0.276680
C50	C	0.499980	-0.941397	0.223320
C51	C	-0.000015	-1.557812	-0.290224
C52	C	0.499985	-1.057812	0.209776
C53	C	-0.000020	-0.718835	-0.403439
C54	C	0.499980	-0.218835	0.096561
C55	C	-0.000019	-0.609453	-0.390717
C56	C	0.499981	-0.109453	0.109283
C57	C	-0.000015	-0.615561	-0.202446
C58	C	0.499985	-0.115561	0.297554
C59	C	-0.000017	-0.724943	-0.215167
C60	C	0.499983	-0.224943	0.284833
C61	C	-0.000017	-0.776577	-0.315667
C62	C	0.499983	-0.276577	0.184333
C63	C	-0.000011	-0.885961	-0.328387
C64	C	0.499989	-0.385961	0.171613
C65	C	-0.000015	-0.892066	-0.140117
C66	C	0.499985	-0.392066	0.359883
C67	C	-0.000014	-0.782684	-0.127395
C68	C	0.499986	-0.282684	0.372605
C69	C	-0.000009	-1.262024	-0.456052
C70	C	0.499991	-0.762024	0.043948
C71	C	-0.000004	-1.275569	-0.572467
C72	C	0.499996	-0.775569	-0.072467
C73	C	-0.000002	-1.388784	0.266509
C74	C	0.499998	-0.888784	0.766509
C75	C	0.000000	-1.376062	0.375892
C76	C	0.500000	-0.876062	0.875892
C77	C	-0.000007	-1.187791	0.369784
C78	C	0.499993	-0.687791	0.869784
C79	C	-0.000009	-1.200512	0.260402
C80	C	0.499991	-0.700512	0.760402
C81	C	-0.000008	-1.301011	0.208768
C82	C	0.499992	-0.801011	0.708768
C83	C	-0.000019	-1.313731	0.099383
C84	C	0.499981	-0.813731	0.599383
C85	C	-0.000018	-1.125461	0.093278
C86	C	0.499982	-0.625461	0.593278
C87	C	-0.000016	-1.112740	0.202660
C88	C	0.499984	-0.612740	0.702660
H89	H	-0.303901	-1.347647	-0.168579
H90	H	0.196099	-0.847647	0.331421
H91	H	-0.000005	-0.939091	-0.068646
H92	H	0.499995	-0.439091	0.431354
H93	H	-0.518656	-1.101102	-0.414980
H94	H	-0.018656	-0.601102	0.085020
F95	F	-0.000007	-0.773791	-0.510395
F96	F	0.499993	-0.273791	-0.010395
H97	H	-0.000024	-0.562444	-0.462191
H98	H	0.499976	-0.062444	0.037809
F99	F	-0.710872	-1.401763	-0.114509
F100	F	-0.210872	-0.901763	0.385491
F101	F	-0.000008	-0.940913	-0.435345
F102	F	0.499992	-0.440913	0.064655
F103	F	-0.710948	-1.136890	-0.379215
F104	F	-0.210948	-0.636890	0.120785
H105	H	-0.000108	-0.573495	-0.120630
H106	H	0.499892	-0.073495	0.379370
F107	F	0.000011	-1.469482	0.437341
F108	F	0.500011	-0.969482	0.937341
H109	H	-0.000026	-0.740628	-0.045572
H110	H	0.499974	-0.240628	0.454428
F111	F	-0.466595	-1.417421	-0.098864
F112	F	0.033405	-0.917421	0.401136
F113	F	-0.289151	-1.099766	-0.416313
F114	F	0.210849	-0.599766	0.083687
H115	H	-0.000012	-1.030916	0.244716
H116	H	0.499988	-0.530916	0.744716
F117	F	-0.000025	-1.420690	0.044432
F118	F	0.499975	-0.920690	0.544432
H119	H	-0.000012	-1.470613	0.224468
H120	H	0.499988	-0.970613	0.724468
F121	F	-0.000037	-1.032041	0.031817
F122	F	0.499963	-0.532041	0.531817
H123	H	0.000004	-1.105969	0.411844
H124	H	0.500004	-0.605969	0.911844
