data_functionalizedCrystal
_audit_creation_method	'MofGen! by Chris Wilmer'
_symmetry_space_group_name_H-M	'P1'
_symmetry_Int_Tables_number	1
_symmetry_cell_setting	triclinic
loop_
_symmetry_equiv_pos_as_xyz
  x,y,z
_cell_length_a	21.395364
_cell_length_b	12.645329
_cell_length_c	21.395355
_cell_angle_alpha	90.013708
_cell_angle_beta	90.024516
_cell_angle_gamma	90.013742
loop_
_atom_site_label
_atom_site_type_symbol
_atom_site_fract_x
_atom_site_fract_y
_atom_site_fract_z
Zn1	Zn	0.957914	-0.422282	0.354282
Zn2	Zn	1.457914	0.077718	0.854282
Zn3	Zn	0.957840	-0.599531	0.249513
Zn4	Zn	1.457840	-0.099531	0.749513
Zn5	Zn	0.853129	-0.422269	0.249519
Zn6	Zn	1.353129	0.077731	0.749519
Zn7	Zn	0.853122	-0.599491	0.354253
Zn8	Zn	1.353122	-0.099491	0.854253
O9	O	0.905502	-0.510893	0.301892
O10	O	1.405502	-0.010893	0.801892
O11	O	1.045582	-0.445817	0.340394
O12	O	1.545582	0.054183	0.840394
O13	O	0.943922	-0.576028	0.161836
O14	O	1.443922	-0.076028	0.661836
O15	O	0.867064	-0.273924	0.263430
O16	O	1.367064	0.226076	0.763430
O17	O	1.045528	-0.576041	0.263420
O18	O	1.545528	-0.076041	0.763420
O19	O	0.944049	-0.273933	0.340399
O20	O	1.444049	0.226067	0.840399
O21	O	0.866992	-0.445795	0.161840
O22	O	1.366992	0.054205	0.661840
O23	O	0.765451	-0.445756	0.263402
O24	O	1.265451	0.054244	0.763402
O25	O	0.867051	-0.575972	0.441935
O26	O	1.367051	-0.075972	0.941935
O27	O	0.765445	-0.575960	0.340350
O28	O	1.265445	-0.075960	0.840350
O29	O	0.944041	-0.445778	0.441956
O30	O	1.444041	0.054222	0.941956
O31	O	0.943915	-0.747873	0.263393
O32	O	1.443915	-0.247873	0.763393
O33	O	0.866979	-0.747843	0.340345
O34	O	1.366979	-0.247843	0.840345
C35	C	0.742714	-0.510853	0.301874
C36	C	1.242714	-0.010853	0.801874
C37	C	0.673073	-0.510861	0.301882
C38	C	1.173073	-0.010861	0.801882
C39	C	0.905455	-0.786323	0.301879
C40	C	1.405455	-0.286323	0.801879
C41	C	0.905492	-0.904153	0.301895
C42	C	1.405492	-0.404153	0.801895
C43	C	0.171304	-0.443246	0.342046
C44	C	0.671304	0.056754	0.842046
C45	C	0.236740	-0.443238	0.342046
C46	C	0.736740	0.056762	0.842046
C47	C	0.269434	-0.510926	0.301906
C48	C	0.769434	-0.010926	0.801906
C49	C	0.236688	-0.578646	0.261774
C50	C	0.736688	-0.078646	0.761774
C51	C	0.171254	-0.578659	0.261780
C52	C	0.671254	-0.078659	0.761780
C53	C	0.373072	-0.519135	0.245439
C54	C	0.873072	-0.019135	0.745439
C55	C	0.438505	-0.519114	0.245432
C56	C	0.938505	-0.019114	0.745432
C57	C	0.471255	-0.510890	0.301888
C58	C	0.971255	-0.010890	0.801888
C59	C	0.438564	-0.502666	0.358353
C60	C	0.938564	-0.002666	0.858353
C61	C	0.373130	-0.502679	0.358359
C62	C	0.873130	-0.002679	0.858359
C63	C	0.340387	-0.510919	0.301895
C64	C	0.840387	-0.010919	0.801895
C65	C	0.574946	-0.443171	0.342020
C66	C	1.074946	0.056829	0.842020
C67	C	0.640383	-0.443171	0.342021
C68	C	1.140383	0.056829	0.842021
C69	C	0.640330	-0.578573	0.261744
C70	C	1.140330	-0.078573	0.761744
C71	C	0.574894	-0.578579	0.261749
C72	C	1.074894	-0.078579	0.761749
C73	C	0.542206	-0.510873	0.301886
C74	C	1.042206	-0.010873	0.801886
C75	C	0.857069	-0.949061	0.350277
C76	C	1.357069	-0.449061	0.850277
C77	C	0.857270	-1.071620	0.350487
C78	C	1.357270	-0.571620	0.850487
C79	C	0.971643	-1.071935	0.319689
C80	C	1.471643	-0.571935	0.819689
C81	C	0.971305	-0.949337	0.320020
C82	C	1.471305	-0.449337	0.820020
C83	C	0.888464	-0.949417	0.235639
C84	C	1.388464	-0.449417	0.735639
C85	C	0.887065	-1.072025	0.236012
C86	C	1.387065	-0.572025	0.736012
C87	C	1.068925	-0.510935	0.301910
C88	C	1.568925	-0.010935	0.801910
C89	C	1.138566	-0.510953	0.301917
C90	C	1.638566	-0.010953	0.801917
C91	C	0.905554	-0.510872	0.465315
C92	C	1.405554	-0.010872	0.965315
C93	C	0.905576	-0.510863	0.534956
C94	C	1.405576	-0.010863	1.034956
C95	C	0.905565	-0.234388	0.301918
C96	C	1.405565	0.265612	0.801918
C97	C	0.905592	-0.116558	0.301929
C98	C	1.405592	0.383442	0.801929
C99	C	0.905486	-0.510838	0.139104
C100	C	1.405486	-0.010838	0.639104
C101	C	0.905585	-0.510549	0.069463
C102	C	1.405585	-0.010549	0.569463
C103	C	0.945663	-0.443067	0.567681
C104	C	1.445663	0.056933	1.067681
C105	C	0.945662	-0.443022	0.633117
C106	C	1.445662	0.056978	1.133117
C107	C	0.905581	-0.510790	0.665825
C108	C	1.405581	-0.010790	1.165825
C109	C	0.865485	-0.578590	0.633092
C110	C	1.365485	-0.078590	1.133092
C111	C	0.865483	-0.578626	0.567658
C112	C	1.365483	-0.078626	1.067658
C113	C	0.900617	-0.606242	0.769495
C114	C	1.400617	-0.106242	1.269495
C115	C	0.900624	-0.606208	0.834928
C116	C	1.400624	-0.106208	1.334928
C117	C	0.905584	-0.510678	0.867646
C118	C	1.405584	-0.010678	1.367646
C119	C	0.910551	-0.415180	0.834922
C120	C	1.410551	0.084820	1.334922
C121	C	0.910549	-0.415217	0.769488
C122	C	1.410549	0.084783	1.269488
C123	C	0.905578	-0.510758	0.736777
C124	C	1.405578	-0.010758	1.236777
C125	C	0.945673	-0.442828	0.971323
C126	C	1.445673	0.057172	1.471323
C127	C	0.945668	-0.442781	1.036760
C128	C	1.445668	0.057219	1.536760
C129	C	0.865494	-0.578359	1.036734
C130	C	1.365494	-0.078359	1.536734
C131	C	0.865496	-0.578396	0.971298
C132	C	1.365496	-0.078396	1.471298
C133	C	0.905589	-0.510633	0.938597
C134	C	1.405589	-0.010633	1.438597
H135	H	0.144694	-0.388118	0.374731
H136	H	0.644694	0.111882	0.874731
H137	H	0.346516	-0.495985	0.404334
H138	H	0.846516	0.004015	0.904334
H139	H	1.008626	-0.919621	0.286304
H140	H	1.508626	-0.419621	0.786304
F141	F	0.540051	-0.650630	0.219030
F142	F	1.040051	-0.150630	0.719030
F143	F	0.929822	-1.112005	0.186401
F144	F	1.429822	-0.612005	0.686401
F145	F	0.990848	-1.111987	0.382305
F146	F	1.490848	-0.611987	0.882305
H147	H	0.978315	-0.387645	0.944696
H148	H	1.478315	0.112355	1.444696
H149	H	0.978309	-0.387888	0.541060
H150	H	1.478309	0.112112	1.041060
F151	F	1.020127	-1.109952	0.275052
F152	F	1.520127	-0.609952	0.775052
H153	H	0.263400	-0.388098	0.374722
H154	H	0.763400	0.111902	0.874722
H155	H	0.978305	-0.387809	0.659767
H156	H	1.478305	0.112191	1.159767
F157	F	0.473414	-0.493901	0.418442
F158	F	0.973414	0.006099	0.918442
H159	H	0.914591	-0.337459	0.742847
H160	H	1.414591	0.162541	1.242847
F161	F	0.675122	-0.650620	0.219028
F162	F	1.175122	-0.150620	0.719028
F163	F	0.473291	-0.527850	0.185337
F164	F	0.973291	-0.027850	0.685337
H165	H	0.868604	-1.100894	0.399585
H166	H	1.368604	-0.600894	0.899585
F167	F	0.915833	-0.313503	0.869737
F168	F	1.415833	0.186497	1.369737
F169	F	0.822815	-0.650786	0.532828
F170	F	1.322815	-0.150786	1.032828
H171	H	0.868218	-0.918202	0.399091
H172	H	1.368218	-0.418202	0.899091
H173	H	0.808297	-1.101798	0.339387
H174	H	1.308297	-0.601798	0.839387
F175	F	0.271485	-0.650688	0.219057
F176	F	0.771485	-0.150688	0.719057
H177	H	0.978311	-0.387568	1.063403
H178	H	1.478311	0.112432	1.563403
H179	H	0.838455	-1.101204	0.222616
H180	H	1.338455	-0.601204	0.722616
H181	H	0.548330	-0.388040	0.374702
H182	H	1.048330	0.111960	0.874702
F183	F	0.136411	-0.650722	0.219066
F184	F	0.636411	-0.150722	0.719066
F185	F	0.792820	-0.910638	0.335937
F186	F	1.292820	-0.410638	0.835937
F187	F	0.822831	-0.650476	1.071539
F188	F	1.322831	-0.150476	1.571539
F189	F	0.826541	-0.909125	0.214458
F190	F	1.326541	-0.409125	0.714458
H191	H	0.832857	-0.633609	0.944653
H192	H	1.332857	-0.133609	1.444653
H193	H	0.346412	-0.525836	0.199462
H194	H	0.846412	-0.025836	0.699462
H195	H	0.667037	-0.388039	0.374703
H196	H	1.167037	0.111961	0.874703
F197	F	0.895352	-0.707927	0.734681
F198	F	1.395352	-0.207927	1.234681
F199	F	0.895343	-0.707844	0.869749
F200	F	1.395343	-0.207844	1.369749
F201	F	0.990145	-0.911880	0.383318
F202	F	1.490145	-0.411880	0.883318
H203	H	0.923729	-0.920361	0.199592
H204	H	1.423729	-0.420361	0.699592
H205	H	0.832849	-0.633764	0.659727
H206	H	1.332849	-0.133764	1.159727
