data_functionalizedCrystal
_audit_creation_method	'MofGen! by Chris Wilmer'
_symmetry_space_group_name_H-M	'P1'
_symmetry_Int_Tables_number	1
_symmetry_cell_setting	triclinic
loop_
_symmetry_equiv_pos_as_xyz
  x,y,z
_cell_length_a	21.395362
_cell_length_b	21.395356
_cell_length_c	21.395361
_cell_angle_alpha	89.969319
_cell_angle_beta	90.046585
_cell_angle_gamma	89.957023
loop_
_atom_site_label
_atom_site_type_symbol
_atom_site_fract_x
_atom_site_fract_y
_atom_site_fract_z
Zn1	Zn	0.957854	-0.354573	-0.249189
Zn2	Zn	0.957758	-0.249790	-0.353965
Zn3	Zn	0.853070	-0.249774	-0.249235
Zn4	Zn	0.853038	-0.354494	-0.353962
O5	O	0.905430	-0.302158	-0.301588
O6	O	1.045519	-0.340712	-0.263070
O7	O	0.943844	-0.162110	-0.340094
O8	O	0.867024	-0.263702	-0.161551
O9	O	1.045448	-0.263729	-0.340049
O10	O	0.944008	-0.340697	-0.161517
O11	O	0.866931	-0.162098	-0.263148
O12	O	0.765388	-0.263626	-0.263145
O13	O	0.866968	-0.442183	-0.340042
O14	O	0.765364	-0.340564	-0.340087
O15	O	0.943976	-0.442240	-0.263066
O16	O	0.943813	-0.263653	-0.441643
O17	O	0.866875	-0.340579	-0.441640
C18	C	0.742642	-0.302085	-0.301621
C19	C	0.673001	-0.302069	-0.301650
C20	C	0.640292	-0.342070	-0.341767
C21	C	0.574856	-0.342098	-0.341752
C22	C	0.542133	-0.302113	-0.301626
C23	C	0.574850	-0.262109	-0.261501
C24	C	0.640284	-0.262087	-0.261513
C25	C	0.438409	-0.245708	-0.296587
C26	C	0.372976	-0.245730	-0.296580
C27	C	0.340312	-0.302182	-0.301585
C28	C	0.373089	-0.358616	-0.306611
C29	C	0.438523	-0.358594	-0.306623
C30	C	0.471180	-0.302133	-0.301608
C31	C	0.236650	-0.342218	-0.341687
C32	C	0.171214	-0.342247	-0.341668
C33	C	0.171208	-0.262252	-0.261421
C34	C	0.236644	-0.262229	-0.261437
C35	C	0.269361	-0.302211	-0.301574
C36	C	0.905479	-0.465581	-0.301549
C37	C	0.905500	-0.535222	-0.301532
C38	C	0.865462	-0.567919	-0.261462
C39	C	0.865460	-0.633355	-0.261451
C40	C	0.905507	-0.666091	-0.301502
C41	C	0.945548	-0.633385	-0.341580
C42	C	0.945545	-0.567951	-0.341595
C43	C	0.961959	-0.769796	-0.306413
C44	C	0.961964	-0.835229	-0.306393
C45	C	0.905517	-0.867911	-0.301460
C46	C	0.849065	-0.835153	-0.296533
C47	C	0.849061	-0.769719	-0.296548
C48	C	0.905515	-0.737043	-0.301491
C49	C	0.865474	-0.971561	-0.261376
C50	C	0.865470	-1.036998	-0.261368
C51	C	0.945564	-1.037027	-0.341494
C52	C	0.945562	-0.971592	-0.341505
C53	C	0.905517	-0.938863	-0.301442
C54	C	1.068853	-0.302231	-0.301555
C55	C	1.138494	-0.302262	-0.301541
C56	C	0.905347	-0.302123	-0.464375
C57	C	0.905369	-0.302129	-0.534017
C58	C	0.905417	-0.139370	-0.301581
C59	C	0.905517	-0.069729	-0.301421
C60	C	0.945466	-0.262114	-0.566710
C61	C	0.945495	-0.262128	-0.632146
C62	C	0.905416	-0.302150	-0.664885
C63	C	0.865317	-0.342172	-0.632183
C64	C	0.865293	-0.342162	-0.566749
C65	C	0.849001	-0.307041	-0.768615
C66	C	0.849024	-0.307047	-0.834048
C67	C	0.905489	-0.302187	-0.866706
C68	C	0.961934	-0.297307	-0.833922
C69	C	0.961910	-0.297296	-0.768488
C70	C	0.905438	-0.302167	-0.735837
C71	C	0.945621	-0.262186	-0.970352
C72	C	0.945651	-0.262204	-1.035788
C73	C	0.865467	-0.342245	-1.035825
C74	C	0.865442	-0.342230	-0.970389
C75	C	0.905519	-0.302197	-0.937657
C76	C	0.905530	-0.302206	-0.138164
C77	C	0.905573	-0.302227	-0.068523
H78	H	0.465207	-0.404543	-0.310714
H79	H	1.007913	-0.293349	-0.860511
H80	H	0.548219	-0.374674	-0.374419
O81	O	0.470038	-0.190807	-0.291755
C82	C	0.463020	-0.078843	-0.281789
C83	C	0.427123	-0.140969	-0.287269
H84	H	0.428339	-0.038534	-0.278147
H85	H	0.493583	-0.072102	-0.324888
H86	H	0.493720	-0.079909	-0.238225
H87	H	0.396389	-0.139948	-0.330806
H88	H	0.396600	-0.147687	-0.244139
H89	H	0.978167	-0.944969	-0.374133
O90	O	0.826658	-1.068834	-0.222418
C91	C	0.818282	-1.142716	-0.137798
C92	C	0.862308	-1.106709	-0.181876
H93	H	0.847087	-1.173337	-0.105000
H94	H	0.785514	-1.173356	-0.166535
H95	H	0.789645	-1.108073	-0.109196
H96	H	0.890985	-1.141307	-0.210487
H97	H	0.895035	-1.076060	-0.153103
O98	O	0.826601	-0.381214	-1.067590
C99	C	0.796115	-0.487756	-1.087538
C100	C	0.840179	-0.443691	-1.051533
H101	H	0.807069	-0.538277	-1.074559
H102	H	0.803022	-0.480948	-1.139930
H103	H	0.745599	-0.476654	-1.074747
H104	H	0.890712	-0.454765	-1.064271
H105	H	0.833218	-0.450507	-0.999150
O106	O	0.268339	-0.381119	-0.380688
C107	C	0.261440	-0.460443	-0.460300
C108	C	0.225477	-0.416428	-0.416156
H109	H	0.226802	-0.488992	-0.488997
H110	H	0.292123	-0.493286	-0.431612
H111	H	0.292026	-0.431597	-0.493005
H112	H	0.194857	-0.445223	-0.383442
H113	H	0.194833	-0.383583	-0.444883
H114	H	0.832857	-0.659982	-0.228818
H115	H	0.346495	-0.404585	-0.310686
O116	O	0.794231	-0.866915	-0.291863
C117	C	0.723999	-0.940736	-0.339786
C118	C	0.786106	-0.904794	-0.345157
H119	H	0.717417	-0.971379	-0.382861
H120	H	0.683630	-0.906106	-0.336310
H121	H	0.724994	-0.971365	-0.296179
H122	H	0.785173	-0.874164	-0.388762
H123	H	0.826448	-0.939457	-0.348598
H124	H	0.832867	-0.944912	-0.228755
O125	O	0.984610	-0.223283	-0.938648
C126	C	1.064112	-0.143866	-0.945516
C127	C	1.020001	-0.187903	-0.981496
H128	H	1.092728	-0.115240	-0.980144
H129	H	1.096889	-0.172634	-0.914836
H130	H	1.035338	-0.111089	-0.914926
H131	H	1.048725	-0.220688	-1.012121
H132	H	0.987223	-0.159095	-1.012137
O133	O	0.984539	-1.068843	-0.380309
C134	C	1.069113	-1.142796	-0.388699
C135	C	1.025021	-1.106791	-0.344668
H136	H	1.101845	-1.173496	-0.359902
H137	H	1.097778	-1.108207	-0.417324
H138	H	1.040322	-1.173375	-0.421476
H139	H	1.053763	-1.076212	-0.311853
H140	H	0.996354	-1.141414	-0.316087
H141	H	0.263276	-0.229652	-0.228772
O142	O	1.016852	-0.866950	-0.311211
C143	C	1.128833	-0.860118	-0.320966
C144	C	1.066716	-0.824118	-0.315528
H145	H	1.169166	-0.825504	-0.324444
H146	H	1.127876	-0.890723	-0.364558
H147	H	1.135447	-0.890786	-0.277873
H148	H	1.060063	-0.793416	-0.358588
H149	H	1.067702	-0.793553	-0.271910
O150	O	1.016764	-0.737984	-0.311117
C151	C	1.087028	-0.664204	-0.263180
C152	C	1.024943	-0.700178	-0.257779
H153	H	1.093667	-0.633639	-0.220057
H154	H	1.086046	-0.633512	-0.306744
H155	H	1.127361	-0.698869	-0.266721
H156	H	0.984577	-0.665558	-0.254213
H157	H	1.025979	-0.730879	-0.214224
O158	O	0.984471	-0.665085	-0.380544
C159	C	1.063937	-0.658210	-0.459992
C160	C	1.019879	-0.622234	-0.415904
H161	H	1.092585	-0.623580	-0.488583
H162	H	1.035184	-0.688799	-0.492793
H163	H	1.096692	-0.688891	-0.431202
H164	H	0.987115	-0.591518	-0.444644
H165	H	1.048671	-0.591684	-0.383102
O166	O	0.826576	-0.381162	-0.938600
C167	C	0.818071	-0.465705	-0.864645
C168	C	0.862160	-0.421660	-0.900617
H169	H	0.846823	-0.498450	-0.833917
H170	H	0.789441	-0.494358	-0.899255
H171	H	0.785301	-0.436879	-0.834097
H172	H	0.894968	-0.450438	-0.931166
H173	H	0.890746	-0.393004	-0.865974
H174	H	0.803096	-0.743050	-0.292537
O175	O	0.984352	-0.536158	-0.380585
C176	C	0.992728	-0.462227	-0.465162
C177	C	0.948705	-0.498206	-0.421056
H178	H	0.963925	-0.431524	-0.497885
H179	H	1.021339	-0.496832	-0.493835
H180	H	1.025518	-0.431654	-0.436382
H181	H	0.915876	-0.528779	-0.449788
H182	H	0.920138	-0.463567	-0.392381
H183	H	0.832641	-0.374747	-0.540129
O184	O	0.672033	-0.223134	-0.222612
C185	C	0.691939	-0.116607	-0.192039
C186	C	0.655954	-0.160651	-0.236141
H187	H	0.678942	-0.066081	-0.202952
H188	H	0.744334	-0.123403	-0.198945
H189	H	0.679147	-0.127740	-0.141532
H190	H	0.668693	-0.149545	-0.286664
H191	H	0.603568	-0.153847	-0.229180
H192	H	0.978149	-0.229544	-0.658770
H193	H	0.144583	-0.374824	-0.374335
O194	O	0.794117	-0.311854	-0.736960
C195	C	0.702298	-0.373855	-0.716968
C196	C	0.764427	-0.368473	-0.752868
H197	H	0.678283	-0.419634	-0.729806
H198	H	0.670648	-0.332949	-0.729906
H199	H	0.711994	-0.372981	-0.664574
H200	H	0.754790	-0.369364	-0.805270
H201	H	0.796058	-0.409377	-0.739878
H202	H	0.144565	-0.229699	-0.228746
O203	O	0.543092	-0.223333	-0.222436
C204	C	0.523165	-0.193097	-0.115819
C205	C	0.559159	-0.237058	-0.159991
H206	H	0.536152	-0.204168	-0.065323
H207	H	0.470771	-0.199985	-0.122650
H208	H	0.535958	-0.142554	-0.126789
H209	H	0.546418	-0.287616	-0.149048
H210	H	0.611543	-0.230115	-0.153152
H211	H	0.346294	-0.199778	-0.292491
H212	H	0.666926	-0.374627	-0.374449
H213	H	0.978100	-0.229519	-0.540061
H214	H	1.007868	-0.293325	-0.741798
H215	H	0.803063	-0.311015	-0.860735
O216	O	0.826450	-0.381139	-0.663955
C217	C	0.795967	-0.487680	-0.683911
C218	C	0.840030	-0.443618	-0.647903
H219	H	0.806921	-0.538202	-0.670937
H220	H	0.802872	-0.480867	-0.736303
H221	H	0.745450	-0.476581	-0.671119
H222	H	0.890563	-0.454689	-0.660643
H223	H	0.833070	-0.450438	-0.595520
H224	H	0.978307	-0.229621	-1.062407
H225	H	0.832852	-0.541276	-0.228842
