data_functionalizedCrystal
_audit_creation_method	'MofGen! by Chris Wilmer'
_symmetry_space_group_name_H-M	'P1'
_symmetry_Int_Tables_number	1
_symmetry_cell_setting	triclinic
loop_
_symmetry_equiv_pos_as_xyz
  x,y,z
_cell_length_a	12.784905
_cell_length_b	12.837942
_cell_length_c	7.681481
_cell_angle_alpha	83.650030
_cell_angle_beta	95.115984
_cell_angle_gamma	83.968130
loop_
_atom_site_label
_atom_site_type_symbol
_atom_site_fract_x
_atom_site_fract_y
_atom_site_fract_z
O1	O	1.401992	0.017060	-0.146440
O2	O	1.096993	0.061052	-0.146441
O3	O	1.242730	-0.111238	-0.146429
O4	O	1.256255	0.189350	-0.146451
O5	O	1.260664	-0.132488	0.146430
O6	O	1.114926	0.039802	0.146418
O7	O	1.419926	-0.004190	0.146419
Zn8	Zn	1.270273	0.014432	0.192917
Zn9	Zn	1.246645	0.042430	-0.192938
O10	O	1.274188	0.168100	0.146408
C11	C	1.066650	0.053288	-0.000011
C12	C	0.949518	0.061801	-0.000011
C13	C	1.247128	-0.160072	-0.000001
C14	C	1.233500	-0.273920	-0.000004
C15	C	0.735566	-0.111640	-0.000030
C16	C	0.625511	-0.103646	-0.000031
C17	C	0.619350	0.085783	-0.000025
C18	C	0.729405	0.077789	-0.000025
C19	C	0.787510	-0.020926	-0.000025
C20	C	0.897568	-0.028920	-0.000012
C21	C	0.891404	0.160509	-0.000019
C22	C	0.781348	0.168503	-0.000019
C23	C	1.397329	-0.529643	-0.000040
C24	C	1.384529	-0.636615	-0.000043
C25	C	1.195100	-0.594837	-0.000025
C26	C	1.207900	-0.487865	-0.000022
C27	C	1.309018	-0.455273	-0.000027
C28	C	1.321817	-0.348300	-0.000011
C29	C	1.132389	-0.306523	-0.000006
C30	C	1.119589	-0.413495	-0.000009
C31	C	1.450268	0.003574	-0.000014
C32	C	1.567399	-0.004938	-0.000025
C33	C	1.269791	0.216934	-0.000024
C34	C	1.283418	0.330783	-0.000033
N35	N	1.286406	-0.004677	0.456252
N36	N	1.230520	0.061530	-0.456273
H37	H	0.944876	-0.109299	-0.000009
H38	H	0.734024	0.248874	-0.000026
C39	C	1.363490	-0.095974	0.557841
C40	C	1.428230	-0.172672	0.456661
C41	C	1.505311	-0.263968	0.558250
C42	C	1.517653	-0.278565	0.761018
C43	C	1.452911	-0.201865	0.862208
C44	C	1.375829	-0.110569	0.760620
H45	H	1.419096	-0.161869	0.306550
H46	H	1.553238	-0.320746	0.483340
H47	H	1.574713	-0.346147	0.836219
H48	H	1.462045	-0.212669	1.012319
H49	H	1.327903	-0.053791	0.835529
H50	H	1.456441	-0.697165	-0.000059
H51	H	1.173470	0.129108	0.468525
C52	C	0.799491	-0.220220	-0.000018
C53	C	0.796216	-0.308293	0.152065
C54	C	0.860140	-0.416875	0.152080
C55	C	0.927340	-0.437385	0.000013
C56	C	0.930618	-0.349310	-0.152081
C57	C	0.866694	-0.240728	-0.152096
H58	H	0.746468	-0.293112	0.264644
H59	H	0.857713	-0.482073	0.264670
H60	H	0.974661	-0.517764	0.000024
H61	H	0.980366	-0.364490	-0.264660
H62	H	0.869121	-0.175529	-0.264686
H63	H	1.479664	-0.503108	-0.000027
H64	H	1.112773	-0.621392	-0.000040
H65	H	0.583223	-0.177515	-0.000038
H66	H	0.933708	0.234375	-0.000005
H67	H	0.572021	0.166153	-0.000048
H68	H	1.404153	-0.321767	-0.000009
H69	H	1.037261	-0.440046	-0.000012
H70	H	1.060480	-0.245959	0.000018
