data_functionalizedCrystal
_audit_creation_method	'MofGen! by Chris Wilmer'
_symmetry_space_group_name_H-M	'P1'
_symmetry_Int_Tables_number	1
_symmetry_cell_setting	triclinic
loop_
_symmetry_equiv_pos_as_xyz
  x,y,z
_cell_length_a	14.395555
_cell_length_b	18.760492
_cell_length_c	14.395555
_cell_angle_alpha	60.000747
_cell_angle_beta	90.002623
_cell_angle_gamma	59.998358
loop_
_atom_site_label
_atom_site_type_symbol
_atom_site_fract_x
_atom_site_fract_y
_atom_site_fract_z
Zr1	Zr	0.894879	0.780218	-0.121893
O2	O	0.746542	0.928930	-0.270232
O3	O	0.940357	0.631505	-0.076414
O4	O	0.940351	0.780211	-0.270214
O5	O	0.746547	0.780230	0.076436
O6	O	1.093225	0.780206	-0.270206
O7	O	0.746548	0.780224	-0.076432
O8	O	1.093235	0.514198	0.076467
O9	O	0.746537	1.046237	-0.270237
O10	O	1.073835	0.692669	-0.057018
O11	O	0.959746	0.692677	0.057059
O12	O	0.959739	0.867759	-0.171115
O13	O	0.845650	0.867766	-0.057038
Zr14	Zr	1.138693	0.780218	0.121926
Zr15	Zr	1.138695	0.780209	-0.121880
Zr16	Zr	0.894877	0.780226	0.121913
Zr17	Zr	0.894870	0.967309	-0.121902
Zr18	Zr	1.138702	0.593126	0.121935
O19	O	1.093216	0.928930	0.076447
O20	O	1.093218	0.928918	-0.270213
O21	O	0.746540	0.928942	0.076428
O22	O	1.287030	0.631505	0.270264
O23	O	1.287032	0.631493	-0.076396
O24	O	0.940354	0.631517	0.270246
O25	O	1.287025	0.780206	-0.076403
O26	O	1.093221	0.780224	0.270247
O27	O	0.940347	0.780230	0.270239
O28	O	1.287024	0.780211	0.076464
O29	O	0.940339	1.046230	-0.270227
O30	O	1.093234	0.514205	0.270260
O31	O	1.287035	0.514198	0.270270
O32	O	1.287037	0.514191	0.076477
O33	O	0.746536	1.046244	-0.076444
O34	O	0.940337	1.046237	-0.076434
O35	O	1.073833	0.692677	0.171148
O36	O	1.187922	0.692669	0.057071
O37	O	1.073827	0.867759	-0.057026
O38	O	0.959737	0.867766	0.057051
C39	C	1.016797	0.546195	0.000028
C40	C	1.016801	0.466770	0.000032
C41	C	0.711809	0.780228	0.000000
C42	C	0.608302	0.780232	-0.000005
C43	C	0.957218	0.130979	0.059553
C44	C	1.076329	0.130976	-0.059545
C45	C	1.076338	0.205591	-0.059539
C46	C	1.016784	0.242905	0.000014
C47	C	0.957222	0.205604	0.059559
C48	C	1.135889	0.242905	-0.119092
C49	C	1.135899	0.317526	-0.119089
C50	C	1.076351	0.354837	-0.059530
C51	C	1.016788	0.317530	0.000019
C52	C	0.957235	0.354844	0.059571
C53	C	0.897677	0.317533	0.119128
C54	C	0.897675	0.242914	0.119119
C55	C	1.076354	0.429456	-0.059521
C56	C	0.957239	0.429468	0.059577
C57	C	0.485504	0.875698	-0.062206
C58	C	0.454671	0.827972	-0.107279
C59	C	0.454712	0.827955	0.045059
C60	C	0.578833	0.732505	-0.045140
C61	C	0.578871	0.732501	0.107257
C62	C	0.548111	0.684705	0.062211
C63	C	1.321763	0.780207	0.000033
C64	C	1.425270	0.780203	0.000038
C65	C	1.016788	0.780207	-0.304947
C66	C	1.016789	0.780203	-0.408449
C67	C	1.016775	1.014240	0.000005
C68	C	1.016771	1.093665	0.000001
C69	C	1.079005	0.684737	-0.406827
C70	C	0.971726	0.732463	-0.499856
C71	C	1.124041	0.732481	-0.499848
C72	C	0.909447	0.827931	-0.500116
C73	C	1.061840	0.827934	-0.500093
C74	C	0.954497	0.875731	-0.593140
C75	C	1.016784	0.780228	0.304980
C76	C	1.016783	0.780232	0.408482
C77	C	1.321774	0.546184	0.000044
C78	C	1.425285	0.466756	0.000053
C79	C	1.016795	0.546206	0.304991
C80	C	1.016798	0.466784	0.408497
C81	C	1.321772	0.546195	0.305007
C82	C	1.425282	0.466770	0.408519
C83	C	0.711800	1.014240	-0.304975
C84	C	0.608291	1.093665	-0.408486
C85	C	0.711798	1.014251	-0.000011
C86	C	0.608288	1.093679	-0.000021
C87	C	1.016777	1.014230	-0.304958
C88	C	1.016775	1.093651	-0.408464
C89	C	1.414342	0.429455	-0.059506
C90	C	1.511591	0.354834	-0.059520
C91	C	1.619783	0.317509	0.000033
C92	C	1.630723	0.354817	0.059594
C93	C	1.533475	0.429442	0.059600
C94	C	1.076351	0.429487	0.516668
C95	C	1.076350	0.354872	0.613932
C96	C	1.016801	0.317551	0.603022
C97	C	0.957239	0.354856	0.494840
C98	C	0.957235	0.429474	0.397578
C99	C	1.533454	0.429467	0.397582
C100	C	1.630722	0.354849	0.494832
C101	C	1.619814	0.317530	0.603018
C102	C	1.511630	0.354841	0.613953
C103	C	1.414365	0.429462	0.516704
C104	C	0.500118	1.130977	-0.397549
C105	C	0.402851	1.205618	-0.494799
C106	C	0.413758	1.242941	-0.602986
C107	C	0.521942	1.205626	-0.613921
C108	C	0.619207	1.130991	-0.516671
C109	C	0.619231	1.130988	0.059529
C110	C	0.521981	1.205630	0.059516
C111	C	0.413790	1.242957	-0.000040
C112	C	0.402849	1.205645	-0.059597
C113	C	0.500097	1.131010	-0.059590
C114	C	1.076336	1.130949	-0.397518
C115	C	1.076355	1.205564	-0.494763
C116	C	1.016806	1.242885	-0.602954
C117	C	0.957243	1.205580	-0.613897
C118	C	0.957231	1.130961	-0.516653
H119	H	0.908744	0.459843	0.108074
H120	H	0.849183	0.347929	0.167609
Br121	Br	1.157191	1.256179	-0.479884
H122	H	1.184395	0.347899	-0.167582
Br123	Br	1.016833	1.344156	-0.734918
H124	H	0.707284	1.100612	-0.525590
H125	H	1.718826	0.324417	0.108079
Br126	Br	1.267562	0.480075	0.531568
Br127	Br	0.876408	0.480079	0.250778
Br128	Br	1.125403	0.895127	-0.498472
H129	H	1.124827	1.100573	-0.309433
Br130	Br	0.876421	1.256250	-0.760736
Br131	Br	0.766050	1.080349	0.140360
Br132	Br	0.281743	1.344233	-0.734958
H133	H	0.530810	1.236024	-0.702017
Br134	Br	0.365526	0.895236	0.108551
Br135	Br	0.256009	1.256312	-0.140414
H136	H	0.818700	0.868251	-0.499301
Br137	Br	1.777528	0.304227	0.479965
Br138	Br	1.166560	0.550192	-0.273881
Br139	Br	1.157184	0.480115	0.531505
Br140	Br	0.876428	0.304194	0.480053
H141	H	0.933614	0.692118	-0.500788
Br142	Br	0.876380	1.080360	-0.531529
Br143	Br	1.548289	0.480103	0.250769
Br144	Br	0.866686	1.010387	-0.725872
Br145	Br	1.157165	0.480097	-0.140350
H146	H	0.632387	0.692190	0.197930
Br147	Br	0.443098	1.010244	-0.150005
H148	H	0.849187	0.212529	0.167607
H149	H	0.530911	1.235996	0.108018
Br150	Br	1.275219	0.665200	-0.501352
H151	H	0.334613	1.303730	-0.000037
H152	H	1.699023	0.256768	0.682196
H153	H	1.326256	0.459844	-0.108015
H154	H	1.502661	0.324467	-0.108021
Br155	Br	0.485225	1.080382	-0.140409
H156	H	1.698959	0.256744	0.000019
H157	H	1.542401	0.459803	0.108107
Br158	Br	0.365468	0.895214	-0.258436
Br159	Br	0.485283	1.080339	-0.250737
Br160	Br	1.157191	0.304259	0.760735
H161	H	0.314772	1.235988	-0.485874
H162	H	0.573772	0.603913	0.114819
H163	H	0.908732	0.100595	0.108046
Br164	Br	1.157134	0.080346	-0.140376
H165	H	1.502765	0.324445	0.702052
Br166	Br	1.216692	0.192274	-0.199923
H167	H	1.016813	0.256792	0.682228
H168	H	0.632194	0.692183	-0.083339
