data_functionalizedCrystal
_audit_creation_method	'MofGen! by Chris Wilmer'
_symmetry_space_group_name_H-M	'P1'
_symmetry_Int_Tables_number	1
_symmetry_cell_setting	triclinic
loop_
_symmetry_equiv_pos_as_xyz
  x,y,z
_cell_length_a	12.759401
_cell_length_b	10.686285
_cell_length_c	12.759393
_cell_angle_alpha	85.601997
_cell_angle_beta	89.981504
_cell_angle_gamma	85.631983
loop_
_atom_site_label
_atom_site_type_symbol
_atom_site_fract_x
_atom_site_fract_y
_atom_site_fract_z
Zn1	Zn	1.638392	-0.502271	-0.561964
Zn2	Zn	1.651790	-0.713314	-0.372831
Zn3	Zn	1.462698	-0.502337	-0.386299
Zn4	Zn	1.476180	-0.713217	-0.548479
O5	O	1.557265	-0.607785	-0.467393
O6	O	1.787191	-0.530279	-0.536882
O7	O	1.626671	-0.685396	-0.227592
O8	O	1.474756	-0.325751	-0.420881
O9	O	1.797034	-0.685332	-0.397927
O10	O	1.603837	-0.325703	-0.549942
O11	O	1.487747	-0.530392	-0.237487
O12	O	1.317465	-0.530298	-0.407805
O13	O	1.497733	-0.685167	-0.697293
O14	O	1.327370	-0.685231	-0.526958
O15	O	1.616910	-0.530185	-0.707200
O16	O	1.639744	-0.889878	-0.384851
O17	O	1.510724	-0.889807	-0.513898
C18	C	1.284296	-0.607762	-0.467380
C19	C	1.167521	-0.607782	-0.467398
C20	C	1.117852	-0.688585	-0.529321
C21	C	1.008129	-0.688601	-0.529332
C22	C	0.997753	-0.527008	-0.405486
C23	C	1.107474	-0.526986	-0.405482
C24	C	1.123842	-0.781883	-0.600819
C25	C	1.014119	-0.781899	-0.600829
C26	C	1.578179	-0.935627	-0.446473
C27	C	1.587222	-1.075879	-0.437558
C28	C	1.831300	-0.607809	-0.467406
C29	C	1.948077	-0.607819	-0.467412
C30	C	1.557331	-0.607658	-0.741435
C31	C	1.557358	-0.607603	-0.858215
C32	C	1.536298	-0.278662	-0.488418
C33	C	1.527363	-0.138410	-0.497378
C34	C	1.619422	-0.526897	-0.918238
C35	C	1.619445	-0.526851	-1.027965
C36	C	1.495336	-0.688230	-1.017635
C37	C	1.495309	-0.688268	-0.907911
C38	C	1.691079	-0.433730	-0.924202
C39	C	1.691101	-0.433684	-1.033929
C40	C	1.557255	-0.607821	-0.194423
C41	C	1.557407	-0.607519	-0.077666
H42	H	1.469198	-1.084650	-0.555414
H43	H	1.151983	-0.755822	-0.683887
O44	O	1.656759	-1.140049	-0.368475
C45	C	1.808102	-1.288866	-0.345161
C46	C	1.729421	-1.216265	-0.423498
H47	H	1.866855	-1.350525	-0.389613
H48	H	1.851793	-1.219265	-0.301598
H49	H	1.763852	-1.350624	-0.286255
H50	H	1.773590	-1.154505	-0.482467
H51	H	1.685731	-1.285934	-0.466983
O52	O	1.171680	-0.892471	-0.558827
C53	C	1.335669	-1.011368	-0.513793
C54	C	1.281627	-0.886055	-0.561351
H55	H	1.424571	-1.006232	-0.515837
H56	H	1.309284	-1.029356	-0.428958
H57	H	1.313151	-1.091330	-0.561449
H58	H	1.304119	-0.806015	-0.513777
H59	H	1.308014	-0.868177	-0.646196
O60	O	0.985969	-0.898485	-0.567408
C61	C	0.895798	-1.078667	-0.608952
C62	C	0.927630	-0.946668	-0.646942
H63	H	0.848607	-1.117652	-0.673227
H64	H	0.969403	-1.143874	-0.590205
H65	H	0.845755	-1.072157	-0.535255
H66	H	0.977649	-0.953058	-0.720661
H67	H	0.853981	-0.881513	-0.665618
H68	H	1.444815	-0.753901	-1.058112
O69	O	0.971062	-0.740305	-0.695838
C70	C	1.002538	-0.661947	-0.874315
C71	C	1.051442	-0.709063	-0.766788
H72	H	1.067500	-0.636650	-0.931701
H73	H	0.957227	-0.739100	-0.905861
H74	H	0.946662	-0.575118	-0.864959
H75	H	1.107363	-0.795869	-0.776056
H76	H	1.096688	-0.631833	-0.735278
H77	H	1.663058	-0.336009	-0.900676
O78	O	1.649436	-0.322920	-1.081749
C79	C	1.678175	-0.143317	-1.201406
C80	C	1.725491	-0.268735	-1.147335
H81	H	1.739650	-0.099458	-1.254427
H82	H	1.607049	-0.161240	-1.250608
H83	H	1.652810	-0.076356	-1.139143
H84	H	1.750919	-0.335758	-1.209527
H85	H	1.796574	-0.250715	-1.098112
O86	O	1.434977	-0.766765	-0.849760
C87	C	1.311796	-0.926731	-0.851104
C88	C	1.380102	-0.837923	-0.917084
H89	H	1.267395	-0.984266	-0.905509
H90	H	1.364156	-0.992831	-0.795531
H91	H	1.253210	-0.868766	-0.803419
H92	H	1.438696	-0.895786	-0.964833
H93	H	1.327676	-0.771820	-0.972592
O94	O	1.790220	-0.464991	-1.067292
C95	C	1.970819	-0.521914	-1.017850
C96	C	1.858620	-0.486503	-0.979922
H97	H	2.026156	-0.539291	-0.947233
H98	H	1.971252	-0.610930	-1.061757
H99	H	1.998122	-0.441640	-1.072658
H100	H	1.831248	-0.566696	-0.925077
H101	H	1.858250	-0.397449	-0.936075
H102	H	1.770592	-0.468762	-0.887933
H103	H	0.948850	-0.461226	-0.355078
O104	O	1.155557	-0.448442	-0.345245
C105	C	1.133677	-0.288086	-0.222480
C106	C	1.079091	-0.377002	-0.290629
H107	H	1.071878	-0.230285	-0.178322
H108	H	1.188692	-0.345854	-0.163698
H109	H	1.180881	-0.222229	-0.275036
H110	H	1.031832	-0.442878	-0.238157
H111	H	1.024137	-0.319156	-0.349419
