data_functionalizedCrystal
_audit_creation_method	'MofGen! by Chris Wilmer'
_symmetry_space_group_name_H-M	'P1'
_symmetry_Int_Tables_number	1
_symmetry_cell_setting	triclinic
loop_
_symmetry_equiv_pos_as_xyz
  x,y,z
_cell_length_a	14.044220
_cell_length_b	17.038272
_cell_length_c	12.503572
_cell_angle_alpha	93.777379
_cell_angle_beta	86.164750
_cell_angle_gamma	92.150217
loop_
_atom_site_label
_atom_site_type_symbol
_atom_site_fract_x
_atom_site_fract_y
_atom_site_fract_z
O1	O	1.278116	0.185401	-0.089207
O2	O	1.001597	0.178559	-0.089234
O3	O	1.138213	0.068050	-0.089212
O4	O	1.141501	0.295910	-0.089229
O5	O	1.127940	0.076376	0.089428
O6	O	0.991324	0.186885	0.089406
O7	O	1.267843	0.193727	0.089433
Cu8	Cu	1.128646	0.191066	0.105731
Cu9	Cu	1.140795	0.181220	-0.105532
O10	O	1.131228	0.304236	0.089411
C11	C	0.960905	0.179728	0.000083
C12	C	0.854959	0.170796	0.000072
C13	C	0.660980	0.154469	0.000095
C14	C	0.608455	0.217814	0.000095
C15	C	0.500518	0.208729	0.000107
C16	C	0.768927	0.163552	0.000082
C17	C	1.130087	0.042876	0.000108
C18	C	1.121168	-0.044541	0.000106
C19	C	1.203055	-0.088926	0.000115
C20	C	1.194670	-0.171064	0.000104
C21	C	1.104395	-0.208815	0.000092
C22	C	1.022502	-0.164424	0.000080
C23	C	1.030888	-0.082288	0.000083
C24	C	1.074766	-0.456646	0.000074
C25	C	1.066385	-0.538788	0.000074
C26	C	1.238555	-0.545422	0.000097
C27	C	1.246933	-0.463284	0.000107
C28	C	1.165040	-0.418901	0.000089
C29	C	1.095822	-0.292772	0.000084
C30	C	1.173615	-0.334945	0.000089
C31	C	1.308536	0.192558	0.000114
C32	C	1.414481	0.201490	0.000117
C33	C	1.139354	0.329410	0.000089
C34	C	1.148273	0.416827	0.000083
N35	N	1.120107	0.197992	0.254322
N36	N	1.149340	0.174289	-0.254123
C37	C	1.107548	0.208186	0.473435
C38	C	1.161896	0.164097	0.526771
C39	C	1.154908	0.169769	0.648693
C40	C	1.114535	0.202515	0.351502
H41	H	0.624887	0.093419	0.000105
C42	C	0.656759	0.299154	-0.000005
C43	C	0.755769	0.292111	-0.000056
C44	C	0.800303	0.367020	-0.000178
H45	H	0.634752	0.329898	0.062262
H46	H	0.641823	0.323997	-0.062338
H47	H	0.770697	0.267279	0.062270
H48	H	0.777802	0.261381	-0.062318
H49	H	0.785367	0.391863	-0.062510
H50	H	0.778289	0.397758	0.062090
H51	H	0.867486	0.362251	-0.000222
C52	C	1.301159	-0.048092	0.000071
C53	C	1.371078	-0.104548	0.000044
C54	C	1.461464	-0.066965	-0.000017
H55	H	1.304567	-0.013291	0.062350
H56	H	1.311640	-0.019110	-0.062250
H57	H	1.360600	-0.133517	0.062359
H58	H	1.367700	-0.139352	-0.062230
H59	H	1.471946	-0.037983	-0.062338
H60	H	1.464863	-0.032165	0.062263
H61	H	1.508916	-0.105265	-0.000045
C62	C	1.271713	-0.294110	0.000046
C63	C	1.341643	-0.350557	0.000030
C64	C	1.432022	-0.312962	-0.000021
H65	H	1.275110	-0.259307	0.062325
H66	H	1.282195	-0.265128	-0.062275
H67	H	1.331164	-0.379526	0.062345
H68	H	1.338277	-0.385363	-0.062244
H69	H	1.442504	-0.283981	-0.062342
H70	H	1.435409	-0.278161	0.062259
H71	H	1.479481	-0.351256	-0.000042
C72	C	1.230698	0.107981	0.465378
C73	C	1.223924	0.113338	0.354902
C74	C	1.287197	0.061584	0.298309
H75	H	1.214826	0.055662	0.483748
H76	H	1.294094	0.121570	0.483549
H77	H	1.160542	0.099744	0.336739
H78	H	1.239804	0.165645	0.336500
H79	H	1.350594	0.075174	0.316480
H80	H	1.271320	0.009269	0.316688
H81	H	1.282617	0.065218	0.223346
H82	H	1.261352	-0.207199	0.000114
C83	C	1.327443	-0.593662	-0.000117
C84	C	1.332955	-0.645273	-0.092040
C85	C	1.414837	-0.689717	-0.092286
H86	H	1.324261	-0.623014	0.062104
H87	H	1.382436	-0.559444	-0.000169
H88	H	1.277976	-0.679487	-0.091978
H89	H	1.336153	-0.615943	-0.154276
H90	H	1.469830	-0.655498	-0.092338
H91	H	1.411647	-0.719063	-0.030061
H92	H	1.418592	-0.724734	-0.154659
H93	H	1.055775	0.250190	0.519334
H94	H	1.320444	-0.432554	0.000117
C95	C	0.968448	-0.579920	0.000113
C96	C	0.978635	-0.661348	0.000149
C97	C	0.888441	-0.699263	0.000203
H98	H	0.937954	-0.568093	-0.062172
H99	H	0.930853	-0.562237	0.062428
H100	H	1.016215	-0.679024	-0.062159
H101	H	1.009113	-0.673199	0.062429
H102	H	0.850846	-0.681581	0.062518
H103	H	0.857954	-0.687430	-0.062082
H104	H	0.895340	-0.754516	0.000238
H105	H	1.008082	-0.420519	0.000060
C106	C	0.924569	-0.205551	0.000121
C107	C	0.934746	-0.286981	0.000152
C108	C	0.844548	-0.324889	0.000209
H109	H	0.894074	-0.193719	-0.062161
H110	H	0.886977	-0.187868	0.062438
H111	H	0.972322	-0.304658	-0.062159
H112	H	0.965225	-0.298836	0.062430
H113	H	0.806957	-0.307206	0.062526
H114	H	0.814061	-0.313051	-0.062075
H115	H	0.851441	-0.380143	0.000240
H116	H	0.964206	-0.046150	0.000075
H117	H	1.022319	-0.323518	0.000076
