data_functionalizedCrystal
_audit_creation_method	'MofGen! by Chris Wilmer'
_symmetry_space_group_name_H-M	'P1'
_symmetry_Int_Tables_number	1
_symmetry_cell_setting	triclinic
loop_
_symmetry_equiv_pos_as_xyz
  x,y,z
_cell_length_a	16.959455
_cell_length_b	18.050589
_cell_length_c	16.959447
_cell_angle_alpha	90.026643
_cell_angle_beta	90.014322
_cell_angle_gamma	90.025168
loop_
_atom_site_label
_atom_site_type_symbol
_atom_site_fract_x
_atom_site_fract_y
_atom_site_fract_z
Zn1	Zn	1.208339	-0.295705	0.446929
Zn2	Zn	1.208243	-0.419907	0.314759
Zn3	Zn	1.076167	-0.295729	0.314766
Zn4	Zn	1.076113	-0.419851	0.446897
O5	O	1.142216	-0.357798	0.380838
O6	O	1.318937	-0.312194	0.429406
O7	O	1.190705	-0.403467	0.204149
O8	O	1.093763	-0.191801	0.332314
O9	O	1.318866	-0.403445	0.332301
O10	O	1.190869	-0.191784	0.429414
O11	O	1.093670	-0.312234	0.204154
O12	O	0.965549	-0.312180	0.332284
O13	O	1.093671	-0.403350	0.557512
O14	O	0.965510	-0.403373	0.429360
O15	O	1.190817	-0.312141	0.557536
O16	O	1.190653	-0.523824	0.332271
O17	O	1.093578	-0.523783	0.429353
C18	C	0.936849	-0.357774	0.380820
C19	C	0.848993	-0.357781	0.380831
C20	C	0.477513	-0.310275	0.330396
C21	C	0.477521	-0.405382	0.431325
C22	C	0.560067	-0.405371	0.431320
C23	C	0.601340	-0.357813	0.380852
C24	C	0.560067	-0.310265	0.330388
C25	C	0.601346	-0.452924	0.481777
C26	C	0.683897	-0.452916	0.481774
C27	C	0.725171	-0.405353	0.431309
C28	C	0.683893	-0.357802	0.380844
C29	C	0.725166	-0.310243	0.330375
C30	C	0.683890	-0.262689	0.279913
C31	C	0.601342	-0.262702	0.279923
C32	C	0.807720	-0.405340	0.431299
C33	C	0.807720	-0.310233	0.330367
C34	C	1.142120	-0.550750	0.380825
C35	C	1.142152	-0.633296	0.380846
C36	C	1.089414	-0.832751	0.433620
C37	C	1.070151	-0.882194	0.361493
C38	C	1.142229	-0.784426	0.380856
C39	C	1.161531	-0.882065	0.452991
C40	C	1.142303	-0.930411	0.380872
C41	C	1.122929	-0.832782	0.308691
C42	C	1.214342	-0.832648	0.400237
C43	C	1.195106	-0.882069	0.328061
C44	C	1.142185	-0.700328	0.380848
C45	C	1.142347	-1.014508	0.380872
C46	C	1.348384	-0.357823	0.380857
C47	C	1.436240	-0.357834	0.380864
C48	C	1.142249	-0.357737	0.587006
C49	C	1.142263	-0.357710	0.674863
C50	C	1.142333	-0.164092	0.380868
C51	C	1.142383	-0.081547	0.380881
C52	C	1.142228	-0.357806	0.175472
C53	C	1.142368	-0.357623	0.087615
C54	C	1.091778	-0.405121	1.046329
C55	C	1.192936	-0.310143	1.046348
C56	C	1.192915	-0.310159	0.963802
C57	C	1.142326	-0.357657	0.922516
C58	C	1.091757	-0.405139	0.963775
C59	C	1.243489	-0.262683	0.922537
C60	C	1.243470	-0.262698	0.839986
C61	C	1.192876	-0.310192	0.798698
C62	C	1.142305	-0.357676	0.839962
C63	C	1.091715	-0.405174	0.798676
C64	C	1.041139	-0.452654	0.839939
C65	C	1.041162	-0.452634	0.922488
C66	C	1.192852	-0.310212	0.716149
C67	C	1.091694	-0.405193	0.716122
H68	H	0.567727	-0.223986	0.238838
H69	H	1.234033	-0.271557	0.682556
C70	C	1.036915	-0.456790	1.091023
C71	C	1.054065	-0.530275	1.070912
C72	C	1.003535	-0.577893	1.112060
H73	H	1.044119	-0.450079	1.146112
H74	H	0.983798	-0.445962	1.077476
H75	H	1.107170	-0.541100	1.084464
H76	H	1.046857	-0.537010	1.015830
H77	H	0.950417	-0.567065	1.098513
H78	H	1.010742	-0.571175	1.167147
H79	H	1.015159	-0.627757	1.098415
H80	H	0.443903	-0.271555	0.289313
H81	H	0.841323	-0.444060	0.472382
C82	C	1.254816	-0.910669	0.268568
C83	C	1.329965	-0.884444	0.288375
C84	C	1.384983	-0.910771	0.233582
H85	H	1.254926	-0.963290	0.269158
H86	H	1.241056	-0.893683	0.217370
H87	H	1.343721	-0.901434	0.339560
H88	H	1.329881	-0.831827	0.287780
H89	H	1.371223	-0.893784	0.182384
H90	H	1.385085	-0.963390	0.234177
H91	H	1.435976	-0.892975	0.247009
H92	H	1.234129	-0.271477	1.079969
C93	C	0.852385	-0.258569	0.275482
C94	C	0.798567	-0.216943	0.231282
C95	C	0.839683	-0.169352	0.180706
H96	H	0.884616	-0.226178	0.305683
H97	H	0.884545	-0.286920	0.240943
H98	H	0.766420	-0.188595	0.265816
H99	H	0.766335	-0.249316	0.201064
H100	H	0.871843	-0.197702	0.146166
H101	H	0.871912	-0.136965	0.210913
H102	H	0.803174	-0.141108	0.150704
H103	H	0.443911	-0.444106	0.472410
H104	H	0.717505	-0.223970	0.238818
C105	C	1.295548	-0.803459	0.422062
C106	C	1.294592	-0.725904	0.421033
C107	C	1.369388	-0.698989	0.441132
H108	H	1.309242	-0.820221	0.473350
H109	H	1.333239	-0.821039	0.385092
H110	H	1.256913	-0.708332	0.458001
H111	H	1.280911	-0.709122	0.369751
H112	H	1.407079	-0.716568	0.404162
H113	H	1.383076	-0.715756	0.492419
H114	H	1.368751	-0.646366	0.440429
H115	H	0.567735	-0.491649	0.522861
H116	H	1.106562	-0.811223	0.247677
H117	H	1.284681	-0.224017	0.956158
H118	H	1.177827	-0.903713	0.513989
H119	H	0.717497	-0.491637	0.522864
H120	H	1.044685	-0.811096	0.478178
C121	C	1.036741	-0.456850	0.671443
C122	C	0.992474	-0.498438	0.725249
C123	C	0.941855	-0.546042	0.684120
H124	H	1.002240	-0.428533	0.639238
H125	H	1.066938	-0.489260	0.639255
H126	H	0.962279	-0.466032	0.757423
H127	H	1.026954	-0.526770	0.757455
H128	H	0.972052	-0.578452	0.651932
H129	H	0.907359	-0.517719	0.651917
H130	H	0.911819	-0.574270	0.720621
C131	C	0.988824	-0.911175	0.339787
C132	C	0.933726	-0.886208	0.395216
C133	C	0.858801	-0.912895	0.375257
H134	H	0.974668	-0.893592	0.288937
H135	H	0.989528	-0.963803	0.339513
H136	H	0.933021	-0.833591	0.395482
H137	H	0.947857	-0.903789	0.446070
H138	H	0.859504	-0.965523	0.374983
H139	H	0.844653	-0.895310	0.324407
H140	H	0.821409	-0.895964	0.412866
C141	C	0.986307	-0.504305	0.967189
C142	C	1.003456	-0.577789	0.947076
C143	C	0.952936	-0.625409	0.988236
H144	H	0.993521	-0.497592	1.022276
H145	H	0.933186	-0.493479	0.953652
H146	H	1.056564	-0.588612	0.960618
H147	H	0.996238	-0.584526	0.891996
H148	H	0.899815	-0.614583	0.974699
H149	H	0.960154	-0.618689	1.043321
H150	H	0.964560	-0.675272	0.974590
C151	C	1.298403	-0.211063	0.795332
C152	C	1.342698	-0.169451	0.849158
C153	C	1.393300	-0.121869	0.808052
H154	H	1.332888	-0.239397	0.763116
H155	H	1.268192	-0.178668	0.763158
H156	H	1.372906	-0.201843	0.881319
H157	H	1.308234	-0.141102	0.881376
H158	H	1.363089	-0.089474	0.775878
H159	H	1.427779	-0.150209	0.775837
H160	H	1.423354	-0.093625	0.844566
H161	H	0.999952	-0.491330	0.806313
