data_functionalizedCrystal
_audit_creation_method	'MofGen! by Chris Wilmer'
_symmetry_space_group_name_H-M	'P1'
_symmetry_Int_Tables_number	1
_symmetry_cell_setting	triclinic
loop_
_symmetry_equiv_pos_as_xyz
  x,y,z
_cell_length_a	13.032831
_cell_length_b	12.594516
_cell_length_c	13.032328
_cell_angle_alpha	97.151354
_cell_angle_beta	90.887223
_cell_angle_gamma	82.821304
loop_
_atom_site_label
_atom_site_type_symbol
_atom_site_fract_x
_atom_site_fract_y
_atom_site_fract_z
Zn1	Zn	1.498491	-0.718806	-0.780867
Zn2	Zn	1.998491	-0.218806	-0.280867
Zn3	Zn	1.520238	-0.877394	-0.608896
Zn4	Zn	2.020238	-0.377394	-0.108896
Zn5	Zn	1.348350	-0.674346	-0.587107
Zn6	Zn	1.848350	-0.174346	-0.087107
Zn7	Zn	1.326485	-0.871636	-0.759020
Zn8	Zn	1.826485	-0.371636	-0.259020
O9	O	1.423391	-0.785545	-0.683972
O10	O	1.923391	-0.285545	-0.183972
O11	O	1.645297	-0.760860	-0.776316
O12	O	2.145297	-0.260860	-0.276316
O13	O	1.515688	-0.834262	-0.462089
O14	O	2.015688	-0.334262	0.037911
O15	O	1.368315	-0.531307	-0.612833
O16	O	1.868315	-0.031307	-0.112833
O17	O	1.661274	-0.877374	-0.649970
O18	O	2.161274	-0.377374	-0.149970
O19	O	1.478623	-0.563972	-0.755188
O20	O	1.978623	-0.063972	-0.255188
O21	O	1.389403	-0.685084	-0.446080
O22	O	1.889403	-0.185084	0.053920
O23	O	1.201528	-0.679500	-0.591649
O24	O	1.701528	-0.179500	-0.091649
O25	O	1.331050	-0.867560	-0.905834
O26	O	1.831050	-0.367560	-0.405834
O27	O	1.185464	-0.824449	-0.717953
O28	O	1.685464	-0.324449	-0.217953
O29	O	1.457422	-0.755276	-0.921885
O30	O	1.957422	-0.255276	-0.421885
O31	O	1.494487	-1.025567	-0.628786
O32	O	1.994487	-0.525567	-0.128786
O33	O	1.352138	-1.021336	-0.739082
O34	O	1.852138	-0.521336	-0.239082
C35	C	1.156179	-0.746526	-0.650067
C36	C	1.656179	-0.246526	-0.150067
C37	C	1.041862	-0.729862	-0.635586
C38	C	1.541862	-0.229862	-0.135586
C39	C	0.982987	-0.794243	-0.691530
C40	C	1.482987	-0.294243	-0.191530
C41	C	0.864833	-0.777021	-0.676565
C42	C	1.364833	-0.277021	-0.176565
C43	C	1.423325	-1.062076	-0.683954
C44	C	1.923325	-0.562076	-0.183954
C45	C	1.423386	-1.180394	-0.683992
C46	C	1.923386	-0.680394	-0.183992
C47	C	1.345962	-1.247378	-0.743933
C48	C	1.845962	-0.747378	-0.243933
C49	C	1.332828	-1.303996	-0.646915
C50	C	1.832828	-0.803996	-0.146915
C51	C	1.436611	-1.334591	-0.781037
C52	C	1.936611	-0.834591	-0.281037
C53	C	1.410209	-1.235441	-0.586919
C54	C	1.910209	-0.735441	-0.086919
C55	C	1.514028	-1.266042	-0.721110
C56	C	2.014028	-0.766042	-0.221110
C57	C	1.500938	-1.322626	-0.624032
C58	C	2.000938	-0.822626	-0.124032
C59	C	1.691646	-0.824718	-0.718011
C60	C	2.191646	-0.324718	-0.218011
C61	C	1.805960	-0.841411	-0.732516
C62	C	2.305960	-0.341411	-0.232516
C63	C	1.389371	-0.815735	-0.952219
C64	C	1.889371	-0.315735	-0.452219
C65	C	1.374874	-0.828600	-1.066530
C66	C	1.874874	-0.328600	-0.566530
C67	C	1.423482	-0.507942	-0.684017
C68	C	1.923482	-0.007942	-0.184017
C69	C	1.423521	-0.389644	-0.684036
C70	C	1.923521	0.110356	-0.184036
C71	C	1.415969	-0.792084	-1.243583
C72	C	1.915969	-0.292084	-0.743583
C73	C	1.430947	-0.778778	-1.125436
C74	C	1.930947	-0.278778	-0.625436
C75	C	1.457337	-0.755405	-0.416776
C76	C	1.957337	-0.255405	0.083224
C77	C	1.472033	-0.742269	-0.302492
C78	C	1.972033	-0.242269	0.197508
H79	H	0.843021	-0.909280	-0.791500
H80	H	1.343021	-0.409280	-0.291500
C81	C	1.617459	-1.242734	-0.763546
C82	C	2.117459	-0.742734	-0.263546
N83	N	1.695358	-1.225172	-0.795523
N84	N	2.195358	-0.725172	-0.295523
C85	C	1.257384	-1.202805	-0.812276
C86	C	1.757384	-0.702805	-0.312276
N87	N	1.190665	-1.169227	-0.863745
N88	N	1.690665	-0.669227	-0.363745
H89	H	1.398988	-1.192476	-0.504833
H90	H	1.898988	-0.692476	-0.004833
H91	H	0.827770	-0.709144	-0.617591
H92	H	1.327770	-0.209144	-0.117591
H93	H	1.490034	-0.726270	-1.088406
H94	H	1.990034	-0.226270	-0.588406
H95	H	1.531116	-0.689764	-1.265457
H96	H	2.031116	-0.189764	-0.765457
H97	H	1.315772	-0.881091	-1.103557
H98	H	1.815772	-0.381091	-0.603557
C99	C	1.336132	-0.862998	-1.293608
C100	C	1.836132	-0.362998	-0.793608
N101	N	1.275994	-0.916410	-1.331285
N102	N	1.775994	-0.416410	-0.831285
H103	H	1.256236	-1.321238	-0.615552
H104	H	1.756236	-0.821238	-0.115552
H105	H	1.447744	-1.377668	-0.863090
H106	H	1.947744	-0.877668	-0.363090
C107	C	1.033058	-0.885936	-0.771201
C108	C	1.533058	-0.385936	-0.271201
N109	N	1.070770	-0.955003	-0.831209
N110	N	1.570770	-0.455003	-0.331209
H111	H	1.004794	-0.661989	-0.576617
H112	H	1.504794	-0.161989	-0.076617
H113	H	1.566480	-1.355393	-0.573294
H114	H	2.066480	-0.855393	-0.073294
