data_functionalizedCrystal
_audit_creation_method	'MofGen! by Chris Wilmer'
_symmetry_space_group_name_H-M	'P1'
_symmetry_Int_Tables_number	1
_symmetry_cell_setting	triclinic
loop_
_symmetry_equiv_pos_as_xyz
  x,y,z
_cell_length_a	12.827893
_cell_length_b	16.120444
_cell_length_c	12.827885
_cell_angle_alpha	87.135329
_cell_angle_beta	90.019272
_cell_angle_gamma	92.926466
loop_
_atom_site_label
_atom_site_type_symbol
_atom_site_fract_x
_atom_site_fract_y
_atom_site_fract_z
Zn1	Zn	1.576496	-0.331868	0.611901
Zn2	Zn	2.076496	0.168132	1.111901
Zn3	Zn	1.567494	-0.471303	0.446006
Zn4	Zn	2.067494	0.028697	0.946006
Zn5	Zn	1.401735	-0.331908	0.437177
Zn6	Zn	1.901735	0.168092	0.937177
Zn7	Zn	1.392831	-0.471241	0.620702
Zn8	Zn	1.892831	0.028759	1.120702
O9	O	1.484639	-0.401580	0.528946
O10	O	1.984639	0.098420	1.028946
O11	O	1.721537	-0.350373	0.589906
O12	O	2.221537	0.149627	1.089906
O13	O	1.545465	-0.452855	0.298601
O14	O	2.045465	0.047145	0.798601
O15	O	1.432411	-0.215237	0.452976
O16	O	1.932411	0.284763	0.952976
O17	O	1.714924	-0.452816	0.468024
O18	O	2.214924	0.047184	0.968024
O19	O	1.560808	-0.215207	0.581345
O20	O	2.060808	0.284793	1.081345
O21	O	1.423682	-0.350442	0.292115
O22	O	1.923682	0.149558	0.792115
O23	O	1.254318	-0.350382	0.461510
O24	O	1.754318	0.149618	0.961510
O25	O	1.417235	-0.452710	0.765768
O26	O	1.917235	0.047290	1.265768
O27	O	1.247776	-0.452750	0.596346
O28	O	1.747776	0.047250	1.096346
O29	O	1.552173	-0.350313	0.759302
O30	O	2.052173	0.149687	1.259302
O31	O	1.536831	-0.587961	0.476558
O32	O	2.036831	-0.087961	0.976558
O33	O	1.408506	-0.587915	0.604907
O34	O	1.908506	-0.087915	1.104907
C35	C	1.213130	-0.401564	0.528926
C36	C	1.713130	0.098436	1.028926
C37	C	1.096976	-0.401577	0.528943
C38	C	1.596976	0.098423	1.028943
C39	C	1.041977	-0.452311	0.595570
C40	C	1.541977	0.047689	1.095570
C41	C	0.921925	-0.452326	0.595590
C42	C	1.421925	0.047674	1.095590
C43	C	1.470754	-0.618188	0.542669
C44	C	1.970754	-0.118188	1.042669
C45	C	1.464909	-0.710854	0.548574
C46	C	1.964909	-0.210854	1.048574
C47	C	1.515214	-0.921799	0.498537
C48	C	2.015214	-0.421799	0.998537
C49	C	1.454258	-0.880510	0.559367
C50	C	1.954258	-0.380510	1.059367
C51	C	1.460186	-0.786105	0.553360
C52	C	1.960186	-0.286105	1.053360
C53	C	1.509287	-1.016213	0.504543
C54	C	2.009287	-0.516213	1.004543
C55	C	1.757208	-0.401597	0.528968
C56	C	2.257208	0.098403	1.028968
C57	C	1.873361	-0.401604	0.528977
C58	C	2.373361	0.098396	1.028977
C59	C	1.484715	-0.401500	0.801512
C60	C	1.984715	0.098500	1.301512
C61	C	1.484748	-0.401466	0.917663
C62	C	1.984748	0.098534	1.417663
C63	C	1.498607	-0.184126	0.515194
C64	C	1.998607	0.315874	1.015194
C65	C	1.504559	-0.091460	0.509333
C66	C	2.004559	0.408540	1.009333
C67	C	1.484627	-0.401600	0.257438
C68	C	1.984627	0.098400	0.757438
C69	C	1.484812	-0.401399	0.141272
C70	C	1.984812	0.098601	0.641272
C71	C	1.551527	-0.350787	0.966247
C72	C	2.051527	0.149213	1.466247
C73	C	1.551562	-0.350750	1.086295
C74	C	2.051562	0.149250	1.586295
H75	H	0.920640	-0.358170	0.471928
H76	H	1.420640	0.141830	0.971928
C77	C	1.463178	-0.513487	1.025493
C78	C	1.963178	-0.013487	1.525493
C79	C	1.407627	-0.459978	1.084863
C80	C	1.907627	0.040022	1.584863
H81	H	1.415526	-0.549646	0.990657
H82	H	1.915526	-0.049646	1.490657
H83	H	1.506618	-0.545396	1.070098
H84	H	2.006618	-0.045396	1.570098
H85	H	1.505050	-0.481705	0.975447
H86	H	2.005050	0.018295	1.475447
H87	H	1.365761	-0.491759	1.134914
H88	H	1.865761	0.008241	1.634914
H89	H	1.364169	-0.428065	1.040254
H90	H	1.864169	0.071935	1.540254
H91	H	1.055186	-0.358150	0.471918
H92	H	1.555186	0.141850	0.971918
H93	H	1.397620	-0.916063	0.615955
H94	H	1.897620	-0.416063	1.115955
H95	H	1.083767	-0.495732	0.652602
H96	H	1.583767	0.004268	1.152602
C97	C	1.582797	-0.788223	0.430900
C98	C	2.082797	-0.288223	0.930900
C99	C	1.591660	-0.873810	0.422138
C100	C	2.091660	-0.373810	0.922138
H101	H	1.629985	-0.758592	0.383727
H102	H	2.129985	-0.258592	0.883727
H103	H	1.598940	-0.773952	0.500227
H104	H	2.098940	-0.273952	1.000227
H105	H	1.513454	-0.774081	0.414670
H106	H	2.013454	-0.274081	0.914670
H107	H	1.661001	-0.887954	0.438375
H108	H	2.161001	-0.387954	0.938375
H109	H	1.575523	-0.888087	0.352795
H110	H	2.075523	-0.388087	0.852795
H111	H	0.874640	-0.495763	0.652629
H112	H	1.374640	0.004237	1.152629
H113	H	1.427595	-0.444822	0.964943
H114	H	1.927595	0.055178	1.464943
C115	C	1.573100	-0.238777	0.836278
C116	C	2.073100	0.261223	1.336278
C117	C	1.628679	-0.292251	0.902427
C118	C	2.128679	0.207749	1.402427
H119	H	1.620735	-0.202644	0.796876
H120	H	2.120735	0.297356	1.296876
H121	H	1.529686	-0.206838	0.876835
H122	H	2.029686	0.293162	1.376835
H123	H	1.531199	-0.270586	0.790249
H124	H	2.031199	0.229414	1.290249
H125	H	1.670575	-0.260441	0.948461
H126	H	2.170575	0.239559	1.448461
H127	H	1.672111	-0.324193	0.861866
H128	H	2.172111	0.175807	1.361866
C129	C	1.613834	-0.303469	1.250710
C130	C	2.113834	0.196531	1.750710
C131	C	1.628742	-0.292169	1.142706
C132	C	2.128742	0.207831	1.642706
H133	H	1.661479	-0.267296	1.285534
H134	H	2.161479	0.232704	1.785534
H135	H	1.625527	-0.359485	1.272085
H136	H	2.125527	0.140515	1.772085
H137	H	1.544388	-0.291273	1.267758
H138	H	2.044388	0.208727	1.767758
H139	H	1.698187	-0.304370	1.125657
H140	H	2.198187	0.195630	1.625657
H141	H	1.617058	-0.236140	1.121322
H142	H	2.117058	0.263860	1.621322
