data_functionalizedCrystal
_audit_creation_method	'MofGen! by Chris Wilmer'
_symmetry_space_group_name_H-M	'P1'
_symmetry_Int_Tables_number	1
_symmetry_cell_setting	triclinic
loop_
_symmetry_equiv_pos_as_xyz
  x,y,z
_cell_length_a	10.654546
_cell_length_b	18.266242
_cell_length_c	10.654551
_cell_angle_alpha	90.003472
_cell_angle_beta	95.515557
_cell_angle_gamma	89.983757
loop_
_atom_site_label
_atom_site_type_symbol
_atom_site_fract_x
_atom_site_fract_y
_atom_site_fract_z
O1	O	-1.667852	0.060999	0.176380
O2	O	-1.302374	0.060973	0.193191
O3	O	-1.493515	0.060987	0.002046
O4	O	-1.476711	0.060985	0.367525
O5	O	-1.493483	-0.060775	0.002036
O6	O	-1.302341	-0.060789	0.193181
O7	O	-1.667820	-0.060763	0.176370
Zn8	Zn	-1.485075	-0.080108	0.184774
Zn9	Zn	-1.485118	0.080318	0.184787
O10	O	-1.476678	-0.060777	0.367515
C11	C	-1.255559	0.000089	0.191953
C12	C	-1.116116	0.000079	0.188262
N13	N	-1.485055	-0.189595	0.184764
C14	C	-1.036630	0.000086	0.300805
C15	C	-0.905609	0.000094	0.297330
C16	C	-0.933572	0.000090	0.068760
C17	C	-1.064590	0.000077	0.072236
C18	C	-1.088156	0.000088	0.416831
C19	C	-1.008669	0.000096	0.529382
C20	C	-0.877648	0.000104	0.525907
C21	C	-0.826114	0.000104	0.409881
C22	C	-1.569721	-0.227898	0.100167
C23	C	-1.569729	-0.304543	0.100162
C24	C	-1.485083	-0.342882	0.184774
C25	C	-1.400401	-0.304570	0.269377
C26	C	-1.400387	-0.227927	0.269372
N27	N	-1.470065	-0.463216	0.295765
N28	N	-1.470086	-0.536024	0.295766
C29	C	-1.485118	-0.573805	0.184793
N30	N	-1.500153	-0.536027	0.073815
N31	N	-1.500139	-0.463212	0.073816
C32	C	-1.485088	-0.425989	0.184789
C33	C	-1.569797	-0.695214	0.100183
C34	C	-1.569797	-0.771861	0.100175
C35	C	-1.400475	-0.771887	0.269402
C36	C	-1.400469	-0.695242	0.269399
C37	C	-1.485137	-0.656910	0.184790
C38	C	-0.714634	0.000113	0.177612
C39	C	-0.854076	0.000100	0.181311
C40	C	-1.492265	0.000108	-0.044757
C41	C	-1.488572	0.000112	-0.184200
N42	N	-1.485148	0.189805	0.184787
C43	C	-1.486858	0.066483	-0.249706
C44	C	-1.483378	0.066480	-0.380726
C45	C	-1.483332	-0.066272	-0.380723
C46	C	-1.486803	-0.066268	-0.249704
C47	C	-1.488628	0.132863	-0.184202
C48	C	-1.486915	0.199240	-0.249708
C49	C	-1.483434	0.199236	-0.380729
C50	C	-1.481667	0.132856	-0.446242
C51	C	-1.477928	0.000104	0.414318
C52	C	-1.481621	0.000104	0.553761
H53	H	-1.194838	0.000085	0.419673
O54	O	-1.488665	-0.137851	-0.179037
H55	H	-1.486873	-0.184010	-0.246598
O56	O	-1.488806	0.270834	-0.179058
H57	H	-1.575845	0.274023	-0.129829
H58	H	-1.638659	-0.196691	0.031272
H59	H	-1.638738	-0.803047	0.031280
O60	O	-1.064241	0.000094	0.654522
H61	H	-1.168700	0.000094	0.638035
H62	H	-0.812933	0.000103	0.617552
O63	O	-0.877997	0.000096	-0.056378
H64	H	-0.773537	0.000113	-0.039887
O65	O	-1.661061	-0.653856	0.008893
H66	H	-1.722566	-0.618914	0.062299
H67	H	-1.638676	-0.335735	0.031270
H68	H	-1.491465	0.132873	-0.077519
O69	O	-1.309121	-0.345915	0.360662
H70	H	-1.211073	-0.331238	0.343757
O71	O	-1.309201	-0.813219	0.360705
H72	H	-1.211149	-0.798539	0.343818
O73	O	-0.684798	0.000110	0.406125
H74	H	-0.638180	0.000118	0.503876
H75	H	-1.482027	0.253283	-0.434059
O76	O	-1.309161	-0.653919	0.360648
H77	H	-1.326019	-0.668612	0.458707
H78	H	-1.129310	0.000073	-0.019406
O79	O	-1.477929	0.132847	-0.587560
H80	H	-1.477044	0.190152	-0.622110
H81	H	-1.331440	-0.196740	0.338262
H82	H	-1.481894	-0.120315	-0.434075
