data_functionalizedCrystal
_audit_creation_method	'MofGen! by Chris Wilmer'
_symmetry_space_group_name_H-M	'P1'
_symmetry_Int_Tables_number	1
_symmetry_cell_setting	triclinic
loop_
_symmetry_equiv_pos_as_xyz
  x,y,z
_cell_length_a	12.759401
_cell_length_b	19.121063
_cell_length_c	12.759393
_cell_angle_alpha	87.595350
_cell_angle_beta	90.020459
_cell_angle_gamma	92.470439
loop_
_atom_site_label
_atom_site_type_symbol
_atom_site_fract_x
_atom_site_fract_y
_atom_site_fract_z
Zn1	Zn	1.588328	-0.279555	0.611809
Zn2	Zn	1.580686	-0.397021	0.443604
Zn3	Zn	1.412626	-0.279591	0.436146
Zn4	Zn	1.405087	-0.396973	0.619238
O5	O	1.496682	-0.338285	0.527699
O6	O	1.734335	-0.295142	0.589508
O7	O	1.558349	-0.381478	0.295596
O8	O	1.442287	-0.181302	0.453218
O9	O	1.728720	-0.381444	0.465928
O10	O	1.571375	-0.181276	0.582277
O11	O	1.434876	-0.295204	0.290117
O12	O	1.264605	-0.295157	0.460422
O13	O	1.429437	-0.381362	0.765271
O14	O	1.259066	-0.381397	0.594938
O15	O	1.564064	-0.295096	0.759813
O16	O	1.551038	-0.495299	0.473132
O17	O	1.422027	-0.495264	0.602170
C18	C	1.223715	-0.338276	0.527678
C19	C	1.106937	-0.338290	0.527695
C20	C	1.049214	-0.383263	0.597636
C21	C	0.939490	-0.383266	0.597657
C22	C	0.945222	-0.293320	0.457786
C23	C	1.054944	-0.293314	0.457771
C24	C	1.484913	-0.520765	0.539289
C25	C	1.479975	-0.598831	0.544282
C26	C	1.544877	-0.635501	0.479501
C27	C	1.540238	-0.708853	0.484203
C28	C	1.470692	-0.745532	0.553682
C29	C	1.405788	-0.708856	0.618471
C30	C	1.410432	-0.635507	0.613773
C31	C	1.453311	-0.967001	0.571230
C32	C	1.448670	-1.040356	0.575920
C33	C	1.583122	-1.040347	0.441653
C34	C	1.587756	-0.966996	0.436957
C35	C	1.522855	-0.930327	0.501750
C36	C	1.465947	-0.820508	0.558488
C37	C	1.527606	-0.855351	0.496948
C38	C	1.770714	-0.338294	0.527721
C39	C	1.887491	-0.338298	0.527731
C40	C	1.496762	-0.338220	0.801729
C41	C	1.496797	-0.338192	0.918503
C42	C	1.508525	-0.155092	0.516087
C43	C	1.513571	-0.077026	0.511139
C44	C	1.496665	-0.338299	0.254733
C45	C	1.496847	-0.338129	0.137946
C46	C	1.561120	-0.383063	1.085950
C47	C	1.561092	-0.383096	0.976228
C48	C	1.432517	-0.293256	0.970506
C49	C	1.432540	-0.293227	1.080227
H50	H	0.902876	-0.256703	0.400855
H51	H	1.613482	-0.419626	1.132942
H52	H	0.892497	-0.419887	0.654612
H53	H	1.380196	-0.256636	1.122562
O54	O	1.630429	-0.431550	0.920143
H55	H	1.675156	-0.462760	0.978715
H56	H	1.101944	-0.256687	0.400816
H57	H	1.380161	-0.256698	0.923498
H58	H	1.409321	-0.850381	0.615056
O59	O	1.619892	-0.595941	0.404566
H60	H	1.664251	-0.633766	0.360319
H61	H	1.593088	-0.738706	0.431450
O62	O	1.662775	-0.927434	0.362029
H63	H	1.707136	-0.965257	0.317779
H64	H	1.635962	-1.070211	0.388905
O65	O	1.340417	-0.595955	0.683635
H66	H	1.357493	-0.609984	0.767007
O67	O	1.105299	-0.431761	0.673061
H68	H	1.046722	-0.463028	0.721707
O69	O	1.373659	-1.079927	0.650859
H70	H	1.392536	-1.065810	0.732432
O71	O	1.383283	-0.927454	0.641077
H72	H	1.334128	-0.965285	0.690158
H73	H	1.349167	-0.738726	0.675047
H74	H	1.584235	-0.825485	0.440382
