data_functionalizedCrystal
_audit_creation_method	'MofGen! by Chris Wilmer'
_symmetry_space_group_name_H-M	'P1'
_symmetry_Int_Tables_number	1
_symmetry_cell_setting	triclinic
loop_
_symmetry_equiv_pos_as_xyz
  x,y,z
_cell_length_a	14.853567
_cell_length_b	14.853567
_cell_length_c	13.930277
_cell_angle_alpha	90.000757
_cell_angle_beta	89.995755
_cell_angle_gamma	96.365070
loop_
_atom_site_label
_atom_site_type_symbol
_atom_site_fract_x
_atom_site_fract_y
_atom_site_fract_z
O1	O	1.196368	-0.117704	-0.079756
O2	O	0.933909	-0.131725	-0.079772
O3	O	1.072149	0.006516	-0.079767
O4	O	1.058128	-0.255944	-0.079762
O5	O	1.072130	0.006519	0.079895
O6	O	0.933890	-0.131722	0.079890
O7	O	1.196349	-0.117701	0.079905
Zn8	Zn	1.065116	-0.124711	0.105247
Zn9	Zn	1.065142	-0.124715	-0.105114
O10	O	1.058109	-0.255941	0.079900
C11	C	0.900311	-0.131088	0.000057
C12	C	0.800227	-0.129184	0.000051
N13	N	1.065106	-0.124708	0.248814
C14	C	1.071504	0.040106	0.000061
C15	C	1.069601	0.140189	0.000053
C16	C	0.387693	-0.039019	0.000070
C17	C	0.366412	-0.203251	0.000073
C18	C	0.460446	-0.205042	0.000070
C19	C	0.518108	-0.123819	0.000066
C20	C	0.481736	-0.040806	0.000065
C21	C	0.496825	-0.288053	0.000061
C22	C	0.590864	-0.289846	0.000057
C23	C	0.648528	-0.208623	0.000060
C24	C	0.612150	-0.125607	0.000060
C25	C	0.669812	-0.044384	0.000056
C26	C	0.633437	0.038633	0.000063
C27	C	0.539399	0.040417	0.000067
C28	C	0.742565	-0.210407	0.000055
C29	C	0.763855	-0.046172	0.000050
C30	C	1.229947	-0.118337	0.000075
C31	C	1.330031	-0.120241	0.000075
C32	C	1.058754	-0.289531	0.000070
C33	C	1.060657	-0.389615	0.000072
C34	C	0.979435	0.552723	0.000066
C35	C	1.143668	0.574004	0.000076
C36	C	1.145458	0.479971	0.000070
C37	C	1.064235	0.422309	0.000064
C38	C	0.981223	0.458680	0.000063
C39	C	1.228469	0.443591	0.000080
C40	C	1.230262	0.349552	0.000076
C41	C	1.149039	0.291889	0.000063
C42	C	1.066023	0.328266	0.000061
C43	C	0.984800	0.270604	0.000055
C44	C	0.901783	0.306979	0.000047
C45	C	0.899999	0.401017	0.000050
C46	C	1.150823	0.197851	0.000059
C47	C	0.986588	0.176561	0.000052
N48	N	1.065160	-0.124711	-0.248680
C49	C	1.003926	-0.185904	0.701081
C50	C	1.126382	-0.063519	0.701055
C51	C	1.126371	-0.063516	0.600559
C52	C	1.065138	-0.124709	0.550319
C53	C	1.003916	-0.185904	0.600576
C54	C	1.187598	-0.002328	0.550295
C55	C	1.187591	-0.002323	0.449793
C56	C	1.126353	-0.063512	0.399552
C57	C	1.065127	-0.124710	0.449814
C58	C	1.003894	-0.185902	0.399575
C59	C	0.942664	-0.247096	0.449835
C60	C	0.942677	-0.247094	0.550334
C61	C	1.126339	-0.063515	0.299053
C62	C	1.003883	-0.185903	0.299070
H63	H	0.810798	0.019971	0.000050
H64	H	0.509774	0.108005	0.000096
Br65	Br	1.209439	0.019519	0.230848
H66	H	0.892811	-0.296924	0.408919
Br67	Br	0.640223	-0.402509	0.000048
Br68	Br	1.253893	0.652259	0.000105
Br69	Br	0.711703	0.148859	0.000046
Br70	Br	0.866774	0.602086	0.000041
Br71	Br	0.338331	0.073642	0.000088
Br72	Br	1.338693	0.521849	0.000115
H73	H	0.319459	-0.269379	0.000068
Br74	Br	1.209490	0.019518	0.769233
Br75	Br	0.791557	0.228714	0.000051
Br76	Br	1.342925	0.300193	0.000073
H77	H	0.892827	-0.296916	0.591263
Br78	Br	1.270685	0.080723	0.381588
H79	H	1.218414	0.168238	0.000072
Br80	Br	0.920769	-0.268948	0.230895
Br81	Br	0.787343	0.450389	0.000033
H82	H	0.954071	-0.235724	0.742005
H83	H	0.920445	0.129618	0.000043
H84	H	1.237457	0.047489	0.591203
H85	H	0.449870	-0.354180	0.000054
H86	H	0.772178	-0.277998	0.000051
