data_functionalizedCrystal
_audit_creation_method	'MofGen! by Chris Wilmer'
_symmetry_space_group_name_H-M	'P1'
_symmetry_Int_Tables_number	1
_symmetry_cell_setting	triclinic
loop_
_symmetry_equiv_pos_as_xyz
  x,y,z
_cell_length_a	11.169417
_cell_length_b	14.908520
_cell_length_c	11.169409
_cell_angle_alpha	86.739668
_cell_angle_beta	90.019824
_cell_angle_gamma	93.321403
loop_
_atom_site_label
_atom_site_type_symbol
_atom_site_fract_x
_atom_site_fract_y
_atom_site_fract_z
Zn1	Zn	1.807298	-0.359063	0.706060
Zn2	Zn	2.140632	-0.025729	1.039393
Zn3	Zn	2.473965	0.307604	1.372727
Zn4	Zn	1.795562	-0.509955	0.516941
Zn5	Zn	2.128896	-0.176621	0.850274
Zn6	Zn	2.462229	0.156712	1.183607
Zn7	Zn	1.606580	-0.359118	0.505398
Zn8	Zn	1.939913	-0.025784	0.838732
Zn9	Zn	2.273247	0.307549	1.172065
Zn10	Zn	1.594972	-0.509881	0.717580
Zn11	Zn	1.928305	-0.176548	1.050913
Zn12	Zn	2.261639	0.156786	1.384246
O13	O	1.701103	-0.434504	0.611495
O14	O	2.034436	-0.101171	0.944828
O15	O	2.367770	0.232163	1.278161
O16	O	1.973691	-0.379086	0.680982
O17	O	2.307024	-0.045753	1.014315
O18	O	2.640357	0.287580	1.347649
O19	O	1.770440	-0.489999	0.347464
O20	O	2.103773	-0.156666	0.680797
O21	O	2.437106	0.176667	1.014130
O22	O	1.642975	-0.232866	0.522365
O23	O	1.976309	0.100467	0.855698
O24	O	2.309642	0.433800	1.189032
O25	O	1.965068	-0.489946	0.542037
O26	O	2.298401	-0.156613	0.875370
O27	O	2.631735	0.176721	1.208704
O28	O	1.790442	-0.232826	0.669790
O29	O	2.123776	0.100507	1.003123
O30	O	2.457109	0.433841	1.336457
O31	O	1.631595	-0.379180	0.338984
O32	O	1.964929	-0.045847	0.672317
O33	O	2.298262	0.287487	1.005650
O34	O	1.437091	-0.379109	0.533535
O35	O	1.770424	-0.045776	0.866869
O36	O	2.103758	0.287558	1.200202
O37	O	1.623191	-0.489821	0.883997
O38	O	1.956524	-0.156488	1.217331
O39	O	2.289858	0.176846	1.550664
O40	O	1.428563	-0.489874	0.689424
O41	O	1.761896	-0.156541	1.022758
O42	O	2.095229	0.176792	1.356091
O43	O	1.779186	-0.379015	0.875534
O44	O	2.112520	-0.045682	1.208867
O45	O	2.445853	0.287651	1.542200
O46	O	1.759184	-0.636189	0.553207
O47	O	2.092517	-0.302855	0.886541
O48	O	2.425850	0.030478	1.219874
O49	O	1.611811	-0.636135	0.700616
O50	O	1.945144	-0.302802	1.033949
O51	O	2.278478	0.030532	1.367283
C52	C	1.389279	-0.434490	0.611478
C53	C	1.722613	-0.101157	0.944811
C54	C	2.055946	0.232176	1.278145
C55	C	1.255878	-0.434506	0.611501
C56	C	1.589212	-0.101173	0.944835
C57	C	1.922545	0.232161	1.278168
C58	C	1.682997	-0.668895	0.629440
C59	C	2.016330	-0.335562	0.962774
C60	C	2.349663	-0.002229	1.296107
C61	C	1.675361	-0.769169	0.637158
C62	C	2.008694	-0.435836	0.970491
C63	C	2.342027	-0.102502	1.303824
C64	C	1.814629	-0.957589	0.498287
C65	C	2.147962	-0.624256	0.831620
C66	C	2.481295	-0.290922	1.164953
C67	C	1.807458	-1.051805	0.505534
C68	C	2.140791	-0.718472	0.838867
C69	C	2.474125	-0.385138	1.172201
C70	C	1.653855	-1.051819	0.658905
C71	C	1.987189	-0.718486	0.992238
C72	C	2.320522	-0.385152	1.325572
C73	C	1.661026	-0.957603	0.651658
C74	C	1.994359	-0.624270	0.984991
C75	C	2.327693	-0.290936	1.318324
C76	C	1.741414	-0.910491	0.571344
C77	C	2.074748	-0.577158	0.904678
C78	C	2.408081	-0.243825	1.238011
C79	C	1.748578	-0.816274	0.564092
C80	C	2.081911	-0.482940	0.897425
C81	C	2.415245	-0.149607	1.230759
C82	C	1.594982	-0.816289	0.717468
C83	C	1.928315	-0.482956	1.050802
C84	C	2.261649	-0.149622	1.384135
C85	C	1.587811	-0.910505	0.724716
C86	C	1.921145	-0.577172	1.058049
C87	C	2.254478	-0.243838	1.391382
C88	C	2.014144	-0.434518	0.611512
C89	C	2.347478	-0.101185	0.944845
C90	C	2.680811	0.232148	1.278179
C91	C	2.147544	-0.434524	0.611519
C92	C	2.480877	-0.101191	0.944853
C93	C	2.814210	0.232142	1.278186
C94	C	1.701203	-0.434404	0.924530
C95	C	2.034536	-0.101070	1.257863
C96	C	2.367870	0.232263	1.591196
C97	C	1.701245	-0.434361	1.057926
C98	C	2.034579	-0.101028	1.391260
C99	C	2.367912	0.232306	1.724593
C100	C	1.719313	-0.199197	0.593505
C101	C	2.052646	0.134136	0.926838
C102	C	2.385979	0.467470	1.260172
C103	C	1.727073	-0.098923	0.585839
C104	C	2.060406	0.234410	0.919172
C105	C	2.393739	0.567743	1.252506
C106	C	1.701078	-0.434539	0.299673
C107	C	2.034411	-0.101205	0.633006
C108	C	2.367744	0.232128	0.966339
C109	C	1.701287	-0.434327	0.166257
C110	C	2.034621	-0.100994	0.499590
C111	C	2.367954	0.232339	0.832924
H112	H	1.814031	-0.777916	0.498694
H113	H	2.147364	-0.444583	0.832027
H114	H	2.480698	-0.111249	1.165361
H115	H	1.588415	-1.090194	0.724300
H116	H	1.921748	-0.756860	1.057633
H117	H	2.255082	-0.423527	1.390966
Br118	Br	1.906831	-1.115722	0.406386
Br119	Br	2.240164	-0.782389	0.739719
Br120	Br	2.573497	-0.449055	1.073052
H121	H	1.522365	-0.948876	0.790107
H122	H	1.855698	-0.615543	1.123440
H123	H	2.189032	-0.282210	1.456774
Br124	Br	1.495592	-0.752366	0.816604
Br125	Br	1.828925	-0.419033	1.149937
Br126	Br	2.162259	-0.085699	1.483270
Br127	Br	1.923700	-0.893647	0.389272
Br128	Br	2.257033	-0.560314	0.722605
Br129	Br	2.590367	-0.226981	1.055938
