data_functionalizedCrystal
_audit_creation_method	'MofGen! by Chris Wilmer'
_symmetry_space_group_name_H-M	'P1'
_symmetry_Int_Tables_number	1
_symmetry_cell_setting	triclinic
loop_
_symmetry_equiv_pos_as_xyz
  x,y,z
_cell_length_a	12.759395
_cell_length_b	25.639240
_cell_length_c	12.759387
_cell_angle_alpha	90.039643
_cell_angle_beta	89.982262
_cell_angle_gamma	89.956992
loop_
_atom_site_label
_atom_site_type_symbol
_atom_site_fract_x
_atom_site_fract_y
_atom_site_fract_z
Zn1	Zn	1.606043	0.208119	-0.593919
Zn2	Zn	1.605852	0.295567	-0.418216
Zn3	Zn	1.430347	0.208147	-0.418259
Zn4	Zn	1.430247	0.295525	-0.593858
O5	O	1.518122	0.251840	-0.506063
O6	O	1.753039	0.219725	-0.570619
O7	O	1.582532	0.284000	-0.271200
O8	O	1.453775	0.134978	-0.441604
O9	O	1.752898	0.283973	-0.441530
O10	O	1.582859	0.134958	-0.570661
O11	O	1.453590	0.219773	-0.271232
O12	O	1.283312	0.219732	-0.441545
O13	O	1.453605	0.283902	-0.740887
O14	O	1.283239	0.283929	-0.570557
O15	O	1.582762	0.219685	-0.740932
O16	O	1.582435	0.368727	-0.441471
O17	O	1.453419	0.368696	-0.570515
C18	C	1.245155	0.251829	-0.506050
C19	C	1.128378	0.251838	-0.506069
C20	C	1.128505	0.185045	-0.640706
C21	C	1.073708	0.151655	-0.708033
C22	C	0.963986	0.151664	-0.708046
C23	C	0.909059	0.185066	-0.640723
C24	C	0.963857	0.218456	-0.573396
C25	C	1.073581	0.218444	-0.573392
C26	C	0.963729	0.285245	-0.438755
C27	C	1.073451	0.285239	-0.438746
C28	C	0.908803	0.318647	-0.371432
C29	C	0.963600	0.352040	-0.304109
C30	C	1.073328	0.352030	-0.304099
C31	C	1.128248	0.318629	-0.371419
C32	C	1.517924	0.387682	-0.506005
C33	C	1.517936	0.445796	-0.506015
C34	C	1.585389	0.806163	-0.438944
C35	C	1.585421	0.860767	-0.438954
O36	O	1.642633	0.889007	-0.381895
N37	N	1.518207	0.888079	-0.506086
C38	C	1.450963	0.860783	-0.573220
O39	O	1.393796	0.889028	-0.630323
C40	C	1.450937	0.806180	-0.573215
C41	C	1.518149	0.778871	-0.506071
C42	C	1.652596	0.778854	-0.371806
C43	C	1.652562	0.724253	-0.371795
C44	C	1.585322	0.696962	-0.438922
C45	C	1.518115	0.724271	-0.506059
C46	C	1.383700	0.778886	-0.640353
C47	C	1.383680	0.724279	-0.640342
C48	C	1.450892	0.696970	-0.573198
C49	C	1.450841	0.642379	-0.573175
N50	N	1.518055	0.615067	-0.506043
C51	C	1.585296	0.642358	-0.438916
C52	C	1.451025	0.975454	-0.573228
C53	C	1.451044	1.030056	-0.573229
C54	C	1.585504	1.030036	-0.438964
C55	C	1.585478	0.975433	-0.438959
C56	C	1.518239	0.948142	-0.506096
C57	C	1.585219	0.527693	-0.438897
C58	C	1.585176	0.473088	-0.438889
C59	C	1.450721	0.473113	-0.573157
C60	C	1.450759	0.527713	-0.573162
C61	C	1.518017	0.555002	-0.506028
O62	O	1.393661	0.614104	-0.630208
O63	O	1.642463	0.614107	-0.381833
C64	C	1.792155	0.251851	-0.506076
C65	C	1.908932	0.251855	-0.506082
C66	C	1.518193	0.251786	-0.780096
C67	C	1.518224	0.251763	-0.896873
C68	C	1.518310	1.115467	-0.506126
C69	C	1.518289	1.057353	-0.506106
C70	C	1.383964	0.184879	-0.896925
C71	C	1.316854	0.151426	-0.951812
C72	C	1.316885	0.151407	-1.061534
C73	C	1.384032	0.184846	-1.116371
C74	C	1.451143	0.218298	-1.061484
C75	C	1.451106	0.218312	-0.951760
C76	C	1.585395	0.285184	-1.061432
C77	C	1.585371	0.285201	-0.951711
C78	C	1.652542	0.318622	-1.116270
C79	C	1.719660	0.352073	-1.061383
C80	C	1.719626	0.352090	-0.951654
C81	C	1.652481	0.318653	-0.896824
C82	C	1.518112	0.251856	-0.233095
C83	C	1.518285	0.251732	-0.116319
H84	H	1.217589	0.318615	-0.371413
H85	H	1.328964	0.801111	-0.695024
N86	N	1.248321	0.117238	-1.117589
N87	N	1.188371	0.087388	-1.068622
H88	H	1.139946	0.063256	-1.108210
N89	N	1.788167	0.386261	-0.895574
N90	N	1.751122	0.419582	-0.834318
H91	H	1.799530	0.443716	-0.794712
N92	N	0.796982	0.185065	-0.640713
N93	N	0.748056	0.144269	-0.618907
H94	H	0.668899	0.144268	-0.618898
N95	N	0.907495	0.386162	-0.235361
N96	N	0.919686	0.434411	-0.242146
H97	H	0.880058	0.458512	-0.193593
H98	H	1.117938	0.379219	-0.249270
H99	H	1.639907	0.450855	-0.384208
H100	H	1.639989	0.549905	-0.384233
H101	H	1.707294	0.702021	-0.317124
H102	H	1.652558	0.318607	-1.205611
N103	N	1.654150	0.947539	-0.370392
N104	N	1.721071	0.917026	-0.407407
H105	H	1.769575	0.897328	-0.358981
N106	N	1.788225	0.386227	-1.117412
N107	N	1.788234	0.386210	-1.215377
H108	H	1.836659	0.410331	-1.254953
H109	H	0.819461	0.318651	-0.371445
N110	N	1.240582	0.185035	-0.640719
N111	N	1.289611	0.155214	-0.700834
H112	H	1.368767	0.155205	-0.700846
N113	N	1.129830	0.117538	-0.776786
N114	N	1.227796	0.117531	-0.776769
H115	H	1.267431	0.093435	-0.825324
N116	N	1.248293	0.117261	-0.895792
N117	N	1.255371	0.069015	-0.908083
H118	H	1.206953	0.044884	-0.868520
N119	N	1.652468	0.318663	-0.784746
N120	N	1.674497	0.277887	-0.735809
H121	H	1.674487	0.277892	-0.656653
N122	N	0.908023	0.117558	-0.776830
N123	N	0.957069	0.087741	-0.836938
H124	H	0.917546	0.063656	-0.885523
N125	N	1.382365	1.057948	-0.641791
N126	N	1.285421	1.051899	-0.634730
H127	H	1.236915	1.071596	-0.683156
H128	H	1.707357	0.801069	-0.317143
H129	H	1.395971	0.450884	-0.627808
H130	H	1.640259	1.052267	-0.384309
N131	N	1.382326	0.947588	-0.641815
N132	N	1.322324	0.971985	-0.701746
H133	H	1.273807	0.952307	-0.750188
H134	H	1.328927	0.702061	-0.695017
N135	N	1.382082	0.555604	-0.641735
N136	N	1.322043	0.531227	-0.701656
H137	H	1.273541	0.550921	-0.750091
N138	N	1.383965	0.184898	-0.784848
N139	N	1.465935	0.173988	-0.735898
H140	H	1.465939	0.174002	-0.656741
H141	H	1.384043	0.184832	-1.205712
