data_functionalizedCrystal
_audit_creation_method	'MofGen! by Chris Wilmer'
_symmetry_space_group_name_H-M	'P1'
_symmetry_Int_Tables_number	1
_symmetry_cell_setting	triclinic
loop_
_symmetry_equiv_pos_as_xyz
  x,y,z
_cell_length_a	19.805407
_cell_length_b	13.897447
_cell_length_c	13.897441
_cell_angle_alpha	89.970673
_cell_angle_beta	89.978935
_cell_angle_gamma	90.016846
loop_
_atom_site_label
_atom_site_type_symbol
_atom_site_fract_x
_atom_site_fract_y
_atom_site_fract_z
Zn1	Zn	1.034790	-0.384053	-0.545398
Zn2	Zn	1.534790	0.115947	-0.045398
Zn3	Zn	1.034712	-0.545375	-0.384103
Zn4	Zn	1.534712	-0.045375	0.115897
Zn5	Zn	0.921598	-0.384088	-0.384116
Zn6	Zn	1.421598	0.115912	0.115884
Zn7	Zn	0.921582	-0.545300	-0.545355
Zn8	Zn	1.421582	-0.045300	-0.045355
O9	O	0.978170	-0.464704	-0.464743
O10	O	1.478170	0.035296	0.035257
O11	O	1.129496	-0.405470	-0.524015
O12	O	1.629496	0.094530	-0.024015
O13	O	1.019681	-0.524026	-0.249123
O14	O	1.519681	-0.024026	0.250877
O15	O	0.936653	-0.249102	-0.405533
O16	O	1.436653	0.250898	0.094467
O17	O	1.129439	-0.523992	-0.405512
O18	O	1.629439	-0.023992	0.094488
O19	O	1.019814	-0.249076	-0.524027
O20	O	1.519814	0.250924	-0.024027
O21	O	0.936577	-0.405529	-0.249132
O22	O	1.436577	0.094471	0.250868
O23	O	0.826879	-0.405457	-0.405491
O24	O	1.326879	0.094543	0.094509
O25	O	0.936625	-0.523865	-0.680342
O26	O	1.436625	-0.023865	-0.180342
O27	O	0.826867	-0.523899	-0.523953
O28	O	1.326867	-0.023899	-0.023953
O29	O	1.019798	-0.405397	-0.680374
O30	O	1.519798	0.094603	-0.180374
O31	O	1.019665	-0.680347	-0.405470
O32	O	1.519665	-0.180347	0.094530
O33	O	0.936549	-0.680292	-0.523941
O34	O	1.436549	-0.180292	-0.023941
C35	C	0.802314	-0.464674	-0.464720
C36	C	1.302314	0.035326	0.035280
C37	C	0.727082	-0.464684	-0.464732
C38	C	1.227082	0.035316	0.035268
C39	C	0.691769	-0.403079	-0.526531
C40	C	1.191769	0.096921	-0.026531
C41	C	0.621080	-0.403084	-0.526534
C42	C	1.121080	0.096916	-0.026534
C43	C	0.585707	-0.464700	-0.464744
C44	C	1.085707	0.035300	0.035256
C45	C	0.621025	-0.526308	-0.402939
C46	C	1.121025	-0.026308	0.097061
C47	C	0.691712	-0.526297	-0.402931
C48	C	1.191712	-0.026297	0.097069
C49	C	0.335952	-0.526351	-0.402969
C50	C	0.835952	-0.026351	0.097031
C51	C	0.265260	-0.526359	-0.402983
C52	C	0.765260	-0.026359	0.097017
C53	C	0.265320	-0.403138	-0.526572
C54	C	0.765320	0.096862	-0.026572
C55	C	0.336007	-0.403127	-0.526564
C56	C	0.836007	0.096873	-0.026564
C57	C	0.371319	-0.464731	-0.464756
C58	C	0.871319	0.035269	0.035244
C59	C	0.447968	-0.464724	-0.464751
C60	C	0.947968	0.035276	0.035249
C61	C	0.509060	-0.464713	-0.464753
C62	C	1.009060	0.035287	0.035247
C63	C	0.978115	-0.715318	-0.464721
C64	C	1.478115	-0.215318	0.035279
C65	C	0.978154	-0.822532	-0.464743
C66	C	1.478154	-0.322532	0.035257
C67	C	0.978186	-0.909602	-0.464765
C68	C	1.478186	-0.409602	0.035235
C69	C	0.978234	-1.018835	-0.464790
C70	C	1.478234	-0.518835	0.035210
C71	C	1.154713	-0.464735	-0.464767
C72	C	1.654713	0.035265	0.035233
C73	C	1.229945	-0.464748	-0.464777
C74	C	1.729945	0.035252	0.035223
C75	C	0.978218	-0.464619	-0.716336
C76	C	1.478218	0.035381	-0.216336
C77	C	0.978239	-0.464583	-0.823550
C78	C	1.478239	0.035417	-0.323550
C79	C	0.978244	-0.213111	-0.464787
C80	C	1.478244	0.286889	0.035213
C81	C	0.978275	-0.105897	-0.464805
C82	C	1.478275	0.394103	0.035195
C83	C	0.978257	-0.464517	-1.019845
C84	C	1.478257	0.035483	-0.519845
C85	C	0.978245	-0.464556	-0.910613
C86	C	1.478245	0.035444	-0.410613
C87	C	0.978161	-0.464719	-0.214129
C88	C	1.478161	0.035281	0.285871
C89	C	0.978272	-0.464484	-0.106915
C90	C	1.478272	0.035516	0.393085
H91	H	0.720464	-0.576462	-0.352608
H92	H	1.220464	-0.076462	0.147392
H93	H	0.236560	-0.352973	-0.576896
H94	H	0.736560	0.147027	-0.076896
O95	O	0.726023	-0.343136	-0.586589
O96	O	1.226023	0.156864	-0.086589
C97	C	0.718613	-0.220955	-0.709219
C98	C	1.218613	0.279045	-0.209219
C99	C	0.679739	-0.288779	-0.641236
C100	C	1.179739	0.211221	-0.141236
H101	H	0.681210	-0.177005	-0.753434
H102	H	1.181210	0.322995	-0.253434
H103	H	0.751683	-0.170394	-0.665067
H104	H	1.251683	0.329606	-0.165067
H105	H	0.751734	-0.265314	-0.759534
H106	H	1.251734	0.234686	-0.259534
H107	H	0.646582	-0.244497	-0.590907
H108	H	1.146582	0.255503	-0.090907
H109	H	0.646712	-0.339343	-0.685448
H110	H	1.146712	0.160657	-0.185448
H111	H	0.592331	-0.352920	-0.576859
H112	H	1.092331	0.147080	-0.076859
O113	O	0.370263	-0.343182	-0.586617
O114	O	0.870263	0.156818	-0.086617
C115	C	0.362860	-0.220994	-0.709240
C116	C	0.862860	0.279006	-0.209240
C117	C	0.323983	-0.288821	-0.641266
C118	C	0.823983	0.211179	-0.141266
H119	H	0.325460	-0.177040	-0.753456
H120	H	0.825460	0.322960	-0.253456
H121	H	0.395928	-0.170436	-0.665082
H122	H	0.895928	0.329564	-0.165082
H123	H	0.395984	-0.265350	-0.759555
H124	H	0.895984	0.234650	-0.259555
H125	H	0.290823	-0.244543	-0.590938
H126	H	0.790823	0.255457	-0.090938
H127	H	0.290958	-0.339382	-0.685485
H128	H	0.790958	0.160618	-0.185485
H129	H	0.236461	-0.576537	-0.352662
H130	H	0.736461	-0.076537	0.147338
O131	O	0.370281	-0.586060	-0.342838
O132	O	0.870281	-0.086060	0.157162
C133	C	0.450077	-0.598879	-0.212615
C134	C	0.950077	-0.098879	0.287385
C135	C	0.411224	-0.531144	-0.280637
C136	C	0.911224	-0.031144	0.219363
H137	H	0.483199	-0.554508	-0.162322
H138	H	0.983199	-0.054508	0.337678
H139	H	0.412683	-0.642907	-0.168387
H140	H	0.912683	-0.142907	0.331613
H141	H	0.483148	-0.649381	-0.256833
H142	H	0.983148	-0.149381	0.243167
H143	H	0.378152	-0.480584	-0.236493
H144	H	0.878152	0.019416	0.263507
H145	H	0.448654	-0.487184	-0.324868
H146	H	0.948654	0.012816	0.175132
H147	H	0.592219	-0.576472	-0.352624
H148	H	1.092219	-0.076472	0.147376
