data_functionalizedCrystal
_audit_creation_method	'MofGen! by Chris Wilmer'
_symmetry_space_group_name_H-M	'P1'
_symmetry_Int_Tables_number	1
_symmetry_cell_setting	triclinic
loop_
_symmetry_equiv_pos_as_xyz
  x,y,z
_cell_length_a	12.594517
_cell_length_b	21.295416
_cell_length_c	12.594509
_cell_angle_alpha	89.966228
_cell_angle_beta	90.011478
_cell_angle_gamma	89.973781
loop_
_atom_site_label
_atom_site_type_symbol
_atom_site_fract_x
_atom_site_fract_y
_atom_site_fract_z
Zn1	Zn	1.627161	0.250659	0.601539
Zn2	Zn	1.627008	0.355938	0.423544
Zn3	Zn	1.449165	0.250679	0.423599
Zn4	Zn	1.449103	0.355887	0.601504
O5	O	1.538109	0.303291	0.512546
O6	O	1.776087	0.264638	0.577919
O7	O	1.603378	0.342005	0.274605
O8	O	1.472867	0.162587	0.447241
O9	O	1.775974	0.341986	0.447147
O10	O	1.603640	0.162573	0.577973
O11	O	1.472718	0.264672	0.274646
O12	O	1.300211	0.264622	0.447207
O13	O	1.472761	0.341899	0.750455
O14	O	1.300165	0.341918	0.577913
O15	O	1.603580	0.264589	0.750480
O16	O	1.603318	0.444021	0.447113
O17	O	1.472612	0.443983	0.577859
C18	C	1.261568	0.303267	0.512563
C19	C	1.143263	0.303272	0.512595
C20	C	1.074016	0.345396	0.583549
C21	C	1.003231	0.288001	0.609736
C22	C	1.003248	0.360714	0.486384
C23	C	1.074037	0.245847	0.538833
C24	C	1.074060	0.318599	0.415435
C25	C	1.003307	0.261165	0.441586
C26	C	1.537971	0.466843	0.512499
C27	C	1.538009	0.536811	0.512515
C28	C	1.606128	0.569676	0.444507
C29	C	1.606178	0.635418	0.444536
C30	C	1.538090	0.668293	0.512561
C31	C	1.469966	0.635420	0.580582
C32	C	1.469925	0.569679	0.580559
N33	N	1.444980	0.771555	0.520688
N34	N	1.445022	0.834006	0.520704
C35	C	1.538210	0.866368	0.512637
N36	N	1.631358	0.833919	0.504532
N37	N	1.631315	0.771462	0.504511
C38	C	1.538127	0.739579	0.512594
C39	C	1.606390	0.970519	0.444656
C40	C	1.606442	1.036262	0.444693
C41	C	1.470220	1.036263	0.580733
C42	C	1.470178	0.970520	0.580703
C43	C	1.538261	0.937652	0.512659
C44	C	1.815730	0.303315	0.512531
C45	C	1.934036	0.303326	0.512524
C46	C	1.538181	0.303236	0.790167
C47	C	1.538211	0.303212	0.908473
C48	C	1.538279	1.139101	0.512635
C49	C	1.538354	1.069133	0.512720
C50	C	1.538100	0.303300	0.236005
C51	C	1.538275	0.303147	0.117701
C52	C	1.467081	0.345238	0.977712
C53	C	1.564195	0.360622	1.048483
C54	C	1.441173	0.287790	1.048501
C55	C	1.635376	0.318627	0.977686
C56	C	1.512288	0.245768	0.977697
C57	C	1.609469	0.261131	1.048437
H58	H	0.972149	0.409270	0.464247
H59	H	1.414454	0.542919	0.635940
O60	O	1.403972	0.667421	0.646713
C61	C	1.389624	0.741557	0.790471
C62	C	1.464479	0.705368	0.715621
H63	H	1.438515	0.772236	0.846217
H64	H	1.334030	0.772427	0.741631
H65	H	1.340904	0.706760	0.839028
H66	H	1.513268	0.740120	0.667049
H67	H	1.520002	0.674489	0.764522
H68	H	1.105195	0.331561	0.333324
O69	O	1.672485	0.667290	0.378517
C70	C	1.853559	0.687403	0.326996
C71	C	1.778597	0.651256	0.401813
H72	H	1.939368	0.674462	0.345819
H73	H	1.834980	0.674517	0.241137
H74	H	1.841819	0.740030	0.338693
H75	H	1.790296	0.598620	0.390211
H76	H	1.797194	0.664194	0.487645
O77	O	1.403933	1.068121	0.646763
C78	C	1.222864	1.088333	0.698262
C79	C	1.297812	1.052200	0.623428
H80	H	1.137049	1.075484	0.679408
H81	H	1.241413	1.075344	0.784113
H82	H	1.234653	1.140963	0.686617
H83	H	1.286065	0.999562	0.634978
H84	H	1.279245	1.065241	0.537604
O85	O	1.672220	0.537820	0.378272
C86	C	1.723942	0.517741	0.197250
C87	C	1.649040	0.553868	0.272138
H88	H	1.705213	0.530692	0.111424
H89	H	1.809780	0.530633	0.215927
H90	H	1.712238	0.465110	0.208967
H91	H	1.660649	0.606507	0.260463
H92	H	1.563230	0.540924	0.253443
O93	O	1.111245	0.387805	0.655136
C94	C	1.265208	0.435635	0.734803
C95	C	1.223187	0.387601	0.653675
H96	H	1.355717	0.435477	0.733665
H97	H	1.234957	0.484481	0.713309
H98	H	1.236047	0.422476	0.817559
H99	H	1.252331	0.400702	0.570891
H100	H	1.253430	0.338769	0.675260
H101	H	0.972456	0.225524	0.381553
H102	H	1.661831	0.943756	0.389254
O103	O	1.486123	0.187895	0.940385
C104	C	1.457613	0.123003	0.786329
C105	C	1.487299	0.188569	0.828445
H106	H	1.458532	0.123530	0.695821
H107	H	1.517443	0.087001	0.816570
H108	H	1.374803	0.109949	0.815430
H109	H	1.570084	0.201683	0.799361
H110	H	1.427401	0.224534	0.798212
O111	O	1.672652	1.068092	0.378527
C112	C	1.807789	1.061151	0.243624
C113	C	1.732843	1.025025	0.318486
H114	H	1.856489	1.026347	0.195077
H115	H	1.759020	1.091965	0.187879
H116	H	1.863396	1.091894	0.292558
H117	H	1.677220	0.994248	0.269637
H118	H	1.781677	0.994251	0.374234
O119	O	1.733405	0.334123	0.940793
C120	C	1.919393	0.307692	0.935864
C121	C	1.808437	0.290060	0.977699
H122	H	1.980090	0.272084	0.965703
H123	H	1.918630	0.307584	0.845348
H124	H	1.941609	0.356495	0.965631
H125	H	1.786152	0.241253	0.948010
H126	H	1.809259	0.290211	1.068212
O127	O	1.343161	0.272330	1.085486
C128	C	1.157402	0.299236	1.091547
C129	C	1.268336	0.316801	1.049574
H130	H	1.096879	0.335189	1.062547
H131	H	1.134603	0.250654	1.061187
H132	H	1.158616	0.298883	1.182054
H133	H	1.267207	0.317190	0.959069
H134	H	1.291091	0.365372	1.080015
H135	H	1.414704	0.943760	0.636077
H136	H	1.105001	0.197277	0.561066
O137	O	1.590245	0.418536	1.085715
C138	C	1.536245	0.507483	1.190871
C139	C	1.506633	0.441893	1.148805
H140	H	1.468652	0.526393	1.241870
H141	H	1.611590	0.504083	1.240730
H142	H	1.550392	0.540549	1.121081
H143	H	1.492430	0.408791	1.218531
H144	H	1.431316	0.445342	1.098915
O145	O	0.966235	0.272471	0.707728
C146	C	0.961742	0.194826	0.846907
C147	C	1.003727	0.212333	0.735933
H148	H	0.992019	0.146199	0.869735
H149	H	0.990816	0.230721	0.907400
H150	H	0.871234	0.194582	0.845708
H151	H	1.094233	0.212570	0.737028
H152	H	0.974572	0.176434	0.675487
H153	H	1.406976	0.380832	0.946659
H154	H	1.669718	0.225563	1.079294
