data_functionalizedCrystal
_audit_creation_method	'MofGen! by Chris Wilmer'
_symmetry_space_group_name_H-M	'P1'
_symmetry_Int_Tables_number	1
_symmetry_cell_setting	triclinic
loop_
_symmetry_equiv_pos_as_xyz
  x,y,z
_cell_length_a	16.109301
_cell_length_b	19.188930
_cell_length_c	14.586319
_cell_angle_alpha	89.991095
_cell_angle_beta	89.999213
_cell_angle_gamma	83.303131
loop_
_atom_site_label
_atom_site_type_symbol
_atom_site_fract_x
_atom_site_fract_y
_atom_site_fract_z
O1	O	1.102833	0.089744	-0.076193
O2	O	0.860734	0.100912	-0.076209
O3	O	0.988770	-0.006311	-0.076182
O4	O	0.974797	0.196968	-0.076219
O5	O	0.988762	-0.006313	0.076298
O6	O	0.860726	0.100911	0.076272
O7	O	1.102825	0.089742	0.076288
Cu8	Cu	0.981774	0.095326	0.090203
Cu9	Cu	0.981785	0.095328	-0.090124
O10	O	0.974789	0.196966	0.076262
C11	C	0.829757	0.100459	0.000030
C12	C	0.737466	0.099103	0.000025
C13	C	0.514993	0.159573	0.000024
C14	C	0.428277	0.158294	0.000030
C15	C	0.448573	0.031076	0.000050
C16	C	0.535287	0.032357	0.000050
C17	C	0.568495	0.096608	0.000033
C18	C	0.395064	0.094047	0.000038
C19	C	0.301043	0.092659	0.000045
C20	C	0.662522	0.097996	0.000028
C21	C	0.988313	-0.032324	0.000061
C22	C	0.986955	-0.109832	0.000068
C23	C	1.062082	-0.154580	0.000078
C24	C	1.060806	-0.227407	0.000063
C25	C	0.984399	-0.255482	0.000057
C26	C	0.909261	-0.210724	0.000043
C27	C	0.910540	-0.137899	0.000048
N28	N	0.925991	-0.363624	0.051945
N29	N	0.924782	-0.432805	0.051942
C30	C	0.980543	-0.474900	0.000038
N31	N	1.037571	-0.445200	-0.051850
N32	N	1.038783	-0.376013	-0.051843
C33	C	0.983004	-0.334448	0.000051
C34	C	1.054292	-0.598616	0.000030
C35	C	1.053012	-0.671443	0.000010
C36	C	0.901465	-0.654759	-0.000001
C37	C	0.902747	-0.581933	0.000010
C38	C	0.979162	-0.553866	0.000030
C39	C	1.133802	0.090196	0.000047
C40	C	1.226093	0.091552	0.000046
C41	C	0.975246	0.222979	0.000017
C42	C	0.976604	0.300486	0.000003
N43	N	0.981773	0.095325	0.217034
N44	N	0.981793	0.095325	-0.216955
C45	C	1.038486	0.047862	0.452052
C46	C	1.038488	0.047860	0.548034
C47	C	0.925074	0.142790	0.548020
C48	C	0.925068	0.142787	0.452040
C49	C	0.981779	0.095324	0.404059
C50	C	0.981787	0.095325	0.596020
C51	C	0.981789	0.095323	0.700087
C52	C	0.981776	0.095325	0.299985
H53	H	1.124306	-0.131733	0.000091
H54	H	0.542027	0.211890	0.000017
H55	H	1.084663	0.009211	0.587107
H56	H	0.878902	0.181434	0.587096
H57	H	0.578851	-0.018920	0.000059
O58	O	0.869948	0.188963	0.405556
C59	C	0.819886	0.230848	0.468484
H60	H	0.853970	0.231650	0.536899
H61	H	0.758211	0.208162	0.478703
C62	C	0.760609	0.305177	0.346973
C63	C	0.802475	0.306167	0.430999
H64	H	0.749865	0.351636	0.323850
H65	H	0.794334	0.276957	0.304576
H66	H	0.709218	0.286269	0.355500
H67	H	0.853869	0.325066	0.422469
H68	H	0.768758	0.334392	0.473394
H69	H	0.421524	-0.021234	0.000069
O70	O	0.376424	0.219523	-0.000022
C71	C	0.424333	0.276503	-0.000012
H72	H	0.489120	0.258767	-0.028879
H73	H	0.430437	0.296196	0.073137
C74	C	0.301331	0.357883	-0.024364
C75	C	0.380901	0.336101	-0.059827
H76	H	0.274539	0.394647	-0.061257
H77	H	0.269052	0.319495	-0.024367
H78	H	0.306429	0.374289	0.036592
H79	H	0.375801	0.319687	-0.120777
H80	H	0.413178	0.374487	-0.059835
O81	O	1.133842	-0.270816	-0.000046
C82	C	1.180257	-0.258102	-0.079018
H83	H	1.159651	-0.202850	-0.105350
H84	H	1.169038	-0.297925	-0.134320
C85	C	1.299255	-0.332916	-0.022668
C86	C	1.273951	-0.265053	-0.055004
H87	H	1.357051	-0.337206	-0.007857
H88	H	1.267984	-0.341484	0.030536
H89	H	1.289899	-0.366094	-0.068758
H90	H	1.283297	-0.231876	-0.008910
H91	H	1.305226	-0.256479	-0.108200
O92	O	0.835091	-0.238076	-0.000083
C93	C	0.829816	-0.279677	-0.079068
H94	H	0.895414	-0.297825	-0.105389
H95	H	0.792921	-0.247488	-0.134370
C96	C	0.704713	-0.321800	-0.022757
C97	C	0.785281	-0.344094	-0.055082
H98	H	0.677238	-0.361533	-0.007964
H99	H	0.708264	-0.293770	0.030455
H100	H	0.673977	-0.294975	-0.068848
H101	H	0.816018	-0.370910	-0.008988
H102	H	0.781734	-0.372130	-0.108285
H103	H	0.849360	-0.101464	0.000041
O104	O	1.128537	-0.571377	-0.000128
C105	C	1.174328	-0.594245	-0.079090
H106	H	1.129642	-0.609376	-0.134288
H107	H	1.220834	-0.641719	-0.061242
C108	C	1.276772	-0.516070	-0.047099
C109	C	1.221887	-0.534649	-0.114896
H110	H	1.306112	-0.479310	-0.069184
H111	H	1.245924	-0.500665	0.006102
H112	H	1.315520	-0.555637	-0.032231
H113	H	1.183135	-0.495085	-0.129754
H114	H	1.252730	-0.550046	-0.168100
O115	O	1.125974	-0.714942	-0.000147
C116	C	1.129771	-0.757562	-0.079114
H117	H	1.087164	-0.730871	-0.134313
H118	H	1.108446	-0.810518	-0.061273
C119	C	1.272611	-0.801416	-0.047113
C120	C	1.220286	-0.768632	-0.114912
H121	H	1.328445	-0.808249	-0.069194
H122	H	1.270053	-0.772705	0.006090
H123	H	1.254830	-0.845543	-0.032252
H124	H	1.238061	-0.724503	-0.129764
H125	H	1.222849	-0.797337	-0.168119
H126	H	0.839253	-0.677617	-0.000010
H127	H	0.841570	-0.545497	0.000008
H128	H	1.084662	0.009214	0.412988
