data_functionalizedCrystal
_audit_creation_method	'MofGen! by Chris Wilmer'
_symmetry_space_group_name_H-M	'P1'
_symmetry_Int_Tables_number	1
_symmetry_cell_setting	triclinic
loop_
_symmetry_equiv_pos_as_xyz
  x,y,z
_cell_length_a	12.759401
_cell_length_b	25.639239
_cell_length_c	12.759393
_cell_angle_alpha	89.964022
_cell_angle_beta	89.979062
_cell_angle_gamma	90.040211
loop_
_atom_site_label
_atom_site_type_symbol
_atom_site_fract_x
_atom_site_fract_y
_atom_site_fract_z
Zn1	Zn	1.606091	-0.208104	-0.593980
Zn2	Zn	1.605909	-0.295549	-0.418283
Zn3	Zn	1.430390	-0.208132	-0.418315
Zn4	Zn	1.430308	-0.295513	-0.593921
O5	O	1.518175	-0.251825	-0.506125
O6	O	1.753088	-0.219708	-0.570685
O7	O	1.582584	-0.283980	-0.271266
O8	O	1.453808	-0.134963	-0.441656
O9	O	1.752954	-0.283953	-0.441601
O10	O	1.582895	-0.134943	-0.570716
O11	O	1.453631	-0.219755	-0.271290
O12	O	1.283358	-0.219720	-0.441598
O13	O	1.453669	-0.283891	-0.740950
O14	O	1.283298	-0.283918	-0.570615
O15	O	1.582816	-0.219672	-0.740993
O16	O	1.582505	-0.368710	-0.441544
O17	O	1.453492	-0.368683	-0.570584
C18	C	1.245207	-0.251818	-0.506104
C19	C	1.128431	-0.251828	-0.506120
C20	C	1.073565	-0.285307	-0.573193
C21	C	0.963841	-0.285309	-0.573214
C22	C	0.963858	-0.218352	-0.439079
C23	C	1.073580	-0.218347	-0.439065
C24	C	0.813929	-0.304070	-0.697071
C25	C	0.759060	-0.337557	-0.764135
C26	C	0.794614	-0.388581	-0.780073
C27	C	0.885037	-0.406129	-0.728931
C28	C	0.939901	-0.372645	-0.661860
C29	C	0.904348	-0.321613	-0.645942
C30	C	1.223494	-0.199592	-0.315206
C31	C	1.278359	-0.166110	-0.248129
C32	C	1.242807	-0.115085	-0.232180
C33	C	1.152381	-0.097539	-0.283303
C34	C	1.097515	-0.131021	-0.350380
C35	C	1.133075	-0.182046	-0.366331
C36	C	1.517998	-0.387667	-0.506077
C37	C	1.518018	-0.445781	-0.506091
C38	C	1.585527	-0.806146	-0.439048
C39	C	1.585568	-0.860750	-0.439062
O40	O	1.642783	-0.888988	-0.382007
N41	N	1.518359	-0.888064	-0.506194
C42	C	1.451113	-0.860770	-0.573324
O43	O	1.393952	-0.889017	-0.630428
C44	C	1.451079	-0.806167	-0.573315
C45	C	1.518284	-0.778856	-0.506171
C46	C	1.652728	-0.778835	-0.371910
C47	C	1.652685	-0.724234	-0.371895
C48	C	1.585442	-0.696945	-0.439018
C49	C	1.518242	-0.724255	-0.506156
C50	C	1.383839	-0.778874	-0.640449
C51	C	1.383810	-0.724267	-0.640435
C52	C	1.451016	-0.696957	-0.573291
C53	C	1.450956	-0.642365	-0.573263
N54	N	1.518165	-0.615052	-0.506131
C55	C	1.585408	-0.642341	-0.439008
C56	C	1.451192	-0.975441	-0.573341
C57	C	1.451221	-1.030043	-0.573346
C58	C	1.585677	-1.030019	-0.439085
C59	C	1.585642	-0.975416	-0.439075
C60	C	1.518401	-0.948127	-0.506208
C61	C	1.585313	-0.527676	-0.438981
C62	C	1.585261	-0.473071	-0.438969
C63	C	1.450810	-0.473100	-0.573233
C64	C	1.450857	-0.527700	-0.573242
C65	C	1.518117	-0.554987	-0.506112
O66	O	1.393774	-0.614093	-0.630292
O67	O	1.642569	-0.614088	-0.381925
C68	C	1.792208	-0.251831	-0.506146
C69	C	1.908984	-0.251834	-0.506156
C70	C	1.518253	-0.251774	-0.780158
C71	C	1.518287	-0.251753	-0.896935
C72	C	1.518381	-0.115452	-0.506196
C73	C	1.518468	-0.057337	-0.506226
C74	C	1.585539	-0.218309	-0.951821
C75	C	1.585556	-0.218286	-1.061546
C76	C	1.451068	-0.285156	-1.061487
C77	C	1.451045	-0.285176	-0.951765
C78	C	1.623220	-0.156599	-1.211536
C79	C	1.690489	-0.123160	-1.266426
C80	C	1.793008	-0.115142	-1.230836
C81	C	1.828280	-0.140572	-1.140358
C82	C	1.761018	-0.174015	-1.085473
C83	C	1.658484	-0.182023	-1.121061
C84	C	1.413392	-0.346864	-0.801773
C85	C	1.346134	-0.380310	-0.746887
C86	C	1.243613	-0.388333	-0.782474
C87	C	1.208344	-0.362913	-0.872956
C88	C	1.275603	-0.329466	-0.927843
C89	C	1.378123	-0.321443	-0.892247
C90	C	1.518157	-0.251837	-0.233157
C91	C	1.518327	-0.251711	-0.116381
H92	H	0.919185	-0.191094	-0.384484
H93	H	1.707491	-0.801048	-0.317251
O94	O	1.108821	-0.370757	-0.907678
C95	C	1.111688	-0.391819	-1.009687
H96	H	1.190299	-0.411855	-1.023006
H97	H	1.101361	-0.359173	-1.069494
C98	C	0.926027	-0.407250	-1.005975
C99	C	1.022575	-0.431863	-1.022331
H100	H	0.871055	-0.431950	-1.013778
H101	H	0.924094	-0.393058	-0.937252
H102	H	0.917436	-0.380046	-1.055817
H103	H	1.031170	-0.459062	-0.972483
H104	H	1.024507	-0.446060	-1.091048
H105	H	0.749932	-0.415847	-0.834679
O106	O	1.009786	-0.113924	-0.400168
C107	C	1.035174	-0.070790	-0.463922
H108	H	1.122275	-0.071799	-0.483739
H109	H	1.016366	-0.033162	-0.420253
C110	C	0.863673	-0.071899	-0.541446
C111	C	0.970651	-0.073140	-0.565792
H112	H	0.823870	-0.073347	-0.604282
H113	H	0.846567	-0.100958	-0.498491
H114	H	0.848015	-0.040542	-0.505053
H115	H	0.986310	-0.104500	-0.602172
H116	H	0.987758	-0.044086	-0.608755
O117	O	1.385857	-0.317608	-1.114914
C118	C	1.400278	-0.310411	-1.223528
H119	H	1.481388	-0.293289	-1.238536
H120	H	1.338011	-0.282560	-1.254671
C121	C	1.290958	-0.384333	-1.261395
C122	C	1.390582	-0.363307	-1.279829
H123	H	1.284972	-0.416960	-1.296127
H124	H	1.281238	-0.389180	-1.188220
H125	H	1.239079	-0.361119	-1.287348
H126	H	1.442457	-0.386517	-1.253865
H127	H	1.400310	-0.358464	-1.353002
H128	H	1.118221	-0.312568	-0.627796
O129	O	1.651027	-0.948969	-0.373822
C130	C	1.710357	-0.984771	-0.314562
H131	H	1.713991	-1.023676	-0.357610
H132	H	1.671924	-0.990627	-0.234738
C133	C	1.817709	-0.915632	-0.246636
C134	C	1.822180	-0.963414	-0.299513
H135	H	1.886686	-0.902458	-0.237348
H136	H	1.777736	-0.891511	-0.286557
H137	H	1.785678	-0.920518	-0.180122
H138	H	1.854199	-0.958526	-0.366030
H139	H	1.862161	-0.987535	-0.259602
H140	H	1.188856	-0.415573	-0.737781
H141	H	1.013520	-0.386932	-0.620221
H142	H	1.123421	-0.055993	-0.270300
O143	O	1.650955	-0.185913	-0.898510
C144	C	1.718740	-0.215690	-0.835014
H145	H	1.725182	-0.256863	-0.868057
H146	H	1.686234	-0.217505	-0.751852
C147	C	1.820081	-0.139575	-0.792774
C148	C	1.828000	-0.190144	-0.833363
H149	H	1.887476	-0.123816	-0.791751
H150	H	1.774411	-0.119514	-0.835549
H151	H	1.792988	-0.141095	-0.723476
H152	H	1.855079	-0.188623	-0.902664
H153	H	1.873677	-0.210204	-0.790599
O154	O	1.385807	-0.948877	-0.638402
C155	C	1.317938	-0.917360	-0.578522
H156	H	1.355031	-0.909183	-0.498938
H157	H	1.240105	-0.938452	-0.566905
C158	C	1.253276	-0.875529	-0.734058
C159	C	1.298838	-0.865482	-0.636314
H160	H	1.241489	-0.843529	-0.769707
H161	H	1.298997	-0.896764	-0.774401
H162	H	1.188420	-0.893107	-0.724363
H163	H	1.363698	-0.847910	-0.646011
H164	H	1.253127	-0.844242	-0.595973
H165	H	1.789737	-0.194722	-1.011811
O166	O	1.296092	-0.082491	-0.167147
C167	C	1.330207	-0.038418	-0.223854
H168	H	1.278588	-0.032997	-0.295943
H169	H	1.414989	-0.044288	-0.249466
C170	C	1.386074	0.003671	-0.065280
C171	C	1.322669	0.010333	-0.153816
H172	H	1.381429	0.033743	-0.022077
H173	H	1.363094	-0.026022	-0.027075
H174	H	1.456720	-0.001221	-0.086637
H175	H	1.252023	0.015218	-0.132459
H176	H	1.345637	0.040028	-0.192016
H177	H	0.913972	-0.447681	-0.741905
H178	H	1.329108	-0.801102	-0.695120
H179	H	1.640434	-1.052248	-0.384433
H180	H	1.351989	-0.180401	-0.206501
O181	O	1.650649	-0.446623	-0.373710
C182	C	1.709989	-0.482423	-0.314455
H183	H	1.713630	-0.521326	-0.357507
H184	H	1.671562	-0.488282	-0.234630
C185	C	1.817328	-0.413278	-0.246528
C186	C	1.821808	-0.461059	-0.299409
H187	H	1.886302	-0.400100	-0.237242
H188	H	1.777347	-0.389159	-0.286445
H189	H	1.785301	-0.418168	-0.180013
H190	H	1.853823	-0.456168	-0.365927
H191	H	1.861797	-0.485178	-0.259502
H192	H	1.911766	-0.134045	-1.111393
O193	O	1.318393	-0.697841	-0.705687
C194	C	1.259114	-0.733660	-0.764967
H195	H	1.255523	-0.772599	-0.721934
H196	H	1.297561	-0.739419	-0.844789
C197	C	1.151683	-0.664579	-0.832876
C198	C	1.147266	-0.712404	-0.780018
H199	H	1.082691	-0.651467	-0.842166
H200	H	1.191623	-0.640447	-0.792941
H201	H	1.183727	-0.669385	-0.899389
H202	H	1.115235	-0.707596	-0.713502
H203	H	1.107318	-0.736535	-0.819942
H204	H	1.252456	-0.241140	-0.328196
H205	H	1.246878	-0.308768	-1.001518
H206	H	1.640085	-0.549887	-0.384320
H207	H	0.685438	-0.323264	-0.805775
H208	H	0.784979	-0.262520	-0.684111
O209	O	1.385684	-0.554211	-0.638609
C210	C	1.408565	-0.540802	-0.743333
H211	H	1.492480	-0.525740	-0.748702
H212	H	1.352194	-0.509128	-0.770735
C213	C	1.293285	-0.607784	-0.806866
C214	C	1.396354	-0.589289	-0.813462
H215	H	1.285748	-0.637692	-0.850127
H216	H	1.277866	-0.616817	-0.736311
H217	H	1.246321	-0.581385	-0.829699
H218	H	1.443315	-0.615686	-0.790617
H219	H	1.411781	-0.580262	-0.884015
H220	H	1.374863	-0.401014	-0.673218
H221	H	1.707412	-0.702001	-0.317224
O222	O	1.386077	-1.056627	-0.638615
C223	C	1.445877	-1.088142	-0.706558
H224	H	1.525520	-1.096299	-0.669577
H225	H	1.457368	-1.067059	-0.784416
C226	C	1.290272	-1.130012	-0.770976
C227	C	1.388089	-1.140034	-0.725552
H228	H	1.254625	-1.162020	-0.782697
H229	H	1.249983	-1.108778	-0.725205
H230	H	1.299862	-1.112441	-0.835852
H231	H	1.378497	-1.157598	-0.660671
H232	H	1.428375	-1.161272	-0.771313
H233	H	1.396058	-0.450872	-0.627881
H234	H	1.847778	-0.087915	-1.275535
H235	H	1.661760	-0.102455	-1.340093
H236	H	1.539738	-0.163120	-1.240516
H237	H	1.496871	-0.340330	-0.772783
