data_functionalizedCrystal
_audit_creation_method	'MofGen! by Chris Wilmer'
_symmetry_space_group_name_H-M	'P1'
_symmetry_Int_Tables_number	1
_symmetry_cell_setting	triclinic
loop_
_symmetry_equiv_pos_as_xyz
  x,y,z
_cell_length_a	23.532355
_cell_length_b	23.532407
_cell_length_c	9.730223
_cell_angle_alpha	89.994043
_cell_angle_beta	90.005634
_cell_angle_gamma	82.838088
loop_
_atom_site_label
_atom_site_type_symbol
_atom_site_fract_x
_atom_site_fract_y
_atom_site_fract_z
O1	O	0.755275	0.068992	-0.114117
O2	O	0.589408	0.079026	-0.114162
O3	O	0.677343	-0.008924	-0.114113
O4	O	0.667340	0.156941	-0.114166
O5	O	0.677342	-0.008922	0.114467
O6	O	0.589407	0.079028	0.114417
O7	O	0.755274	0.068994	0.114463
Zn8	Zn	0.672340	0.074011	0.150732
Zn9	Zn	0.672342	0.074008	-0.150432
O10	O	0.667339	0.156944	0.114414
C11	C	0.568191	0.078776	0.000122
C12	C	0.504972	0.078022	0.000106
C13	C	0.677088	-0.030139	0.000180
C14	C	0.676322	-0.093356	0.000191
C15	C	0.112958	0.073285	0.124764
C16	C	0.053558	0.072568	0.124769
O17	O	0.022839	0.072178	0.230735
N18	N	0.023850	0.072211	0.000171
C19	C	0.053546	0.072565	-0.124441
O20	O	0.022823	0.072195	-0.230421
C21	C	0.112945	0.073279	-0.124445
C22	C	0.142649	0.073641	0.000161
C23	C	0.142662	0.073647	0.249360
C24	C	0.202057	0.074366	0.249354
C25	C	0.231748	0.074722	0.124751
C26	C	0.202044	0.074360	0.000155
C27	C	0.142640	0.073629	-0.249056
C28	C	0.202043	0.074342	-0.249049
C29	C	0.231747	0.074705	-0.124443
C30	C	0.291130	0.075435	-0.124453
N31	N	0.320838	0.075792	0.000145
C32	C	0.291147	0.075435	0.124747
C33	C	-0.071196	0.071066	-0.124423
C34	C	-0.130594	0.070357	-0.124420
C35	C	-0.130577	0.070358	0.124790
C36	C	-0.071178	0.071072	0.124786
C37	C	-0.041488	0.071423	0.000175
C38	C	0.415881	0.076945	0.124725
C39	C	0.475281	0.077666	0.124708
C40	C	0.475260	0.077661	-0.124502
C41	C	0.415864	0.076944	-0.124486
C42	C	0.386177	0.076583	0.000139
O43	O	0.321887	0.075822	-0.230365
O44	O	0.321878	0.075798	0.230710
C45	C	0.723557	-0.492468	0.000128
C46	C	0.722845	-0.551868	0.000118
O47	O	0.766632	-0.588620	0.000079
N48	N	0.670568	-0.574484	0.000104
C49	C	0.618998	-0.537697	0.000088
O50	O	0.574467	-0.562388	0.000074
C51	C	0.619710	-0.478298	0.000088
C52	C	0.671991	-0.455685	0.000116
C53	C	0.775834	-0.469854	0.000154
C54	C	0.776545	-0.410458	0.000167
C55	C	0.724979	-0.373676	0.000155
C56	C	0.672703	-0.396289	0.000129
C57	C	0.568141	-0.441512	0.000062
C58	C	0.568858	-0.382110	0.000062
C59	C	0.621139	-0.359497	0.000089
C60	C	0.621848	-0.300110	0.000129
N61	N	0.674126	-0.277494	0.000143
C62	C	0.725691	-0.314277	0.000156
C63	C	0.617507	-0.662439	0.000083
C64	C	0.616794	-0.721837	0.000093
C65	C	0.720642	-0.736004	0.000120
C66	C	0.721354	-0.676605	0.000121
C67	C	0.669784	-0.639823	0.000097
C68	C	0.727181	-0.189540	0.000184
C69	C	0.727888	-0.130138	0.000203
C70	C	0.624041	-0.115977	0.000168
C71	C	0.623334	-0.175373	0.000157
C72	C	0.674909	-0.212154	0.000160
O73	O	0.578084	-0.263323	0.000163
O74	O	0.770216	-0.289577	0.000151
C75	C	0.776492	0.069244	0.000176
C76	C	0.839710	0.069998	0.000183
C77	C	0.667594	0.178158	0.000117
C78	C	0.668360	0.241375	0.000098
N79	N	0.672344	0.074013	0.356269
N80	N	0.672343	0.074002	-0.355968
C81	C	0.711291	0.035082	0.428217
C82	C	0.711290	0.035075	0.572100
C83	C	0.633391	0.112935	0.572074
C84	C	0.633391	0.112939	0.428194
C85	C	0.750244	-0.003844	0.356292
C86	C	0.789196	-0.042778	0.428240
C87	C	0.789194	-0.042785	0.572123
C88	C	0.750242	-0.003858	0.644058
H89	H	0.499463	0.077963	0.226182
N90	N	0.591386	0.154932	0.350585
H91	H	0.597296	0.149025	0.248525
H92	H	0.551024	0.148562	0.375726
N93	N	0.776259	-0.775685	0.000132
H94	H	0.778274	-0.800640	-0.084607
H95	H	0.809457	-0.752311	0.000197
N96	N	0.561885	-0.622765	0.000098
H97	H	0.559858	-0.597797	-0.084632
H98	H	0.528693	-0.646147	0.000148
H99	H	0.118494	0.073356	0.350832
H100	H	0.391716	0.076657	0.226207
N101	N	0.591381	0.154918	0.649653
H102	H	0.597292	0.149009	0.751719
H103	H	0.597727	0.195288	0.624502
H104	H	0.750250	-0.003841	0.239135
N105	N	0.750244	-0.003862	0.799246
H106	H	0.719662	0.026707	0.833894
H107	H	0.742200	-0.042536	0.833799
H108	H	0.526863	-0.352164	0.000040
H109	H	-0.047026	0.071358	-0.225903
N110	N	0.777741	-0.652217	0.000141
H111	H	0.780352	-0.627893	0.084878
H112	H	0.810263	-0.684568	0.000102
H113	H	0.574222	-0.740243	0.000094
N114	N	-0.039143	0.071464	0.259181
H115	H	-0.066971	0.071132	0.338110
H116	H	-0.009679	0.036449	0.264630
N117	N	0.234091	0.074757	0.383751
H118	H	0.206261	0.074421	0.462676
H119	H	0.263556	0.039743	0.389199
N120	N	-0.162609	0.069974	0.259186
H121	H	-0.204845	0.070257	0.240274
H122	H	-0.147945	0.034391	0.312782
N123	N	0.383829	0.076554	-0.258887
H124	H	0.364010	0.040944	-0.264428
H125	H	0.354389	0.111586	-0.264384
N126	N	-0.162630	0.069975	-0.258816
H127	H	-0.134802	0.070310	-0.337745
H128	H	-0.182452	0.034366	-0.264236
H129	H	0.820907	-0.074475	0.369663
H130	H	0.118465	0.073333	-0.350524
N131	N	0.831207	-0.084770	0.649728
H132	H	0.855885	-0.109425	0.582327
H133	H	0.856254	-0.063089	0.709419
N134	N	0.234062	0.074719	-0.383460
H135	H	0.218899	0.109901	-0.437950
H136	H	0.276192	0.075206	-0.364457
H137	H	0.770463	-0.111731	0.000229
N138	N	0.507289	0.078046	-0.258890
H139	H	0.549424	0.078553	-0.239974
H140	H	0.501726	0.042607	-0.313280
H141	H	0.769178	-0.219481	0.000182
N142	N	0.832934	-0.386073	0.000192
H143	H	0.865488	-0.418394	0.000195
H144	H	0.835494	-0.361733	-0.084544
H145	H	0.817827	-0.499797	0.000159
N146	N	0.511752	-0.465892	0.000050
H147	H	0.479199	-0.433569	0.000039
H148	H	0.509190	-0.490223	-0.084688
H149	H	0.580762	-0.193785	0.000173
H150	H	0.582057	-0.086018	0.000163
