data_functionalizedCrystal
_audit_creation_method	'MofGen! by Chris Wilmer'
_symmetry_space_group_name_H-M	'P1'
_symmetry_Int_Tables_number	1
_symmetry_cell_setting	triclinic
loop_
_symmetry_equiv_pos_as_xyz
  x,y,z
_cell_length_a	16.625548
_cell_length_b	18.050589
_cell_length_c	16.625539
_cell_angle_alpha	90.024824
_cell_angle_beta	90.020568
_cell_angle_gamma	90.029289
loop_
_atom_site_label
_atom_site_type_symbol
_atom_site_fract_x
_atom_site_fract_y
_atom_site_fract_z
Zn1	Zn	1.232648	-0.295637	0.455929
Zn2	Zn	1.482648	-0.045637	0.705929
Zn3	Zn	1.732648	0.204363	0.955929
Zn4	Zn	1.982648	0.454363	1.205929
Zn5	Zn	1.232538	-0.419835	0.321104
Zn6	Zn	1.482538	-0.169835	0.571104
Zn7	Zn	1.732538	0.080165	0.821104
Zn8	Zn	1.982538	0.330165	1.071104
Zn9	Zn	1.097810	-0.295665	0.321109
Zn10	Zn	1.347810	-0.045665	0.571109
Zn11	Zn	1.597810	0.204335	0.821109
Zn12	Zn	1.847810	0.454335	1.071109
Zn13	Zn	1.097767	-0.419792	0.455894
Zn14	Zn	1.347767	-0.169792	0.705894
Zn15	Zn	1.597767	0.080208	0.955894
Zn16	Zn	1.847767	0.330208	1.205894
O17	O	1.165191	-0.357732	0.388509
O18	O	1.415191	-0.107732	0.638509
O19	O	1.665191	0.142268	0.888509
O20	O	1.915191	0.392268	1.138509
O21	O	1.345466	-0.312118	0.438056
O22	O	1.595466	-0.062118	0.688056
O23	O	1.845466	0.187882	0.938056
O24	O	2.095466	0.437882	1.188056
O25	O	1.214638	-0.403393	0.208272
O26	O	1.464638	-0.153393	0.458272
O27	O	1.714638	0.096607	0.708272
O28	O	1.964638	0.346607	0.958272
O29	O	1.115761	-0.191737	0.339010
O30	O	1.365761	0.058263	0.589010
O31	O	1.615761	0.308263	0.839010
O32	O	1.865761	0.558263	1.089010
O33	O	1.345385	-0.403366	0.339001
O34	O	1.595385	-0.153366	0.589001
O35	O	1.845385	0.096634	0.839001
O36	O	2.095385	0.346634	1.089001
O37	O	1.214826	-0.191716	0.438061
O38	O	1.464826	0.058284	0.688061
O39	O	1.714826	0.308284	0.938061
O40	O	1.964826	0.558284	1.188061
O41	O	1.115654	-0.312166	0.208276
O42	O	1.365654	-0.062166	0.458276
O43	O	1.615654	0.187834	0.708276
O44	O	1.865654	0.437834	0.958276
O45	O	0.984972	-0.312125	0.338976
O46	O	1.234972	-0.062125	0.588976
O47	O	1.484972	0.187875	0.838976
O48	O	1.734972	0.437875	1.088976
O49	O	1.115687	-0.403293	0.568731
O50	O	1.365687	-0.153293	0.818731
O51	O	1.615687	0.096707	1.068731
O52	O	1.865687	0.346707	1.318731
O53	O	0.984940	-0.403320	0.438002
O54	O	1.234940	-0.153320	0.688002
O55	O	1.484940	0.096680	0.938002
O56	O	1.734940	0.346680	1.188002
O57	O	1.214784	-0.312077	0.568757
O58	O	1.464784	-0.062077	0.818757
O59	O	1.714784	0.187923	1.068757
O60	O	1.964784	0.437923	1.318757
O61	O	1.214596	-0.523754	0.338968
O62	O	1.464596	-0.273754	0.588968
O63	O	1.714596	-0.023754	0.838968
O64	O	1.964596	0.226246	1.088968
O65	O	1.115580	-0.523722	0.437997
O66	O	1.365580	-0.273722	0.687997
O67	O	1.615580	-0.023722	0.937997
O68	O	1.865580	0.226278	1.187997
C69	C	0.955700	-0.357722	0.388487
C70	C	1.205700	-0.107722	0.638487
C71	C	1.455700	0.142278	0.888487
C72	C	1.705700	0.392278	1.138487
C73	C	0.866079	-0.357735	0.388496
C74	C	1.116079	-0.107735	0.638496
C75	C	1.366079	0.142265	0.888496
C76	C	1.616079	0.392265	1.138496
C77	C	0.537903	-0.357740	0.388531
C78	C	0.787903	-0.107740	0.638531
C79	C	1.037903	0.142260	0.888531
C80	C	1.287903	0.392260	1.138531
C81	C	0.629212	-0.357736	0.388518
C82	C	0.879212	-0.107736	0.638518
C83	C	1.129212	0.142264	0.888518
C84	C	1.379212	0.392264	1.138518
C85	C	0.701988	-0.357738	0.388513
C86	C	0.951988	-0.107738	0.638513
C87	C	1.201988	0.142262	0.888513
C88	C	1.451988	0.392262	1.138513
C89	C	0.793302	-0.357734	0.388502
C90	C	1.043302	-0.107734	0.638502
C91	C	1.293302	0.142266	0.888502
C92	C	1.543302	0.392266	1.138502
C93	C	1.165093	-0.550684	0.388496
C94	C	1.415093	-0.300684	0.638496
C95	C	1.665093	-0.050684	0.888496
C96	C	1.915093	0.199316	1.138496
C97	C	1.165126	-0.633230	0.388517
C98	C	1.415126	-0.383230	0.638517
C99	C	1.665126	-0.133230	0.888517
C100	C	1.915126	0.116770	1.138517
C101	C	1.111334	-0.832691	0.442350
C102	C	1.361334	-0.582691	0.692350
C103	C	1.611334	-0.332691	0.942350
C104	C	1.861334	-0.082691	1.192350
C105	C	1.091677	-0.882133	0.368775
C106	C	1.341677	-0.632133	0.618775
C107	C	1.591677	-0.382133	0.868775
C108	C	1.841677	-0.132133	1.118775
C109	C	1.165205	-0.784360	0.388528
C110	C	1.415205	-0.534360	0.638528
C111	C	1.665205	-0.284360	0.888528
C112	C	1.915205	-0.034360	1.138528
C113	C	1.184901	-0.882000	0.462112
C114	C	1.434901	-0.632000	0.712112
C115	C	1.684901	-0.382000	0.962112
C116	C	1.934901	-0.132000	1.212112
C117	C	1.165280	-0.930346	0.388544
C118	C	1.415280	-0.680346	0.638544
C119	C	1.665280	-0.430346	0.888544
C120	C	1.915280	-0.180346	1.138544
C121	C	1.145510	-0.832715	0.314913
C122	C	1.395510	-0.582715	0.564913
C123	C	1.645510	-0.332715	0.814913
C124	C	1.895510	-0.082715	1.064913
C125	C	1.238767	-0.832578	0.408300
C126	C	1.488767	-0.582578	0.658300
C127	C	1.738767	-0.332578	0.908300
C128	C	1.988767	-0.082578	1.158300
C129	C	1.219139	-0.881998	0.334673
C130	C	1.469139	-0.631998	0.584673
C131	C	1.719139	-0.381998	0.834673
C132	C	1.969139	-0.131998	1.084673
C133	C	1.165160	-0.700262	0.388519
C134	C	1.415160	-0.450262	0.638519
C135	C	1.665160	-0.200262	0.888519
C136	C	1.915160	0.049738	1.138519
C137	C	1.165325	-1.014442	0.388544
C138	C	1.415325	-0.764442	0.638544
C139	C	1.665325	-0.514442	0.888544
C140	C	1.915325	-0.264442	1.138544
C141	C	1.375500	-0.357743	0.388532
C142	C	1.625500	-0.107743	0.638532
C143	C	1.875500	0.142257	0.888532
C144	C	2.125500	0.392257	1.138532
C145	C	1.465121	-0.357748	0.388542
C146	C	1.715121	-0.107748	0.638542
C147	C	1.965121	0.142252	0.888542
C148	C	2.215121	0.392252	1.138542
C149	C	1.165243	-0.357677	0.598818
C150	C	1.415243	-0.107677	0.848818
C151	C	1.665243	0.142323	1.098818
C152	C	1.915243	0.392323	1.348818
C153	C	1.165266	-0.357653	0.688439
C154	C	1.415266	-0.107653	0.938439
C155	C	1.665266	0.142347	1.188439
C156	C	1.915266	0.392347	1.438439
C157	C	1.165310	-0.164027	0.388540
C158	C	1.415310	0.085973	0.638540
C159	C	1.665310	0.335973	0.888540
C160	C	1.915310	0.585973	1.138540
C161	C	1.165361	-0.081481	0.388553
C162	C	1.415361	0.168519	0.638553
C163	C	1.665361	0.418519	0.888553
C164	C	1.915361	0.668519	1.138553
C165	C	1.165185	-0.357734	0.179018
C166	C	1.415185	-0.107734	0.429018
C167	C	1.665185	0.142266	0.679018
C168	C	1.915185	0.392266	0.929018
C169	C	1.165319	-0.357548	0.089398
C170	C	1.415319	-0.107548	0.339398
C171	C	1.665319	0.142452	0.589398
C172	C	1.915319	0.392452	0.839398
C173	C	1.165303	-0.357570	1.016615
C174	C	1.415303	-0.107570	1.266615
C175	C	1.665303	0.142430	1.516615
C176	C	1.915303	0.392430	1.766615
C177	C	1.165290	-0.357596	0.925307
C178	C	1.415290	-0.107596	1.175307
C179	C	1.665290	0.142404	1.425307
C180	C	1.915290	0.392404	1.675307
C181	C	1.165285	-0.357612	0.852530
C182	C	1.415285	-0.107612	1.102530
C183	C	1.665285	0.142388	1.352530
C184	C	1.915285	0.392388	1.602530
C185	C	1.165271	-0.357637	0.761216
C186	C	1.415271	-0.107637	1.011216
C187	C	1.665271	0.142363	1.261216
C188	C	1.915271	0.392363	1.511216
H189	H	1.065710	-0.811040	0.487802
H190	H	1.315710	-0.561040	0.737802
H191	H	1.565710	-0.311040	0.987802
H192	H	1.815710	-0.061040	1.237802
H193	H	1.300928	-0.810797	0.425043
H194	H	1.550928	-0.560797	0.675043
H195	H	1.800928	-0.310797	0.925043
H196	H	2.050928	-0.060797	1.175043
H197	H	1.029503	-0.903916	0.352066
H198	H	1.279503	-0.653916	0.602066
H199	H	1.529503	-0.403916	0.852066
H200	H	1.779503	-0.153916	1.102066
C201	C	1.357432	-0.884927	0.293222
C202	C	1.607432	-0.634927	0.543222
C203	C	1.857432	-0.384927	0.793222
C204	C	2.107432	-0.134927	1.043222
C205	C	1.280682	-0.911051	0.273172
C206	C	1.530682	-0.661051	0.523172
C207	C	1.780682	-0.411051	0.773172
C208	C	2.030682	-0.161051	1.023172
H209	H	1.395421	-0.902863	0.255249
H210	H	1.645421	-0.652863	0.505249
H211	H	1.895421	-0.402863	0.755249
H212	H	2.145421	-0.152863	1.005249
H213	H	1.371513	-0.901895	0.345429
H214	H	1.621513	-0.651895	0.595429
H215	H	1.871513	-0.401895	0.845429
H216	H	2.121513	-0.151895	1.095429
H217	H	1.357416	-0.832304	0.292571
H218	H	1.607416	-0.582304	0.542571
H219	H	1.857416	-0.332304	0.792571
H220	H	2.107416	-0.082304	1.042571
H221	H	1.280697	-0.963675	0.273829
H222	H	1.530697	-0.713675	0.523829
H223	H	1.780697	-0.463675	0.773829
H224	H	2.030697	-0.213675	1.023829
H225	H	1.266597	-0.894088	0.220951
H226	H	1.516597	-0.644088	0.470951
H227	H	1.766597	-0.394088	0.720951
H228	H	2.016597	-0.144088	0.970951
C229	C	1.053179	-0.760503	0.236320
C230	C	1.303179	-0.510503	0.486320
C231	C	1.553179	-0.260503	0.736320
C232	C	1.803179	-0.010503	0.986320
C233	C	1.122957	-0.803620	0.230890
C234	C	1.372957	-0.553620	0.480890
C235	C	1.622957	-0.303620	0.730890
C236	C	1.872957	-0.053620	0.980890
H237	H	1.039252	-0.742545	0.184448
H238	H	1.289252	-0.492545	0.434448
H239	H	1.539252	-0.242545	0.684448
H240	H	1.789252	0.007455	0.934448
H241	H	1.062554	-0.719859	0.271402
H242	H	1.312554	-0.469859	0.521402
H243	H	1.562554	-0.219859	0.771402
H244	H	1.812554	0.030141	1.021402
H245	H	1.010403	-0.789869	0.256780
H246	H	1.260403	-0.539869	0.506780
H247	H	1.510403	-0.289869	0.756780
H248	H	1.760403	-0.039869	1.006780
H249	H	1.165734	-0.774253	0.210434
H250	H	1.415734	-0.524253	0.460434
H251	H	1.665734	-0.274253	0.710434
H252	H	1.915734	-0.024253	0.960434
H253	H	1.113586	-0.844270	0.195795
H254	H	1.363586	-0.594270	0.445795
H255	H	1.613586	-0.344270	0.695795
H256	H	1.863586	-0.094270	0.945795
C257	C	1.150819	-0.886329	0.602356
C258	C	1.400819	-0.636329	0.852356
C259	C	1.650819	-0.386329	1.102356
C260	C	1.900819	-0.136329	1.352356
C261	C	1.207357	-0.911224	0.546108
C262	C	1.457357	-0.661224	0.796108
C263	C	1.707357	-0.411224	1.046108
C264	C	1.957357	-0.161224	1.296108
H265	H	1.164682	-0.904366	0.654212
H266	H	1.414682	-0.654366	0.904212
H267	H	1.664682	-0.404366	1.154212
H268	H	1.914682	-0.154366	1.404212
H269	H	1.098965	-0.904029	0.587948
H270	H	1.348965	-0.654029	0.837948
H271	H	1.598965	-0.404029	1.087948
H272	H	1.848965	-0.154029	1.337948
H273	H	1.150476	-0.833707	0.603061
H274	H	1.400476	-0.583707	0.853061
H275	H	1.650476	-0.333707	1.103061
H276	H	1.900476	-0.083707	1.353061
H277	H	1.207695	-0.963846	0.545399
H278	H	1.457695	-0.713846	0.795399
H279	H	1.707695	-0.463846	1.045399
H280	H	1.957695	-0.213846	1.295399
H281	H	1.259224	-0.893528	0.560520
H282	H	1.509224	-0.643528	0.810520
H283	H	1.759224	-0.393528	1.060520
H284	H	2.009224	-0.143528	1.310520
