data_functionalizedCrystal
_audit_creation_method	'MofGen! by Chris Wilmer'
_symmetry_space_group_name_H-M	'P1'
_symmetry_Int_Tables_number	1
_symmetry_cell_setting	triclinic
loop_
_symmetry_equiv_pos_as_xyz
  x,y,z
_cell_length_a	8.965430
_cell_length_b	11.026607
_cell_length_c	11.026607
_cell_angle_alpha	71.413983
_cell_angle_beta	90.005930
_cell_angle_gamma	89.998220
loop_
_atom_site_label
_atom_site_type_symbol
_atom_site_fract_x
_atom_site_fract_y
_atom_site_fract_z
O1	O	0.124036	-1.726732	0.533629
O2	O	0.124038	-1.360152	0.472865
O3	O	0.124032	-1.513060	0.319957
O4	O	0.124042	-1.573823	0.686537
O5	O	-0.124047	-1.513045	0.319937
O6	O	-0.124041	-1.360137	0.472845
O7	O	-0.124043	-1.726717	0.533608
Cu8	Cu	-0.146694	-1.543426	0.503225
Cu9	Cu	0.146688	-1.543443	0.503249
O10	O	-0.124037	-1.573809	0.686517
C11	C	-0.000001	-1.312485	0.461645
C12	C	-0.000000	-1.170471	0.428228
N13	N	-0.353043	-1.543422	0.503209
C14	C	-0.000006	-1.501843	0.272287
C15	C	-0.000000	-1.468426	0.130273
C16	C	-0.549716	-1.613289	0.431642
C17	C	-0.450236	-1.664118	0.552063
C18	C	-0.450315	-1.492652	0.382809
C19	C	-0.549671	-1.594354	0.623749
C20	C	-0.549760	-1.422820	0.454409
C21	C	-0.450324	-1.473620	0.574903
N22	N	0.353038	-1.543454	0.503257
C23	C	-0.000001	-1.774384	0.544828
C24	C	0.000008	-1.916398	0.578245
C25	C	0.000003	-1.116821	0.520498
C26	C	0.000004	-0.970043	0.485962
C27	C	0.000001	-1.560695	0.076624
C28	C	0.000007	-1.526160	-0.070155
C29	C	0.000004	-1.585026	0.734187
C30	C	0.000008	-1.618443	0.876200
H31	H	-0.406520	-1.766124	0.593365
N32	N	-0.000003	-1.199903	0.659008
H33	H	-0.000004	-1.292980	0.664046
H34	H	0.091966	-1.181095	0.702817
H35	H	0.000001	-0.979125	0.682816
H36	H	-0.593132	-1.637417	0.725637
N37	N	-0.000017	-1.329917	0.047188
H38	H	-0.000023	-1.273085	0.103156
H39	H	0.091949	-1.312045	-0.008609
N40	N	-0.000001	-1.756956	-0.040713
H41	H	-0.091965	-1.800831	-0.059432
H42	H	0.092022	-1.800743	-0.059443
N43	N	-0.392896	-1.395371	0.655189
H44	H	-0.429243	-1.433877	0.746099
H45	H	-0.280254	-1.395179	0.654040
N46	N	-0.000022	-1.087390	0.289718
H47	H	-0.000025	-0.994312	0.284681
H48	H	0.091940	-1.106205	0.245918
H49	H	-0.593508	-1.320837	0.413077
H50	H	-0.406670	-1.449698	0.280967
N51	N	-0.000018	-1.699206	0.159705
H52	H	-0.000029	-1.704243	0.252783
H53	H	-0.091992	-1.742984	0.140870
N54	N	0.000002	-0.886953	0.347450
H55	H	0.091963	-0.905663	0.303572
H56	H	-0.092023	-0.905690	0.303663
N57	N	-0.607535	-1.691613	0.351571
H58	H	-0.571330	-1.782735	0.388621
H59	H	-0.720174	-1.690303	0.351521
H60	H	0.000017	-1.421590	-0.132884
