data_functionalizedCrystal
_audit_creation_method	'MofGen! by Chris Wilmer'
_symmetry_space_group_name_H-M	'P1'
_symmetry_Int_Tables_number	1
_symmetry_cell_setting	triclinic
loop_
_symmetry_equiv_pos_as_xyz
  x,y,z
_cell_length_a	10.654548
_cell_length_b	10.654543
_cell_length_c	9.130313
_cell_angle_alpha	90.000931
_cell_angle_beta	90.001198
_cell_angle_gamma	84.483273
loop_
_atom_site_label
_atom_site_type_symbol
_atom_site_fract_x
_atom_site_fract_y
_atom_site_fract_z
O1	O	-0.176356	-1.667844	0.121627
O2	O	-0.193171	-1.302365	0.121663
O3	O	-0.002024	-1.493508	0.121650
O4	O	-0.367503	-1.476700	0.121640
O5	O	-0.002024	-1.493494	-0.121949
O6	O	-0.193171	-1.302350	-0.121936
O7	O	-0.176356	-1.667830	-0.121972
Cu8	Cu	-0.184763	-1.485089	-0.144196
Cu9	Cu	-0.184763	-1.485106	0.143887
O10	O	-0.367503	-1.476686	-0.121959
C11	C	-0.191938	-1.255559	-0.000132
C12	C	-0.188249	-1.116116	-0.000117
C13	C	0.044774	-1.492267	-0.000145
C14	C	0.184218	-1.488576	-0.000131
C15	C	-0.300793	-1.036629	-0.000122
C16	C	-0.297319	-0.905608	-0.000144
C17	C	-0.068749	-0.933572	-0.000149
C18	C	-0.072224	-1.064591	-0.000138
C19	C	0.380758	-1.483368	0.132650
C20	C	0.249738	-1.486849	0.132655
C21	C	0.249726	-1.486834	-0.132930
C22	C	0.380745	-1.483362	-0.132934
C23	C	0.585699	-1.477928	-0.000155
C24	C	0.446257	-1.481623	-0.000140
N25	N	-0.184763	-1.485086	-0.346819
C26	C	-0.177595	-0.714634	-0.000167
C27	C	-0.181301	-0.854076	-0.000150
C28	C	-0.261643	-1.561917	-0.423476
C29	C	-0.261636	-1.561937	-0.576813
C30	C	-0.107865	-1.408284	-0.576823
C31	C	-0.107866	-1.408272	-0.423489
N32	N	-0.184754	-1.485118	0.346510
H33	H	-0.395268	-1.078576	-0.000116
C34	C	0.452822	-1.481493	0.278716
H35	H	0.395046	-1.483051	0.357800
H36	H	0.495001	-1.407039	0.284268
H37	H	0.512866	-1.553267	0.284205
H38	H	-0.324238	-1.624502	-0.639220
C39	C	0.051580	-1.152032	-0.000126
H40	H	0.121178	-1.102583	-0.000118
H41	H	0.054973	-1.203731	-0.085069
H42	H	0.054972	-1.203714	0.084839
H43	H	0.196415	-1.488272	0.240785
H44	H	-0.388964	-0.840895	-0.000151
C45	C	0.058868	-0.876890	-0.000153
H46	H	0.044821	-0.787476	-0.000145
H47	H	0.105258	-0.904111	-0.085098
H48	H	0.105251	-0.904104	0.084810
H49	H	0.196370	-1.488249	-0.241046
H50	H	0.434076	-1.481945	-0.241073
H51	H	-0.045260	-1.345744	-0.639265
H52	H	-0.045255	-1.345705	-0.361073
H53	H	-0.324257	-1.624464	-0.361056
