data_functionalizedCrystal
_audit_creation_method	'MofGen! by Chris Wilmer'
_symmetry_space_group_name_H-M	'P1'
_symmetry_Int_Tables_number	1
_symmetry_cell_setting	triclinic
loop_
_symmetry_equiv_pos_as_xyz
  x,y,z
_cell_length_a	10.723023
_cell_length_b	15.021413
_cell_length_c	10.723023
_cell_angle_alpha	90.005063
_cell_angle_beta	95.532452
_cell_angle_gamma	90.006925
loop_
_atom_site_label
_atom_site_type_symbol
_atom_site_fract_x
_atom_site_fract_y
_atom_site_fract_z
O1	O	1.657195	0.074021	-0.175006
O2	O	2.157195	0.574021	0.324994
O3	O	1.294043	0.074024	-0.191760
O4	O	1.794043	0.574024	0.308240
O5	O	1.483996	0.074019	-0.001807
O6	O	1.983996	0.574019	0.498193
O7	O	1.467242	0.074026	-0.364959
O8	O	1.967242	0.574026	0.135041
O9	O	1.483966	-0.074045	-0.001834
O10	O	1.983966	0.425955	0.498166
O11	O	1.294013	-0.074040	-0.191787
O12	O	1.794013	0.425960	0.308213
O13	O	1.657165	-0.074043	-0.175033
O14	O	2.157165	0.425957	0.324967
Zn15	Zn	1.475584	-0.097550	-0.183415
Zn16	Zn	1.975584	0.402450	0.316585
Zn17	Zn	1.475624	0.097531	-0.183379
Zn18	Zn	1.975624	0.597531	0.316621
O19	O	1.467212	-0.074038	-0.364987
O20	O	1.967212	0.425962	0.135013
C21	C	1.247528	-0.000007	-0.190555
C22	C	1.747528	0.499993	0.309445
C23	C	1.108974	-0.000006	-0.186908
C24	C	1.608974	0.499994	0.313092
C25	C	0.904022	0.076696	-0.181498
C26	C	1.404022	0.576696	0.318502
C27	C	1.047225	0.076696	-0.185268
C28	C	1.547225	0.576696	0.314732
N29	N	1.475566	-0.230688	-0.183438
N30	N	1.975566	0.269312	0.316562
C31	C	1.387718	-0.470368	-0.271231
C32	C	1.887718	0.029632	0.228769
C33	C	1.500687	-0.529703	-0.296417
C34	C	2.000687	-0.029703	0.203583
C35	C	1.475598	-0.412294	-0.183407
C36	C	1.975598	0.087706	0.316593
C37	C	1.362659	-0.529701	-0.158250
C38	C	1.862659	-0.029701	0.341750
C39	C	1.475618	-0.587719	-0.183380
C40	C	1.975618	-0.087719	0.316620
C41	C	1.588624	-0.470323	-0.208650
C42	C	2.088624	0.029677	0.291350
C43	C	1.450522	-0.470316	-0.070433
C44	C	1.950522	0.029684	0.429567
C45	C	1.563572	-0.529624	-0.095572
C46	C	2.063572	-0.029624	0.404428
C47	C	1.475584	-0.311237	-0.183426
C48	C	1.975584	0.188763	0.316574
C49	C	1.475645	-0.688774	-0.183361
C50	C	1.975645	-0.188774	0.316639
C51	C	1.703680	-0.000010	-0.176239
C52	C	2.203680	0.499990	0.323761
C53	C	1.842234	-0.000005	-0.179886
C54	C	2.342234	0.499995	0.320114
C55	C	1.482762	-0.000012	0.044679
C56	C	1.982762	0.499988	0.544679
C57	C	1.479115	-0.000009	0.183233
C58	C	1.979115	0.499991	0.683233
N59	N	1.475652	0.230669	-0.183345
N60	N	1.975652	0.730669	0.316655
C61	C	1.468446	-0.000005	-0.411473
C62	C	1.968446	0.499995	0.088527
C63	C	1.472093	-0.000002	-0.550027
C64	C	1.972093	0.499998	-0.050027
C65	C	1.473703	-0.076705	0.388193
C66	C	1.973703	0.423295	0.888193
C67	C	1.477473	-0.076709	0.244990
C68	C	1.977473	0.423291	0.744990
H69	H	1.100360	0.142363	-0.186662
H70	H	1.600360	0.642363	0.313338
N71	N	1.236136	-0.564242	-0.130063
N72	N	1.736136	-0.064242	0.369937
H73	H	1.245941	-0.601227	-0.051071
H74	H	1.745941	-0.101227	0.448929
H75	H	1.199317	-0.602161	-0.202223
H76	H	1.699317	-0.102161	0.297777
N77	N	1.662119	-0.563885	0.002828
N78	N	2.162119	-0.063885	0.502828
H79	H	1.707161	-0.511956	0.046811
H80	H	2.207161	-0.011956	0.546811
H81	H	1.724241	-0.601764	-0.038425
H82	H	2.224241	-0.101764	0.461575
H83	H	1.472285	-0.142369	0.441318
H84	H	1.972285	0.357631	0.941318
H85	H	1.055845	-0.065676	-0.185528
H86	H	1.555845	0.434324	0.314472
N87	N	1.715175	-0.435922	-0.236976
N88	N	2.215175	0.064078	0.263024
H89	H	1.734323	-0.458051	-0.322008
H90	H	2.234323	0.041949	0.177992
H91	H	1.781536	-0.457987	-0.170980
H92	H	2.281536	0.042013	0.329020
H93	H	1.429259	-0.444210	0.025064
H94	H	1.929259	0.055790	0.525064
H95	H	0.895354	-0.065671	-0.181291
H96	H	1.395354	0.434329	0.318709
H97	H	1.478864	-0.142378	0.191862
H98	H	1.978864	0.357622	0.691862
H99	H	1.477736	0.065662	0.236355
H100	H	1.977736	0.565662	0.736355
N101	N	1.289377	-0.435908	-0.369689
N102	N	1.789377	0.064092	0.130311
H103	H	1.330603	-0.397982	-0.431784
H104	H	1.830603	0.102018	0.068216
H105	H	1.226358	-0.398947	-0.328275
H106	H	1.726358	0.101053	0.171725
N107	N	0.833679	0.163684	-0.179614
N108	N	1.333679	0.663684	0.320386
H109	H	0.741351	0.151354	-0.177183
H110	H	1.241351	0.651354	0.322817
H111	H	0.846919	0.198956	-0.257429
H112	H	1.346919	0.698956	0.242571
N113	N	1.528817	-0.564259	-0.422947
N114	N	2.028817	-0.064259	0.077053
H115	H	1.462382	-0.542710	-0.489244
H116	H	1.962382	-0.042710	0.010756
H117	H	1.529451	-0.631486	-0.421640
H118	H	2.029451	-0.131486	0.078360
H119	H	1.473495	0.065663	0.396846
H120	H	1.973495	0.565663	0.896846
