data_functionalizedCrystal
_audit_creation_method	'MofGen! by Chris Wilmer'
_symmetry_space_group_name_H-M	'P1'
_symmetry_Int_Tables_number	1
_symmetry_cell_setting	triclinic
loop_
_symmetry_equiv_pos_as_xyz
  x,y,z
_cell_length_a	14.853567
_cell_length_b	9.198806
_cell_length_c	10.723024
_cell_angle_alpha	89.997988
_cell_angle_beta	84.051400
_cell_angle_gamma	89.999027
loop_
_atom_site_label
_atom_site_type_symbol
_atom_site_fract_x
_atom_site_fract_y
_atom_site_fract_z
O1	O	1.197224	-0.120788	0.162914
O2	O	0.934867	-0.120813	0.182321
O3	O	1.072098	-0.120795	-0.009020
O4	O	1.059994	-0.120807	0.354255
O5	O	1.072087	0.120990	-0.009021
O6	O	0.934856	0.120972	0.182320
O7	O	1.197213	0.120997	0.162913
Cu8	Cu	1.066034	0.143061	0.172617
Cu9	Cu	1.066047	-0.142877	0.172617
O10	O	1.059983	0.120979	0.354254
C11	C	0.901269	0.000077	0.181441
C12	C	0.801171	0.000067	0.178806
N13	N	1.066031	0.344175	0.172616
N14	N	1.066057	-0.343991	0.172609
C15	C	0.387978	0.000104	0.054006
C16	C	0.367897	0.000095	0.281324
C17	C	0.461944	0.000090	0.283802
C18	C	0.519013	0.000090	0.171380
C19	C	0.482034	0.000095	0.056481
C20	C	0.498930	0.000071	0.398699
C21	C	0.592982	0.000064	0.401181
C22	C	0.650052	0.000075	0.288758
C23	C	0.613068	0.000081	0.173854
C24	C	0.670137	0.000081	0.061433
C25	C	0.633155	0.000098	-0.053473
C26	C	0.539104	0.000105	-0.055942
C27	C	0.744103	0.000067	0.291228
C28	C	0.764192	0.000072	0.063907
C29	C	1.230812	0.000104	0.163793
C30	C	1.330910	0.000104	0.166428
C31	C	1.071211	0.000096	-0.055511
C32	C	1.068576	0.000091	-0.194039
C33	C	1.123650	0.416380	0.091925
C34	C	1.123664	0.583792	0.091921
C35	C	1.145363	0.000096	-0.269798
C36	C	1.142641	0.000090	-0.412974
C37	C	1.060870	0.000085	0.400745
C38	C	1.063505	0.000080	0.539273
H39	H	0.810652	0.000077	-0.027642
H40	H	0.321427	0.000083	0.372852
Cl41	Cl	0.639466	0.000048	0.545630
Cl42	Cl	0.790591	0.000036	0.435668
H43	H	1.016708	0.406297	0.241690
Cl44	Cl	1.199595	0.320480	-0.015012
H45	H	1.208376	0.000101	-0.478071
H46	H	1.000821	0.000075	-0.235175
H47	H	0.452459	0.000056	0.490226
H48	H	1.213118	0.000111	-0.228661
H49	H	1.172998	0.645885	0.022843
Cl50	Cl	0.341489	0.000132	-0.090438
H51	H	0.679632	0.000088	-0.145006
Cl52	Cl	0.492606	0.000117	-0.200381
Cl53	Cl	0.989893	0.560157	0.279282
H54	H	0.997766	0.000086	-0.395637
