data_functionalizedCrystal
_audit_creation_method	'MofGen! by Chris Wilmer'
_symmetry_space_group_name_H-M	'P1'
_symmetry_Int_Tables_number	1
_symmetry_cell_setting	triclinic
loop_
_symmetry_equiv_pos_as_xyz
  x,y,z
_cell_length_a	11.026607
_cell_length_b	23.532407
_cell_length_c	10.065875
_cell_angle_alpha	98.729142
_cell_angle_beta	79.302338
_cell_angle_gamma	95.717347
loop_
_atom_site_label
_atom_site_type_symbol
_atom_site_fract_x
_atom_site_fract_y
_atom_site_fract_z
O1	O	1.625135	0.231639	-0.113547
O2	O	1.272155	0.204517	-0.113543
O3	O	1.459285	0.136267	-0.113520
O4	O	1.438005	0.299889	-0.113570
O5	O	1.423601	0.149349	0.113464
O6	O	1.236471	0.217598	0.113442
O7	O	1.589451	0.244720	0.113437
Zn8	Zn	1.407295	0.233236	0.149478
Zn9	Zn	1.454310	0.216001	-0.149584
O10	O	1.402321	0.312970	0.113415
C11	C	1.209162	0.206054	-0.000050
C12	C	1.074627	0.191139	-0.000047
C13	C	1.440900	0.121535	-0.000024
C14	C	1.439269	0.058147	-0.000014
C15	C	1.000327	0.232323	-0.000060
C16	C	0.861279	0.216908	-0.000057
C17	C	1.539800	-0.330388	-0.000090
C18	C	1.538287	-0.389948	-0.000100
O19	O	1.631478	-0.416895	-0.000152
N20	N	1.427036	-0.424275	-0.000098
C21	C	1.317292	-0.399040	-0.000099
O22	O	1.222526	-0.433707	-0.000099
C23	C	1.318808	-0.339482	-0.000099
C24	C	1.430064	-0.305157	-0.000087
C25	C	1.651047	-0.296063	-0.000080
C26	C	1.652559	-0.236507	-0.000067
C27	C	1.542823	-0.211276	-0.000064
C28	C	1.431575	-0.245600	-0.000074
C29	C	1.209067	-0.314248	-0.000109
C30	C	1.210592	-0.254685	-0.000110
C31	C	1.321848	-0.220360	-0.000098
C32	C	1.323351	-0.160813	-0.000058
N33	N	1.434602	-0.126486	-0.000061
C34	C	1.544338	-0.151717	-0.000064
C35	C	1.314119	-0.524117	-0.000103
C36	C	1.312601	-0.583674	-0.000093
C37	C	1.533597	-0.574578	-0.000097
C38	C	1.535112	-0.515019	-0.000097
C39	C	1.425370	-0.489790	-0.000105
C40	C	1.547504	-0.026645	-0.000035
C41	C	1.549005	0.032916	-0.000017
C42	C	1.328011	0.023814	-0.000020
C43	C	1.326508	-0.035742	-0.000032
C44	C	1.436265	-0.060970	-0.000044
O45	O	1.230210	-0.133827	-0.000012
O46	O	1.639092	-0.117045	-0.000081
C47	C	1.652444	0.243183	-0.000059
C48	C	1.786980	0.258098	-0.000071
C49	C	1.420706	0.327702	-0.000084
C50	C	1.422339	0.391089	-0.000104
N51	N	1.375217	0.244999	0.353580
N52	N	1.486398	0.204235	-0.353685
C53	C	1.443142	0.220090	0.421367
C54	C	1.418463	0.229148	0.578531
H55	H	1.039657	0.278994	-0.000067
C56	C	1.588372	0.166887	0.568586
C57	C	1.702151	0.190111	0.603039
C58	C	1.796065	0.155708	0.531402
H59	H	1.591448	0.165774	0.473298
H60	H	1.571828	0.128908	0.591931
H61	H	1.718690	0.228079	0.579684
H62	H	1.699115	0.191222	0.698315
H63	H	1.779521	0.117729	0.554748
H64	H	1.799129	0.154597	0.436118
H65	H	1.873273	0.171457	0.554778
H66	H	1.222001	-0.611615	-0.000079
H67	H	1.639606	0.060862	-0.000004
H68	H	1.625707	-0.487075	-0.000089
C69	C	1.273226	0.282291	0.431502
C70	C	1.186401	0.249158	0.513587
C71	C	1.092435	0.283494	0.585398
H72	H	1.233667	0.296758	0.368751
H73	H	1.307943	0.313588	0.487307
H74	H	1.151685	0.217872	0.457786
H75	H	1.225921	0.234691	0.576363
H76	H	1.127153	0.314791	0.641203
H77	H	1.052887	0.297960	0.522637
H78	H	1.033519	0.261020	0.641110
C79	C	0.809056	0.154635	-0.000254
C80	C	0.867196	0.120917	-0.117008
C81	C	0.819131	0.063549	-0.117226
H82	H	0.722584	0.152461	-0.000324
H83	H	0.823508	0.140762	0.078865
H84	H	0.852733	0.134785	-0.196105
H85	H	0.953665	0.123074	-0.116962
H86	H	0.833584	0.049676	-0.038108
H87	H	0.732660	0.061381	-0.117293
H88	H	0.858580	0.040663	-0.196435
C89	C	0.839651	0.320295	-0.000186
C90	C	0.967105	0.323218	-0.000231
C91	C	1.015672	0.380501	-0.000368
H92	H	0.800498	0.343325	0.078931
H93	H	0.825310	0.334138	-0.079389
H94	H	0.981437	0.309383	0.078963
H95	H	1.006291	0.300201	-0.079342
H96	H	1.001331	0.394344	-0.079571
H97	H	0.976510	0.403526	0.078750
H98	H	1.102156	0.382491	-0.000412
H99	H	1.118471	-0.342186	-0.000127
H100	H	1.622951	-0.595132	-0.000105
C101	C	1.022399	0.128869	-0.000243
C102	C	1.080539	0.095151	-0.116997
C103	C	1.032475	0.037783	-0.117216
H104	H	0.935927	0.126695	-0.000313
H105	H	1.036851	0.114996	0.078875
H106	H	1.066077	0.109019	-0.196095
H107	H	1.167009	0.097308	-0.116952
H108	H	1.046927	0.023910	-0.038097
H109	H	0.946003	0.035615	-0.117282
H110	H	1.071923	0.014897	-0.196425
H111	H	1.121224	-0.234147	-0.000119
C112	C	1.666786	-0.053918	0.000028
C113	C	1.764517	-0.011099	0.000076
C114	C	1.874411	-0.036198	0.000162
H115	H	1.683417	-0.081511	-0.079107
H116	H	1.658410	-0.072390	0.079212
H117	H	1.772893	0.007364	-0.079099
H118	H	1.747927	0.016497	0.079206
H119	H	1.866036	-0.054670	0.079346
H120	H	1.891030	-0.063791	-0.078975
H121	H	1.940733	-0.007149	0.000208
H122	H	1.743156	-0.208565	-0.000063
H123	H	1.224746	-0.503579	-0.000098
C124	C	1.770320	-0.323338	-0.000007
C125	C	1.868049	-0.280517	0.000036
C126	C	1.977944	-0.305614	0.000134
H127	H	1.786955	-0.350934	-0.079136
H128	H	1.761943	-0.341806	0.079183
H129	H	1.876426	-0.262059	-0.079146
H130	H	1.851455	-0.252918	0.079159
H131	H	1.969567	-0.324082	0.079324
H132	H	1.994566	-0.333210	-0.078997
H133	H	2.044263	-0.276564	0.000175
H134	H	1.235908	-0.063688	-0.000003
H135	H	1.238666	0.044369	-0.000013
H136	H	1.519561	0.192055	0.363052
H137	H	1.342031	0.257180	0.636843
