data_functionalizedCrystal
_audit_creation_method	'MofGen! by Chris Wilmer'
_symmetry_space_group_name_H-M	'P1'
_symmetry_Int_Tables_number	1
_symmetry_cell_setting	triclinic
loop_
_symmetry_equiv_pos_as_xyz
  x,y,z
_cell_length_a	19.121102
_cell_length_b	19.121368
_cell_length_c	19.121175
_cell_angle_alpha	90.088238
_cell_angle_beta	94.787032
_cell_angle_gamma	90.107979
loop_
_atom_site_label
_atom_site_type_symbol
_atom_site_fract_x
_atom_site_fract_y
_atom_site_fract_z
Zn1	Zn	-1.077443	-0.343939	-0.428419
Zn2	Zn	-0.577443	0.156061	0.071581
Zn3	Zn	-1.067410	-0.455733	-0.305795
Zn4	Zn	-0.567410	0.044267	0.194205
Zn5	Zn	-0.955227	-0.333525	-0.306219
Zn6	Zn	-0.455227	0.166475	0.193781
Zn7	Zn	-0.954812	-0.455687	-0.418409
Zn8	Zn	-0.454812	0.044313	0.081591
O9	O	-1.013723	-0.397221	-0.364711
O10	O	-0.513723	0.102779	0.135289
O11	O	-1.174382	-0.363147	-0.416165
O12	O	-0.674382	0.136853	0.083835
O13	O	-1.048504	-0.435183	-0.207581
O14	O	-0.548504	0.064817	0.292419
O15	O	-0.975812	-0.236995	-0.326795
O16	O	-0.475812	0.263005	0.173205
O17	O	-1.167011	-0.445281	-0.326073
O18	O	-0.667011	0.054719	0.173927
O19	O	-1.065603	-0.244647	-0.416575
O20	O	-0.565603	0.255353	0.083425
O21	O	-0.966084	-0.345397	-0.207892
O22	O	-0.466084	0.154603	0.292108
O23	O	-0.856902	-0.345352	-0.317089
O24	O	-0.356902	0.154648	0.182911
O25	O	-0.975104	-0.445203	-0.518008
O26	O	-0.475104	0.054797	-0.018008
O27	O	-0.856596	-0.435104	-0.399515
O28	O	-0.356596	0.064896	0.100485
O29	O	-1.065200	-0.363102	-0.525362
O30	O	-0.565200	0.136898	-0.025362
O31	O	-1.048101	-0.553639	-0.316367
O32	O	-0.548101	-0.053639	0.183633
O33	O	-0.965375	-0.553605	-0.399104
O34	O	-0.465375	-0.053605	0.100896
C35	C	-0.831269	-0.389094	-0.357262
C36	C	-0.331269	0.110906	0.142738
C37	C	-0.753214	-0.385635	-0.354092
C38	C	-0.253214	0.114365	0.145908
C39	C	-1.005624	-0.579010	-0.356620
C40	C	-0.505624	-0.079010	0.143380
C41	C	-1.002224	-0.656785	-0.353185
C42	C	-0.502224	-0.156785	0.146815
C43	C	-1.021225	-0.405309	-0.547878
C44	C	-0.521225	0.094691	-0.047878
C45	C	-1.024422	-0.408756	-0.625933
C46	C	-0.524422	0.091244	-0.125933
C47	C	-1.196889	-0.405381	-0.372188
C48	C	-0.696889	0.094619	0.127812
C49	C	-1.274944	-0.408858	-0.375375
C50	C	-0.774944	0.091142	0.124625
C51	C	-0.716397	-0.430803	-0.395443
C52	C	-0.216397	0.069197	0.104557
C53	C	-0.643057	-0.427543	-0.392468
C54	C	-0.143057	0.072457	0.107532
C55	C	-0.606535	-0.379119	-0.348137
C56	C	-0.106535	0.120881	0.151863
C57	C	-0.643357	-0.333946	-0.306784
C58	C	-0.143357	0.166054	0.193216
C59	C	-0.716696	-0.337202	-0.309763
C60	C	-0.216696	0.162798	0.190237
C61	C	-0.385105	-0.366942	-0.337001
C62	C	0.114895	0.133058	0.162999
C63	C	-0.311761	-0.363690	-0.334023
C64	C	0.188239	0.136310	0.165977
C65	C	-0.311466	-0.457287	-0.419709
C66	C	0.188534	0.042713	0.080291
C67	C	-0.384807	-0.460542	-0.422681
C68	C	0.115193	0.039458	0.077319
C69	C	-0.421623	-0.415367	-0.381331
C70	C	0.078377	0.084633	0.118669
C71	C	-0.531569	-0.375787	-0.345093
C72	C	-0.031569	0.124213	0.154907
C73	C	-0.496587	-0.418695	-0.384379
C74	C	0.003413	0.081305	0.115621
C75	C	-1.021873	-0.214724	-0.372849
C76	C	-0.521873	0.285276	0.127151
C77	C	-1.025347	-0.136954	-0.376317
C78	C	-0.525347	0.363046	0.123683
C79	C	-0.980232	-0.096433	-0.331205
C80	C	-0.480232	0.403567	0.168795
C81	C	-0.983494	-0.023361	-0.334470
C82	C	-0.483494	0.476639	0.165530
C83	C	-1.031876	0.009190	-0.382846
C84	C	-0.531876	0.509190	0.117154
C85	C	-1.076993	-0.031337	-0.427963
C86	C	-0.576993	0.468663	0.072037
C87	C	-1.073726	-0.104408	-0.424701
C88	C	-0.573726	0.395592	0.075299
C89	C	-1.044074	0.229618	-0.395039
C90	C	-0.544074	0.729618	0.104961
C91	C	-1.047339	0.302695	-0.398297
C92	C	-0.547339	0.802695	0.101703
C93	C	-0.953839	0.310666	-0.304805
C94	C	-0.453839	0.810666	0.195195
C95	C	-0.950580	0.237593	-0.301543
C96	C	-0.450580	0.737593	0.198457
C97	C	-0.995694	0.197073	-0.346663
C98	C	-0.495694	0.697073	0.153337
C99	C	-1.035213	0.083881	-0.386184
C100	C	-0.535213	0.583881	0.113816
C101	C	-0.992353	0.122382	-0.343328
C102	C	-0.492353	0.622382	0.156672
C103	C	-0.983014	-0.363629	-0.662765
C104	C	-0.483014	0.136371	-0.162765
C105	C	-0.986015	-0.366873	-0.736105
C106	C	-0.486015	0.133127	-0.236105
C107	C	-1.030428	-0.415241	-0.772613
C108	C	-0.530428	0.084759	-0.272613
C109	C	-1.071837	-0.460372	-0.735776
C110	C	-0.571837	0.039628	-0.235776
C111	C	-1.068832	-0.457131	-0.662436
C112	C	-0.568832	0.042869	-0.162436
C113	C	-1.041645	-0.427369	-0.994043
C114	C	-0.541645	0.072631	-0.494043
C115	C	-1.044648	-0.430605	-1.067388
C116	C	-0.544648	0.069395	-0.567388
C117	C	-0.958825	-0.337107	-1.067712
C118	C	-0.458825	0.162893	-0.567712
C119	C	-0.955827	-0.333867	-0.994371
C120	C	-0.455827	0.166133	-0.494371
C121	C	-0.997233	-0.379001	-0.957540
C122	C	-0.497233	0.120999	-0.457540
C123	C	-1.033498	-0.418556	-0.847579
C124	C	-0.533498	0.081444	-0.347579
C125	C	-0.994159	-0.375688	-0.882575
C126	C	-0.494159	0.124312	-0.382575
C127	C	-1.006293	-0.389116	-0.182260
C128	C	-0.506293	0.110884	0.317740
C129	C	-1.003240	-0.385479	-0.104220
C130	C	-0.503240	0.114521	0.395780
H131	H	-0.746128	-0.470238	-0.431540
H132	H	-0.246128	0.029762	0.068460
H133	H	-1.069658	-0.457938	-0.877312
H134	H	-0.569658	0.042062	-0.377312
H135	H	-0.414538	-0.499976	-0.458779
H136	H	0.085462	0.000024	0.041221
Cl137	Cl	-1.096030	0.124808	-0.447001
Cl138	Cl	-0.596030	0.624808	0.052999
Cl139	Cl	-0.596776	-0.484329	-0.444456
Cl140	Cl	-0.096776	0.015671	0.055544
Cl141	Cl	-0.265179	-0.514076	-0.471688
Cl142	Cl	0.234821	-0.014076	0.028312
Cl143	Cl	-0.597443	-0.273064	-0.251058
Cl144	Cl	-0.097443	0.226936	0.248942
Cl145	Cl	-0.933923	-0.310171	-0.782403
Cl146	Cl	-0.433923	0.189829	-0.282403
Cl147	Cl	-0.938330	-0.314883	-0.836679
Cl148	Cl	-0.438330	0.185117	-0.336679
Cl149	Cl	-1.137809	0.009584	-0.488786
Cl150	Cl	-0.637809	0.509584	0.011214
H151	H	-0.946852	-0.324239	-0.633046
H152	H	-0.446852	0.175761	-0.133046
H153	H	-1.080818	-0.469993	-1.097110
H154	H	-0.580818	0.030007	-0.597110
H155	H	-0.282027	-0.324249	-0.297928
H156	H	0.217973	0.175751	0.202072
H157	H	-0.415072	-0.330161	-0.303325
H158	H	0.084928	0.169839	0.196675
H159	H	-0.946758	0.009631	-0.297737
H160	H	-0.446758	0.509631	0.202263
Cl161	Cl	-0.919410	-0.137346	-0.270383
Cl162	Cl	-0.419410	0.362654	0.229617
Cl163	Cl	-0.762980	-0.280415	-0.257778
Cl164	Cl	-0.262980	0.219585	0.242222
H165	H	-0.911184	0.211096	-0.262149
H166	H	-0.411184	0.711096	0.237851
H167	H	-0.925113	-0.300362	-1.097708
H168	H	-0.425113	0.199638	-0.597708
Cl169	Cl	-0.485649	-0.314912	-0.289364
Cl170	Cl	0.014351	0.185088	0.210636
Cl171	Cl	-0.542502	-0.479570	-0.440108
Cl172	Cl	-0.042502	0.020430	0.059892
Cl173	Cl	-1.120887	-0.513867	-0.616133
Cl174	Cl	-0.620887	-0.013867	-0.116133
Cl175	Cl	-0.897125	0.361609	-0.248089
Cl176	Cl	-0.397125	0.861609	0.251911
H177	H	-1.110458	-0.137399	-0.461441
H178	H	-0.610458	0.362601	0.038559
Cl179	Cl	-1.108168	0.343614	-0.459114
Cl180	Cl	-0.608168	0.843614	0.040886
H181	H	-1.080817	0.196635	-0.431772
H182	H	-0.580817	0.696635	0.068228
H183	H	-0.952958	0.095877	-0.303944
H184	H	-0.452958	0.595877	0.196056
H185	H	-1.075353	-0.464127	-0.964063
H186	H	-0.575353	0.035873	-0.464063
Cl187	Cl	-0.899992	-0.273058	-0.948481
Cl188	Cl	-0.399992	0.226942	-0.448481
Cl189	Cl	-1.127666	-0.521182	-0.781671
Cl190	Cl	-0.627666	-0.021182	-0.281671
