data_functionalizedCrystal
_audit_creation_method	'MofGen! by Chris Wilmer'
_symmetry_space_group_name_H-M	'P1'
_symmetry_Int_Tables_number	1
_symmetry_cell_setting	triclinic
loop_
_symmetry_equiv_pos_as_xyz
  x,y,z
_cell_length_a	10.654554
_cell_length_b	10.654550
_cell_length_c	9.130313
_cell_angle_alpha	90.000276
_cell_angle_beta	89.998545
_cell_angle_gamma	95.514113
loop_
_atom_site_label
_atom_site_type_symbol
_atom_site_fract_x
_atom_site_fract_y
_atom_site_fract_z
O1	O	0.176398	-1.667842	-0.121679
O2	O	0.193204	-1.302364	-0.121705
O3	O	0.002063	-1.493503	-0.121693
O4	O	0.367540	-1.476703	-0.121691
O5	O	0.002057	-1.493490	0.121906
O6	O	0.193199	-1.302351	0.121894
O7	O	0.176393	-1.667829	0.121920
Cu8	Cu	0.184795	-1.485089	0.144149
Cu9	Cu	0.184802	-1.485105	-0.143935
O10	O	0.367535	-1.476690	0.121908
C11	C	0.191968	-1.255560	0.000091
C12	C	0.188276	-1.116116	0.000081
C13	C	-0.044738	-1.492262	0.000103
C14	C	-0.184181	-1.488568	0.000092
C15	C	-0.366743	-1.369081	0.000102
C16	C	-0.235721	-1.372551	0.000088
C17	C	-0.263670	-1.601121	0.000096
C18	C	-0.394689	-1.597649	0.000099
C19	C	-0.418276	-1.253058	0.000112
C20	C	-0.338795	-1.140504	0.000106
C21	C	-0.207774	-1.143974	0.000092
C22	C	-0.156232	-1.259998	0.000084
C23	C	0.177630	-1.714634	0.000121
C24	C	0.181322	-1.854077	0.000121
C25	C	0.414335	-1.477931	0.000109
C26	C	0.553778	-1.481626	0.000110
N27	N	0.184790	-1.485087	0.346772
C28	C	0.300817	-1.036633	0.000086
C29	C	0.297341	-0.905612	0.000111
C30	C	0.068772	-0.933571	0.000121
C31	C	0.072249	-1.064589	0.000106
N32	N	0.184797	-1.485116	-0.346557
C33	C	0.100188	-1.569752	0.423429
C34	C	0.100188	-1.569764	0.576766
C35	C	0.269403	-1.400442	0.576775
C36	C	0.269396	-1.400425	0.423441
H37	H	-0.380770	-1.046041	0.000100
H38	H	-0.019401	-1.129309	0.000106
C39	C	0.007115	-1.662865	0.339098
H40	H	-0.043278	-1.713281	0.406719
H41	H	0.052772	-1.715530	0.279266
H42	H	-0.045593	-1.617218	0.279299
C43	C	-0.482126	-1.721441	0.000113
H44	H	-0.567535	-1.702754	0.000102
H45	H	-0.466400	-1.768967	0.085062
H46	H	-0.466397	-1.768968	-0.084845
C47	C	-0.120350	-1.020174	0.000081
H48	H	-0.169810	-0.950582	0.000099
H49	H	-0.068659	-1.016772	-0.084869
H50	H	-0.068659	-1.016779	0.085038
H51	H	-0.049545	-1.262815	0.000066
C52	C	-0.206976	-1.728734	0.000108
H53	H	-0.117562	-1.714682	0.000120
H54	H	-0.234186	-1.775134	-0.084833
H55	H	-0.234191	-1.775110	0.085074
C56	C	0.421136	-0.818185	0.000106
H57	H	0.490730	-0.867642	0.000078
H58	H	0.424539	-0.766499	0.085060
H59	H	0.424524	-0.766488	-0.084848
C60	C	-0.058847	-0.876886	0.000129
H61	H	-0.044802	-0.787472	0.000123
H62	H	-0.105238	-0.904106	0.085074
H63	H	-0.105227	-0.904098	-0.084833
H64	H	0.031297	-1.638705	0.639176
C65	C	0.362473	-1.307333	0.661115
H66	H	0.350372	-1.319477	0.763415
H67	H	0.348057	-1.223395	0.636006
H68	H	0.446423	-1.321706	0.635970
C69	C	0.428440	-1.093309	0.000073
H70	H	0.494966	-1.027202	0.000093
H71	H	0.434553	-1.143832	-0.084880
H72	H	0.434545	-1.143843	0.085028
H73	H	0.338289	-1.331474	0.361022
H74	H	-0.524958	-1.250219	0.000126
