data_functionalizedCrystal
_audit_creation_method	'MofGen! by Chris Wilmer'
_symmetry_space_group_name_H-M	'P1'
_symmetry_Int_Tables_number	1
_symmetry_cell_setting	triclinic
loop_
_symmetry_equiv_pos_as_xyz
  x,y,z
_cell_length_a	12.811457
_cell_length_b	14.519731
_cell_length_c	11.295675
_cell_angle_alpha	85.889552
_cell_angle_beta	99.529361
_cell_angle_gamma	83.867127
loop_
_atom_site_label
_atom_site_type_symbol
_atom_site_fract_x
_atom_site_fract_y
_atom_site_fract_z
O1	O	1.396592	0.120974	0.051793
O2	O	1.896592	0.620974	0.551793
O3	O	1.088669	0.136558	0.018537
O4	O	1.588669	0.636558	0.518537
O5	O	1.250784	-0.005507	0.036056
O6	O	1.750784	0.494493	0.536056
O7	O	1.234477	0.263040	0.034274
O8	O	1.734477	0.763040	0.534274
O9	O	1.264989	-0.017966	0.235636
O10	O	1.764989	0.482034	0.735636
O11	O	1.102874	0.124100	0.218117
O12	O	1.602874	0.624100	0.718117
O13	O	1.410798	0.108516	0.251373
O14	O	1.910798	0.608516	0.751373
Cu15	Cu	1.258133	0.115170	0.252968
Cu16	Cu	1.758133	0.615170	0.752968
Cu17	Cu	1.241333	0.129904	0.016942
Cu18	Cu	1.741333	0.629904	0.516942
O19	O	1.248683	0.250581	0.233854
O20	O	1.748683	0.750581	0.733854
C21	C	1.056363	0.129838	0.114071
C22	C	1.556363	0.629838	0.614071
C23	C	0.938939	0.128364	0.101390
C24	C	1.438939	0.628364	0.601390
C25	C	0.733775	0.111992	0.295167
C26	C	1.233775	0.611992	0.795167
C27	C	0.623445	0.110606	0.283257
C28	C	1.123445	0.610606	0.783257
C29	C	0.607947	0.124199	0.065663
C30	C	1.107947	0.624199	0.565663
C31	C	0.718277	0.125585	0.077573
C32	C	1.218277	0.625585	0.577573
C33	C	0.781188	0.119483	0.192328
C34	C	1.281188	0.619483	0.692328
C35	C	0.891519	0.120875	0.204236
C36	C	1.391519	0.620875	0.704236
C37	C	0.876020	0.134462	-0.013357
C38	C	1.376020	0.634462	0.486643
C39	C	0.765690	0.133076	-0.025266
C40	C	1.265690	0.633076	0.474734
C41	C	1.257122	-0.046093	0.135764
C42	C	1.757122	0.453907	0.635764
C43	C	1.254833	-0.148463	0.135518
C44	C	1.754833	0.351537	0.635518
C45	C	1.252973	-0.231599	0.135314
C46	C	1.752973	0.268401	0.635314
C47	C	1.250648	-0.335897	0.135054
C48	C	1.750648	0.164103	0.635054
C49	C	1.248803	-0.419027	0.134847
C50	C	1.748803	0.080973	0.634847
C51	C	1.246478	-0.523332	0.134589
C52	C	1.746478	-0.023332	0.634589
C53	C	1.443103	0.115236	0.155836
C54	C	1.943103	0.615236	0.655836
C55	C	1.560527	0.116711	0.168510
C56	C	2.060527	0.616711	0.668510
C57	C	1.242344	0.291167	0.134143
C58	C	1.742344	0.791167	0.634143
C59	C	1.244633	0.393538	0.134382
C60	C	1.744633	0.893538	0.634382
N61	N	1.269957	0.104806	0.418977
N62	N	1.769957	0.604806	0.918977
N63	N	1.229518	0.140260	-0.149066
N64	N	1.729518	0.640260	0.350934
C65	C	1.144284	0.214909	0.654739
C66	C	1.644284	0.714909	1.154739
C67	C	1.153244	0.207069	0.780367
C68	C	1.653244	0.707069	1.280367
C69	C	1.296840	0.081290	0.795864
C70	C	1.796840	0.581290	1.295864
C71	C	1.287880	0.089130	0.670236
C72	C	1.787880	0.589130	1.170236
C73	C	1.211599	0.155941	0.599678
C74	C	1.711599	0.655941	1.099678
C75	C	1.202635	0.163777	0.474047
C76	C	1.702635	0.663777	0.974047
C77	C	1.346236	0.038003	0.489546
C78	C	1.846236	0.538003	0.989546
C79	C	1.355195	0.030162	0.615174
C80	C	1.855195	0.530162	1.115174
H81	H	0.914633	0.140567	-0.097096
H82	H	1.414633	0.640567	0.402904
N83	N	1.418852	-0.025601	0.430163
N84	N	1.918852	0.474399	0.930163
H85	H	1.408100	-0.092388	0.450710
H86	H	1.908100	0.407612	0.950710
H87	H	1.401566	-0.010420	0.339889
H88	H	1.901566	0.489580	0.839889
H89	H	0.556709	0.129152	-0.027765
H90	H	1.056709	0.629152	0.472235
H91	H	0.942738	0.115912	0.297676
H92	H	1.442738	0.615912	0.797676
N93	N	1.120359	0.235828	0.397939
N94	N	1.620359	0.735828	0.897939
H95	H	1.079077	0.271995	0.451889
H96	H	1.579077	0.771995	0.951889
H97	H	1.157212	0.279752	0.350181
H98	H	1.657212	0.779752	0.850181
H99	H	0.714454	0.138040	-0.118696
H100	H	1.214454	0.638040	0.381304
H101	H	1.082166	0.269303	0.597289
H102	H	1.582166	0.769303	1.097289
H103	H	0.784996	0.107035	0.388605
H104	H	1.284996	0.607035	0.888605
H105	H	1.358954	0.026900	0.853330
H106	H	1.858954	0.526900	1.353330
N107	N	1.080638	0.270666	0.839758
N108	N	1.580638	0.770666	1.339758
H109	H	1.030956	0.314177	0.775992
H110	H	1.530956	0.814177	1.275992
H111	H	1.037529	0.232218	0.886834
H112	H	1.537529	0.732218	1.386834
H113	H	0.584846	0.104511	0.366999
H114	H	1.084846	0.604511	0.866999
N115	N	1.437471	-0.041890	0.691279
N116	N	1.937471	0.458110	1.191279
H117	H	1.432936	-0.037910	0.779220
H118	H	1.932936	0.462090	1.279220
H119	H	1.423555	-0.105913	0.668000
H120	H	1.923555	0.394087	1.168000
