data_functionalizedCrystal
_audit_creation_method	'MofGen! by Chris Wilmer'
_symmetry_space_group_name_H-M	'P1'
_symmetry_Int_Tables_number	1
_symmetry_cell_setting	triclinic
loop_
_symmetry_equiv_pos_as_xyz
  x,y,z
_cell_length_a	19.188930
_cell_length_b	14.853569
_cell_length_c	13.930277
_cell_angle_alpha	90.000531
_cell_angle_beta	89.978906
_cell_angle_gamma	96.609827
loop_
_atom_site_label
_atom_site_type_symbol
_atom_site_fract_x
_atom_site_fract_y
_atom_site_fract_z
O1	O	-0.926523	0.112552	0.080131
O2	O	-0.426523	0.612552	0.580131
O3	O	-0.723263	0.127703	0.080064
O4	O	-0.223263	0.627703	0.580064
O5	O	-0.830322	-0.011132	0.080103
O6	O	-0.330322	0.488868	0.580103
O7	O	-0.819464	0.251388	0.080092
O8	O	-0.319464	0.751388	0.580092
O9	O	-0.830307	-0.011135	-0.079559
O10	O	-0.330307	0.488865	0.420441
O11	O	-0.723248	0.127701	-0.079598
O12	O	-0.223248	0.627701	0.420402
O13	O	-0.926509	0.112549	-0.079531
O14	O	-0.426509	0.612549	0.420469
Zn15	Zn	-0.824876	0.120124	-0.104914
Zn16	Zn	-0.324876	0.620124	0.395086
Zn17	Zn	-0.824895	0.120128	0.105447
Zn18	Zn	-0.324895	0.620128	0.605447
O19	O	-0.819449	0.251385	-0.079569
O20	O	-0.319449	0.751385	0.420431
C21	C	-0.697243	0.127211	0.000225
C22	C	-0.197243	0.627211	0.500225
C23	C	-0.619733	0.125738	0.000200
C24	C	-0.119733	0.625738	0.500200
C25	C	-0.829822	-0.044720	0.000275
C26	C	-0.329822	0.455280	0.500275
C27	C	-0.828348	-0.144795	0.000283
C28	C	-0.328348	0.355205	0.500283
C29	C	-0.952529	0.113041	0.000311
C30	C	-0.452529	0.613041	0.500311
C31	C	-1.030038	0.114514	0.000342
C32	C	-0.530038	0.614514	0.500342
C33	C	-0.575081	0.207203	0.000212
C34	C	-0.075081	0.707203	0.500212
C35	C	-0.502253	0.205819	0.000222
C36	C	-0.002253	0.705819	0.500222
C37	C	-0.474080	0.122966	0.000240
C38	C	0.025920	0.622966	0.500240
C39	C	-0.518741	0.041491	0.000223
C40	C	-0.018741	0.541491	0.500223
C41	C	-0.591568	0.042877	0.000203
C42	C	-0.091568	0.542877	0.500203
N43	N	-0.365893	0.059637	0.054621
N44	N	0.134107	0.559637	0.554621
N45	N	-0.296710	0.058326	0.054643
N46	N	0.203290	0.558326	0.554643
C47	C	-0.254657	0.118785	0.000299
C48	C	0.245343	0.618785	0.500299
N49	N	-0.284399	0.180619	-0.054054
N50	N	0.215601	0.680619	0.445946
N51	N	-0.353588	0.181933	-0.054071
N52	N	0.146412	0.681933	0.445929
C53	C	-0.395112	0.121454	0.000262
C54	C	0.104888	0.621454	0.500262
C55	C	-0.131036	0.198755	0.000321
C56	C	0.368964	0.698755	0.500321
C57	C	-0.058206	0.197367	0.000326
C58	C	0.441794	0.697367	0.500326
C59	C	-0.074696	0.033038	0.000336
C60	C	0.425304	0.533038	0.500336
C61	C	-0.147524	0.034427	0.000322
C62	C	0.352476	0.534427	0.500322
C63	C	-0.175689	0.117288	0.000319
C64	C	0.324311	0.617288	0.500319
C65	C	-0.819949	0.284972	0.000261
C66	C	-0.319949	0.784972	0.500261
C67	C	-0.821424	0.385047	0.000259
C68	C	-0.321424	0.885047	0.500259
N69	N	-0.824868	0.120121	-0.248480
N70	N	-0.324868	0.620121	0.251520
C71	C	-0.885711	0.421067	0.000277
C72	C	-0.385711	0.921067	0.500277
C73	C	-0.758522	0.443063	0.000246
C74	C	-0.258522	0.943063	0.500246
C75	C	-0.759905	0.537090	0.000250
C76	C	-0.259905	1.037090	0.500250
C77	C	-0.824193	0.573109	0.000268
C78	C	-0.324193	1.073109	0.500268
C79	C	-0.887097	0.515101	0.000283
C80	C	-0.387097	1.015101	0.500283
C81	C	-0.697003	0.595104	0.000244
C82	C	-0.197003	1.095104	0.500244
C83	C	-0.698384	0.689137	0.000248
C84	C	-0.198384	1.189137	0.500248
C85	C	-0.762672	0.725157	0.000260
C86	C	-0.262672	1.225157	0.500260
C87	C	-0.825578	0.667144	0.000274
C88	C	-0.325578	1.167144	0.500274
C89	C	-0.889866	0.703163	0.000292
C90	C	-0.389866	1.203163	0.500292
C91	C	-0.952773	0.645151	0.000300
C92	C	-0.452773	1.145151	0.500300
C93	C	-0.951385	0.551122	0.000295
C94	C	-0.451385	1.051122	0.500295
C95	C	-0.764060	0.819186	0.000265
C96	C	-0.264060	1.319186	0.500265
C97	C	-0.891251	0.797198	0.000298
C98	C	-0.391251	1.297198	0.500298
C99	C	-0.777488	0.181580	-0.700766
C100	C	-0.277488	0.681580	-0.200766
C101	C	-0.872322	0.058669	-0.700701
C102	C	-0.372322	0.558669	-0.200701
C103	C	-0.872314	0.058666	-0.600206
C104	C	-0.372314	0.558666	-0.100206
C105	C	-0.824893	0.120122	-0.549986
C106	C	-0.324893	0.620122	-0.049986
C107	C	-0.777479	0.181581	-0.600261
C108	C	-0.277479	0.681581	-0.100261
C109	C	-0.919731	-0.002786	-0.549923
C110	C	-0.419731	0.497214	-0.049923
C111	C	-0.919725	-0.002791	-0.449421
C112	C	-0.419725	0.497209	0.050579
C113	C	-0.872300	0.058662	-0.399199
C114	C	-0.372300	0.558662	0.100801
C115	C	-0.824884	0.120123	-0.449481
C116	C	-0.324884	0.620123	0.050519
C117	C	-0.777463	0.181579	-0.399261
C118	C	-0.277463	0.681579	0.100739
C119	C	-0.730043	0.243037	-0.449541
C120	C	-0.230043	0.743037	0.050459
C121	C	-0.730054	0.243034	-0.550039
C122	C	-0.230054	0.743034	-0.050039
C123	C	-0.872289	0.058665	-0.298700
C124	C	-0.372289	0.558665	0.201300
C125	C	-0.777454	0.181580	-0.298756
C126	C	-0.277454	0.681580	0.201244
N127	N	-0.824909	0.120124	0.249014
N128	N	-0.324909	0.620124	0.749014
H129	H	-0.598008	0.274674	0.000211
H130	H	-0.098008	0.774674	0.500211
H131	H	-0.706182	0.413730	0.000239
H132	H	-0.206182	0.913730	0.500239
Cl133	Cl	-0.002071	0.299790	0.000336
Cl134	Cl	0.497929	0.799790	0.500336
Cl135	Cl	-0.616190	0.549818	0.000243
Cl136	Cl	-0.116190	1.049818	0.500243
Cl137	Cl	-0.972075	0.842470	0.000315
Cl138	Cl	-0.472075	1.342470	0.500315
H139	H	-0.495798	-0.025968	0.000251
H140	H	0.004202	0.474032	0.500251
H141	H	-1.005116	0.674490	0.000333
H142	H	-0.505116	1.174490	0.500333
H143	H	-0.958336	-0.052833	-0.408489
H144	H	-0.458336	0.447167	0.091511
H145	H	-1.002601	0.503881	0.000302
H146	H	-0.502601	1.003881	0.500302
H147	H	-0.691447	0.293071	-0.590984
H148	H	-0.191447	0.793071	-0.090984
H149	H	-0.910900	0.008631	-0.257767
H150	H	-0.410900	0.508631	0.242233
H151	H	-0.153969	0.266225	0.000305
H152	H	0.346031	0.766225	0.500305
H153	H	-0.627925	-0.023463	0.000194
H154	H	-0.127925	0.476537	0.500194
Cl155	Cl	-0.446109	0.308239	0.000235
Cl156	Cl	0.053891	0.808239	0.500235
H157	H	-0.936929	0.373829	0.000280
H158	H	-0.436929	0.873829	0.500280
H159	H	-0.738835	0.231623	-0.257872
H160	H	-0.238835	0.731623	0.242128
H161	H	-0.051759	-0.034423	0.000410
H162	H	0.448241	0.465577	0.500410
Cl163	Cl	-0.717875	0.258835	-0.763970
Cl164	Cl	-0.217875	0.758835	-0.263970
Cl165	Cl	-0.203661	-0.067991	0.000313
Cl166	Cl	0.296339	0.432009	0.500313
Cl167	Cl	-0.684984	0.892110	0.000261
Cl168	Cl	-0.184984	1.392110	0.500261
H169	H	-0.647161	0.736363	0.000241
H170	H	-0.147161	1.236363	0.500241
H171	H	-0.910935	0.008637	-0.741594
H172	H	-0.410935	0.508637	-0.241594
H173	H	-0.691435	0.293079	-0.408640
H174	H	-0.191435	0.793079	0.091360
Cl175	Cl	-0.979349	-0.080037	-0.613054
Cl176	Cl	-0.479349	0.419963	-0.113054
