data_functionalizedCrystal
_audit_creation_method	'MofGen! by Chris Wilmer'
_symmetry_space_group_name_H-M	'P1'
_symmetry_Int_Tables_number	1
_symmetry_cell_setting	triclinic
loop_
_symmetry_equiv_pos_as_xyz
  x,y,z
_cell_length_a	10.489746
_cell_length_b	19.188925
_cell_length_c	8.965430
_cell_angle_alpha	90.000775
_cell_angle_beta	89.999075
_cell_angle_gamma	83.841925
loop_
_atom_site_label
_atom_site_type_symbol
_atom_site_fract_x
_atom_site_fract_y
_atom_site_fract_z
O1	O	1.691843	0.098515	-0.123938
O2	O	1.320441	0.107757	-0.123963
O3	O	1.516864	0.001552	-0.123941
O4	O	1.495421	0.204720	-0.123959
O5	O	1.516847	0.001559	0.124138
O6	O	1.320425	0.107764	0.124116
O7	O	1.691827	0.098522	0.124141
Cu8	Cu	1.506124	0.103143	0.146780
Cu9	Cu	1.506144	0.103135	-0.146602
O10	O	1.495404	0.204727	0.124119
C11	C	1.272917	0.107062	0.000074
C12	C	1.131335	0.104971	0.000064
C13	C	0.980018	0.036158	0.000091
C14	C	1.056633	0.070565	0.122400
C15	C	1.056605	0.070574	-0.122186
C16	C	0.955683	0.135688	0.122511
C17	C	0.955650	0.135687	-0.122186
C18	C	1.032215	0.170142	0.000153
C19	C	1.516162	-0.024460	0.000097
C20	C	1.514081	-0.101979	0.000094
C21	C	1.615401	-0.663069	0.000063
C22	C	1.617367	-0.590233	0.000077
C23	C	1.502113	-0.546072	0.000069
C24	C	1.384883	-0.574753	0.000085
C25	C	1.382920	-0.647588	0.000086
N26	N	1.418679	-0.425954	-0.084377
N27	N	1.420552	-0.356764	-0.084381
C28	C	1.508021	-0.326623	0.000068
N29	N	1.593566	-0.368287	0.084503
N30	N	1.591696	-0.437484	0.084500
C31	C	1.504229	-0.467094	0.000068
C32	C	1.627375	-0.218973	0.000077
C33	C	1.629337	-0.146135	0.000100
C34	C	1.396850	-0.130656	0.000093
C35	C	1.394891	-0.203493	0.000085
C36	C	1.510158	-0.247647	0.000070
C37	C	1.739351	0.099217	0.000101
C38	C	1.880933	0.101308	0.000101
C39	C	1.496106	0.230739	0.000078
C40	C	1.498187	0.308258	0.000071
N41	N	1.506120	0.103149	0.353129
N42	N	1.506158	0.103124	-0.352951
C43	C	1.415253	0.152249	0.450425
C44	C	1.530433	0.166377	0.549845
C45	C	1.390989	0.089027	0.549837
C46	C	1.621358	0.117309	0.450360
C47	C	1.481837	0.039931	0.450343
C48	C	1.597100	0.054033	0.549718
H49	H	1.709260	-0.699016	0.000059
C50	C	1.454002	-0.032256	0.391241
N51	N	1.433022	-0.086627	0.346721
C52	C	1.259431	0.072901	0.608861
N53	N	1.160339	0.060759	0.653312
H54	H	0.956566	-0.020492	0.000220
C55	C	1.116197	0.033414	0.262101
N56	N	1.161057	0.005428	0.367319
C57	C	1.746317	-0.558686	0.000054
N58	N	1.843442	-0.534926	0.000032
C59	C	0.896379	0.172817	0.262372
N60	N	0.851709	0.200780	0.367717
C61	C	1.063578	0.246729	0.000239
N62	N	1.087206	0.304413	0.000312
H63	H	0.911541	0.163163	-0.225601
C64	C	1.116131	0.033400	-0.261886
N65	N	1.160961	0.005397	-0.367103
H66	H	1.550998	0.219829	0.593551
H67	H	1.303007	-0.094701	0.000099
H68	H	1.674043	0.012498	0.593042
C69	C	1.752942	0.133521	0.391583
N70	N	1.852047	0.145736	0.347308
C71	C	1.258103	-0.526174	0.000071
N72	N	1.162609	-0.489584	0.000062
H73	H	1.287468	-0.670932	0.000096
C74	C	1.754169	-0.267546	0.000078
N75	N	1.849672	-0.304129	0.000082
C76	C	1.265945	-0.235034	0.000075
N77	N	1.168816	-0.258790	0.000070
H78	H	1.724790	-0.122792	0.000103
H79	H	1.338480	0.193810	0.406828
