data_functionalizedCrystal
_audit_creation_method	'MofGen! by Chris Wilmer'
_symmetry_space_group_name_H-M	'P1'
_symmetry_Int_Tables_number	1
_symmetry_cell_setting	triclinic
loop_
_symmetry_equiv_pos_as_xyz
  x,y,z
_cell_length_a	16.974885
_cell_length_b	15.455341
_cell_length_c	17.699083
_cell_angle_alpha	87.004927
_cell_angle_beta	83.338128
_cell_angle_gamma	83.352751
loop_
_atom_site_label
_atom_site_type_symbol
_atom_site_fract_x
_atom_site_fract_y
_atom_site_fract_z
O1	O	1.049011	-0.001437	0.096496
O2	O	1.549011	0.498563	0.596496
O3	O	0.818090	0.014760	0.108126
O4	O	1.318090	0.514760	0.608126
O5	O	0.940075	0.006197	-0.007854
O6	O	1.440075	0.506197	0.492146
O7	O	0.927026	0.007127	0.212477
O8	O	1.427026	0.507127	0.712477
O9	O	0.946262	-0.138498	-0.001933
O10	O	1.446262	0.361502	0.498067
O11	O	0.824277	-0.129935	0.114047
O12	O	1.324277	0.370065	0.614047
O13	O	1.055198	-0.146131	0.102417
O14	O	1.555198	0.353869	0.602417
Cu15	Cu	0.940302	-0.151245	0.108773
Cu16	Cu	1.440302	0.348755	0.608773
Cu17	Cu	0.932985	0.019874	0.101771
Cu18	Cu	1.432985	0.519874	0.601771
O19	O	0.933213	-0.137568	0.218398
O20	O	1.433213	0.362432	0.718398
C21	C	0.791637	-0.055515	0.110535
C22	C	1.291637	0.444485	0.610535
C23	C	0.703600	-0.049340	0.108883
C24	C	1.203600	0.450660	0.608883
C25	C	0.207682	-0.006057	0.099209
C26	C	0.707682	0.493943	0.599209
C27	C	0.290403	-0.011870	0.100762
C28	C	0.790403	0.488130	0.600762
C29	C	0.335127	-0.093651	0.104772
C30	C	0.835127	0.406349	0.604772
C31	C	0.297128	-0.169623	0.107221
C32	C	0.797128	0.330377	0.607221
C33	C	0.214409	-0.163809	0.105662
C34	C	0.714409	0.336191	0.605662
C35	C	0.582882	-0.119498	0.109774
C36	C	1.082882	0.380502	0.609774
C37	C	0.665606	-0.125307	0.111334
C38	C	1.165606	0.374693	0.611334
C39	C	0.658875	0.032447	0.104874
C40	C	1.158875	0.532447	0.604874
C41	C	0.576154	0.038254	0.103320
C42	C	1.076154	0.538254	0.603320
C43	C	0.538163	-0.037718	0.105766
C44	C	1.038163	0.462282	0.605766
N45	N	0.419681	-0.099595	0.106361
N46	N	0.919681	0.400405	0.606361
N47	N	0.453611	-0.031773	0.104170
N48	N	0.953611	0.468227	0.604170
N49	N	0.945455	-0.271601	0.113698
N50	N	1.445455	0.228399	0.613698
C51	C	0.973898	-0.817598	0.140993
C52	C	1.473898	-0.317598	0.640993
C53	C	0.970006	-0.726518	0.137264
C54	C	1.470006	-0.226518	0.637264
C55	C	0.920059	-0.677613	0.089376
C56	C	1.420059	-0.177613	0.589376
C57	C	0.873994	-0.719792	0.045221
C58	C	1.373994	-0.219792	0.545221
C59	C	0.877883	-0.810870	0.048955
C60	C	1.377883	-0.310870	0.548955
C61	C	0.903278	-0.404858	0.073277
C62	C	1.403278	0.095142	0.573277
C63	C	0.899395	-0.313774	0.069544
C64	C	1.399395	0.186226	0.569544
C65	C	0.995407	-0.320506	0.161588
C66	C	1.495407	0.179494	0.661588
C67	C	0.999294	-0.411586	0.165315
C68	C	1.499294	0.088414	0.665315
C69	C	0.953227	-0.453757	0.121163
C70	C	1.453227	0.046243	0.621163
N71	N	0.916081	-0.584514	0.085561
N72	N	1.416081	-0.084514	0.585561
N73	N	0.957201	-0.546853	0.124983
N74	N	1.457201	-0.046853	0.624983
C75	C	1.081650	-0.075854	0.100008
C76	C	1.581650	0.424146	0.600008
C77	C	1.169687	-0.082023	0.101660
C78	C	1.669687	0.417977	0.601660
C79	C	0.942701	-0.066118	-0.033092
C80	C	1.442701	0.433882	0.466908
C81	C	0.941298	-0.066020	-0.117116
C82	C	1.441298	0.433980	0.382884
N83	N	0.927839	0.140229	0.096840
N84	N	1.427839	0.640229	0.596840
C85	C	1.012901	-0.071043	-0.165481
C86	C	1.512901	0.428957	0.334519
C87	C	1.011578	-0.070943	-0.244430
C88	C	1.511578	0.429057	0.255570
C89	C	0.938651	-0.065825	-0.275010
C90	C	1.438651	0.434175	0.224990
C91	C	0.867043	-0.060799	-0.226638
C92	C	1.367043	0.439201	0.273362
C93	C	0.868367	-0.060893	-0.147692
C94	C	1.368367	0.439107	0.352308
C95	C	0.861704	-0.060417	-0.545021
C96	C	1.361704	0.439583	-0.045021
C97	C	0.860386	-0.060326	-0.623973
C98	C	1.360386	0.439674	-0.123973
C99	C	1.004915	-0.070467	-0.641759
C100	C	1.504915	0.429533	-0.141759
C101	C	1.006238	-0.070561	-0.562812
C102	C	1.506238	0.429439	-0.062812
C103	C	0.934630	-0.065531	-0.514447
C104	C	1.434630	0.434469	-0.014447
C105	C	0.936066	-0.065638	-0.428843
C106	C	1.436066	0.434362	0.071157
C107	C	0.937216	-0.065724	-0.360613
C108	C	1.437216	0.434276	0.139387
C109	C	0.930587	-0.065251	0.243636
C110	C	1.430587	0.434749	0.743636
C111	C	0.931989	-0.065343	0.327659
C112	C	1.431989	0.434657	0.827659
H113	H	0.183474	-0.225669	0.107666
H114	H	0.683474	0.274331	0.607666
Cl115	Cl	1.027885	-0.673502	0.192799
Cl116	Cl	1.527885	-0.173502	0.692799
H117	H	1.039968	-0.451398	0.204309
H118	H	1.539968	0.048602	0.704309
Cl119	Cl	0.836625	-0.252296	0.009314
Cl120	Cl	1.336625	0.247704	0.509314
H121	H	0.865769	-0.439183	0.037323
H122	H	1.365769	0.060817	0.537323
H123	H	0.689817	0.094299	0.102882
H124	H	1.189817	0.594299	0.602882
Cl125	Cl	0.771682	-0.054090	-0.484230
Cl126	Cl	1.271682	0.445910	0.015770
Cl127	Cl	1.101597	-0.077261	-0.305230
Cl128	Cl	1.601597	0.422739	0.194770
Cl129	Cl	0.768700	-0.053890	-0.662416
Cl130	Cl	1.268700	0.446110	-0.162416
Cl131	Cl	1.097920	-0.076992	-0.524373
Cl132	Cl	1.597920	0.423008	-0.024373
H133	H	0.833322	-0.679966	0.006233
H134	H	1.333322	-0.179966	0.506233
Cl135	Cl	1.104585	-0.077486	-0.127045
Cl136	Cl	1.604585	0.422514	0.372955
Cl137	Cl	0.775364	-0.054354	-0.265083
Cl138	Cl	1.275364	0.445646	0.234917
H139	H	0.810061	-0.056802	-0.108313
H140	H	1.310061	0.443198	0.391687
Cl141	Cl	1.094938	-0.076788	-0.702565
Cl142	Cl	1.594938	0.423212	-0.202565
H143	H	0.171272	0.060538	0.095949
H144	H	0.671272	0.560538	0.595949
Cl145	Cl	1.053313	-0.267485	0.217093
Cl146	Cl	1.553313	0.232515	0.717093
Cl147	Cl	0.353353	-0.272434	0.112260
Cl148	Cl	0.853353	0.227566	0.612260
Cl149	Cl	0.819974	-0.863888	-0.006552
Cl150	Cl	1.319974	-0.363888	0.493448
H151	H	0.321334	0.049990	0.098761
H152	H	0.821334	0.549990	0.598761
H153	H	0.539745	0.104849	0.100054
H154	H	1.039745	0.604849	0.600054
H155	H	0.551960	-0.181360	0.111754
H156	H	1.051960	0.318640	0.611754
Cl157	Cl	0.721830	-0.228124	0.116374
Cl158	Cl	1.221830	0.271876	0.616374
H159	H	1.014574	-0.857410	0.179986
H160	H	1.514574	-0.357410	0.679986
