data_functionalizedCrystal
_audit_creation_method	'MofGen! by Chris Wilmer'
_symmetry_space_group_name_H-M	'P1'
_symmetry_Int_Tables_number	1
_symmetry_cell_setting	triclinic
loop_
_symmetry_equiv_pos_as_xyz
  x,y,z
_cell_length_a	23.532407
_cell_length_b	23.532407
_cell_length_c	9.730223
_cell_angle_alpha	89.987127
_cell_angle_beta	89.999391
_cell_angle_gamma	82.848747
loop_
_atom_site_label
_atom_site_type_symbol
_atom_site_fract_x
_atom_site_fract_y
_atom_site_fract_z
O1	O	0.755259	0.069135	-0.114228
O2	O	0.589395	0.079138	-0.114253
O3	O	0.677328	-0.008795	-0.114202
O4	O	0.667325	0.157068	-0.114280
O5	O	0.677323	-0.008797	0.114378
O6	O	0.589390	0.079136	0.114326
O7	O	0.755253	0.069133	0.114352
Zn8	Zn	0.672320	0.074134	0.150631
Zn9	Zn	0.672328	0.074137	-0.150533
O10	O	0.667320	0.157066	0.114300
C11	C	0.568176	0.078882	0.000034
C12	C	0.504959	0.078116	0.000026
C13	C	0.238792	0.022921	0.000090
C14	C	0.298192	0.023632	0.000089
O15	O	0.334937	-0.020153	0.000157
N16	N	0.320818	0.075909	0.000055
C17	C	0.284041	0.127477	0.000035
O18	O	0.308740	0.172007	0.000008
C19	C	0.224642	0.126765	0.000046
C20	C	0.202019	0.074485	0.000066
C21	C	0.216168	-0.029354	0.000111
C22	C	0.156772	-0.030066	0.000109
C23	C	0.119999	0.021499	0.000086
C24	C	0.142623	0.073774	0.000064
C25	C	0.187865	0.178333	0.000036
C26	C	0.128463	0.177616	0.000048
C27	C	0.105840	0.125336	0.000068
C28	C	0.046454	0.124627	0.000039
N29	N	0.023828	0.072351	0.000073
C30	C	0.060600	0.020787	0.000096
C31	C	0.408783	0.128968	0.000016
C32	C	0.468181	0.129681	-0.000005
C33	C	0.482328	0.025836	0.000051
C34	C	0.422929	0.025124	0.000062
C35	C	0.386157	0.076692	0.000050
C36	C	-0.064136	0.019297	0.000091
C37	C	-0.123538	0.018590	0.000084
C38	C	-0.137680	0.122435	0.000035
C39	C	-0.078284	0.123142	0.000035
C40	C	-0.041512	0.071568	0.000068
O41	O	0.009675	0.168390	-0.000024
O42	O	0.035892	-0.023737	0.000142
C43	C	0.677071	-0.030012	0.000095
C44	C	0.676305	-0.093229	0.000116
C45	C	0.621110	-0.359397	0.000022
C46	C	0.621821	-0.299997	0.000033
O47	O	0.578035	-0.263252	-0.000018
N48	N	0.674097	-0.277370	0.000056
C49	C	0.725666	-0.314148	0.000056
O50	O	0.770196	-0.289448	0.000075
C51	C	0.724953	-0.373547	0.000035
C52	C	0.672674	-0.396170	0.000025
C53	C	0.568834	-0.382020	0.000011
C54	C	0.568123	-0.441416	0.000002
C55	C	0.619687	-0.478189	0.000006
C56	C	0.671963	-0.455566	0.000017
C57	C	0.776521	-0.410323	0.000024
C58	C	0.775805	-0.469726	0.000003
C59	C	0.723525	-0.492348	-0.000007
C60	C	0.722816	-0.551735	0.000012
N61	N	0.670539	-0.574361	-0.000012
C62	C	0.618975	-0.537588	-0.000015
C63	C	0.727157	-0.189405	0.000096
C64	C	0.727870	-0.130007	0.000127
C65	C	0.624025	-0.115860	0.000101
C66	C	0.623313	-0.175259	0.000081
C67	C	0.674881	-0.212031	0.000072
C68	C	0.617485	-0.662325	-0.000031
C69	C	0.616779	-0.721727	-0.000033
C70	C	0.720623	-0.735869	-0.000015
C71	C	0.721330	-0.676472	-0.000005
C72	C	0.669757	-0.639701	-0.000018
O73	O	0.766579	-0.588514	0.000057
O74	O	0.574452	-0.562296	-0.000053
C75	C	0.776472	0.069389	0.000061
C76	C	0.839689	0.070155	0.000060
C77	C	0.667577	0.178283	-0.000000
C78	C	0.668343	0.241500	-0.000030
N79	N	0.672319	0.074131	0.356167
N80	N	0.672333	0.074135	-0.356069
C81	C	0.711269	0.035211	0.428116
C82	C	0.711275	0.035211	0.571999
C83	C	0.633379	0.113057	0.571972
C84	C	0.633371	0.113054	0.428091
H85	H	0.138359	-0.072637	0.000132
Cl86	Cl	0.584399	0.161984	0.337632
H87	H	0.246104	-0.071347	0.000135
Cl88	Cl	0.504001	-0.335801	0.000004
H89	H	0.575489	-0.632392	-0.000041
Cl90	Cl	0.551051	-0.750163	-0.000043
H91	H	-0.141954	-0.023984	0.000097
Cl92	Cl	0.760231	-0.013723	0.337704
H93	H	0.512280	-0.016150	0.000071
H94	H	0.742991	0.003518	0.630576
H95	H	0.582038	-0.085909	0.000099
H96	H	0.770441	-0.111594	0.000156
H97	H	0.601669	0.144748	0.630547
H98	H	-0.034204	-0.022699	0.000118
Cl99	Cl	0.791992	-0.235628	0.000103
Cl100	Cl	0.496613	0.195407	-0.000059
Cl101	Cl	0.394496	-0.040601	0.000094
H102	H	0.378846	0.170964	-0.000004
H103	H	0.206274	0.220904	0.000014
H104	H	0.098525	0.219610	0.000044
Cl105	Cl	-0.049843	0.188865	-0.000008
Cl106	Cl	0.840637	-0.515951	-0.000012
H107	H	0.819093	-0.391915	0.000031
Cl108	Cl	0.787054	-0.648031	0.000057
H109	H	-0.167631	0.164417	0.000009
H110	H	0.525551	-0.459830	-0.000017
H111	H	0.580742	-0.193674	0.000078
Cl112	Cl	0.785443	-0.782108	-0.000002
