data_functionalizedCrystal
_audit_creation_method	'MofGen! by Chris Wilmer'
_symmetry_space_group_name_H-M	'P1'
_symmetry_Int_Tables_number	1
_symmetry_cell_setting	triclinic
loop_
_symmetry_equiv_pos_as_xyz
  x,y,z
_cell_length_a	12.827893
_cell_length_b	25.639239
_cell_length_c	12.827885
_cell_angle_alpha	89.964018
_cell_angle_beta	89.980728
_cell_angle_gamma	90.038657
loop_
_atom_site_label
_atom_site_type_symbol
_atom_site_fract_x
_atom_site_fract_y
_atom_site_fract_z
Zn1	Zn	1.597500	-0.208126	-0.590804
Zn2	Zn	1.597324	-0.295571	-0.416045
Zn3	Zn	1.422742	-0.208151	-0.416077
Zn4	Zn	1.422656	-0.295532	-0.590745
O5	O	1.510055	-0.251845	-0.503418
O6	O	1.743713	-0.219731	-0.567633
O7	O	1.574127	-0.284002	-0.269813
O8	O	1.446034	-0.134983	-0.439293
O9	O	1.743583	-0.283977	-0.439238
O10	O	1.574428	-0.134964	-0.567664
O11	O	1.445862	-0.219775	-0.269837
O12	O	1.276494	-0.219737	-0.439236
O13	O	1.445888	-0.283911	-0.736989
O14	O	1.276431	-0.283935	-0.567564
O15	O	1.574345	-0.219694	-0.737032
O16	O	1.574044	-0.368731	-0.439181
O17	O	1.445716	-0.368702	-0.567533
C18	C	1.238546	-0.251835	-0.503398
C19	C	1.122392	-0.251843	-0.503414
C20	C	1.070604	-0.283660	-0.566817
C21	C	0.950554	-0.283670	-0.566835
C22	C	1.509880	-0.387688	-0.503370
C23	C	1.509900	-0.445802	-0.503384
C24	C	1.577050	-0.806167	-0.436699
C25	C	1.577090	-0.860771	-0.436713
O26	O	1.634001	-0.889010	-0.379962
N27	N	1.510239	-0.888084	-0.503487
C28	C	1.443350	-0.860790	-0.570259
O29	O	1.386493	-0.889035	-0.627057
C30	C	1.443316	-0.806186	-0.570249
C31	C	1.510164	-0.778876	-0.503463
C32	C	1.643893	-0.778857	-0.369920
C33	C	1.643851	-0.724256	-0.369904
C34	C	1.576966	-0.696966	-0.436669
C35	C	1.510122	-0.724276	-0.503448
C36	C	1.376433	-0.778893	-0.637026
C37	C	1.376405	-0.724286	-0.637011
C38	C	1.443253	-0.696976	-0.570225
C39	C	1.443194	-0.642385	-0.570198
N40	N	1.510045	-0.615072	-0.503424
C41	C	1.576931	-0.642363	-0.436659
C42	C	1.443429	-0.975460	-0.570275
C43	C	1.443458	-1.030063	-0.570280
C44	C	1.577199	-1.030040	-0.436735
C45	C	1.577165	-0.975437	-0.436726
C46	C	1.510281	-0.948148	-0.503501
C47	C	1.576837	-0.527698	-0.436632
C48	C	1.576786	-0.473092	-0.436620
C49	C	1.443049	-0.473119	-0.570168
C50	C	1.443095	-0.527720	-0.570177
C51	C	1.509998	-0.555008	-0.503405
O52	O	1.386315	-0.614112	-0.626923
O53	O	1.633789	-0.614110	-0.379880
C54	C	1.782626	-0.251856	-0.503438
C55	C	1.898779	-0.251860	-0.503447
C56	C	1.510127	-0.251795	-0.775988
C57	C	1.510157	-0.251773	-0.892141
C58	C	1.510260	-0.115472	-0.503489
C59	C	1.510348	-0.057358	-0.503519
C60	C	1.446645	-0.283514	-1.063949
C61	C	1.446612	-0.283537	-0.943899
C62	C	1.510045	-0.251857	-0.231908
C63	C	1.510217	-0.251731	-0.115755
H64	H	0.943309	-0.224621	-0.449159
H65	H	0.906017	-0.310911	-0.621113
H66	H	1.388588	-0.450891	-0.624524
O67	O	1.069430	-0.219304	-0.438635
C68	C	1.140891	-0.189729	-0.379660
H69	H	1.218746	-0.187902	-0.422386
H70	H	1.152400	-0.208823	-0.300212
C71	C	1.002612	-0.136340	-0.312365
C72	C	1.098232	-0.134093	-0.364847
H73	H	0.976297	-0.102021	-0.303223
H74	H	0.954466	-0.156266	-0.352095
H75	H	1.012216	-0.152254	-0.246164
H76	H	1.088624	-0.118185	-0.431051
H77	H	1.146376	-0.114162	-0.325128
H78	H	1.388665	-0.549957	-0.624562
H79	H	1.115143	-0.310891	-0.621088
H80	H	1.631221	-0.450858	-0.382231
O81	O	1.641685	-0.554262	-0.371732
C82	C	1.582265	-0.585898	-0.304170
H83	H	1.503052	-0.594109	-0.340947
H84	H	1.570818	-0.564893	-0.226707
C85	C	1.737114	-0.627657	-0.240158
C86	C	1.639826	-0.637745	-0.285332
H87	H	1.772621	-0.659637	-0.228533
H88	H	1.777147	-0.606342	-0.285673
H89	H	1.727561	-0.610151	-0.175611
H90	H	1.649381	-0.655244	-0.349883
H91	H	1.599795	-0.659064	-0.239827
O92	O	1.708748	-0.697790	-0.304892
C93	C	1.685968	-0.711176	-0.200721
H94	H	1.645808	-0.750839	-0.198531
H95	H	1.632256	-0.680482	-0.165455
C96	C	1.837212	-0.664970	-0.140215
C97	C	1.787895	-0.713687	-0.137525
H98	H	1.900084	-0.666516	-0.101230
H99	H	1.852558	-0.655949	-0.210397
H100	H	1.792441	-0.639396	-0.110829
H101	H	1.832660	-0.739258	-0.166922
H102	H	1.772558	-0.722711	-0.067346
O103	O	1.381837	-0.315940	-1.117217
C104	C	1.396283	-0.308691	-1.225223
H105	H	1.476974	-0.291562	-1.240040
H106	H	1.334377	-0.280824	-1.256205
C107	C	1.287583	-0.382593	-1.263138
C108	C	1.386692	-0.361559	-1.281336
H109	H	1.281662	-0.415203	-1.297753
H110	H	1.277846	-0.387476	-1.190372
H111	H	1.236005	-0.359366	-1.288957
H112	H	1.438266	-0.384783	-1.255506
H113	H	1.396437	-0.356681	-1.354099
O114	O	1.311395	-0.805438	-0.701760
C115	C	1.243955	-0.837093	-0.642238
H116	H	1.237518	-0.820679	-0.559920
H117	H	1.276291	-0.878462	-0.638685
C118	C	1.143209	-0.858121	-0.794325
C119	C	1.135296	-0.837958	-0.693222
H120	H	1.076184	-0.858658	-0.825775
H121	H	1.188646	-0.836797	-0.834428
H122	H	1.170160	-0.892593	-0.791350
H123	H	1.108358	-0.803485	-0.696200
H124	H	1.089852	-0.859277	-0.653121
O125	O	1.709042	-0.805368	-0.305240
C126	C	1.776517	-0.836886	-0.364835
H127	H	1.782824	-0.820406	-0.447157
H128	H	1.744302	-0.878298	-0.368367
C129	C	1.877476	-0.857874	-0.212853
C130	C	1.885229	-0.837631	-0.313959
H131	H	1.944534	-0.858337	-0.181469
H132	H	1.832015	-0.836642	-0.172701
H133	H	1.850626	-0.892383	-0.215810
H134	H	1.912066	-0.803121	-0.311000
H135	H	1.930698	-0.858857	-0.354110
H136	H	1.392190	-0.310749	-0.899347
H137	H	1.321941	-0.702069	-0.691391
O138	O	1.642217	-1.056637	-0.372052
C139	C	1.627927	-1.110686	-0.386411
H140	H	1.593561	-1.118113	-0.466993
H141	H	1.572419	-1.126265	-0.324325
C142	C	1.775933	-1.129527	-0.278141
C143	C	1.733732	-1.138649	-0.377117
H144	H	1.841196	-1.146777	-0.272403
H145	H	1.785558	-1.093113	-0.268463
H146	H	1.729666	-1.142509	-0.226414
H147	H	1.779992	-1.125661	-0.428841
H148	H	1.724117	-1.175062	-0.386803
H149	H	1.631599	-0.953205	-0.382344
O150	O	1.378480	-1.056507	-0.635246
C151	C	1.319421	-1.020704	-0.694145
H152	H	1.362200	-0.981759	-0.697784
H153	H	1.240072	-1.014952	-0.655803
C154	C	1.251768	-1.089808	-0.800892
C155	C	1.304314	-1.041976	-0.805369
H156	H	1.242444	-1.102929	-0.869499
H157	H	1.291553	-1.113930	-0.761209
H158	H	1.185650	-1.085008	-0.768936
H159	H	1.370435	-1.046778	-0.837313
H160	H	1.264539	-1.017855	-0.845061
H161	H	1.564614	-0.224536	-1.071231
O162	O	1.575042	-0.219235	-0.945159
C163	C	1.552278	-0.167117	-0.918608
H164	H	1.512156	-0.166011	-0.839333
H165	H	1.498540	-0.149521	-0.980021
C166	C	1.703482	-0.136805	-1.011102
C167	C	1.654211	-0.135447	-0.913730
H168	H	1.766357	-0.117268	-1.008097
H169	H	1.718817	-0.171918	-1.028993
H170	H	1.658690	-0.122143	-1.062269
H171	H	1.698998	-0.150115	-0.862567
H172	H	1.638886	-0.100336	-0.895829
H173	H	1.388955	-0.953244	-0.624648
