data_functionalizedCrystal
_audit_creation_method	'MofGen! by Chris Wilmer'
_symmetry_space_group_name_H-M	'P1'
_symmetry_Int_Tables_number	1
_symmetry_cell_setting	triclinic
loop_
_symmetry_equiv_pos_as_xyz
  x,y,z
_cell_length_a	6.817900
_cell_length_b	12.908942
_cell_length_c	17.110486
_cell_angle_alpha	96.442765
_cell_angle_beta	99.060439
_cell_angle_gamma	100.860556
loop_
_atom_site_label
_atom_site_type_symbol
_atom_site_fract_x
_atom_site_fract_y
_atom_site_fract_z
V1	V	-3.963551	-0.145539	-0.246281
O2	O	-3.966044	0.007317	-0.242046
O3	O	-3.902251	-0.288890	-0.244161
O4	O	-3.893627	-0.143159	-0.353891
O5	O	-3.974728	-0.139424	-0.131556
V6	V	-4.451640	-0.127272	-0.232612
O7	O	-4.214795	-0.185608	-0.276265
O8	O	-4.650594	-0.087203	-0.202627
O9	O	-4.289734	0.016079	-0.234732
O10	O	-4.566544	-0.280128	-0.236847
O11	O	-4.557860	-0.133388	-0.347337
O12	O	-4.298357	-0.129653	-0.125001
C13	C	-3.744810	-0.323841	-0.240163
C14	C	-3.775833	-0.441031	-0.239147
C15	C	-4.195818	-0.671977	-0.245119
C16	C	-4.224976	-0.782088	-0.244164
C17	C	-3.863312	-0.771368	-0.236289
C18	C	-3.834154	-0.661257	-0.237244
C19	C	-4.000414	-0.611565	-0.241657
C20	C	-3.971252	-0.501450	-0.242606
C21	C	-3.609592	-0.490734	-0.234737
C22	C	-3.638750	-0.600845	-0.233783
C23	C	-3.733809	-0.137944	-0.380134
C24	C	-3.757837	-0.136946	-0.468103
C25	C	-3.949938	-0.141739	-0.513447
C26	C	-3.972503	-0.140801	-0.596103
C27	C	-3.802966	-0.135078	-0.633415
C28	C	-3.610848	-0.130282	-0.588065
C29	C	-3.588283	-0.131212	-0.505410
C30	C	-3.862047	-0.131998	-0.882779
C31	C	-3.884628	-0.131071	-0.965441
C32	C	-4.246282	-0.141588	-0.973473
C33	C	-4.223702	-0.142525	-0.890816
C34	C	-4.031586	-0.137723	-0.845473
C35	C	-3.826027	-0.134122	-0.717903
C36	C	-4.008525	-0.138671	-0.760986
C37	C	-4.110517	0.051023	-0.238727
C38	C	-4.058731	0.168213	-0.239748
C39	C	-4.121518	-0.134871	-0.098754
C40	C	-4.076730	-0.135863	-0.010784
H41	H	-3.503394	-0.641320	-0.230192
C42	C	-4.195012	-0.144969	-0.719949
H43	H	-4.312662	-0.147687	-0.758789
H44	H	-4.212295	-0.207300	-0.694911
H45	H	-4.175135	-0.083792	-0.680832
C46	C	-3.698133	-0.124772	-1.006486
H47	H	-3.739099	-0.124919	-1.062208
H48	H	-3.601550	-0.061012	-0.984254
H49	H	-3.638725	-0.184521	-0.998330
C50	C	-3.650735	-0.126730	-0.832913
H51	H	-3.553008	-0.123201	-0.866977
H52	H	-3.615812	-0.065124	-0.793461
H53	H	-3.653009	-0.188633	-0.807546
C54	C	-4.439915	-0.848543	-0.247974
H55	H	-4.433477	-0.921240	-0.246781
H56	H	-4.493954	-0.823131	-0.203421
H57	H	-4.524917	-0.842269	-0.296086
H58	H	-3.727963	-0.811848	-0.232703
C59	C	-3.424361	-0.123989	-0.629106
H60	H	-3.465313	-0.124133	-0.684829
H61	H	-3.327772	-0.060232	-0.606871
H62	H	-3.364964	-0.183741	-0.620949
H63	H	-4.331190	-0.631514	-0.248700
C64	C	-3.376974	-0.125947	-0.455533
H65	H	-3.279237	-0.122415	-0.489592
H66	H	-3.342063	-0.064342	-0.416080
H67	H	-3.379249	-0.187850	-0.430165
H68	H	-3.687994	-0.129466	-0.748292
H69	H	-3.450476	-0.441534	-0.231918
C70	C	-4.154125	-0.446790	-0.247459
H71	H	-4.274679	-0.498545	-0.249390
H72	H	-4.134777	-0.394488	-0.201664
H73	H	-4.165765	-0.413630	-0.294329
H74	H	-4.088001	-0.146406	-0.483075
H75	H	-4.128927	-0.144697	-0.633018
H76	H	-4.361762	-0.147184	-0.860443
H77	H	-4.402697	-0.145496	-1.010400
