data_functionalizedCrystal
_audit_creation_method	'MofGen! by Chris Wilmer'
_symmetry_space_group_name_H-M	'P1'
_symmetry_Int_Tables_number	1
_symmetry_cell_setting	triclinic
loop_
_symmetry_equiv_pos_as_xyz
  x,y,z
_cell_length_a	11.026623
_cell_length_b	10.065875
_cell_length_c	14.971486
_cell_angle_alpha	81.200355
_cell_angle_beta	83.899584
_cell_angle_gamma	79.302201
loop_
_atom_site_label
_atom_site_type_symbol
_atom_site_fract_x
_atom_site_fract_y
_atom_site_fract_z
O1	O	-1.628448	0.113507	0.364356
O2	O	-1.275080	0.113507	0.321694
O3	O	-1.461234	0.113498	0.214344
O4	O	-1.442295	0.113517	0.471707
O5	O	-1.425737	-0.113489	0.234919
O6	O	-1.239584	-0.113480	0.342270
O7	O	-1.592951	-0.113480	0.384932
Zn8	Zn	-1.410632	-0.149519	0.366868
Zn9	Zn	-1.457400	0.149546	0.339759
O10	O	-1.406798	-0.113470	0.492282
C11	C	-1.212110	0.000014	0.324112
C12	C	-1.077362	0.000013	0.300650
N13	N	-1.378722	-0.353623	0.385370
C14	C	-1.003651	0.000019	0.365429
C15	C	-0.864382	0.000019	0.341182
C16	C	-1.446290	-0.421405	0.346189
C17	C	-1.421741	-0.578571	0.360437
C18	C	-0.655923	0.000017	0.382513
C19	C	-0.790672	0.000024	0.405971
C20	C	-1.442638	0.000005	0.191171
C21	C	-1.440100	0.000006	0.091467
N22	N	-1.489319	0.353650	0.321251
C23	C	-1.549461	0.000005	0.051765
C24	C	-1.547071	0.000018	-0.041919
C25	C	-1.435316	0.000023	-0.095899
C26	C	-1.325948	0.000028	-0.056191
C27	C	-1.328341	0.000025	0.037491
C28	C	-1.320967	0.000033	-0.251452
C29	C	-1.318573	0.000035	-0.345140
C30	C	-1.539696	0.000027	-0.330862
C31	C	-1.542090	0.000023	-0.237180
C32	C	-1.432720	0.000026	-0.197479
C33	C	-1.425394	0.000026	0.515455
C34	C	-1.427934	0.000034	0.615158
H35	H	-1.043649	0.000017	0.438840
H36	H	-1.345710	-0.636888	0.404528
Cl37	Cl	-0.852404	0.000014	0.519321
Cl38	Cl	-1.677191	0.000032	-0.380772
H39	H	-0.824394	0.000048	0.267764
H40	H	-1.037368	0.000043	0.227237
H41	H	-1.565342	-0.588033	0.277152
Cl42	Cl	-1.261340	-0.443658	0.453441
H43	H	-1.640463	-0.000008	0.095710
Cl44	Cl	-1.563392	-0.331370	0.277868
Cl45	Cl	-1.684559	0.000013	-0.091826
H46	H	-1.633088	0.000010	-0.193231
H47	H	-1.227569	0.000017	-0.389086
Cl48	Cl	-1.183471	0.000037	-0.201543
H49	H	-1.239288	0.000026	0.069814
H50	H	-1.234957	0.000041	-0.100149
