data_functionalizedCrystal
_audit_creation_method	'MofGen! by Chris Wilmer'
_symmetry_space_group_name_H-M	'P1'
_symmetry_Int_Tables_number	1
_symmetry_cell_setting	triclinic
loop_
_symmetry_equiv_pos_as_xyz
  x,y,z
_cell_length_a	16.776229
_cell_length_b	17.699104
_cell_length_c	17.699104
_cell_angle_alpha	96.708483
_cell_angle_beta	89.992410
_cell_angle_gamma	90.008863
loop_
_atom_site_label
_atom_site_type_symbol
_atom_site_fract_x
_atom_site_fract_y
_atom_site_fract_z
O1	O	-0.066321	-1.004076	0.095787
O2	O	0.267012	-0.670742	0.429120
O3	O	0.600345	-0.337409	0.762454
O4	O	-0.066316	-0.783700	0.108223
O5	O	0.267017	-0.450367	0.441556
O6	O	0.600350	-0.117034	0.774890
O7	O	-0.066312	-0.900106	-0.008183
O8	O	0.267021	-0.566773	0.325151
O9	O	0.600355	-0.233439	0.658484
O10	O	-0.066326	-0.887670	0.212193
O11	O	0.267008	-0.554337	0.545526
O12	O	0.600341	-0.221003	0.878859
O13	O	0.066265	-0.900091	-0.008190
O14	O	0.399598	-0.566757	0.325144
O15	O	0.732931	-0.233424	0.658477
O16	O	0.066260	-0.783685	0.108216
O17	O	0.399594	-0.450352	0.441549
O18	O	0.732927	-0.117018	0.774882
O19	O	0.066255	-1.004060	0.095780
O20	O	0.399588	-0.670727	0.429113
O21	O	0.732922	-0.337394	0.762447
Zn22	Zn	0.087307	-0.893870	0.101997
Zn23	Zn	0.420640	-0.560537	0.435330
Zn24	Zn	0.753974	-0.227204	0.768663
Zn25	Zn	-0.087368	-0.893891	0.102006
Zn26	Zn	0.245965	-0.560557	0.435339
Zn27	Zn	0.579298	-0.227224	0.768673
O28	O	0.066251	-0.887655	0.212186
O29	O	0.399584	-0.554321	0.545519
O30	O	0.732917	-0.220988	0.878852
C31	C	-0.000027	-0.755496	0.107771
C32	C	0.333306	-0.422163	0.441104
C33	C	0.666639	-0.088829	0.774438
C34	C	-0.000025	-0.671479	0.106426
C35	C	0.333308	-0.338145	0.439760
C36	C	0.666642	-0.004812	0.773093
N37	N	0.206518	-0.893862	0.101990
N38	N	0.539852	-0.560529	0.435323
N39	N	0.873185	-0.227195	0.768657
N40	N	-0.206579	-0.893905	0.102007
N41	N	0.126754	-0.560572	0.435340
N42	N	0.460087	-0.227238	0.768674
C43	C	-0.000023	-0.899650	-0.036383
C44	C	0.333310	-0.566317	0.296950
C45	C	0.666643	-0.232983	0.630284
C46	C	-0.000023	-0.898305	-0.120400
C47	C	0.333310	-0.564972	0.212933
C48	C	0.666644	-0.231638	0.546266
C49	C	0.248237	-0.945422	0.050467
C50	C	0.581571	-0.612089	0.383800
C51	C	0.914904	-0.278755	0.717133
C52	C	0.331690	-0.945426	0.050466
C53	C	0.665023	-0.612093	0.383799
C54	C	0.998356	-0.278759	0.717133
C55	C	0.373421	-0.893873	0.101993
C56	C	0.706754	-0.560540	0.435326
C57	C	1.040088	-0.227207	0.768659
C58	C	0.331696	-0.842308	0.153519
C59	C	0.665030	-0.508974	0.486852
C60	C	0.998363	-0.175641	0.820185
C61	C	0.248246	-0.842301	0.153515
C62	C	0.581579	-0.508967	0.486848
C63	C	0.914912	-0.175634	0.820182
C64	C	0.668243	-0.842335	0.153533
C65	C	1.001577	-0.509002	0.486867
C66	C	1.334910	-0.175668	0.820200
C67	C	0.751700	-0.842348	0.153535
C68	C	1.085033	-0.509015	0.486868
C69	C	1.418367	-0.175681	0.820201
C70	C	0.751687	-0.945461	0.050484
C71	C	1.085021	-0.612127	0.383818
C72	C	1.418354	-0.278794	0.717151
C73	C	0.668237	-0.945453	0.050481
C74	C	1.001570	-0.612120	0.383814
C75	C	1.334903	-0.278787	0.717147
C76	C	0.626519	-0.893886	0.102003
C77	C	0.959852	-0.560552	0.435337
C78	C	1.293186	-0.227219	0.768670
C79	C	0.536031	-0.893881	0.102003
C80	C	0.869364	-0.560547	0.435336
C81	C	1.202697	-0.227214	0.768669
C82	C	0.463908	-0.893881	0.101998
C83	C	0.797241	-0.560548	0.435331
C84	C	1.130575	-0.227215	0.768665
C85	C	-0.000029	-0.146612	0.167169
C86	C	0.333304	0.186721	0.500503
C87	C	0.666637	0.520054	0.833836
C88	C	-0.000033	-0.225556	0.168429
C89	C	0.333300	0.107777	0.501762
C90	C	0.666634	0.441111	0.835095
C91	C	-0.000029	-0.274168	0.100094
C92	C	0.333304	0.059165	0.433427
C93	C	0.666638	0.392498	0.766761
C94	C	-0.000030	-0.243833	0.030496
C95	C	0.333304	0.089500	0.363829
C96	C	0.666637	0.422833	0.697163
C97	C	-0.000032	-0.164891	0.029238
C98	C	0.333301	0.168442	0.362571
C99	C	0.666635	0.501776	0.695904
C100	C	-0.000022	-0.562200	0.035569
C101	C	0.333311	-0.228867	0.368902
C102	C	0.666644	0.104467	0.702236
C103	C	-0.000018	-0.641147	0.036833
C104	C	0.333316	-0.307814	0.370166
C105	C	0.666649	0.025520	0.703499
C106	C	-0.000023	-0.622865	0.174760
C107	C	0.333310	-0.289532	0.508093
C108	C	0.666643	0.043802	0.841427
C109	C	-0.000025	-0.543922	0.173502
C110	C	0.333308	-0.210589	0.506835
C111	C	0.666641	0.122744	0.840168
C112	C	-0.000030	-0.513594	0.103904
C113	C	0.333303	-0.180261	0.437237
C114	C	0.666636	0.153072	0.770571
C115	C	-0.000028	-0.427994	0.102540
C116	C	0.333305	-0.094661	0.435873
C117	C	0.666639	0.238672	0.769206
C118	C	-0.000026	-0.359767	0.101458
C119	C	0.333308	-0.026434	0.434791
C120	C	0.666641	0.306900	0.768124
C121	C	-0.000032	-0.032265	0.096232
C122	C	0.333302	0.301069	0.429565
C123	C	0.666635	0.634402	0.762898
C124	C	-0.000028	-0.116282	0.097577
C125	C	0.333306	0.217051	0.430910
C126	C	0.666639	0.550385	0.764243
C127	C	-0.000047	-0.959048	-0.645267
C128	C	0.333286	-0.625715	-0.311933
C129	C	0.666620	-0.292382	0.021400
C130	C	-0.000040	-0.960307	-0.566323
C131	C	0.333293	-0.626974	-0.232990
C132	C	0.666627	-0.293641	0.100344
C133	C	-0.000037	-0.891973	-0.517711
C134	C	0.333297	-0.558640	-0.184377
C135	C	0.666630	-0.225306	0.148956
C136	C	-0.000032	-0.822375	-0.548045
C137	C	0.333301	-0.489041	-0.214712
C138	C	0.666634	-0.155708	0.118621
C139	C	-0.000034	-0.821117	-0.626988
C140	C	0.333300	-0.487783	-0.293655
C141	C	0.666633	-0.154450	0.039679
C142	C	-0.000026	-0.827448	-0.229679
C143	C	0.333308	-0.494115	0.103654
C144	C	0.666641	-0.160781	0.436988
C145	C	-0.000027	-0.828712	-0.150732
C146	C	0.333307	-0.495378	0.182602
C147	C	0.666640	-0.162045	0.515935
C148	C	-0.000032	-0.966639	-0.169014
C149	C	0.333301	-0.633305	0.164319
C150	C	0.666635	-0.299972	0.497653
C151	C	-0.000034	-0.965381	-0.247957
C152	C	0.333300	-0.632047	0.085377
C153	C	0.666633	-0.298714	0.418710
C154	C	-0.000025	-0.895783	-0.278285
C155	C	0.333308	-0.562450	0.055049
C156	C	0.666642	-0.229116	0.388382
C157	C	-0.000031	-0.894418	-0.363885
C158	C	0.333302	-0.561085	-0.030551
C159	C	0.666636	-0.227752	0.302782
C160	C	-0.000036	-0.893337	-0.432112
C161	C	0.333297	-0.560003	-0.098779
C162	C	0.666630	-0.226670	0.234555
C163	C	-0.000039	-0.888111	0.240386
C164	C	0.333294	-0.554777	0.573719
C165	C	0.666627	-0.221444	0.907052
C166	C	-0.000045	-0.889456	0.324403
C167	C	0.333288	-0.556122	0.657737
C168	C	0.666622	-0.222789	0.991070
H169	H	0.214265	-0.987405	0.008511
H170	H	0.547598	-0.654072	0.341844
H171	H	0.880932	-0.320739	0.675177
F172	F	0.376111	-0.787437	0.208355
F173	F	0.709444	-0.454104	0.541688
F174	F	1.042778	-0.120770	0.875021
F175	F	-0.000058	-1.034378	-0.534047
F176	F	0.333275	-0.701044	-0.200714
F177	F	0.666609	-0.367711	0.132619
H178	H	0.365657	-0.987410	0.008511
H179	H	0.698990	-0.654076	0.341845
H180	H	1.032323	-0.320743	0.675178
H181	H	-0.000025	-0.504345	0.229147
H182	H	0.333309	-0.171012	0.562480
H183	H	0.666642	0.162321	0.895813
F184	F	0.796092	-1.000342	-0.004354
F185	F	1.129426	-0.667009	0.328979
F186	F	1.462759	-0.333676	0.662313
F187	F	-0.000043	-0.529933	-0.038503
F188	F	0.333291	-0.196599	0.294830
F189	F	0.666624	0.136734	0.628164
F190	F	-0.000038	-1.040712	-0.136731
F191	F	0.333296	-0.707378	0.196603
F192	F	0.666629	-0.374045	0.529936
H193	H	0.214279	-0.800314	0.195469
H194	H	0.547612	-0.466981	0.528803
H195	H	0.880945	-0.133648	0.862136
F196	F	-0.000028	-0.295573	-0.042231
F197	F	0.333305	0.037761	0.291102
F198	F	0.666638	0.371094	0.624436
H199	H	-0.000028	-0.770777	-0.254362
H200	H	0.333305	-0.437444	0.078971
H201	H	0.666638	-0.104111	0.412304
H202	H	0.634261	-0.987435	0.008525
H203	H	0.967595	-0.654102	0.341859
H204	H	1.300928	-0.320768	0.675192
F205	F	-0.000023	-0.655148	0.248833
F206	F	0.333310	-0.321815	0.582166
F207	F	0.666644	0.011518	0.915499
F208	F	-0.000015	-0.692884	-0.035902
F209	F	0.333319	-0.359550	0.297431
F210	F	0.666652	-0.026217	0.630765
H211	H	-0.000032	-0.140198	-0.027432
H212	H	0.333301	0.193135	0.305901
H213	H	0.666635	0.526469	0.639235
H214	H	-0.000057	-1.014695	-0.684842
H215	H	0.333277	-0.681361	-0.351509
H216	H	0.666610	-0.348028	-0.018176
F217	F	-0.000040	-1.038111	-0.299690
F218	F	0.333293	-0.704778	0.033644
F219	F	0.666626	-0.371445	0.366977
H220	H	-0.000025	-0.766736	-0.508459
H221	H	0.333308	-0.433402	-0.175125
H222	H	0.666642	-0.100069	0.158208
H223	H	-0.000022	-0.773062	-0.111152
H224	H	0.333311	-0.439729	0.222181
H225	H	0.666645	-0.106395	0.555514
H226	H	0.634284	-0.800348	0.195486
H227	H	0.967617	-0.467015	0.528820
H228	H	1.300950	-0.133682	0.862153
F229	F	-0.000028	-0.747046	-0.659267
F230	F	0.333306	-0.413713	-0.325933
F231	F	0.666639	-0.080380	0.007400
H232	H	0.785677	-0.800364	0.195495
H233	H	1.119010	-0.467031	0.528829
H234	H	1.452343	-0.133698	0.862162
H235	H	-0.000042	-0.250246	0.225098
H236	H	0.333292	0.083087	0.558431
H237	H	0.666625	0.416420	0.891765
F238	F	-0.000027	-0.094882	0.239902
F239	F	0.333306	0.238452	0.573235
F240	F	0.666639	0.571785	0.906568
