data_functionalizedCrystal
_audit_creation_method	'MofGen! by Chris Wilmer'
_symmetry_space_group_name_H-M	'P1'
_symmetry_Int_Tables_number	1
_symmetry_cell_setting	triclinic
loop_
_symmetry_equiv_pos_as_xyz
  x,y,z
_cell_length_a	16.992694
_cell_length_b	16.992695
_cell_length_c	15.455313
_cell_angle_alpha	92.847427
_cell_angle_beta	87.142206
_cell_angle_gamma	90.668223
loop_
_atom_site_label
_atom_site_type_symbol
_atom_site_fract_x
_atom_site_fract_y
_atom_site_fract_z
O1	O	1.054080	0.163694	-0.072023
O2	O	0.825681	0.161862	-0.072048
O3	O	0.938965	0.048579	-0.072029
O4	O	0.940797	0.276978	-0.072042
O5	O	0.932485	0.055028	0.072232
O6	O	0.819202	0.168312	0.072213
O7	O	1.047601	0.170144	0.072238
Cu8	Cu	0.932809	0.169817	0.085398
Cu9	Cu	0.940473	0.162189	-0.085207
O10	O	0.934317	0.283428	0.072219
C11	C	0.793081	0.162731	0.000079
C12	C	0.705597	0.155702	0.000070
C13	C	0.659607	0.223520	0.000066
C14	C	0.577405	0.216911	0.000079
C15	C	0.541197	0.142484	0.000088
C16	C	0.587193	0.074661	0.000094
C17	C	0.669393	0.081271	0.000088
C18	C	0.295881	0.115091	0.000113
C19	C	0.213676	0.108486	0.000116
C20	C	0.203893	0.250737	0.000103
C21	C	0.286095	0.257340	0.000091
C22	C	0.332084	0.189517	0.000102
N23	N	0.457174	0.135727	0.000098
N24	N	0.416105	0.196275	0.000098
C25	C	0.933369	0.022443	0.000102
C26	C	0.926341	-0.065041	0.000101
C27	C	0.994158	-0.111032	0.000109
C28	C	0.987550	-0.193233	0.000100
C29	C	0.913123	-0.229442	0.000089
C30	C	0.845300	-0.183445	0.000078
C31	C	0.851910	-0.101246	0.000081
C32	C	0.885729	-0.474757	0.000074
C33	C	0.879124	-0.556962	0.000074
C34	C	1.021375	-0.566744	0.000094
C35	C	1.027977	-0.484543	0.000102
C36	C	0.960155	-0.438554	0.000087
N37	N	0.906366	-0.313464	0.000082
N38	N	0.966913	-0.354533	0.000087
C39	C	1.080201	0.169275	0.000109
C40	C	1.167685	0.176304	0.000113
C41	C	0.939913	0.309563	0.000087
C42	C	0.946942	0.397047	0.000082
N43	N	0.927425	0.175181	0.205392
N44	N	0.945863	0.156819	-0.205202
C45	C	0.975571	0.127074	0.250795
C46	C	0.971507	0.131139	0.341602
C47	C	0.919301	0.183315	0.387005
C48	C	0.871149	0.231424	0.341596
C49	C	0.875210	0.227355	0.250791
C50	C	0.901772	0.200858	0.658584
C51	C	0.897717	0.204926	0.749395
C52	C	0.998074	0.104639	0.749395
C53	C	1.002133	0.100578	0.658588
C54	C	0.953979	0.148684	0.613187
N55	N	0.915147	0.187473	0.479825
N56	N	0.958129	0.144522	0.520369
H57	H	0.706838	0.026046	0.000090
O58	O	1.018251	0.084300	0.385605
C59	C	1.054562	-0.048411	0.413436
C60	C	1.001584	0.004544	0.363537
H61	H	1.041095	-0.112904	0.395625
H62	H	1.119061	-0.035017	0.395547
H63	H	1.042712	-0.036506	0.486132
H64	H	1.013365	-0.007331	0.290829
H65	H	0.937103	-0.008860	0.381497
H66	H	0.539963	0.272136	0.000075
O67	O	0.854970	0.247671	0.614623
C68	C	0.754971	0.347540	0.624215
C69	C	0.807944	0.294580	0.674112
H70	H	0.716925	0.385467	0.672290
H71	H	0.793279	0.387164	0.581712
H72	H	0.715452	0.309148	0.581693
H73	H	0.847472	0.332910	0.716681
H74	H	0.769590	0.254951	0.716561
H75	H	1.088584	-0.455068	0.000112
H76	H	0.818513	-0.586440	0.000079
H77	H	0.689081	0.284126	0.000058
H78	H	1.054764	-0.081557	0.000124
O79	O	0.828526	0.274203	0.206723
C80	C	0.792176	0.406917	0.178956
C81	C	0.845110	0.353955	0.228900
H82	H	0.805553	0.471407	0.196882
H83	H	0.804048	0.395113	0.106246
H84	H	0.727692	0.393429	0.196812
H85	H	0.909612	0.367412	0.211117
H86	H	0.833170	0.365768	0.301598
H87	H	1.018087	0.084591	0.213834
H88	H	0.796685	-0.063801	0.000073
O89	O	1.087270	-0.611378	0.000254
C90	C	1.203501	-0.641521	0.074969
C91	C	1.128889	-0.590936	0.074912
H92	H	1.237180	-0.625001	0.135314
H93	H	1.186040	-0.706501	0.075019
H94	H	1.242550	-0.630472	0.014571
H95	H	1.089807	-0.601917	0.135299
H96	H	1.146406	-0.525973	0.074817
H97	H	0.830503	-0.437322	0.000061
O98	O	0.773060	-0.218741	0.000105
C99	C	0.699835	-0.341037	0.000046
C100	C	0.781696	-0.301169	0.000032
H101	H	0.706790	-0.407687	-0.000032
H102	H	0.663333	-0.319822	0.060429
H103	H	0.668776	-0.325111	-0.060317
H104	H	0.812821	-0.317077	0.060354
H105	H	0.818140	-0.322385	-0.060391
H106	H	1.044644	0.058092	0.621622
H107	H	0.333316	0.059864	0.000122
H108	H	0.557705	0.014061	0.000114
H109	H	1.037278	0.065473	0.786369
H110	H	1.042774	-0.230675	0.000109
O111	O	0.321169	0.329682	-0.000036
C112	C	0.341306	0.449918	-0.074829
C113	C	0.301531	0.368014	-0.074773
H114	H	0.325457	0.480926	-0.135255
H115	H	0.320006	0.486445	-0.014501
H116	H	0.407953	0.442992	-0.074795
H117	H	0.234880	0.374866	-0.074837
H118	H	0.322895	0.331516	-0.135095
O119	O	0.820392	0.282001	0.385796
C120	C	0.709324	0.296547	0.488295
C121	C	0.766765	0.239181	0.438311
H122	H	0.665942	0.261949	0.530751
H123	H	0.743827	0.339917	0.530853
H124	H	0.675645	0.330249	0.440230
H125	H	0.800459	0.205425	0.486313
H126	H	0.732218	0.195863	0.395740
H127	H	0.855202	0.247417	0.786359
H128	H	0.184198	0.047876	0.000123
H129	H	0.166440	0.305954	0.000096
