data_functionalizedCrystal
_audit_creation_method	'MofGen! by Chris Wilmer'
_symmetry_space_group_name_H-M	'P1'
_symmetry_Int_Tables_number	1
_symmetry_cell_setting	triclinic
loop_
_symmetry_equiv_pos_as_xyz
  x,y,z
_cell_length_a	16.625547
_cell_length_b	16.625546
_cell_length_c	18.215399
_cell_angle_alpha	90.029595
_cell_angle_beta	90.023440
_cell_angle_gamma	90.022405
loop_
_atom_site_label
_atom_site_type_symbol
_atom_site_fract_x
_atom_site_fract_y
_atom_site_fract_z
Zn1	Zn	1.232669	-0.321008	0.416190
Zn2	Zn	1.566003	0.012325	0.749523
Zn3	Zn	1.899336	0.345659	1.082857
Zn4	Zn	1.232576	-0.455849	0.293121
Zn5	Zn	1.565909	-0.122516	0.626454
Zn6	Zn	1.899243	0.210818	0.959788
Zn7	Zn	1.097835	-0.321034	0.293128
Zn8	Zn	1.431168	0.012299	0.626462
Zn9	Zn	1.764501	0.345633	0.959795
Zn10	Zn	1.097802	-0.455802	0.416137
Zn11	Zn	1.431135	-0.122469	0.749470
Zn12	Zn	1.764468	0.210865	1.082804
O13	O	1.165220	-0.388423	0.354644
O14	O	1.498554	-0.055090	0.687977
O15	O	1.831887	0.278243	1.021311
O16	O	1.345489	-0.338904	0.399884
O17	O	1.678823	-0.005570	0.733217
O18	O	2.012156	0.327763	1.066550
O19	O	1.214677	-0.437996	0.190138
O20	O	1.548010	-0.104663	0.523471
O21	O	1.881343	0.228670	0.856804
O22	O	1.115774	-0.208198	0.309478
O23	O	1.449107	0.125135	0.642811
O24	O	1.782440	0.458469	0.976145
O25	O	1.345421	-0.437971	0.309465
O26	O	1.678754	-0.104638	0.642799
O27	O	2.012087	0.228696	0.976132
O28	O	1.214836	-0.208179	0.399891
O29	O	1.548170	0.125154	0.733224
O30	O	1.881503	0.458488	1.066557
O31	O	1.115683	-0.338948	0.190143
O32	O	1.449016	-0.005615	0.523477
O33	O	1.782350	0.327718	0.856810
O34	O	0.984998	-0.338903	0.309427
O35	O	1.318331	-0.005569	0.642760
O36	O	1.651664	0.327764	0.976094
O37	O	1.115718	-0.437891	0.519128
O38	O	1.449051	-0.104557	0.852462
O39	O	1.782384	0.228776	1.185795
O40	O	0.984974	-0.437916	0.399801
O41	O	1.318307	-0.104583	0.733134
O42	O	1.651640	0.228751	1.066467
O43	O	1.214804	-0.338858	0.519167
O44	O	1.548138	-0.005525	0.852501
O45	O	1.881471	0.327809	1.185834
O46	O	1.214645	-0.568675	0.309414
O47	O	1.547978	-0.235342	0.642747
O48	O	1.881312	0.097991	0.976081
O49	O	1.115627	-0.568641	0.399794
O50	O	1.448960	-0.235307	0.733127
O51	O	1.782294	0.098026	1.066460
C52	C	0.955730	-0.388408	0.354609
C53	C	1.289063	-0.055074	0.687943
C54	C	1.622396	0.278259	1.021276
C55	C	0.866108	-0.388420	0.354612
C56	C	1.199442	-0.055087	0.687945
C57	C	1.532775	0.278246	1.021279
C58	C	0.793326	-0.388422	0.354621
C59	C	1.126659	-0.055089	0.687954
C60	C	1.459993	0.278245	1.021288
C61	C	0.702018	-0.388426	0.354639
C62	C	1.035351	-0.055093	0.687973
C63	C	1.368684	0.278241	1.021306
C64	C	0.629241	-0.388434	0.354658
C65	C	0.962574	-0.055100	0.687992
C66	C	1.295908	0.278233	1.021325
C67	C	0.537927	-0.388439	0.354676
C68	C	0.871260	-0.055106	0.688009
C69	C	1.204594	0.278228	1.021342
C70	C	1.165144	-0.597914	0.354613
C71	C	1.498477	-0.264581	0.687947
C72	C	1.831811	0.068753	1.021280
C73	C	1.165185	-0.687535	0.354625
C74	C	1.498519	-0.354202	0.687958
C75	C	1.831852	-0.020869	1.021291
C76	C	1.165326	-1.015711	0.354701
C77	C	1.498659	-0.682377	0.688035
C78	C	1.831993	-0.349044	1.021368
C79	C	1.165284	-0.924402	0.354682
C80	C	1.498618	-0.591069	0.688015
C81	C	1.831951	-0.257736	1.021349
C82	C	1.165255	-0.851626	0.354663
C83	C	1.498588	-0.518293	0.687996
C84	C	1.831922	-0.184959	1.021329
C85	C	1.165215	-0.760312	0.354644
C86	C	1.498548	-0.426978	0.687978
C87	C	1.831881	-0.093645	1.021311
C88	C	1.375529	-0.388440	0.354679
C89	C	1.708863	-0.055106	0.688013
C90	C	2.042196	0.278227	1.021346
C91	C	1.465150	-0.388447	0.354695
C92	C	1.798484	-0.055113	0.688028
C93	C	2.131817	0.278220	1.021361
C94	C	1.165268	-0.388366	0.546597
C95	C	1.498601	-0.055033	0.879930
C96	C	1.831934	0.278301	1.213264
C97	C	1.165288	-0.388342	0.628396
C98	C	1.498621	-0.055008	0.961729
C99	C	1.831955	0.278325	1.295063
C100	C	1.165319	-0.178114	0.354691
C101	C	1.498652	0.155219	0.688025
C102	C	1.831986	0.488552	1.021358
C103	C	1.165361	-0.088493	0.354711
C104	C	1.498694	0.244840	0.688045
C105	C	1.832028	0.578173	1.021378
C106	C	1.165220	-0.388422	0.163438
C107	C	1.498553	-0.055089	0.496771
C108	C	1.831886	0.278245	0.830105
C109	C	1.165356	-0.388219	0.081639
C110	C	1.498689	-0.054886	0.414973
C111	C	1.832022	0.278447	0.748306
C112	C	1.216912	-0.336706	0.893475
C113	C	1.550246	-0.003373	1.226809
C114	C	1.883579	0.329961	1.560142
C115	C	1.216903	-0.336728	0.816616
C116	C	1.550236	-0.003394	1.149950
C117	C	1.883569	0.329939	1.483283
C118	C	1.113729	-0.439861	0.816566
C119	C	1.447063	-0.106527	1.149899
C120	C	1.780396	0.226806	1.483232
C121	C	1.113743	-0.439842	0.893423
C122	C	1.447077	-0.106509	1.226756
C123	C	1.780410	0.226824	1.560090
C124	C	1.165334	-0.388260	0.931876
C125	C	1.498667	-0.054927	1.265209
C126	C	1.832000	0.278406	1.598543
C127	C	1.165310	-0.388301	0.778160
C128	C	1.498643	-0.054967	1.111493
C129	C	1.831977	0.278366	1.444826
C130	C	1.165299	-0.388325	0.694826
C131	C	1.498633	-0.054991	1.028159
C132	C	1.831966	0.278342	1.361493
C133	C	1.165346	-0.388237	1.015215
C134	C	1.498679	-0.054904	1.348548
C135	C	1.832012	0.278429	1.681882
H136	H	1.258920	-0.294704	0.924781
H137	H	1.592253	0.038629	1.258114
H138	H	1.925587	0.371963	1.591448
H139	H	1.258904	-0.294748	0.785354
H140	H	1.592237	0.038586	1.118687
H141	H	1.925571	0.371919	1.452021
H142	H	1.071741	-0.481829	0.924690
H143	H	1.405075	-0.148495	1.258023
H144	H	1.738408	0.184838	1.591356
H145	H	1.071725	-0.481856	0.785248
H146	H	1.405058	-0.148523	1.118581
H147	H	1.738392	0.184811	1.451915
