data_functionalizedCrystal
_audit_creation_method	'MofGen! by Chris Wilmer'
_symmetry_space_group_name_H-M	'P1'
_symmetry_Int_Tables_number	1
_symmetry_cell_setting	triclinic
loop_
_symmetry_equiv_pos_as_xyz
  x,y,z
_cell_length_a	15.297475
_cell_length_b	19.121063
_cell_length_c	15.296720
_cell_angle_alpha	101.616247
_cell_angle_beta	91.617114
_cell_angle_gamma	83.156694
loop_
_atom_site_label
_atom_site_type_symbol
_atom_site_fract_x
_atom_site_fract_y
_atom_site_fract_z
Zn1	Zn	1.219315	-0.545242	-0.750522
Zn2	Zn	1.719315	-0.045242	-0.250522
Zn3	Zn	1.238271	-0.646121	-0.608463
Zn4	Zn	1.738271	-0.146121	-0.108463
Zn5	Zn	1.100653	-0.505885	-0.577035
Zn6	Zn	1.600653	-0.005885	-0.077035
Zn7	Zn	1.066927	-0.639234	-0.729290
Zn8	Zn	1.566927	-0.139234	-0.229290
O9	O	1.156291	-0.584120	-0.666328
O10	O	1.656291	-0.084120	-0.166328
O11	O	1.343197	-0.577977	-0.753716
O12	O	1.843197	-0.077977	-0.253716
O13	O	1.242063	-0.613929	-0.481124
O14	O	1.742063	-0.113929	0.018876
O15	O	1.122575	-0.413080	-0.595782
O16	O	1.622575	0.086920	-0.095782
O17	O	1.357124	-0.652092	-0.649346
O18	O	1.857124	-0.152092	-0.149346
O19	O	1.209755	-0.441996	-0.723241
O20	O	1.709755	0.058004	-0.223241
O21	O	1.140956	-0.510898	-0.458034
O22	O	1.640956	-0.010898	0.041966
O23	O	0.974811	-0.504221	-0.575194
O24	O	1.474811	-0.004221	-0.075194
O25	O	1.065095	-0.640355	-0.855277
O26	O	1.565095	-0.140355	-0.355277
O27	O	0.950033	-0.602192	-0.687055
O28	O	1.450033	-0.102192	-0.187055
O29	O	1.177053	-0.571299	-0.870876
O30	O	1.677053	-0.071299	-0.370876
O31	O	1.209361	-0.743232	-0.628758
O32	O	1.709361	-0.243232	-0.128758
O33	O	1.083475	-0.738173	-0.717529
O34	O	1.583475	-0.238173	-0.217529
C35	C	0.930952	-0.548189	-0.625411
C36	C	1.430952	-0.048189	-0.125411
C37	C	0.834547	-0.532837	-0.607928
C38	C	1.334547	-0.032837	-0.107928
C39	C	1.144835	-0.766125	-0.674274
C40	C	1.644835	-0.266125	-0.174274
C41	C	1.140009	-0.844004	-0.677717
C42	C	1.640009	-0.344004	-0.177717
C43	C	0.511335	-0.693852	-0.791283
C44	C	1.011335	-0.193852	-0.291283
C45	C	0.601913	-0.708281	-0.807706
C46	C	1.101913	-0.208281	-0.307706
C47	C	0.660075	-0.664421	-0.757763
C48	C	1.160075	-0.164421	-0.257763
C49	C	0.627652	-0.606129	-0.691393
C50	C	1.127652	-0.106129	-0.191393
C51	C	0.537065	-0.591702	-0.674963
C52	C	1.037065	-0.091702	-0.174963
C53	C	0.685806	-0.562271	-0.641444
C54	C	1.185806	-0.062271	-0.141444
C55	C	0.653382	-0.503980	-0.575074
C56	C	1.153382	-0.003980	-0.075074
C57	C	0.562804	-0.489555	-0.558647
C58	C	1.062804	0.010445	-0.058647
C59	C	0.504642	-0.533415	-0.608590
C60	C	1.004642	-0.033415	-0.108590
C61	C	0.776392	-0.576699	-0.657874
C62	C	1.276392	-0.076699	-0.157874
C63	C	0.802123	-0.474549	-0.541555
C64	C	1.302123	0.025451	-0.041555
C65	C	0.711545	-0.460120	-0.525131
C66	C	1.211545	0.039880	-0.025131
C67	C	1.203317	-0.883214	-0.633171
C68	C	1.703317	-0.383214	-0.133171
C69	C	1.198782	-0.956391	-0.636415
C70	C	1.698782	-0.456391	-0.136415
C71	C	1.130934	-0.990354	-0.684201
C72	C	1.630934	-0.490354	-0.184201
C73	C	1.067622	-0.951139	-0.728752
C74	C	1.567622	-0.451139	-0.228752
C75	C	1.072161	-0.877965	-0.725513
C76	C	1.572161	-0.377965	-0.225513
C77	C	1.113949	-1.211161	-0.696297
C78	C	1.613949	-0.711161	-0.196297
C79	C	1.109413	-1.284340	-0.699531
C80	C	1.609413	-0.784340	-0.199531
C81	C	1.240575	-1.289587	-0.607195
C82	C	1.740575	-0.789587	-0.107195
C83	C	1.245105	-1.216411	-0.603955
C84	C	1.745105	-0.716411	-0.103955
C85	C	1.181796	-1.177203	-0.648510
C86	C	1.681796	-0.677203	-0.148510
C87	C	1.126295	-1.065151	-0.687516
C88	C	1.626295	-0.565151	-0.187516
C89	C	1.186440	-1.102408	-0.645200
C90	C	1.686440	-0.602408	-0.145200
C91	C	1.382510	-0.620193	-0.707405
C92	C	1.882510	-0.120193	-0.207405
C93	C	1.478911	-0.635564	-0.724910
C94	C	1.978911	-0.135564	-0.224910
C95	C	1.115197	-0.609449	-0.895906
C96	C	1.615197	-0.109449	-0.395906
C97	C	1.097685	-0.620243	-0.993739
C98	C	1.597685	-0.120243	-0.493739
C99	C	1.167812	-0.401410	-0.658374
C100	C	1.667812	0.098590	-0.158374
C101	C	1.172722	-0.323550	-0.654985
C102	C	1.672722	0.176450	-0.154985
C103	C	1.281492	-0.506860	-1.302001
C104	C	1.781492	-0.006860	-0.802001
C105	C	1.297950	-0.496721	-1.210084
C106	C	1.797950	0.003279	-0.710084
C107	C	1.247885	-0.527600	-1.155993
C108	C	1.747885	-0.027600	-0.655993
C109	C	1.181359	-0.568621	-1.193829
C110	C	1.681359	-0.068621	-0.693829
C111	C	1.164903	-0.578765	-1.285757
C112	C	1.664903	-0.078765	-0.785757
C113	C	1.131297	-0.599506	-1.139748
C114	C	1.631297	-0.099506	-0.639748
C115	C	1.064771	-0.640526	-1.177584
C116	C	1.564771	-0.140526	-0.677584
C117	C	1.048318	-0.650669	-1.269503
C118	C	1.548318	-0.150669	-0.769503
C119	C	1.098383	-0.619789	-1.323594
C120	C	1.598383	-0.119789	-0.823594
C121	C	1.147753	-0.589361	-1.047821
C122	C	1.647753	-0.089361	-0.547821
C123	C	1.031165	-0.661267	-1.031576
C124	C	1.531165	-0.161267	-0.531576
C125	C	1.014706	-0.671406	-1.123494
C126	C	1.514706	-0.171406	-0.623494
C127	C	1.197279	-0.558848	-0.437649
C128	C	1.697279	-0.058848	0.062351
C129	C	1.214971	-0.547884	-0.339838
C130	C	1.714971	-0.047884	0.160162
H131	H	0.802783	-0.624160	-0.711914
H132	H	1.302783	-0.124160	-0.211914
H133	H	0.990399	-0.686413	-0.987536
H134	H	1.490399	-0.186413	-0.487536
C135	C	0.447354	-0.742051	-0.846270
C136	C	0.947354	-0.242051	-0.346270
H137	H	0.479632	-0.778823	-0.888167
H138	H	0.979632	-0.278823	-0.388167
H139	H	0.406866	-0.713870	-0.877081
H140	H	0.906866	-0.213870	-0.377081
H141	H	0.416097	-0.763200	-0.807501
H142	H	0.916097	-0.263200	-0.307501
C143	C	0.941535	-0.716530	-1.165117
C144	C	1.441535	-0.216530	-0.665117
H145	H	0.914068	-0.733466	-1.119742
H146	H	1.414068	-0.233466	-0.619742
H147	H	0.966367	-0.756298	-1.208330
H148	H	1.466367	-0.256298	-0.708330
H149	H	0.899016	-0.687657	-1.192945
H150	H	1.399016	-0.187657	-0.692945
H151	H	1.012381	-0.978799	-0.767665
H152	H	1.512381	-0.478799	-0.267665
C153	C	1.310215	-1.332715	-0.558193
C154	C	1.810215	-0.832715	-0.058193
H155	H	1.351269	-1.302006	-0.529265
H156	H	1.851269	-0.802006	-0.029265
H157	H	1.340176	-1.370961	-0.600011
H158	H	1.840176	-0.870961	-0.100011
H159	H	1.282161	-1.351774	-0.515055
H160	H	1.782161	-0.851774	-0.015055
H161	H	0.994154	-0.684077	-1.300308
H162	H	1.494154	-0.184077	-0.800308
C163	C	1.277945	-0.845856	-0.580600
C164	C	1.777945	-0.345856	-0.080600
H165	H	1.271578	-0.796658	-0.585040
H166	H	1.771578	-0.296658	-0.085040
H167	H	1.333155	-0.868516	-0.604632
H168	H	1.833155	-0.368516	-0.104632
H169	H	1.275130	-0.849337	-0.519684
H170	H	1.775130	-0.349337	-0.019684
C171	C	1.265982	-0.516440	-1.054884
C172	C	1.765982	-0.016440	-0.554884
H173	H	1.312766	-0.487582	-1.040096
H174	H	1.812766	0.012418	-0.540096
H175	H	1.281846	-0.561738	-1.038771
H176	H	1.781846	-0.061738	-0.538771
H177	H	1.214496	-0.493097	-1.023405
H178	H	1.714496	0.006903	-0.523405
C179	C	1.051662	-1.102510	-0.740076
C180	C	1.551662	-0.602510	-0.240076
H181	H	1.014605	-1.068681	-0.766148
H182	H	1.514605	-0.568681	-0.266148
H183	H	1.018163	-1.121359	-0.700783
H184	H	1.518163	-0.621359	-0.200783
H185	H	1.076180	-1.140535	-0.785739
H186	H	1.576180	-0.640535	-0.285739
H187	H	1.352118	-0.463323	-1.179285
H188	H	1.852118	0.036677	-0.679285
C189	C	0.405006	-0.517554	-0.590512
C190	C	0.905006	-0.017554	-0.090512
H191	H	0.375015	-0.552028	-0.629758
H192	H	0.875015	-0.052028	-0.129758
H193	H	0.384603	-0.470793	-0.600128
H194	H	0.884603	0.029207	-0.100128
H195	H	0.393931	-0.520073	-0.530491
H196	H	0.893931	-0.020073	-0.030491
C197	C	1.319743	-1.179057	-0.551397
C198	C	1.819743	-0.679057	-0.051397
H199	H	1.356804	-1.212892	-0.525338
H200	H	1.856804	-0.712892	-0.025338
H201	H	1.295237	-1.141029	-0.505739
H202	H	1.795237	-0.641029	-0.005739
H203	H	1.353247	-1.160216	-0.590699
H204	H	1.853247	-0.660216	-0.090699
H205	H	0.849480	-0.438836	-0.500886
H206	H	1.349480	0.061164	-0.000886
H207	H	1.322252	-0.481727	-1.346050
H208	H	1.822252	0.018273	-0.846050
H209	H	1.250334	-0.988313	-0.600140
H210	H	1.750334	-0.488313	-0.100140
H211	H	0.733828	-0.676173	-0.771140
H212	H	1.233828	-0.176173	-0.271140
C213	C	1.080280	-0.630942	-1.424705
C214	C	1.580280	-0.130942	-0.924705
H215	H	1.119627	-0.606676	-1.451496
H216	H	1.619627	-0.106676	-0.951496
H217	H	1.021353	-0.612199	-1.434808
H218	H	1.521353	-0.112199	-0.934808
H219	H	1.088712	-0.680835	-1.450193
H220	H	1.588712	-0.180835	-0.950193
C221	C	0.675876	-0.396005	-0.452125
C222	C	1.175876	0.103995	0.047875
H223	H	0.723483	-0.371943	-0.424735
H224	H	1.223483	0.128057	0.075265
H225	H	0.645724	-0.412886	-0.408478
H226	H	1.145724	0.087114	0.091522
H227	H	0.636425	-0.363619	-0.478130
H228	H	1.136425	0.136381	0.021870
C229	C	1.034782	-1.321700	-0.752106
C230	C	1.534782	-0.821700	-0.252106
H231	H	0.997733	-1.287872	-0.778186
H232	H	1.497733	-0.787872	-0.278186
H233	H	1.001276	-1.340545	-0.712818
H234	H	1.501276	-0.840545	-0.212818
H235	H	1.059305	-1.359729	-0.797764
H236	H	1.559305	-0.859729	-0.297764
C237	C	0.637573	-0.772392	-0.880712
C238	C	1.137573	-0.272392	-0.380712
H239	H	0.589962	-0.796443	-0.908109
H240	H	1.089962	-0.296443	-0.408109
H241	H	0.677027	-0.804778	-0.854720
H242	H	1.177027	-0.304778	-0.354720
H243	H	0.667720	-0.755503	-0.924362
H244	H	1.167720	-0.255503	-0.424362
C245	C	0.527134	-0.425432	-0.485652
C246	C	1.027134	0.074568	0.014348
H247	H	0.464858	-0.423123	-0.483019
H248	H	0.964858	0.076877	0.016981
H249	H	0.542617	-0.382182	-0.499281
H250	H	1.042617	0.117818	0.000719
H251	H	0.551913	-0.431438	-0.429617
H252	H	1.051913	0.068562	0.070383
H253	H	1.062399	-1.179243	-0.732574
H254	H	1.562399	-0.679243	-0.232574
H255	H	1.241685	-1.074754	-0.606296
H256	H	1.741685	-0.574754	-0.106296
C257	C	1.002524	-0.834830	-0.774511
C258	C	1.502524	-0.334830	-0.274511
H259	H	1.014949	-0.786389	-0.765746
H260	H	1.514949	-0.286389	-0.265746
H261	H	0.945826	-0.836150	-0.751540
H262	H	1.445826	-0.336150	-0.251540
H263	H	1.003848	-0.855338	-0.836491
H264	H	1.503848	-0.355338	-0.336491
H265	H	1.201919	-0.555961	-1.017024
H266	H	1.701919	-0.055961	-0.517024
