data_functionalizedCrystal
_audit_creation_method	'MofGen! by Chris Wilmer'
_symmetry_space_group_name_H-M	'P1'
_symmetry_Int_Tables_number	1
_symmetry_cell_setting	triclinic
loop_
_symmetry_equiv_pos_as_xyz
  x,y,z
_cell_length_a	16.992694
_cell_length_b	17.038272
_cell_length_c	16.053802
_cell_angle_alpha	92.751609
_cell_angle_beta	87.249047
_cell_angle_gamma	90.889890
loop_
_atom_site_label
_atom_site_type_symbol
_atom_site_fract_x
_atom_site_fract_y
_atom_site_fract_z
O1	O	1.054593	0.163385	-0.069325
O2	O	1.554593	0.663385	0.430675
O3	O	0.826187	0.161558	-0.069350
O4	O	1.326187	0.661558	0.430650
O5	O	0.939032	0.048571	-0.069331
O6	O	1.439032	0.548571	0.430669
O7	O	0.941748	0.276372	-0.069344
O8	O	1.441748	0.776372	0.430656
O9	O	0.932819	0.054763	0.069527
O10	O	1.432819	0.554763	0.569527
O11	O	0.819974	0.167750	0.069508
O12	O	1.319974	0.667750	0.569508
O13	O	1.048380	0.169577	0.069533
O14	O	1.548380	0.669577	0.569533
Zn15	Zn	0.933190	0.169646	0.091567
Zn16	Zn	1.433190	0.669646	0.591567
Zn17	Zn	0.941376	0.161489	-0.091384
Zn18	Zn	1.441376	0.661489	0.408616
O19	O	0.935535	0.282564	0.069514
O20	O	1.435535	0.782564	0.569514
C21	C	0.793711	0.162304	0.000076
C22	C	1.293711	0.662304	0.500076
C23	C	0.706200	0.155293	0.000067
C24	C	1.206200	0.655293	0.500067
C25	C	0.660472	0.222933	0.000064
C26	C	1.160472	0.722933	0.500064
C27	C	0.578245	0.216342	0.000076
C28	C	1.078245	0.716342	0.500076
C29	C	0.541748	0.142110	0.000085
C30	C	1.041748	0.642110	0.500085
C31	C	0.587482	0.074465	0.000091
C32	C	1.087482	0.574465	0.500091
C33	C	0.669707	0.081057	0.000085
C34	C	1.169707	0.581057	0.500085
C35	C	0.296327	0.114789	0.000109
C36	C	0.796327	0.614789	0.500109
C37	C	0.214096	0.108201	0.000112
C38	C	0.714096	0.608201	0.500112
C39	C	0.204864	0.250079	0.000099
C40	C	0.704864	0.750079	0.500099
C41	C	0.287091	0.256665	0.000088
C42	C	0.787091	0.756665	0.500088
C43	C	0.332818	0.189020	0.000098
C44	C	0.832818	0.689020	0.500098
N45	N	0.457699	0.135371	0.000094
N46	N	0.957699	0.635371	0.500094
N47	N	0.416865	0.195760	0.000095
N48	N	0.916865	0.695760	0.500095
C49	C	0.933456	0.022384	0.000098
C50	C	1.433456	0.522384	0.500098
C51	C	0.926089	-0.064871	0.000097
C52	C	1.426089	0.435129	0.500097
C53	C	0.993729	-0.110741	0.000105
C54	C	1.493729	0.389259	0.500105
C55	C	0.986802	-0.192727	0.000096
C56	C	1.486802	0.307273	0.500096
C57	C	0.912235	-0.228840	0.000085
C58	C	1.412235	0.271160	0.500085
C59	C	0.844590	-0.182964	0.000075
C60	C	1.344590	0.317036	0.500075
C61	C	0.851518	-0.100981	0.000077
C62	C	1.351518	0.399019	0.500077
C63	C	0.887761	-0.476135	0.000071
C64	C	1.387761	0.023865	0.500071
C65	C	0.880838	-0.558124	0.000071
C66	C	1.380838	-0.058124	0.500071
C67	C	1.023051	-0.567881	0.000091
C68	C	1.523051	-0.067881	0.500091
C69	C	1.029972	-0.485895	0.000099
C70	C	1.529972	0.014105	0.500099
C71	C	0.962328	-0.440026	0.000084
C72	C	1.462328	0.059974	0.500084
C73	C	0.905153	-0.312643	0.000079
C74	C	1.405153	0.187357	0.500079
C75	C	0.969410	-0.356226	0.000084
C76	C	1.469410	0.143774	0.500084
C77	C	1.080856	0.168831	0.000105
C78	C	1.580856	0.668831	0.500105
C79	C	1.168367	0.175841	0.000109
C80	C	1.668367	0.675841	0.500109
C81	C	0.941111	0.308751	0.000084
C82	C	1.441111	0.808751	0.500084
C83	C	0.948478	0.396006	0.000079
C84	C	1.448478	0.896006	0.500079
N85	N	0.927609	0.175214	0.216427
N86	N	1.427609	0.675214	0.716427
N87	N	0.946963	0.155915	-0.216243
N88	N	1.446963	0.655915	0.283757
C89	C	0.975645	0.127157	0.260129
C90	C	1.475645	0.627157	0.760129
C91	C	0.971749	0.131060	0.347535
C92	C	1.471749	0.631060	0.847535
C93	C	0.919820	0.183023	0.391237
C94	C	1.419820	0.683023	0.891237
C95	C	0.871779	0.231082	0.347529
C96	C	1.371779	0.731082	0.847529
C97	C	0.875672	0.227175	0.260125
C98	C	1.375672	0.727175	0.760125
C99	C	0.902815	0.200067	0.652644
C100	C	1.402815	0.700067	1.152644
C101	C	0.898928	0.203972	0.740055
C102	C	1.398928	0.703972	1.240055
C103	C	0.998897	0.103948	0.740054
C104	C	1.498897	0.603948	1.240054
C105	C	1.002788	0.100050	0.652648
C106	C	1.502788	0.600050	1.152648
C107	C	0.954744	0.148105	0.608948
C108	C	1.454744	0.648105	1.108948
N109	N	0.915838	0.187015	0.480580
N110	N	1.415838	0.687015	0.980580
N111	N	0.958723	0.144109	0.519606
N112	N	1.458723	0.644109	1.019606
H113	H	0.557760	0.014024	0.000110
H114	H	1.057760	0.514024	0.500110
C115	C	1.075753	-0.071023	0.000117
C116	C	1.575753	0.428977	0.500117
H117	H	1.115044	-0.110087	0.000113
H118	H	1.615044	0.389913	0.500113
H119	H	1.079248	-0.037088	0.048540
H120	H	1.579248	0.462912	0.548540
H121	H	1.083578	-0.041402	-0.048311
H122	H	1.583578	0.458598	0.451689
H123	H	0.844440	-0.342056	0.000072
H124	H	1.344440	0.157944	0.500072
H125	H	0.706939	0.025977	0.000087
H126	H	1.206939	0.525977	0.500087
C127	C	0.527944	0.290744	0.000064
C128	C	1.027944	0.790744	0.500064
H129	H	0.473746	0.276189	0.000077
H130	H	0.973746	0.776189	0.500077
H131	H	0.541681	0.318806	-0.048365
H132	H	1.041681	0.818806	0.451635
H133	H	0.537363	0.323135	0.048486
H134	H	1.037363	0.823135	0.548486
H135	H	1.041882	-0.230071	0.000105
H136	H	1.541882	0.269929	0.500105
C137	C	0.327231	0.338320	0.000090
C138	C	0.827231	0.838320	0.500090
H139	H	0.288219	0.377662	0.000099
H140	H	0.788219	0.877662	0.500099
H141	H	0.361277	0.341686	-0.048332
H142	H	0.861277	0.841686	0.451668
H143	H	0.356952	0.345994	0.048519
H144	H	0.856952	0.845994	0.548519
C145	C	0.822836	0.280040	0.212053
C146	C	1.322836	0.780040	0.712053
H147	H	0.791357	0.311553	0.250597
H148	H	1.291357	0.811553	0.750597
H149	H	0.789696	0.248207	0.177965
H150	H	1.289696	0.748207	0.677965
H151	H	0.854863	0.312988	0.177948
H152	H	1.354863	0.812988	0.677948
H153	H	0.863697	0.239197	0.617070
H154	H	1.363697	0.739197	1.117070
C155	C	0.154563	0.324482	0.000099
C156	C	0.654563	0.824482	0.500099
H157	H	0.100365	0.309928	0.000111
H158	H	0.600365	0.809928	0.500111
H159	H	0.168299	0.352552	-0.048325
H160	H	0.668299	0.852552	0.451675
H161	H	0.163983	0.356864	0.048527
H162	H	0.663983	0.856864	0.548527
C163	C	0.173951	0.026543	0.000124
C164	C	0.673951	0.526543	0.500124
H165	H	0.212959	-0.012800	0.000136
H166	H	0.712959	0.487200	0.500136
H167	H	0.144228	0.018863	-0.048298
H168	H	0.644228	0.518863	0.451702
H169	H	0.139905	0.023188	0.048554
H170	H	0.639905	0.523188	0.548554
H171	H	1.090692	-0.456497	0.000108
H172	H	1.590692	0.043503	0.500108
C173	C	0.841759	0.261090	0.788126
C174	C	1.341759	0.761090	1.288126
H175	H	0.813685	0.289133	0.749583
H176	H	1.313685	0.789133	1.249583
H177	H	0.870703	0.297099	0.822235
H178	H	1.370703	0.797099	1.322235
H179	H	0.805599	0.232255	0.822211
H180	H	1.305599	0.732255	1.322211
H181	H	0.829494	0.273389	0.383117
H182	H	1.329494	0.773389	0.883117
C183	C	0.346620	0.040384	0.000108
C184	C	0.846620	0.540384	0.500108
H185	H	0.400818	0.054936	0.000111
H186	H	0.900818	0.554936	0.500111
H187	H	0.337199	0.008000	-0.048314
H188	H	0.837199	0.508000	0.451686
H189	H	0.332881	0.012316	0.048538
H190	H	0.832881	0.512316	0.548538
C191	C	0.700611	0.304589	0.000053
C192	C	1.200611	0.804589	0.500053
H193	H	0.661597	0.343929	0.000061
H194	H	1.161597	0.843929	0.500061
H195	H	0.734654	0.307952	-0.048371
H196	H	1.234654	0.807952	0.451629
H197	H	0.730334	0.312269	0.048480
H198	H	1.230334	0.812269	0.548480
H199	H	1.017934	0.084847	0.224552
H200	H	1.517934	0.584847	0.724552
H201	H	1.078123	-0.605236	0.000102
H202	H	1.578123	-0.105236	0.500102
H203	H	0.820113	-0.587524	0.000076
H204	H	1.320113	-0.087524	0.500076
C205	C	0.813354	-0.425689	0.000069
C206	C	1.313354	0.074311	0.500069
H207	H	0.767954	-0.458941	0.000074
H208	H	1.267954	0.041059	0.500074
H209	H	0.815260	-0.395658	-0.048351
H210	H	1.315260	0.104342	0.451649
H211	H	0.810936	-0.391351	0.048501
H212	H	1.310936	0.108649	0.548501
H213	H	0.783876	-0.212375	0.000061
H214	H	1.283876	0.287625	0.500061
H215	H	0.796438	-0.063634	0.000071
H216	H	1.296438	0.436366	0.500071
H217	H	1.010863	0.091928	0.383116
H218	H	1.510863	0.591928	0.883116
C219	C	1.051431	-0.316507	0.000098
C220	C	1.551431	0.183493	0.500098
H221	H	1.090728	-0.355565	0.000099
H222	H	1.590728	0.144435	0.500099
H223	H	1.054915	-0.282570	0.048521
H224	H	1.554915	0.217430	0.548521
H225	H	1.059256	-0.286885	-0.048331
H226	H	1.559256	0.213115	0.451669
C227	C	1.059904	0.042885	0.604581
C228	C	1.559904	0.542885	1.104581
H229	H	1.087951	0.014817	0.643128
H230	H	1.587951	0.514817	1.143128
H231	H	1.096081	0.071669	0.570473
H232	H	1.596081	0.571669	1.070473
H233	H	1.030913	0.006890	0.570497
H234	H	1.530913	0.506890	1.070497
C235	C	1.051732	0.051085	0.788126
C236	C	1.551732	0.551085	1.288126
H237	H	1.041974	0.060847	0.846440
H238	H	1.541974	0.560847	1.346440
H239	H	1.105488	0.062281	0.773793
H240	H	1.605488	0.562281	1.273793
H241	H	1.040317	-0.002496	0.773810
H242	H	1.540317	0.497504	1.273810
