data_functionalizedCrystal
_audit_creation_method	'MofGen! by Chris Wilmer'
_symmetry_space_group_name_H-M	'P1'
_symmetry_Int_Tables_number	1
_symmetry_cell_setting	triclinic
loop_
_symmetry_equiv_pos_as_xyz
  x,y,z
_cell_length_a	18.050589
_cell_length_b	13.033409
_cell_length_c	13.032268
_cell_angle_alpha	105.162573
_cell_angle_beta	97.149417
_cell_angle_gamma	82.858570
loop_
_atom_site_label
_atom_site_type_symbol
_atom_site_fract_x
_atom_site_fract_y
_atom_site_fract_z
Zn1	Zn	-0.470694	1.547316	-0.393965
Zn2	Zn	-0.580893	1.569740	-0.216379
Zn3	Zn	-0.442760	1.392276	-0.238970
Zn4	Zn	-0.580865	1.369657	-0.416530
O5	O	-0.518803	1.469748	-0.316461
O6	O	-0.497014	1.698911	-0.351510
O7	O	-0.550891	1.565050	-0.070746
O8	O	-0.342549	1.412925	-0.259542
O9	O	-0.577976	1.715386	-0.221038
O10	O	-0.363072	1.526832	-0.373416
O11	O	-0.449405	1.434668	-0.087344
O12	O	-0.449378	1.240656	-0.281422
O13	O	-0.577929	1.374374	-0.562167
O14	O	-0.550843	1.224038	-0.411874
O15	O	-0.496987	1.504899	-0.545588
O16	O	-0.684805	1.543117	-0.242918
O17	O	-0.684785	1.396117	-0.389968
C18	C	-0.497077	1.193811	-0.351549
C19	C	-0.487803	1.075761	-0.366585
C20	C	-0.514064	0.909281	-0.324175
C21	C	-0.523652	1.031292	-0.308629
C22	C	-0.711744	1.469622	-0.316460
C23	C	-0.794295	1.469660	-0.316482
C24	C	-0.993765	1.389795	-0.396415
C25	C	-1.033537	1.376220	-0.302788
C26	C	-0.945435	1.469763	-0.316483
C27	C	-1.052749	1.483389	-0.410114
C28	C	-1.091429	1.469859	-0.316492
C29	C	-0.984111	1.456144	-0.222811
C30	C	-1.003328	1.563349	-0.330197
C31	C	-1.043075	1.549820	-0.236499
C32	C	-0.861331	1.469705	-0.316479
C33	C	-1.175530	1.469919	-0.316485
C34	C	-0.325113	1.469900	-0.316482
C35	C	-0.242574	1.469965	-0.316491
C36	C	-0.540571	1.434612	-0.593493
C37	C	-0.549847	1.419639	-0.711548
C38	C	-0.540614	1.746761	-0.281237
C39	C	-0.549909	1.864808	-0.266227
C40	C	-0.513934	1.477545	-0.755978
C41	C	-0.523520	1.462072	-0.877993
C42	C	-0.497071	1.504808	-0.040499
C43	C	-0.487602	1.519986	0.077581
H44	H	-0.561445	1.083542	-0.247510
Cl45	Cl	-0.960314	1.285271	-0.500664
H46	H	-0.587699	0.917061	-0.205113
Cl47	Cl	-1.054514	1.254095	-0.284869
H48	H	-0.449751	1.581016	-0.870131
Cl49	Cl	-0.429461	0.995100	-0.460961
Cl50	Cl	-0.938189	1.438267	-0.100547
H51	H	-0.587685	1.358602	-0.763842
H52	H	-0.476282	0.857027	-0.385299
Cl53	Cl	-1.076291	1.654309	-0.132041
Cl54	Cl	-0.982324	1.685435	-0.348163
Cl55	Cl	-1.098804	1.501125	-0.532358
H56	H	-0.561361	1.401030	-0.930284
Cl57	Cl	-0.455483	1.571750	-0.675252
