data_functionalizedCrystal
_audit_creation_method	'MofGen! by Chris Wilmer'
_symmetry_space_group_name_H-M	'P1'
_symmetry_Int_Tables_number	1
_symmetry_cell_setting	triclinic
loop_
_symmetry_equiv_pos_as_xyz
  x,y,z
_cell_length_a	19.805407
_cell_length_b	12.759393
_cell_length_c	19.805399
_cell_angle_alpha	89.979753
_cell_angle_beta	90.017803
_cell_angle_gamma	89.987857
loop_
_atom_site_label
_atom_site_type_symbol
_atom_site_fract_x
_atom_site_fract_y
_atom_site_fract_z
Zn1	Zn	1.034790	0.418366	0.382722
Zn2	Zn	1.034728	0.594059	0.269548
Zn3	Zn	0.921605	0.418387	0.269550
Zn4	Zn	0.921591	0.593995	0.382699
O5	O	0.978178	0.506202	0.326130
O6	O	1.129498	0.441690	0.367718
O7	O	1.019701	0.570792	0.174832
O8	O	0.936651	0.271363	0.284573
O9	O	1.129453	0.570772	0.284570
O10	O	1.019808	0.271348	0.367720
O11	O	0.936590	0.441726	0.174833
O12	O	0.826886	0.441664	0.284551
O13	O	0.936628	0.570662	0.477418
O14	O	0.826876	0.570682	0.367680
O15	O	1.019794	0.441628	0.477436
O16	O	1.019688	0.741072	0.284547
O17	O	0.936567	0.741025	0.367678
C18	C	0.802322	0.506169	0.326113
C19	C	0.727090	0.506180	0.326122
C20	C	0.691771	0.439087	0.369484
C21	C	0.621082	0.439092	0.369486
C22	C	0.585715	0.506197	0.326131
C23	C	0.621040	0.573294	0.282765
C24	C	0.691727	0.573282	0.282759
C25	C	0.335966	0.573341	0.282785
C26	C	0.265274	0.573350	0.282796
C27	C	0.265322	0.439151	0.369513
C28	C	0.336009	0.439139	0.369507
C29	C	0.371328	0.506232	0.326139
C30	C	0.447976	0.506223	0.326136
C31	C	0.509068	0.506212	0.326137
C32	C	0.978138	0.779169	0.326125
C33	C	0.978182	0.895946	0.326145
C34	C	1.064801	0.895942	0.239646
C35	C	1.108128	0.950800	0.196407
C36	C	1.108168	1.060522	0.196429
C37	C	1.064877	1.115387	0.239698
C38	C	1.021550	1.060529	0.282937
C39	C	1.021514	0.950805	0.282908
C40	C	0.934936	1.060533	0.369439
C41	C	0.934892	0.950812	0.369414
C42	C	0.891645	1.115399	0.412708
C43	C	0.848314	1.060540	0.455945
C44	C	0.848275	0.950812	0.455920
C45	C	0.891565	0.895953	0.412653
C46	C	1.154721	0.506236	0.326147
C47	C	1.229953	0.506250	0.326154
C48	C	0.978216	0.506136	0.502673
C49	C	0.978233	0.506108	0.577905
C50	C	0.978238	1.232169	0.326160
C51	C	0.978263	1.115392	0.326200
C52	C	0.978180	0.506192	0.150274
C53	C	0.978295	0.505924	0.075042
C54	C	1.021539	0.438916	0.613259
C55	C	1.021545	0.438886	0.683947
C56	C	0.978249	0.506053	0.719280
C57	C	0.934939	0.573247	0.683921
C58	C	0.934929	0.573271	0.613234
C59	C	0.934977	0.573149	0.968995
C60	C	0.934992	0.573122	1.039687
C61	C	1.021594	0.438763	1.039708
C62	C	1.021584	0.438788	0.969021
C63	C	0.978271	0.505978	0.933668
C64	C	0.978263	0.506009	0.857019
C65	C	0.978260	0.506028	0.795928
H66	H	0.364802	0.384499	0.404814
O67	O	1.063525	0.373517	0.578971
C68	C	1.096440	0.194818	0.557401
C69	C	1.048839	0.268768	0.596259
H70	H	1.084594	0.110114	0.571375
H71	H	1.088996	0.206281	0.500797
H72	H	1.151011	0.213326	0.571301
H73	H	0.994250	0.250306	0.582415
H74	H	1.056342	0.257291	0.652853
O75	O	1.150277	1.113655	0.154364
C76	C	1.236216	1.102084	0.068591
C77	C	1.188552	1.041781	0.116183
H78	H	1.267184	1.044001	0.037719
H79	H	1.205207	1.153498	0.033142
H80	H	1.271578	1.153408	0.099719
H81	H	1.153181	0.990400	0.085109
H82	H	1.219603	0.990433	0.151634
H83	H	0.813073	1.105220	0.491174
O84	O	1.063514	0.373495	0.718316
C85	C	1.072657	0.231638	0.798149
C86	C	1.025051	0.305623	0.759261
H87	H	1.041579	0.176760	0.831273
H88	H	1.103585	0.183566	0.760778
H89	H	1.108059	0.279875	0.831220
H90	H	0.989608	0.257467	0.726188
H91	H	0.994171	0.353699	0.796668
H92	H	1.056842	0.384097	0.940256
O93	O	0.891746	1.221981	0.412842
C94	C	0.909121	1.379344	0.477793
C95	C	0.909049	1.258640	0.477731
H96	H	0.923095	1.409019	0.530254
H97	H	0.947545	1.409187	0.439496
H98	H	0.856723	1.409186	0.463681
H99	H	0.961419	1.228708	0.491860
H100	H	0.870589	1.228868	0.516014
H101	H	0.236557	0.384517	0.404823
H102	H	0.592328	0.384460	0.404797
H103	H	0.364714	0.627973	0.247473
O104	O	1.063599	0.373517	1.074156
C105	C	1.102027	0.313963	1.183061
C106	C	1.054411	0.387884	1.144137
H107	H	1.094625	0.325569	1.239648
H108	H	1.090158	0.229227	1.169215
H109	H	1.156591	0.332420	1.169131
H110	H	0.999831	0.369522	1.158047
H111	H	1.066338	0.472598	1.157987
H112	H	0.899732	0.627819	1.068453
O113	O	0.231022	0.638569	0.240611
C114	C	0.238429	0.771714	0.154617
C115	C	0.277304	0.697895	0.202341
H116	H	0.275832	0.819715	0.123674
H117	H	0.205341	0.723456	0.119240
H118	H	0.205327	0.826676	0.185647
H119	H	0.310443	0.642919	0.171366
H120	H	0.310350	0.746219	0.237719
H121	H	0.720562	0.384444	0.404791
O122	O	0.892875	0.638501	0.934763
C123	C	0.806922	0.771685	0.942208
C124	C	0.854589	0.697752	0.981063
H125	H	0.775945	0.819593	0.979624
H126	H	0.837929	0.826718	0.909123
H127	H	0.771569	0.723413	0.909105
H128	H	0.889952	0.745939	1.014203
H129	H	0.823539	0.642715	1.014105
O130	O	0.892943	0.638458	0.718346
C131	C	0.854546	0.697925	0.827231
C132	C	0.902152	0.624035	0.788332
H133	H	0.861965	0.686275	0.883822
H134	H	0.866411	0.782672	0.813378
H135	H	0.799978	0.679478	0.813285
H136	H	0.956735	0.642388	0.802257
H137	H	0.890229	0.539310	0.802189
H138	H	0.720483	0.627916	0.247450
H139	H	0.592238	0.627927	0.247461
H140	H	1.064765	0.806601	0.239614
H141	H	1.143377	0.906119	0.161179
H142	H	1.064920	1.204729	0.239719
O143	O	0.806125	0.897688	0.497948
C144	C	0.720255	0.909286	0.583789
C145	C	0.767943	0.969573	0.536213
H146	H	0.689383	0.967379	0.614749
H147	H	0.684811	0.858021	0.552712
H148	H	0.751309	0.857813	0.619163
H149	H	0.736944	1.021103	0.500830
H150	H	0.803389	1.020772	0.567333
O151	O	0.892942	0.638700	0.578915
C152	C	0.860034	0.817416	0.557289
C153	C	0.907636	0.743437	0.596186
H154	H	0.871887	0.902110	0.571249
H155	H	0.867471	0.805983	0.500691
H156	H	0.805464	0.798907	0.571165
H157	H	0.962224	0.761900	0.582367
H158	H	0.900140	0.754884	0.652775
H159	H	0.891533	0.806612	0.412624
