data_functionalizedCrystal
_audit_creation_method	'MofGen! by Chris Wilmer'
_symmetry_space_group_name_H-M	'P1'
_symmetry_Int_Tables_number	1
_symmetry_cell_setting	triclinic
loop_
_symmetry_equiv_pos_as_xyz
  x,y,z
_cell_length_a	17.639181
_cell_length_b	18.050590
_cell_length_c	18.050582
_cell_angle_alpha	89.976663
_cell_angle_beta	101.211582
_cell_angle_gamma	78.826284
loop_
_atom_site_label
_atom_site_type_symbol
_atom_site_fract_x
_atom_site_fract_y
_atom_site_fract_z
Zn1	Zn	1.208258	-0.524973	-0.189949
Zn2	Zn	1.208186	-0.649142	-0.065771
Zn3	Zn	1.076102	-0.499908	-0.090925
Zn4	Zn	1.076069	-0.624043	-0.215064
O5	O	1.142154	-0.574517	-0.140428
O6	O	1.318848	-0.562438	-0.152438
O7	O	1.190648	-0.629361	0.034814
O8	O	1.093677	-0.399317	-0.104077
O9	O	1.318794	-0.653665	-0.061205
O10	O	1.190772	-0.417732	-0.176830
O11	O	1.093607	-0.519719	0.016333
O12	O	0.965499	-0.495381	-0.128431
O13	O	1.093621	-0.610886	-0.315654
O14	O	0.965475	-0.586582	-0.219635
O15	O	1.190740	-0.538100	-0.297202
O16	O	1.190616	-0.749729	-0.085559
O17	O	1.093551	-0.731288	-0.195244
C18	C	0.936810	-0.535538	-0.179488
C19	C	0.848962	-0.518881	-0.196216
C20	C	1.142093	-0.767457	-0.140409
C21	C	1.142139	-0.850012	-0.140413
C22	C	0.559934	-0.701224	-0.013355
C23	C	0.477388	-0.685562	-0.029080
C24	C	0.477443	-0.590721	-0.124222
C25	C	0.559990	-0.606372	-0.108503
C26	C	0.601229	-0.661625	-0.053069
C27	C	0.601285	-0.566773	-0.148217
C28	C	0.683826	-0.582427	-0.132501
C29	C	0.725071	-0.637679	-0.077071
C30	C	0.683769	-0.677278	-0.037353
C31	C	0.560045	-0.511524	-0.203654
C32	C	0.601340	-0.471926	-0.243367
C33	C	0.683882	-0.487575	-0.227648
C34	C	0.725127	-0.542827	-0.172219
C35	C	0.725183	-0.447975	-0.267366
C36	C	0.807723	-0.463628	-0.251650
C37	C	0.807667	-0.558480	-0.156503
C38	C	1.195033	-1.059484	-0.080814
C39	C	1.214334	-1.112485	-0.144921
C40	C	1.142184	-1.001151	-0.140434
C41	C	1.122965	-1.095247	-0.076342
C42	C	1.142229	-1.147144	-0.140448
C43	C	1.161522	-1.053071	-0.204569
C44	C	1.070119	-1.035822	-0.135951
C45	C	1.089392	-1.088795	-0.200110
C46	C	1.142161	-0.917048	-0.140424
C47	C	1.142253	-1.231245	-0.140465
C48	C	1.348300	-0.613647	-0.101214
C49	C	1.436147	-0.630323	-0.084504
C50	C	1.142185	-0.574489	-0.334127
C51	C	1.142198	-0.574478	-0.416671
C52	C	1.142236	-0.380827	-0.140458
C53	C	1.142272	-0.298287	-0.140471
C54	C	1.089425	-0.613999	-0.626148
C55	C	1.161535	-0.645835	-0.661815
C56	C	1.142237	-0.574429	-0.567794
C57	C	1.070167	-0.542579	-0.679201
C58	C	1.142268	-0.574381	-0.713773
C59	C	1.214385	-0.606308	-0.602366
C60	C	1.122968	-0.503011	-0.619757
C61	C	1.195127	-0.534831	-0.655392
C62	C	1.142218	-0.574458	-0.483699
C63	C	1.142296	-0.574354	-0.797864
C64	C	1.142169	-0.574499	0.052527
C65	C	1.142309	-0.574330	0.135099
H66	H	0.841246	-0.603468	-0.111358
H67	H	0.443855	-0.545736	-0.169359
H68	H	1.009205	-0.515662	-0.712498
C69	C	1.183611	-1.028025	-0.277799
H70	H	1.183487	-0.975373	-0.277335
H71	H	1.146322	-1.038243	-0.320138
H72	H	1.234664	-1.055002	-0.281092
C73	C	0.853151	-0.420071	-0.295333
H74	H	0.816770	-0.384918	-0.330593
H75	H	0.885356	-0.454632	-0.321507
H76	H	0.885347	-0.393778	-0.260846
C77	C	0.469252	-0.494302	-0.220944
H78	H	0.450606	-0.455732	-0.259652
H79	H	0.450564	-0.477847	-0.176602
H80	H	0.450574	-0.538706	-0.237259
H81	H	1.239854	-0.501357	-0.668417
H82	H	1.106629	-0.442646	-0.601152
H83	H	1.044718	-1.101854	-0.250583
C84	C	0.987790	-0.990914	-0.130779
H85	H	0.974195	-1.005250	-0.085181
H86	H	0.950131	-1.001402	-0.172668
H87	H	0.988260	-0.938378	-0.131278
H88	H	0.792280	-0.650416	-0.064270
C89	C	1.100972	-1.120436	-0.003117
H90	H	1.138559	-1.110659	0.039194
H91	H	1.100672	-1.173000	-0.003843
H92	H	1.050122	-1.093175	0.000481
C93	C	0.679818	-0.387208	-0.328346
H94	H	0.716234	-0.365870	-0.349753
H95	H	0.647608	-0.348704	-0.306135
H96	H	0.647633	-0.409569	-0.366785
C97	C	0.555973	-0.411148	-0.304337
H98	H	0.500900	-0.407493	-0.308006
H99	H	0.569516	-0.424647	-0.351639
H100	H	0.569508	-0.363801	-0.290969
C101	C	0.729138	-0.738060	0.023619
H102	H	0.692724	-0.759407	0.045020
H103	H	0.761337	-0.715717	0.062056
H104	H	0.761334	-0.776564	0.001386
H105	H	1.044806	-0.647525	-0.612967
C106	C	1.183577	-0.727396	-0.686940
H107	H	1.145992	-0.755463	-0.677197
H108	H	1.234423	-0.750278	-0.659627
H109	H	1.183896	-0.726762	-0.739504
H110	H	1.239741	-1.046295	-0.030436
C111	C	1.296763	-0.642768	-0.557514
H112	H	1.331160	-0.657944	-0.591599
H113	H	1.293095	-0.685666	-0.528914
H114	H	1.316863	-0.607179	-0.524365
C115	C	0.605302	-0.762005	0.047617
H116	H	0.568888	-0.783353	0.069018
H117	H	0.637502	-0.739663	0.086054
H118	H	0.637498	-0.800509	0.025384
C119	C	0.431965	-0.729123	0.014610
H120	H	0.468350	-0.764267	0.049876
H121	H	0.399769	-0.755413	-0.019872
H122	H	0.399762	-0.694560	0.040791
H123	H	1.275297	-1.145709	-0.148726
