data_functionalizedCrystal
_audit_creation_method	'MofGen! by Chris Wilmer'
_symmetry_space_group_name_H-M	'P1'
_symmetry_Int_Tables_number	1
_symmetry_cell_setting	triclinic
loop_
_symmetry_equiv_pos_as_xyz
  x,y,z
_cell_length_a	19.288864
_cell_length_b	16.992695
_cell_length_c	18.366186
_cell_angle_alpha	89.993794
_cell_angle_beta	89.977106
_cell_angle_gamma	86.902234
loop_
_atom_site_label
_atom_site_type_symbol
_atom_site_fract_x
_atom_site_fract_y
_atom_site_fract_z
O1	O	0.927052	0.097795	-0.060785
O2	O	1.427052	0.597795	0.439215
O3	O	0.725561	0.110988	-0.060736
O4	O	1.225561	0.610988	0.439264
O5	O	0.825499	-0.009748	-0.060755
O6	O	1.325499	0.490252	0.439245
O7	O	0.827114	0.218531	-0.060767
O8	O	1.327114	0.718531	0.439233
O9	O	0.825480	-0.009754	0.060345
O10	O	1.325480	0.490246	0.560345
O11	O	0.725542	0.110982	0.060363
O12	O	1.225542	0.610982	0.560363
O13	O	0.927034	0.097789	0.060314
O14	O	1.427034	0.597789	0.560314
Zn15	Zn	0.826285	0.104385	0.079566
Zn16	Zn	1.326285	0.604385	0.579566
Zn17	Zn	0.826309	0.104392	-0.079988
Zn18	Zn	1.326309	0.604392	0.420012
O19	O	0.827096	0.218525	0.060333
O20	O	1.327096	0.718525	0.560333
C21	C	0.699650	0.110560	-0.000180
C22	C	1.199650	0.610560	0.499820
C23	C	0.622472	0.109286	-0.000161
C24	C	1.122472	0.609286	0.499839
C25	C	0.581905	0.180128	-0.000176
C26	C	1.081905	0.680128	0.499824
C27	C	0.509388	0.178931	-0.000184
C28	C	1.009388	0.678931	0.499816
C29	C	0.477442	0.106888	-0.000191
C30	C	0.977442	0.606888	0.499809
C31	C	0.518018	0.036036	-0.000172
C32	C	1.018018	0.536036	0.499828
C33	C	0.590534	0.037235	-0.000157
C34	C	1.090534	0.537235	0.499843
C35	C	0.365885	0.050255	-0.042639
C36	C	0.865885	0.550255	0.457361
C37	C	0.293371	0.049059	-0.042659
C38	C	0.793371	0.549059	0.457341
C39	C	0.253780	0.103186	-0.000235
C40	C	0.753780	0.603186	0.499765
C41	C	0.286712	0.158522	0.042199
C42	C	0.786712	0.658522	0.542199
C43	C	0.359227	0.159722	0.042214
C44	C	0.859227	0.659722	0.542214
C45	C	0.398811	0.105579	-0.000207
C46	C	0.898811	0.605579	0.499793
C47	C	0.134581	0.172735	-0.000258
C48	C	0.634581	0.672735	0.499742
C49	C	0.062063	0.171535	-0.000261
C50	C	0.562063	0.671535	0.499739
C51	C	0.070695	0.028638	-0.000257
C52	C	0.570695	0.528638	0.499743
C53	C	0.143212	0.029840	-0.000246
C54	C	0.643212	0.529840	0.499754
C55	C	0.175150	0.101891	-0.000250
C56	C	0.675150	0.601891	0.499750
C57	C	0.823411	-0.038957	-0.000205
C58	C	1.323411	0.461043	0.499795
C59	C	0.817211	-0.125979	-0.000203
C60	C	1.317211	0.374021	0.499797
C61	C	0.877039	-0.176431	-0.000217
C62	C	1.377039	0.323569	0.499783
C63	C	0.871208	-0.258197	-0.000223
C64	C	1.371208	0.241803	0.499777
C65	C	0.805549	-0.289509	-0.000209
C66	C	1.305549	0.210491	0.499791
C67	C	0.745717	-0.239051	-0.000197
C68	C	1.245717	0.260949	0.499803
C69	C	0.751548	-0.157287	-0.000197
C70	C	1.251548	0.342713	0.499803
C71	C	0.781382	-0.533022	-0.000213
C72	C	1.281382	-0.033022	0.499787
C73	C	0.775556	-0.614793	-0.000211
C74	C	1.275556	-0.114793	0.499789
C75	C	0.901048	-0.633933	-0.000238
C76	C	1.401048	-0.133933	0.499762
C77	C	0.906873	-0.552166	-0.000233
C78	C	1.406873	-0.052166	0.499767
C79	C	0.847041	-0.501715	-0.000225
C80	C	1.347041	-0.001715	0.499775
N81	N	0.799588	-0.373087	-0.000212
N82	N	1.299588	0.126913	0.499788
N83	N	0.853002	-0.418138	-0.000227
N84	N	1.353002	0.081862	0.499773
C85	C	0.952944	0.098217	-0.000244
C86	C	1.452944	0.598217	0.499756
C87	C	1.030122	0.099491	-0.000268
C88	C	1.530122	0.599491	0.499732
C89	C	0.829183	0.247733	-0.000219
C90	C	1.329183	0.747733	0.499781
C91	C	0.835384	0.334756	-0.000225
C92	C	1.335384	0.834756	0.499775
N93	N	0.826273	0.104379	0.188457
N94	N	1.326273	0.604379	0.688457
N95	N	0.826326	0.104392	-0.188879
N96	N	1.326326	0.604392	0.311121
C97	C	0.870543	0.050943	0.226549
C98	C	1.370543	0.550943	0.726549
C99	C	0.870547	0.050940	0.302777
C100	C	1.370547	0.550940	0.802777
C101	C	0.826289	0.104385	0.340910
C102	C	1.326289	0.604385	0.840910
C103	C	0.782011	0.157825	0.302808
C104	C	1.282011	0.657825	0.802808
C105	C	0.782003	0.157822	0.226582
C106	C	1.282003	0.657822	0.726582
C107	C	0.821154	0.175814	0.461668
C108	C	1.321154	0.675814	0.961668
C109	C	0.821167	0.175819	0.537893
C110	C	1.321167	0.675819	1.037893
C111	C	0.826310	0.104395	0.576017
C112	C	1.326310	0.604395	1.076017
C113	C	0.831454	0.032964	0.537908
C114	C	1.331454	0.532964	1.037908
C115	C	0.831446	0.032961	0.461681
C116	C	1.331446	0.532961	0.961681
C117	C	0.826293	0.104394	0.423564
C118	C	1.326293	0.604394	0.923564
C119	C	0.870586	0.050951	0.696764
C120	C	1.370586	0.550951	1.196764
C121	C	0.870585	0.050947	0.772994
C122	C	1.370585	0.550947	1.272994
C123	C	0.782053	0.157839	0.773024
C124	C	1.282053	0.657839	1.273024
C125	C	0.782050	0.157837	0.696796
C126	C	1.282050	0.657837	1.196796
C127	C	0.826320	0.104394	0.658671
C128	C	1.326320	0.604394	1.158671
H129	H	0.029034	0.229226	-0.000270
H130	H	0.529034	0.729226	0.499730
O131	O	0.036244	-0.049065	-0.000261
O132	O	0.536244	0.450935	0.499739
H133	H	0.052200	-0.083091	0.049106
H134	H	0.552200	0.416909	0.549106
H135	H	0.176243	-0.027848	-0.000238
H136	H	0.676243	0.472152	0.499762
H137	H	0.623564	-0.020455	-0.000145
H138	H	1.123564	0.479545	0.499855
H139	H	0.160587	0.231403	-0.000250
H140	H	0.660587	0.731403	0.499750
O141	O	0.947857	-0.142658	-0.000239
O142	O	1.447857	0.357342	0.499761
H143	H	0.988479	-0.191481	-0.000259
H144	H	1.488479	0.308519	0.499741
H145	H	0.919927	-0.299272	-0.000232
H146	H	1.419927	0.200728	0.499768
O147	O	0.815622	0.252857	0.578995
O148	O	1.315622	0.752857	1.078995
H149	H	0.862294	0.257758	0.613690
H150	H	1.362294	0.757758	1.113690
O151	O	0.918304	-0.006721	0.655641
O152	O	1.418304	0.493279	1.155641
H153	H	0.910861	0.002252	0.596235
H154	H	1.410861	0.502252	1.096235
O155	O	0.257853	-0.010629	-0.088415
O156	O	0.757853	0.489371	0.411585
H157	H	0.297565	-0.048079	-0.117897
H158	H	0.797565	0.451921	0.382103
O159	O	0.977691	-0.518392	-0.000266
O160	O	1.477691	-0.018392	0.499734
H161	H	1.018315	-0.567212	-0.000287
H162	H	1.518315	-0.067212	0.499713
H163	H	0.949760	-0.675018	-0.000246
H164	H	1.449760	-0.175018	0.499754
H165	H	0.476351	0.236621	-0.000194
H166	H	0.976351	0.736621	0.499806
O167	O	0.716847	-0.478618	-0.000187
O168	O	1.216847	0.021382	0.499813
H169	H	0.685642	-0.489723	-0.049531
H170	H	1.185642	0.010277	0.450469
O171	O	0.704735	-0.648570	-0.000205
O172	O	1.204735	-0.148570	0.499795
H173	H	0.664108	-0.599753	-0.000207
H174	H	1.164108	-0.099753	0.499793
O175	O	0.674896	-0.272817	-0.000175
O176	O	1.174896	0.227183	0.499825
H177	H	0.680891	-0.338150	-0.000167
H178	H	1.180891	0.161850	0.499833
O179	O	0.918343	-0.006682	0.814085
O180	O	1.418343	0.493318	1.314085
H181	H	0.949131	-0.043834	0.774764
H182	H	1.449131	0.456166	1.274764
H183	H	0.835633	-0.025201	0.430655
H184	H	1.335633	0.474799	0.930655
H185	H	0.746014	0.201352	0.804071
H186	H	1.246014	0.701352	1.304071
O187	O	0.734246	0.215455	0.185496
O188	O	1.234246	0.715455	0.685496
H189	H	0.741672	0.206469	0.126085
H190	H	1.241672	0.706469	0.626085
H191	H	0.702829	-0.116209	-0.000186
H192	H	1.202829	0.383791	0.499814
H193	H	0.906598	0.007424	0.333797
H194	H	1.406598	0.507424	0.833797
O195	O	0.616355	0.257836	-0.000159
O196	O	1.116355	0.757836	0.499841
H197	H	0.575958	0.306897	-0.000160
H198	H	1.075958	0.806897	0.499840
H199	H	0.746004	0.201352	0.665779
H200	H	1.246004	0.701352	1.165779
O201	O	0.394751	0.219371	0.088009
O202	O	0.894751	0.719371	0.588009
H203	H	0.355045	0.256799	0.117522
H204	H	0.855045	0.756799	0.617522
O205	O	0.408586	-0.008124	-0.088403
O206	O	0.908586	0.491876	0.411597
H207	H	0.373506	-0.046792	-0.117922
H208	H	0.873506	0.453208	0.382078
H209	H	0.906589	0.007425	0.195510
H210	H	1.406589	0.507425	0.695510
O211	O	0.483569	-0.041671	-0.000180
O212	O	0.983569	0.458329	0.499820
H213	H	0.426328	-0.030604	-0.000201
H214	H	0.926328	0.469396	0.499799
O215	O	0.815612	0.252854	0.420549
O216	O	1.315612	0.752854	0.920549
H217	H	0.812049	0.302523	0.459852
H218	H	1.312049	0.802523	0.959852
O219	O	0.837005	-0.044086	0.579005
O220	O	1.337005	0.455914	1.079005
H221	H	0.790343	-0.048997	0.613752
H222	H	1.290343	0.451003	1.113752
O223	O	0.244023	0.216905	0.087966
O224	O	0.744023	0.716905	0.587966
H225	H	0.188067	0.206771	0.080837
H226	H	0.688067	0.706771	0.580837
O227	O	0.734278	0.215476	0.343931
O228	O	1.234278	0.715476	0.843931
H229	H	0.741726	0.206509	0.403336
H230	H	1.241726	0.706509	0.903336
