data_functionalizedCrystal
_audit_creation_method	'MofGen! by Chris Wilmer'
_symmetry_space_group_name_H-M	'P1'
_symmetry_Int_Tables_number	1
_symmetry_cell_setting	triclinic
loop_
_symmetry_equiv_pos_as_xyz
  x,y,z
_cell_length_a	8.497374
_cell_length_b	8.497374
_cell_length_c	29.839134
_cell_angle_alpha	90.004043
_cell_angle_beta	90.013693
_cell_angle_gamma	90.004389
loop_
_atom_site_label
_atom_site_type_symbol
_atom_site_fract_x
_atom_site_fract_y
_atom_site_fract_z
Zn1	Zn	0.892593	0.628533	0.686809
Zn2	Zn	0.628859	0.892282	0.686805
Zn3	Zn	0.628767	0.628486	0.611702
Zn4	Zn	0.892537	0.892241	0.611692
O5	O	0.760689	0.760385	0.649252
O6	O	0.857670	0.663556	0.749675
O7	O	0.408084	0.857287	0.676845
O8	O	0.663749	0.407730	0.621671
O9	O	0.663905	0.857332	0.749672
O10	O	0.857581	0.407764	0.676852
O11	O	0.408017	0.663477	0.621668
O12	O	0.663695	0.663437	0.548834
O13	O	1.113307	0.857261	0.621654
O14	O	0.857485	0.857216	0.548826
O15	O	1.113348	0.663516	0.676842
O16	O	0.663851	1.113039	0.676835
O17	O	0.857574	1.113009	0.621650
C18	C	0.760575	0.760318	0.532529
C19	C	0.760564	0.760328	0.482595
C20	C	1.350809	0.760411	0.649255
C21	C	1.172165	0.760403	0.649250
C22	C	0.760712	1.170265	0.649246
C23	C	0.760686	1.348909	0.649258
C24	C	0.861472	0.861435	0.172957
C25	C	0.861542	0.861480	-0.014716
O26	O	0.947271	0.947371	-0.038976
N27	N	0.760808	0.760443	-0.038190
C28	C	0.660056	0.659381	-0.014743
O29	O	0.574388	0.573433	-0.039016
C30	C	0.659995	0.659330	0.172929
C31	C	0.760724	0.760384	0.196401
C32	C	0.962195	0.962481	0.196429
C33	C	0.962170	0.962474	0.243345
C34	C	0.861423	0.861423	0.266788
C35	C	0.760700	0.760378	0.243316
C36	C	0.559252	0.558261	0.196375
C37	C	0.559248	0.558254	0.243296
C38	C	0.659978	0.659309	0.266768
C39	C	0.659928	0.659321	0.313675
N40	N	0.760662	0.760358	0.337150
C41	C	0.861410	0.861409	0.313706
C42	C	0.660093	0.659417	-0.113274
C43	C	0.660106	0.659432	-0.160192
C44	C	0.861595	0.861529	-0.160161
C45	C	0.861572	0.861521	-0.113242
C46	C	0.760827	0.760454	-0.089800
C47	C	0.861349	0.861389	0.412232
C48	C	0.861311	0.861379	0.459151
C49	C	0.659829	0.659277	0.459117
C50	C	0.659860	0.659292	0.412201
C51	C	0.760634	0.760354	0.388760
O52	O	0.574257	0.573463	0.337964
O53	O	0.947089	0.947320	0.337987
C54	C	0.861497	0.861442	0.126042
C55	C	0.760774	0.760397	0.102570
C56	C	0.660026	0.659345	0.126014
C57	C	0.760787	0.760411	0.055652
C58	C	0.861534	0.861462	0.032209
C59	C	0.962269	0.962499	0.055683
C60	C	0.962244	0.962493	0.102598
C61	C	0.559292	0.558309	0.102539
C62	C	0.559323	0.558324	0.055624
C63	C	0.660071	0.659375	0.032180
C64	C	0.760804	0.760454	0.766430
C65	C	0.760853	0.760483	0.816365
H66	H	0.943339	0.943676	0.478260
H67	H	0.477283	0.476035	0.036517
O68	O	0.461600	0.459910	0.266087
C69	C	0.551545	0.358175	0.293241
H70	H	0.675821	0.348631	0.279118
H71	H	0.556877	0.406947	0.328803
C72	C	0.322081	0.205775	0.311289
C73	C	0.474715	0.194043	0.293941
H74	H	0.274686	0.104532	0.311723
H75	H	0.261480	0.274319	0.292996
H76	H	0.326545	0.246424	0.340922
H77	H	0.470247	0.153413	0.264307
H78	H	0.535313	0.125488	0.312229
H79	H	0.577835	0.577009	0.393090
O80	O	0.561893	0.561340	0.481946
C81	C	0.459836	0.650996	0.509071
H82	H	0.515287	0.770645	0.516103
H83	H	0.342897	0.668130	0.490982
C84	C	0.363311	0.417207	0.545000
C85	C	0.431423	0.564156	0.553640
H86	H	0.345777	0.363639	0.572491
H87	H	0.432063	0.356802	0.526724
H88	H	0.265868	0.431506	0.529925
H89	H	0.528872	0.549855	0.568709
H90	H	0.362686	0.624557	0.571919
H91	H	0.943598	0.943807	-0.094135
O92	O	0.959017	0.959642	0.389417
C93	C	0.869068	1.061436	0.362281
H94	H	0.749607	1.005608	0.355230
H95	H	0.851537	1.178304	0.380370
C96	C	1.102592	1.158742	0.326389
C97	C	0.955873	1.090168	0.317726
H98	H	1.156139	1.176473	0.298907
H99	H	1.163194	1.090167	0.344672
H100	H	1.087962	1.256125	0.341464
H101	H	0.970505	0.992779	0.302656
H102	H	0.895275	1.158728	0.299439
O103	O	1.060250	1.060701	0.125326
C104	C	1.149138	1.149907	0.094565
H105	H	1.154691	1.085292	0.061120
H106	H	1.091191	1.269632	0.089572
C107	C	1.310187	1.252267	0.153964
C108	C	1.317019	1.172899	0.112887
H109	H	1.413742	1.266457	0.165266
H110	H	1.250299	1.192172	0.174688
H111	H	1.261892	1.352029	0.149798
H112	H	1.365295	1.073132	0.117055
H113	H	1.376919	1.232978	0.092164
H114	H	1.044296	1.044783	0.036587
H115	H	1.044198	1.044760	0.262451
H116	H	1.044244	1.044769	0.177346
O117	O	0.959638	0.959460	-0.182958
C118	C	1.061624	0.869782	-0.210099
H119	H	1.071532	0.745548	-0.195960
H120	H	1.012855	0.864273	-0.245661
C121	C	1.213352	1.099669	-0.228174
C122	C	1.225532	0.947087	-0.210806
H123	H	1.314457	1.147356	-0.228612
H124	H	1.144640	1.160089	-0.209890
H125	H	1.172706	1.095058	-0.257807
H126	H	1.266159	0.951702	-0.181172
H127	H	1.294256	0.886669	-0.229085
H128	H	0.477249	0.476019	0.121622
H129	H	0.578066	0.577159	-0.179298
H130	H	0.578046	0.577114	-0.094191
H131	H	0.477222	0.475975	0.177272
