data_functionalizedCrystal
_audit_creation_method	'MofGen! by Chris Wilmer'
_symmetry_space_group_name_H-M	'P1'
_symmetry_Int_Tables_number	1
_symmetry_cell_setting	triclinic
loop_
_symmetry_equiv_pos_as_xyz
  x,y,z
_cell_length_a	25.639242
_cell_length_b	25.639239
_cell_length_c	25.639234
_cell_angle_alpha	90.021106
_cell_angle_beta	90.019181
_cell_angle_gamma	90.033587
loop_
_atom_site_label
_atom_site_type_symbol
_atom_site_fract_x
_atom_site_fract_y
_atom_site_fract_z
Zn1	Zn	0.799213	-0.208273	0.295734
Zn2	Zn	1.299213	0.291727	0.795734
Zn3	Zn	0.799140	-0.295696	0.208298
Zn4	Zn	1.299140	0.204304	0.708298
Zn5	Zn	0.711793	-0.208268	0.208299
Zn6	Zn	1.211793	0.291732	0.708299
Zn7	Zn	0.711734	-0.295672	0.295689
Zn8	Zn	1.211734	0.204328	0.795689
O9	O	0.755470	-0.251977	0.252005
O10	O	1.255470	0.248023	0.752005
O11	O	0.872368	-0.219882	0.284154
O12	O	1.372368	0.280118	0.784154
O13	O	0.787547	-0.284106	0.135133
O14	O	1.287547	0.215894	0.635133
O15	O	0.723444	-0.135104	0.219917
O16	O	1.223444	0.364896	0.719917
O17	O	0.872315	-0.284111	0.219915
O18	O	1.372315	0.215889	0.719915
O19	O	0.787671	-0.135107	0.284155
O20	O	1.287671	0.364893	0.784155
O21	O	0.723373	-0.219874	0.135134
O22	O	1.223373	0.280126	0.635134
O23	O	0.638620	-0.219851	0.219873
O24	O	1.138620	0.280149	0.719873
O25	O	0.723344	-0.284070	0.368860
O26	O	1.223344	0.215930	0.868860
O27	O	0.638577	-0.284065	0.284078
O28	O	1.138577	0.215935	0.784078
O29	O	0.787614	-0.219859	0.368893
O30	O	1.287614	0.280141	0.868893
O31	O	0.787490	-0.368858	0.219872
O32	O	1.287490	0.131142	0.719872
O33	O	0.723274	-0.368840	0.284078
O34	O	1.223274	0.131160	0.784078
C35	C	0.619627	-0.251955	0.251971
C36	C	1.119627	0.248045	0.751971
C37	C	0.561513	-0.251958	0.251969
C38	C	1.061513	0.248042	0.751969
C39	C	0.310333	-0.218485	0.218631
C40	C	0.810333	0.281515	0.718631
C41	C	0.364938	-0.218480	0.218625
C42	C	0.864938	0.281520	0.718625
O43	O	0.393186	-0.189989	0.190250
O44	O	0.893186	0.310011	0.690250
N45	N	0.392239	-0.251965	0.251995
N46	N	0.892239	0.248035	0.751995
C47	C	0.364934	-0.285453	0.285378
C48	C	0.864934	0.214547	0.785378
O49	O	0.393170	-0.313934	0.313762
O50	O	0.893170	0.186066	0.813762
C51	C	0.310330	-0.285455	0.285387
C52	C	0.810330	0.214545	0.785387
C53	C	0.283032	-0.251971	0.252011
C54	C	0.783032	0.248029	0.752011
C55	C	0.283035	-0.185004	0.185258
C56	C	0.783035	0.314996	0.685258
C57	C	0.228434	-0.185009	0.185264
C58	C	0.728434	0.314991	0.685264
C59	C	0.201132	-0.218496	0.218644
C60	C	0.701132	0.281504	0.718644
C61	C	0.228431	-0.251977	0.252017
C62	C	0.728431	0.248023	0.752017
C63	C	0.283026	-0.318940	0.318773
C64	C	0.783026	0.181060	0.818773
C65	C	0.228419	-0.318939	0.318779
C66	C	0.728419	0.181061	0.818779
C67	C	0.201120	-0.285455	0.285403
C68	C	0.701120	0.214545	0.785403
C69	C	0.146529	-0.285469	0.285402
C70	C	0.646529	0.214531	0.785402
N71	N	0.119227	-0.251985	0.252032
N72	N	0.619227	0.248015	0.752032
C73	C	0.146529	-0.218498	0.218652
C74	C	0.646529	0.281502	0.718652
C75	C	0.479604	-0.285446	0.285358
C76	C	0.979604	0.214554	0.785358
C77	C	0.534207	-0.285447	0.285347
C78	C	1.034207	0.214553	0.785347
C79	C	0.534207	-0.218473	0.218594
C80	C	1.034207	0.281527	0.718594
C81	C	0.479604	-0.218475	0.218602
C82	C	0.979604	0.281525	0.718602
C83	C	0.452303	-0.251961	0.251987
C84	C	0.952303	0.248039	0.751987
C85	C	0.031864	-0.218513	0.218667
C86	C	0.531864	0.281487	0.718667
C87	C	-0.022742	-0.218523	0.218675
C88	C	0.477258	0.281477	0.718675
C89	C	-0.022737	-0.285494	0.285430
C90	C	0.477263	0.214506	0.785430
C91	C	0.031864	-0.285487	0.285421
C92	C	0.531864	0.214513	0.785421
C93	C	0.059163	-0.251991	0.252038
C94	C	0.559163	0.248009	0.752038
O95	O	0.118246	-0.313945	0.313764
O96	O	0.618246	0.186055	0.813764
O97	O	0.118286	-0.190017	0.190278
O98	O	0.618286	0.309983	0.690278
C99	C	0.755382	-0.387820	0.251981
C100	C	1.255382	0.112180	0.751981
C101	C	0.755392	-0.445934	0.251988
C102	C	1.255392	0.054066	0.751988
C103	C	0.788995	-0.806294	0.218630
C104	C	1.288995	-0.306294	0.718630
C105	C	0.789015	-0.860898	0.218637
C106	C	1.289015	-0.360898	0.718637
O107	O	0.817494	-0.889132	0.190249
O108	O	1.317494	-0.389132	0.690249
N109	N	0.755562	-0.888216	0.252040
N110	N	1.255562	-0.388216	0.752040
C111	C	0.722090	-0.860928	0.285441
C112	C	1.222090	-0.360928	0.785441
O113	O	0.693637	-0.889178	0.313854
O114	O	1.193637	-0.389178	0.813854
C115	C	0.722073	-0.806324	0.285437
C116	C	1.222073	-0.306324	0.785437
C117	C	0.755524	-0.779009	0.252028
C118	C	1.255524	-0.279009	0.752028
C119	C	0.822444	-0.778978	0.185225
C120	C	1.322444	-0.278978	0.685225
C121	C	0.822423	-0.724377	0.185217
C122	C	1.322423	-0.224377	0.685217
C123	C	0.788952	-0.697092	0.218615
C124	C	1.288952	-0.197092	0.718615
C125	C	0.755503	-0.724408	0.252021
C126	C	1.255503	-0.224408	0.752021
C127	C	0.688604	-0.779037	0.318840
C128	C	1.188604	-0.279037	0.818840
C129	C	0.688590	-0.724430	0.318833
C130	C	1.188590	-0.224430	0.818833
C131	C	0.722041	-0.697114	0.285425
C132	C	1.222041	-0.197114	0.785425
C133	C	0.722012	-0.642523	0.285411
C134	C	1.222012	-0.142523	0.785411
N135	N	0.755465	-0.615204	0.252008
N136	N	1.255465	-0.115204	0.752008
C137	C	0.788935	-0.642489	0.218610
C138	C	1.288935	-0.142489	0.718610
C139	C	0.722129	-0.975598	0.285449
C140	C	1.222129	-0.475598	0.785449
C141	C	0.722143	-1.030201	0.285452
C142	C	1.222143	-0.530201	0.785452
C143	C	0.789069	-1.030167	0.218648
C144	C	1.289069	-0.530167	0.718648
C145	C	0.789052	-0.975564	0.218644
C146	C	1.289052	-0.475564	0.718644
C147	C	0.755582	-0.948280	0.252047
C148	C	1.255582	-0.448280	0.752047
C149	C	0.788888	-0.527824	0.218597
C150	C	1.288888	-0.027824	0.718597
C151	C	0.788862	-0.473219	0.218591
C152	C	1.288862	0.026781	0.718591
C153	C	0.721939	-0.473257	0.285396
C154	C	1.221939	0.026743	0.785396
C155	C	0.721962	-0.527858	0.285400
C156	C	1.221962	-0.027858	0.785400
C157	C	0.755441	-0.555140	0.251999
C158	C	1.255441	-0.055140	0.751999
O159	O	0.693549	-0.614254	0.313786
O160	O	1.193549	-0.114254	0.813786
O161	O	0.817388	-0.614232	0.190208
O162	O	1.317388	-0.114232	0.690208
C163	C	0.891843	-0.252000	0.252040
C164	C	1.391843	0.248000	0.752040
C165	C	0.949957	-0.252009	0.252054
C166	C	1.449957	0.247991	0.752054
C167	C	0.755481	-0.251963	0.388378
C168	C	1.255481	0.248037	0.888378
C169	C	0.755486	-0.251956	0.446492
C170	C	1.255486	0.248044	0.946492
C171	C	0.755572	-0.115604	0.252041
C172	C	1.255572	0.384396	0.752041
C173	C	0.755616	-0.057490	0.252056
C174	C	1.255616	0.442510	0.752056
C175	C	0.755489	-0.251954	0.116163
C176	C	1.255489	0.248046	0.616163
C177	C	0.755585	-0.251813	0.058049
C178	C	1.255585	0.248187	0.558049
C179	C	0.722055	-0.285325	0.697663
C180	C	1.222055	0.214675	1.197663
C181	C	0.722046	-0.285337	0.643059
C182	C	1.222046	0.214663	1.143059
O183	O	0.693572	-0.313761	0.614803
O184	O	1.193572	0.186239	1.114803
N185	N	0.755506	-0.251914	0.615766
N186	N	1.255506	0.248086	1.115766
C187	C	0.788973	-0.218473	0.643081
C188	C	1.288973	0.281527	1.143081
O189	O	0.817432	-0.190045	0.614853
O190	O	1.317432	0.309955	1.114853
C191	C	0.788979	-0.218459	0.697684
C192	C	1.288979	0.281541	1.197684
C193	C	0.755521	-0.251888	0.724974
C194	C	1.255521	0.248112	1.224974
C195	C	0.688599	-0.318751	0.724953
C196	C	1.188599	0.181249	1.224953
C197	C	0.688609	-0.318740	0.779553
C198	C	1.188609	0.181260	1.279553
C199	C	0.722075	-0.285303	0.806864
C200	C	1.222075	0.214697	1.306864
C201	C	0.755531	-0.251877	0.779575
C202	C	1.255531	0.248123	1.279575
C203	C	0.822443	-0.185016	0.724998
C204	C	1.322443	0.314984	1.224998
C205	C	0.822446	-0.185005	0.779605
C206	C	1.322446	0.314995	1.279605
C207	C	0.788988	-0.218434	0.806895
C208	C	1.288988	0.281566	1.306895
C209	C	0.789007	-0.218429	0.861486
C210	C	1.289007	0.281571	1.361486
N211	N	0.755547	-0.251852	0.888778
N212	N	1.255547	0.248148	1.388778
C213	C	0.722081	-0.285289	0.861467
C214	C	1.222081	0.214711	1.361467
C215	C	0.788957	-0.218505	0.528410
C216	C	1.288957	0.281495	1.028410
C217	C	0.788954	-0.218521	0.473808
C218	C	1.288954	0.281479	0.973808
C219	C	0.722026	-0.285384	0.473789
C220	C	1.222026	0.214616	0.973789
C221	C	0.722032	-0.285370	0.528393
C222	C	1.222032	0.214630	1.028393
C223	C	0.755497	-0.251928	0.555703
C224	C	1.255497	0.248072	1.055703
C225	C	0.722105	-0.285263	0.976133
C226	C	1.222105	0.214737	1.476133
C227	C	0.722120	-0.285250	1.030738
C228	C	1.222120	0.214750	1.530738
C229	C	0.789045	-0.218385	1.030752
C230	C	1.289045	0.281615	1.530752
C231	C	0.789033	-0.218400	0.976151
C232	C	1.289033	0.281600	1.476151
C233	C	0.755559	-0.251840	0.948843
C234	C	1.255559	0.248160	1.448843
O235	O	0.817465	-0.190018	0.889777
O236	O	1.317465	0.309982	1.389777
O237	O	0.693622	-0.313707	0.889702
O238	O	1.193622	0.186293	1.389702
H239	H	0.206194	-0.346206	0.345967
H240	H	0.706194	0.153794	0.845967
C241	C	0.685309	-0.322024	1.060753
C242	C	1.185309	0.177976	1.560753
N243	N	0.657583	-0.349720	1.083359
N244	N	1.157583	0.150280	1.583359
C245	C	0.651769	-0.694421	0.355580
C246	C	1.151769	-0.194421	0.855580
N247	N	0.624036	-0.671819	0.383258
N248	N	1.124036	-0.171819	0.883258
H249	H	0.305243	-0.346206	0.345951
H250	H	0.805243	0.153794	0.845951
C251	C	0.825661	-0.443175	0.181835
C252	C	1.325661	0.056825	0.681835
N253	N	0.853376	-0.420547	0.154150
N254	N	1.353376	0.079453	0.654150
H255	H	0.694775	-0.312610	0.451543
H256	H	1.194775	0.187390	0.951543
C257	C	0.198412	-0.148167	0.148555
C258	C	0.698412	0.351833	0.648555
N259	N	0.175804	-0.120413	0.120906
N260	N	0.675804	0.379587	0.620906
H261	H	0.816204	-0.191305	0.451593
H262	H	1.316204	0.308695	0.951593
C263	C	0.685284	-0.322052	0.946101
C264	C	1.185284	0.177948	1.446101
N265	N	0.657553	-0.349764	0.923482
N266	N	1.157553	0.150236	1.423482
H267	H	0.054092	-0.312755	0.312594
H268	H	0.554092	0.187245	0.812594
H269	H	0.661363	-0.345960	0.801767
H270	H	1.161363	0.154040	1.301767
H271	H	0.305258	-0.157732	0.158076
H272	H	0.805258	0.342268	0.658076
H273	H	0.816212	-0.191272	0.550643
H274	H	1.316212	0.308728	1.050643
H275	H	0.661361	-0.801268	0.346043
H276	H	1.161361	-0.301268	0.846043
C277	C	0.825853	-0.945522	0.181894
C278	C	1.325853	-0.445522	0.681894
N279	N	0.853573	-0.922896	0.154213
N280	N	1.353573	-0.422896	0.654213
H281	H	0.849702	-0.801187	0.158028
H282	H	1.349702	-0.301187	0.658028
C283	C	0.859245	-0.148235	0.694992
C284	C	1.359245	0.351765	1.194992
N285	N	0.886964	-0.120527	0.672392
N286	N	1.386964	0.379473	1.172392
H287	H	0.816325	-1.052392	0.191456
H288	H	1.316325	-0.552392	0.691456
H289	H	0.457380	-0.191208	0.191426
H290	H	0.957380	0.308792	0.691426
H291	H	0.694899	-1.052436	0.312652
H292	H	1.194899	-0.552436	0.812652
C293	C	-0.052767	-0.181684	0.181959
C294	C	0.447233	0.318316	0.681959
N295	N	-0.075380	-0.153937	0.154307
N296	N	0.424620	0.346063	0.654307
C297	C	0.449578	-0.322295	0.322077
C298	C	0.949578	0.177705	0.822077
N299	N	0.426966	-0.350050	0.349733
N300	N	0.926966	0.149950	0.849733
C301	C	0.651781	-0.355538	0.694919
C302	C	1.151781	0.144462	1.194919
N303	N	0.624049	-0.383251	0.672302
N304	N	1.124049	0.116749	1.172302
C305	C	0.685310	-0.945591	0.322200
C306	C	1.185310	-0.445591	0.822200
N307	N	0.657580	-0.922992	0.349884
N308	N	1.157580	-0.422992	0.849884
H309	H	0.694725	-0.550099	0.312606
H310	H	1.194725	-0.050099	0.812606
C311	C	0.564249	-0.181634	0.181879
C312	C	1.064249	0.318366	0.681879
N313	N	0.586879	-0.153887	0.154227
N314	N	1.086879	0.346113	0.654227
C315	C	0.685125	-0.443233	0.322134
C316	C	1.185125	0.056767	0.822134
N317	N	0.657400	-0.420618	0.349808
N318	N	1.157400	0.079382	0.849808
H319	H	0.816281	-0.191183	0.953931
H320	H	1.316281	0.308817	1.453931
C321	C	0.685222	-0.322141	0.558406
C322	C	1.185222	0.177859	1.058406
N323	N	0.657494	-0.349836	0.581010
N324	N	1.157494	0.150164	1.081010
H325	H	-0.044976	-0.312760	0.312605
H326	H	0.455024	0.187240	0.812605
C327	C	0.825713	-0.557827	0.181851
C328	C	1.325713	-0.057827	0.681851
N329	N	0.853447	-0.580424	0.154170
N330	N	1.353447	-0.080424	0.654170
H331	H	0.849696	-0.157769	0.801838
H332	H	1.349696	0.342231	1.301838
C333	C	0.859218	-0.694337	0.148461
C334	C	1.359218	-0.194337	0.648461
N335	N	0.886934	-0.671714	0.120772
N336	N	1.386934	-0.171714	0.620772
H337	H	0.816294	-0.191164	1.052998
H338	H	1.316294	0.308836	1.552998
H339	H	0.556429	-0.312718	0.312520
H340	H	1.056429	0.187282	0.812520
C341	C	0.061885	-0.181669	0.181942
C342	C	0.561885	0.318331	0.681942
N343	N	0.084496	-0.153921	0.154277
N344	N	0.584496	0.346079	0.654277
