data_functionalizedCrystal
_audit_creation_method	'MofGen! by Chris Wilmer'
_symmetry_space_group_name_H-M	'P1'
_symmetry_Int_Tables_number	1
_symmetry_cell_setting	triclinic
loop_
_symmetry_equiv_pos_as_xyz
  x,y,z
_cell_length_a	10.654549
_cell_length_b	14.971494
_cell_length_c	9.730223
_cell_angle_alpha	89.997316
_cell_angle_beta	89.997731
_cell_angle_gamma	84.051167
loop_
_atom_site_label
_atom_site_type_symbol
_atom_site_fract_x
_atom_site_fract_y
_atom_site_fract_z
O1	O	1.666497	0.125629	-0.114253
O2	O	2.166497	0.625629	0.385747
O3	O	1.300890	0.137598	-0.114262
O4	O	1.800890	0.637598	0.385738
O5	O	1.493487	0.001467	-0.114254
O6	O	1.993487	0.501467	0.385746
O7	O	1.473900	0.261760	-0.114260
O8	O	1.973900	0.761760	0.385740
O9	O	1.493475	0.001464	0.114326
O10	O	1.993475	0.501464	0.614326
O11	O	1.300878	0.137595	0.114318
O12	O	1.800878	0.637595	0.614318
O13	O	1.666485	0.125625	0.114327
O14	O	2.166485	0.625625	0.614327
Zn15	Zn	1.483679	0.131609	0.150615
Zn16	Zn	1.983679	0.631609	0.650615
Zn17	Zn	1.483696	0.131614	-0.150549
Zn18	Zn	1.983696	0.631614	0.349451
O19	O	1.473888	0.261756	0.114320
O20	O	1.973888	0.761756	0.614320
C21	C	1.254096	0.136718	0.000027
C22	C	1.754096	0.636718	0.500027
C23	C	1.114681	0.134089	0.000023
C24	C	1.614681	0.634089	0.500023
C25	C	0.903336	0.211763	0.000027
C26	C	1.403336	0.711763	0.500027
C27	C	1.034330	0.214240	0.000019
C28	C	1.534330	0.714240	0.500019
C29	C	1.064031	0.051454	0.000023
C30	C	1.564031	0.551454	0.500023
C31	C	0.933039	0.048978	0.000021
C32	C	1.433039	0.548978	0.500021
C33	C	1.492603	-0.031864	0.000034
C34	C	1.992603	0.468136	0.500034
C35	C	1.489973	-0.131175	0.000028
C36	C	1.989973	0.368825	0.500028
C37	C	1.488746	-0.177824	-0.124573
C38	C	1.988746	0.322176	0.375427
C39	C	1.486266	-0.271137	-0.124575
C40	C	1.986266	0.228863	0.375425
C41	C	1.485022	-0.317799	0.000026
C42	C	1.985022	0.182201	0.500026
C43	C	1.486244	-0.271143	0.124636
C44	C	1.986244	0.228857	0.624636
C45	C	1.488715	-0.177831	0.124636
C46	C	1.988715	0.322169	0.624636
C47	C	1.481097	-0.465634	0.124626
C48	C	1.981097	0.034366	0.624626
C49	C	1.478629	-0.558952	0.124627
C50	C	1.978629	-0.058952	0.624627
C51	C	1.478648	-0.558940	-0.124584
C52	C	1.978648	-0.058940	0.375416
C53	C	1.481119	-0.465628	-0.124584
C54	C	1.981119	0.034372	0.375416
C55	C	1.482344	-0.418978	0.000027
C56	C	1.982344	0.081022	0.500027
C57	C	1.713279	0.126506	0.000036
C58	C	2.213279	0.626506	0.500036
C59	C	1.852694	0.129135	0.000030
C60	C	2.352694	0.629135	0.500030
C61	C	1.474772	0.295087	0.000029
C62	C	1.974772	0.795087	0.500029
C63	C	1.477402	0.394398	0.000026
C64	C	1.977402	0.894398	0.500026
N65	N	1.483677	0.131605	0.356151
N66	N	1.983677	0.631605	0.856151
N67	N	1.483708	0.131611	-0.356085
N68	N	1.983708	0.631611	0.143915
C69	C	1.568988	0.071352	0.428081
C70	C	2.068988	0.571352	0.928081
C71	C	1.569001	0.071353	0.571964
C72	C	2.069001	0.571353	1.071964
C73	C	1.398388	0.191867	0.571975
C74	C	1.898388	0.691867	1.071975
C75	C	1.398370	0.191862	0.428095
C76	C	1.898370	0.691862	0.928095
H77	H	0.837922	0.277033	0.000034
H78	H	1.337922	0.777033	0.500034
C79	C	1.484866	-0.322474	0.261698
C80	C	1.984866	0.177526	0.761698
N81	N	1.483831	-0.361136	0.364936
N82	N	1.983831	0.138864	0.864936
H83	H	1.482067	-0.427652	0.226098
H84	H	1.982067	0.072348	0.726098
H85	H	0.891808	-0.018312	0.000019
H86	H	1.391808	0.481688	0.500019
C87	C	1.152422	-0.036714	0.000036
C88	C	1.652422	0.463286	0.500036
N89	N	1.218997	-0.103124	0.000056
N90	N	1.718997	0.396876	0.500056
C91	C	1.482494	-0.414302	-0.261651
C92	C	1.982494	0.085698	0.238349
N93	N	1.483525	-0.375643	-0.364891
N94	N	1.983525	0.124357	0.135109
H95	H	1.075555	0.281524	0.000015
H96	H	1.575555	0.781524	0.500015
C97	C	1.304574	0.258190	0.348968
C98	C	1.804574	0.758190	0.848968
N99	N	1.233949	0.308159	0.289369
N100	N	1.733949	0.808159	0.789369
C101	C	1.490068	-0.126518	0.261706
C102	C	1.990068	0.373482	0.761706
N103	N	1.491084	-0.087869	0.364952
N104	N	1.991084	0.412131	0.864952
H105	H	1.485273	-0.309115	-0.226037
H106	H	1.985273	0.190885	0.273963
C107	C	1.490115	-0.126504	-0.261646
C108	C	1.990115	0.373496	0.238354
N109	N	1.491140	-0.087852	-0.364893
N110	N	1.991140	0.412148	0.135107
H111	H	1.477605	-0.596941	0.226087
H112	H	1.977605	-0.096941	0.726087
C113	C	1.477293	-0.610255	-0.261658
C114	C	1.977293	-0.110255	0.238342
N115	N	1.476275	-0.648910	-0.364897
N116	N	1.976275	-0.148910	0.135103
H117	H	1.638449	0.022287	0.369508
H118	H	2.138449	0.522287	0.869508
H119	H	1.638467	0.022288	0.630525
H120	H	2.138467	0.522288	1.130525
H121	H	1.328934	0.240928	0.630566
H122	H	1.828934	0.740928	1.130566
