data_functionalizedCrystal
_audit_creation_method	'MofGen! by Chris Wilmer'
_symmetry_space_group_name_H-M	'P1'
_symmetry_Int_Tables_number	1
_symmetry_cell_setting	triclinic
loop_
_symmetry_equiv_pos_as_xyz
  x,y,z
_cell_length_a	8.597366
_cell_length_b	8.559649
_cell_length_c	9.730223
_cell_angle_alpha	89.997407
_cell_angle_beta	97.698681
_cell_angle_gamma	77.624636
loop_
_atom_site_label
_atom_site_type_symbol
_atom_site_fract_x
_atom_site_fract_y
_atom_site_fract_z
O1	O	2.053709	0.238022	0.128910
O2	O	1.594582	0.256287	0.074540
O3	O	1.864595	0.015184	0.106516
O4	O	1.783696	0.479125	0.096933
O5	O	1.864581	0.015177	0.335094
O6	O	1.594568	0.256281	0.303118
O7	O	2.053695	0.238015	0.357488
Zn8	Zn	1.824129	0.247147	0.366595
Zn9	Zn	1.824148	0.247156	0.065433
O10	O	1.783682	0.479118	0.325511
C11	C	1.536341	0.254323	0.181932
C12	C	1.362823	0.248462	0.161384
C13	C	1.870719	-0.044253	0.221529
C14	C	1.888968	-0.221348	0.223682
C15	C	2.111936	0.239979	0.250092
C16	C	2.285453	0.245840	0.270631
C17	C	1.777558	0.538556	0.210496
C18	C	1.759309	0.715651	0.208333
N19	N	1.824127	0.247140	0.572131
N20	N	1.824164	0.247150	-0.140102
C21	C	1.943719	0.140425	0.658219
C22	C	1.943735	0.140426	0.802104
C23	C	1.704559	0.353870	0.773798
C24	C	1.704539	0.353860	0.629915
H25	H	1.351967	0.248081	0.379898
O26	O	1.610336	-0.186847	0.190624
C27	C	1.624665	-0.025803	0.192346
H28	H	1.746984	-0.017661	0.163558
H29	H	1.612975	0.022219	0.300621
C30	C	1.340643	0.064247	0.122213
C31	C	1.490872	0.074248	0.086843
H32	H	1.258109	0.125966	0.057140
H33	H	1.330986	-0.044251	0.121058
H34	H	1.330924	0.104263	0.212444
H35	H	1.500596	0.034214	-0.003378
H36	H	1.500527	0.182742	0.087981
H37	H	2.013943	-0.302903	0.238493
O38	O	1.588569	0.457605	0.546154
C39	C	1.660573	0.557377	0.471457
H40	H	1.790792	0.495842	0.465310
H41	H	1.657006	0.675428	0.526470
C42	C	1.408202	0.665599	0.331398
C43	C	1.568136	0.590014	0.323839
H44	H	1.351180	0.685738	0.240343
H45	H	1.359690	0.598386	0.381726
H46	H	1.405252	0.763966	0.377249
H47	H	1.571084	0.491641	0.278005
H48	H	1.616647	0.657212	0.273500
O49	O	2.059944	0.036940	0.602000
C50	C	2.146253	0.123849	0.528899
H51	H	2.133843	0.249661	0.570774
H52	H	2.096143	0.131442	0.413951
C53	C	2.340230	-0.115948	0.496326
C54	C	2.324999	0.038572	0.547766
H55	H	2.450488	-0.168553	0.507958
H56	H	2.282079	-0.174502	0.545571
H57	H	2.298462	-0.109600	0.400540
H58	H	2.366748	0.032221	0.643554
H59	H	2.383162	0.097123	0.498538
O60	O	2.059714	0.036606	0.885769
C61	C	1.987715	-0.063127	0.960514
H62	H	1.864514	-0.067831	0.902585
H63	H	1.973500	-0.013345	1.067873
C64	C	2.246011	-0.227184	1.046535
C65	C	2.094699	-0.232973	0.975380
H66	H	2.312006	-0.331951	1.055713
H67	H	2.294520	-0.159989	0.996183
H68	H	2.234143	-0.185692	1.135994
H69	H	2.106567	-0.274445	0.885918
H70	H	2.046195	-0.300178	1.025718
O71	O	1.283355	0.246063	0.031053
C72	C	1.154630	0.380609	0.008470
H73	H	1.179818	0.478559	0.082110
H74	H	1.038889	0.345280	0.028371
C75	C	1.105401	0.322687	-0.233005
C76	C	1.136344	0.442996	-0.142566
H77	H	1.094115	0.361167	-0.326172
H78	H	1.192122	0.232037	-0.217790
H79	H	1.008953	0.293257	-0.216404
H80	H	1.232800	0.472410	-0.159157
H81	H	1.049639	0.533653	-0.157788
O82	O	1.588438	0.457758	0.829783
C83	C	1.594873	0.616050	0.795390
H84	H	1.655260	0.616825	0.698066
H85	H	1.666892	0.666649	0.884879
C86	C	1.348873	0.718611	0.887940
C87	C	1.423029	0.719565	0.768397
H88	H	1.242874	0.782467	0.871295
H89	H	1.344540	0.611968	0.911117
H90	H	1.408906	0.760773	0.962503
H91	H	1.363007	0.677385	0.693842
H92	H	1.427348	0.826204	0.745208
