data_functionalizedCrystal
_audit_creation_method	'MofGen! by Chris Wilmer'
_symmetry_space_group_name_H-M	'P1'
_symmetry_Int_Tables_number	1
_symmetry_cell_setting	triclinic
loop_
_symmetry_equiv_pos_as_xyz
  x,y,z
_cell_length_a	15.944551
_cell_length_b	15.021413
_cell_length_c	10.654541
_cell_angle_alpha	90.004284
_cell_angle_beta	96.008667
_cell_angle_gamma	90.002826
loop_
_atom_site_label
_atom_site_type_symbol
_atom_site_fract_x
_atom_site_fract_y
_atom_site_fract_z
O1	O	1.115465	0.073939	-0.161950
O2	O	0.871031	0.073961	-0.181919
O3	O	0.998869	0.073944	0.010878
O4	O	0.987627	0.073956	-0.354746
O5	O	0.998849	-0.074120	0.010851
O6	O	0.871011	-0.074103	-0.181946
O7	O	1.115445	-0.074125	-0.161977
Zn8	Zn	0.993225	-0.097623	-0.171966
Zn9	Zn	0.993251	0.097458	-0.171930
O10	O	0.987607	-0.074108	-0.354774
C11	C	0.839722	-0.000068	-0.181103
C12	C	0.746462	-0.000060	-0.178618
N13	N	0.993212	-0.230760	-0.171990
C14	C	0.530880	-0.000081	-0.053173
C15	C	0.470206	0.072924	-0.111412
C16	C	0.575710	-0.000071	-0.174122
C17	C	0.470209	-0.073056	-0.111468
C18	C	0.410772	-0.000085	-0.169770
C19	C	0.516265	0.072995	-0.232394
C20	C	0.516274	-0.073050	-0.232433
C21	C	0.455618	-0.000027	-0.290760
C22	C	0.670727	-0.000062	-0.176626
C23	C	0.315756	-0.000088	-0.167276
C24	C	0.934091	-0.470436	-0.261097
C25	C	1.010132	-0.529776	-0.285478
C26	C	0.993234	-0.412367	-0.171959
C27	C	0.917213	-0.529769	-0.147606
C28	C	0.993247	-0.587791	-0.171931
C29	C	1.069314	-0.470401	-0.196396
C30	C	0.976345	-0.470388	-0.058475
C31	C	1.052440	-0.529702	-0.082807
C32	C	0.993225	-0.311310	-0.171978
C33	C	0.993265	-0.688847	-0.171911
C34	C	1.146754	-0.000094	-0.162793
C35	C	1.240014	-0.000097	-0.165278
C36	C	0.998034	-0.000088	0.057652
C37	C	0.995566	-0.000086	0.197063
N38	N	0.993270	0.230596	-0.171896
C39	C	0.988442	-0.000075	-0.401548
C40	C	0.990910	-0.000071	-0.540959
C41	C	1.148431	-0.000111	0.227012
C42	C	1.223700	-0.000125	0.307480
C43	C	1.221376	-0.000122	0.438468
C44	C	1.143774	-0.000102	0.488989
C45	C	1.068504	-0.000088	0.408521
C46	C	1.070837	-0.000094	0.277532
C47	C	0.915641	-0.000057	0.378573
C48	C	0.917963	-0.000066	0.247584
C49	C	0.838039	-0.000037	0.429094
C50	C	0.762767	-0.000029	0.348625
C51	C	0.765095	-0.000033	0.217630
C52	C	0.842694	-0.000052	0.167116
H53	H	0.563632	0.000006	0.047204
H54	H	0.884127	-0.444414	-0.336540
N55	N	0.543133	0.154842	-0.300090
H56	H	0.606385	0.154357	-0.301313
H57	H	0.525932	0.209868	-0.254702
N58	N	1.118764	-0.563964	0.017068
H59	H	1.176137	-0.542252	-0.001483
H60	H	1.118004	-0.631194	0.016976
H61	H	0.703801	-0.000017	0.152119
H62	H	1.024429	-0.555862	-0.381437
H63	H	0.449809	0.134642	-0.060244
N64	N	0.845204	-0.000060	0.025838
H65	H	0.905784	-0.000074	0.006048
H66	H	0.815731	0.054837	-0.011494
N67	N	1.154503	-0.436015	-0.223809
H68	H	1.153965	-0.368780	-0.223687
H69	H	1.167352	-0.458207	-0.309209
H70	H	0.852918	-0.555848	-0.127021
N71	N	0.412457	0.000024	-0.423851
H72	H	0.429197	0.055192	-0.469347
H73	H	0.349314	-0.000533	-0.421346
N74	N	1.150937	-0.000130	0.085733
H75	H	1.211516	-0.000148	0.065938
H76	H	1.121464	0.054763	0.048391
N77	N	0.543295	-0.154802	-0.300190
H78	H	0.526713	-0.209923	-0.254441
H79	H	0.606484	-0.153821	-0.302094
H80	H	1.141888	-0.000089	0.595648
H81	H	1.286883	-0.000149	0.266331
H82	H	0.449818	-0.134774	-0.060301
H83	H	0.962024	-0.444282	0.037453
N84	N	0.835526	-0.000029	0.570372
H85	H	0.894983	-0.000044	0.613684
H86	H	0.804904	-0.054911	0.595927
H87	H	0.699590	-0.000007	0.389771
H88	H	1.282667	-0.000127	0.503986
