data_functionalizedCrystal
_audit_creation_method	'MofGen! by Chris Wilmer'
_symmetry_space_group_name_H-M	'P1'
_symmetry_Int_Tables_number	1
_symmetry_cell_setting	triclinic
loop_
_symmetry_equiv_pos_as_xyz
  x,y,z
_cell_length_a	15.021413
_cell_length_b	15.944551
_cell_length_c	15.944551
_cell_angle_alpha	83.498738
_cell_angle_beta	89.990152
_cell_angle_gamma	89.998604
loop_
_atom_site_label
_atom_site_type_symbol
_atom_site_fract_x
_atom_site_fract_y
_atom_site_fract_z
O1	O	0.073941	-1.114525	-0.108337
O2	O	0.073964	-0.869976	-0.121693
O3	O	0.073944	-0.998929	0.007260
O4	O	0.073961	-0.985572	-0.237290
O5	O	-0.074121	-0.998915	0.007274
O6	O	-0.074101	-0.869962	-0.121679
O7	O	-0.074123	-1.114512	-0.108323
Zn8	Zn	-0.097620	-0.992235	-0.114999
Zn9	Zn	0.097461	-0.992253	-0.115017
O10	O	-0.074103	-0.985559	-0.237276
C11	C	-0.000066	-0.838675	-0.121132
C12	C	-0.000057	-0.745429	-0.119470
N13	N	-0.230758	-0.992229	-0.114986
N14	N	0.230598	-0.992265	-0.115024
C15	C	0.470243	-1.052011	-0.055478
C16	C	0.529615	-1.068124	-0.131431
C17	C	0.412205	-0.992253	-0.115013
C18	C	0.529575	-0.976168	-0.039049
C19	C	0.587629	-0.992244	-0.114995
C20	C	0.470270	-1.008403	-0.191004
C21	C	0.470226	-0.916415	-0.098572
C22	C	0.529571	-0.932495	-0.174580
C23	C	0.311148	-0.992261	-0.115021
C24	C	0.688685	-0.992235	-0.114995
C25	C	-0.000089	-0.998367	0.038561
C26	C	-0.000089	-0.996705	0.131807
C27	C	-0.000092	-1.145813	-0.108885
C28	C	-0.000094	-1.239059	-0.110547
C29	C	-0.000081	-0.530572	-0.035565
C30	C	0.072926	-0.469559	-0.074534
C31	C	-0.000068	-0.574703	-0.116462
C32	C	-0.073054	-0.469568	-0.074540
C33	C	-0.000083	-0.409790	-0.113551
C34	C	0.072998	-0.514918	-0.155454
C35	C	-0.073047	-0.514933	-0.155448
C36	C	-0.000023	-0.453937	-0.194476
C37	C	-0.000059	-0.669705	-0.118137
C38	C	-0.000085	-0.314789	-0.111883
C39	C	-0.000069	-0.986120	-0.268577
C40	C	-0.000063	-0.987782	-0.361823
C41	C	-0.000069	-0.912801	0.346663
C42	C	-0.073077	-0.951757	0.407687
C43	C	-0.000082	-0.993698	0.302533
C44	C	0.072903	-0.951789	0.407657
C45	C	-0.000071	-0.990787	0.467445
C46	C	-0.073150	-1.032676	0.362328
C47	C	0.072895	-1.032697	0.362292
C48	C	-0.000131	-1.071711	0.423298
C49	C	-0.000089	-0.995372	0.207530
C50	C	-0.000070	-0.989119	0.562446
H51	H	0.555701	-1.132254	-0.145336
C52	C	-0.076433	-0.359137	-0.298058
C53	C	0.000033	-0.409165	-0.285199
H54	H	-0.076395	-0.331500	-0.354068
H55	H	-0.076944	-0.318189	-0.259184
H56	H	-0.127818	-0.393799	-0.289657
H57	H	0.051419	-0.374502	-0.293594
H58	H	0.000552	-0.450118	-0.324085
C59	C	0.617037	-0.902090	-0.300400
C60	C	0.564527	-0.864266	-0.242604
H61	H	0.638622	-0.859969	-0.342393
H62	H	0.582230	-0.941717	-0.326291
H63	H	0.665879	-0.930225	-0.271711
H64	H	0.515681	-0.836137	-0.271292
H65	H	0.599335	-0.824624	-0.216711
C66	C	0.232627	-0.947167	0.410732
C67	C	0.156227	-0.905596	0.434769
H68	H	0.284064	-0.918648	0.427473
H69	H	0.232934	-0.947437	0.351194
H70	H	0.232704	-1.003609	0.437241
H71	H	0.156147	-0.849156	0.408255
H72	H	0.155921	-0.905318	0.494319
H73	H	-0.134767	-0.535059	-0.189630
C74	C	0.342046	-1.026786	-0.276935
C75	C	0.435259	-1.026900	-0.277729
H76	H	0.320433	-1.038221	-0.330470
H77	H	0.321217	-0.973094	-0.265190
H78	H	0.321275	-1.068980	-0.234616
H79	H	0.456030	-0.984702	-0.320044
H80	H	0.456097	-1.080600	-0.289485
H81	H	-0.134773	-0.449476	-0.040303
C82	C	0.207245	-0.513732	-0.000733
C83	C	0.156238	-0.442415	-0.028350
H84	H	0.258673	-0.496977	0.027788
H85	H	0.224797	-0.541180	-0.047942
H86	H	0.172860	-0.551398	0.036696
H87	H	0.190622	-0.404751	-0.065785
H88	H	0.138688	-0.414954	0.018865
C89	C	0.464854	-0.813159	-0.000157
C90	C	0.434972	-0.829871	-0.079771
H91	H	0.443083	-0.759733	0.011457
H92	H	0.528079	-0.812679	0.000497
H93	H	0.443652	-0.855726	0.041569
H94	H	0.456180	-0.787308	-0.121498
H95	H	0.371734	-0.830344	-0.080431
C96	C	-0.130499	-0.835983	0.475321
C97	C	-0.156390	-0.905562	0.434850
H98	H	-0.181932	-0.807466	0.492091
H99	H	-0.096133	-0.798562	0.437643
H100	H	-0.095885	-0.854739	0.523687
H101	H	-0.190999	-0.886805	0.386480
H102	H	-0.190771	-0.942990	0.472531
H103	H	0.444195	-1.102583	-0.005197
H104	H	-0.000136	-0.845652	0.313356
C105	C	-0.000974	-1.219720	0.407663
C106	C	-0.000203	-1.162440	0.468056
H107	H	-0.001030	-1.275732	0.435294
H108	H	0.050419	-1.211329	0.373017
H109	H	-0.052844	-1.210953	0.373729
H110	H	0.051671	-1.171204	0.501986
H111	H	-0.051601	-1.170835	0.502716
C112	C	-0.155839	-1.079917	0.247672
C113	C	-0.156570	-1.078816	0.335357
H114	H	-0.207342	-1.108395	0.231021
H115	H	-0.104071	-1.108465	0.231778
H116	H	-0.155623	-1.023633	0.220750
H117	H	-0.156780	-1.135100	0.362279
H118	H	-0.208352	-1.050269	0.351259
C119	C	0.534787	-1.020466	0.109890
C120	C	0.564741	-0.957799	0.047662
H121	H	0.556492	-1.009126	0.163422
H122	H	0.555999	-1.073918	0.097808
H123	H	0.471553	-1.020842	0.110649
H124	H	0.627975	-0.957426	0.046899
H125	H	0.543534	-0.904332	0.059747
H126	H	0.000005	-0.563905	0.031573
H127	H	0.134787	-0.534911	-0.189650
H128	H	0.134615	-1.066889	0.342156
