data_functionalizedCrystal
_audit_creation_method	'MofGen! by Chris Wilmer'
_symmetry_space_group_name_H-M	'P1'
_symmetry_Int_Tables_number	1
_symmetry_cell_setting	triclinic
loop_
_symmetry_equiv_pos_as_xyz
  x,y,z
_cell_length_a	15.995350
_cell_length_b	15.995350
_cell_length_c	15.072220
_cell_angle_alpha	89.996525
_cell_angle_beta	89.989989
_cell_angle_gamma	96.507625
loop_
_atom_site_label
_atom_site_type_symbol
_atom_site_fract_x
_atom_site_fract_y
_atom_site_fract_z
O1	O	1.110997	-0.107920	-0.073699
O2	O	0.867222	-0.121248	-0.073716
O3	O	0.995773	0.007304	-0.073711
O4	O	0.982446	-0.236472	-0.073705
O5	O	0.995739	0.007295	0.073854
O6	O	0.867187	-0.121256	0.073849
O7	O	1.110963	-0.107929	0.073866
Zn8	Zn	0.989069	-0.114594	0.097287
Zn9	Zn	0.989115	-0.114583	-0.097137
O10	O	0.982411	-0.236480	0.073860
C11	C	0.836010	-0.120701	0.000064
C12	C	0.743060	-0.119049	0.000057
C13	C	0.405312	-0.113117	0.000075
C14	C	0.452746	-0.021565	0.000402
C15	C	0.549436	-0.023217	0.000063
C16	C	0.572873	-0.116060	0.000067
C17	C	0.531805	-0.161211	-0.084196
C18	C	0.435170	-0.158911	-0.084260
C19	C	0.434791	-0.160813	0.083549
C20	C	0.531736	-0.160791	0.084657
C21	C	0.667570	-0.117727	0.000059
C22	C	0.310614	-0.111452	0.000077
C23	C	0.982980	-0.267671	0.000079
C24	C	0.984631	-0.360621	0.000081
C25	C	0.990564	-0.698369	0.000068
C26	C	1.082116	-0.650935	-0.000255
C27	C	1.080463	-0.554244	0.000082
C28	C	0.987621	-0.530808	0.000074
C29	C	0.942445	-0.571896	0.084334
C30	C	0.944745	-0.668532	0.084400
C31	C	0.942893	-0.668869	-0.083409
C32	C	0.942915	-0.571924	-0.084518
C33	C	0.985953	-0.436111	0.000080
C34	C	0.992229	-0.793066	0.000067
C35	C	1.142175	-0.108476	0.000084
C36	C	1.235125	-0.110127	0.000085
C37	C	0.995205	0.038494	0.000069
C38	C	0.993553	0.131444	0.000061
N39	N	0.989044	-0.114601	0.229975
C40	C	0.989100	-0.114586	0.589177
C41	C	0.920084	-0.183141	0.551567
C42	C	0.920244	-0.183390	0.448741
C43	C	0.989071	-0.114594	0.410973
C44	C	1.076436	-0.133676	0.448271
C45	C	1.076047	-0.134164	0.551129
C46	C	0.971531	-0.026747	0.551273
C47	C	0.969528	-0.027331	0.448410
C48	C	0.989061	-0.114596	0.310259
C49	C	0.989116	-0.114586	0.689890
N50	N	0.989127	-0.114579	0.770174
H51	H	0.433166	0.014865	-0.059694
Cl52	Cl	0.989123	-0.700577	-0.182016
Cl53	Cl	0.993839	-0.529763	-0.180762
H54	H	0.577851	0.012275	0.060466
Cl55	Cl	0.592443	0.031719	-0.093519
Cl56	Cl	0.406922	-0.108063	-0.181511
H57	H	1.116181	-0.526387	0.060595
H58	H	0.877528	-0.700780	0.088225
Cl59	Cl	0.573784	-0.109819	0.180900
Cl60	Cl	0.837133	-0.550091	0.089168
Cl61	Cl	0.424122	0.034932	0.093698
Cl62	Cl	1.049234	0.052019	0.588823
H63	H	0.560194	-0.129844	-0.146908
Cl64	Cl	0.555449	-0.265325	0.092517
H65	H	0.905262	-0.012850	0.424033
Cl66	Cl	1.100914	-0.231453	0.408493
Cl67	Cl	0.838417	-0.548119	-0.092446
H68	H	0.402922	-0.226127	-0.088082
H69	H	0.403030	-0.228313	0.084121
H70	H	0.931148	-0.247958	0.577408
H71	H	0.545931	-0.229420	-0.087327
H72	H	0.414241	-0.130886	0.147418
H73	H	1.091529	-0.198225	0.575113
H74	H	0.973801	-0.543530	0.147048
H75	H	0.875387	-0.700617	-0.083974
Cl76	Cl	0.875291	0.001566	0.591361
Cl77	Cl	1.135567	-0.510312	-0.092988
H78	H	0.855305	-0.172021	0.423525
Cl79	Cl	1.042106	0.055125	0.408735
Cl80	Cl	0.937533	-0.284039	0.410737
Cl81	Cl	1.138638	-0.679531	-0.093551
Cl82	Cl	1.157643	-0.059925	0.589542
Cl83	Cl	1.138343	-0.681193	0.092524
Cl84	Cl	1.157626	-0.058636	0.410502
Cl85	Cl	0.819490	-0.165867	0.589767
H86	H	0.977660	-0.686840	0.147393
