data_functionalizedCrystal
_audit_creation_method	'MofGen! by Chris Wilmer'
_symmetry_space_group_name_H-M	'P1'
_symmetry_Int_Tables_number	1
_symmetry_cell_setting	triclinic
loop_
_symmetry_equiv_pos_as_xyz
  x,y,z
_cell_length_a	25.639239
_cell_length_b	17.640112
_cell_length_c	17.640968
_cell_angle_alpha	87.860920
_cell_angle_beta	78.768464
_cell_angle_gamma	78.735466
loop_
_atom_site_label
_atom_site_type_symbol
_atom_site_fract_x
_atom_site_fract_y
_atom_site_fract_z
Zn1	Zn	-0.015023	-1.247772	-0.195080
Zn2	Zn	0.484977	-0.747772	0.304920
Zn3	Zn	-0.122900	-1.221955	-0.068097
Zn4	Zn	0.377100	-0.721955	0.431903
Zn5	Zn	-0.049036	-1.095089	-0.093726
Zn6	Zn	0.450964	-0.595089	0.406274
Zn7	Zn	-0.116017	-1.120698	-0.220679
Zn8	Zn	0.383983	-0.620698	0.279321
O9	O	-0.075744	-1.171378	-0.144396
O10	O	0.424256	-0.671378	0.355604
O11	O	-0.017980	-1.350621	-0.156796
O12	O	0.482020	-0.850621	0.343204
O13	O	-0.130216	-1.183603	0.034776
O14	O	0.369784	-0.683603	0.534776
O15	O	0.028654	-1.115429	-0.107183
O16	O	0.528654	-0.615429	0.392817
O17	O	-0.097236	-1.331654	-0.063503
O18	O	0.402764	-0.831654	0.436497
O19	O	0.053643	-1.227605	-0.181647
O20	O	0.553643	-0.727605	0.318353
O21	O	-0.075949	-1.090396	0.015947
O22	O	0.424051	-0.590396	0.515947
O23	O	-0.069275	-0.992212	-0.132006
O24	O	0.430725	-0.492212	0.367994
O25	O	-0.085505	-1.159077	-0.323556
O26	O	0.414495	-0.659077	0.176444
O27	O	-0.118486	-1.011027	-0.225278
O28	O	0.381514	-0.511027	0.274722
O29	O	-0.011306	-1.252437	-0.304749
O30	O	0.488694	-0.752437	0.195251
O31	O	-0.195165	-1.208436	-0.088325
O32	O	0.304835	-0.708436	0.411675
O33	O	-0.190109	-1.134044	-0.200427
O34	O	0.309891	-0.634044	0.299573
C35	C	-0.096825	-0.974064	-0.184201
C36	C	0.403175	-0.474064	0.315799
C37	C	-0.105853	-0.889655	-0.201248
C38	C	0.394147	-0.389655	0.298752
C39	C	-0.043844	-1.211494	-0.342479
C40	C	0.456156	-0.711494	0.157521
C41	C	-0.030250	-1.228589	-0.426890
C42	C	0.469750	-0.728589	0.073110
C43	C	-0.211606	-1.171241	-0.144385
C44	C	0.288394	-0.671241	0.355615
C45	C	-0.269717	-1.171257	-0.144392
C46	C	0.230283	-0.671257	0.355608
C47	C	-0.518277	-1.132630	-0.202753
C48	C	-0.018277	-0.632630	0.297247
C49	C	-0.463677	-1.132600	-0.202750
C50	C	0.036323	-0.632600	0.297250
O51	O	-0.433219	-1.099628	-0.252371
O52	O	0.066781	-0.599628	0.247629
N53	N	-0.438975	-1.171361	-0.144412
N54	N	0.061025	-0.671361	0.355588
C55	C	-0.468874	-1.210160	-0.086078
C56	C	0.031126	-0.710160	0.413922
O57	O	-0.442849	-1.243127	-0.036458
O58	O	0.057151	-0.743127	0.463542
C59	C	-0.523472	-1.210194	-0.086085
C60	C	-0.023472	-0.710194	0.413915
C61	C	-0.548172	-1.171425	-0.144422
C62	C	-0.048172	-0.671425	0.355578
C63	C	-0.542978	-1.093864	-0.261086
C64	C	-0.042978	-0.593864	0.238914
C65	C	-0.597574	-1.093893	-0.261088
C66	C	-0.097574	-0.593893	0.238912
C67	C	-0.627470	-1.132688	-0.202757
C68	C	-0.127470	-0.632688	0.297243
C69	C	-0.602769	-1.171454	-0.144425
C70	C	-0.102769	-0.671454	0.355575
C71	C	-0.553368	-1.248998	-0.027755
C72	C	-0.053368	-0.748998	0.472245
C73	C	-0.607970	-1.249029	-0.027767
C74	C	-0.107970	-0.749029	0.472233
C75	C	-0.632671	-1.210260	-0.086104
C76	C	-0.132671	-0.710260	0.413896
C77	C	-0.687261	-1.210277	-0.086096
C78	C	-0.187261	-0.710277	0.413904
N79	N	-0.711963	-1.171516	-0.144434
N80	N	-0.211963	-0.671516	0.355566
C81	C	-0.682068	-1.132722	-0.202764
C82	C	-0.182068	-0.632722	0.297236
C83	C	-0.354214	-1.210087	-0.086069
C84	C	0.145786	-0.710087	0.413931
C85	C	-0.299618	-1.210049	-0.086059
C86	C	0.200382	-0.710049	0.413941
C87	C	-0.294425	-1.132489	-0.202731
C88	C	0.205575	-0.632489	0.297269
C89	C	-0.349023	-1.132524	-0.202738
C90	C	0.150977	-0.632524	0.297262
C91	C	-0.378917	-1.171326	-0.144407
C92	C	0.121083	-0.671326	0.355593
C93	C	-0.796724	-1.132785	-0.202764
C94	C	-0.296724	-0.632785	0.297236
C95	C	-0.851326	-1.132814	-0.202759
C96	C	-0.351326	-0.632814	0.297241
C97	C	-0.856514	-1.210377	-0.086089
C98	C	-0.356514	-0.710377	0.413911
C99	C	-0.801917	-1.210344	-0.086091
C100	C	-0.301917	-0.710344	0.413909
C101	C	-0.772023	-1.171547	-0.144435
C102	C	-0.272023	-0.671547	0.355565
O103	O	-0.717752	-1.243235	-0.036502
O104	O	-0.217752	-0.743235	0.463498
O105	O	-0.708098	-1.099769	-0.252382
O106	O	-0.208098	-0.599769	0.247618
C107	C	0.060654	-1.171540	-0.144419
C108	C	0.560654	-0.671540	0.355581
C109	C	0.118778	-1.171609	-0.144428
C110	C	0.618778	-0.671609	0.355572
C111	C	-0.054581	-1.369464	-0.104435
C112	C	0.445419	-0.869464	0.395565
C113	C	-0.045563	-1.453876	-0.087406
C114	C	0.454437	-0.953876	0.412594
C115	C	-0.007149	-0.563036	-0.014898
C116	C	0.492851	-0.063036	0.485102
C117	C	-0.015641	-0.483723	-0.030927
C118	C	0.484359	0.016277	0.469073
C119	C	-0.067003	-0.503336	-0.127883
C120	C	0.432997	-0.003336	0.372117
C121	C	-0.058513	-0.582653	-0.111865
C122	C	0.441487	-0.082653	0.388135
C123	C	-0.028586	-0.612496	-0.055372
C124	C	0.471414	-0.112496	0.444628
C125	C	-0.079950	-0.632112	-0.152339
C126	C	0.420050	-0.132112	0.347661
C127	C	-0.071463	-0.711421	-0.136319
C128	C	0.428537	-0.211421	0.363681
C129	C	-0.041539	-0.741270	-0.079826
C130	C	0.458461	-0.241270	0.420174
C131	C	-0.020099	-0.691804	-0.039352
C132	C	0.479901	-0.191804	0.460648
C133	C	-0.109880	-0.602267	-0.208829
C134	C	0.390120	-0.102267	0.291171
C135	C	-0.131317	-0.651727	-0.249302
C136	C	0.368683	-0.151727	0.250698
C137	C	-0.122827	-0.731038	-0.233287
C138	C	0.377173	-0.231038	0.266713
C139	C	-0.092903	-0.760887	-0.176794
C140	C	0.407097	-0.260887	0.323206
C141	C	-0.144267	-0.780503	-0.273761
C142	C	0.355733	-0.280503	0.226239
C143	C	-0.135780	-0.859812	-0.257742
C144	C	0.364220	-0.359812	0.242258
C145	C	-0.084416	-0.840196	-0.160774
C146	C	0.415584	-0.340196	0.339226
C147	C	-0.178701	-1.041802	-0.753462
C148	C	0.321299	-0.541802	-0.253462
C149	C	-0.165919	-1.057882	-0.832776
C150	C	0.334081	-0.557882	-0.332776
C151	C	-0.088661	-1.155089	-0.813183
C152	C	0.411339	-0.655089	-0.313183
C153	C	-0.101435	-1.139016	-0.733866
C154	C	0.398565	-0.639016	-0.233866
C155	C	-0.146456	-1.082372	-0.704013
C156	C	0.353544	-0.582372	-0.204013
C157	C	-0.069191	-1.179585	-0.684417
C158	C	0.430809	-0.679585	-0.184417
C159	C	-0.081966	-1.163515	-0.605106
C160	C	0.418034	-0.663515	-0.105106
C161	C	-0.126985	-1.106876	-0.575246
C162	C	0.373015	-0.606876	-0.075246
C163	C	-0.159231	-1.066302	-0.624702
C164	C	0.340769	-0.566302	-0.124702
C165	C	-0.024172	-1.236232	-0.714271
C166	C	0.475828	-0.736232	-0.214271
C167	C	0.008072	-1.276802	-0.664821
C168	C	0.508072	-0.776802	-0.164821
C169	C	-0.004700	-1.260728	-0.585510
C170	C	0.495300	-0.760728	-0.085510
C171	C	-0.049720	-1.204089	-0.555650
C172	C	0.450280	-0.704089	-0.055650
C173	C	0.027546	-1.301302	-0.536054
C174	C	0.527546	-0.801302	-0.036054
C175	C	0.014771	-1.285232	-0.456744
C176	C	0.514771	-0.785232	0.043256
C177	C	-0.062494	-1.188019	-0.476340
C178	C	0.437506	-0.688019	0.023660
C179	C	-0.107478	-1.131463	0.052926
C180	C	0.392522	-0.631463	0.552926
C181	C	-0.120909	-1.114515	0.137366
C182	C	0.379091	-0.614515	0.637366
H183	H	-0.871435	-1.101242	-0.250266
H184	H	-0.371435	-0.601242	0.249734
F185	F	-0.052560	-0.871962	-0.100652
F186	F	0.447440	-0.371962	0.399348
H187	H	0.064198	-1.347426	-0.560372
H188	H	0.564198	-0.847426	-0.060372
H189	H	-0.034630	-0.805849	-0.066783
H190	H	0.465370	-0.305849	0.433217
F191	F	-0.273338	-1.251302	-0.023961
F192	F	0.226662	-0.751302	0.476039
H193	H	-0.195881	-1.020159	-0.600398
H194	H	0.304119	-0.520159	-0.100398
F195	F	-0.118919	-0.517856	-0.225869
F196	F	0.381081	-0.017856	0.274131
F197	F	-0.163173	-0.619955	-0.309417
F198	F	0.336827	-0.119955	0.190583
F199	F	-0.176127	-0.748729	-0.333872
F200	F	0.323873	-0.248729	0.166128
F201	F	-0.226614	-0.981509	-0.721687
F202	F	0.273386	-0.481509	-0.221687
F203	F	-0.775632	-1.251590	-0.023992
F204	F	-0.275632	-0.751590	0.476008
H205	H	-0.091371	-0.479026	-0.173878
H206	H	0.408629	0.020974	0.326122
F207	F	-0.010579	-1.253337	-0.798681
F208	F	0.489421	-0.753337	-0.298681
F209	F	-0.375307	-1.091260	-0.264828
F210	F	0.124693	-0.591260	0.235172
F211	F	-0.200241	-1.014695	-0.885404
F212	F	0.299759	-0.514695	-0.385404
F213	F	-0.511169	-1.052571	-0.323176
F214	F	-0.011169	-0.552571	0.176824
F215	F	-0.262599	-1.091199	-0.264812
F216	F	0.237401	-0.591199	0.235188
H217	H	-0.880865	-1.241959	-0.038596
H218	H	-0.380865	-0.741959	0.461404
F219	F	-0.386026	-1.251383	-0.023977
F220	F	0.113974	-0.751383	0.476023
F221	F	0.049088	-1.328413	-0.404112
F222	F	0.549088	-0.828413	0.095888
F223	F	-0.527090	-1.290271	0.034331
F224	F	-0.027090	-0.790271	0.534331
F225	F	-0.110407	-1.127726	-0.444564
F226	F	0.389593	-0.627726	0.055436
H227	H	-0.772390	-1.101194	-0.250274
H228	H	-0.272390	-0.601194	0.249726
H229	H	-0.153236	-0.900084	-0.290700
H230	H	0.346764	-0.400084	0.209300
F231	F	-0.140584	-1.089776	-0.490835
F232	F	0.359416	-0.589776	0.009165
H233	H	0.044727	-1.322923	-0.689139
H234	H	0.544727	-0.822923	-0.189139
F235	F	-0.623854	-1.052639	-0.323186
F236	F	-0.123854	-0.552639	0.176814
H237	H	-0.052007	-1.201210	-0.837501
H238	H	0.447993	-0.701210	-0.337501
H239	H	-0.632306	-1.280631	0.019732
H240	H	-0.132306	-0.780631	0.519732
H241	H	0.017231	-0.587338	0.031094
H242	H	0.517231	-0.087338	0.531094
F243	F	0.011757	-0.723571	0.020771
F244	F	0.511757	-0.223571	0.520771
F245	F	0.007174	-0.431085	0.012160
F246	F	0.507174	0.068915	0.512160
