data_functionalizedCrystal
_audit_creation_method	'MofGen! by Chris Wilmer'
_symmetry_space_group_name_H-M	'P1'
_symmetry_Int_Tables_number	1
_symmetry_cell_setting	triclinic
loop_
_symmetry_equiv_pos_as_xyz
  x,y,z
_cell_length_a	21.295418
_cell_length_b	29.839131
_cell_length_c	21.295411
_cell_angle_alpha	89.979636
_cell_angle_beta	89.956262
_cell_angle_gamma	90.057233
loop_
_atom_site_label
_atom_site_type_symbol
_atom_site_fract_x
_atom_site_fract_y
_atom_site_fract_z
Zn1	Zn	0.962308	-0.178715	-0.356239
Zn2	Zn	0.962190	-0.253830	-0.250967
Zn3	Zn	0.857031	-0.178736	-0.250949
Zn4	Zn	0.856981	-0.253839	-0.356163
O5	O	0.909628	-0.216280	-0.303580
O6	O	1.050382	-0.188667	-0.342314
O7	O	0.948213	-0.243874	-0.162875
O8	O	0.871067	-0.115866	-0.264940
O9	O	1.050295	-0.243854	-0.264971
O10	O	0.948413	-0.115851	-0.342296
O11	O	0.870953	-0.188703	-0.162862
O12	O	0.768935	-0.188711	-0.264867
O13	O	0.870981	-0.243869	-0.444263
O14	O	0.768898	-0.243889	-0.342167
O15	O	0.948364	-0.188675	-0.444319
O16	O	0.948164	-0.316699	-0.264897
O17	O	0.870866	-0.316705	-0.342185
C18	C	0.746076	-0.216304	-0.303507
C19	C	0.676108	-0.216325	-0.303491
C20	C	0.643238	-0.245094	-0.343681
C21	C	0.577496	-0.245083	-0.343710
C22	C	0.544625	-0.216307	-0.303536
C23	C	0.577503	-0.187532	-0.263343
C24	C	0.643244	-0.187541	-0.263321
N25	N	0.441350	-0.212791	-0.248479
N26	N	0.378899	-0.212785	-0.248502
C27	C	0.346551	-0.216279	-0.303603
N28	N	0.379013	-0.219787	-0.358681
N29	N	0.441470	-0.219795	-0.358657
C30	C	0.473340	-0.216294	-0.303557
C31	C	0.242396	-0.245037	-0.343827
C32	C	0.176652	-0.245023	-0.343857
C33	C	0.176660	-0.187475	-0.263485
C34	C	0.242403	-0.187487	-0.263461
C35	C	0.275266	-0.216271	-0.303632
C36	C	0.909514	-0.333003	-0.303548
C37	C	0.909523	-0.382937	-0.303556
C38	C	0.949949	-0.692564	-0.263395
C39	C	0.950027	-0.880238	-0.263419
O40	O	0.984309	-0.904489	-0.229249
N41	N	0.909758	-0.903722	-0.303627
C42	C	0.869470	-0.880286	-0.343835
O43	O	0.835225	-0.904567	-0.378039
C44	C	0.869396	-0.692614	-0.343813
C45	C	0.909663	-0.669131	-0.303598
C46	C	0.990214	-0.669082	-0.223184
C47	C	0.990192	-0.622167	-0.223176
C48	C	0.949905	-0.598734	-0.263379
C49	C	0.909641	-0.622216	-0.303590
C50	C	0.829111	-0.669178	-0.384023
C51	C	0.829097	-0.622257	-0.384015
C52	C	0.869364	-0.598775	-0.343800
C53	C	0.869332	-0.551867	-0.343785
N54	N	0.909601	-0.528383	-0.303577
C55	C	0.949887	-0.551816	-0.263374
C56	C	0.869511	-0.978816	-0.343842
C57	C	0.869528	-1.025734	-0.343847
C58	C	0.950087	-1.025683	-0.263432
C59	C	0.950065	-0.978764	-0.263425
C60	C	0.909780	-0.955332	-0.303634
C61	C	0.949837	-0.453290	-0.263359
C62	C	0.949810	-0.406370	-0.263353
C63	C	0.869254	-0.406426	-0.343770
C64	C	0.869279	-0.453341	-0.343774
C65	C	0.909576	-0.476772	-0.303567
O66	O	0.835073	-0.527587	-0.377942
O67	O	0.984137	-0.527526	-0.229185
C68	C	0.949972	-0.739480	-0.263403
C69	C	0.909707	-0.762962	-0.303614
C70	C	0.869421	-0.739529	-0.343817
C71	C	0.909725	-0.809880	-0.303619
C72	C	0.950012	-0.833313	-0.263416
C73	C	0.990281	-0.809829	-0.223208
C74	C	0.990258	-0.762913	-0.223200
C75	C	0.829152	-0.763014	-0.384025
C76	C	0.829177	-0.809929	-0.384029
C77	C	0.869463	-0.833362	-0.343826
C78	C	1.073818	-0.216257	-0.303653
C79	C	1.143786	-0.216247	-0.303684
C80	C	0.909680	-0.216271	-0.467770
C81	C	0.909702	-0.216267	-0.537738
C82	C	0.909759	-0.099102	-0.303625
C83	C	0.909815	-0.049167	-0.303644
C84	C	0.949994	-0.187526	-0.570635
C85	C	0.949993	-0.187507	-0.636377
C86	C	0.909707	-0.216236	-0.669221
C87	C	0.869407	-0.244978	-0.636316
C88	C	0.869405	-0.244994	-0.570575
N89	N	0.904840	-0.255537	-0.772436
N90	N	0.904846	-0.255521	-0.834887
C91	C	0.909711	-0.216190	-0.867295
N92	N	0.914582	-0.176875	-0.834893
N93	N	0.914580	-0.176891	-0.772436
C94	C	0.909705	-0.216222	-0.740506
C95	C	0.950004	-0.187426	-0.971478
C96	C	0.949999	-0.187406	-1.037221
C97	C	0.869416	-0.244882	-1.037159
C98	C	0.869418	-0.244898	-0.971417
C99	C	0.909716	-0.216171	-0.938580
C100	C	0.909612	-0.216257	-0.140028
C101	C	0.909712	-0.216135	-0.070060
H102	H	0.550728	-0.268510	-0.376440
H103	H	0.796346	-0.743938	-0.416764
C104	C	0.140494	-0.276672	-0.388071
C105	C	0.149439	-0.327739	-0.382792
C106	C	0.113281	-0.359388	-0.427007
C107	C	0.068177	-0.339970	-0.476500
C108	C	0.059230	-0.288900	-0.481781
C109	C	0.095388	-0.257251	-0.437566
H110	H	0.182829	-0.342116	-0.346152
H111	H	0.119904	-0.397193	-0.423097
H112	H	0.041411	-0.363398	-0.509230
H113	H	0.025840	-0.274523	-0.518421
H114	H	0.088765	-0.219445	-0.441476
H115	H	0.982813	-0.164032	-0.944741
H116	H	0.836604	-0.268368	-0.663061
C117	C	0.541349	-0.155879	-0.219151
C118	C	0.469036	-0.155870	-0.219171
C119	C	0.432882	-0.124215	-0.174979
C120	C	0.469042	-0.092568	-0.130768
C121	C	0.541359	-0.092575	-0.130746
C122	C	0.577512	-0.124231	-0.174938
H123	H	0.442265	-0.179299	-0.251900
H124	H	0.379349	-0.124209	-0.174995
H125	H	0.442279	-0.069134	-0.098054
H126	H	0.568130	-0.069147	-0.098017
H127	H	0.631046	-0.124237	-0.174922
C128	C	0.679385	-0.276751	-0.387875
C129	C	0.670254	-0.327816	-0.382612
C130	C	0.706401	-0.359472	-0.426808
C131	C	0.751681	-0.340064	-0.476266
C132	C	0.760815	-0.288996	-0.481531
C133	C	0.724667	-0.257340	-0.437336
H134	H	0.636733	-0.342186	-0.345998
H135	H	0.699640	-0.397276	-0.422910
H136	H	0.778440	-0.363498	-0.508983
H137	H	0.794335	-0.274627	-0.518145
H138	H	0.731429	-0.219536	-0.441233
C139	C	0.994321	-0.155787	-1.073411
C140	C	1.038643	-0.124190	-1.037288
C141	C	1.082965	-0.092570	-1.073478
C142	C	1.082964	-0.092548	-1.145791
C143	C	1.038641	-0.124146	-1.181918
C144	C	0.994319	-0.155766	-1.145728
H145	H	1.038645	-0.124206	-0.983754
H146	H	1.115776	-0.069179	-1.046734
H147	H	1.115774	-0.069141	-1.172581
H148	H	1.038639	-0.124130	-1.235452
H149	H	0.961507	-0.179157	-1.172471
C150	C	0.278561	-0.155846	-0.219239
C151	C	0.269613	-0.104778	-0.224501
C152	C	0.305769	-0.073136	-0.180276
C153	C	0.350874	-0.092561	-0.130789
C154	C	0.359824	-0.143632	-0.125525
C155	C	0.323667	-0.175274	-0.169750
H156	H	0.236222	-0.090396	-0.261136
H157	H	0.299143	-0.035330	-0.184173
H158	H	0.377639	-0.069137	-0.098051
H159	H	0.393215	-0.158014	-0.088890
H160	H	0.330293	-0.213080	-0.165853
H161	H	1.022982	-0.603050	-0.190431
H162	H	0.982600	-0.387253	-0.230603
H163	H	0.149898	-0.164043	-0.230778
H164	H	0.796381	-0.829044	-0.416777
C165	C	0.784779	-0.596482	-0.428245
C166	C	0.735354	-0.564283	-0.400905
C167	C	0.691035	-0.538508	-0.445133
C168	C	0.696142	-0.544933	-0.516701
C169	C	0.745569	-0.577133	-0.544045
C170	C	0.789887	-0.602907	-0.499817
H171	H	0.731572	-0.559526	-0.347922
H172	H	0.654446	-0.514672	-0.424890
H173	H	0.663334	-0.525853	-0.549441
H174	H	0.749351	-0.581890	-0.597028
H175	H	0.826476	-0.626744	-0.520060
H176	H	1.023082	-0.828916	-0.190472
H177	H	0.836608	-0.268269	-1.063899
C178	C	0.825102	-0.276518	-0.935226
C179	C	0.780787	-0.308120	-0.971348
C180	C	0.736467	-0.339741	-0.935157
C181	C	0.736463	-0.339760	-0.862844
C182	C	0.780779	-0.308156	-0.826718
C183	C	0.825099	-0.276535	-0.862909
H184	H	0.780789	-0.308108	-1.024882
H185	H	0.703661	-0.363136	-0.961901
H186	H	0.703654	-0.363167	-0.836054
H187	H	0.780778	-0.308169	-0.773184
H188	H	0.857905	-0.253140	-0.836165
C189	C	0.679404	-0.155896	-0.219103
C190	C	0.670459	-0.104828	-0.224371
C191	C	0.706620	-0.073184	-0.180151
C192	C	0.751725	-0.092608	-0.130664
C193	C	0.760671	-0.143679	-0.125394
C194	C	0.724511	-0.175323	-0.169614
H195	H	0.637068	-0.090447	-0.261007
H196	H	0.699997	-0.035378	-0.184053
H197	H	0.778493	-0.069183	-0.097929
H198	H	0.794063	-0.158060	-0.088758
H199	H	0.731134	-0.213129	-0.165712
H200	H	0.269155	-0.268472	-0.376540
C201	C	0.994159	-0.479060	-0.219128
C202	C	0.989046	-0.472631	-0.147561
C203	C	1.033363	-0.498401	-0.103326
C204	C	1.082794	-0.530599	-0.130659
C205	C	1.087909	-0.537029	-0.202230
C206	C	1.043592	-0.511259	-0.246464
H207	H	0.952453	-0.448795	-0.127324
H208	H	1.029577	-0.493641	-0.050344
H209	H	1.115600	-0.549675	-0.097914
H210	H	1.124502	-0.560865	-0.222466
H211	H	1.047379	-0.516019	-0.299446
C212	C	1.034532	-0.694853	-0.178953
C213	C	1.007293	-0.727143	-0.129494
C214	C	1.051611	-0.752909	-0.085255
C215	C	1.123167	-0.746385	-0.090475
C216	C	1.150409	-0.714093	-0.139936
C217	C	1.106091	-0.688327	-0.184175
H218	H	0.954320	-0.731974	-0.125628
H219	H	1.031444	-0.776814	-0.048641
H220	H	1.155973	-0.765459	-0.057727
H221	H	1.203382	-0.709262	-0.143802
H222	H	1.126258	-0.664422	-0.220789
C223	C	0.994364	-0.952936	-0.219193
C224	C	0.989265	-0.959416	-0.147626
C225	C	1.033567	-0.933590	-0.103393
C226	C	1.082966	-0.901284	-0.130727
C227	C	1.088067	-0.894803	-0.202297
C228	C	1.043765	-0.920628	-0.246530
H229	H	0.952695	-0.983331	-0.127388
H230	H	1.029791	-0.938388	-0.050411
H231	H	1.115761	-0.882166	-0.097983
H232	H	1.124637	-0.870887	-0.222535
H233	H	1.047541	-0.915830	-0.299512
H234	H	0.836591	-0.268397	-0.543791
C235	C	0.825229	-1.051562	-0.388079
C236	C	0.780919	-1.025779	-0.432302
C237	C	0.736621	-1.051605	-0.476539
C238	C	0.736633	-1.103212	-0.476553
C239	C	0.780944	-1.128998	-0.432329
C240	C	0.825242	-1.103172	-0.388092
H241	H	0.780909	-0.987573	-0.432293
H242	H	0.703819	-1.032516	-0.509277
H243	H	0.703841	-1.122330	-0.509300
H244	H	0.780954	-1.167203	-0.432337
H245	H	0.858044	-1.122260	-0.355354
H246	H	0.982890	-1.044770	-0.230698
H247	H	0.982807	-0.164134	-0.543903
C248	C	0.825189	-0.953046	-0.388075
C249	C	0.753634	-0.959570	-0.382844
C250	C	0.709311	-0.933802	-0.427076
C251	C	0.736543	-0.901511	-0.476538
C252	C	0.808101	-0.894986	-0.481770
C253	C	0.852425	-0.920753	-0.437539
H254	H	0.733472	-0.983475	-0.346228
H255	H	0.656338	-0.938633	-0.423202
H256	H	0.703732	-0.882437	-0.509280
H257	H	0.828263	-0.871081	-0.518387
H258	H	0.905397	-0.915923	-0.441412
C259	C	0.784818	-0.694998	-0.428266
C260	C	0.713257	-0.688607	-0.423048
C261	C	0.668961	-0.714425	-0.467296
C262	C	0.696227	-0.746634	-0.516761
C263	C	0.767792	-0.753027	-0.521982
C264	C	0.812087	-0.727209	-0.477734
H265	H	0.693070	-0.664762	-0.386428
H266	H	0.615984	-0.709693	-0.463431
H267	H	0.663437	-0.765747	-0.549516
H268	H	0.787979	-0.776872	-0.558601
H269	H	0.865064	-0.731941	-0.481598
C270	C	0.994321	-0.155894	-0.672575
C271	C	1.065877	-0.159561	-0.663591
C272	C	1.110206	-0.127949	-0.699787
C273	C	1.082978	-0.092672	-0.744968
C274	C	1.011418	-0.089003	-0.753955
C275	C	0.967089	-0.120615	-0.717759
H276	H	1.086036	-0.185677	-0.630143
H277	H	1.163180	-0.130665	-0.693134
H278	H	1.115792	-0.069271	-0.771763
H279	H	0.991258	-0.062887	-0.787403
H280	H	0.914115	-0.117899	-0.724412
H281	H	0.836492	-0.472462	-0.376522
H282	H	0.836451	-0.387339	-0.376501
H283	H	1.023048	-0.743797	-0.190453
