data_functionalizedCrystal
_audit_creation_method	'MofGen! by Chris Wilmer'
_symmetry_space_group_name_H-M	'P1'
_symmetry_Int_Tables_number	1
_symmetry_cell_setting	triclinic
loop_
_symmetry_equiv_pos_as_xyz
  x,y,z
_cell_length_a	14.519731
_cell_length_b	13.596369
_cell_length_c	10.654550
_cell_angle_alpha	89.995191
_cell_angle_beta	95.913122
_cell_angle_gamma	90.005416
loop_
_atom_site_label
_atom_site_type_symbol
_atom_site_fract_x
_atom_site_fract_y
_atom_site_fract_z
O1	O	1.224711	0.081791	-0.164753
O2	O	1.724711	0.581791	0.335247
O3	O	0.956337	0.081792	-0.184111
O4	O	1.456337	0.581792	0.315889
O5	O	1.096694	0.081788	0.008366
O6	O	1.596694	0.581788	0.508366
O7	O	1.084353	0.081795	-0.357230
O8	O	1.584353	0.581795	0.142770
O9	O	1.096680	-0.081795	0.008376
O10	O	1.596680	0.418205	0.508376
O11	O	0.956323	-0.081791	-0.184101
O12	O	1.456323	0.418209	0.315899
O13	O	1.224696	-0.081792	-0.164742
O14	O	1.724696	0.418208	0.335258
Zn15	Zn	1.090507	-0.107764	-0.174420
Zn16	Zn	1.590507	0.392236	0.325580
Zn17	Zn	1.090526	0.107764	-0.174434
Zn18	Zn	1.590526	0.607764	0.325566
O19	O	1.084339	-0.081788	-0.357220
O20	O	1.584339	0.418212	0.142780
C21	C	0.921965	0.000001	-0.183199
C22	C	1.421965	0.500001	0.316801
C23	C	0.819571	0.000001	-0.180481
C24	C	1.319571	0.500001	0.319519
C25	C	0.736415	0.000005	-0.178272
C26	C	1.236415	0.500005	0.321728
C27	C	0.632092	0.000006	-0.175513
C28	C	1.132092	0.500006	0.324487
C29	C	0.548942	0.000005	-0.173322
C30	C	1.048942	0.500005	0.326678
C31	C	0.444612	0.000008	-0.170563
C32	C	0.944612	0.500008	0.329437
N33	N	1.090501	-0.254855	-0.174410
N34	N	1.590501	0.245145	0.325590
C35	C	1.090525	-0.656146	-0.174435
C36	C	1.590525	-0.156146	0.325565
C37	C	1.090515	-0.544495	-0.174432
C38	C	1.590515	-0.044495	0.325568
C39	C	1.090513	-0.455505	-0.174423
C40	C	1.590513	0.044495	0.325577
C41	C	1.090503	-0.343846	-0.174419
C42	C	1.590503	0.156154	0.325581
C43	C	1.259068	0.000002	-0.165655
C44	C	1.759068	0.500002	0.334345
C45	C	1.361462	0.000007	-0.168373
C46	C	1.861462	0.500007	0.331627
C47	C	1.095781	-0.000002	0.055160
C48	C	1.595781	0.499998	0.555160
C49	C	1.093070	0.000001	0.194578
C50	C	1.593070	0.500001	0.694578
N51	N	1.090539	0.254856	-0.174434
N52	N	1.590539	0.754856	0.325566
C53	C	1.085252	0.000005	-0.404014
C54	C	1.585252	0.500005	0.095986
C55	C	1.087963	0.000008	-0.543432
C56	C	1.587963	0.500008	-0.043432
C57	C	1.175710	-0.000002	0.274850
C58	C	1.675710	0.499998	0.774850
C59	C	1.173157	0.000005	0.405846
C60	C	1.673157	0.500005	0.905846
C61	C	1.005317	0.000014	0.376286
C62	C	1.505317	0.500014	0.876286
C63	C	1.007871	0.000014	0.245292
C64	C	1.507871	0.500014	0.745292
C65	C	1.272611	-0.000012	0.291917
C66	C	1.772611	0.499988	0.791917
C67	C	1.270059	-0.000005	0.422913
C68	C	1.770059	0.499995	0.922913
H69	H	0.940577	0.000031	0.179939
H70	H	1.440577	0.500031	0.679939
H71	H	1.303462	-0.070644	0.256588
H72	H	1.803462	0.429356	0.756588
O73	O	1.308857	0.093543	0.483761
O74	O	1.808857	0.593543	0.983761
H75	H	1.382082	0.102284	0.464439
H76	H	1.882082	0.602284	0.964439
O77	O	0.913425	0.000013	0.430984
O78	O	1.413425	0.500013	0.930984
H79	H	0.925531	0.000005	0.535558
H80	H	1.425531	0.500005	1.035558
O81	O	1.322810	0.090665	0.253479
O82	O	1.822810	0.590665	0.753479
H83	H	1.345353	0.135065	0.338546
H84	H	1.845353	0.635065	0.838546
O85	O	1.318398	-0.090687	0.478711
O86	O	1.818398	0.409313	0.978711
H87	H	1.344079	-0.135093	0.402140
H88	H	1.844079	0.364907	0.902140
