data_functionalizedCrystal
_audit_creation_method	'MofGen! by Chris Wilmer'
_symmetry_space_group_name_H-M	'P1'
_symmetry_Int_Tables_number	1
_symmetry_cell_setting	triclinic
loop_
_symmetry_equiv_pos_as_xyz
  x,y,z
_cell_length_a	22.010155
_cell_length_b	23.532407
_cell_length_c	23.532407
_cell_angle_alpha	97.151322
_cell_angle_beta	90.000423
_cell_angle_gamma	89.996931
loop_
_atom_site_label
_atom_site_type_symbol
_atom_site_fract_x
_atom_site_fract_y
_atom_site_fract_z
O1	O	0.050455	-0.755264	0.069127
O2	O	0.383789	-0.421930	0.402460
O3	O	0.717122	-0.088597	0.735794
O4	O	0.050474	-0.589400	0.079130
O5	O	0.383807	-0.256067	0.412463
O6	O	0.717141	0.077266	0.745797
O7	O	0.050453	-0.677334	-0.008803
O8	O	0.383786	-0.344000	0.324530
O9	O	0.717120	-0.010667	0.657863
O10	O	0.050476	-0.667330	0.157060
O11	O	0.383810	-0.333997	0.490393
O12	O	0.717143	-0.000664	0.823727
O13	O	-0.050597	-0.677318	-0.008790
O14	O	0.282736	-0.343984	0.324543
O15	O	0.616069	-0.010651	0.657877
O16	O	-0.050576	-0.589384	0.079143
O17	O	0.282757	-0.256051	0.412477
O18	O	0.616090	0.077282	0.745810
O19	O	-0.050595	-0.755248	0.069140
O20	O	0.282738	-0.421914	0.402473
O21	O	0.616072	-0.088581	0.735807
Cu22	Cu	-0.059812	-0.672315	0.074143
Cu23	Cu	0.273521	-0.338981	0.407476
Cu24	Cu	0.606854	-0.005648	0.740810
Cu25	Cu	0.059691	-0.672333	0.074127
Cu26	Cu	0.393025	-0.339000	0.407461
Cu27	Cu	0.726358	-0.005667	0.740794
O28	O	-0.050574	-0.667314	0.157073
O29	O	0.282759	-0.333981	0.490407
O30	O	0.616093	-0.000648	0.823740
C31	C	-0.000049	-0.568176	0.078882
C32	C	0.333285	-0.234843	0.412215
C33	C	0.666618	0.098490	0.745549
C34	C	-0.000042	-0.504959	0.078116
C35	C	0.333291	-0.171626	0.411449
C36	C	0.666625	0.161707	0.744783
N37	N	-0.143865	-0.672305	0.074153
N38	N	0.189469	-0.338972	0.407487
N39	N	0.522802	-0.005639	0.740820
C40	C	-0.000074	-0.677071	-0.030013
C41	C	0.333260	-0.343738	0.303321
C42	C	0.666593	-0.010404	0.636654
C43	C	-0.000078	-0.676305	-0.093230
C44	C	0.333255	-0.342972	0.240104
C45	C	0.666588	-0.009638	0.573437
C46	C	-0.563653	-0.711273	0.035196
C47	C	-0.230320	-0.377939	0.368529
C48	C	0.103013	-0.044606	0.701863
C49	C	-0.627261	-0.711275	0.035192
C50	C	-0.293928	-0.377942	0.368525
C51	C	0.039406	-0.044609	0.701859
O52	O	-0.660160	-0.744384	0.002076
O53	O	-0.326827	-0.411050	0.335410
O54	O	0.006506	-0.077717	0.668743
N55	N	-0.659072	-0.672333	0.074115
N56	N	-0.325739	-0.339000	0.407449
N57	N	0.007595	-0.005667	0.740782
C58	C	-0.627272	-0.633382	0.113041
C59	C	-0.293938	-0.300049	0.446375
C60	C	0.039395	0.033285	0.779708
O61	O	-0.660170	-0.600259	0.146148
O62	O	-0.326837	-0.266925	0.479481
O63	O	0.006497	0.066408	0.812815
C64	C	-0.563665	-0.633377	0.113042
C65	C	-0.230332	-0.300044	0.446375
C66	C	0.103001	0.033289	0.779709
C67	C	-0.531858	-0.672326	0.074120
C68	C	-0.198524	-0.338992	0.407453
C69	C	0.134809	-0.005659	0.740787
C70	C	-0.531846	-0.750217	-0.003723
C71	C	-0.198513	-0.416884	0.329610
C72	C	0.134821	-0.083551	0.662943
C73	C	-0.468243	-0.750215	-0.003719
C74	C	-0.134909	-0.416882	0.329615
C75	C	0.198424	-0.083549	0.662948
C76	C	-0.436447	-0.711268	0.035205
C77	C	-0.103114	-0.377935	0.368539
C78	C	0.230220	-0.044602	0.701872
C79	C	-0.468255	-0.672324	0.074125
C80	C	-0.134921	-0.338990	0.407458
C81	C	0.198412	-0.005657	0.740791
C82	C	-0.531866	-0.594424	0.151965
C83	C	-0.198533	-0.261091	0.485298
C84	C	0.134800	0.072243	0.818632
C85	C	-0.468256	-0.594422	0.151962
C86	C	-0.134922	-0.261089	0.485295
C87	C	0.198411	0.072245	0.818629
C88	C	-0.436448	-0.633370	0.113040
C89	C	-0.103115	-0.300037	0.446373
C90	C	0.230219	0.033296	0.779707
C91	C	-0.372856	-0.633374	0.113054
C92	C	-0.039522	-0.300041	0.446387
C93	C	0.293811	0.033292	0.779720
N94	N	-0.341045	-0.672317	0.074130
N95	N	-0.007712	-0.338983	0.407464
N96	N	0.325622	-0.005650	0.740797
C97	C	-0.372841	-0.711263	0.035206
C98	C	-0.039507	-0.377930	0.368540
C99	C	0.293826	-0.044597	0.701873
C100	C	-0.760850	-0.633395	0.113036
C101	C	-0.427516	-0.300061	0.446369
C102	C	-0.094183	0.033272	0.779703
C103	C	-0.824455	-0.633402	0.113039
C104	C	-0.491122	-0.300069	0.446372
C105	C	-0.157788	0.033265	0.779705
C106	C	-0.824440	-0.711294	0.035188
C107	C	-0.491106	-0.377961	0.368522
C108	C	-0.157773	-0.044628	0.701855
C109	C	-0.760833	-0.711290	0.035189
C110	C	-0.427500	-0.377956	0.368522
C111	C	-0.094167	-0.044623	0.701856
C112	C	-0.729039	-0.672337	0.074113
C113	C	-0.395705	-0.339003	0.407446
C114	C	-0.062372	-0.005670	0.740779
C115	C	-0.239269	-0.711256	0.035220
C116	C	0.094064	-0.377923	0.368553
C117	C	0.427397	-0.044590	0.701886
C118	C	-0.175660	-0.711252	0.035229
C119	C	0.157673	-0.377919	0.368563
C120	C	0.491006	-0.044586	0.701896
C121	C	-0.175681	-0.633358	0.113077
C122	C	0.157652	-0.300025	0.446411
C123	C	0.490986	0.033309	0.779744
C124	C	-0.239284	-0.633364	0.113070
C125	C	0.094049	-0.300031	0.446403
C126	C	0.427382	0.033303	0.779736
C127	C	-0.271077	-0.672315	0.074136
C128	C	0.062256	-0.338982	0.407469
C129	C	0.395590	-0.005649	0.740803
O130	O	-0.339916	-0.600282	0.146151
O131	O	-0.006583	-0.266948	0.479484
O132	O	0.326751	0.066385	0.812818
O133	O	-0.339935	-0.744376	0.002100
O134	O	-0.006601	-0.411043	0.335433
O135	O	0.326732	-0.077710	0.668767
N136	N	0.143744	-0.672347	0.074112
N137	N	0.477077	-0.339014	0.407445
N138	N	0.810411	-0.005680	0.740779
C139	C	-0.000071	-0.776472	0.069388
C140	C	0.333263	-0.443138	0.402722
C141	C	0.666596	-0.109805	0.736055
C142	C	-0.000073	-0.839689	0.070154
C143	C	0.333260	-0.506355	0.403487
C144	C	0.666593	-0.173022	0.736821
C145	C	-0.000063	-0.105856	0.125350
C146	C	0.333270	0.227477	0.458683
C147	C	0.666604	0.560810	0.792016
C148	C	-0.000067	-0.046456	0.124638
C149	C	0.333267	0.286877	0.457971
C150	C	0.666600	0.620211	0.791305
O151	O	-0.000083	-0.009711	0.168424
O152	O	0.333251	0.323622	0.501757
O153	O	0.666584	0.656955	0.835091
N154	N	-0.000073	-0.023830	0.072362
N155	N	0.333260	0.309504	0.405695
N156	N	0.666593	0.642837	0.739028
C157	C	-0.000082	-0.060607	0.020794
C158	C	0.333251	0.272726	0.354127
C159	C	0.666585	0.606059	0.687460
O160	O	-0.000088	-0.035908	-0.023737
O161	O	0.333245	0.297426	0.309596
O162	O	0.666578	0.630759	0.642930
C163	C	-0.000082	-0.120006	0.021506
C164	C	0.333251	0.213327	0.354839
C165	C	0.666584	0.546660	0.688172
C166	C	-0.000070	-0.142629	0.073785
C167	C	0.333263	0.190704	0.407119
C168	C	0.666597	0.524038	0.740452
C169	C	-0.000051	-0.128479	0.177625
C170	C	0.333282	0.204854	0.510958
C171	C	0.666615	0.538187	0.844292
C172	C	-0.000046	-0.187876	0.178336
C173	C	0.333287	0.145458	0.511670
C174	C	0.666620	0.478791	0.845003
C175	C	-0.000053	-0.224649	0.126772
C176	C	0.333280	0.108685	0.460105
C177	C	0.666614	0.442018	0.793439
C178	C	-0.000065	-0.202025	0.074497
C179	C	0.333268	0.131308	0.407830
C180	C	0.666602	0.464641	0.741163
C181	C	-0.000096	-0.156783	-0.030062
C182	C	0.333238	0.176550	0.303271
C183	C	0.666571	0.509884	0.636605
C184	C	-0.000097	-0.216185	-0.029345
C185	C	0.333237	0.117148	0.303988
C186	C	0.666570	0.450481	0.637321
C187	C	-0.000084	-0.238808	0.022934
C188	C	0.333249	0.094525	0.356268
C189	C	0.666583	0.427859	0.689601
C190	C	-0.000067	-0.298194	0.023643
C191	C	0.333266	0.035139	0.356977
C192	C	0.666600	0.368472	0.690310
N193	N	-0.000061	-0.320820	0.075920
N194	N	0.333273	0.012513	0.409253
N195	N	0.666606	0.345846	0.742586
C196	C	-0.000054	-0.284048	0.127484
C197	C	0.333280	0.049286	0.460817
C198	C	0.666613	0.382619	0.794151
C199	C	-0.000082	0.064135	0.019302
C200	C	0.333251	0.397468	0.352635
C201	C	0.666585	0.730802	0.685969
C202	C	-0.000077	0.123533	0.018589
C203	C	0.333256	0.456866	0.351923
C204	C	0.666590	0.790200	0.685256
C205	C	-0.000063	0.137680	0.122434
C206	C	0.333270	0.471014	0.455768
C207	C	0.666604	0.804347	0.789101
C208	C	-0.000064	0.078281	0.123146
C209	C	0.333270	0.411615	0.456480
C210	C	0.666603	0.744948	0.789813
C211	C	-0.000076	0.041509	0.071578
C212	C	0.333258	0.374842	0.404912
C213	C	0.666591	0.708176	0.738245
C214	C	-0.000043	-0.408784	0.128974
C215	C	0.333291	-0.075451	0.462307
C216	C	0.666624	0.257882	0.795640
C217	C	-0.000035	-0.468186	0.129680
C218	C	0.333298	-0.134853	0.463014
C219	C	0.666631	0.198480	0.796347
C220	C	-0.000052	-0.482329	0.025836
C221	C	0.333281	-0.148995	0.359169
C222	C	0.666614	0.184338	0.692503
C223	C	-0.000057	-0.422932	0.025129
C224	C	0.333277	-0.089598	0.358462
C225	C	0.666610	0.243735	0.691796
C226	C	-0.000054	-0.386160	0.076702
C227	C	0.333279	-0.052827	0.410036
C228	C	0.666613	0.280506	0.743369
O229	O	-0.000054	-0.334974	-0.020119
O230	O	0.333280	-0.001640	0.313214
O231	O	0.666613	0.331693	0.646547
O232	O	-0.000055	-0.308755	0.172007
O233	O	0.333278	0.024578	0.505340
O234	O	0.666611	0.357911	0.838674
C235	C	-0.000050	-0.723539	-0.492333
C236	C	0.333283	-0.390205	-0.158999
C237	C	0.666616	-0.056872	0.174334
C238	C	-0.000046	-0.722827	-0.551733
C239	C	0.333288	-0.389494	-0.218400
C240	C	0.666621	-0.056160	0.114934
O241	O	-0.000028	-0.766613	-0.588478
O242	O	0.333305	-0.433280	-0.255144
O243	O	0.666639	-0.099946	0.078189
N244	N	-0.000040	-0.670551	-0.574359
N245	N	0.333293	-0.337217	-0.241026
N246	N	0.666627	-0.003884	0.092307
C247	C	-0.000033	-0.618983	-0.537582
C248	C	0.333300	-0.285649	-0.204248
C249	C	0.666634	0.047684	0.129085
O250	O	-0.000027	-0.574452	-0.562281
O251	O	0.333306	-0.241119	-0.228948
O252	O	0.666639	0.092215	0.104385
C253	C	-0.000033	-0.619695	-0.478182
C254	C	0.333300	-0.286361	-0.144849
C255	C	0.666633	0.046972	0.188484
C256	C	-0.000045	-0.671974	-0.455560
C257	C	0.333288	-0.338641	-0.122227
C258	C	0.666622	-0.005308	0.211107
C259	C	-0.000061	-0.775814	-0.469710
C260	C	0.333272	-0.442481	-0.136376
C261	C	0.666606	-0.109147	0.196957
C262	C	-0.000067	-0.776525	-0.410313
C263	C	0.333266	-0.443192	-0.076980
C264	C	0.666600	-0.109859	0.256353
C265	C	-0.000062	-0.724961	-0.373540
C266	C	0.333271	-0.391628	-0.040207
C267	C	0.666605	-0.058294	0.293126
C268	C	-0.000051	-0.672685	-0.396164
C269	C	0.333282	-0.339352	-0.062830
C270	C	0.666616	-0.006019	0.270503
C271	C	-0.000022	-0.568127	-0.441406
C272	C	0.333311	-0.234794	-0.108073
C273	C	0.666644	0.098540	0.225261
C274	C	-0.000022	-0.568844	-0.382004
C275	C	0.333311	-0.235510	-0.048670
C276	C	0.666645	0.097823	0.284663
C277	C	-0.000034	-0.621123	-0.359381
C278	C	0.333300	-0.287790	-0.026048
C279	C	0.666633	0.045543	0.307286
C280	C	-0.000052	-0.621832	-0.299995
C281	C	0.333282	-0.288499	0.033339
C282	C	0.666615	0.044834	0.366672
N283	N	-0.000057	-0.674109	-0.277368
N284	N	0.333276	-0.340775	0.055965
N285	N	0.666610	-0.007442	0.389298
C286	C	-0.000062	-0.725673	-0.314141
C287	C	0.333271	-0.392340	0.019192
C288	C	0.666604	-0.059006	0.352525
C289	C	-0.000031	-0.617491	-0.662324
C290	C	0.333302	-0.284158	-0.328991
C291	C	0.666635	0.049176	0.004343
C292	C	-0.000035	-0.616778	-0.721722
C293	C	0.333298	-0.283445	-0.388389
C294	C	0.666631	0.049888	-0.055055
C295	C	-0.000047	-0.720623	-0.735869
C296	C	0.333287	-0.387290	-0.402536
C297	C	0.666620	-0.053957	-0.069203
C298	C	-0.000047	-0.721335	-0.676470
C299	C	0.333286	-0.388002	-0.343137
C300	C	0.666620	-0.054669	-0.009804
C301	C	-0.000037	-0.669767	-0.639698
C302	C	0.333297	-0.336434	-0.306365
C303	C	0.666630	-0.003101	0.026969
C304	C	-0.000075	-0.727163	-0.189405
C305	C	0.333258	-0.393829	0.143929
C306	C	0.666592	-0.060496	0.477262
C307	C	-0.000083	-0.727869	-0.130003
C308	C	0.333250	-0.394536	0.203331
C309	C	0.666583	-0.061203	0.536664
C310	C	-0.000069	-0.624025	-0.115860
C311	C	0.333264	-0.290692	0.217473
C312	C	0.666598	0.042642	0.550806
C313	C	-0.000064	-0.623318	-0.175257
C314	C	0.333270	-0.289985	0.158076
C315	C	0.666603	0.043349	0.491409
C316	C	-0.000065	-0.674891	-0.212029
C317	C	0.333269	-0.341558	0.121305
C318	C	0.666602	-0.008225	0.454638
O319	O	-0.000067	-0.578070	-0.263215
O320	O	0.333267	-0.244736	0.070118
O321	O	0.666600	0.088597	0.403451
O322	O	-0.000060	-0.770196	-0.289433
O323	O	0.333273	-0.436863	0.043900
O324	O	0.666607	-0.103529	0.377233
C325	C	-0.000046	-0.667577	0.178283
C326	C	0.333288	-0.334244	0.511616
C327	C	0.666621	-0.000910	0.844949
C328	C	-0.000037	-0.668343	0.241500
C329	C	0.333296	-0.335010	0.574833
C330	C	0.666629	-0.001676	0.908167
H331	H	-0.149765	-0.742971	0.003534
H332	H	0.183569	-0.409638	0.336868
H333	H	0.516902	-0.076304	0.670201
C334	C	-0.000093	-0.785379	-0.105121
C335	C	0.333241	-0.452046	0.228212
C336	C	0.666574	-0.118712	0.561546
H337	H	-0.000088	-0.815986	-0.135532
H338	H	0.333245	-0.482652	0.197801
H339	H	0.666579	-0.149319	0.531134
H340	H	-0.035333	-0.787813	-0.082246
H341	H	0.298001	-0.454480	0.251088
H342	H	0.631334	-0.121146	0.584421
H343	H	0.035149	-0.787821	-0.082243
H344	H	0.368482	-0.454487	0.251090
H345	H	0.701816	-0.121154	0.584424
C346	C	-0.000041	-0.777344	-0.776327
C347	C	0.333292	-0.444010	-0.442994
C348	C	0.666626	-0.110677	-0.109660
H349	H	-0.000031	-0.769428	-0.814942
H350	H	0.333303	-0.436094	-0.481608
H351	H	0.666636	-0.102761	-0.148275
H352	H	-0.035279	-0.798796	-0.769508
H353	H	0.298054	-0.465463	-0.436174
H354	H	0.631388	-0.132129	-0.102841
H355	H	0.035202	-0.798794	-0.769498
H356	H	0.368536	-0.465460	-0.436165
H357	H	0.701869	-0.132127	-0.102831
C358	C	-0.000028	-0.559271	-0.746601
C359	C	0.333306	-0.225938	-0.413267
C360	C	0.666639	0.107396	-0.079934
H361	H	-0.000021	-0.528666	-0.716188
H362	H	0.333313	-0.195333	-0.382855
H363	H	0.666646	0.138001	-0.049521
H364	H	-0.035262	-0.556825	-0.769481
H365	H	0.298071	-0.223491	-0.436148
H366	H	0.631404	0.109842	-0.102814
H367	H	0.035219	-0.556840	-0.769473
H368	H	0.368552	-0.223506	-0.436140
H369	H	0.701886	0.109827	-0.102807
H370	H	-0.000063	-0.817806	-0.499645
H371	H	0.333270	-0.484473	-0.166312
H372	H	0.666604	-0.151140	0.167022
C373	C	-0.000080	0.148414	-0.038916
C374	C	0.333253	0.481748	0.294417
C375	C	0.666587	0.815081	0.627750
H376	H	-0.000076	0.189057	-0.031961
H377	H	0.333258	0.522391	0.301372
H378	H	0.666591	0.855724	0.634706
H379	H	-0.035319	0.135771	-0.060131
H380	H	0.298014	0.469105	0.273203
H381	H	0.631348	0.802438	0.606536
H382	H	0.035162	0.135769	-0.060133
H383	H	0.368496	0.469103	0.273201
H384	H	0.701829	0.802436	0.606534
H385	H	-0.000106	-0.138375	-0.072634
H386	H	0.333227	0.194959	0.260700
H387	H	0.666560	0.528292	0.594033
C388	C	-0.000004	-0.510618	-0.466278
C389	C	0.333329	-0.177285	-0.132945
C390	C	0.666662	0.156048	0.200389
H391	H	0.000007	-0.480016	-0.435863
H392	H	0.333340	-0.146683	-0.102529
H393	H	0.666673	0.186651	0.230804
H394	H	-0.035239	-0.508166	-0.489157
H395	H	0.298094	-0.174833	-0.155824
H396	H	0.631428	0.158501	0.177510
H397	H	0.035242	-0.508189	-0.489151
H398	H	0.368576	-0.174855	-0.155818
H399	H	0.701909	0.158478	0.177516
C400	C	-0.140701	-0.590518	0.155891
C401	C	0.192633	-0.257185	0.489225
C402	C	0.525966	0.076148	0.822558
H403	H	-0.168750	-0.567324	0.179076
H404	H	0.164583	-0.233991	0.512409
H405	H	0.497916	0.099343	0.845742
H406	H	-0.115889	-0.566933	0.135521
H407	H	0.217444	-0.233599	0.468854
H408	H	0.550778	0.099734	0.802187
H409	H	-0.115887	-0.610871	0.179498
H410	H	0.217446	-0.277538	0.512831
H411	H	0.550780	0.055795	0.846165
H412	H	-0.000073	-0.769159	-0.219337
H413	H	0.333260	-0.435826	0.113996
H414	H	0.666593	-0.102492	0.447329
H415	H	-0.000013	-0.526850	-0.352066
H416	H	0.333320	-0.193516	-0.018732
H417	H	0.666654	0.139817	0.314601
C418	C	-0.000050	-0.565812	-0.200144
C419	C	0.333284	-0.232479	0.133190
C420	C	0.666617	0.100854	0.466523
H421	H	-0.000043	-0.535205	-0.169733
H422	H	0.333290	-0.201872	0.163600
H423	H	0.666623	0.131462	0.496933
H424	H	-0.035281	-0.563364	-0.223029
H425	H	0.298053	-0.230031	0.110305
H426	H	0.631386	0.103302	0.443638
H427	H	0.035201	-0.563386	-0.223013
H428	H	0.368534	-0.230053	0.110321
H429	H	0.701867	0.103280	0.443654
H430	H	-0.265148	-0.742973	0.003516
H431	H	0.068186	-0.409640	0.336849
H432	H	0.401519	-0.076307	0.670182
C433	C	-0.000103	-0.256632	-0.086072
C434	C	0.333230	0.076701	0.247262
C435	C	0.666564	0.410035	0.580595
H436	H	-0.000105	-0.234647	-0.117306
H437	H	0.333229	0.098686	0.216028
H438	H	0.666562	0.432019	0.549361
H439	H	-0.035338	-0.280100	-0.087951
H440	H	0.297995	0.053233	0.245382
H441	H	0.631329	0.386567	0.578715
H442	H	0.035143	-0.280095	-0.087957
H443	H	0.368477	0.053238	0.245376
H444	H	0.701810	0.386572	0.578709
C445	C	-0.433285	-0.551576	0.194782
C446	C	-0.099952	-0.218242	0.528115
C447	C	0.233381	0.115091	0.861449
H448	H	-0.461342	-0.528386	0.217963
H449	H	-0.128009	-0.195053	0.551296
H450	H	0.205324	0.138281	0.884629
H451	H	-0.408472	-0.527985	0.174418
H452	H	-0.075138	-0.194652	0.507752
H453	H	0.258195	0.138682	0.841085
H454	H	-0.408474	-0.571928	0.218392
H455	H	-0.075141	-0.238594	0.551725
H456	H	0.258192	0.094739	0.885059
C457	C	-0.000054	-0.778842	-0.651591
C458	C	0.333279	-0.445509	-0.318257
C459	C	0.666613	-0.112175	0.015076
H460	H	-0.000054	-0.809447	-0.682003
H461	H	0.333279	-0.476114	-0.348670
H462	H	0.666613	-0.142780	-0.015337
H463	H	-0.035291	-0.781276	-0.628711
H464	H	0.298042	-0.447943	-0.295378
H465	H	0.631376	-0.114610	0.037955
H466	H	0.035190	-0.781286	-0.628717
H467	H	0.368524	-0.447953	-0.295383
H468	H	0.701857	-0.114619	0.037950
C469	C	-0.000068	-0.834033	-0.385436
C470	C	0.333265	-0.500700	-0.052103
C471	C	0.666598	-0.167367	0.281231
H472	H	-0.000063	-0.864637	-0.415850
H473	H	0.333270	-0.531303	-0.082517
H474	H	0.666603	-0.197970	0.250816
H475	H	-0.035305	-0.836473	-0.362558
H476	H	0.298028	-0.503140	-0.029224
H477	H	0.631362	-0.169807	0.304109
H478	H	0.035176	-0.836474	-0.362562
H479	H	0.368510	-0.503140	-0.029228
H480	H	0.701843	-0.169807	0.304105
C481	C	-0.000082	0.023690	-0.037426
C482	C	0.333252	0.357023	0.295907
C483	C	0.666585	0.690357	0.629240
H484	H	-0.000079	0.045677	-0.068658
H485	H	0.333254	0.379010	0.264675
H486	H	0.666587	0.712344	0.598008
H487	H	-0.035318	0.000223	-0.039310
H488	H	0.298015	0.333557	0.294023
H489	H	0.631348	0.666890	0.627356
H490	H	0.035163	0.000225	-0.039311
H491	H	0.368496	0.333559	0.294023
H492	H	0.701830	0.666892	0.627356
C493	C	-0.000025	-0.493068	0.187190
C494	C	0.333308	-0.159734	0.520523
C495	C	0.666642	0.173599	0.853857
H496	H	-0.000028	-0.462657	0.217797
H497	H	0.333305	-0.129323	0.551130
H498	H	0.666639	0.204010	0.884463
H499	H	0.035215	-0.515946	0.189625
H500	H	0.368548	-0.182612	0.522958
H501	H	0.701882	0.150721	0.856292
H502	H	-0.035267	-0.515944	0.189631
H503	H	0.298067	-0.182610	0.522964
H504	H	0.631400	0.150723	0.856297
C505	C	-0.433262	-0.793052	-0.046540
C506	C	-0.099929	-0.459719	0.286793
C507	C	0.233404	-0.126386	0.620127
H508	H	-0.461316	-0.816240	-0.069723
H509	H	-0.127983	-0.482907	0.263610
H510	H	0.205351	-0.149574	0.596943
H511	H	-0.408444	-0.816645	-0.026180
H512	H	-0.075111	-0.483311	0.307153
H513	H	0.258222	-0.149978	0.640487
H514	H	-0.408455	-0.772695	-0.070147
H515	H	-0.075122	-0.439362	0.263187
H516	H	0.258211	-0.106029	0.596520
H517	H	-0.000058	-0.404512	-0.017441
H518	H	0.333275	-0.071178	0.315892
H519	H	0.666609	0.262155	0.649225
C520	C	-0.000065	-0.522786	-0.030880
C521	C	0.333269	-0.189452	0.302453
C522	C	0.666602	0.143881	0.635786
H523	H	-0.000068	-0.561400	-0.022964
H524	H	0.333265	-0.228067	0.310369
H525	H	0.666599	0.105266	0.643702
H526	H	0.035167	-0.515965	-0.052342
H527	H	0.368500	-0.182632	0.280991
H528	H	0.701833	0.150702	0.614324
H529	H	-0.035315	-0.515957	-0.052320
H530	H	0.298019	-0.182624	0.281013
H531	H	0.631352	0.150709	0.614346
C532	C	-0.000032	-0.560763	-0.621879
C533	C	0.333302	-0.227429	-0.288546
C534	C	0.666635	0.105904	0.044788
H535	H	-0.000034	-0.529531	-0.643866
H536	H	0.333299	-0.196197	-0.310533
H537	H	0.666633	0.137136	0.022801
H538	H	0.035205	-0.558881	-0.598411
H539	H	0.368538	-0.225547	-0.265077
H540	H	0.701872	0.107786	0.068256
H541	H	-0.035276	-0.558876	-0.598416
H542	H	0.298057	-0.225543	-0.265083
H543	H	0.631390	0.107790	0.068251
C544	C	-0.000044	-0.212753	0.235844
C545	C	0.333289	0.120580	0.569178
C546	C	0.666622	0.453914	0.902511
H547	H	-0.000048	-0.182339	0.266448
H548	H	0.333285	0.150995	0.599781
H549	H	0.666619	0.484328	0.933114
H550	H	0.035192	-0.235634	0.238286
H551	H	0.368526	0.097700	0.571619
H552	H	0.701859	0.431033	0.904952
H553	H	-0.035289	-0.235625	0.238283
H554	H	0.298044	0.097708	0.571617
H555	H	0.631377	0.431042	0.904950
C556	C	-0.725881	-0.590552	0.155863
C557	C	-0.392548	-0.257218	0.489196
C558	C	-0.059214	0.076115	0.822529
H559	H	-0.753940	-0.567366	0.179045
H560	H	-0.420607	-0.234033	0.512378
H561	H	-0.087274	0.099300	0.845711
H562	H	-0.701069	-0.566957	0.135502
H563	H	-0.367736	-0.233623	0.468836
H564	H	-0.034402	0.099710	0.802169
H565	H	-0.701069	-0.610905	0.179471
H566	H	-0.367735	-0.277571	0.512804
H567	H	-0.034402	0.055762	0.846137
C568	C	-0.000059	-0.567307	-0.075406
C569	C	0.333274	-0.233974	0.257928
C570	C	0.666607	0.099359	0.591261
H571	H	-0.000055	-0.536068	-0.097383
H572	H	0.333278	-0.202734	0.235950
H573	H	0.666611	0.130599	0.569284
H574	H	0.035179	-0.565439	-0.051940
H575	H	0.368512	-0.232106	0.281393
H576	H	0.701846	0.101227	0.614726
H577	H	-0.035302	-0.565420	-0.051940
H578	H	0.298031	-0.232087	0.281393
H579	H	0.631364	0.101247	0.614726
H580	H	-0.557728	-0.781933	-0.035423
H581	H	-0.224395	-0.448599	0.297911
H582	H	0.108938	-0.115266	0.631244
C583	C	-0.000038	-0.088038	0.234351
C584	C	0.333295	0.245296	0.567684
C585	C	0.666628	0.578629	0.901018
H586	H	-0.000027	-0.110027	0.265581
H587	H	0.333307	0.223306	0.598914
H588	H	0.666640	0.556640	0.932248
H589	H	-0.035274	-0.064565	0.236247
H590	H	0.298060	0.268768	0.569580
H591	H	0.631393	0.602102	0.902913
H592	H	0.035208	-0.064579	0.236227
H593	H	0.368541	0.268755	0.569560
H594	H	0.701874	0.602088	0.902894
C595	C	-0.725851	-0.754128	-0.007629
C596	C	-0.392517	-0.420795	0.325704
C597	C	-0.059184	-0.087461	0.659038
H598	H	-0.753902	-0.777320	-0.030811
H599	H	-0.420569	-0.443986	0.302523
H600	H	-0.087236	-0.110653	0.635856
H601	H	-0.701032	-0.777717	0.012734
H602	H	-0.367698	-0.444383	0.346068
H603	H	-0.034365	-0.111050	0.679401
H604	H	-0.701044	-0.733772	-0.031237
H605	H	-0.367711	-0.400439	0.302096
H606	H	-0.034378	-0.067106	0.635429
C607	C	-0.566841	-0.551585	0.194785
C608	C	-0.233508	-0.218251	0.528118
C609	C	0.099826	0.115082	0.861451
H610	H	-0.538786	-0.528390	0.217960
H611	H	-0.205453	-0.195057	0.551293
H612	H	0.127881	0.138277	0.884627
H613	H	-0.591649	-0.571935	0.218391
H614	H	-0.258316	-0.238602	0.551724
H615	H	0.075017	0.094731	0.885058
H616	H	-0.591657	-0.527990	0.174420
H617	H	-0.258324	-0.194657	0.507753
H618	H	0.075010	0.138676	0.841087
H619	H	-0.850339	-0.743006	0.003493
H620	H	-0.517006	-0.409673	0.336827
H621	H	-0.183673	-0.076340	0.670160
H622	H	-0.265183	-0.601654	0.144769
H623	H	0.068151	-0.268321	0.478102
H624	H	0.401484	0.065013	0.811436
C625	C	-0.859439	-0.590565	0.155857
C626	C	-0.526106	-0.257232	0.489190
C627	C	-0.192772	0.076102	0.822523
H628	H	-0.901876	-0.596143	0.150287
H629	H	-0.568543	-0.262810	0.483620
H630	H	-0.235209	0.070524	0.816953
H631	H	-0.849016	-0.552593	0.149866
H632	H	-0.515682	-0.219260	0.483199
H633	H	-0.182349	0.114074	0.816532
H634	H	-0.849014	-0.596538	0.193837
H635	H	-0.515680	-0.263205	0.527170
H636	H	-0.182347	0.070129	0.860504
C637	C	-0.000032	-0.368344	0.185703
C638	C	0.333302	-0.035011	0.519036
C639	C	0.666635	0.298322	0.852370
H640	H	-0.000017	-0.390333	0.216934
H641	H	0.333316	-0.056999	0.550268
H642	H	0.666649	0.276334	0.883601
H643	H	-0.035269	-0.344875	0.187598
H644	H	0.298064	-0.011541	0.520932
H645	H	0.631398	0.321792	0.854265
H646	H	0.035213	-0.344883	0.187578
H647	H	0.368546	-0.011550	0.520911
H648	H	0.701879	0.321784	0.854245
H649	H	-0.000060	0.167632	0.164421
H650	H	0.333273	0.500965	0.497754
H651	H	0.666606	0.834299	0.831087
C652	C	-0.000055	0.053402	0.180653
C653	C	0.333278	0.386735	0.513986
C654	C	0.666612	0.720068	0.847320
H655	H	-0.000054	0.083814	0.211258
H656	H	0.333279	0.417148	0.544591
H657	H	0.666613	0.750481	0.877925
H658	H	0.035182	0.030520	0.183088
H659	H	0.368515	0.363853	0.516421
H660	H	0.701848	0.697187	0.849755
H661	H	-0.035300	0.030530	0.183096
H662	H	0.298034	0.363863	0.516429
H663	H	0.631367	0.697197	0.849763
