data_functionalizedCrystal
_audit_creation_method	'MofGen! by Chris Wilmer'
_symmetry_space_group_name_H-M	'P1'
_symmetry_Int_Tables_number	1
_symmetry_cell_setting	triclinic
loop_
_symmetry_equiv_pos_as_xyz
  x,y,z
_cell_length_a	18.101398
_cell_length_b	18.050589
_cell_length_c	18.050582
_cell_angle_alpha	89.981795
_cell_angle_beta	89.979764
_cell_angle_gamma	90.023488
loop_
_atom_site_label
_atom_site_type_symbol
_atom_site_fract_x
_atom_site_fract_y
_atom_site_fract_z
Zn1	Zn	1.132106	-0.295800	-0.420040
Zn2	Zn	1.632106	0.204200	0.079960
Zn3	Zn	1.132017	-0.419984	-0.295860
Zn4	Zn	1.632017	0.080016	0.204140
Zn5	Zn	1.008274	-0.295802	-0.295853
Zn6	Zn	1.508274	0.204198	0.204147
Zn7	Zn	1.008222	-0.419943	-0.419997
Zn8	Zn	1.508222	0.080057	0.080003
O9	O	1.070155	-0.357882	-0.357937
O10	O	1.570155	0.142118	0.142063
O11	O	1.235727	-0.312290	-0.403589
O12	O	1.735727	0.187710	0.096411
O13	O	1.115587	-0.403528	-0.191934
O14	O	1.615587	0.096472	0.308066
O15	O	1.024759	-0.191877	-0.312342
O16	O	1.524759	0.308123	0.187658
O17	O	1.235662	-0.403527	-0.312354
O18	O	1.735662	0.096473	0.187646
O19	O	1.115738	-0.191876	-0.403582
O20	O	1.615738	0.308124	0.096418
O21	O	1.024673	-0.312292	-0.191929
O22	O	1.524673	0.187708	0.308071
O23	O	0.904634	-0.312253	-0.312300
O24	O	1.404634	0.187747	0.187700
O25	O	1.024671	-0.403457	-0.523927
O26	O	1.524671	0.096543	-0.023927
O27	O	0.904596	-0.403459	-0.403508
O28	O	1.404596	0.096541	0.096492
O29	O	1.115688	-0.312250	-0.523959
O30	O	1.615688	0.187750	-0.023959
O31	O	1.115536	-0.523903	-0.312311
O32	O	1.615536	-0.023903	0.187689
O33	O	1.024585	-0.523873	-0.403514
O34	O	1.524585	-0.023873	0.096486
C35	C	0.877744	-0.357852	-0.357899
C36	C	1.377744	0.142148	0.142101
C37	C	0.795430	-0.357857	-0.357900
C38	C	1.295430	0.142143	0.142100
C39	C	0.496339	-0.357903	-0.357962
C40	C	0.996339	0.142097	0.142038
C41	C	0.527663	-0.300232	-0.300857
C42	C	1.027663	0.199768	0.199143
C43	C	0.613282	-0.300387	-0.300613
C44	C	1.113282	0.199613	0.199387
C45	C	0.644722	-0.357880	-0.357931
C46	C	1.144722	0.142120	0.142069
C47	C	0.613609	-0.436109	-0.336553
C48	C	1.113609	0.063891	0.163447
C49	C	0.527964	-0.435788	-0.336156
C50	C	1.027964	0.064212	0.163844
C51	C	0.527947	-0.338025	-0.436581
C52	C	1.027947	0.161975	0.063419
C53	C	0.613598	-0.336283	-0.436152
C54	C	1.113598	0.163717	0.063848
C55	C	0.728581	-0.357871	-0.357915
C56	C	1.228581	0.142129	0.142085
C57	C	0.412480	-0.357917	-0.357977
C58	C	0.912480	0.142083	0.142023
C59	C	1.070065	-0.550834	-0.357925
C60	C	1.570065	-0.050834	0.142075
C61	C	1.070095	-0.633380	-0.357945
C62	C	1.570095	-0.133380	0.142055
C63	C	1.020684	-0.832841	-0.407524
C64	C	1.520684	-0.332841	0.092476
C65	C	1.002637	-0.882274	-0.339755
C66	C	1.502637	-0.382274	0.160245
C67	C	1.070167	-0.784510	-0.357954
C68	C	1.570167	-0.284510	0.142046
C69	C	1.088251	-0.882160	-0.425731
C70	C	1.588251	-0.382160	0.074269
C71	C	1.070236	-0.930495	-0.357970
C72	C	1.570236	-0.430495	0.142030
C73	C	1.052085	-0.832856	-0.290149
C74	C	1.552085	-0.332856	0.209851
C75	C	1.137730	-0.832737	-0.376172
C76	C	1.637730	-0.332737	0.123828
C77	C	1.119709	-0.882147	-0.308356
C78	C	1.619709	-0.382147	0.191644
C79	C	1.070126	-0.700412	-0.357947
C80	C	1.570126	-0.200412	0.142053
C81	C	1.070278	-1.014592	-0.357970
C82	C	1.570278	-0.514592	0.142030
C83	C	1.263316	-0.357913	-0.357977
C84	C	1.763316	0.142087	0.142023
C85	C	1.345631	-0.357926	-0.357994
C86	C	1.845631	0.142074	0.142006
C87	C	1.070184	-0.357849	-0.551643
C88	C	1.570184	0.142151	-0.051643
C89	C	1.070196	-0.357835	-0.634189
C90	C	1.570196	0.142165	-0.134189
C91	C	1.070265	-0.164177	-0.357966
C92	C	1.570265	0.335823	0.142034
C93	C	1.070311	-0.081631	-0.357978
C94	C	1.570311	0.418369	0.142022
C95	C	1.020739	-0.407366	-0.833622
C96	C	1.520739	0.092634	-0.333622
C97	C	1.088304	-0.425525	-0.883021
C98	C	1.588304	0.074475	-0.383021
C99	C	1.070233	-0.357779	-0.785319
C100	C	1.570233	0.142221	-0.285319
C101	C	1.002705	-0.339599	-0.883002
C102	C	1.502705	0.160401	-0.383002
C103	C	1.070262	-0.357725	-0.931305
C104	C	1.570262	0.142275	-0.431305
C105	C	1.137833	-0.375973	-0.833631
C106	C	1.637833	0.124027	-0.333631
C107	C	1.052188	-0.290016	-0.833608
C108	C	1.552188	0.209984	-0.333608
C109	C	1.119800	-0.308149	-0.882984
C110	C	1.619800	0.191851	-0.382984
C111	C	1.070215	-0.357811	-0.701221
C112	C	1.570215	0.142189	-0.201221
C113	C	1.070287	-0.357692	-1.015401
C114	C	1.570287	0.142308	-0.515401
C115	C	1.070168	-0.357861	-0.164985
C116	C	1.570168	0.142139	0.335015
C117	C	1.070299	-0.357666	-0.082440
C118	C	1.570299	0.142334	0.417560
H119	H	0.634318	-0.242377	-0.314013
H120	H	1.134318	0.257623	0.185987
H121	H	1.103584	-0.482808	-0.904726
H122	H	1.603584	0.017192	-0.404726
H123	H	0.635002	-0.375228	-0.480979
H124	H	1.135002	0.124772	0.019021
H125	H	1.036889	-0.232749	-0.811886
H126	H	1.536889	0.267251	-0.311886
F127	F	0.499491	-0.317201	-0.225157
F128	F	0.999491	0.182799	0.274843
F129	F	0.927995	-0.910713	-0.319615
F130	F	1.427995	-0.410713	0.180385
F131	F	1.108206	-0.910470	-0.500641
F132	F	1.608206	-0.410470	-0.000641
H133	H	0.633938	-0.278715	-0.452272
H134	H	1.133938	0.221285	0.047728
H135	H	0.507089	-0.242045	-0.314109
H136	H	1.007089	0.257955	0.185891
F137	F	1.174585	-0.253308	-0.911139
F138	F	1.674585	0.246692	-0.411139
H139	H	0.507690	-0.380031	-0.479130
H140	H	1.007690	0.119969	0.020870
H141	H	1.194969	-0.391392	-0.812035
H142	H	1.694969	0.108608	-0.312035
H143	H	0.978776	-0.811191	-0.449383
H144	H	1.478776	-0.311191	0.050617
H145	H	0.945585	-0.324245	-0.904690
H146	H	1.445585	0.175755	-0.404690
H147	H	1.036751	-0.811288	-0.232822
H148	H	1.536751	-0.311288	0.267178
F149	F	0.966082	-0.462246	-0.805291
F150	F	1.466082	0.037754	-0.305291
H151	H	1.194821	-0.810964	-0.391599
H152	H	1.694821	-0.310964	0.108401
F153	F	0.640026	-0.317559	-0.224468
F154	F	1.140026	0.182441	0.275532
H155	H	1.161585	-0.903660	-0.266395
H156	H	1.661585	-0.403660	0.233605
F157	F	0.500875	-0.493855	-0.388146
F158	F	1.000875	0.006145	0.111854
H159	H	0.507957	-0.452647	-0.278682
H160	H	1.007957	0.047353	0.221318
H161	H	0.633973	-0.480229	-0.376844
H162	H	1.133973	0.019771	0.123156
H163	H	0.506371	-0.281974	-0.456019
H164	H	1.006371	0.218026	0.043981
F165	F	0.641603	-0.458528	-0.262241
F166	F	1.141603	0.041472	0.237759
