data_functionalizedCrystal
_audit_creation_method	'MofGen! by Chris Wilmer'
_symmetry_space_group_name_H-M	'P1'
_symmetry_Int_Tables_number	1
_symmetry_cell_setting	triclinic
loop_
_symmetry_equiv_pos_as_xyz
  x,y,z
_cell_length_a	12.759399
_cell_length_b	12.759401
_cell_length_c	12.759393
_cell_angle_alpha	89.979434
_cell_angle_beta	90.030906
_cell_angle_gamma	89.986676
loop_
_atom_site_label
_atom_site_type_symbol
_atom_site_fract_x
_atom_site_fract_y
_atom_site_fract_z
Zn1	Zn	-0.418266	-1.606263	0.594007
Zn2	Zn	-0.593981	-1.606153	0.418326
Zn3	Zn	-0.418311	-1.430562	0.418343
Zn4	Zn	-0.593898	-1.430553	0.593964
O5	O	-0.506114	-1.518383	0.506160
O6	O	-0.441591	-1.753270	0.570713
O7	O	-0.570732	-1.582818	0.271307
O8	O	-0.271284	-1.453919	0.441670
O9	O	-0.570688	-1.753189	0.441641
O10	O	-0.271251	-1.583006	0.570730
O11	O	-0.441669	-1.453812	0.271320
O12	O	-0.441587	-1.283540	0.441629
O13	O	-0.570546	-1.453903	0.740991
O14	O	-0.570590	-1.283533	0.570657
O15	O	-0.441510	-1.582997	0.741022
O16	O	-0.740991	-1.582809	0.441599
O17	O	-0.740930	-1.453796	0.570640
C18	C	-0.506085	-1.245415	0.506141
C19	C	-0.506098	-1.128639	0.506157
C20	C	-0.438997	-1.073820	0.573468
C21	C	-0.439003	-0.964096	0.573473
C22	C	-0.573222	-0.964020	0.438854
C23	C	-0.573210	-1.073742	0.438845
C24	C	-0.779081	-1.518318	0.506136
C25	C	-0.895858	-1.518387	0.506161
C26	C	-0.950717	-1.585641	0.439046
C27	C	-1.060441	-1.585708	0.439081
C28	C	-1.060437	-1.451259	0.573349
C29	C	-0.950715	-1.451198	0.573319
C30	C	-1.210324	-1.709717	0.401693
C31	C	-1.265186	-1.776961	0.334561
C32	C	-1.229647	-1.793124	0.232051
C33	C	-1.139246	-1.742027	0.196651
C34	C	-1.084389	-1.674775	0.263777
C35	C	-1.119927	-1.658632	0.366302
C36	C	-0.800831	-1.327188	0.610696
C37	C	-0.745972	-1.259929	0.677818
C38	C	-0.781509	-1.243756	0.780330
C39	C	-0.871913	-1.294835	0.815725
C40	C	-0.926772	-1.362093	0.748604
C41	C	-0.891227	-1.378268	0.646093
C42	C	-0.232081	-1.518476	0.506207
C43	C	-0.115304	-1.518516	0.506227
C44	C	-0.506013	-1.518461	0.780193
C45	C	-0.505970	-1.518495	0.896970
C46	C	-0.506134	-0.792416	0.506176
C47	C	-0.506117	-0.909193	0.506172
C48	C	-0.506139	-1.518365	0.233192
C49	C	-0.505886	-1.518535	0.116416
C50	C	-0.438770	-1.585719	0.951850
C51	C	-0.438725	-1.585737	1.061574
C52	C	-0.573088	-1.451303	1.061529
C53	C	-0.573128	-1.451281	0.951806
H54	H	-0.906055	-1.640352	0.384363
O55	O	-0.366602	-1.133036	0.646051
H56	H	-0.319934	-1.076478	0.692847
O57	O	-0.645589	-1.132874	0.366239
H58	H	-0.598486	-1.182834	0.312862
H59	H	-1.000381	-1.403688	0.777434
H60	H	-1.239262	-1.696573	0.485168
O61	O	-0.986885	-1.619670	0.225617
H62	H	-0.971383	-1.642208	0.143055
O63	O	-1.100913	-1.759455	0.086081
H64	H	-1.154239	-1.814811	0.045354
O65	O	-0.722502	-1.171167	0.852816
H66	H	-0.641218	-1.200379	0.863261
O67	O	-0.366624	-0.904974	0.646073
H68	H	-0.377894	-0.819453	0.634765
O69	O	-0.645610	-0.904811	0.366259
H70	H	-0.634354	-0.819304	0.377579
O71	O	-0.645606	-1.378750	0.892623
H72	H	-0.699088	-1.425723	0.842617
O73	O	-0.910278	-1.277383	0.926283
H74	H	-0.911417	-1.353254	0.968849
H75	H	-1.274323	-1.847877	0.177392
H76	H	-0.672355	-1.218345	0.648992
H77	H	-1.338791	-1.818565	0.363393
H78	H	-0.627768	-1.396583	1.106190
O79	O	-1.119603	-1.378772	0.645762
H80	H	-1.205117	-1.390100	0.634498
O81	O	-0.762505	-1.344632	0.500121
H82	H	-0.690437	-1.297799	0.486779
O83	O	-0.366332	-1.658202	0.892700
H84	H	-0.319590	-1.704942	0.949300
O85	O	-0.366252	-1.658248	1.120770
H86	H	-0.319569	-1.704985	1.064202
