data_functionalizedCrystal
_audit_creation_method	'MofGen! by Chris Wilmer'
_symmetry_space_group_name_H-M	'P1'
_symmetry_Int_Tables_number	1
_symmetry_cell_setting	triclinic
loop_
_symmetry_equiv_pos_as_xyz
  x,y,z
_cell_length_a	16.992701
_cell_length_b	16.974813
_cell_length_c	15.455313
_cell_angle_alpha	89.012317
_cell_angle_beta	87.136501
_cell_angle_gamma	87.023742
loop_
_atom_site_label
_atom_site_type_symbol
_atom_site_fract_x
_atom_site_fract_y
_atom_site_fract_z
O1	O	1.044200	0.163881	-0.083638
O2	O	0.815911	0.162050	-0.083510
O3	O	0.936036	0.048625	-0.075544
O4	O	0.924074	0.277306	-0.091604
O5	O	0.929167	0.055083	0.068264
O6	O	0.809041	0.168508	0.060298
O7	O	1.037331	0.170339	0.060170
Cu8	Cu	0.922559	0.170013	0.073365
Cu9	Cu	0.930683	0.162376	-0.096705
O10	O	0.917205	0.283764	0.052204
C11	C	0.783258	0.162921	-0.011440
C12	C	0.696198	0.155884	-0.010947
C13	C	0.207131	0.108604	-0.007629
C14	C	0.288932	0.115222	-0.008089
C15	C	0.320645	0.189741	-0.013326
C16	C	0.270551	0.257647	-0.018096
C17	C	0.188751	0.251029	-0.017630
C18	C	0.564304	0.217172	-0.015250
C19	C	0.646111	0.223785	-0.015718
C20	C	0.664486	0.081359	-0.005710
C21	C	0.582684	0.074747	-0.005250
C22	C	0.532597	0.142653	-0.010015
N23	N	0.404259	0.196508	-0.013799
N24	N	0.448985	0.135886	-0.009536
C25	C	0.932019	0.022458	-0.001577
C26	C	0.930274	-0.065135	0.004569
C27	C	0.933200	-0.109801	-0.070933
C28	C	0.931555	-0.192103	-0.065156
C29	C	0.926989	-0.229738	0.016125
C30	C	0.924060	-0.185065	0.091633
C31	C	0.925700	-0.102764	0.085854
C32	C	0.921679	-0.475503	0.041813
C33	C	0.920042	-0.557810	0.047586
C34	C	0.927535	-0.564843	-0.109203
C35	C	0.929179	-0.482540	-0.114975
C36	C	0.926246	-0.437874	-0.039467
N37	N	0.925310	-0.313863	0.022032
N38	N	0.927919	-0.353750	-0.045375
C39	C	1.069983	0.169469	-0.011902
C40	C	1.157044	0.176505	-0.012401
C41	C	0.921222	0.309931	-0.021765
C42	C	0.922968	0.397524	-0.027917
N43	N	0.916851	0.175384	0.192983
N44	N	0.936397	0.156999	-0.216323
C45	C	0.967902	0.127217	0.241760
C46	C	0.963592	0.131287	0.332282
C47	C	0.908235	0.183528	0.374026
C48	C	0.857178	0.231697	0.325242
C49	C	0.861484	0.227623	0.234722
C50	C	0.889647	0.201093	0.644373
C51	C	0.885346	0.205166	0.734900
C52	C	0.991760	0.104754	0.741934
C53	C	0.996064	0.100688	0.651412
C54	C	0.945005	0.148854	0.602636
N55	N	0.903830	0.187691	0.466553
N56	N	0.949406	0.144686	0.510111
H57	H	0.523533	0.272466	-0.019135
H58	H	0.848073	0.240314	0.604667
H59	H	0.933941	-0.228468	-0.126638
H60	H	0.923306	-0.066396	0.147336
H61	H	0.329711	0.059930	-0.004200
H62	H	0.296377	0.318323	-0.022355
O63	O	0.803472	0.282426	0.365924
C64	C	0.810605	0.275683	0.456280
H65	H	0.872297	0.250744	0.470422
H66	H	0.764910	0.234488	0.484961
C67	C	0.721017	0.388283	0.479765
C68	C	0.796790	0.357659	0.497134
H69	H	0.712491	0.438848	0.504967
H70	H	0.716208	0.392825	0.418891
H71	H	0.682946	0.353947	0.503666
H72	H	0.834859	0.391989	0.473224
H73	H	0.801605	0.353125	0.558006
O74	O	1.013079	0.084417	0.379704
C75	C	0.968494	0.035484	0.435698
H76	H	0.907944	0.028991	0.408809
H77	H	0.961177	0.062971	0.502589
C78	C	1.085835	-0.038352	0.475853
C79	C	1.011469	-0.046333	0.442824
H80	H	1.112345	-0.088820	0.480253
H81	H	1.115874	-0.005384	0.438132
H82	H	1.079727	-0.015443	0.531592
H83	H	1.017578	-0.069232	0.387082
H84	H	0.981432	-0.079307	0.480536
H85	H	0.936922	-0.079166	-0.137121
H86	H	0.932898	-0.451904	-0.181162
O87	O	0.831529	0.255806	0.775558
C88	C	0.780565	0.212868	0.831106
H89	H	0.811023	0.153790	0.848849
H90	H	0.724252	0.202258	0.796879
C91	C	0.722412	0.332663	0.892258
C92	C	0.759824	0.260105	0.914056
H93	H	0.709615	0.361802	0.943423
H94	H	0.756745	0.361592	0.854832
H95	H	0.675489	0.323811	0.863734
H96	H	0.806751	0.268958	0.942568
H97	H	0.725499	0.231179	0.951488
O98	O	0.930502	-0.608197	-0.182576
C99	C	1.001017	-0.594866	-0.231381
H100	H	1.046721	-0.573452	-0.186883
H101	H	0.988956	-0.548223	-0.283673
C102	C	0.976464	-0.698537	-0.328819
C103	C	1.032600	-0.672243	-0.274164
H104	H	0.995945	-0.746265	-0.355213
H105	H	0.928955	-0.707517	-0.295941
H106	H	0.966418	-0.659660	-0.372388
H107	H	1.042638	-0.711114	-0.230589
H108	H	1.080112	-0.663271	-0.307036
H109	H	0.181318	0.047922	-0.003370
H110	H	1.041141	0.058149	0.617427
O111	O	0.811859	0.274495	0.187466
C112	C	0.762063	0.321465	0.243718
H113	H	0.791146	0.327305	0.308030
H114	H	0.703295	0.292603	0.255422
C115	C	0.712046	0.396700	0.123494
C116	C	0.747770	0.403878	0.202479
H117	H	0.703226	0.447535	0.098055
H118	H	0.745593	0.365053	0.085594
H119	H	0.663077	0.372646	0.133258
H120	H	0.796742	0.427922	0.192713
H121	H	0.714231	0.435530	0.240376
H122	H	0.705275	0.026074	-0.001829
O123	O	0.552009	0.002299	-0.000112
C124	C	0.613761	-0.056215	0.003982
H125	H	0.668077	-0.029398	0.029405
H126	H	0.628579	-0.080513	-0.063520
C127	C	0.521111	-0.156477	0.034067
C128	C	0.587822	-0.123540	0.065300
H129	H	0.505111	-0.198008	0.071888
H130	H	0.479507	-0.117055	0.031306
H131	H	0.533469	-0.176718	-0.022184
H132	H	0.575460	-0.103291	0.121545
H133	H	0.629423	-0.162960	0.068072
O134	O	0.140208	0.317066	-0.022313
C135	C	0.185735	0.384260	-0.027015
H136	H	0.248040	0.366878	-0.053107
H137	H	0.188315	0.409961	0.040388
C138	C	0.071297	0.467770	-0.055912
C139	C	0.147819	0.446422	-0.087965
H140	H	0.047907	0.506116	-0.093505
H141	H	0.040623	0.422501	-0.052741
H142	H	0.073457	0.489183	0.000257
H143	H	0.145657	0.425000	-0.144128
H144	H	0.178491	0.491689	-0.091148
H145	H	0.916320	-0.588448	0.113777
O146	O	0.676785	0.296240	-0.020769
C147	C	0.615038	0.354756	-0.024897
H148	H	0.558121	0.330390	0.004132
H149	H	0.606805	0.372850	-0.095377
C150	C	0.705503	0.457077	-0.009063
C151	C	0.635598	0.427152	0.026597
H152	H	0.718185	0.501735	0.022696
H153	H	0.747103	0.417653	-0.006286
H154	H	0.698633	0.472149	-0.067796
H155	H	0.642472	0.412071	0.085324
H156	H	0.593998	0.466574	0.023831
H157	H	0.919306	-0.439147	0.103297
H158	H	1.012983	0.084681	0.207779
O159	O	0.919664	-0.221748	0.170520
C160	C	0.918829	-0.303966	0.159433
H161	H	0.946625	-0.319930	0.092968
H162	H	0.855332	-0.322850	0.164490
C163	C	0.932004	-0.327097	0.311906
C164	C	0.966150	-0.346704	0.230276
H165	H	0.961190	-0.353460	0.355607
H166	H	0.932563	-0.271705	0.319377
H167	H	0.879091	-0.342834	0.316108
H168	H	1.019058	-0.330958	0.226071
H169	H	0.965600	-0.402095	0.222805
O170	O	1.041318	0.057847	0.789230
C171	C	1.029428	-0.021978	0.772674
H172	H	1.002330	-0.026754	0.707084
H173	H	0.987910	-0.046535	0.825516
C174	C	1.142409	-0.063683	0.852369
C175	C	1.109133	-0.069550	0.771806
H176	H	1.191573	-0.093029	0.851837
H177	H	1.150418	-0.009903	0.863527
H178	H	1.107803	-0.084146	0.896395
H179	H	1.143734	-0.049078	0.727784
H180	H	1.101131	-0.123327	0.760641
