data_functionalizedCrystal
_audit_creation_method	'MofGen! by Chris Wilmer'
_symmetry_space_group_name_H-M	'P1'
_symmetry_Int_Tables_number	1
_symmetry_cell_setting	triclinic
loop_
_symmetry_equiv_pos_as_xyz
  x,y,z
_cell_length_a	19.902436
_cell_length_b	23.196402
_cell_length_c	23.196401
_cell_angle_alpha	60.008822
_cell_angle_beta	90.014541
_cell_angle_gamma	59.997492
loop_
_atom_site_label
_atom_site_type_symbol
_atom_site_fract_x
_atom_site_fract_y
_atom_site_fract_z
Zr1	Zr	0.647320	0.630934	-0.075582
O2	O	0.540006	0.751211	-0.167636
O3	O	0.680214	0.510665	-0.047366
O4	O	0.680185	0.630932	-0.167632
O5	O	0.540062	0.630942	0.047500
O6	O	0.790764	0.630920	-0.167624
O7	O	0.540035	0.630944	-0.047371
O8	O	0.790817	0.415785	0.047509
O9	O	0.540009	0.846078	-0.167632
O10	O	0.776771	0.560121	-0.035323
O11	O	0.694267	0.560129	0.035473
O12	O	0.694232	0.701728	-0.106124
O13	O	0.611728	0.701735	-0.035328
Zr14	Zr	0.823722	0.630913	0.075739
Zr15	Zr	0.823680	0.630916	-0.075570
Zr16	Zr	0.647362	0.630931	0.075727
Zr17	Zr	0.647324	0.782236	-0.075576
Zr18	Zr	0.823717	0.479611	0.075732
O19	O	0.790827	0.751182	0.047523
O20	O	0.790767	0.751186	-0.167619
O21	O	0.540066	0.751208	0.047506
O22	O	0.931036	0.510636	0.167793
O23	O	0.930976	0.510639	-0.047349
O24	O	0.680274	0.510661	0.167775
O25	O	0.930980	0.630904	-0.047344
O26	O	0.790857	0.630915	0.167788
O27	O	0.680278	0.630926	0.167781
O28	O	0.931007	0.630903	0.047528
O29	O	0.680192	0.846064	-0.167622
O30	O	0.790850	0.415783	0.167779
O31	O	0.931033	0.415769	0.167789
O32	O	0.931000	0.415770	0.047518
O33	O	0.540042	0.846076	-0.047362
O34	O	0.680225	0.846062	-0.047352
O35	O	0.776810	0.560119	0.106280
O36	O	0.859314	0.560112	0.035485
O37	O	0.776775	0.701718	-0.035316
O38	O	0.694271	0.701725	0.035479
C39	C	0.735515	0.441667	0.000070
C40	C	0.735513	0.377435	0.000067
C41	C	0.778573	0.347261	-0.036890
C42	C	0.778581	0.286900	-0.036884
C43	C	0.735513	0.256727	0.000069
C44	C	0.692450	0.286905	0.037035
C45	C	0.692450	0.347259	0.037034
C46	C	0.663357	0.194705	-0.005210
C47	C	0.663354	0.134356	-0.005214
C48	C	0.735514	0.070572	0.000076
C49	C	0.807675	0.067153	0.005357
C50	C	0.807675	0.127507	0.005356
C51	C	0.735508	0.191283	0.000075
C52	C	0.778587	-0.025053	-0.036876
C53	C	0.778597	-0.085419	-0.036866
C54	C	0.692458	-0.085407	0.037049
C55	C	0.692456	-0.025048	0.037042
C56	C	0.735518	0.005128	0.000076
C57	C	0.514921	0.630946	0.000063
C58	C	0.440051	0.630953	0.000058
C59	C	0.168049	0.630913	0.000085
C60	C	0.144473	0.720241	-0.044364
C61	C	0.222311	0.720297	-0.044610
C62	C	0.302992	0.630934	0.000072
C63	C	0.300571	0.586572	-0.032500
C64	C	0.222343	0.587144	-0.032829
C65	C	0.223361	0.585307	0.077126
C66	C	0.300282	0.586986	0.077007
C67	C	0.379259	0.630940	0.000064
C68	C	0.091784	0.630904	0.000090
C69	C	0.956121	0.630901	0.000094
C70	C	1.030991	0.630894	0.000099
C71	C	0.735468	0.630926	-0.189186
C72	C	0.735450	0.630927	-0.253421
C73	C	0.735527	0.820180	0.000086
C74	C	0.735529	0.884412	0.000089
C75	C	0.692370	0.704842	-0.320551
C76	C	0.692391	0.704843	-0.380906
C77	C	0.735481	0.630925	-0.374127
C78	C	0.778571	0.557001	-0.306984
C79	C	0.778555	0.557002	-0.246631
C80	C	0.729360	0.574298	-0.441447
C81	C	0.729369	0.574300	-0.501801
C82	C	0.735533	0.630919	-0.560275
C83	C	0.741670	0.687550	-0.558395
C84	C	0.741655	0.687551	-0.498041
C85	C	0.735503	0.630916	-0.439566
C86	C	0.692473	0.704840	-0.692852
C87	C	0.692500	0.704838	-0.753207
C88	C	0.778674	0.556994	-0.679282
C89	C	0.778653	0.556998	-0.618930
C90	C	0.735548	0.630923	-0.625719
C91	C	0.735574	0.630920	0.189343
C92	C	0.735592	0.630919	0.253577
C93	C	0.956115	0.441645	0.000086
C94	C	1.030982	0.377405	0.000088
C95	C	0.735568	0.441664	0.189335
C96	C	0.735583	0.377431	0.253566
C97	C	0.956168	0.441642	0.189350
C98	C	1.031053	0.377402	0.253587
C99	C	0.514874	0.820205	-0.189193
C100	C	0.439989	0.884445	-0.253430
C101	C	0.514927	0.820202	0.000071
C102	C	0.440059	0.884441	0.000069
C103	C	0.735474	0.820183	-0.189178
C104	C	0.735458	0.884415	-0.253410
C105	C	1.023054	0.347243	-0.036878
C106	C	1.093393	0.286891	-0.036890
C107	C	1.171660	0.256700	0.000069
C108	C	1.179587	0.286868	0.037036
C109	C	1.109248	0.347223	0.037043
C110	C	0.778678	0.347262	0.320697
C111	C	0.778690	0.286917	0.381056
C112	C	0.735611	0.256738	0.374282
C113	C	0.692512	0.286913	0.307144
C114	C	0.692496	0.347262	0.246787
C115	C	1.109294	0.347230	0.246799
C116	C	1.179663	0.286877	0.307151
C117	C	1.171791	0.256694	0.374290
C118	C	1.093542	0.286872	0.381077
C119	C	1.023174	0.347227	0.320726
C120	C	0.361748	0.914624	-0.246642
C121	C	0.291378	0.974995	-0.306994
C122	C	0.299251	1.005182	-0.374133
C123	C	0.377500	0.975001	-0.380920
C124	C	0.447868	0.914635	-0.320569
C125	C	0.447988	0.914610	0.037028
C126	C	0.377648	0.974978	0.037023
C127	C	0.299382	1.005172	0.000063
C128	C	0.291455	0.975001	-0.036901
C129	C	0.361793	0.914638	-0.036900
C130	C	0.778545	0.914575	-0.246613
C131	C	0.778546	0.974921	-0.306960
C132	C	0.735455	1.005110	-0.374103
C133	C	0.692368	0.974944	-0.380898
C134	C	0.692372	0.914595	-0.320552
H135	H	0.604588	0.246648	-0.009533
H136	H	0.511573	0.890063	-0.326104
C137	C	0.302637	0.628195	-0.108358
H138	H	0.304971	0.672600	-0.120294
H139	H	0.349796	0.589971	-0.111399
H140	H	0.254401	0.647710	-0.140185
H141	H	0.187057	0.613891	0.104334
H142	H	0.383901	0.999586	-0.435592
C143	C	0.937114	0.380400	0.328201
H144	H	0.942511	0.353770	0.376832
H145	H	0.907860	0.437383	0.306197
H146	H	0.907881	0.370496	0.306199
C147	C	0.534074	0.881408	0.077684
H148	H	0.574837	0.841131	0.072401
H149	H	0.540239	0.924735	0.059431
H150	H	0.540256	0.857863	0.126309
C151	C	0.645133	0.253710	0.299698
H152	H	0.619457	0.280321	0.251073
H153	H	0.682327	0.196727	0.321715
H154	H	0.604374	0.263612	0.321705
C155	C	0.353072	0.881438	-0.172797
H156	H	0.296392	0.908073	-0.177408
H157	H	0.378721	0.824458	-0.147710
H158	H	0.378735	0.891333	-0.147720
C159	C	0.386382	1.008148	0.077693
H160	H	0.443070	0.981506	0.099714
H161	H	0.360737	1.065128	0.045802
H162	H	0.360739	0.998255	0.112667
H163	H	0.227721	0.999594	-0.066994
C164	C	0.825949	0.380445	-0.077541
H165	H	0.819780	0.420715	-0.072253
H166	H	0.882625	0.337112	-0.059287
H167	H	0.804658	0.403996	-0.126167
H168	H	0.241697	0.521605	-0.002548
H169	H	0.866431	0.124719	0.009658
C170	C	0.222017	1.071568	0.000069
H171	H	0.237955	1.085201	0.027382
H172	H	0.190177	1.118665	-0.047015
H173	H	0.190197	1.051787	0.019862
H174	H	0.355327	0.890076	-0.066995
H175	H	1.115715	0.371773	0.067149
C176	C	0.825952	0.881375	-0.172764
H177	H	0.851616	0.907981	-0.177369
H178	H	0.788782	0.891272	-0.147682
H179	H	0.866722	0.824388	-0.147685
C180	C	0.826104	0.253728	0.454900
H181	H	0.819941	0.213472	0.489881
H182	H	0.882777	0.230177	0.460192
H183	H	0.804832	0.297067	0.460185
C184	C	0.826031	0.475690	-0.545084
H185	H	0.851692	0.431666	-0.549688
H186	H	0.866789	0.472611	-0.519983
H187	H	0.788835	0.472625	-0.520025
H188	H	0.813632	0.999475	-0.301413
C189	C	0.644967	0.786154	-0.328017
H190	H	0.651123	0.775572	-0.282459
H191	H	0.666239	0.816522	-0.353079
H192	H	0.588289	0.816529	-0.353110
C193	C	0.250288	0.496411	0.122079
H194	H	0.283699	0.469165	0.168571
H195	H	0.203004	0.495702	0.123841
H196	H	0.280787	0.469519	0.101558
C197	C	0.205316	1.008177	-0.299516
H198	H	0.210712	0.981540	-0.250886
H199	H	0.176073	1.065157	-0.321511
H200	H	0.176074	0.998288	-0.321528
H201	H	0.735458	1.054250	-0.423235
H202	H	0.241947	1.054336	-0.423269
C203	C	0.825944	0.253706	-0.077543
H204	H	0.851586	0.280326	-0.099562
H205	H	0.866716	0.196723	-0.045646
H206	H	0.788740	0.263609	-0.112518
C207	C	0.644964	1.008164	-0.454757
H208	H	0.651129	1.048432	-0.489718
H209	H	0.666221	0.964848	-0.460067
H210	H	0.588285	1.031728	-0.460057
C211	C	1.249197	0.190306	0.440672
H212	H	1.233309	0.176652	0.481633
H213	H	1.281023	0.143218	0.440672
H214	H	1.281011	0.210102	0.440667
H215	H	0.657383	0.371828	0.067129
C216	C	0.644962	0.881436	-0.328037
H217	H	0.619294	0.908069	-0.376669
H218	H	0.682133	0.824453	-0.306033
H219	H	0.604194	0.891347	-0.306039
C220	C	0.722594	0.512006	-0.377123
H221	H	0.723476	0.520108	-0.340905
H222	H	0.672500	0.519129	-0.390590
H223	H	0.767651	0.458343	-0.360181
H224	H	0.735631	0.207599	0.423434
H225	H	0.866436	0.015213	0.009674
C226	C	0.748469	0.749822	-0.622703
H227	H	0.747614	0.741704	-0.658913
H228	H	0.703428	0.803492	-0.639659
H229	H	0.798576	0.742673	-0.609212
H230	H	1.087144	0.262287	0.435750
C231	C	0.748418	0.749831	-0.495968
H232	H	0.752097	0.783550	-0.539433
H233	H	0.701098	0.782583	-0.488809
H234	H	0.796247	0.721776	-0.458387
C235	C	0.825958	0.008140	-0.077529
H236	H	0.819782	0.048415	-0.072245
H237	H	0.882636	-0.035190	-0.059276
H238	H	0.804668	0.031686	-0.126155
C239	C	0.825976	-0.118622	-0.077510
H240	H	0.819820	-0.158899	-0.072207
H241	H	0.804694	-0.075301	-0.126135
H242	H	0.882655	-0.142171	-0.059250
H243	H	0.657391	-0.109973	0.067137
H244	H	0.657388	-0.000477	0.067134
H245	H	0.604596	0.137148	-0.009518
C246	C	1.265680	0.253641	0.077701
H247	H	1.260337	0.280246	0.099720
H248	H	1.294906	0.196659	0.112664
H249	H	1.294910	0.263530	0.045803
H250	H	0.657406	0.371818	0.192128
H251	H	0.813757	0.371827	0.326227
C252	C	1.084660	0.253708	-0.077546
H253	H	1.027972	0.280326	-0.099543
H254	H	1.110289	0.263601	-0.112527
H255	H	1.110319	0.196723	-0.045642
H256	H	0.221039	0.755280	-0.022932
C257	C	0.645073	0.253720	0.077680
H258	H	0.651233	0.213460	0.072381
H259	H	0.666357	0.230173	0.126303
H260	H	0.588393	0.297058	0.059421
H261	H	1.115720	0.371796	0.192136
H262	H	0.105313	0.755302	-0.022627
H263	H	0.104547	0.755130	-0.100851
H264	H	1.228928	0.207555	0.000058
C265	C	1.265726	0.253685	0.299673
H266	H	1.260330	0.280298	0.251042
H267	H	1.294974	0.263577	0.321672
H268	H	1.294964	0.196699	0.321681
H269	H	0.185785	0.618669	-0.089520
C270	C	0.219895	0.767607	-0.121380
H271	H	0.171287	0.786860	-0.152537
H272	H	0.220185	0.812576	-0.131656
H273	H	0.266720	0.732563	-0.127312
C274	C	0.377330	0.497812	0.009123
H275	H	0.411620	0.486996	0.046823
H276	H	0.360906	0.461833	0.027621
H277	H	0.406829	0.489854	-0.021398
H278	H	0.357750	0.521790	0.112913
C279	C	0.299784	0.630674	0.109886
H280	H	0.298137	0.603807	0.156421
H281	H	0.348166	0.629514	0.111477
H282	H	0.252729	0.685657	0.082046
C283	C	0.644999	0.786150	-0.454760
H284	H	0.651187	0.775560	-0.489731
H285	H	0.588321	0.816524	-0.460072
H286	H	0.666267	0.816523	-0.460042
H287	H	0.657422	0.765031	-0.807869
C288	C	0.645077	0.786153	-0.700315
H289	H	0.619434	0.830176	-0.748943
H290	H	0.604303	0.789238	-0.678328
H291	H	0.682263	0.789214	-0.678288
H292	H	0.813760	0.496808	-0.673761
H293	H	0.724367	0.528191	-0.503326
C294	C	0.825960	0.475691	-0.299522
H295	H	0.851618	0.431668	-0.250894
H296	H	0.788779	0.472627	-0.321545
H297	H	0.866734	0.472609	-0.321512
C298	C	0.825939	0.475692	-0.172785
H299	H	0.851603	0.431667	-0.177388
H300	H	0.866694	0.472615	-0.147683
H301	H	0.788742	0.472626	-0.147727
H302	H	0.959332	0.371824	-0.066982
