data_functionalizedCrystal
_audit_creation_method	'MofGen! by Chris Wilmer'
_symmetry_space_group_name_H-M	'P1'
_symmetry_Int_Tables_number	1
_symmetry_cell_setting	triclinic
loop_
_symmetry_equiv_pos_as_xyz
  x,y,z
_cell_length_a	11.026607
_cell_length_b	10.654550
_cell_length_c	10.065875
_cell_angle_alpha	98.875770
_cell_angle_beta	79.302338
_cell_angle_gamma	96.535460
loop_
_atom_site_label
_atom_site_type_symbol
_atom_site_fract_x
_atom_site_fract_y
_atom_site_fract_z
O1	O	1.632231	0.512406	-0.113491
O2	O	1.278420	0.452411	-0.113493
O3	O	1.463459	0.301436	-0.113487
O4	O	1.447191	0.663381	-0.113497
O5	O	1.428176	0.330372	0.113500
O6	O	1.243137	0.481347	0.113494
O7	O	1.596947	0.541343	0.113496
Zn8	Zn	1.414440	0.515940	0.149534
Zn9	Zn	1.460927	0.477814	-0.149531
O10	O	1.411908	0.692318	0.113490
C11	C	1.215474	0.455811	0.000000
C12	C	1.080483	0.422816	-0.000001
C13	C	1.007444	0.513919	-0.000004
C14	C	0.867923	0.479820	-0.000005
C15	C	1.444623	0.268847	0.000005
C16	C	1.441050	0.128627	0.000000
C17	C	1.549998	0.072791	0.000005
C18	C	1.546634	-0.058961	-0.000005
C19	C	1.325363	-0.079031	-0.000018
C20	C	1.328730	0.052718	-0.000018
C21	C	1.662318	0.148700	0.000023
C22	C	1.771275	0.092866	0.000030
C23	C	1.767911	-0.038887	0.000020
C24	C	1.655590	-0.114805	0.000004
C25	C	1.659894	0.537943	-0.000000
C26	C	1.794886	0.570936	-0.000008
C27	C	1.430744	0.724907	-0.000005
C28	C	1.434319	0.865125	-0.000009
N29	N	1.382723	0.541960	0.353639
N30	N	1.492654	0.451786	-0.353636
C31	C	1.449884	0.486858	0.421420
C32	C	1.425483	0.506896	0.578586
H33	H	1.039727	0.319571	-0.000033
C34	C	1.208924	0.539307	0.622896
C35	C	1.323462	0.590609	0.657306
H36	H	1.145943	0.590983	0.671503
H37	H	1.211945	0.536835	0.527617
H38	H	1.191198	0.455314	0.646254
H39	H	1.341192	0.674599	0.633938
H40	H	1.320443	0.593095	0.752607
H41	H	1.525445	0.424842	0.363098
H42	H	1.862728	0.154682	0.000008
H43	H	1.307154	0.603965	0.411963
H44	H	1.652862	-0.222088	-0.000018
C45	C	1.221956	-0.289906	-0.000008
C46	C	1.201904	-0.162475	-0.000018
H47	H	1.145733	-0.341415	0.000004
H48	H	1.279156	-0.317458	-0.079159
H49	H	1.254561	-0.297267	0.079153
H50	H	1.169308	-0.155112	-0.079185
H51	H	1.144684	-0.134915	0.079141
H52	H	1.240015	0.098180	-0.000020
C53	C	1.598712	0.363934	0.427192
C54	C	1.594403	0.367733	0.567650
H55	H	1.661451	0.311950	0.378601
H56	H	1.520875	0.329423	0.404036
H57	H	1.616754	0.447855	0.403681
H58	H	1.576352	0.283812	0.591163
H59	H	1.672258	0.402239	0.590816
H60	H	1.048204	0.617161	0.000001
H61	H	0.827174	0.376568	-0.000037
H62	H	1.856631	-0.084345	0.000011
C63	C	0.977465	0.717121	-0.000059
C64	C	0.849895	0.710316	-0.000044
H65	H	1.011424	0.803165	-0.000098
H66	H	0.991448	0.686531	0.079104
H67	H	1.016039	0.666295	-0.079208
H68	H	0.811319	0.761135	0.079110
H69	H	0.835902	0.740923	-0.079215
C70	C	1.709240	0.357755	0.116730
C71	C	1.666027	0.293525	0.000034
H72	H	1.711536	0.447163	0.116732
H73	H	1.655303	0.334329	0.195861
H74	H	1.790199	0.335348	0.116722
H75	H	1.585065	0.315925	0.000047
H76	H	1.719966	0.316961	-0.079118
