data_functionalizedCrystal
_audit_creation_method	'MofGen! by Chris Wilmer'
_symmetry_space_group_name_H-M	'P1'
_symmetry_Int_Tables_number	1
_symmetry_cell_setting	triclinic
loop_
_symmetry_equiv_pos_as_xyz
  x,y,z
_cell_length_a	16.109301
_cell_length_b	16.109304
_cell_length_c	14.586319
_cell_angle_alpha	89.999019
_cell_angle_beta	89.999213
_cell_angle_gamma	83.462059
loop_
_atom_site_label
_atom_site_type_symbol
_atom_site_fract_x
_atom_site_fract_y
_atom_site_fract_z
O1	O	1.103132	0.106866	-0.076177
O2	O	0.861070	0.120165	-0.076190
O3	O	0.988749	-0.007515	-0.076184
O4	O	0.975453	0.234546	-0.076183
O5	O	0.988741	-0.007517	0.076297
O6	O	0.861061	0.120163	0.076290
O7	O	1.103123	0.106864	0.076304
Cu8	Cu	0.982091	0.113514	0.090220
Cu9	Cu	0.982102	0.113516	-0.090106
O10	O	0.975444	0.234545	0.076297
C11	C	0.830091	0.119626	0.000048
C12	C	0.737795	0.118010	0.000043
C13	C	0.515524	0.190018	0.000053
C14	C	0.428803	0.188494	0.000059
C15	C	0.448676	0.037005	0.000055
C16	C	0.535395	0.038530	0.000056
C17	C	0.568816	0.115039	0.000050
C18	C	0.395377	0.111990	0.000055
C19	C	0.301351	0.110337	0.000062
C20	C	0.662848	0.116693	0.000046
C21	C	0.988206	-0.038491	0.000055
C22	C	0.986590	-0.130786	0.000048
C23	C	0.982861	-0.343123	-0.083066
C24	C	0.981335	-0.429843	-0.083065
C25	C	0.981330	-0.429842	0.083178
C26	C	0.982850	-0.343122	0.083176
C27	C	0.983620	-0.299766	0.000052
C28	C	0.980573	-0.473205	0.000054
C29	C	0.978919	-0.567231	0.000056
C30	C	0.985273	-0.205734	0.000050
C31	C	1.134102	0.107404	0.000064
C32	C	1.226398	0.109019	0.000063
C33	C	0.975987	0.265520	0.000057
C34	C	0.977603	0.357816	0.000057
N35	N	0.982090	0.113511	0.217052
N36	N	0.982110	0.113511	-0.216938
C37	C	1.038645	0.056993	0.452061
C38	C	1.038647	0.056991	0.548042
C39	C	0.925549	0.170032	0.548046
C40	C	0.925543	0.170029	0.452066
C41	C	0.982096	0.113511	0.404077
C42	C	0.982104	0.113512	0.596037
C43	C	0.982106	0.113510	0.700104
C44	C	0.982093	0.113512	0.300003
H45	H	0.542732	0.252316	0.000056
H46	H	0.578788	-0.022530	0.000056
H47	H	0.980716	-0.465140	-0.150748
C48	C	0.863335	0.232203	0.399275
C49	C	0.801160	0.294403	0.452056
C50	C	0.738953	0.356570	0.399263
C51	C	0.738923	0.356538	0.293689
C52	C	0.801101	0.294336	0.240902
C53	C	0.863307	0.232169	0.293695
H54	H	0.801180	0.294429	0.530213
H55	H	0.692925	0.402617	0.438340
H56	H	0.692874	0.402559	0.254609
H57	H	0.801080	0.294311	0.162745
H58	H	0.909336	0.186123	0.254618
C59	C	0.370181	0.270972	0.000061
C60	C	0.406948	0.355125	0.000057
C61	C	0.348326	0.437607	0.000061
C62	C	0.252937	0.435937	0.000069
C63	C	0.216166	0.351781	0.000072
C64	C	0.274788	0.269299	0.000068
H65	H	0.477564	0.356364	0.000052
H66	H	0.375546	0.499905	0.000059
H67	H	0.209542	0.496995	0.000072
H68	H	0.145550	0.350542	0.000078
H69	H	0.247567	0.207001	0.000071
H70	H	0.980704	-0.465154	0.150855
H71	H	0.421454	-0.025285	0.000065
H72	H	0.983486	-0.307824	-0.150751
H73	H	0.983463	-0.307820	0.150864
H74	H	1.084693	0.010972	0.412990
C75	C	1.100855	-0.005176	0.600827
C76	C	1.163066	-0.067335	0.548038
C77	C	1.225275	-0.129506	0.600822
C78	C	1.225273	-0.129519	0.706396
C79	C	1.163060	-0.067358	0.759191
C80	C	1.100851	-0.005187	0.706406
H81	H	1.163069	-0.067327	0.469880
H82	H	1.271329	-0.175521	0.561739
H83	H	1.271324	-0.175542	0.745470
H84	H	1.163057	-0.067366	0.837348
H85	H	1.054797	0.040829	0.745489
H86	H	0.879505	0.216049	0.587129
