data_functionalizedCrystal
_audit_creation_method	'MofGen! by Chris Wilmer'
_symmetry_space_group_name_H-M	'P1'
_symmetry_Int_Tables_number	1
_symmetry_cell_setting	triclinic
loop_
_symmetry_equiv_pos_as_xyz
  x,y,z
_cell_length_a	17.699083
_cell_length_b	12.837942
_cell_length_c	16.176319
_cell_angle_alpha	89.994101
_cell_angle_beta	89.998611
_cell_angle_gamma	89.055978
loop_
_atom_site_label
_atom_site_type_symbol
_atom_site_fract_x
_atom_site_fract_y
_atom_site_fract_z
O1	O	1.013708	0.131067	-0.068629
O2	O	0.794582	0.148119	-0.068656
O3	O	0.899286	-0.011297	-0.068638
O4	O	0.909004	0.290484	-0.068647
O5	O	0.899269	-0.011307	0.068855
O6	O	0.794565	0.148109	0.068837
O7	O	1.013691	0.131057	0.068864
Cu8	Cu	0.904126	0.139582	0.081405
Cu9	Cu	0.904146	0.139594	-0.081197
O10	O	0.908987	0.290474	0.068846
C11	C	0.766332	0.147503	0.000087
C12	C	0.682179	0.145670	0.000077
C13	C	0.640432	0.239245	0.000074
C14	C	0.561362	0.237516	0.000085
C15	C	0.524040	0.142212	0.000092
C16	C	0.565792	0.048631	0.000097
C17	C	0.644861	0.050360	0.000093
C18	C	0.246916	0.041653	0.000118
C19	C	0.167842	0.039931	0.000120
C20	C	0.163418	0.228809	0.000111
C21	C	0.242486	0.230539	0.000106
C22	C	0.284232	0.136958	0.000115
C23	C	0.369969	0.138833	0.000105
C24	C	0.438304	0.140336	0.000097
C25	C	0.895995	-0.049915	0.000108
C26	C	0.886204	-0.164967	0.000105
C27	C	1.003908	-0.406222	0.000102
C28	C	0.994712	-0.514324	0.000100
C29	C	0.858617	-0.489277	0.000092
C30	C	0.867813	-0.381174	0.000094
C31	C	0.940461	-0.339651	0.000101
C32	C	0.949656	-0.231546	0.000109
C33	C	0.813561	-0.206501	0.000095
C34	C	0.804365	-0.314604	0.000093
C35	C	1.041941	0.131673	0.000119
C36	C	1.126094	0.133506	0.000124
C37	C	0.912278	0.329091	0.000099
C38	C	0.922069	0.444144	0.000096
N39	N	0.904118	0.139573	0.195770
N40	N	0.904160	0.139595	-0.195562
C41	C	0.950499	0.069012	0.239042
C42	C	0.950502	0.069011	0.325589
C43	C	0.904129	0.139577	0.368863
C44	C	0.857743	0.210141	0.325584
C45	C	0.857736	0.210136	0.239039
C46	C	0.857771	0.210161	0.674613
C47	C	0.857783	0.210162	0.761164
C48	C	0.950537	0.069035	0.761163
C49	C	0.950530	0.069031	0.674617
C50	C	0.904141	0.139591	0.631347
C51	C	0.904137	0.139590	0.537503
C52	C	0.904137	0.139584	0.462705
H53	H	0.678850	-0.025837	0.000094
H54	H	1.046378	-0.568524	0.000098
H55	H	0.799470	-0.523105	0.000077
C56	C	0.806735	0.287763	0.373183
H57	H	0.813387	0.277669	0.430924
H58	H	0.755418	0.276596	0.359009
H59	H	0.819944	0.356923	0.358987
H60	H	0.129419	0.305007	0.000107
C61	C	0.724459	-0.360286	0.000090
H62	H	0.728068	-0.434203	0.000095
H63	H	0.698006	-0.337415	-0.047854
H64	H	0.698010	-0.337432	0.048046
H65	H	0.761898	-0.152287	0.000100
H66	H	0.988264	0.011554	0.203815
H67	H	0.527375	0.313714	0.000082
C68	C	1.083815	-0.360542	0.000116
H69	H	1.120286	-0.415673	0.000115
H70	H	1.090223	-0.318898	0.048064
H71	H	1.090237	-0.318886	-0.047836
C72	C	1.001558	-0.008592	0.808759
H73	H	1.029180	-0.050610	0.770590
H74	H	0.971231	-0.051693	0.842528
H75	H	1.035751	0.028644	0.842512
H76	H	0.137457	-0.037681	0.000128
C77	C	0.292830	-0.061278	0.000116
H78	H	0.345266	-0.046606	0.000120
H79	H	0.280778	-0.100358	-0.047830
H80	H	0.280781	-0.100369	0.048070
C81	C	1.001529	-0.008596	0.373185
H82	H	1.029154	-0.050611	0.335018
H83	H	0.971208	-0.051700	0.406957
H84	H	1.035719	0.028651	0.406935
H85	H	0.820018	0.267627	0.796396
H86	H	0.988294	0.011573	0.639387
H87	H	0.819967	0.267593	0.203807
C88	C	0.681480	0.344080	0.000066
H89	H	0.645290	0.399561	0.000073
H90	H	0.712232	0.348687	-0.047883
H91	H	0.712233	0.348677	0.048017
C92	C	0.283537	0.335372	0.000101
H93	H	0.247349	0.390856	0.000109
H94	H	0.314291	0.339980	-0.047846
H95	H	0.314288	0.339963	0.048054
H96	H	0.820001	0.267615	0.639388
C97	C	0.524743	-0.056204	0.000105
H98	H	0.560933	-0.111686	0.000112
H99	H	0.493990	-0.060802	-0.047841
H100	H	0.493992	-0.060808	0.048059
C101	C	1.029564	-0.185871	0.000114
H102	H	1.066033	-0.241005	0.000106
H103	H	1.035981	-0.144228	0.048061
H104	H	1.035981	-0.144215	-0.047839
