data_functionalizedCrystal
_audit_creation_method	'MofGen! by Chris Wilmer'
_symmetry_space_group_name_H-M	'P1'
_symmetry_Int_Tables_number	1
_symmetry_cell_setting	triclinic
loop_
_symmetry_equiv_pos_as_xyz
  x,y,z
_cell_length_a	17.019282
_cell_length_b	17.019294
_cell_length_c	13.596369
_cell_angle_alpha	86.115041
_cell_angle_beta	93.875895
_cell_angle_gamma	83.655696
loop_
_atom_site_label
_atom_site_type_symbol
_atom_site_fract_x
_atom_site_fract_y
_atom_site_fract_z
O1	O	1.046568	0.100443	-0.001622
O2	O	0.816888	0.113271	-0.022171
O3	O	0.938135	-0.007983	-0.001622
O4	O	0.925321	0.221698	-0.022171
O5	O	0.938123	-0.007990	0.161960
O6	O	0.816876	0.113265	0.141412
O7	O	1.046556	0.100437	0.161960
Zn8	Zn	0.931714	0.106850	0.177658
Zn9	Zn	0.931730	0.106858	-0.037869
O10	O	0.925309	0.221691	0.141412
C11	C	0.787494	0.112784	0.057171
C12	C	0.699925	0.111331	0.049874
C13	C	0.658783	0.110643	0.135617
C14	C	0.576505	0.109266	0.128764
C15	C	0.535369	0.108582	0.036167
C16	C	0.576517	0.109267	-0.049582
C17	C	0.658794	0.110639	-0.042728
C18	C	0.286944	0.104435	0.011012
C19	C	0.204661	0.103065	0.004164
C20	C	0.204655	0.103062	0.182511
C21	C	0.286933	0.104439	0.189357
C22	C	0.328075	0.105120	0.103608
C23	C	0.451267	0.107176	0.029160
C24	C	0.412176	0.106520	0.110616
C25	C	0.937643	-0.037375	0.082616
C26	C	0.936185	-0.124944	0.089906
C27	C	0.935509	-0.166076	0.004163
C28	C	0.934134	-0.248356	0.011016
C29	C	0.933441	-0.289502	0.103613
C30	C	0.934116	-0.248364	0.189362
C31	C	0.935485	-0.166085	0.182508
C32	C	0.929302	-0.537931	0.128769
C33	C	0.927935	-0.620216	0.135617
C34	C	0.927952	-0.620201	-0.042730
C35	C	0.929326	-0.537922	-0.049575
C36	C	0.929996	-0.496790	0.036173
C37	C	0.932039	-0.373606	0.110621
C38	C	0.931393	-0.412688	0.029165
C39	C	1.075950	0.100925	0.082616
C40	C	1.163519	0.102377	0.089907
C41	C	0.925801	0.251083	0.057172
C42	C	0.927259	0.338652	0.049875
N43	N	0.931709	0.106844	0.324750
N44	N	0.931741	0.106858	-0.184960
C45	C	0.931729	0.106859	0.726041
C46	C	0.931721	0.106857	0.614390
C47	C	0.931719	0.106852	0.525399
C48	C	0.931711	0.106849	0.413740
H49	H	0.171149	0.102506	0.252323
C50	C	0.936271	-0.120822	-0.097702
N51	N	0.936841	-0.086739	-0.174430
H52	H	0.929863	-0.504454	0.198594
C53	C	0.531250	0.108527	0.223087
N54	N	0.497164	0.107977	0.294135
C55	C	0.931277	-0.418875	0.212475
N56	N	0.930700	-0.452975	0.289192
H57	H	0.171170	0.102510	-0.071244
H58	H	0.929891	-0.504426	-0.124978
H59	H	0.927405	-0.653699	-0.112541
H60	H	0.543018	0.108705	-0.124976
C61	C	0.927171	-0.665475	0.237486
N62	N	0.926595	-0.699565	0.314209
C63	C	0.932159	-0.367424	-0.072689
N64	N	0.932742	-0.333325	-0.149405
H65	H	0.692269	0.111207	0.211019
H66	H	0.936024	-0.132595	0.252328
C67	C	0.933348	-0.293628	0.291220
N68	N	0.932771	-0.327720	0.367942
H69	H	0.692291	0.111201	-0.112549
C70	C	0.332190	0.105177	-0.083315
N71	N	0.366272	0.105734	-0.154366
C72	C	0.332177	0.105187	0.291221
N73	N	0.366255	0.105751	0.367947
H74	H	0.445673	0.107073	0.186009
H75	H	0.417765	0.106619	-0.046233
H76	H	0.933587	-0.281842	-0.058805
