data_functionalizedCrystal
_audit_creation_method	'MofGen! by Chris Wilmer'
_symmetry_space_group_name_H-M	'P1'
_symmetry_Int_Tables_number	1
_symmetry_cell_setting	triclinic
loop_
_symmetry_equiv_pos_as_xyz
  x,y,z
_cell_length_a	25.427154
_cell_length_b	25.426324
_cell_length_c	25.422586
_cell_angle_alpha	60.006367
_cell_angle_beta	60.012446
_cell_angle_gamma	59.992398
loop_
_atom_site_label
_atom_site_type_symbol
_atom_site_fract_x
_atom_site_fract_y
_atom_site_fract_z
O1	O	0.072968	-0.768436	0.642532
O2	O	0.027520	-0.598284	0.517710
O3	O	0.135268	-0.705940	0.517611
O4	O	-0.034780	-0.660780	0.642632
O5	O	0.171018	-0.670200	0.553260
O6	O	0.063270	-0.562544	0.553360
O7	O	0.108718	-0.732696	0.678182
Zn8	Zn	0.091670	-0.641945	0.621431
Zn9	Zn	0.044568	-0.689034	0.574461
O10	O	0.000970	-0.625039	0.678281
N11	N	0.123818	-0.609812	0.653490
N12	N	0.012426	-0.721173	0.542402
C13	C	0.168482	-0.466269	0.698103
C14	C	0.168494	-0.565177	0.698095
C15	C	0.193243	-0.540453	0.722807
C16	C	0.301113	-0.521853	0.665993
C17	C	0.368545	-0.544324	0.643486
C18	C	0.368579	-0.653434	0.685090
C19	C	0.301149	-0.630961	0.707599
C20	C	0.184722	-0.432539	0.631812
C21	C	0.162210	-0.365100	0.609357
C22	C	0.107225	-0.365129	0.719489
C23	C	0.129737	-0.432567	0.741943
C24	C	0.102194	-0.548896	0.714421
C25	C	0.079702	-0.571372	0.691949
C26	C	0.189805	-0.626409	0.636839
C27	C	0.212300	-0.603934	0.659303
C28	C	0.102289	-0.548918	0.830735
C29	C	0.079866	-0.571415	0.898171
C30	C	0.190015	-0.626466	0.898104
C31	C	0.212437	-0.603971	0.830666
C32	C	0.168573	-0.565195	0.796984
C33	C	0.267418	-0.565170	0.698047
C34	C	-0.130981	-0.765617	0.497386
C35	C	-0.032127	-0.765741	0.497606
C36	C	-0.056804	-0.790430	0.472789
C37	C	-0.075480	-0.898263	0.529507
C38	C	-0.053057	-0.965702	0.552014
C39	C	0.056052	-0.965829	0.510599
C40	C	0.033627	-0.898392	0.488091
C41	C	-0.164787	-0.781859	0.563659
C42	C	-0.232219	-0.759299	0.586018
C43	C	-0.232034	-0.704261	0.475827
C44	C	-0.164602	-0.726821	0.453469
C45	C	-0.048372	-0.699446	0.481299
C46	C	-0.025938	-0.677008	0.503867
C47	C	0.028987	-0.787155	0.559036
C48	C	0.006552	-0.809596	0.536475
C49	C	-0.048188	-0.699454	0.364860
C50	C	-0.025608	-0.677017	0.297425
C51	C	0.029406	-0.787170	0.297492
C52	C	0.006827	-0.809605	0.364929
C53	C	-0.031972	-0.765745	0.398611
C54	C	-0.032140	-0.864611	0.497548
N55	N	0.401319	-0.609788	0.653344
O56	O	0.621664	-0.620517	0.494685
O57	O	0.621901	-0.745740	0.664659
O58	O	0.621803	-0.745452	0.556857
O59	O	0.621762	-0.620805	0.602487
O60	O	0.514676	-0.709815	0.592658
O61	O	0.514774	-0.710104	0.700460
O62	O	0.514537	-0.584881	0.530485
Zn63	Zn	0.497647	-0.641834	0.621157
Zn64	Zn	0.638791	-0.688787	0.573988
O65	O	0.514635	-0.585169	0.638287
N66	N	0.735119	-0.720834	0.541794
N67	N	0.123794	-0.332357	0.653504
O68	O	-0.034774	-0.111885	0.642639
O69	O	0.135202	-0.111860	0.517412
O70	O	0.027364	-0.111888	0.517742
O71	O	0.073064	-0.111857	0.642310
O72	O	0.063120	-0.219026	0.553444
O73	O	0.170958	-0.218998	0.553115
O74	O	0.000983	-0.219022	0.678342
Zn75	Zn	0.091647	-0.236020	0.621397
Zn76	Zn	0.044537	-0.094862	0.574357
O77	O	0.108821	-0.218994	0.678013
N78	N	0.012383	0.001474	0.542251
N79	N	0.124036	-0.609854	0.930891
O80	O	0.113202	-0.768401	1.151342
O81	O	-0.011992	-0.598359	1.151385
O82	O	-0.011700	-0.706176	1.151343
O83	O	0.112910	-0.660584	1.151384
O84	O	0.023980	-0.670446	1.044212
O85	O	0.023689	-0.562630	1.044253
O86	O	0.148882	-0.732671	1.044211
Zn87	Zn	0.091951	-0.641977	1.027223
Zn88	Zn	0.044940	-0.689053	1.168373
O89	O	0.148590	-0.624854	1.044252
N90	N	0.012853	-0.721183	1.264704
C91	C	0.041135	-0.558973	0.518338
C92	C	0.174567	-0.692292	0.518215
C93	C	0.095103	-0.772007	0.677553
C94	C	-0.038330	-0.638687	0.677677
C95	C	0.568366	-0.745166	0.703974
C96	C	0.568246	-0.744810	0.570474
C97	C	0.568069	-0.585454	0.491172
C98	C	0.568192	-0.585812	0.624671
C99	C	0.174449	-0.165294	0.517975
C100	C	0.040949	-0.165460	0.518427
C101	C	-0.038309	-0.165456	0.677735
C102	C	0.095236	-0.165423	0.677328
C103	C	-0.011393	-0.559072	1.097824
C104	C	-0.011024	-0.692583	1.097752
C105	C	0.148283	-0.771958	1.097772
C106	C	0.147922	-0.638440	1.097820
H107	H	0.025889	-0.558152	0.925643
O108	O	0.568179	-0.791548	0.558934
C109	C	0.512734	-0.808914	0.603110
H110	H	0.494268	-0.796089	0.647763
H111	H	0.525260	-0.862957	0.617495
H112	H	0.473841	-0.781740	0.579797
O113	O	0.568067	-0.538527	0.432935
C114	C	0.623523	-0.521198	0.404381
H115	H	0.642070	-0.534245	0.443418
H116	H	0.610981	-0.467122	0.377432
H117	H	0.662361	-0.548213	0.369203
H118	H	0.175430	-0.337636	0.555374
O119	O	0.029439	-0.500639	0.471626
C120	C	-0.033859	-0.460678	0.495008
H121	H	-0.064378	-0.491764	0.536378
H122	H	-0.055499	-0.429796	0.454630
H123	H	-0.032885	-0.428163	0.512921
H124	H	0.187070	-0.628684	1.097824
H125	H	-0.087123	-0.165464	0.717049
H126	H	-0.050697	-0.510236	1.097837
H127	H	0.223406	-0.701920	0.478955
H128	H	-0.087172	-0.629063	0.716934
H129	H	0.273654	-0.468282	0.658214
H130	H	0.105023	-0.165413	0.716462
O131	O	0.106778	-0.830362	0.724245
C132	C	0.170087	-0.870311	0.700874
H133	H	0.187070	-0.852755	0.646007
H134	H	0.170966	-0.921946	0.720549
H135	H	0.203416	-0.868537	0.717169
H136	H	0.266286	-0.617183	0.646003
O137	O	0.195198	-0.830220	1.097842
C138	C	0.212493	-0.858750	1.153337
H139	H	0.199438	-0.819691	1.171854
H140	H	0.266561	-0.885730	1.140855
H141	H	0.185465	-0.893899	1.192177
O142	O	0.568147	-0.539157	0.636430
C143	C	0.568239	-0.562632	0.699730
H144	H	0.548010	-0.604007	0.730210
H145	H	0.537131	-0.522301	0.721427
H146	H	0.619650	-0.580571	0.698738
O147	O	0.568472	-0.792007	0.762237
C148	C	0.568473	-0.768807	0.802329
H149	H	0.588704	-0.727432	0.771357
H150	H	0.599628	-0.809279	0.833157
H151	H	0.517091	-0.750952	0.834892
O152	O	0.232588	-0.164899	0.471014
C153	C	0.272661	-0.164779	0.494145
H154	H	0.241683	-0.144708	0.535647
H155	H	0.303264	-0.133422	0.453694
H156	H	0.305440	-0.216108	0.511799
H157	H	0.066565	-0.517338	0.803314
H158	H	-0.050155	-0.702322	1.097697
H159	H	0.273715	-0.666239	0.733700
H160	H	0.225736	-0.658027	0.925521
H161	H	0.266414	-0.617231	0.803190
O162	O	0.029298	-0.165598	0.471794
C163	C	0.014144	-0.221092	0.494012
H164	H	0.034953	-0.259856	0.534009
H165	H	0.035628	-0.239736	0.452541
H166	H	-0.040404	-0.208559	0.513449
O167	O	0.059615	-0.511155	0.752002
C168	C	0.020580	-0.454600	0.717986
H169	H	0.046583	-0.445210	0.664031
H170	H	0.010386	-0.412126	0.730059
H171	H	-0.026794	-0.460732	0.732362
O172	O	0.015314	-0.555676	0.707830
C173	C	-0.000947	-0.612347	0.741783
H174	H	0.043500	-0.654710	0.729591
H175	H	-0.040069	-0.606319	0.727455
H176	H	-0.019419	-0.621837	0.795756
O177	O	0.232446	-0.664030	0.599146
C178	C	0.295785	-0.673593	0.589576
H179	H	0.295665	-0.632939	0.597115
H180	H	0.327770	-0.673935	0.538424
H181	H	0.315140	-0.721638	0.625450
H182	H	0.396045	-0.707006	0.692856
H183	H	0.216267	-0.459978	0.596113
O184	O	0.401247	-0.502205	0.612251
C185	C	0.384709	-0.456416	0.556679
H186	H	0.366158	-0.477196	0.541194
H187	H	0.429034	-0.444064	0.516186
H188	H	0.345564	-0.410960	0.567719
O189	O	0.069666	-0.332452	0.762131
C190	C	0.103762	-0.348910	0.801076
H191	H	0.143029	-0.397869	0.801720
H192	H	0.069194	-0.351225	0.852225
H193	H	0.126631	-0.310945	0.780776
O194	O	-0.041456	-0.612595	0.264745
C195	C	-0.080530	-0.578701	0.308939
H196	H	-0.105106	-0.610825	0.356981
H197	H	-0.118632	-0.533672	0.289378
H198	H	-0.049450	-0.564197	0.316192
O199	O	0.114077	-0.465409	0.806328
C200	C	0.170761	-0.504401	0.822595
H201	H	0.213110	-0.514487	0.778141
H202	H	0.164764	-0.551832	0.861694
H203	H	0.180244	-0.478416	0.841103
H204	H	-0.079784	-0.663733	0.392281
H205	H	0.020039	-0.863588	0.392405
O206	O	0.067101	-0.829863	0.264878
C207	C	0.076553	-0.893184	0.309131
H208	H	0.068948	-0.893050	0.357226
H209	H	0.127694	-0.925258	0.289730
H210	H	0.040661	-0.912448	0.316222
H211	H	-0.079862	-0.663733	0.449648
H212	H	-0.039168	-0.623025	0.490592
H213	H	0.019779	-0.863579	0.549754
O214	O	0.066532	-0.829845	0.596804
C215	C	0.076072	-0.893168	0.606337
H216	H	0.035450	-0.892996	0.598703
H217	H	0.076340	-0.925174	0.657510
H218	H	0.124140	-0.912540	0.570507
H219	H	0.068924	-0.870994	0.462067
H220	H	0.109606	-0.993335	0.502902
H221	H	-0.088349	-0.993100	0.578027
H222	H	-0.137414	-0.813456	0.599420
O223	O	-0.139353	-0.865472	0.538589
C224	C	-0.159880	-0.881938	0.508227
H225	H	-0.116774	-0.900536	0.468442
H226	H	-0.196952	-0.837561	0.486529
H227	H	-0.182514	-0.921031	0.545157
O228	O	-0.264962	-0.775163	0.650420
C229	C	-0.220828	-0.814233	0.684388
H230	H	-0.172733	-0.838793	0.652286
H231	H	-0.240378	-0.852353	0.729361
H232	H	-0.213683	-0.783147	0.698984
H233	H	-0.137077	-0.713589	0.399501
O234	O	-0.264598	-0.666566	0.433081
C235	C	-0.220300	-0.657093	0.369789
H236	H	-0.172254	-0.664683	0.370005
H237	H	-0.239713	-0.605947	0.337725
H238	H	-0.213113	-0.692987	0.350459
