data_functionalizedCrystal
_audit_creation_method	'MofGen! by Chris Wilmer'
_symmetry_space_group_name_H-M	'P1'
_symmetry_Int_Tables_number	1
_symmetry_cell_setting	triclinic
loop_
_symmetry_equiv_pos_as_xyz
  x,y,z
_cell_length_a	16.992694
_cell_length_b	14.853567
_cell_length_c	16.053802
_cell_angle_alpha	92.572962
_cell_angle_beta	87.249047
_cell_angle_gamma	87.151577
loop_
_atom_site_label
_atom_site_type_symbol
_atom_site_fract_x
_atom_site_fract_y
_atom_site_fract_z
O1	O	1.043898	0.187626	-0.069313
O2	O	0.815612	0.185528	-0.069338
O3	O	0.935853	0.055778	-0.069327
O4	O	0.923657	0.317376	-0.069323
O5	O	0.929234	0.062888	0.069531
O6	O	0.808993	0.192638	0.069521
O7	O	1.037280	0.194737	0.069545
Zn8	Zn	0.922086	0.194816	0.091580
Zn9	Zn	0.930806	0.185448	-0.091372
O10	O	0.917038	0.324487	0.069535
C11	C	0.783087	0.186385	0.000088
C12	C	0.696035	0.178334	0.000078
C13	C	0.645879	0.256009	0.000080
C14	C	0.564083	0.248440	0.000092
C15	C	0.532446	0.163195	0.000095
C16	C	0.582608	0.085513	0.000096
C17	C	0.664401	0.093084	0.000091
C18	C	0.288813	0.131819	0.000117
C19	C	0.207013	0.124255	0.000120
C20	C	0.188494	0.287183	0.000117
C21	C	0.270290	0.294745	0.000107
C22	C	0.320445	0.217064	0.000112
N23	N	0.448838	0.155456	0.000104
N24	N	0.404051	0.224804	0.000109
C25	C	0.931991	0.025705	0.000099
C26	C	0.930335	-0.074496	0.000092
C27	C	0.851909	-0.492567	0.000099
C28	C	0.994758	-0.503761	0.000115
C29	C	0.996315	-0.409617	0.000110
C30	C	0.925668	-0.356944	0.000101
C31	C	0.853464	-0.398414	0.000097
C32	C	1.068518	-0.368139	0.000123
C33	C	1.070078	-0.273990	0.000119
C34	C	0.999430	-0.221316	0.000104
C35	C	0.927223	-0.262792	0.000099
C36	C	0.856576	-0.210118	0.000090
C37	C	0.784368	-0.251593	0.000079
C38	C	0.782816	-0.345740	0.000082
C39	C	1.000983	-0.127169	0.000101
C40	C	0.858131	-0.115966	0.000088
C41	C	1.069804	0.193880	0.000118
C42	C	1.156857	0.201930	0.000122
C43	C	0.920900	0.354559	0.000106
C44	C	0.922556	0.454760	0.000108
N45	N	0.916140	0.201210	0.216440
N46	N	0.936757	0.179048	-0.216232
C47	C	0.967322	0.146023	0.260138
C48	C	0.963170	0.150505	0.347544
C49	C	0.907840	0.210178	0.391251
C50	C	0.856653	0.265367	0.347546
C51	C	0.860801	0.260880	0.260141
C52	C	0.889719	0.229750	0.652659
C53	C	0.885576	0.234235	0.740070
C54	C	0.992092	0.119371	0.740062
C55	C	0.996239	0.114894	0.652655
C56	C	0.945049	0.170079	0.608958
N57	N	0.903597	0.214762	0.480594
N58	N	0.949289	0.165490	0.519617
H59	H	0.181257	0.054834	0.000122
N60	N	0.834521	0.289285	0.605538
H61	H	0.845539	0.277392	0.543535
H62	H	0.778158	0.275615	0.620826
H63	H	1.052275	-0.546652	0.000129
H64	H	1.059773	-0.093404	0.000115
N65	N	1.027004	0.081667	0.213000
H66	H	1.058796	0.047386	0.253950
H67	H	0.998666	0.037763	0.176742
N68	N	1.018399	0.091015	0.394677
H69	H	1.054092	0.052548	0.353727
H70	H	1.051364	0.129951	0.430918
N71	N	0.781925	-0.059167	0.000087
H72	H	0.776933	-0.017223	0.051565
H73	H	0.781879	-0.022545	-0.051419
H74	H	0.819123	0.305817	0.224563
H75	H	0.705238	0.029832	0.000089
H76	H	1.041293	0.066303	0.617071
H77	H	0.811598	0.313950	0.383137
H78	H	0.724028	-0.379517	0.000074
N79	N	0.134400	0.370963	0.000113
H80	H	0.077782	0.353236	0.000118
H81	H	0.142208	0.410495	0.051589
N82	N	0.825902	0.298599	0.787222
H83	H	0.835718	0.362466	0.772003
H84	H	0.770983	0.283312	0.772014
H85	H	0.793119	-0.526340	0.000087
N86	N	0.342902	0.048039	0.000128
H87	H	0.310445	-0.007110	0.000130
H88	H	0.379693	0.044987	-0.051347
N89	N	1.047301	0.059852	0.787191
H90	H	1.036279	0.071746	0.849193
H91	H	1.038900	-0.005552	0.771919
H92	H	0.671631	0.325425	0.000077
N93	N	0.548489	-0.006431	0.000113
H94	H	0.489062	0.000558	0.000117
H95	H	0.569276	-0.043324	-0.051361
H96	H	0.726847	-0.208694	0.000078
N97	N	1.144705	-0.424957	0.000143
H98	H	1.149698	-0.466906	-0.051332
H99	H	1.190641	-0.384344	0.000185
N100	N	0.510018	0.332251	0.000163
H101	H	0.522636	0.366582	-0.051293
H102	H	0.453408	0.314497	0.000226
N103	N	0.304413	0.386688	0.000087
H104	H	0.260227	0.434748	0.000086
H105	H	0.335506	0.396025	0.051556
H106	H	1.128874	-0.240230	0.000127
