data_functionalizedCrystal
_audit_creation_method	'MofGen! by Chris Wilmer'
_symmetry_space_group_name_H-M	'P1'
_symmetry_Int_Tables_number	1
_symmetry_cell_setting	triclinic
loop_
_symmetry_equiv_pos_as_xyz
  x,y,z
_cell_length_a	14.044220
_cell_length_b	10.868271
_cell_length_c	14.044220
_cell_angle_alpha	90.006070
_cell_angle_beta	93.188878
_cell_angle_gamma	89.999310
loop_
_atom_site_label
_atom_site_type_symbol
_atom_site_fract_x
_atom_site_fract_y
_atom_site_fract_z
O1	O	1.277168	0.102196	0.230168
O2	O	1.610501	0.435530	0.563501
O3	O	1.943834	0.768863	0.896835
O4	O	1.000496	0.102227	0.221862
O5	O	1.333830	0.435561	0.555196
O6	O	1.667163	0.768894	0.888529
O7	O	1.134679	0.102200	0.087679
O8	O	1.468012	0.435533	0.421013
O9	O	1.801346	0.768867	0.754346
O10	O	1.142985	0.102223	0.364351
O11	O	1.476318	0.435557	0.697684
O12	O	1.809651	0.768890	1.031018
O13	O	1.134667	-0.102445	0.087673
O14	O	1.468000	0.230889	0.421006
O15	O	1.801333	0.564222	0.754339
O16	O	1.000484	-0.102417	0.221856
O17	O	1.333817	0.230916	0.555189
O18	O	1.667150	0.564249	0.888522
O19	O	1.277155	-0.102448	0.230161
O20	O	1.610489	0.230885	0.563495
O21	O	1.943822	0.564218	0.896828
Zn22	Zn	1.138817	-0.134925	0.226007
Zn23	Zn	1.472151	0.198409	0.559341
Zn24	Zn	1.805484	0.531742	0.892674
Zn25	Zn	1.138834	0.134704	0.226016
Zn26	Zn	1.472167	0.468037	0.559350
Zn27	Zn	1.805501	0.801370	0.892683
O28	O	1.142972	-0.102421	0.364344
O29	O	1.476306	0.230912	0.697678
O30	O	1.809639	0.564245	1.031011
C31	C	0.964868	-0.000091	0.218223
C32	C	1.298201	0.333242	0.551557
C33	C	1.631535	0.666575	0.884890
C34	C	0.858725	-0.000080	0.207379
C35	C	1.192059	0.333254	0.540712
C36	C	1.525392	0.666587	0.874045
C37	C	0.664388	-0.000106	0.187553
C38	C	0.997721	0.333228	0.520886
C39	C	1.331054	0.666561	0.854219
C40	C	0.613258	-0.000105	0.264467
C41	C	0.946591	0.333229	0.597800
C42	C	1.279924	0.666562	0.931134
C43	C	0.505122	-0.000119	0.253435
C44	C	0.838455	0.333214	0.586769
C45	C	1.171788	0.666548	0.920102
C46	C	0.772534	-0.000091	0.198583
C47	C	1.105867	0.333242	0.531916
C48	C	1.439200	0.666575	0.865249
C49	C	1.131037	-0.000122	0.052054
C50	C	1.464371	0.333211	0.385388
C51	C	1.797704	0.666544	0.718721
C52	C	1.120193	-0.000123	-0.054088
C53	C	1.453526	0.333211	0.279245
C54	C	1.786859	0.666544	0.612578
C55	C	1.312783	-0.000127	0.233800
C56	C	1.646117	0.333206	0.567134
C57	C	1.979450	0.666539	0.900467
C58	C	1.418926	-0.000131	0.244645
C59	C	1.752259	0.333203	0.577978
C60	C	2.085593	0.666536	0.911312
N61	N	1.138813	-0.318939	0.226001
N62	N	1.472146	0.014395	0.559335
N63	N	1.805480	0.347728	0.892668
C64	C	1.138829	-0.569945	0.226014
C65	C	1.472162	-0.236611	0.559347
C66	C	1.805495	0.096722	0.892681
C67	C	1.138817	-0.430267	0.226010
C68	C	1.472151	-0.096934	0.559343
C69	C	1.805484	0.236399	0.892676
N70	N	1.138845	0.318718	0.226015
N71	N	1.472179	0.652051	0.559349
N72	N	1.805512	0.985384	0.892682
C73	C	1.100366	-0.000103	-0.248426
C74	C	1.433700	0.333231	0.084907
C75	C	1.767033	0.666564	0.418241
C76	C	1.177281	-0.000108	-0.299556
C77	C	1.510614	0.333226	0.033777
C78	C	1.843947	0.666559	0.367111
C79	C	1.166249	-0.000097	-0.407692
C80	C	1.499583	0.333237	-0.074359
C81	C	1.832916	0.666570	0.258974
C82	C	1.111397	-0.000114	-0.140280
C83	C	1.444730	0.333220	0.193053
C84	C	1.778063	0.666553	0.526387
C85	C	1.146614	-0.000096	0.399969
C86	C	1.479948	0.333237	0.733303
C87	C	1.813281	0.666571	1.066636
C88	C	1.157459	-0.000088	0.506112
C89	C	1.490792	0.333246	0.839446
C90	C	1.824125	0.666579	1.172779
H91	H	0.650697	-0.000092	0.338600
H92	H	0.984030	0.333241	0.671934
H93	H	1.317364	0.666574	1.005267
H94	H	1.251414	-0.000033	-0.262117
H95	H	1.584748	0.333300	0.071217
H96	H	1.918081	0.666633	0.404550
O97	O	1.011860	-0.000040	-0.292930
O98	O	1.345193	0.333293	0.040403
O99	O	1.678526	0.666626	0.373736
C100	C	0.842264	-0.000115	-0.274700
C101	C	1.175598	0.333219	0.058633
C102	C	1.508931	0.666552	0.391966
C103	C	0.942439	-0.000152	-0.224163
C104	C	1.275772	0.333181	0.109170
C105	C	1.609105	0.666515	0.442504
H106	H	0.786110	-0.000231	-0.219125
H107	H	1.119444	0.333103	0.114209
H108	H	1.452777	0.666436	0.447542
H109	H	0.833207	0.085552	-0.321161
H110	H	1.166540	0.418886	0.012172
H111	H	1.499874	0.752219	0.345506
H112	H	0.833319	-0.085735	-0.321240
H113	H	1.166652	0.247599	0.012093
H114	H	1.499986	0.580932	0.345427
H115	H	0.951453	0.085410	-0.177574
H116	H	1.284786	0.418744	0.155759
H117	H	1.618119	0.752077	0.489092
H118	H	0.951450	-0.085875	-0.177761
H119	H	1.284783	0.247458	0.155573
H120	H	1.618116	0.580791	0.488906
H121	H	0.626951	-0.000119	0.113425
H122	H	0.960284	0.333215	0.446758
H123	H	1.293617	0.666548	0.780092
