data_functionalizedCrystal
_audit_creation_method	'MofGen! by Chris Wilmer'
_symmetry_space_group_name_H-M	'P1'
_symmetry_Int_Tables_number	1
_symmetry_cell_setting	triclinic
loop_
_symmetry_equiv_pos_as_xyz
  x,y,z
_cell_length_a	27.732048
_cell_length_b	14.519709
_cell_length_c	12.996460
_cell_angle_alpha	90.007090
_cell_angle_beta	90.000094
_cell_angle_gamma	83.161400
loop_
_atom_site_label
_atom_site_type_symbol
_atom_site_fract_x
_atom_site_fract_y
_atom_site_fract_z
O1	O	-0.641452	-0.109733	-0.085437
O2	O	-0.141452	0.390267	0.414563
O3	O	-0.500739	-0.126418	-0.085468
O4	O	-0.000739	0.373582	0.414532
O5	O	-0.574826	0.016228	-0.085442
O6	O	-0.074826	0.516228	0.414558
O7	O	-0.567365	-0.252379	-0.085462
O8	O	-0.067365	0.247621	0.414538
O9	O	-0.574818	0.016236	0.085692
O10	O	-0.074818	0.516236	0.585692
O11	O	-0.500731	-0.126410	0.085666
O12	O	-0.000731	0.373590	0.585666
O13	O	-0.641445	-0.109725	0.085697
O14	O	-0.141445	0.390275	0.585697
Cu15	Cu	-0.571087	-0.118067	0.101307
Cu16	Cu	-0.071087	0.381933	0.601307
Cu17	Cu	-0.571096	-0.118076	-0.101078
Cu18	Cu	-0.071096	0.381924	0.398922
O19	O	-0.567357	-0.252371	0.085671
O20	O	-0.067357	0.247629	0.585671
C21	C	-0.482726	-0.126064	0.000095
C22	C	0.017274	0.373936	0.500095
C23	C	-0.429066	-0.125009	0.000083
C24	C	0.070934	0.374991	0.500083
C25	C	-0.574475	0.050586	0.000125
C26	C	-0.074475	0.550586	0.500125
C27	C	-0.573433	0.152949	0.000125
C28	C	-0.073433	0.652949	0.500125
C29	C	-0.659457	-0.110079	0.000132
C30	C	-0.159457	0.389921	0.500132
C31	C	-0.713117	-0.111134	0.000137
C32	C	-0.213117	0.388866	0.500137
C33	C	-0.090622	-0.202664	0.000122
C34	C	0.409378	0.297336	0.500122
C35	C	0.111056	-0.198751	0.000131
C36	C	0.611056	0.301249	0.500131
O37	O	0.141972	-0.269761	0.000171
O38	O	0.641972	0.230239	0.500171
N39	N	0.130584	-0.114168	0.000136
N40	N	0.630584	0.385832	0.500136
C41	C	0.099689	-0.030557	0.000145
C42	C	0.599689	0.469443	0.500145
O43	O	0.120926	0.041476	0.000160
O44	O	0.620926	0.541476	0.500160
C45	C	-0.101988	-0.034471	0.000143
C46	C	0.398012	0.465529	0.500143
C47	C	-0.121513	-0.119060	0.000128
C48	C	0.378487	0.380940	0.500128
C49	C	-0.110148	-0.287246	0.000108
C50	C	0.389852	0.212754	0.500108
C51	C	-0.160564	-0.288223	0.000100
C52	C	0.339436	0.211777	0.500100
C53	C	-0.191455	-0.204619	0.000106
C54	C	0.308545	0.295381	0.500106
C55	C	-0.171930	-0.120037	0.000120
C56	C	0.328070	0.379963	0.500120
C57	C	-0.132882	0.049139	0.000159
C58	C	0.367118	0.549139	0.500159
C59	C	-0.183304	0.048153	0.000161
C60	C	0.316696	0.548153	0.500161
C61	C	-0.202829	-0.036436	0.000146
C62	C	0.297171	0.463564	0.500146
C63	C	-0.253238	-0.037410	0.000118
C64	C	0.246762	0.462590	0.500118
N65	N	-0.272766	-0.121993	0.000113
N66	N	0.227234	0.378007	0.500113
C67	C	-0.241875	-0.205597	0.000107
C68	C	0.258125	0.294403	0.500107
C69	C	0.205573	-0.028508	0.000144
C70	C	0.705573	0.471492	0.500144
C71	C	0.255992	-0.027530	0.000143
C72	C	0.755992	0.472470	0.500143
C73	C	0.267356	-0.195724	0.000131
C74	C	0.767356	0.304276	0.500131
C75	C	0.216936	-0.196702	0.000125
C76	C	0.716936	0.303298	0.500125
C77	C	0.186045	-0.113091	0.000139
C78	C	0.686045	0.386909	0.500139
C79	C	-0.347754	-0.207643	0.000090
C80	C	0.152246	0.292357	0.500090
C81	C	-0.398175	-0.208613	0.000077
C82	C	0.101825	0.291387	0.500077
C83	C	-0.409534	-0.040420	0.000094
C84	C	0.090466	0.459580	0.500094
C85	C	-0.359117	-0.039449	0.000101
C86	C	0.140883	0.460551	0.500101
C87	C	-0.328227	-0.123069	0.000102
C88	C	0.171773	0.376931	0.500102
O89	O	-0.284182	0.033562	0.000090
O90	O	0.215818	0.533562	0.500090
O91	O	-0.263121	-0.277620	0.000116
O92	O	0.236879	0.222380	0.500116
C93	C	-0.040206	-0.201687	0.000130
C94	C	0.459794	0.298313	0.500130
C95	C	-0.020680	-0.117105	0.000144
C96	C	0.479320	0.382895	0.500144
C97	C	-0.051571	-0.033501	0.000150
C98	C	0.448429	0.466499	0.500150
C99	C	0.029739	-0.116126	0.000142
C100	C	0.529739	0.383874	0.500142
C101	C	0.060630	-0.199731	0.000137
C102	C	0.560630	0.300269	0.500137
C103	C	0.041102	-0.284314	0.000132
C104	C	0.541102	0.215686	0.500132
C105	C	-0.009315	-0.285291	0.000124
C106	C	0.490685	0.214709	0.500124
C107	C	-0.032043	0.051082	0.000154
C108	C	0.467957	0.551082	0.500154
C109	C	0.018374	0.052053	0.000161
C110	C	0.518374	0.552053	0.500161
C111	C	0.049265	-0.031552	0.000155
C112	C	0.549265	0.468448	0.500155
C113	C	-0.567708	-0.286729	0.000102
C114	C	-0.067708	0.213271	0.500102
C115	C	-0.568751	-0.389092	0.000095
C116	C	-0.068751	0.110908	0.500095
N117	N	-0.571084	-0.118060	0.243654
N118	N	-0.071084	0.381940	0.743654
C119	C	-0.569596	0.527778	0.000098
C120	C	-0.069596	1.027778	0.500098
C121	C	-0.570662	0.423488	0.000106
C122	C	-0.070662	0.923488	0.500106
C123	C	-0.571514	0.340367	0.000112
C124	C	-0.071514	0.840367	0.500112
C125	C	-0.572580	0.236071	0.000118
C126	C	-0.072580	0.736071	0.500118
N127	N	-0.571103	-0.118076	-0.243425
N128	N	-0.071103	0.381924	0.256575
C129	C	-0.571095	-0.118077	0.663469
C130	C	-0.071095	0.381923	1.163469
C131	C	-0.571091	-0.118075	0.546664
C132	C	-0.071091	0.381925	1.046664
C133	C	-0.571090	-0.118069	0.453565
C134	C	-0.071090	0.381931	0.953565
C135	C	-0.571085	-0.118066	0.336753
C136	C	-0.071085	0.381934	0.836753
H137	H	-0.414069	-0.277498	0.000065
H138	H	0.085931	0.222502	0.500065
H139	H	-0.322609	-0.275734	0.000094
H140	H	0.177391	0.224266	0.500094
H141	H	0.292516	-0.263798	0.000127
H142	H	0.792516	0.236202	0.500127
O143	O	-0.179447	-0.370474	0.000144
O144	O	0.320553	0.129526	0.500144
C145	C	-0.141362	-0.444045	0.000118
C146	C	0.358638	0.055955	0.500118
H147	H	-0.107091	-0.418678	0.032514
H148	H	0.392909	0.081322	0.532514
H149	H	-0.134251	-0.469808	-0.081983
H150	H	0.365749	0.030192	0.418017
C151	C	-0.197755	-0.555033	0.027444
C152	C	0.302245	-0.055033	0.527444
C153	C	-0.155663	-0.523878	0.067242
C154	C	0.344337	-0.023878	0.567242
H155	H	-0.206577	-0.604281	0.068845
H156	H	0.293423	-0.104281	0.568845
H157	H	-0.223414	-0.505468	0.027457
H158	H	0.276586	-0.005468	0.527457
H159	H	-0.191823	-0.576495	-0.040973
H160	H	0.308177	-0.076495	0.459027
H161	H	-0.161597	-0.502406	0.135652
H162	H	0.338403	-0.002406	0.635652
H163	H	-0.130005	-0.573442	0.067241
H164	H	0.369995	-0.073442	0.567241
O165	O	0.197913	-0.278811	0.000252
O166	O	0.697913	0.221189	0.500252
C167	C	0.169100	-0.284425	0.088897
C168	C	0.669100	0.215575	0.588897
H169	H	0.156609	-0.211559	0.118457
H170	H	0.656609	0.288441	0.618457
H171	H	0.191338	-0.325545	0.150953
H172	H	0.691338	0.174455	0.650953
C173	C	0.139800	-0.422938	0.025663
C174	C	0.639800	0.077062	0.525663
C175	C	0.124455	-0.333441	0.061964
C176	C	0.624455	0.166559	0.561964
H177	H	0.112262	-0.453177	0.009052
H178	H	0.612262	0.046823	0.509052
H179	H	0.159213	-0.419158	-0.034058
H180	H	0.659213	0.080842	0.465942
H181	H	0.158332	-0.457192	0.077383
H182	H	0.658332	0.042808	0.577383
H183	H	0.105929	-0.299185	0.010240
H184	H	0.605929	0.200815	0.510240
H185	H	0.105038	-0.337216	0.121676
H186	H	0.605038	0.162784	0.621676
H187	H	0.271885	0.041351	0.000139
H188	H	0.771885	0.541351	0.500139
H189	H	-0.343219	0.029430	0.000098
H190	H	0.156781	0.529430	0.500098
O191	O	-0.062095	0.132241	0.000015
O192	O	0.437905	0.632241	0.500015
C193	C	-0.091586	0.136716	-0.088637
C194	C	0.408414	0.636716	0.411363
H195	H	-0.094210	0.063553	-0.118186
H196	H	0.405790	0.563553	0.381814
H197	H	-0.074950	0.178577	-0.150697
H198	H	0.425050	0.678577	0.349303
C199	C	-0.139503	0.273748	-0.025437
C200	C	0.360497	0.773748	0.474563
C201	C	-0.142730	0.183888	-0.061724
C202	C	0.357270	0.683888	0.438276
H203	H	-0.171050	0.302849	-0.008839
H204	H	0.328950	0.802849	0.491161
H205	H	-0.119634	0.270736	0.034288
H206	H	0.380366	0.770736	0.534288
H207	H	-0.125638	0.308620	-0.077160
H208	H	0.374362	0.808620	0.422840
H209	H	-0.156588	0.149014	-0.009997
H210	H	0.343412	0.649014	0.490003
H211	H	-0.162602	0.186895	-0.121440
H212	H	0.337398	0.686895	0.378560
O213	O	0.175638	0.052801	0.000106
O214	O	0.675638	0.552801	0.500106
C215	C	0.203692	0.127655	0.000133
C216	C	0.703692	0.627655	0.500133
H217	H	0.241298	0.103684	-0.032267
H218	H	0.741298	0.603684	0.467733
H219	H	0.207309	0.153622	0.082235
H220	H	0.707309	0.653622	0.582235
C221	C	0.132465	0.236168	-0.027183
C222	C	0.632465	0.736168	0.472817
C223	C	0.178651	0.206728	-0.066985
C224	C	0.678651	0.706728	0.433015
H225	H	0.117018	0.284946	-0.068581
H226	H	0.617018	0.784946	0.431419
H227	H	0.113564	0.185739	-0.027198
H228	H	0.613564	0.685739	0.472802
H229	H	0.135486	0.257801	0.041235
H230	H	0.635486	0.757801	0.541235
H231	H	0.175630	0.185085	-0.135397
H232	H	0.675630	0.685085	0.364603
H233	H	0.197552	0.257156	-0.066984
H234	H	0.697552	0.757156	0.433016
H235	H	-0.085001	-0.355330	0.000107
H236	H	0.414999	0.144670	0.500107
H237	H	-0.116994	0.118020	0.000172
H238	H	0.383006	0.618020	0.500172
O239	O	0.071066	-0.365588	0.000264
O240	O	0.571066	0.134412	0.500264
C241	C	0.062213	-0.416974	0.088905
C242	C	0.562213	0.083026	0.588905
H243	H	0.023987	-0.393782	0.118450
H244	H	0.523987	0.106218	0.618450
H245	H	0.089798	-0.404751	0.150972
H246	H	0.589798	0.095249	0.650972
C247	C	0.113866	-0.549429	0.025689
C248	C	0.613866	-0.049429	0.525689
C249	C	0.066915	-0.520949	0.061972
C250	C	0.566915	-0.020949	0.561972
H251	H	0.116768	-0.613566	0.009078
H252	H	0.616768	-0.113566	0.509078
H253	H	0.119832	-0.514809	-0.034029
H254	H	0.619832	-0.014809	0.465971
H255	H	0.136848	-0.539235	0.077418
H256	H	0.636848	-0.039235	0.577418
H257	H	0.043934	-0.531132	0.010239
H258	H	0.543934	-0.031132	0.510239
H259	H	0.060945	-0.555573	0.121681
H260	H	0.560945	-0.055573	0.621681
H261	H	-0.208454	0.116240	0.000174
H262	H	0.291546	0.616240	0.500174
H263	H	-0.434695	0.027649	0.000095
H264	H	0.065305	0.527649	0.500095
H265	H	-0.025207	-0.354171	0.000113
H266	H	0.474793	0.145829	0.500113
H267	H	0.034266	0.120940	0.000165
H268	H	0.534266	0.620940	0.500165
