data_functionalizedCrystal
_audit_creation_method	'MofGen! by Chris Wilmer'
_symmetry_space_group_name_H-M	'P1'
_symmetry_Int_Tables_number	1
_symmetry_cell_setting	triclinic
loop_
_symmetry_equiv_pos_as_xyz
  x,y,z
_cell_length_a	14.044220
_cell_length_b	14.519709
_cell_length_c	13.596369
_cell_angle_alpha	90.006934
_cell_angle_beta	90.000253
_cell_angle_gamma	88.434511
loop_
_atom_site_label
_atom_site_type_symbol
_atom_site_fract_x
_atom_site_fract_y
_atom_site_fract_z
O1	O	-1.258085	-0.222370	-0.081691
O2	O	-1.008085	0.027630	0.168309
O3	O	-0.758085	0.277630	0.418309
O4	O	-0.508085	0.527630	0.668309
O5	O	-0.982102	-0.214346	-0.081716
O6	O	-0.732102	0.035654	0.168284
O7	O	-0.482102	0.285654	0.418284
O8	O	-0.232102	0.535654	0.668284
O9	O	-1.127410	-0.084710	-0.081694
O10	O	-0.877410	0.165290	0.168306
O11	O	-0.627410	0.415290	0.418306
O12	O	-0.377410	0.665290	0.668306
O13	O	-1.112776	-0.352006	-0.081713
O14	O	-0.862776	-0.102006	0.168287
O15	O	-0.612776	0.147994	0.418287
O16	O	-0.362776	0.397994	0.668287
O17	O	-1.127396	-0.084701	0.081889
O18	O	-0.877396	0.165299	0.331889
O19	O	-0.627396	0.415299	0.581889
O20	O	-0.377396	0.665299	0.831889
O21	O	-0.982087	-0.214337	0.081867
O22	O	-0.732087	0.035663	0.331867
O23	O	-0.482087	0.285663	0.581867
O24	O	-0.232087	0.535663	0.831867
O25	O	-1.258070	-0.222361	0.081892
O26	O	-1.008070	0.027639	0.331892
O27	O	-0.758070	0.277639	0.581892
O28	O	-0.508070	0.527639	0.831892
Zn29	Zn	-1.120076	-0.218348	0.107852
Zn30	Zn	-0.870076	0.031652	0.357852
Zn31	Zn	-0.620076	0.281652	0.607852
Zn32	Zn	-0.370076	0.531652	0.857852
Zn33	Zn	-1.120095	-0.218359	-0.107676
Zn34	Zn	-0.870095	0.031641	0.142324
Zn35	Zn	-0.620095	0.281641	0.392324
Zn36	Zn	-0.370095	0.531641	0.642324
O37	O	-1.112761	-0.351997	0.081870
O38	O	-0.862761	-0.101997	0.331870
O39	O	-0.612761	0.148003	0.581870
O40	O	-0.362761	0.398003	0.831870
C41	C	-0.946774	-0.210829	0.000073
C42	C	-0.696774	0.039171	0.250073
C43	C	-0.446774	0.289171	0.500073
C44	C	-0.196774	0.539171	0.750073
C45	C	-0.841531	-0.200352	0.000064
C46	C	-0.591531	0.049648	0.250064
C47	C	-0.341531	0.299648	0.500064
C48	C	-0.091531	0.549648	0.750064
C49	C	-1.293398	-0.225878	0.000101
C50	C	-1.043398	0.024122	0.250101
C51	C	-0.793398	0.274122	0.500101
C52	C	-0.543398	0.524122	0.750101
C53	C	-1.398641	-0.236355	0.000104
C54	C	-1.148641	0.013645	0.250104
C55	C	-0.898641	0.263645	0.500104
C56	C	-0.648641	0.513645	0.750104
C57	C	-1.126721	-0.050290	0.000098
C58	C	-0.876721	0.199710	0.250098
C59	C	-0.626721	0.449710	0.500098
C60	C	-0.376721	0.699710	0.750098
C61	C	-1.124677	0.052256	0.000098
C62	C	-0.874677	0.302256	0.250098
C63	C	-0.624677	0.552256	0.500098
C64	C	-0.374677	0.802256	0.750098
C65	C	-0.648837	-0.181197	0.000084
C66	C	-0.398837	0.068803	0.250084
C67	C	-0.148837	0.318803	0.500084
C68	C	0.101163	0.568803	0.750084
C69	C	-0.591329	-0.255505	0.000083
C70	C	-0.341329	-0.005505	0.250083
C71	C	-0.091329	0.244495	0.500083
C72	C	0.158671	0.494495	0.750083
C73	C	-0.484108	-0.244848	0.000095
C74	C	-0.234108	0.005152	0.250095
C75	C	0.015892	0.255152	0.500095
C76	C	0.265892	0.505152	0.750095
C77	C	-0.756068	-0.191854	0.000073
C78	C	-0.506068	0.058146	0.250073
C79	C	-0.256068	0.308146	0.500073
C80	C	-0.006068	0.558146	0.750073
C81	C	-1.113451	-0.386416	0.000076
C82	C	-0.863451	-0.136416	0.250076
C83	C	-0.613451	0.113584	0.500076
C84	C	-0.363451	0.363584	0.750076
C85	C	-1.115494	-0.488963	0.000070
C86	C	-0.865494	-0.238963	0.250070
C87	C	-0.615494	0.011037	0.500070
C88	C	-0.365494	0.261037	0.750070
N89	N	-1.120070	-0.218340	0.254944
N90	N	-0.870070	0.031660	0.504944
N91	N	-0.620070	0.281660	0.754944
N92	N	-0.370070	0.531660	1.004944
C93	C	-1.117153	0.427758	0.000072
C94	C	-0.867153	0.677758	0.250072
C95	C	-0.617153	0.927758	0.500072
C96	C	-0.367153	1.177758	0.750072
C97	C	-1.119243	0.323282	0.000079
C98	C	-0.869243	0.573282	0.250079
C99	C	-0.619243	0.823282	0.500079
C100	C	-0.369243	1.073282	0.750079
C101	C	-1.120915	0.240010	0.000086
C102	C	-0.870915	0.490010	0.250086
C103	C	-0.620915	0.740010	0.500086
C104	C	-0.370915	0.990010	0.750086
C105	C	-1.123005	0.135527	0.000092
C106	C	-0.873005	0.385527	0.250092
C107	C	-0.623005	0.635527	0.500092
C108	C	-0.373005	0.885527	0.750092
N109	N	-1.120109	-0.218360	-0.254767
N110	N	-0.870109	0.031640	-0.004767
N111	N	-0.620109	0.281640	0.245233
N112	N	-0.370109	0.531640	0.495233
C113	C	-1.120094	-0.218360	0.656235
C114	C	-0.870094	0.031640	0.906235
C115	C	-0.620094	0.281640	1.156235
C116	C	-0.370094	0.531640	1.406235
C117	C	-1.120085	-0.218357	0.544583
C118	C	-0.870085	0.031643	0.794583
C119	C	-0.620085	0.281643	1.044583
C120	C	-0.370085	0.531643	1.294583
C121	C	-1.120083	-0.218351	0.455593
C122	C	-0.870083	0.031649	0.705593
C123	C	-0.620083	0.281649	0.955593
C124	C	-0.370083	0.531649	1.205593
C125	C	-1.120072	-0.218347	0.343934
C126	C	-0.870072	0.031653	0.593934
C127	C	-0.620072	0.281653	0.843934
C128	C	-0.370072	0.531653	1.093934
H129	H	-0.622622	-0.327127	0.000073
H130	H	-0.372622	-0.077127	0.250073
H131	H	-0.122622	0.172873	0.500073
H132	H	0.127378	0.422873	0.750073
C133	C	-0.606571	-0.084445	0.000086
C134	C	-0.356571	0.165555	0.250086
C135	C	-0.106571	0.415555	0.500086
C136	C	0.143429	0.665555	0.750086
C137	C	-0.497777	-0.073787	0.000090
C138	C	-0.247777	0.176213	0.250090
C139	C	0.002223	0.426213	0.500090
C140	C	0.252223	0.676213	0.750090
C141	C	-0.455498	0.022964	0.000086
C142	C	-0.205498	0.272964	0.250086
C143	C	0.044502	0.522964	0.500086
C144	C	0.294502	0.772964	0.750086
C145	C	-0.522011	0.109056	0.000079
C146	C	-0.272011	0.359056	0.250079
C147	C	-0.022011	0.609056	0.500079
C148	C	0.227989	0.859056	0.750079
C149	C	-0.630811	0.098401	0.000075
C150	C	-0.380811	0.348401	0.250075
C151	C	-0.130811	0.598401	0.500075
C152	C	0.119189	0.848401	0.750075
C153	C	-0.673090	0.001650	0.000079
C154	C	-0.423090	0.251650	0.250079
C155	C	-0.173090	0.501650	0.500079
C156	C	0.076910	0.751650	0.750079
H157	H	-0.448534	-0.137520	0.000095
H158	H	-0.198534	0.112480	0.250095
H159	H	0.051466	0.362480	0.500095
H160	H	0.301466	0.612480	0.750095
H161	H	-0.374957	0.030851	0.000088
H162	H	-0.124957	0.280851	0.250088
H163	H	0.125043	0.530851	0.500088
H164	H	0.375043	0.780851	0.750088
H165	H	-0.490713	0.180677	0.000076
H166	H	-0.240713	0.430677	0.250076
H167	H	0.009287	0.680677	0.500076
H168	H	0.259287	0.930677	0.750076
H169	H	-0.680054	0.162134	0.000070
H170	H	-0.430054	0.412134	0.250070
H171	H	-0.180054	0.662134	0.500070
H172	H	0.069946	0.912134	0.750070
H173	H	-0.753631	-0.006237	0.000077
H174	H	-0.503631	0.243763	0.250077
H175	H	-0.253631	0.493763	0.500077
H176	H	-0.003631	0.743763	0.750077
