data_functionalizedCrystal
_audit_creation_method	'MofGen! by Chris Wilmer'
_symmetry_space_group_name_H-M	'P1'
_symmetry_Int_Tables_number	1
_symmetry_cell_setting	triclinic
loop_
_symmetry_equiv_pos_as_xyz
  x,y,z
_cell_length_a	17.038278
_cell_length_b	17.019294
_cell_length_c	16.053802
_cell_angle_alpha	88.688316
_cell_angle_beta	87.232853
_cell_angle_gamma	87.243447
loop_
_atom_site_label
_atom_site_type_symbol
_atom_site_fract_x
_atom_site_fract_y
_atom_site_fract_z
O1	O	1.041096	0.167639	-0.081486
O2	O	0.813458	0.164930	-0.081291
O3	O	0.933237	0.052244	-0.073186
O4	O	0.921317	0.280325	-0.089591
O5	O	0.926644	0.058419	0.065229
O6	O	0.806865	0.171105	0.057123
O7	O	1.034503	0.173814	0.056929
Zn8	Zn	0.919637	0.173440	0.079002
Zn9	Zn	0.928324	0.165304	-0.103365
O10	O	0.914724	0.286500	0.048823
C11	C	0.781027	0.165552	-0.011907
C12	C	0.694215	0.158196	-0.011378
C13	C	0.929358	0.026004	-0.001871
C14	C	0.927615	-0.061383	0.004410
C15	C	0.203688	0.113005	-0.008131
C16	C	0.285256	0.119923	-0.008623
C17	C	0.316880	0.194384	-0.013983
C18	C	0.266932	0.261932	-0.018842
C19	C	0.185365	0.255014	-0.018343
C20	C	0.562700	0.218826	-0.015738
C21	C	0.644273	0.225739	-0.016239
C22	C	0.662592	0.083729	-0.006019
C23	C	0.581023	0.076817	-0.005526
C24	C	0.531081	0.144365	-0.010380
C25	C	0.400256	0.201457	-0.014489
C26	C	0.447707	0.137292	-0.009868
C27	C	0.930392	-0.105799	-0.068089
C28	C	0.928748	-0.187908	-0.062185
C29	C	0.924334	-0.225599	0.016218
C30	C	0.921555	-0.181177	0.088722
C31	C	0.923193	-0.099069	0.082818
C32	C	0.919205	-0.473343	0.037820
C33	C	0.917569	-0.555457	0.043719
C34	C	0.924761	-0.562182	-0.107189
C35	C	0.926404	-0.480073	-0.113086
C36	C	0.923620	-0.435657	-0.040582
C37	C	0.922657	-0.309528	0.022254
C38	C	0.925292	-0.351730	-0.046619
C39	C	1.066934	0.173192	-0.012458
C40	C	1.153746	0.180548	-0.012992
C41	C	0.918602	0.312740	-0.022494
C42	C	0.920346	0.400127	-0.028779
N43	N	0.913714	0.178993	0.203463
N44	N	0.934252	0.159746	-0.227825
C45	C	0.964699	0.131064	0.250605
C46	C	0.960563	0.134956	0.337732
C47	C	0.905446	0.186781	0.377715
C48	C	0.854456	0.234712	0.330567
C49	C	0.858589	0.230815	0.243442
C50	C	0.887395	0.203780	0.637902
C51	C	0.883268	0.207674	0.725033
C52	C	0.989375	0.107917	0.732192
C53	C	0.993505	0.104029	0.645064
C54	C	0.942513	0.151956	0.597924
N55	N	0.901219	0.190763	0.466772
N56	N	0.946736	0.147970	0.508869
H57	H	0.325916	0.064922	-0.004661
O58	O	1.010120	0.088518	0.383612
C59	C	1.056070	0.136141	0.430715
H60	H	1.024440	0.196146	0.439488
H61	H	1.115467	0.143884	0.396461
C62	C	1.107605	0.022943	0.505810
C63	C	1.068753	0.096641	0.516592
H64	H	1.115432	-0.001423	0.558782
H65	H	1.076650	-0.009143	0.474075
H66	H	1.157098	0.029406	0.477263
H67	H	1.019258	0.090176	0.545129
H68	H	1.099701	0.128724	0.548334
O69	O	0.934806	-0.069154	-0.144228
C70	C	1.003613	-0.026214	-0.151848
H71	H	1.048385	-0.052109	-0.107047
H72	H	0.988587	0.037904	-0.136111
C73	C	0.983602	0.000860	-0.296975
C74	C	1.038594	-0.030948	-0.241954
H75	H	1.005179	-0.002056	-0.352557
H76	H	0.937243	-0.028066	-0.291841
H77	H	0.971085	0.054290	-0.283851
H78	H	1.051102	-0.084378	-0.255073
H79	H	1.084955	-0.002030	-0.247092
O80	O	0.136810	0.320609	-0.022920
C81	C	0.085654	0.324048	0.048739
H82	H	0.113048	0.288078	0.101594
H83	H	0.027069	0.299005	0.034284
C84	C	0.038262	0.454401	0.010229
C85	C	0.071911	0.410227	0.075148
H86	H	0.029782	0.507560	0.026518
H87	H	0.072725	0.452083	-0.038051
H88	H	-0.010555	0.433523	-0.001811
H89	H	0.120732	0.431100	0.087179
H90	H	0.037457	0.412550	0.123431
O91	O	0.417088	0.064915	-0.004772
C92	C	0.445986	0.020218	-0.073486
H93	H	0.503746	0.044358	-0.099198
H94	H	0.401200	0.023936	-0.124111
C95	C	0.389089	-0.095886	-0.013845
C96	C	0.460033	-0.066241	-0.045421
H97	H	0.397750	-0.149219	0.003464
H98	H	0.369617	-0.065773	0.032448
H99	H	0.351774	-0.092780	-0.056038
H100	H	0.497343	-0.069337	-0.003226
H101	H	0.479512	-0.096357	-0.091706
O102	O	0.927341	-0.605243	-0.177669
C103	C	0.862246	-0.582855	-0.225300
H104	H	0.839871	-0.520818	-0.208240
H105	H	0.813441	-0.625524	-0.211717
C106	C	0.914770	-0.660760	-0.339679
C107	C	0.887294	-0.584561	-0.318730
H108	H	0.930219	-0.661815	-0.397311
H109	H	0.958625	-0.675845	-0.307588
H110	H	0.874095	-0.696309	-0.328352
H111	H	0.927971	-0.549016	-0.330047
H112	H	0.843446	-0.569470	-0.350825
O113	O	1.039008	0.061437	0.777938
C114	C	1.117455	0.078466	0.755319
H115	H	1.119122	0.140374	0.726838
H116	H	1.142716	0.034175	0.707765
C117	C	1.164723	-0.002766	0.868306
C118	C	1.166771	0.073273	0.833331
H119	H	1.195145	-0.005972	0.916425
H120	H	1.111872	-0.014241	0.883543
H121	H	1.185772	-0.039666	0.828669
H122	H	1.145713	0.110171	0.872963
H123	H	1.219619	0.084755	0.818102
H124	H	0.426014	0.262084	-0.018855
O125	O	0.800984	0.285036	0.369535
C126	C	0.808256	0.278187	0.456544
H127	H	0.869794	0.253526	0.470244
H128	H	0.762736	0.236873	0.484338
C129	C	0.718983	0.390116	0.478710
C130	C	0.794567	0.359834	0.495536
H131	H	0.710536	0.440478	0.502764
H132	H	0.714081	0.394729	0.420090
H133	H	0.681059	0.355681	0.501872
H134	H	0.832490	0.394264	0.472366
H135	H	0.799475	0.355228	0.554153
H136	H	0.845876	0.242806	0.599527
H137	H	0.916954	-0.437191	0.096859
O138	O	0.809029	0.277455	0.197770
C139	C	0.759482	0.324020	0.251741
H140	H	0.788597	0.329850	0.313619
H141	H	0.700898	0.294985	0.263144
C142	C	0.709407	0.399071	0.135707
C143	C	0.745170	0.406237	0.211704
H144	H	0.700574	0.449785	0.111010
H145	H	0.742785	0.367697	0.099345
H146	H	0.660591	0.374872	0.145220
H147	H	0.793989	0.430426	0.202189
H148	H	0.711799	0.437616	0.248064
H149	H	0.670018	0.286378	-0.020592
H150	H	0.177946	0.052370	-0.003771
H151	H	0.917956	-0.211872	0.152560
H152	H	0.931013	-0.224068	-0.121222
O153	O	0.930459	-0.443421	-0.189235
C154	C	0.863879	-0.391845	-0.197402
H155	H	0.838561	-0.375111	-0.132852
H156	H	0.817598	-0.422180	-0.232422
C157	C	0.918964	-0.337684	-0.325492
C158	C	0.887872	-0.317126	-0.246211
H159	H	0.933762	-0.291595	-0.355603
H160	H	0.963820	-0.372434	-0.319992
H161	H	0.880391	-0.362965	-0.354665
H162	H	0.926448	-0.291855	-0.217036
H163	H	0.843023	-0.282370	-0.251707
H164	H	0.555281	0.016183	-0.001161
H165	H	0.913971	-0.586143	0.107568
O166	O	0.918482	-0.346058	0.098463
C167	C	0.984372	-0.328343	0.143222
H168	H	1.009138	-0.271143	0.117585
H169	H	1.031326	-0.378086	0.136300
C170	C	0.929043	-0.389317	0.267586
C171	C	0.959458	-0.319060	0.236103
H172	H	0.913677	-0.383595	0.324880
H173	H	0.884653	-0.401255	0.237431
H174	H	0.968177	-0.430763	0.261810
H175	H	0.920321	-0.277618	0.241870
H176	H	1.003841	-0.307115	0.266261
H177	H	0.928881	-0.321037	-0.110455
O178	O	0.711214	0.018199	-0.001265
C179	C	0.789990	0.040267	-0.002875
H180	H	0.792011	0.103404	0.018866
H181	H	0.816735	0.035895	-0.069178
C182	C	0.834701	-0.092557	0.028859
C183	C	0.837183	-0.015013	0.055569
H184	H	0.863813	-0.126658	0.064907
H185	H	0.781629	-0.107426	0.029941
H186	H	0.856987	-0.096189	-0.026394
H187	H	0.814889	-0.011380	0.110816
H188	H	0.890253	-0.000145	0.054498
H189	H	0.920921	-0.062906	0.141854
O190	O	1.018264	0.080653	0.211903
C191	C	1.062389	0.039198	0.272198
H192	H	1.027381	0.038927	0.334530
H193	H	1.120095	0.069060	0.279329
C194	C	1.122925	-0.045722	0.167670
C195	C	1.079925	-0.046062	0.244226
H196	H	1.133745	-0.098314	0.150414
H197	H	1.093200	-0.017792	0.127047
H198	H	1.171008	-0.020834	0.173622
H199	H	1.031838	-0.070941	0.238269
H200	H	1.109642	-0.073998	0.284847
O201	O	0.829646	0.258030	0.763744
C202	C	0.785533	0.299508	0.703455
H203	H	0.787528	0.264438	0.643674
H204	H	0.811480	0.359222	0.689854
C205	C	0.697153	0.354596	0.810150
C206	C	0.699597	0.311520	0.736728
H207	H	0.644145	0.362010	0.830675
H208	H	0.726874	0.326655	0.850769
H209	H	0.718780	0.404353	0.798806
H210	H	0.677981	0.261761	0.748075
H211	H	0.669871	0.339454	0.696112
H212	H	0.522047	0.273829	-0.019696
O213	O	0.297563	0.334302	-0.024162
C214	C	0.275488	0.372597	-0.098845
H215	H	0.220007	0.346319	-0.120927
H216	H	0.325054	0.364405	-0.148615
C217	C	0.327505	0.493270	-0.056240
C218	C	0.259359	0.460999	-0.083358
H219	H	0.317559	0.547801	-0.046690
H220	H	0.342381	0.467469	-0.005926
H221	H	0.368804	0.486435	-0.097720
H222	H	0.218065	0.467825	-0.041874
H223	H	0.244476	0.486803	-0.133665
H224	H	1.038386	0.061829	0.612512
