data_functionalizedCrystal
_audit_creation_method	'MofGen! by Chris Wilmer'
_symmetry_space_group_name_H-M	'P1'
_symmetry_Int_Tables_number	1
_symmetry_cell_setting	triclinic
loop_
_symmetry_equiv_pos_as_xyz
  x,y,z
_cell_length_a	12.759401
_cell_length_b	12.759400
_cell_length_c	12.759393
_cell_angle_alpha	89.971263
_cell_angle_beta	89.979541
_cell_angle_gamma	90.014690
loop_
_atom_site_label
_atom_site_type_symbol
_atom_site_fract_x
_atom_site_fract_y
_atom_site_fract_z
Zn1	Zn	1.606273	-0.418179	-0.594028
Zn2	Zn	1.606170	-0.593893	-0.418352
Zn3	Zn	1.430573	-0.418233	-0.418363
Zn4	Zn	1.430568	-0.593821	-0.593989
O5	O	1.518396	-0.506032	-0.506183
O6	O	1.753280	-0.441495	-0.570736
O7	O	1.582836	-0.570644	-0.271332
O8	O	1.453925	-0.271205	-0.441687
O9	O	1.753205	-0.570591	-0.441667
O10	O	1.583011	-0.271165	-0.570747
O11	O	1.453825	-0.441587	-0.271341
O12	O	1.283551	-0.441518	-0.441649
O13	O	1.453916	-0.570470	-0.741015
O14	O	1.283548	-0.570522	-0.570680
O15	O	1.583006	-0.441426	-0.741044
O16	O	1.582831	-0.740904	-0.441629
O17	O	1.453817	-0.740852	-0.570669
C18	C	1.245428	-0.506019	-0.506162
C19	C	1.128652	-0.506039	-0.506178
C20	C	1.518341	-0.778999	-0.506167
C21	C	1.518413	-0.895776	-0.506195
C22	C	1.073815	-0.573313	-0.573259
C23	C	0.964091	-0.573317	-0.573280
C24	C	0.964050	-0.438769	-0.439130
C25	C	1.073772	-0.438761	-0.439115
C26	C	1.585595	-0.950537	-0.573451
C27	C	1.585644	-1.060261	-0.573477
C28	C	1.451327	-1.060452	-0.438980
C29	C	1.451273	-0.950730	-0.438961
C30	C	1.663145	-0.950428	-0.651099
C31	C	1.663194	-1.060152	-0.651124
C32	C	1.792429	-0.506045	-0.506205
C33	C	1.909206	-0.506051	-0.506214
C34	C	1.518472	-0.505934	-0.780217
C35	C	1.518505	-0.505892	-0.896993
C36	C	1.518480	-0.231998	-0.506223
C37	C	1.518516	-0.115222	-0.506240
C38	C	1.585708	-0.573014	-1.061586
C39	C	1.585682	-0.573063	-0.951862
C40	C	1.451340	-0.438674	-0.951854
C41	C	1.451361	-0.438631	-1.061576
C42	C	1.518380	-0.506053	-0.233216
C43	C	1.518551	-0.505799	-0.116440
H44	H	1.118496	-0.628093	-0.627869
H45	H	1.396560	-0.906144	-0.384205
H46	H	1.744591	-1.089886	-0.629412
H47	H	1.640368	-0.627796	-0.907206
Cl48	Cl	1.782475	-0.897817	-0.606197
H49	H	1.396638	-0.383987	-0.907171
Cl50	Cl	1.670172	-0.657457	-1.130554
Cl51	Cl	0.895159	-0.657893	-0.657616
H52	H	1.396669	-0.383895	-1.106239
Cl53	Cl	1.366925	-1.129546	-0.354464
Cl54	Cl	0.895050	-0.354199	-0.354825
Cl55	Cl	1.629416	-0.904388	-0.776687
H56	H	1.118421	-0.383971	-0.384490
H57	H	1.634005	-1.094151	-0.728396
