data_functionalizedCrystal
_audit_creation_method	'MofGen! by Chris Wilmer'
_symmetry_space_group_name_H-M	'P1'
_symmetry_Int_Tables_number	1
_symmetry_cell_setting	triclinic
loop_
_symmetry_equiv_pos_as_xyz
  x,y,z
_cell_length_a	8.634740
_cell_length_b	10.654550
_cell_length_c	9.730223
_cell_angle_alpha	89.999807
_cell_angle_beta	89.999743
_cell_angle_gamma	92.527605
loop_
_atom_site_label
_atom_site_type_symbol
_atom_site_fract_x
_atom_site_fract_y
_atom_site_fract_z
O1	O	2.050436	0.409969	-0.114289
O2	O	1.601117	0.375591	-0.114291
O3	O	1.836107	0.211217	-0.114284
O4	O	1.815446	0.574342	-0.114295
O5	O	1.836105	0.211222	0.114295
O6	O	1.601114	0.375595	0.114289
O7	O	2.050434	0.409973	0.114291
Zn8	Zn	1.825773	0.392785	0.150582
Zn9	Zn	1.825777	0.392779	-0.150582
O10	O	1.815443	0.574347	0.114285
C11	C	1.543582	0.367805	-0.000001
C12	C	1.372150	0.344585	-0.000002
C13	C	1.834589	0.164249	0.000004
C14	C	1.830050	0.024289	-0.000001
C15	C	1.968409	-0.039436	0.000004
C16	C	1.964135	-0.170944	-0.000006
C17	C	1.683131	-0.174991	-0.000019
C18	C	1.687407	-0.043485	-0.000019
C19	C	2.130644	-0.037101	0.000017
C20	C	2.126370	-0.168608	0.000008
C21	C	2.107969	0.417759	-0.000002
C22	C	2.279400	0.440980	-0.000010
C23	C	1.816962	0.621315	-0.000006
C24	C	1.821500	0.761276	-0.000010
N25	N	1.825782	0.392790	0.356119
N26	N	1.825780	0.392766	-0.356118
C27	C	1.929863	0.320037	0.428047
C28	C	1.929859	0.320021	0.571930
C29	C	1.721688	0.465521	0.571943
C30	C	1.721686	0.465529	0.428063
C31	C	2.050053	0.236038	0.428041
C32	C	2.050049	0.236022	0.571924
H33	H	1.566996	-0.230188	-0.000035
N34	N	2.207203	0.282440	0.623663
H35	H	2.207263	0.282444	0.727462
H36	H	2.288916	0.225313	0.588988
N37	N	1.303622	0.211723	0.000014
H38	H	1.186763	0.213405	0.000009
H39	H	1.339211	0.166441	-0.084719
N40	N	2.199042	0.017960	0.130729
H41	H	2.119915	0.070204	0.177812
H42	H	2.228984	-0.052217	0.193838
N43	N	1.347912	0.573838	-0.000006
H44	H	1.413986	0.587834	0.084732
H45	H	1.413924	0.587746	-0.084793
N46	N	1.609401	0.543971	0.350479
H47	H	1.543460	0.590046	0.417892
H48	H	1.669077	0.606755	0.290779
H49	H	1.574742	0.008394	-0.000042
N50	N	1.609414	0.543969	0.649540
H51	H	1.625202	0.532922	0.751603
H52	H	1.628190	0.635344	0.624402
N53	N	2.198537	0.293461	0.368905
H54	H	2.212977	0.383384	0.400935
H55	H	2.288914	0.244011	0.400942
H56	H	2.023692	0.136503	0.388990
N57	N	2.191329	-0.221694	-0.130705
H58	H	2.282863	-0.273762	-0.107964
H59	H	2.108680	-0.276212	-0.177788
N60	N	2.000411	0.109525	0.631043
H61	H	1.976425	0.048415	0.553782
H62	H	2.086807	0.077339	0.689480
H63	H	2.194101	-0.000516	-0.095636
H64	H	2.187497	-0.203403	0.095666
