data_functionalizedCrystal
_audit_creation_method	'MofGen! by Chris Wilmer'
_symmetry_space_group_name_H-M	'P1'
_symmetry_Int_Tables_number	1
_symmetry_cell_setting	triclinic
loop_
_symmetry_equiv_pos_as_xyz
  x,y,z
_cell_length_a	16.120490
_cell_length_b	16.120484
_cell_length_c	16.959447
_cell_angle_alpha	87.133462
_cell_angle_beta	92.911175
_cell_angle_gamma	90.164100
loop_
_atom_site_label
_atom_site_type_symbol
_atom_site_fract_x
_atom_site_fract_y
_atom_site_fract_z
Zn1	Zn	1.254434	-0.395652	0.526139
Zn2	Zn	1.587768	-0.062318	0.859472
Zn3	Zn	1.921101	0.271015	1.192806
Zn4	Zn	1.247287	-0.534717	0.400296
Zn5	Zn	1.580621	-0.201384	0.733629
Zn6	Zn	1.913954	0.131950	1.066963
Zn7	Zn	1.115384	-0.388618	0.386963
Zn8	Zn	1.448718	-0.055284	0.720296
Zn9	Zn	1.782051	0.278049	1.053629
Zn10	Zn	1.108286	-0.527597	0.525419
Zn11	Zn	1.441620	-0.194263	0.858752
Zn12	Zn	1.774953	0.139070	1.192085
O13	O	1.181348	-0.461646	0.459704
O14	O	1.514681	-0.128312	0.793037
O15	O	1.848015	0.205021	1.126371
O16	O	1.369851	-0.420023	0.515327
O17	O	1.703185	-0.086689	0.848661
O18	O	2.036518	0.246644	1.181994
O19	O	1.229770	-0.515372	0.287917
O20	O	1.563103	-0.182039	0.621250
O21	O	1.896436	0.151294	0.954584
O22	O	1.139791	-0.273188	0.400146
O23	O	1.473125	0.060145	0.733479
O24	O	1.806458	0.393479	1.066813
O25	O	1.364601	-0.522193	0.422871
O26	O	1.697934	-0.188860	0.756204
O27	O	2.031267	0.144473	1.089538
O28	O	1.241951	-0.278356	0.502398
O29	O	1.575284	0.054977	0.835732
O30	O	1.908617	0.388311	1.169065
O31	O	1.132861	-0.408034	0.278121
O32	O	1.466195	-0.074701	0.611454
O33	O	1.799528	0.258633	0.944788
O34	O	0.998078	-0.401130	0.399448
O35	O	1.331411	-0.067796	0.732781
O36	O	1.664744	0.265537	1.066114
O37	O	1.127694	-0.510058	0.636125
O38	O	1.461027	-0.176725	0.969458
O39	O	1.794360	0.156609	1.302791
O40	O	0.992863	-0.503237	0.501171
O41	O	1.326196	-0.169904	0.834504
O42	O	1.659529	0.163429	1.167837
O43	O	1.235068	-0.413118	0.636654
O44	O	1.568401	-0.079785	0.969987
O45	O	1.901735	0.253548	1.303320
O46	O	1.222887	-0.650135	0.422172
O47	O	1.556220	-0.316802	0.755506
O48	O	1.889553	0.016532	1.088839
O49	O	1.120763	-0.644904	0.514100
O50	O	1.454097	-0.311571	0.847433
O51	O	1.787430	0.021763	1.180766
C52	C	0.965298	-0.450648	0.448785
C53	C	1.298631	-0.117315	0.782118
C54	C	1.631965	0.216018	1.115451
C55	C	0.872870	-0.445963	0.444133
C56	C	1.206203	-0.112630	0.777466
C57	C	1.539536	0.220703	1.110800
C58	C	0.659897	-0.485940	0.483834
C59	C	0.993230	-0.152607	0.817168
C60	C	1.326564	0.180727	1.150501
C61	C	0.703647	-0.437418	0.435639
C62	C	1.036980	-0.104085	0.768973
C63	C	1.370314	0.229249	1.102306
C64	C	0.797811	-0.442174	0.440367
C65	C	1.131145	-0.108841	0.773700
C66	C	1.464478	0.224493	1.107033
C67	C	0.565724	-0.481185	0.479108
C68	C	0.899057	-0.147851	0.812442
C69	C	1.232391	0.185482	1.145775
C70	C	1.170302	-0.677692	0.469523
C71	C	1.503635	-0.344359	0.802856
C72	C	1.836969	-0.011025	1.136190
C73	C	1.165652	-0.770121	0.473754
C74	C	1.498986	-0.436788	0.807087
C75	C	1.832319	-0.103455	1.140421
C76	C	1.157168	-0.939352	0.481495
C77	C	1.490502	-0.606018	0.814828
C78	C	1.823835	-0.272685	1.148162
C79	C	1.205677	-0.983107	0.437934
C80	C	1.539010	-0.649774	0.771267
C81	C	1.872343	-0.316440	1.104600
C82	C	1.200956	-1.077272	0.442241
C83	C	1.534290	-0.743939	0.775574
C84	C	1.867623	-0.410606	1.108907
C85	C	1.161888	-0.845178	0.477189
C86	C	1.495221	-0.511844	0.810522
C87	C	1.828555	-0.178511	1.143856
C88	C	1.398242	-0.472687	0.470667
C89	C	1.731575	-0.139353	0.804000
C90	C	2.064908	0.193980	1.137333
C91	C	1.490669	-0.477392	0.475338
C92	C	1.824002	-0.144058	0.808672
C93	C	2.157336	0.189275	1.142005
C94	C	1.181386	-0.461579	0.665871
C95	C	1.514720	-0.128245	0.999204
C96	C	1.848053	0.205088	1.332538
C97	C	1.181402	-0.461550	0.753727
C98	C	1.514736	-0.128217	1.087060
C99	C	1.848069	0.205117	1.420394
C100	C	1.192460	-0.244757	0.449865
C101	C	1.525793	0.088576	0.783198
C102	C	1.859127	0.421910	1.116532
C103	C	1.197195	-0.152332	0.445672
C104	C	1.530529	0.181002	0.779006
C105	C	1.863862	0.514335	1.112339
C106	C	1.181361	-0.461655	0.254339
C107	C	1.514694	-0.128322	0.587672
C108	C	1.848028	0.205012	0.921006
C109	C	1.181518	-0.461457	0.166481
C110	C	1.514851	-0.128124	0.499814
C111	C	1.848184	0.205209	0.833147
C112	C	1.125601	-0.511939	1.124931
C113	C	1.458935	-0.178606	1.458264
C114	C	1.792268	0.154727	1.791598
C115	C	1.237411	-0.410996	1.125477
C116	C	1.570744	-0.077662	1.458810
C117	C	1.904078	0.255671	1.792144
C118	C	1.237388	-0.411012	1.042931
C119	C	1.570721	-0.077679	1.376264
C120	C	1.904055	0.255655	1.709597
C121	C	1.181472	-0.461494	1.001381
C122	C	1.514805	-0.128160	1.334714
C123	C	1.848138	0.205173	1.668047
C124	C	1.125578	-0.511959	1.042377
C125	C	1.458912	-0.178626	1.375710
C126	C	1.792245	0.154707	1.709044
C127	C	1.293286	-0.360554	1.001929
C128	C	1.626619	-0.027221	1.335262
C129	C	1.959953	0.306113	1.668595
C130	C	1.293266	-0.360569	0.919377
C131	C	1.626599	-0.027236	1.252711
C132	C	1.959933	0.306098	1.586044
C133	C	1.237345	-0.411047	0.877826
C134	C	1.570678	-0.077714	1.211159
C135	C	1.904012	0.255620	1.544492
C136	C	1.181449	-0.461514	0.918827
C137	C	1.514782	-0.128180	1.252160
C138	C	1.848115	0.205153	1.585494
C139	C	1.125532	-0.511996	0.877277
C140	C	1.458865	-0.178662	1.210610
C141	C	1.792199	0.154671	1.543944
C142	C	1.069631	-0.562458	0.918277
C143	C	1.402964	-0.229125	1.251610
C144	C	1.736298	0.104208	1.584943
C145	C	1.069657	-0.562437	1.000825
C146	C	1.402990	-0.229104	1.334159
C147	C	1.736324	0.104229	1.667492
C148	C	1.237319	-0.411068	0.795277
C149	C	1.570652	-0.077735	1.128610
C150	C	1.903986	0.255598	1.461944
C151	C	1.125509	-0.512015	0.794723
C152	C	1.458842	-0.178682	1.128057
C153	C	1.792176	0.154651	1.461390
H154	H	1.250751	-0.949846	0.397404
H155	H	1.584084	-0.616513	0.730738
H156	H	1.917417	-0.283179	1.064071
H157	H	0.670383	-0.392305	0.390828
H158	H	1.003716	-0.058972	0.724161
H159	H	1.337050	0.274362	1.057494
H160	H	0.693159	-0.531050	0.528642
H161	H	1.026492	-0.197716	0.861975
H162	H	1.359825	0.135617	1.195308
H163	H	1.112097	-0.972610	0.522020
H164	H	1.445430	-0.639277	0.855353
H165	H	1.778764	-0.305943	1.188687
H166	H	1.079967	-0.553117	0.760898
H167	H	1.413301	-0.219783	1.094232
H168	H	1.746634	0.113550	1.427565
H169	H	1.338815	-0.319460	1.035765
H170	H	1.672148	0.013874	1.369099
H171	H	2.005482	0.347207	1.702432
H172	H	1.338783	-0.319478	0.886003
H173	H	1.672117	0.013855	1.219336
H174	H	2.005450	0.347188	1.552669
H175	H	1.024108	-0.603565	0.884436
H176	H	1.357441	-0.270231	1.217770
H177	H	1.690774	0.063102	1.551103
H178	H	1.024148	-0.603524	1.034215
H179	H	1.357481	-0.270191	1.367548
H180	H	1.690815	0.063142	1.700881
H181	H	1.282835	-0.369985	0.761899
H182	H	1.616168	-0.036651	1.095232
H183	H	1.949501	0.296682	1.428566
H184	H	1.080086	-0.553022	1.158316
H185	H	1.413419	-0.219689	1.491649
H186	H	1.746753	0.113644	1.824983
H187	H	1.282940	-0.369900	1.159312
H188	H	1.616273	-0.036567	1.492646
H189	H	1.949607	0.296766	1.825979
