data_functionalizedCrystal
_audit_creation_method	'MofGen! by Chris Wilmer'
_symmetry_space_group_name_H-M	'P1'
_symmetry_Int_Tables_number	1
_symmetry_cell_setting	triclinic
loop_
_symmetry_equiv_pos_as_xyz
  x,y,z
_cell_length_a	23.532407
_cell_length_b	23.532357
_cell_length_c	22.010155
_cell_angle_alpha	90.001303
_cell_angle_beta	90.003069
_cell_angle_gamma	82.838485
loop_
_atom_site_label
_atom_site_type_symbol
_atom_site_fract_x
_atom_site_fract_y
_atom_site_fract_z
O1	O	0.755251	0.069129	0.050457
O2	O	1.005251	0.319129	0.300457
O3	O	1.255251	0.569129	0.550457
O4	O	1.505251	0.819129	0.800457
O5	O	0.589386	0.079132	0.050475
O6	O	0.839386	0.329132	0.300475
O7	O	1.089386	0.579132	0.550475
O8	O	1.339386	0.829132	0.800475
O9	O	0.677335	-0.008803	0.050453
O10	O	0.927335	0.241197	0.300453
O11	O	1.177335	0.491197	0.550453
O12	O	1.427335	0.741197	0.800453
O13	O	0.667302	0.157064	0.050479
O14	O	0.917302	0.407064	0.300479
O15	O	1.167302	0.657064	0.550479
O16	O	1.417302	0.907064	0.800479
O17	O	0.677319	-0.008790	-0.050597
O18	O	0.927319	0.241210	0.199403
O19	O	1.177319	0.491210	0.449403
O20	O	1.427319	0.741210	0.699403
O21	O	0.589370	0.079145	-0.050575
O22	O	0.839370	0.329145	0.199425
O23	O	1.089370	0.579145	0.449425
O24	O	1.339370	0.829145	0.699425
O25	O	0.755235	0.069142	-0.050594
O26	O	1.005235	0.319142	0.199406
O27	O	1.255235	0.569142	0.449406
O28	O	1.505235	0.819142	0.699406
Cu29	Cu	0.672301	0.074145	-0.059811
Cu30	Cu	0.922301	0.324145	0.190189
Cu31	Cu	1.172301	0.574145	0.440189
Cu32	Cu	1.422301	0.824145	0.690189
Cu33	Cu	0.672320	0.074129	0.059693
Cu34	Cu	0.922320	0.324129	0.309693
Cu35	Cu	1.172320	0.574129	0.559693
Cu36	Cu	1.422320	0.824129	0.809693
O37	O	0.667286	0.157077	-0.050571
O38	O	0.917286	0.407077	0.199429
O39	O	1.167286	0.657077	0.449429
O40	O	1.417286	0.907077	0.699429
C41	C	0.568162	0.078884	-0.000048
C42	C	0.818162	0.328884	0.249952
C43	C	1.068162	0.578884	0.499952
C44	C	1.318162	0.828884	0.749952
C45	C	0.504945	0.078118	-0.000041
C46	C	0.754945	0.328118	0.249959
C47	C	1.004945	0.578118	0.499959
C48	C	1.254945	0.828118	0.749959
C49	C	0.677076	-0.030013	-0.000074
C50	C	0.927076	0.219987	0.249926
C51	C	1.177076	0.469987	0.499926
C52	C	1.427076	0.719987	0.749926
C53	C	0.676322	-0.093232	-0.000080
C54	C	0.926322	0.156768	0.249920
C55	C	1.176322	0.406768	0.499920
C56	C	1.426322	0.656768	0.749920
C57	C	0.105834	0.125353	-0.000061
C58	C	0.355834	0.375353	0.249939
C59	C	0.605834	0.625353	0.499939
C60	C	0.855834	0.875353	0.749939
C61	C	0.046434	0.124641	-0.000065
C62	C	0.296434	0.374641	0.249935
C63	C	0.546434	0.624641	0.499935
C64	C	0.796434	0.874641	0.749935
O65	O	0.009681	0.168428	-0.000080
O66	O	0.259681	0.418428	0.249920
O67	O	0.509681	0.668428	0.499920
O68	O	0.759681	0.918428	0.749920
N69	N	0.023817	0.072364	-0.000072
N70	N	0.273817	0.322364	0.249928
N71	N	0.523817	0.572364	0.499928
N72	N	0.773817	0.822364	0.749928
C73	C	0.060604	0.020794	-0.000082
C74	C	0.310604	0.270794	0.249918
C75	C	0.560604	0.520794	0.499918
C76	C	0.810604	0.770794	0.749918
O77	O	0.035912	-0.023737	-0.000089
O78	O	0.285912	0.226263	0.249911
O79	O	0.535912	0.476263	0.499911
O80	O	0.785912	0.726263	0.749911
C81	C	0.120003	0.021506	-0.000082
C82	C	0.370003	0.271506	0.249918
C83	C	0.620003	0.521506	0.499918
C84	C	0.870003	0.771506	0.749918
C85	C	0.142616	0.073787	-0.000069
C86	C	0.392616	0.323787	0.249931
C87	C	0.642616	0.573787	0.499931
C88	C	0.892616	0.823787	0.749931
C89	C	0.128448	0.177629	-0.000048
C90	C	0.378448	0.427629	0.249952
C91	C	0.628448	0.677629	0.499952
C92	C	0.878448	0.927629	0.749952
C93	C	0.187844	0.178341	-0.000043
C94	C	0.437844	0.428341	0.249957
C95	C	0.687844	0.678341	0.499957
C96	C	0.937844	0.928341	0.749957
C97	C	0.224626	0.126775	-0.000051
C98	C	0.474626	0.376775	0.249949
C99	C	0.724626	0.626775	0.499949
C100	C	0.974626	0.876775	0.749949
C101	C	0.202012	0.074498	-0.000064
C102	C	0.452012	0.324498	0.249936
C103	C	0.702012	0.574498	0.499936
C104	C	0.952012	0.824498	0.749936
C105	C	0.156788	-0.030063	-0.000096
C106	C	0.406788	0.219937	0.249904
C107	C	0.656788	0.469937	0.499904
C108	C	0.906788	0.719937	0.749904
C109	C	0.216191	-0.029346	-0.000097
C110	C	0.466191	0.220654	0.249903
C111	C	0.716191	0.470654	0.499903
C112	C	0.966191	0.720654	0.749903
C113	C	0.238804	0.022935	-0.000084
C114	C	0.488804	0.272935	0.249916
C115	C	0.738804	0.522935	0.499916
C116	C	0.988804	0.772935	0.749916
C117	C	0.298190	0.023644	-0.000067
C118	C	0.548190	0.273644	0.249933
C119	C	0.798190	0.523644	0.499933
C120	C	1.048190	0.773644	0.749933
N121	N	0.320807	0.075922	-0.000059
N122	N	0.570807	0.325922	0.249941
N123	N	0.820807	0.575922	0.499941
N124	N	1.070807	0.825922	0.749941
C125	C	0.284025	0.127487	-0.000052
C126	C	0.534025	0.377487	0.249948
C127	C	0.784025	0.627487	0.499948
C128	C	1.034025	0.877487	0.749948
C129	C	-0.064139	0.019303	-0.000082
C130	C	0.185861	0.269303	0.249918
C131	C	0.435861	0.519303	0.499918
C132	C	0.685861	0.769303	0.749918
C133	C	-0.123536	0.018590	-0.000077
C134	C	0.126464	0.268590	0.249923
C135	C	0.376464	0.518590	0.499923
C136	C	0.626464	0.768590	0.749923
C137	C	-0.137702	0.122437	-0.000061
C138	C	0.112298	0.372437	0.249939
C139	C	0.362298	0.622437	0.499939
C140	C	0.612298	0.872437	0.749939
C141	C	-0.078303	0.123149	-0.000062
C142	C	0.171697	0.373149	0.249938
C143	C	0.421697	0.623149	0.499938
C144	C	0.671697	0.873149	0.749938
C145	C	-0.041522	0.071580	-0.000074
C146	C	0.208478	0.321580	0.249926
C147	C	0.458478	0.571580	0.499926
C148	C	0.708478	0.821580	0.749926
C149	C	0.408761	0.128977	-0.000041
C150	C	0.658761	0.378977	0.249959
C151	C	0.908761	0.628977	0.499959
C152	C	1.158761	0.878977	0.749959
C153	C	0.468163	0.129684	-0.000033
C154	C	0.718163	0.379684	0.249967
C155	C	0.968163	0.629684	0.499967
C156	C	1.218163	0.879684	0.749967
C157	C	0.482324	0.025837	-0.000052
C158	C	0.732324	0.275837	0.249948
C159	C	0.982324	0.525837	0.499948
C160	C	1.232324	0.775837	0.749948
C161	C	0.422927	0.025130	-0.000056
C162	C	0.672927	0.275130	0.249944
C163	C	0.922927	0.525130	0.499944
C164	C	1.172927	0.775130	0.749944
C165	C	0.386147	0.076704	-0.000053
C166	C	0.636147	0.326704	0.249947
C167	C	0.886147	0.576704	0.499947
C168	C	1.136147	0.826704	0.749947
O169	O	0.334977	-0.020120	-0.000054
O170	O	0.584977	0.229880	0.249946
O171	O	0.834977	0.479880	0.499946
O172	O	1.084977	0.729880	0.749946
O173	O	0.308725	0.172011	-0.000052
O174	O	0.558725	0.422011	0.249948
O175	O	0.808725	0.672011	0.499948
O176	O	1.058725	0.922011	0.749948
C177	C	0.671594	-0.485250	0.055036
C178	C	0.921594	-0.235250	0.305036
C179	C	1.171594	0.014750	0.555036
C180	C	1.421594	0.264750	0.805036
C181	C	0.670877	-0.544650	0.055040
C182	C	0.920877	-0.294650	0.305040
C183	C	1.170877	-0.044650	0.555040
C184	C	1.420877	0.205350	0.805040
O185	O	0.670494	-0.575372	0.101885
O186	O	0.920494	-0.325372	0.351885
O187	O	1.170494	-0.075372	0.601885
O188	O	1.420494	0.174628	0.851885
N189	N	0.670512	-0.574354	-0.000042
N190	N	0.920512	-0.324354	0.249958
N191	N	1.170512	-0.074354	0.499958
N192	N	1.420512	0.175646	0.749958
C193	C	0.670859	-0.544655	-0.055131
C194	C	0.920859	-0.294655	0.194869
C195	C	1.170859	-0.044655	0.444869
C196	C	1.420859	0.205345	0.694869
O197	O	0.670483	-0.575374	-0.101982
O198	O	0.920483	-0.325374	0.148018
O199	O	1.170483	-0.075374	0.398018
O200	O	1.420483	0.174626	0.648018
C201	C	0.671572	-0.485256	-0.055134
C202	C	0.921572	-0.235256	0.194866
C203	C	1.171572	0.014744	0.444866
C204	C	1.421572	0.264744	0.694866
C205	C	0.671943	-0.455556	-0.000048
C206	C	0.921943	-0.205556	0.249952
C207	C	1.171943	0.044444	0.499952
C208	C	1.421943	0.294444	0.749952
C209	C	0.671963	-0.455550	0.110117
C210	C	0.921963	-0.205550	0.360117
C211	C	1.171963	0.044450	0.610117
C212	C	1.421963	0.294450	0.860117
C213	C	0.672682	-0.396155	0.110113
C214	C	0.922682	-0.146155	0.360113
C215	C	1.172682	0.103845	0.610113
C216	C	1.422682	0.353845	0.860113
C217	C	0.673030	-0.366460	0.055029
C218	C	0.923030	-0.116460	0.305029
C219	C	1.173030	0.133540	0.555029
C220	C	1.423030	0.383540	0.805029
C221	C	0.672661	-0.396160	-0.000052
C222	C	0.922661	-0.146160	0.249948
C223	C	1.172661	0.103840	0.499948
C224	C	1.422661	0.353840	0.749948
C225	C	0.671915	-0.455557	-0.110222
C226	C	0.921915	-0.205557	0.139778
C227	C	1.171915	0.044443	0.389778
C228	C	1.421915	0.294443	0.639778
C229	C	0.672628	-0.396154	-0.110220
C230	C	0.922628	-0.146154	0.139780
C231	C	1.172628	0.103846	0.389780
C232	C	1.422628	0.353846	0.639780
C233	C	0.672998	-0.366454	-0.055135
C234	C	0.922998	-0.116454	0.194865
C235	C	1.172998	0.133546	0.444865
C236	C	1.422998	0.383546	0.694865
C237	C	0.673728	-0.307070	-0.055141
C238	C	0.923728	-0.057070	0.194859
C239	C	1.173728	0.192930	0.444859
C240	C	1.423728	0.442930	0.694859
N241	N	0.674092	-0.277366	-0.000059
N242	N	0.924092	-0.027366	0.249941
N243	N	1.174092	0.222634	0.499941
N244	N	1.424092	0.472634	0.749941
C245	C	0.673743	-0.307061	0.055026
C246	C	0.923743	-0.057061	0.305026
C247	C	1.173743	0.192939	0.555026
C248	C	1.423743	0.442939	0.805026
C249	C	0.669361	-0.669396	-0.055121
C250	C	0.919361	-0.419396	0.194879
C251	C	1.169361	-0.169396	0.444879
C252	C	1.419361	0.080604	0.694879
C253	C	0.668652	-0.728795	-0.055118
C254	C	0.918652	-0.478795	0.194882
C255	C	1.168652	-0.228795	0.444882
C256	C	1.418652	0.021205	0.694882
C257	C	0.668668	-0.728786	0.055053
C258	C	0.918668	-0.478786	0.305053
C259	C	1.168668	-0.228786	0.555053
C260	C	1.418668	0.021214	0.805053
C261	C	0.669381	-0.669387	0.055050
C262	C	0.919381	-0.419387	0.305050
C263	C	1.169381	-0.169387	0.555050
C264	C	1.419381	0.080613	0.805050
C265	C	0.669725	-0.639692	-0.000039
C266	C	0.919725	-0.389692	0.249961
C267	C	1.169725	-0.139692	0.499961
C268	C	1.419725	0.110308	0.749961
C269	C	0.675252	-0.182327	0.055014
C270	C	0.925252	0.067673	0.305014
C271	C	1.175252	0.317673	0.555014
C272	C	1.425252	0.567673	0.805014
C273	C	0.675973	-0.122927	0.055005
C274	C	0.925973	0.127073	0.305005
C275	C	1.175973	0.377073	0.555005
C276	C	1.425973	0.627073	0.805005
C277	C	0.675954	-0.122941	-0.055166
C278	C	0.925954	0.127059	0.194834
C279	C	1.175954	0.377059	0.444834
C280	C	1.425954	0.627059	0.694834
C281	C	0.675236	-0.182336	-0.055157
C282	C	0.925236	0.067664	0.194843
C283	C	1.175236	0.317664	0.444843
C284	C	1.425236	0.567664	0.694843
C285	C	0.674883	-0.212027	-0.000063
C286	C	0.924883	0.037973	0.249937
C287	C	1.174883	0.287973	0.499937
C288	C	1.424883	0.537973	0.749937
O289	O	0.674109	-0.276310	-0.101962
O290	O	0.924109	-0.026310	0.148038
O291	O	1.174109	0.223690	0.398038
O292	O	1.424109	0.473690	0.648038
O293	O	0.674112	-0.276333	0.101869
O294	O	0.924112	-0.026333	0.351869
O295	O	1.174112	0.223667	0.601869
O296	O	1.424112	0.473667	0.851869
C297	C	0.776459	0.069390	-0.000070
C298	C	1.026459	0.319390	0.249930
C299	C	1.276459	0.569390	0.499930
C300	C	1.526459	0.819390	0.749930
C301	C	0.839676	0.070156	-0.000072
C302	C	1.089676	0.320156	0.249928
C303	C	1.339676	0.570156	0.499928
C304	C	1.589676	0.820156	0.749928
C305	C	0.667545	0.178287	-0.000043
C306	C	0.917545	0.428287	0.249957
C307	C	1.167545	0.678287	0.499957
C308	C	1.417545	0.928287	0.749957
C309	C	0.668300	0.241506	-0.000033
C310	C	0.918300	0.491506	0.249967
C311	C	1.168300	0.741506	0.499967
C312	C	1.418300	0.991506	0.749967
N313	N	0.672292	0.074155	-0.143864
N314	N	0.922292	0.324155	0.106136
N315	N	1.172292	0.574155	0.356136
N316	N	1.422292	0.824155	0.606136
C317	C	0.711266	0.035197	-0.563653
C318	C	0.961266	0.285197	-0.313653
C319	C	1.211266	0.535197	-0.063653
C320	C	1.461266	0.785197	0.186347
C321	C	0.711269	0.035193	-0.627260
C322	C	0.961269	0.285193	-0.377260
C323	C	1.211269	0.535193	-0.127260
C324	C	1.461269	0.785193	0.122740
O325	O	0.744383	0.002076	-0.660160
O326	O	0.994383	0.252076	-0.410160
O327	O	1.244383	0.502076	-0.160160
O328	O	1.494383	0.752076	0.089840
N329	N	0.672320	0.074117	-0.659071
N330	N	0.922320	0.324117	-0.409071
N331	N	1.172320	0.574117	-0.159071
N332	N	1.422320	0.824117	0.090929
C333	C	0.633362	0.113044	-0.627270
C334	C	0.883362	0.363044	-0.377270
C335	C	1.133362	0.613044	-0.127270
C336	C	1.383362	0.863044	0.122730
O337	O	0.600233	0.146152	-0.660168
O338	O	0.850233	0.396152	-0.410168
O339	O	1.100233	0.646152	-0.160168
O340	O	1.350233	0.896152	0.089832
C341	C	0.633357	0.113045	-0.563663
C342	C	0.883357	0.363045	-0.313663
C343	C	1.133357	0.613045	-0.063663
C344	C	1.383357	0.863045	0.186337
C345	C	0.672312	0.074122	-0.531857
C346	C	0.922312	0.324122	-0.281857
C347	C	1.172312	0.574122	-0.031857
C348	C	1.422312	0.824122	0.218143
C349	C	0.750218	-0.003724	-0.531846
C350	C	1.000218	0.246276	-0.281846
C351	C	1.250218	0.496276	-0.031846
C352	C	1.500218	0.746276	0.218154
C353	C	0.750216	-0.003719	-0.468243
C354	C	1.000216	0.246281	-0.218243
C355	C	1.250216	0.496281	0.031757
C356	C	1.500216	0.746281	0.281757
C357	C	0.711262	0.035206	-0.436446
C358	C	0.961262	0.285206	-0.186446
C359	C	1.211262	0.535206	0.063554
C360	C	1.461262	0.785206	0.313554
C361	C	0.672310	0.074127	-0.468253
C362	C	0.922310	0.324127	-0.218253
C363	C	1.172310	0.574127	0.031747
C364	C	1.422310	0.824127	0.281747
C365	C	0.594397	0.151969	-0.531864
C366	C	0.844397	0.401969	-0.281864
C367	C	1.094397	0.651969	-0.031864
C368	C	1.344397	0.901969	0.218136
C369	C	0.594395	0.151966	-0.468253
C370	C	0.844395	0.401966	-0.218253
C371	C	1.094395	0.651966	0.031747
C372	C	1.344395	0.901966	0.281747
C373	C	0.633350	0.113043	-0.436446
C374	C	0.883350	0.363043	-0.186446
C375	C	1.133350	0.613043	0.063554
C376	C	1.383350	0.863043	0.313554
C377	C	0.633354	0.113056	-0.372854
C378	C	0.883354	0.363056	-0.122854
C379	C	1.133354	0.613056	0.127146
C380	C	1.383354	0.863056	0.377146
N381	N	0.672303	0.074132	-0.341044
N382	N	0.922303	0.324132	-0.091044
N383	N	1.172303	0.574132	0.158956
N384	N	1.422303	0.824132	0.408956
C385	C	0.711257	0.035207	-0.372840
C386	C	0.961257	0.285207	-0.122840
C387	C	1.211257	0.535207	0.127160
C388	C	1.461257	0.785207	0.377160
C389	C	0.633374	0.113039	-0.760848
C390	C	0.883374	0.363039	-0.510848
C391	C	1.133374	0.613039	-0.260848
C392	C	1.383374	0.863039	-0.010848
C393	C	0.633382	0.113041	-0.824453
C394	C	0.883382	0.363041	-0.574453
C395	C	1.133382	0.613041	-0.324453
C396	C	1.383382	0.863041	-0.074453
C397	C	0.711288	0.035189	-0.824439
C398	C	0.961288	0.285189	-0.574439
C399	C	1.211288	0.535189	-0.324439
C400	C	1.461288	0.785189	-0.074439
C401	C	0.711283	0.035190	-0.760833
C402	C	0.961283	0.285190	-0.510833
C403	C	1.211283	0.535190	-0.260833
C404	C	1.461283	0.785190	-0.010833
C405	C	0.672323	0.074115	-0.729038
C406	C	0.922323	0.324115	-0.479038
C407	C	1.172323	0.574115	-0.229038
C408	C	1.422323	0.824115	0.020962
C409	C	0.711250	0.035220	-0.239269
C410	C	0.961250	0.285220	0.010731
C411	C	1.211250	0.535220	0.260731
C412	C	1.461250	0.785220	0.510731
C413	C	0.711246	0.035230	-0.175660
C414	C	0.961246	0.285230	0.074340
C415	C	1.211246	0.535230	0.324340
C416	C	1.461246	0.785230	0.574340
C417	C	0.633338	0.113080	-0.175679
C418	C	0.883338	0.363080	0.074321
C419	C	1.133338	0.613080	0.324321
C420	C	1.383338	0.863080	0.574321
C421	C	0.633344	0.113073	-0.239282
C422	C	0.883344	0.363073	0.010718
C423	C	1.133344	0.613073	0.260718
C424	C	1.383344	0.863073	0.510718
C425	C	0.672302	0.074138	-0.271076
C426	C	0.922302	0.324138	-0.021076
C427	C	1.172302	0.574138	0.228924
C428	C	1.422302	0.824138	0.478924
O429	O	0.600255	0.146155	-0.339914
O430	O	0.850255	0.396155	-0.089914
O431	O	1.100255	0.646155	0.160086
O432	O	1.350255	0.896155	0.410086
O433	O	0.744376	0.002100	-0.339935
O434	O	0.994376	0.252100	-0.089935
O435	O	1.244376	0.502100	0.160065
O436	O	1.494376	0.752100	0.410065
N437	N	0.672334	0.074114	0.143745
N438	N	0.922334	0.324114	0.393745
N439	N	1.172334	0.574114	0.643745
N440	N	1.422334	0.824114	0.893745
H441	H	0.486571	0.172259	-0.000022
H442	H	0.736571	0.422259	0.249978
H443	H	0.986571	0.672259	0.499978
H444	H	1.236571	0.922259	0.749978
Br445	Br	-0.154218	-0.052366	-0.000076
Br446	Br	0.095782	0.197634	0.249924
Br447	Br	0.345782	0.447634	0.499924
Br448	Br	0.595782	0.697634	0.749924
Br449	Br	-0.014226	-0.050691	-0.000093
Br450	Br	0.235774	0.199309	0.249907
Br451	Br	0.485774	0.449309	0.499907
Br452	Br	0.735774	0.699309	0.749907
Br453	Br	0.671489	-0.495839	0.184885
Br454	Br	0.921489	-0.245839	0.434885
Br455	Br	1.171489	0.004161	0.684885
Br456	Br	1.421489	0.254161	0.934885
H457	H	0.562667	0.183662	-0.442369
H458	H	0.812667	0.433662	-0.192369
H459	H	1.062667	0.683662	0.057631
H460	H	1.312667	0.933662	0.307631
H461	H	0.378821	0.170974	-0.000040
H462	H	0.628821	0.420974	0.249960
H463	H	0.878821	0.670974	0.499960
H464	H	1.128821	0.920974	0.749960
H465	H	0.669642	-0.645223	-0.099983
H466	H	0.919642	-0.395223	0.150017
H467	H	1.169642	-0.145223	0.400017
H468	H	1.419642	0.104777	0.650017
Br469	Br	0.126115	-0.101020	-0.000101
Br470	Br	0.376115	0.148980	0.249899
Br471	Br	0.626115	0.398980	0.499899
Br472	Br	0.876115	0.648980	0.749899
H473	H	0.674940	-0.206520	-0.100012
H474	H	0.924940	0.043480	0.149988
H475	H	1.174940	0.293480	0.399988
H476	H	1.424940	0.543480	0.649988
Br477	Br	0.673180	-0.355856	0.184876
Br478	Br	0.923180	-0.105856	0.434876
Br479	Br	1.173180	0.144144	0.684876
Br480	Br	1.423180	0.394144	0.934876
H481	H	0.676240	-0.098753	-0.100014
H482	H	0.926240	0.151247	0.149986
H483	H	1.176240	0.401247	0.399986
H484	H	1.426240	0.651247	0.649986
H485	H	0.512282	-0.016147	-0.000056
H486	H	0.762282	0.233853	0.249944
H487	H	1.012282	0.483853	0.499944
H488	H	1.262282	0.733853	0.749944
Br489	Br	0.671411	-0.495849	-0.184986
Br490	Br	0.921411	-0.245849	0.065014
Br491	Br	1.171411	0.004151	0.315014
Br492	Br	1.421411	0.254151	0.565014
H493	H	0.676276	-0.098748	0.099864
H494	H	0.926276	0.151252	0.349864
H495	H	1.176276	0.401252	0.599864
H496	H	1.426276	0.651252	0.849864
Br497	Br	0.674773	-0.222613	0.129785
Br498	Br	0.924773	0.027387	0.379785
Br499	Br	1.174773	0.277387	0.629785
Br500	Br	1.424773	0.527387	0.879785
H501	H	0.742973	0.003516	-0.265148
H502	H	0.992973	0.253516	-0.015148
H503	H	1.242973	0.503516	0.234852
H504	H	1.492973	0.753516	0.484852
Br505	Br	0.218523	0.249297	-0.000028
Br506	Br	0.468523	0.499297	0.249972
Br507	Br	0.718523	0.749297	0.499972
Br508	Br	0.968523	0.999297	0.749972
H509	H	0.668382	-0.752974	0.099906
H510	H	0.918382	-0.502974	0.349906
H511	H	1.168382	-0.252974	0.599906
H512	H	1.418382	-0.002974	0.849906
Br513	Br	0.580482	0.165906	-0.282447
Br514	Br	0.830482	0.415906	-0.032447
Br515	Br	1.080482	0.665906	0.217553
Br516	Br	1.330482	0.915906	0.467553
H517	H	0.601624	0.144774	-0.149781
H518	H	0.851624	0.394774	0.100219
H519	H	1.101624	0.644774	0.350219
H520	H	1.351624	0.894774	0.600219
H521	H	0.668359	-0.752973	-0.099974
H522	H	0.918359	-0.502973	0.150026
H523	H	1.168359	-0.252973	0.400026
H524	H	1.418359	-0.002973	0.650026
Br525	Br	0.266106	-0.099337	-0.000117
Br526	Br	0.516106	0.150663	0.249883
Br527	Br	0.766106	0.400663	0.499883
Br528	Br	1.016106	0.650663	0.749883
H529	H	0.098505	0.219623	-0.000044
H530	H	0.348505	0.469623	0.249956
H531	H	0.598505	0.719623	0.499956
H532	H	0.848505	0.969623	0.749956
Br533	Br	0.669883	-0.629086	0.129811
Br534	Br	0.919883	-0.379086	0.379811
Br535	Br	1.169883	-0.129086	0.629811
Br536	Br	1.419883	0.120914	0.879811
Br537	Br	0.673094	-0.355857	-0.184988
Br538	Br	0.923094	-0.105857	0.065012
Br539	Br	1.173094	0.144143	0.315012
Br540	Br	1.423094	0.394143	0.565012
H541	H	-0.059896	0.165721	-0.000054
H542	H	0.190104	0.415721	0.249946
H543	H	0.440104	0.665721	0.499946
H544	H	0.690104	0.915721	0.749946
Br545	Br	0.764120	-0.017595	-0.132496
Br546	Br	1.014120	0.232405	0.117504
Br547	Br	1.264120	0.482405	0.367504
Br548	Br	1.514120	0.732405	0.617504
Br549	Br	0.392236	-0.045824	-0.000076
Br550	Br	0.642236	0.204176	0.249924
Br551	Br	0.892236	0.454176	0.499924
Br552	Br	1.142236	0.704176	0.749924
H553	H	0.743004	0.003495	-0.734939
H554	H	0.993004	0.253495	-0.484939
H555	H	1.243004	0.503495	-0.234939
H556	H	1.493004	0.753495	0.015061
Br557	Br	0.803083	-0.056547	-0.425083
Br558	Br	1.053083	0.193453	-0.175083
Br559	Br	1.303083	0.443453	0.074917
Br560	Br	1.553083	0.693453	0.324917
Br561	Br	-0.187633	0.192420	-0.000052
Br562	Br	0.062367	0.442420	0.249948
Br563	Br	0.312367	0.692420	0.499948
Br564	Br	0.562367	0.942420	0.749948
Br565	Br	0.764154	-0.017638	-0.867605
Br566	Br	1.014154	0.232362	-0.617605
Br567	Br	1.264154	0.482362	-0.367605
Br568	Br	1.514154	0.732362	-0.117605
Br569	Br	0.803090	-0.056558	-0.574987
Br570	Br	1.053090	0.193442	-0.324987
Br571	Br	1.303090	0.443442	-0.074987
Br572	Br	1.553090	0.693442	0.175013
Br573	Br	0.580521	0.165877	-0.867612
Br574	Br	0.830521	0.415877	-0.617612
Br575	Br	1.080521	0.665877	-0.367612
Br576	Br	1.330521	0.915877	-0.117612
H577	H	0.601650	0.144741	-0.734963
H578	H	0.851650	0.394741	-0.484963
H579	H	1.101650	0.644741	-0.234963
H580	H	1.351650	0.894741	0.015037
Br581	Br	0.541526	0.204795	-0.575017
Br582	Br	0.791526	0.454795	-0.325017
Br583	Br	1.041526	0.704795	-0.075017
Br584	Br	1.291526	0.954795	0.174983
