data_functionalizedCrystal
_audit_creation_method	'MofGen! by Chris Wilmer'
_symmetry_space_group_name_H-M	'P1'
_symmetry_Int_Tables_number	1
_symmetry_cell_setting	triclinic
loop_
_symmetry_equiv_pos_as_xyz
  x,y,z
_cell_length_a	18.101398
_cell_length_b	18.101395
_cell_length_c	16.625539
_cell_angle_alpha	89.974216
_cell_angle_beta	89.992183
_cell_angle_gamma	90.026661
loop_
_atom_site_label
_atom_site_type_symbol
_atom_site_fract_x
_atom_site_fract_y
_atom_site_fract_z
Zn1	Zn	1.132107	-0.294930	-0.455714
Zn2	Zn	1.132007	-0.418775	-0.320883
Zn3	Zn	1.008270	-0.294942	-0.320916
Zn4	Zn	1.008217	-0.418724	-0.455695
O5	O	1.070150	-0.356843	-0.388302
O6	O	1.235726	-0.311374	-0.437823
O7	O	1.115573	-0.402374	-0.208055
O8	O	1.024761	-0.191308	-0.338820
O9	O	1.235653	-0.402362	-0.338763
O10	O	1.115744	-0.191299	-0.437855
O11	O	1.024664	-0.311395	-0.208080
O12	O	0.904630	-0.311346	-0.338801
O13	O	1.024670	-0.402277	-0.568530
O14	O	0.904591	-0.402288	-0.437822
O15	O	1.115692	-0.311325	-0.568544
O16	O	1.115522	-0.522401	-0.338744
O17	O	1.024573	-0.522364	-0.437789
C18	C	0.877740	-0.356814	-0.388313
C19	C	0.795425	-0.356819	-0.388337
C20	C	0.496334	-0.356863	-0.388304
C21	C	0.527660	-0.414358	-0.450297
C22	C	0.613278	-0.414178	-0.450552
C23	C	0.644717	-0.356842	-0.388320
C24	C	0.613662	-0.278840	-0.411539
C25	C	0.528017	-0.279185	-0.411980
C26	C	0.527884	-0.376682	-0.302942
C27	C	0.613534	-0.378393	-0.303398
C28	C	0.728576	-0.356825	-0.388328
C29	C	0.412475	-0.356874	-0.388297
C30	C	1.070051	-0.549253	-0.388278
C31	C	1.070076	-0.631567	-0.388295
C32	C	1.070239	-0.930658	-0.388339
C33	C	1.013149	-0.899341	-0.450810
C34	C	1.012878	-0.813723	-0.450615
C35	C	1.070158	-0.782276	-0.388318
C36	C	1.049032	-0.813423	-0.303344
C37	C	1.048664	-0.899069	-0.303717
C38	C	1.148580	-0.899009	-0.410093
C39	C	1.148119	-0.813358	-0.411957
C40	C	1.070114	-0.698416	-0.388301
C41	C	1.070281	-1.014518	-0.388350
C42	C	1.263312	-0.356873	-0.388291
C43	C	1.345626	-0.356885	-0.388287
C44	C	1.070186	-0.356794	-0.598611
C45	C	1.070202	-0.356773	-0.688232
C46	C	1.070270	-0.163681	-0.388344
C47	C	1.070321	-0.081367	-0.388361
C48	C	1.070214	-0.356757	-0.761015
C49	C	1.070231	-0.356729	-0.852323
C50	C	1.070249	-0.356703	-0.925100
C51	C	1.070267	-0.356676	-1.016414
C52	C	1.070157	-0.356838	-0.178811
C53	C	1.070285	-0.356650	-0.089191
H54	H	0.508054	-0.262375	-0.474383
O55	O	0.500343	-0.491228	-0.431249
H56	H	0.523181	-0.530762	-0.475787
H57	H	0.955434	-0.920922	-0.436582
H58	H	0.954810	-0.793295	-0.436205
H59	H	0.507627	-0.334803	-0.256751
H60	H	1.164051	-0.792997	-0.474493
H61	H	0.991397	-0.919107	-0.285287
H62	H	0.634274	-0.472020	-0.436000
O63	O	1.204997	-0.925827	-0.349905
H64	H	1.248356	-0.957930	-0.381603
O65	O	1.207444	-0.785033	-0.356058
H66	H	1.182175	-0.748195	-0.310349
O67	O	0.500560	-0.220511	-0.354793
H68	H	0.548456	-0.192012	-0.326950
O69	O	1.102372	-0.786449	-0.239998
H70	H	1.100967	-0.725186	-0.237692
H71	H	0.506147	-0.401411	-0.513179
O72	O	0.642113	-0.256164	-0.493290
H73	H	0.624050	-0.297158	-0.538864
O74	O	0.640444	-0.396793	-0.534324
H75	H	0.592409	-0.388474	-0.574810
H76	H	1.088441	-0.919788	-0.255585
O77	O	0.973977	-0.785101	-0.278486
H78	H	0.951601	-0.748851	-0.326510
H79	H	0.634027	-0.234840	-0.367794
H80	H	0.633839	-0.435791	-0.285886
O81	O	0.499253	-0.450730	-0.274978
H82	H	0.462212	-0.474236	-0.321616
H83	H	1.026095	-0.792661	-0.513623
H84	H	0.634936	-0.339557	-0.254727
H85	H	1.026236	-0.919891	-0.514022
H86	H	1.167842	-0.920560	-0.471000
