data_functionalizedCrystal
_audit_creation_method	'MofGen! by Chris Wilmer'
_symmetry_space_group_name_H-M	'P1'
_symmetry_Int_Tables_number	1
_symmetry_cell_setting	triclinic
loop_
_symmetry_equiv_pos_as_xyz
  x,y,z
_cell_length_a	11.792241
_cell_length_b	12.376457
_cell_length_c	13.339070
_cell_angle_alpha	104.398083
_cell_angle_beta	99.911355
_cell_angle_gamma	78.632725
loop_
_atom_site_label
_atom_site_type_symbol
_atom_site_fract_x
_atom_site_fract_y
_atom_site_fract_z
O1	O	1.565358	-0.093887	0.119615
O2	O	1.239431	-0.093913	0.133925
O3	O	1.364988	-0.093900	-0.020699
O4	O	1.439801	-0.093901	0.274239
O5	O	1.333597	0.094109	0.017904
O6	O	1.208040	0.094096	0.172528
O7	O	1.533968	0.094121	0.158218
Zn8	Zn	1.366020	0.123959	0.171502
Zn9	Zn	1.407378	-0.123751	0.120641
O10	O	1.408411	0.094108	0.312842
C11	C	1.181168	0.000088	0.152326
C12	C	1.054327	0.000078	0.149633
N13	N	1.337802	0.293014	0.206213
N14	N	1.435603	-0.292806	0.085922
C15	C	0.822085	0.000111	0.144691
C16	C	0.951320	0.000093	0.147437
C17	C	1.592231	0.000118	0.139816
C18	C	1.719073	0.000121	0.142508
C19	C	1.336656	0.000102	-0.039156
C20	C	1.298988	0.000095	-0.151666
C21	C	1.501099	0.648017	0.005328
C22	C	1.520842	0.529679	-0.018967
C23	C	1.475084	0.470507	0.037326
C24	C	1.409579	0.529684	0.117917
C25	C	1.389841	0.648034	0.142219
C26	C	1.363826	0.470524	0.174218
C27	C	1.298321	0.529702	0.254809
C28	C	1.278586	0.648039	0.279107
C29	C	1.324345	0.707211	0.222814
C30	C	1.383564	0.352175	0.149915
C31	C	1.272306	0.352192	0.286807
C32	C	1.252563	0.470530	0.311102
C33	C	1.591878	0.000118	-0.514848
C34	C	1.627271	0.000132	-0.409138
C35	C	1.545204	0.000122	-0.344765
C36	C	1.427736	0.000100	-0.386112
C37	C	1.392338	0.000095	-0.491830
C38	C	1.345664	0.000099	-0.321747
C39	C	1.228197	0.000077	-0.363094
C40	C	1.192804	0.000071	-0.468802
C41	C	1.274872	0.000081	-0.533175
C42	C	1.381062	0.000103	-0.216029
C43	C	1.181522	0.000080	-0.193011
C44	C	1.146129	0.000067	-0.298721
C45	C	1.436743	0.000104	0.331299
C46	C	1.474412	0.000104	0.443807
H47	H	1.436898	0.304003	0.084298
H48	H	1.097154	0.000062	-0.502461
H49	H	1.491162	0.374151	0.017542
H50	H	1.050485	0.000049	-0.332401
N51	N	1.501037	0.000131	-0.173783
N52	N	1.529813	0.079387	-0.101092
H53	H	1.614553	0.079406	-0.071255
N54	N	1.747254	0.000129	-0.366909
N55	N	1.802501	-0.079117	-0.326757
H56	H	1.887245	-0.079121	-0.296931
H57	H	1.114694	0.000078	-0.140597
N58	N	1.581358	0.000105	-0.236792
N59	N	1.565857	-0.079157	-0.200746
H60	H	1.591396	-0.079176	-0.124487
N61	N	1.547828	0.708484	-0.052147
N62	N	1.480943	0.774543	-0.101695
H63	H	1.513951	0.817254	-0.142285
H64	H	1.574177	0.481501	-0.084582
H65	H	1.658683	0.000135	-0.567267
H66	H	1.308266	0.803572	0.242591
N67	N	1.211697	0.708472	0.361447
N68	N	1.170853	0.655633	0.411706
H69	H	1.123615	0.698311	0.469862
N70	N	1.185638	0.530986	0.393410
N71	N	1.093922	0.597028	0.374381
H72	H	1.046654	0.639727	0.432510
H73	H	1.235048	0.304015	0.332648
N74	N	1.238739	0.000053	-0.641163
N75	N	1.312031	0.000047	-0.698624
H76	H	1.286517	0.000025	-0.774893
