data_functionalizedCrystal
_audit_creation_method	'MofGen! by Chris Wilmer'
_symmetry_space_group_name_H-M	'P1'
_symmetry_Int_Tables_number	1
_symmetry_cell_setting	triclinic
loop_
_symmetry_equiv_pos_as_xyz
  x,y,z
_cell_length_a	23.532407
_cell_length_b	23.532407
_cell_length_c	8.965430
_cell_angle_alpha	89.995773
_cell_angle_beta	90.001560
_cell_angle_gamma	82.848678
loop_
_atom_site_label
_atom_site_type_symbol
_atom_site_fract_x
_atom_site_fract_y
_atom_site_fract_z
O1	O	0.755259	0.069131	-0.123868
O2	O	1.255259	0.569131	0.376132
O3	O	0.589396	0.079134	-0.123914
O4	O	1.089396	0.579134	0.376086
O5	O	0.677329	-0.008800	-0.123862
O6	O	1.177329	0.491200	0.376138
O7	O	0.667326	0.157064	-0.123920
O8	O	1.167326	0.657064	0.376080
O9	O	0.677322	-0.008794	0.124216
O10	O	1.177322	0.491206	0.624216
O11	O	0.589389	0.079140	0.124165
O12	O	1.089389	0.579140	0.624165
O13	O	0.755252	0.069136	0.124211
O14	O	1.255252	0.569136	0.624211
Cu15	Cu	0.672320	0.074139	0.146839
Cu16	Cu	1.172320	0.574139	0.646839
Cu17	Cu	0.672328	0.074132	-0.146543
Cu18	Cu	1.172328	0.574132	0.353457
O19	O	0.667319	0.157070	0.124159
O20	O	1.167319	0.657070	0.624159
C21	C	0.568176	0.078882	0.000120
C22	C	1.068176	0.578882	0.500120
C23	C	0.504959	0.078116	0.000104
C24	C	1.004959	0.578116	0.500104
C25	C	0.105856	0.125350	0.000155
C26	C	0.605856	0.625350	0.500155
C27	C	0.046456	0.124638	0.000164
C28	C	0.546456	0.624638	0.500164
O29	O	0.009711	0.168424	0.000203
O30	O	0.509711	0.668424	0.500203
N31	N	0.023830	0.072362	0.000180
N32	N	0.523830	0.572362	0.500180
C33	C	0.060607	0.020794	0.000201
C34	C	0.560607	0.520794	0.500201
O35	O	0.035908	-0.023737	0.000217
O36	O	0.535908	0.476263	0.500217
C37	C	0.120006	0.021506	0.000202
C38	C	0.620006	0.521506	0.500202
C39	C	0.142629	0.073785	0.000172
C40	C	0.642629	0.573785	0.500172
C41	C	0.128479	0.177625	0.000126
C42	C	0.628479	0.677625	0.500126
C43	C	0.187876	0.178336	0.000113
C44	C	0.687876	0.678336	0.500113
C45	C	0.224649	0.126772	0.000130
C46	C	0.724649	0.626772	0.500130
C47	C	0.202025	0.074497	0.000159
C48	C	0.702025	0.574497	0.500159
C49	C	0.156783	-0.030062	0.000235
C50	C	0.656783	0.469938	0.500235
C51	C	0.216185	-0.029345	0.000237
C52	C	0.716185	0.470655	0.500237
C53	C	0.238808	0.022934	0.000206
C54	C	0.738808	0.522934	0.500206
C55	C	0.298194	0.023643	0.000164
C56	C	0.798194	0.523643	0.500164
N57	N	0.320820	0.075920	0.000149
N58	N	0.820820	0.575920	0.500149
C59	C	0.284048	0.127484	0.000132
C60	C	0.784048	0.627484	0.500132
C61	C	-0.064135	0.019302	0.000201
C62	C	0.435865	0.519302	0.500201
C63	C	-0.123533	0.018589	0.000189
C64	C	0.376467	0.518589	0.500189
C65	C	-0.137680	0.122434	0.000155
C66	C	0.362320	0.622434	0.500155
C67	C	-0.078281	0.123146	0.000156
C68	C	0.421719	0.623146	0.500156
C69	C	-0.041509	0.071578	0.000185
C70	C	0.458491	0.571578	0.500185
C71	C	0.408784	0.128974	0.000105
C72	C	0.908784	0.628974	0.500105
C73	C	0.468186	0.129680	0.000087
C74	C	0.968186	0.629680	0.500087
C75	C	0.482329	0.025836	0.000129
C76	C	0.982329	0.525836	0.500129
C77	C	0.422932	0.025129	0.000139
C78	C	0.922932	0.525129	0.500139
C79	C	0.386160	0.076702	0.000132
C80	C	0.886160	0.576702	0.500132
O81	O	0.334974	-0.020119	0.000131
O82	O	0.834974	0.479881	0.500131
O83	O	0.308755	0.172007	0.000136
O84	O	0.808755	0.672007	0.500136
C85	C	0.677071	-0.030013	0.000181
C86	C	1.177071	0.469987	0.500181
C87	C	0.676305	-0.093230	0.000192
C88	C	1.176305	0.406770	0.500192
C89	C	0.723539	-0.492333	0.000123
C90	C	1.223539	0.007667	0.500123
C91	C	0.722827	-0.551733	0.000112
C92	C	1.222827	-0.051733	0.500112
O93	O	0.766613	-0.588478	0.000069
O94	O	1.266613	-0.088478	0.500069
N95	N	0.670551	-0.574359	0.000098
N96	N	1.170551	-0.074359	0.500098
C97	C	0.618983	-0.537582	0.000081
C98	C	1.118983	-0.037582	0.500081
O99	O	0.574452	-0.562281	0.000067
O100	O	1.074452	-0.062281	0.500067
C101	C	0.619695	-0.478182	0.000082
C102	C	1.119695	0.021818	0.500082
C103	C	0.671974	-0.455560	0.000111
C104	C	1.171974	0.044440	0.500111
C105	C	0.775814	-0.469710	0.000150
C106	C	1.275814	0.030290	0.500150
C107	C	0.776525	-0.410313	0.000164
C108	C	1.276525	0.089687	0.500164
C109	C	0.724961	-0.373540	0.000152
C110	C	1.224961	0.126460	0.500152
C111	C	0.672685	-0.396164	0.000125
C112	C	1.172685	0.103836	0.500125
C113	C	0.568127	-0.441406	0.000054
C114	C	1.068127	0.058594	0.500054
C115	C	0.568844	-0.382004	0.000054
C116	C	1.068844	0.117996	0.500054
C117	C	0.621123	-0.359381	0.000083
C118	C	1.121123	0.140619	0.500083
C119	C	0.621832	-0.299995	0.000127
C120	C	1.121832	0.200005	0.500127
N121	N	0.674109	-0.277368	0.000140
N122	N	1.174109	0.222632	0.500140
C123	C	0.725673	-0.314141	0.000153
C124	C	1.225673	0.185859	0.500153
C125	C	0.617491	-0.662324	0.000077
C126	C	1.117491	-0.162324	0.500077
C127	C	0.616778	-0.721722	0.000087
C128	C	1.116778	-0.221722	0.500087
C129	C	0.720623	-0.735869	0.000114
C130	C	1.220623	-0.235869	0.500114
C131	C	0.721335	-0.676470	0.000115
C132	C	1.221335	-0.176470	0.500115
C133	C	0.669767	-0.639698	0.000090
C134	C	1.169767	-0.139698	0.500090
C135	C	0.727163	-0.189405	0.000184
C136	C	1.227163	0.310595	0.500184
C137	C	0.727869	-0.130003	0.000205
C138	C	1.227869	0.369997	0.500205
C139	C	0.624025	-0.115860	0.000169
C140	C	1.124025	0.384140	0.500169
C141	C	0.623318	-0.175257	0.000156
C142	C	1.123318	0.324743	0.500156
C143	C	0.674891	-0.212029	0.000159
C144	C	1.174891	0.287971	0.500159
O145	O	0.578070	-0.263215	0.000164
O146	O	1.078070	0.236785	0.500164
O147	O	0.770196	-0.289433	0.000147
O148	O	1.270196	0.210567	0.500147
C149	C	0.776472	0.069388	0.000173
C150	C	1.276472	0.569388	0.500173
C151	C	0.839689	0.070154	0.000180
C152	C	1.339689	0.570154	0.500180
C153	C	0.667577	0.178283	0.000113
C154	C	1.167577	0.678283	0.500113
C155	C	0.668343	0.241500	0.000091
C156	C	1.168343	0.741500	0.500091
N157	N	0.672318	0.074143	0.353188
N158	N	1.172318	0.574143	0.853188
N159	N	0.672335	0.074123	-0.352892
N160	N	1.172335	0.574123	0.147108
C161	C	0.631639	0.114796	0.450470
C162	C	1.131639	0.614796	0.950470
C163	C	0.683041	0.125556	0.549894
C164	C	1.183041	0.625556	1.049894
C165	C	0.620937	0.063388	0.549892
C166	C	1.120937	0.563388	1.049892
C167	C	0.723745	0.084928	0.450423
C168	C	1.223745	0.584928	0.950423
C169	C	0.661608	0.022738	0.450413
C170	C	1.161608	0.522738	0.950413
C171	C	0.713047	0.033476	0.549791
C172	C	1.213047	0.533476	1.049791
H173	H	0.138375	-0.072634	0.000261
H174	H	0.638375	0.427366	0.500261
H175	H	0.098544	0.219617	0.000117
H176	H	0.598544	0.719617	0.500117
H177	H	0.597270	0.149206	0.406862
H178	H	1.097270	0.649206	0.906862
O179	O	0.695057	0.183126	0.607781
O180	O	1.195057	0.683126	1.107781
H181	H	0.734760	0.177592	0.675849
H182	H	1.234760	0.677592	1.175849
H183	H	0.747493	-0.000914	0.593127
H184	H	1.247493	0.499086	1.093127
O185	O	0.777725	-0.652077	0.000124
O186	O	1.277725	-0.152077	0.500124
H187	H	0.780538	-0.625359	0.101240
H188	H	1.280538	-0.125359	0.601240
H189	H	0.652521	-0.020711	0.406681
H190	H	1.152521	0.479289	0.906681
O191	O	0.560389	-0.746116	0.000084
O192	O	1.060389	-0.246116	0.500084
H193	H	0.568550	-0.793598	0.000093
H194	H	1.068550	-0.293598	0.500093
H195	H	-0.059867	0.165717	0.000139
H196	H	0.440133	0.665717	0.500139
O197	O	0.781325	0.097039	0.392812
O198	O	1.281325	0.597039	0.892812
H199	H	0.780858	0.096976	0.269016
H200	H	1.280858	0.596976	0.769016
H201	H	-0.167632	0.164421	0.000148
H202	H	0.332368	0.664421	0.500148
O203	O	0.522001	-0.029775	0.000160
O204	O	1.022001	0.470225	0.500160
H205	H	0.514002	-0.054817	-0.100941
H206	H	1.014002	0.445183	0.399059
H207	H	0.577479	0.054300	0.593589
H208	H	1.077479	0.554300	1.093589
H209	H	0.486602	0.172255	0.000061
H210	H	0.986602	0.672255	0.500061
H211	H	0.575496	-0.632386	0.000069
H212	H	1.075496	-0.132386	0.500069
H213	H	0.762610	-0.765821	0.000119
H214	H	1.262610	-0.265821	0.500119
O215	O	0.784258	-0.105601	0.000212
O216	O	1.284258	0.394399	0.500212
H217	H	0.819993	-0.141155	0.000196
H218	H	1.319993	0.358845	0.500196
H219	H	-0.034198	-0.022693	0.000212
H220	H	0.465802	0.477307	0.500212
O221	O	0.369128	0.184597	0.000085
O222	O	0.869128	0.684597	0.500085
H223	H	0.394847	0.221063	0.000048
H224	H	0.894847	0.721063	0.500048
H225	H	-0.141947	-0.023982	0.000191
H226	H	0.358053	0.476018	0.500191
H227	H	0.206289	0.220908	0.000088
H228	H	0.706289	0.720908	0.500088
O229	O	0.255849	-0.084966	0.000262
O230	O	0.755849	0.415034	0.500262
H231	H	0.230134	-0.121435	0.000273
H232	H	0.730134	0.378565	0.500273
H233	H	0.404512	-0.017441	0.000142
H234	H	0.904512	0.482559	0.500142
O235	O	0.831437	-0.509364	0.000172
O236	O	1.331437	-0.009364	0.500172
H237	H	0.822171	-0.554472	0.000160
H238	H	1.322171	-0.054472	0.500160
O239	O	0.782786	-0.229061	0.000209
O240	O	1.282786	0.270939	0.500209
H241	H	0.819252	-0.203342	0.000248
H242	H	1.319252	0.296658	0.500248
H243	H	0.819097	-0.391900	0.000182
H244	H	1.319097	0.108100	0.500182
O245	O	0.511739	-0.465798	0.000019
O246	O	1.011739	0.034202	0.500019
H247	H	0.476009	-0.430240	-0.000009
H248	H	0.976009	0.069760	0.499991
H249	H	0.526850	-0.352066	0.000032
H250	H	1.026850	0.147934	0.500032
O251	O	0.566933	-0.199664	0.000131
O252	O	1.066933	0.300336	0.500131
H253	H	0.531197	-0.164111	0.000118
H254	H	1.031197	0.335889	0.500118
H255	H	0.582043	-0.085909	0.000164
H256	H	1.082043	0.414091	0.500164
