data_functionalizedCrystal
_audit_creation_method	'MofGen! by Chris Wilmer'
_symmetry_space_group_name_H-M	'P1'
_symmetry_Int_Tables_number	1
_symmetry_cell_setting	triclinic
loop_
_symmetry_equiv_pos_as_xyz
  x,y,z
_cell_length_a	13.635800
_cell_length_b	23.752966
_cell_length_c	23.752930
_cell_angle_alpha	82.886677
_cell_angle_beta	79.933953
_cell_angle_gamma	100.066535
loop_
_atom_site_label
_atom_site_type_symbol
_atom_site_fract_x
_atom_site_fract_y
_atom_site_fract_z
V1	V	-1.985895	-0.079916	0.178717
O2	O	-1.988842	0.003064	0.174985
O3	O	-1.953505	-0.157713	0.177813
O4	O	-1.953510	-0.079027	0.256517
O5	O	-1.988837	-0.076166	0.095736
V6	V	-2.229830	-0.069950	0.168753
O7	O	-2.111754	-0.101776	0.200574
O8	O	-2.329069	-0.048090	0.146897
O9	O	-2.150616	0.007847	0.169658
O10	O	-2.285581	-0.152930	0.172486
O11	O	-2.285586	-0.073699	0.251735
O12	O	-2.150612	-0.070839	0.090954
C13	C	-1.874278	-0.176667	0.175076
C14	C	-1.888385	-0.240270	0.174855
C15	C	-1.874283	-0.076295	0.275470
C16	C	-1.888393	-0.076083	0.339074
V17	V	-1.485895	-0.079916	0.178717
O18	O	-1.488842	0.003064	0.174985
O19	O	-1.453505	-0.157713	0.177813
O20	O	-1.453510	-0.079027	0.256517
O21	O	-1.488837	-0.076166	0.095736
V22	V	-1.729830	-0.069950	0.168753
O23	O	-1.611754	-0.101776	0.200574
O24	O	-1.829069	-0.048090	0.146897
O25	O	-1.650616	0.007847	0.169658
O26	O	-1.785581	-0.152930	0.172486
O27	O	-1.785586	-0.073699	0.251735
O28	O	-1.650612	-0.070839	0.090954
C29	C	-2.066428	-0.637610	0.176414
C30	C	-2.079699	-0.697373	0.176215
O31	O	-2.163481	-0.730773	0.178570
N32	N	-1.995892	-0.724336	0.173246
C33	C	-1.898810	-0.691534	0.170480
O34	O	-1.828745	-0.719956	0.167936
C35	C	-1.885541	-0.631773	0.170683
C36	C	-1.969352	-0.604812	0.173647
C37	C	-2.150232	-0.610649	0.179378
C38	C	-2.136961	-0.550890	0.179576
C39	C	-2.039886	-0.518092	0.176809
C40	C	-1.956082	-0.545053	0.173845
C41	C	-1.788461	-0.598973	0.167922
C42	C	-1.775199	-0.539208	0.168126
C43	C	-1.859011	-0.512247	0.171090
C44	C	-1.845736	-0.452496	0.171276
N45	N	-1.929542	-0.425533	0.174245
C46	C	-2.026617	-0.458331	0.177012
C47	C	-1.926682	-0.817037	0.170055
C48	C	-1.939949	-0.876796	0.169848
C49	C	-2.120837	-0.882631	0.175584
C50	C	-2.107568	-0.822870	0.175787
C51	C	-2.010489	-0.790073	0.173025
C52	C	-1.998740	-0.332832	0.177426
C53	C	-1.985460	-0.273067	0.177621
C54	C	-1.804574	-0.267238	0.171888
C55	C	-1.817852	-0.326998	0.171690
C56	C	-1.914944	-0.359794	0.174462
O57	O	-1.761985	-0.419059	0.168924
O58	O	-2.096670	-0.429902	0.179563
C59	C	-2.061514	0.026799	0.172394
C60	C	-2.037026	0.090400	0.172618
C61	C	-2.061509	-0.073572	0.071998
C62	C	-2.037020	-0.073781	0.008394
C63	C	-1.374278	-0.176667	0.175076
C64	C	-1.388385	-0.240270	0.174855
C65	C	-1.374283	-0.076295	0.275470
C66	C	-1.388393	-0.076083	0.339074
C67	C	-2.066422	-0.077585	0.736404
C68	C	-2.079691	-0.077379	0.796166
O69	O	-2.163463	-0.079691	0.829559
N70	N	-1.995885	-0.074411	0.823130
C71	C	-1.898802	-0.071643	0.790328
O72	O	-1.828738	-0.069099	0.818751
C73	C	-1.885533	-0.071846	0.730567
C74	C	-1.969347	-0.074820	0.703607
C75	C	-2.150228	-0.080558	0.709444
C76	C	-2.136960	-0.080766	0.649686
C77	C	-2.039885	-0.078000	0.616889
C78	C	-1.956079	-0.075027	0.643850
C79	C	-1.788451	-0.069074	0.697766
C80	C	-1.775188	-0.069276	0.638001
C81	C	-1.859002	-0.072250	0.611041
C82	C	-1.845736	-0.072469	0.551295
N83	N	-1.929541	-0.075437	0.524331
C84	C	-2.026616	-0.078203	0.557128
C85	C	-1.926675	-0.071217	0.915831
C86	C	-1.939944	-0.071019	0.975592
C87	C	-2.120832	-0.076753	0.981425
C88	C	-2.107563	-0.076956	0.921664
C89	C	-2.010481	-0.074185	0.888867
C90	C	-1.998744	-0.078639	0.431633
C91	C	-1.985467	-0.078849	0.371871
C92	C	-1.804581	-0.073111	0.366042
C93	C	-1.817857	-0.072905	0.425800
C94	C	-1.914946	-0.075667	0.458594
O95	O	-1.761994	-0.070156	0.517865
O96	O	-2.096664	-0.080739	0.528697
C97	C	-1.561514	0.026799	0.172394
C98	C	-1.537026	0.090400	0.172618
C99	C	-1.561509	-0.073572	0.071998
C100	C	-1.537020	-0.073781	0.008394
C101	C	-1.485460	-0.273067	0.177621
C102	C	-1.498731	-0.332830	0.177423
C103	C	-1.414925	-0.359794	0.174453
C104	C	-1.317842	-0.326992	0.171688
C105	C	-1.304573	-0.267231	0.171891
C106	C	-1.485467	-0.078849	0.371871
C107	C	-1.498737	-0.078642	0.431632
C108	C	-1.414931	-0.075674	0.458596
C109	C	-1.317848	-0.072907	0.425795
C110	C	-1.304579	-0.073109	0.366034
C111	C	-1.612445	0.123198	0.169853
C112	C	-1.589445	0.182960	0.170054
C113	C	-1.491028	0.209923	0.173025
C114	C	-1.415604	0.177122	0.175789
C115	C	-1.438602	0.117361	0.175583
C116	C	-1.438594	-0.076743	-0.018556
C117	C	-1.415566	-0.076932	-0.078320
C118	C	-1.490968	-0.074164	-0.111132
C119	C	-1.589401	-0.071201	-0.084179
C120	C	-1.612425	-0.071007	-0.024417
H121	H	-2.053713	-0.251118	0.180033
H122	H	-1.847624	-0.790337	0.167802
C123	C	-1.429536	-0.425533	0.174226
N124	N	-1.440548	-0.475048	0.174053
H125	H	-2.077800	-0.359528	0.179684
H126	H	-1.577786	-0.359529	0.179673
H127	H	-1.472315	0.258585	0.173192
H128	H	-1.692576	-0.068599	-0.002479
C129	C	-1.307347	0.206791	0.179057
N130	N	-1.225809	0.229139	0.181520
H131	H	-1.225529	-0.070858	0.339335
H132	H	-2.229284	-0.637347	0.181634
H133	H	-1.225522	-0.240530	0.169634
C134	C	-1.225653	-0.069579	0.455455
N135	N	-1.156208	-0.067051	0.477793
H136	H	-1.692587	0.101252	0.167434
C137	C	-1.847742	-0.067754	1.005242
N138	N	-1.778290	-0.065290	1.027571
C139	C	-1.672334	-0.068159	-0.120282
N140	N	-1.734800	-0.065871	-0.147475
H141	H	-1.377184	0.090661	0.177840
C142	C	-2.229172	-0.521246	0.182870
N143	N	-2.298635	-0.498924	0.185363
H144	H	-2.175816	-0.800922	0.178200
C145	C	-1.577670	-0.082109	0.342221
N146	N	-1.647121	-0.084561	0.319892
H147	H	-2.175813	-0.079377	0.899717
H148	H	-1.249612	-0.348954	0.169270
C149	C	-2.227626	-0.918721	0.178633
N150	N	-2.308055	-0.945905	0.180930
H151	H	-2.205211	-0.083185	0.627741
C152	C	-1.577665	-0.243420	0.180893
N153	N	-1.647121	-0.221094	0.183361
C154	C	-1.672438	0.219027	0.167038
N155	N	-1.734953	0.246190	0.164774
C156	C	-1.605537	-0.081690	0.467704
N157	N	-1.685980	-0.083987	0.494871
C158	C	-1.429544	-0.075452	0.524337
N159	N	-1.440558	-0.075287	0.573853
H160	H	-1.377185	-0.078996	0.008153
C161	C	-1.307288	-0.080202	-0.107955
N162	N	-1.225734	-0.082668	-0.130274
C163	C	-1.465626	-0.074382	-0.176871
N164	N	-1.446534	-0.074549	-0.226386
H165	H	-1.720208	-0.620913	0.165504
C166	C	-1.847746	-0.906445	0.166580
N167	N	-1.778295	-0.928775	0.164122
H168	H	-1.749607	-0.348951	0.169281
C169	C	-1.668402	-0.503135	0.165084
N170	N	-1.587961	-0.475966	0.162791
C171	C	-2.257024	-0.083600	0.745511
N172	N	-2.337470	-0.085895	0.772675
C173	C	-2.077673	-0.082117	0.342218
N174	N	-2.147121	-0.084576	0.319885
H175	H	-2.077802	-0.080889	0.458327
C176	C	-2.227617	-0.079789	1.017512
N177	N	-2.308044	-0.082075	1.044695
H178	H	-1.720197	-0.066653	0.719706
C179	C	-1.668390	-0.066231	0.601928
N180	N	-1.587950	-0.063941	0.574760
H181	H	-1.725535	-0.240523	0.169633
H182	H	-1.847616	-0.068960	0.889131
H183	H	-1.749610	-0.070489	0.447753
H184	H	-1.725543	-0.070862	0.339328
