data_functionalizedCrystal
_audit_creation_method	'MofGen! by Chris Wilmer'
_symmetry_space_group_name_H-M	'P1'
_symmetry_Int_Tables_number	1
_symmetry_cell_setting	triclinic
loop_
_symmetry_equiv_pos_as_xyz
  x,y,z
_cell_length_a	17.699097
_cell_length_b	16.776229
_cell_length_c	17.699083
_cell_angle_alpha	90.007545
_cell_angle_beta	96.714293
_cell_angle_gamma	89.988580
loop_
_atom_site_label
_atom_site_type_symbol
_atom_site_fract_x
_atom_site_fract_y
_atom_site_fract_z
O1	O	-1.004072	0.066369	0.095761
O2	O	-0.504072	0.566369	0.595761
O3	O	-0.783695	0.066353	0.108203
O4	O	-0.283695	0.566353	0.608203
O5	O	-0.900110	0.066354	-0.008207
O6	O	-0.400110	0.566354	0.491793
O7	O	-0.887658	0.066367	0.212170
O8	O	-0.387658	0.566367	0.712170
O9	O	-0.900094	-0.066222	-0.008215
O10	O	-0.400094	0.433778	0.491785
O11	O	-0.783680	-0.066223	0.108195
O12	O	-0.283680	0.433777	0.608195
O13	O	-1.004057	-0.066208	0.095753
O14	O	-0.504057	0.433792	0.595753
Zn15	Zn	-0.893866	-0.087265	0.101973
Zn16	Zn	-0.393866	0.412735	0.601973
Zn17	Zn	-0.893886	0.087410	0.101983
Zn18	Zn	-0.393886	0.587410	0.601983
O19	O	-0.887642	-0.066209	0.212163
O20	O	-0.387642	0.433791	0.712163
C21	C	-0.755491	0.000063	0.107751
C22	C	-0.255491	0.500063	0.607751
C23	C	-0.671473	0.000057	0.106409
C24	C	-0.171473	0.500057	0.606409
N25	N	-0.893858	-0.206476	0.101966
N26	N	-0.393858	0.293524	0.601966
C27	C	-0.155763	0.072349	0.098184
C28	C	0.344237	0.572349	0.598184
C29	C	-0.234707	0.072346	0.099440
C30	C	0.265293	0.572346	0.599440
C31	C	-0.274165	0.000076	0.100065
C32	C	0.225835	0.500076	0.600065
C33	C	-0.234675	-0.072196	0.099427
C34	C	0.265325	0.427804	0.599427
C35	C	-0.155733	-0.072192	0.098165
C36	C	0.344267	0.427808	0.598165
C37	C	-0.553039	-0.072212	0.104514
C38	C	-0.053039	0.427788	0.604514
C39	C	-0.631987	-0.072211	0.105778
C40	C	-0.131987	0.427789	0.605778
C41	C	-0.632013	0.072326	0.105789
C42	C	-0.132013	0.572326	0.605789
C43	C	-0.553071	0.072330	0.104527
C44	C	-0.053071	0.572330	0.604527
C45	C	-0.513589	0.000058	0.103885
C46	C	-0.013589	0.500058	0.603885
C47	C	-0.427989	0.000062	0.102521
C48	C	0.072011	0.500062	0.602521
C49	C	-0.359763	0.000071	0.101434
C50	C	0.140237	0.500071	0.601434
C51	C	-0.945422	-0.248193	0.050441
C52	C	-0.445422	0.251807	0.550441
C53	C	-0.945426	-0.331645	0.050441
C54	C	-0.445426	0.168355	0.550441
C55	C	-0.893869	-0.373379	0.101969
C56	C	-0.393869	0.126621	0.601969
C57	C	-0.842299	-0.331657	0.153497
C58	C	-0.342299	0.168343	0.653497
C59	C	-0.842292	-0.248206	0.153493
C60	C	-0.342292	0.251794	0.653493
C61	C	-0.842327	-0.668204	0.153512
C62	C	-0.342327	-0.168204	0.653512
C63	C	-0.842339	-0.751660	0.153513
C64	C	-0.342339	-0.251660	0.653513
C65	C	-0.945460	-0.751643	0.050459
C66	C	-0.445460	-0.251643	0.550459
C67	C	-0.945453	-0.668192	0.050455
C68	C	-0.445453	-0.168192	0.550455
C69	C	-0.893881	-0.626477	0.101980
C70	C	-0.393881	-0.126477	0.601980
C71	C	-0.893876	-0.535989	0.101979
C72	C	-0.393876	-0.035989	0.601979
C73	C	-0.893877	-0.463866	0.101974
C74	C	-0.393877	0.036134	0.601974
C75	C	-0.032261	0.000081	0.096205
C76	C	0.467739	0.500081	0.596205
C77	C	-0.116279	0.000083	0.097547
C78	C	0.383721	0.500083	0.597547
C79	C	-0.899656	0.000066	-0.036408
C80	C	-0.399656	0.500066	0.463592
C81	C	-0.898317	0.000065	-0.120426
C82	C	-0.398317	0.500065	0.379574
N83	N	-0.893900	0.206621	0.101984
N84	N	-0.393900	0.706621	0.601984
C85	C	-0.966650	0.000069	-0.169044
C86	C	-0.466650	0.500069	0.330956
C87	C	-0.965388	0.000076	-0.247987
C88	C	-0.465388	0.500076	0.252013
C89	C	-0.895792	0.000074	-0.278311
C90	C	-0.395792	0.500074	0.221689
C91	C	-0.827454	0.000072	-0.229687
C92	C	-0.327454	0.500072	0.270313
C93	C	-0.828717	0.000071	-0.150746
C94	C	-0.328717	0.500071	0.349254
C95	C	-0.822359	0.000078	-0.548051
C96	C	-0.322359	0.500078	-0.048051
C97	C	-0.821101	0.000077	-0.626999
C98	C	-0.321101	0.500077	-0.126999
C99	C	-0.959030	0.000083	-0.645292
C100	C	-0.459030	0.500083	-0.145292
C101	C	-0.960293	0.000082	-0.566350
C102	C	-0.460293	0.500082	-0.066350
C103	C	-0.891955	0.000085	-0.517734
C104	C	-0.391955	0.500085	-0.017734
C105	C	-0.893325	0.000079	-0.432134
C106	C	-0.393325	0.500079	0.067866
C107	C	-0.894422	0.000074	-0.363909
C108	C	-0.394422	0.500074	0.136091
C109	C	-0.888096	0.000081	0.240364
C110	C	-0.388096	0.500081	0.740364
C111	C	-0.889435	0.000087	0.324382
C112	C	-0.389435	0.500087	0.824382
H113	H	-0.123642	0.131200	0.097680
H114	H	0.376358	0.631200	0.597680
H115	H	-0.800353	-0.785639	0.195475
H116	H	-0.300353	-0.285639	0.695475
H117	H	-0.770787	0.000075	-0.254383
H118	H	-0.270787	0.500075	0.245617
Br119	Br	-1.051776	0.000080	-0.711277
Br120	Br	-0.551776	0.500080	-0.211277
H121	H	-0.764424	0.000074	-0.651685
H122	H	-0.264424	0.500074	-0.151685
Br123	Br	-0.499464	-0.170295	0.103662
Br124	Br	0.000536	0.329705	0.603662
Br125	Br	-0.288224	-0.170278	0.100272
Br126	Br	0.211776	0.329722	0.600272
Br127	Br	-0.735976	0.000073	-0.084763
Br128	Br	-0.235976	0.500073	0.415237
Br129	Br	-0.102148	-0.170272	0.097291
Br130	Br	0.397852	0.329728	0.597291
H131	H	-0.664111	-0.131065	0.106287
H132	H	-0.164111	0.368935	0.606287
H133	H	-0.664170	0.131173	0.106309
H134	H	-0.164170	0.631173	0.606309
H135	H	-0.987408	-0.214218	0.008484
H136	H	-0.487408	0.285782	0.508484
Br137	Br	-0.772322	-0.388293	0.223425
Br138	Br	-0.272322	0.111707	0.723425
H139	H	-1.021032	0.000077	-0.287569
H140	H	-0.521032	0.500077	0.212431
H141	H	-0.266853	0.131193	0.099953
H142	H	0.233147	0.631193	0.599953
Br143	Br	-1.015404	-0.388263	-0.019490
Br144	Br	-0.515404	0.111737	0.480510
Br145	Br	-0.772304	-0.191591	0.223419
Br146	Br	-0.272304	0.308409	0.723419
Br147	Br	-0.499525	0.170414	0.103684
Br148	Br	0.000475	0.670414	0.603684
H149	H	-0.987438	-0.634215	0.008498
H150	H	-0.487438	-0.134215	0.508498
Br151	Br	-0.729614	0.000088	-0.482080
Br152	Br	-0.229614	0.500088	0.017920
Br153	Br	-1.015452	-0.808260	-0.019470
Br154	Br	-0.515452	-0.308260	0.480530
H155	H	-1.023324	0.000066	-0.144361
H156	H	-0.523324	0.500066	0.355639
H157	H	-0.800337	-0.634246	0.195466
H158	H	-0.300337	-0.134246	0.695466
Br159	Br	-1.054748	0.000086	-0.525201
Br160	Br	-0.554748	0.500086	-0.025201
