data_functionalizedCrystal
_audit_creation_method	'MofGen! by Chris Wilmer'
_symmetry_space_group_name_H-M	'P1'
_symmetry_Int_Tables_number	1
_symmetry_cell_setting	triclinic
loop_
_symmetry_equiv_pos_as_xyz
  x,y,z
_cell_length_a	16.625546
_cell_length_b	18.215407
_cell_length_c	18.215399
_cell_angle_alpha	90.020595
_cell_angle_beta	89.970824
_cell_angle_gamma	89.977611
loop_
_atom_site_label
_atom_site_type_symbol
_atom_site_fract_x
_atom_site_fract_y
_atom_site_fract_z
Zn1	Zn	-0.321012	-1.125084	-0.416125
Zn2	Zn	-0.071012	-0.875084	-0.166125
Zn3	Zn	0.178988	-0.625084	0.083875
Zn4	Zn	0.428988	-0.375084	0.333875
Zn5	Zn	-0.455852	-1.124998	-0.293056
Zn6	Zn	-0.205852	-0.874998	-0.043056
Zn7	Zn	0.044148	-0.624998	0.206944
Zn8	Zn	0.294148	-0.374998	0.456944
Zn9	Zn	-0.321037	-1.002017	-0.293070
Zn10	Zn	-0.071037	-0.752017	-0.043070
Zn11	Zn	0.178963	-0.502017	0.206930
Zn12	Zn	0.428963	-0.252017	0.456930
Zn13	Zn	-0.455806	-1.001988	-0.416079
Zn14	Zn	-0.205806	-0.751988	-0.166079
Zn15	Zn	0.044194	-0.501988	0.083921
Zn16	Zn	0.294194	-0.251988	0.333921
O17	O	-0.388426	-1.063522	-0.354582
O18	O	-0.138426	-0.813522	-0.104582
O19	O	0.111574	-0.563522	0.145418
O20	O	0.361574	-0.313522	0.395418
O21	O	-0.338907	-1.228057	-0.399812
O22	O	-0.088907	-0.978057	-0.149812
O23	O	0.161093	-0.728057	0.100188
O24	O	0.411093	-0.478057	0.350188
O25	O	-0.437998	-1.108660	-0.190073
O26	O	-0.187998	-0.858660	0.059927
O27	O	0.062002	-0.608660	0.309927
O28	O	0.312002	-0.358660	0.559927
O29	O	-0.208201	-1.018390	-0.309419
O30	O	0.041799	-0.768390	-0.059419
O31	O	0.291799	-0.518390	0.190581
O32	O	0.541799	-0.268390	0.440581
O33	O	-0.437974	-1.227994	-0.309394
O34	O	-0.187974	-0.977994	-0.059394
O35	O	0.062026	-0.727994	0.190606
O36	O	0.312026	-0.477994	0.440606
O37	O	-0.208183	-1.108807	-0.399826
O38	O	0.041817	-0.858807	-0.149826
O39	O	0.291817	-0.608807	0.100174
O40	O	0.541817	-0.358807	0.350174
O41	O	-0.338950	-1.018307	-0.190084
O42	O	-0.088950	-0.768307	0.059916
O43	O	0.161050	-0.518307	0.309916
O44	O	0.411050	-0.268307	0.559916
O45	O	-0.338905	-0.899029	-0.309375
O46	O	-0.088905	-0.649029	-0.059375
O47	O	0.161095	-0.399029	0.190625
O48	O	0.411095	-0.149029	0.440625
O49	O	-0.437895	-1.018341	-0.519069
O50	O	-0.187895	-0.768341	-0.269069
O51	O	0.062105	-0.518341	-0.019069
O52	O	0.312105	-0.268341	0.230931
O53	O	-0.437920	-0.899008	-0.399749
O54	O	-0.187920	-0.649008	-0.149749
O55	O	0.062080	-0.399008	0.100251
O56	O	0.312080	-0.149008	0.350251
O57	O	-0.338862	-1.108779	-0.519103
O58	O	-0.088862	-0.858779	-0.269103
O59	O	0.161138	-0.608779	-0.019103
O60	O	0.411138	-0.358779	0.230897
O61	O	-0.568678	-1.108632	-0.309350
O62	O	-0.318678	-0.858632	-0.059350
O63	O	-0.068678	-0.608632	0.190650
O64	O	0.181322	-0.358632	0.440650
O65	O	-0.568644	-1.018257	-0.399734
O66	O	-0.318644	-0.768257	-0.149734
O67	O	-0.068644	-0.518257	0.100266
O68	O	0.181356	-0.268257	0.350266
C69	C	-0.388411	-0.872315	-0.354559
C70	C	-0.138411	-0.622315	-0.104559
C71	C	0.111589	-0.372315	0.145441
C72	C	0.361589	-0.122315	0.395441
C73	C	-0.388423	-0.790517	-0.354566
C74	C	-0.138423	-0.540517	-0.104566
C75	C	0.111577	-0.290517	0.145434
C76	C	0.361577	-0.040517	0.395434
C77	C	-0.440059	-0.602331	-0.401562
C78	C	-0.190059	-0.352331	-0.151562
C79	C	0.059941	-0.102331	0.098438
C80	C	0.309941	0.147669	0.348438
C81	C	-0.440061	-0.525472	-0.401570
C82	C	-0.190061	-0.275472	-0.151570
C83	C	0.059939	-0.025472	0.098430
C84	C	0.309939	0.224528	0.348430
C85	C	-0.336798	-0.525465	-0.307605
C86	C	-0.086798	-0.275465	-0.057605
C87	C	0.163202	-0.025465	0.192395
C88	C	0.413202	0.224535	0.442395
C89	C	-0.336793	-0.602322	-0.307601
C90	C	-0.086793	-0.352322	-0.057601
C91	C	0.163207	-0.102322	0.192399
C92	C	0.413207	0.147678	0.442399
C93	C	-0.388428	-0.640753	-0.354579
C94	C	-0.138428	-0.390753	-0.104579
C95	C	0.111572	-0.140753	0.145421
C96	C	0.361572	0.109247	0.395421
C97	C	-0.388435	-0.487037	-0.354591
C98	C	-0.138435	-0.237037	-0.104591
C99	C	0.111565	0.012963	0.145409
C100	C	0.361565	0.262963	0.395409
C101	C	-0.388437	-0.403703	-0.354599
C102	C	-0.138437	-0.153703	-0.104599
C103	C	0.111563	0.096297	0.145401
C104	C	0.361563	0.346297	0.395401
C105	C	-0.388426	-0.724092	-0.354571
C106	C	-0.138426	-0.474092	-0.104571
C107	C	0.111574	-0.224092	0.145429
C108	C	0.361574	0.025908	0.395429
C109	C	-0.597917	-1.063452	-0.354552
C110	C	-0.347917	-0.813452	-0.104552
C111	C	-0.097917	-0.563452	0.145448
C112	C	0.152083	-0.313452	0.395448
C113	C	-0.687538	-1.063490	-0.354563
C114	C	-0.437538	-0.813490	-0.104563
C115	C	-0.187538	-0.563490	0.145437
C116	C	0.062462	-0.313490	0.395437
C117	C	-1.015714	-1.063618	-0.354640
C118	C	-0.765714	-0.813618	-0.104640
C119	C	-0.515714	-0.563618	0.145360
C120	C	-0.265714	-0.313618	0.395360
C121	C	-0.924406	-1.063580	-0.354620
C122	C	-0.674406	-0.813580	-0.104620
C123	C	-0.424406	-0.563580	0.145380
C124	C	-0.174406	-0.313580	0.395380
C125	C	-0.851629	-1.063553	-0.354601
C126	C	-0.601629	-0.813553	-0.104601
C127	C	-0.351629	-0.563553	0.145399
C128	C	-0.101629	-0.313553	0.395399
C129	C	-0.760315	-1.063516	-0.354582
C130	C	-0.510315	-0.813516	-0.104582
C131	C	-0.260315	-0.563516	0.145418
C132	C	-0.010315	-0.313516	0.395418
C133	C	-0.178118	-1.063612	-0.354629
C134	C	0.071882	-0.813612	-0.104629
C135	C	0.321882	-0.563612	0.145371
C136	C	0.571882	-0.313612	0.395371
C137	C	-0.088496	-1.063650	-0.354649
C138	C	0.161504	-0.813650	-0.104649
C139	C	0.411504	-0.563650	0.145351
C140	C	0.661504	-0.313650	0.395351
C141	C	-0.388371	-1.063567	-0.546535
C142	C	-0.138371	-0.813567	-0.296535
C143	C	0.111629	-0.563567	-0.046535
C144	C	0.361629	-0.313567	0.203465
C145	C	-0.388347	-1.063586	-0.628334
C146	C	-0.138347	-0.813586	-0.378334
C147	C	0.111653	-0.563586	-0.128334
C148	C	0.361653	-0.313586	0.121666
C149	C	-0.388440	-0.255475	-0.354603
C150	C	-0.138440	-0.005475	-0.104603
C151	C	0.111560	0.244525	0.145397
C152	C	0.361560	0.494525	0.395397
C153	C	-0.388440	-0.337274	-0.354604
C154	C	-0.138440	-0.087274	-0.104604
C155	C	0.111560	0.162726	0.145396
C156	C	0.361560	0.412726	0.395396
C157	C	-0.336733	-1.110694	-0.816547
C158	C	-0.086733	-0.860694	-0.566547
C159	C	0.163267	-0.610694	-0.316547
C160	C	0.413267	-0.360694	-0.066547
C161	C	-0.336709	-1.110703	-0.893406
C162	C	-0.086709	-0.860703	-0.643406
C163	C	0.163291	-0.610703	-0.393406
C164	C	0.413291	-0.360703	-0.143406
C165	C	-0.439837	-1.016530	-0.893360
C166	C	-0.189837	-0.766530	-0.643360
C167	C	0.060163	-0.516530	-0.393360
C168	C	0.310163	-0.266530	-0.143360
C169	C	-0.439856	-1.016518	-0.816502
C170	C	-0.189856	-0.766518	-0.566502
C171	C	0.060144	-0.516518	-0.316502
C172	C	0.310144	-0.266518	-0.066502
C173	C	-0.388305	-1.063604	-0.778098
C174	C	-0.138305	-0.813604	-0.528098
C175	C	0.111695	-0.563604	-0.278098
C176	C	0.361695	-0.313604	-0.028098
C177	C	-0.388263	-1.063625	-0.931814
C178	C	-0.138263	-0.813625	-0.681814
C179	C	0.111737	-0.563625	-0.431814
C180	C	0.361737	-0.313625	-0.181814
C181	C	-0.388237	-1.063634	-1.015148
C182	C	-0.138237	-0.813634	-0.765148
C183	C	0.111763	-0.563634	-0.515148
C184	C	0.361763	-0.313634	-0.265148
C185	C	-0.388329	-1.063594	-0.694759
C186	C	-0.138329	-0.813594	-0.444759
C187	C	0.111671	-0.563594	-0.194759
C188	C	0.361671	-0.313594	0.055241
C189	C	-0.388424	-1.063519	-0.163376
C190	C	-0.138424	-0.813519	0.086624
C191	C	0.111576	-0.563519	0.336624
C192	C	0.361576	-0.313519	0.586624
C193	C	-0.388220	-1.063643	-0.081578
C194	C	-0.138220	-0.813643	0.168422
C195	C	0.111780	-0.563643	0.418422
C196	C	0.361780	-0.313643	0.668422
H197	H	-0.294760	-0.494165	-0.269357
H198	H	-0.044760	-0.244165	-0.019357
H199	H	0.205240	0.005835	0.230643
H200	H	0.455240	0.255835	0.480643
H201	H	-0.482103	-0.494192	-0.439830
H202	H	-0.232103	-0.244192	-0.189830
H203	H	0.017897	0.005808	0.060170
H204	H	0.267897	0.255808	0.310170
H205	H	-0.294713	-1.149047	-0.924708
H206	H	-0.044713	-0.899047	-0.674708
H207	H	0.205287	-0.649047	-0.424708
H208	H	0.455287	-0.399047	-0.174708
C209	C	-0.496545	-0.964746	-0.935607
C210	C	-0.246545	-0.714746	-0.685607
C211	C	0.003455	-0.464746	-0.435607
C212	C	0.253455	-0.214746	-0.185607
H213	H	-0.489155	-0.971502	-0.986887
H214	H	-0.239155	-0.721502	-0.736887
H215	H	0.010845	-0.471502	-0.486887
H216	H	0.260845	-0.221502	-0.236887
H217	H	-0.484749	-0.915301	-0.923006
H218	H	-0.234749	-0.665301	-0.673006
H219	H	0.015251	-0.415301	-0.423006
H220	H	0.265251	-0.165301	-0.173006
H221	H	-0.550726	-0.975500	-0.922997
H222	H	-0.300726	-0.725500	-0.672997
H223	H	-0.050726	-0.475500	-0.422997
H224	H	0.199274	-0.225500	-0.172997
H225	H	-0.294744	-0.633606	-0.269342
H226	H	-0.044744	-0.383606	-0.019342
H227	H	0.205256	-0.133606	0.230658
H228	H	0.455256	0.116394	0.480658
H229	H	-0.294754	-1.149033	-0.785280
H230	H	-0.044754	-0.899033	-0.535280
H231	H	0.205246	-0.649033	-0.285280
H232	H	0.455246	-0.399033	-0.035280
C233	C	-0.496593	-0.964721	-0.774205
C234	C	-0.246593	-0.714721	-0.524205
C235	C	0.003407	-0.464721	-0.274205
C236	C	0.253407	-0.214721	-0.024205
H237	H	-0.527302	-0.936688	-0.808084
H238	H	-0.277302	-0.686688	-0.558084
H239	H	-0.027302	-0.436688	-0.308084
H240	H	0.222698	-0.186688	-0.058084
H241	H	-0.465758	-0.932663	-0.744222
H242	H	-0.215758	-0.682663	-0.494222
H243	H	0.034242	-0.432663	-0.244222
H244	H	0.284242	-0.182663	0.005778
H245	H	-0.531734	-0.992863	-0.744222
H246	H	-0.281734	-0.742863	-0.494222
H247	H	-0.031734	-0.492863	-0.244222
H248	H	0.218266	-0.242863	0.005778
H249	H	-0.482102	-0.633619	-0.439816
H250	H	-0.232102	-0.383619	-0.189816
H251	H	0.017898	-0.133619	0.060184
H252	H	0.267898	0.116381	0.310184
