data_functionalizedCrystal
_audit_creation_method	'MofGen! by Chris Wilmer'
_symmetry_space_group_name_H-M	'P1'
_symmetry_Int_Tables_number	1
_symmetry_cell_setting	triclinic
loop_
_symmetry_equiv_pos_as_xyz
  x,y,z
_cell_length_a	16.959455
_cell_length_b	12.827892
_cell_length_c	12.827885
_cell_angle_alpha	89.970214
_cell_angle_beta	89.979491
_cell_angle_gamma	90.014820
loop_
_atom_site_label
_atom_site_type_symbol
_atom_site_fract_x
_atom_site_fract_y
_atom_site_fract_z
Zn1	Zn	1.208455	-0.415998	-0.590883
Zn2	Zn	1.541788	-0.082665	-0.257550
Zn3	Zn	1.875121	0.250668	0.075784
Zn4	Zn	1.208375	-0.590776	-0.416143
Zn5	Zn	1.541708	-0.257442	-0.082810
Zn6	Zn	1.875041	0.075891	0.250523
Zn7	Zn	1.076270	-0.416048	-0.416153
Zn8	Zn	1.409603	-0.082714	-0.082820
Zn9	Zn	1.742937	0.250619	0.250514
Zn10	Zn	1.076259	-0.590696	-0.590840
Zn11	Zn	1.409592	-0.257363	-0.257506
Zn12	Zn	1.742925	0.075970	0.075827
O13	O	1.142340	-0.503380	-0.503505
O14	O	1.475673	-0.170046	-0.170171
O15	O	1.809006	0.163287	0.163162
O16	O	1.319055	-0.439196	-0.567718
O17	O	1.652388	-0.105862	-0.234384
O18	O	1.985722	0.227471	0.098949
O19	O	1.190822	-0.567652	-0.269909
O20	O	1.524155	-0.234318	0.063425
O21	O	1.857489	0.099015	0.396758
O22	O	1.093843	-0.269805	-0.439354
O23	O	1.427176	0.063528	-0.106020
O24	O	1.760509	0.396862	0.227313
O25	O	1.318996	-0.567604	-0.439337
O26	O	1.652330	-0.234270	-0.106004
O27	O	1.985663	0.099063	0.227329
O28	O	1.190958	-0.269769	-0.567727
O29	O	1.524292	0.063564	-0.234394
O30	O	1.857625	0.396898	0.098940
O31	O	1.093765	-0.439279	-0.269916
O32	O	1.427098	-0.105946	0.063418
O33	O	1.760432	0.227387	0.396751
O34	O	0.965658	-0.439202	-0.439311
O35	O	1.298991	-0.105869	-0.105978
O36	O	1.632324	0.227464	0.227355
O37	O	1.093824	-0.567468	-0.737082
O38	O	1.427157	-0.234135	-0.403748
O39	O	1.760490	0.099198	-0.070415
O40	O	0.965649	-0.567516	-0.567653
O41	O	1.298983	-0.234183	-0.234320
O42	O	1.632316	0.099151	0.099014
O43	O	1.190948	-0.439119	-0.737114
O44	O	1.524281	-0.105785	-0.403780
O45	O	1.857614	0.227548	-0.070447
O46	O	1.190811	-0.737001	-0.439295
O47	O	1.524144	-0.403668	-0.105962
O48	O	1.857478	-0.070335	0.227372
O49	O	1.093746	-0.736943	-0.567644
O50	O	1.427079	-0.403610	-0.234310
O51	O	1.760413	-0.070276	0.099023
C52	C	1.142290	-0.774889	-0.503486
C53	C	1.475623	-0.441556	-0.170153
C54	C	1.808957	-0.108223	0.163180
C55	C	1.142341	-0.891043	-0.503513
C56	C	1.475675	-0.557709	-0.170180
C57	C	1.809008	-0.224376	0.163153
C58	C	0.936973	-0.503357	-0.503479
C59	C	1.270307	-0.170023	-0.170146
C60	C	1.603640	0.163310	0.163188
C61	C	0.849117	-0.503372	-0.503493
C62	C	1.182450	-0.170039	-0.170159
C63	C	1.515783	0.163294	0.163174
C64	C	1.094353	-1.062877	-0.567004
C65	C	1.427686	-0.729544	-0.233671
C66	C	1.761020	-0.396211	0.099662
C67	C	1.094299	-0.942827	-0.566978
C68	C	1.427632	-0.609494	-0.233644
C69	C	1.760966	-0.276160	0.099689
C70	C	0.807810	-0.570133	-0.436556
C71	C	1.141144	-0.236800	-0.103223
C72	C	1.474477	0.096533	0.230111
C73	C	0.807870	-0.436619	-0.570438
C74	C	1.141203	-0.103286	-0.237105
C75	C	1.474536	0.230047	0.096229
C76	C	0.725324	-0.436628	-0.570450
C77	C	1.058657	-0.103294	-0.237117
C78	C	1.391990	0.230039	0.096216
C79	C	0.684017	-0.503389	-0.503514
C80	C	1.017351	-0.170055	-0.170180
C81	C	1.350684	0.163278	0.163153
C82	C	0.725257	-0.570141	-0.436564
C83	C	1.058590	-0.236808	-0.103231
C84	C	1.391923	0.096525	0.230103
C85	C	0.684078	-0.369869	-0.637391
C86	C	1.017412	-0.036535	-0.304058
C87	C	1.350745	0.296798	0.029275
C88	C	0.601527	-0.369873	-0.637406
C89	C	0.934861	-0.036540	-0.304072
C90	C	1.268194	0.296793	0.029261
C91	C	0.560219	-0.436640	-0.570473
C92	C	0.893553	-0.103307	-0.237140
C93	C	1.226886	0.230026	0.096194
C94	C	0.601464	-0.503397	-0.503522
C95	C	0.934797	-0.170063	-0.170188
C96	C	1.268130	0.163270	0.163145
C97	C	0.560157	-0.570158	-0.436585
C98	C	0.893491	-0.236824	-0.103252
C99	C	1.226824	0.096509	0.230082
C100	C	0.601400	-0.636920	-0.369638
C101	C	0.934734	-0.303587	-0.036305
C102	C	1.268067	0.029747	0.297029
C103	C	0.683949	-0.636908	-0.369632
C104	C	1.017282	-0.303575	-0.036298
C105	C	1.350615	0.029758	0.297035
C106	C	0.477671	-0.436652	-0.570479
C107	C	0.811004	-0.103319	-0.237146
C108	C	1.144337	0.230015	0.096187
C109	C	0.477604	-0.570166	-0.436593
C110	C	0.810937	-0.236833	-0.103260
C111	C	1.144270	0.096501	0.230074
C112	C	1.348508	-0.503403	-0.503531
C113	C	1.681841	-0.170070	-0.170198
C114	C	2.015174	0.163264	0.163135
C115	C	1.436364	-0.503413	-0.503543
C116	C	1.769698	-0.170080	-0.170209
C117	C	2.103031	0.163254	0.163124
C118	C	1.142393	-0.503279	-0.776075
C119	C	1.475727	-0.169946	-0.442742
C120	C	1.809060	0.163388	-0.109408
C121	C	1.142416	-0.503236	-0.892228
C122	C	1.475750	-0.169903	-0.558895
C123	C	1.809083	0.163430	-0.225562
C124	C	1.142411	-0.230809	-0.503546
C125	C	1.475744	0.102524	-0.170213
C126	C	1.809077	0.435857	0.163120
C127	C	1.142441	-0.114656	-0.503564
C128	C	1.475774	0.218677	-0.170231
C129	C	1.809108	0.552010	0.163103
C130	C	1.190481	-0.439712	-0.944029
C131	C	1.523815	-0.106379	-0.610696
C132	C	1.857148	0.226954	-0.277362
C133	C	1.190506	-0.439667	-1.064079
C134	C	1.523840	-0.106333	-0.730746
C135	C	1.857173	0.227000	-0.397413
C136	C	1.142331	-0.503404	-0.231995
C137	C	1.475665	-0.170071	0.101338
C138	C	1.808998	0.163263	0.434672
C139	C	1.142462	-0.503152	-0.115842
C140	C	1.475795	-0.169819	0.217491
C141	C	1.809128	0.163514	0.550824
H142	H	1.053226	-1.107424	-0.621341
H143	H	1.386560	-0.774091	-0.288008
H144	H	1.719893	-0.440757	0.045325
H145	H	1.053126	-0.898299	-0.621288
H146	H	1.386459	-0.564966	-0.287954
H147	H	1.719793	-0.231633	0.045379
H148	H	0.717536	-0.691260	-0.315125
H149	H	1.050869	-0.357927	0.018209
H150	H	1.384203	-0.024594	0.351542
Cl151	Cl	0.859656	-0.654062	-0.352402
Cl152	Cl	1.192989	-0.320729	-0.019069
Cl153	Cl	1.526322	0.012604	0.314264
H154	H	1.101279	-0.557581	-0.936757
H155	H	1.434612	-0.224248	-0.603423
H156	H	1.767946	0.109086	-0.270090
Cl157	Cl	1.205950	-1.045888	-0.419679
Cl158	Cl	1.539283	-0.712555	-0.086345
Cl159	Cl	1.872617	-0.379222	0.246988
Cl160	Cl	1.205906	-0.959779	-0.419644
Cl161	Cl	1.539239	-0.626445	-0.086311
Cl162	Cl	1.872572	-0.293112	0.247023
H163	H	0.841506	-0.382261	-0.624930
H164	H	1.174840	-0.048927	-0.291597
H165	H	1.508173	0.284406	0.041737
H166	H	0.717716	-0.315511	-0.691884
H167	H	1.051049	0.017822	-0.358550
H168	H	1.384383	0.351155	-0.025217
H169	H	0.443978	-0.624536	-0.382089
H170	H	0.777311	-0.291203	-0.048755
H171	H	1.110644	0.042131	0.284578
H172	H	0.567758	-0.691273	-0.315134
H173	H	0.901091	-0.357940	0.018199
H174	H	1.234424	-0.024606	0.351533
H175	H	1.231611	-0.385357	-0.899500
H176	H	1.564944	-0.052024	-0.566167
H177	H	1.898277	0.281309	-0.232834
Cl178	Cl	1.254047	-0.355701	-1.132851
Cl179	Cl	1.587381	-0.022368	-0.799517
Cl180	Cl	1.920714	0.310966	-0.466184
H181	H	0.567954	-0.315513	-0.691919
H182	H	0.901288	0.017820	-0.358586
H183	H	1.234621	0.351154	-0.025253
H184	H	0.444094	-0.382288	-0.624979
H185	H	0.777428	-0.048954	-0.291646
H186	H	1.110761	0.284379	0.041688
Cl187	Cl	1.078927	-0.587132	-1.047078
Cl188	Cl	1.412261	-0.253799	-0.713744
Cl189	Cl	1.745594	0.079534	-0.380411
