data_functionalizedCrystal
_audit_creation_method	'MofGen! by Chris Wilmer'
_symmetry_space_group_name_H-M	'P1'
_symmetry_Int_Tables_number	1
_symmetry_cell_setting	triclinic
loop_
_symmetry_equiv_pos_as_xyz
  x,y,z
_cell_length_a	19.805407
_cell_length_b	19.805405
_cell_length_c	19.805399
_cell_angle_alpha	89.973385
_cell_angle_beta	89.979591
_cell_angle_gamma	90.028666
loop_
_atom_site_label
_atom_site_type_symbol
_atom_site_fract_x
_atom_site_fract_y
_atom_site_fract_z
Zn1	Zn	1.034734	-0.269444	-0.382739
Zn2	Zn	1.284734	-0.019444	-0.132739
Zn3	Zn	1.534734	0.230556	0.117261
Zn4	Zn	1.784734	0.480556	0.367261
Zn5	Zn	1.034648	-0.382632	-0.269553
Zn6	Zn	1.284648	-0.132632	-0.019553
Zn7	Zn	1.534648	0.117368	0.230447
Zn8	Zn	1.784648	0.367368	0.480447
Zn9	Zn	0.921549	-0.269466	-0.269562
Zn10	Zn	1.171549	-0.019466	-0.019562
Zn11	Zn	1.421549	0.230534	0.230438
Zn12	Zn	1.671549	0.480534	0.480438
Zn13	Zn	0.921512	-0.382600	-0.382698
Zn14	Zn	1.171512	-0.132600	-0.132698
Zn15	Zn	1.421512	0.117400	0.117302
Zn16	Zn	1.671512	0.367400	0.367302
O17	O	0.978111	-0.326036	-0.326138
O18	O	1.228111	-0.076036	-0.076138
O19	O	1.478111	0.173964	0.173862
O20	O	1.728111	0.423964	0.423862
O21	O	1.129439	-0.284463	-0.367738
O22	O	1.379439	-0.034463	-0.117738
O23	O	1.629439	0.215537	0.132262
O24	O	1.879439	0.465537	0.382262
O25	O	1.019625	-0.367643	-0.174838
O26	O	1.269625	-0.117643	0.075162
O27	O	1.519625	0.132357	0.325162
O28	O	1.769625	0.382357	0.575162
O29	O	0.936615	-0.174747	-0.284597
O30	O	1.186615	0.075253	-0.034597
O31	O	1.436615	0.325253	0.215403
O32	O	1.686615	0.575253	0.465403
O33	O	1.129376	-0.367622	-0.284581
O34	O	1.379376	-0.117622	-0.034581
O35	O	1.629376	0.132378	0.215419
O36	O	1.879376	0.382378	0.465419
O37	O	1.019771	-0.174730	-0.367747
O38	O	1.269771	0.075270	-0.117747
O39	O	1.519771	0.325270	0.132253
O40	O	1.769771	0.575270	0.382253
O41	O	0.936531	-0.284501	-0.174844
O42	O	1.186531	-0.034501	0.075156
O43	O	1.436531	0.215499	0.325156
O44	O	1.686531	0.465499	0.575156
O45	O	0.826827	-0.284470	-0.284557
O46	O	1.076827	-0.034470	-0.034557
O47	O	1.326827	0.215530	0.215443
O48	O	1.576827	0.465530	0.465443
O49	O	0.936551	-0.367567	-0.477420
O50	O	1.186551	-0.117567	-0.227420
O51	O	1.436551	0.132433	0.022580
O52	O	1.686551	0.382433	0.272580
O53	O	0.826800	-0.367589	-0.367677
O54	O	1.076800	-0.117589	-0.117677
O55	O	1.326800	0.132411	0.132323
O56	O	1.576800	0.382411	0.382323
O57	O	1.019735	-0.284431	-0.477450
O58	O	1.269735	-0.034431	-0.227450
O59	O	1.519735	0.215569	0.022550
O60	O	1.769735	0.465569	0.272550
O61	O	1.019589	-0.477345	-0.284541
O62	O	1.269589	-0.227345	-0.034541
O63	O	1.519589	0.022655	0.215459
O64	O	1.769589	0.272655	0.465459
O65	O	0.936468	-0.477321	-0.367668
O66	O	1.186468	-0.227321	-0.117668
O67	O	1.436468	0.022679	0.132332
O68	O	1.686468	0.272679	0.382332
C69	C	0.802255	-0.326029	-0.326114
C70	C	1.052255	-0.076029	-0.076114
C71	C	1.302255	0.173971	0.173886
C72	C	1.552255	0.423971	0.423886
C73	C	0.727023	-0.326042	-0.326119
C74	C	0.977023	-0.076042	-0.076119
C75	C	1.227023	0.173958	0.173881
C76	C	1.477023	0.423958	0.423881
C77	C	0.265268	-0.282816	-0.369531
C78	C	0.515268	-0.032816	-0.119531
C79	C	0.765268	0.217184	0.130469
C80	C	1.015268	0.467184	0.380469
C81	C	0.335957	-0.282817	-0.369526
C82	C	0.585957	-0.032817	-0.119526
C83	C	0.835957	0.217183	0.130474
C84	C	1.085957	0.467183	0.380474
C85	C	0.371261	-0.326046	-0.326160
C86	C	0.621261	-0.076046	-0.076160
C87	C	0.871261	0.173954	0.173840
C88	C	1.121261	0.423954	0.423840
C89	C	0.335874	-0.369281	-0.282801
C90	C	0.585874	-0.119281	-0.032801
C91	C	0.835874	0.130719	0.217199
C92	C	1.085874	0.380719	0.467199
C93	C	0.265186	-0.369283	-0.282810
C94	C	0.515186	-0.119283	-0.032810
C95	C	0.765186	0.130717	0.217190
C96	C	1.015186	0.380717	0.467190
C97	C	0.620947	-0.369276	-0.282765
C98	C	0.870947	-0.119276	-0.032765
C99	C	1.120947	0.130724	0.217235
C100	C	1.370947	0.380724	0.467235
C101	C	0.691639	-0.369270	-0.282758
C102	C	0.941639	-0.119270	-0.032758
C103	C	1.191639	0.130730	0.217242
C104	C	1.441639	0.380730	0.467242
C105	C	0.691717	-0.282810	-0.369481
C106	C	0.941717	-0.032810	-0.119481
C107	C	1.191717	0.217190	0.130519
C108	C	1.441717	0.467190	0.380519
C109	C	0.621030	-0.282812	-0.369490
C110	C	0.871030	-0.032812	-0.119490
C111	C	1.121030	0.217188	0.130510
C112	C	1.371030	0.467188	0.380510
C113	C	0.585648	-0.326049	-0.326134
C114	C	0.835648	-0.076049	-0.076134
C115	C	1.085648	0.173951	0.173866
C116	C	1.335648	0.423951	0.423866
C117	C	0.509000	-0.326048	-0.326141
C118	C	0.759000	-0.076048	-0.076141
C119	C	1.009000	0.173952	0.173859
C120	C	1.259000	0.423952	0.423859
C121	C	0.447908	-0.326044	-0.326149
C122	C	0.697908	-0.076044	-0.076149
C123	C	0.947908	0.173956	0.173851
C124	C	1.197908	0.423956	0.423851
C125	C	0.978034	-0.501892	-0.326114
C126	C	1.228034	-0.251892	-0.076114
C127	C	1.478034	-0.001892	0.173886
C128	C	1.728034	0.248108	0.423886
C129	C	0.978063	-0.577124	-0.326126
C130	C	1.228063	-0.327124	-0.076126
C131	C	1.478063	-0.077124	0.173874
C132	C	1.728063	0.172876	0.423874
C133	C	1.021337	-0.612401	-0.369456
C134	C	1.271337	-0.362401	-0.119456
C135	C	1.521337	-0.112401	0.130544
C136	C	1.771337	0.137599	0.380544
C137	C	1.021361	-0.683089	-0.369469
C138	C	1.271361	-0.433089	-0.119469
C139	C	1.521361	-0.183089	0.130531
C140	C	1.771361	0.066911	0.380531
C141	C	0.978114	-0.718499	-0.326147
C142	C	1.228114	-0.468499	-0.076147
C143	C	1.478114	-0.218499	0.173853
C144	C	1.728114	0.031501	0.423853
C145	C	0.934835	-0.683217	-0.282815
C146	C	1.184835	-0.433217	-0.032815
C147	C	1.434835	-0.183217	0.217185
C148	C	1.684835	0.066783	0.467185
C149	C	0.934808	-0.612530	-0.282806
C150	C	1.184808	-0.362530	-0.032806
C151	C	1.434808	-0.112530	0.217194
C152	C	1.684808	0.137470	0.467194
C153	C	0.934944	-0.968290	-0.282849
C154	C	1.184944	-0.718290	-0.032849
C155	C	1.434944	-0.468290	0.217151
C156	C	1.684944	-0.218290	0.467151
C157	C	0.934976	-1.038982	-0.282860
C158	C	1.184976	-0.788982	-0.032860
C159	C	1.434976	-0.538982	0.217140
C160	C	1.684976	-0.288982	0.467140
C161	C	1.021497	-1.038850	-0.369512
C162	C	1.271497	-0.788850	-0.119512
C163	C	1.521497	-0.538850	0.130488
C164	C	1.771497	-0.288850	0.380488
C165	C	1.021470	-0.968163	-0.369504
C166	C	1.271470	-0.718163	-0.119504
C167	C	1.521470	-0.468163	0.130496
C168	C	1.771470	-0.218163	0.380496
C169	C	0.978189	-0.932887	-0.326174
C170	C	1.228189	-0.682887	-0.076174
C171	C	1.478189	-0.432887	0.173826
C172	C	1.728189	-0.182887	0.423826
C173	C	0.978162	-0.856238	-0.326162
C174	C	1.228162	-0.606238	-0.076162
C175	C	1.478162	-0.356238	0.173838
C176	C	1.728162	-0.106238	0.423838
C177	C	0.978144	-0.795146	-0.326155
C178	C	1.228144	-0.545146	-0.076155
C179	C	1.478144	-0.295146	0.173845
C180	C	1.728144	-0.045146	0.423845
C181	C	1.154654	-0.326043	-0.326163
C182	C	1.404654	-0.076043	-0.076163
C183	C	1.654654	0.173957	0.173837
C184	C	1.904654	0.423957	0.423837
C185	C	1.229885	-0.326046	-0.326174
C186	C	1.479885	-0.076046	-0.076174
C187	C	1.729885	0.173954	0.173826
C188	C	1.979885	0.423954	0.423826
C189	C	0.978149	-0.325993	-0.502681
C190	C	1.228149	-0.075993	-0.252681
C191	C	1.478149	0.174007	-0.002681
C192	C	1.728149	0.424007	0.247319
C193	C	0.978165	-0.325975	-0.577913
C194	C	1.228165	-0.075975	-0.327913
C195	C	1.478165	0.174025	-0.077913
C196	C	1.728165	0.424025	0.172087
C197	C	0.978207	-0.149493	-0.326178
C198	C	1.228207	0.100507	-0.076178
C199	C	1.478207	0.350507	0.173822
C200	C	1.728207	0.600507	0.423822
C201	C	0.978248	-0.074261	-0.326194
C202	C	1.228248	0.175739	-0.076194
C203	C	1.478248	0.425739	0.173806
C204	C	1.728248	0.675739	0.423806
C205	C	1.021480	-0.282684	-0.613274
C206	C	1.271480	-0.032684	-0.363274
C207	C	1.521480	0.217316	-0.113274
C208	C	1.771480	0.467316	0.136726
C209	C	1.021487	-0.282664	-0.683962
C210	C	1.271487	-0.032664	-0.433962
C211	C	1.521487	0.217336	-0.183962
C212	C	1.771487	0.467336	0.066038
C213	C	0.978182	-0.325939	-0.719289
C214	C	1.228182	-0.075939	-0.469289
C215	C	1.478182	0.174061	-0.219289
C216	C	1.728182	0.424061	0.030711
C217	C	0.934862	-0.369232	-0.683923
C218	C	1.184862	-0.119232	-0.433923
C219	C	1.434862	0.130768	-0.183923
C220	C	1.684862	0.380768	0.066077
C221	C	0.934852	-0.369248	-0.613235
C222	C	1.184852	-0.119248	-0.363235
C223	C	1.434852	0.130752	-0.113235
C224	C	1.684852	0.380752	0.136765
C225	C	0.934900	-0.369169	-0.968996
C226	C	1.184900	-0.119169	-0.718996
C227	C	1.434900	0.130831	-0.468996
C228	C	1.684900	0.380831	-0.218996
C229	C	0.934915	-0.369151	-1.039688
C230	C	1.184915	-0.119151	-0.789688
C231	C	1.434915	0.130849	-0.539688
C232	C	1.684915	0.380849	-0.289688
C233	C	1.021535	-0.282586	-1.039723
C234	C	1.271535	-0.032586	-0.789723
C235	C	1.521535	0.217414	-0.539723
C236	C	1.771535	0.467414	-0.289723
C237	C	1.021525	-0.282601	-0.969036
C238	C	1.271525	-0.032601	-0.719036
C239	C	1.521525	0.217399	-0.469036
C240	C	1.771525	0.467399	-0.219036
C241	C	0.978203	-0.325891	-0.933676
C242	C	1.228203	-0.075891	-0.683676
C243	C	1.478203	0.174109	-0.433676
C244	C	1.728203	0.424109	-0.183676
C245	C	0.978195	-0.325911	-0.857028
C246	C	1.228195	-0.075911	-0.607028
C247	C	1.478195	0.174089	-0.357028
C248	C	1.728195	0.424089	-0.107028
C249	C	0.978193	-0.325923	-0.795936
C250	C	1.228193	-0.075923	-0.545936
C251	C	1.478193	0.174077	-0.295936
C252	C	1.728193	0.424077	-0.045936
C253	C	0.978112	-0.326029	-0.150282
C254	C	1.228112	-0.076029	0.099718
C255	C	1.478112	0.173971	0.349718
C256	C	1.728112	0.423971	0.599718
C257	C	0.978227	-0.325857	-0.075051
C258	C	1.228227	-0.075857	0.174949
C259	C	1.478227	0.174143	0.424949
C260	C	1.728227	0.424143	0.674949
H261	H	0.236528	-0.247609	-0.404840
H262	H	0.486528	0.002391	-0.154840
H263	H	0.736528	0.252391	0.095160
H264	H	0.986528	0.502391	0.345160
F265	F	0.583300	-0.415278	-0.236606
F266	F	0.833300	-0.165278	0.013394
F267	F	1.083300	0.084722	0.263394
F268	F	1.333300	0.334722	0.513394
F269	F	1.067640	-0.236510	-1.077361
F270	F	1.317640	0.013490	-0.827361
F271	F	1.567640	0.263490	-0.577361
F272	F	1.817640	0.513490	-0.327361
H273	H	0.899705	-0.939574	-0.247568
H274	H	1.149705	-0.689574	0.002432
H275	H	1.399705	-0.439574	0.252432
H276	H	1.649705	-0.189574	0.502432
H277	H	1.056737	-1.067580	-0.404796
H278	H	1.306737	-0.817580	-0.154796
H279	H	1.556737	-0.567580	0.095204
H280	H	1.806737	-0.317580	0.345204
H281	H	1.056791	-0.247365	-0.940277
H282	H	1.306791	0.002635	-0.690277
H283	H	1.556791	0.252635	-0.440277
H284	H	1.806791	0.502635	-0.190277
H285	H	1.056688	-0.939334	-0.404778
H286	H	1.306688	-0.689334	-0.154778
H287	H	1.556688	-0.439334	0.095222
H288	H	1.806688	-0.189334	0.345222
H289	H	0.364624	-0.404482	-0.247494
H290	H	0.614624	-0.154482	0.002506
H291	H	0.864624	0.095518	0.252506
H292	H	1.114624	0.345518	0.502506
F293	F	0.888803	-0.720905	-0.236714
F294	F	1.138803	-0.470905	0.013286
F295	F	1.388803	-0.220905	0.263286
F296	F	1.638803	0.029095	0.513286
H297	H	0.899756	-1.067811	-0.247581
H298	H	1.149756	-0.817811	0.002419
H299	H	1.399756	-0.567811	0.252419
H300	H	1.649756	-0.317811	0.502419
F301	F	0.888749	-0.574985	-0.236688
F302	F	1.138749	-0.324985	0.013312
F303	F	1.388749	-0.074985	0.263312
F304	F	1.638749	0.175015	0.513312
F305	F	1.067575	-0.236627	-0.575683
F306	F	1.317575	0.013373	-0.325683
F307	F	1.567575	0.263373	-0.075683
F308	F	1.817575	0.513373	0.174317
H309	H	0.720533	-0.247606	-0.404786
H310	H	0.970533	0.002394	-0.154786
H311	H	1.220533	0.252394	0.095214
H312	H	1.470533	0.502394	0.345214
F313	F	0.227530	-0.415299	-0.236668
F314	F	0.477530	-0.165299	0.013332
F315	F	0.727530	0.084701	0.263332
F316	F	0.977530	0.334701	0.513332
H317	H	0.899574	-0.404493	-0.584445
H318	H	1.149574	-0.154493	-0.334445
H319	H	1.399574	0.095507	-0.084445
H320	H	1.649574	0.345507	0.165555
F321	F	1.067612	-0.236612	-0.721593
F322	F	1.317612	0.013388	-0.471593
F323	F	1.567612	0.263388	-0.221593
F324	F	1.817612	0.513388	0.028407
F325	F	1.067412	-0.720631	-0.415595
F326	F	1.317412	-0.470631	-0.165595
F327	F	1.567412	-0.220631	0.084405
F328	F	1.817412	0.029369	0.334405
F329	F	0.888821	-0.415213	-1.077284
F330	F	1.138821	-0.165213	-0.827284
F331	F	1.388821	0.084787	-0.577284
F332	F	1.638821	0.334787	-0.327284
F333	F	0.888793	-0.415242	-0.931373
F334	F	1.138793	-0.165242	-0.681373
F335	F	1.388793	0.084758	-0.431373
F336	F	1.638793	0.334758	-0.181373
H337	H	0.364762	-0.247616	-0.404834
H338	H	0.614762	0.002384	-0.154834
H339	H	0.864762	0.252384	0.095166
H340	H	1.114762	0.502384	0.345166
F341	F	0.583460	-0.236800	-0.415644
F342	F	0.833460	0.013200	-0.165644
F343	F	1.083460	0.263200	0.084356
F344	F	1.333460	0.513200	0.334356
H345	H	0.899600	-0.404465	-0.712691
H346	H	1.149600	-0.154465	-0.462691
H347	H	1.399600	0.095535	-0.212691
H348	H	1.649600	0.345535	0.037309
F349	F	0.729211	-0.415282	-0.236600
F350	F	0.979211	-0.165282	0.013400
F351	F	1.229211	0.084718	0.263400
F352	F	1.479211	0.334718	0.513400
F353	F	1.067370	-0.574721	-0.415563
F354	F	1.317370	-0.324721	-0.165563
F355	F	1.567370	-0.074721	0.084437
F356	F	1.817370	0.175279	0.334437
