data_functionalizedCrystal
_audit_creation_method	'MofGen! by Chris Wilmer'
_symmetry_space_group_name_H-M	'P1'
_symmetry_Int_Tables_number	1
_symmetry_cell_setting	triclinic
loop_
_symmetry_equiv_pos_as_xyz
  x,y,z
_cell_length_a	17.640112
_cell_length_b	17.640280
_cell_length_c	17.640968
_cell_angle_alpha	65.682561
_cell_angle_beta	92.139080
_cell_angle_gamma	92.184069
loop_
_atom_site_label
_atom_site_type_symbol
_atom_site_fract_x
_atom_site_fract_y
_atom_site_fract_z
Zn1	Zn	1.251359	-0.023073	-0.189698
Zn2	Zn	1.251298	-0.188752	-0.024069
Zn3	Zn	1.106797	-0.075311	-0.076159
Zn4	Zn	1.148399	-0.178182	-0.179117
O5	O	1.189463	-0.116329	-0.117261
O6	O	1.354914	-0.027613	-0.150355
O7	O	1.214694	-0.199989	0.081425
O8	O	1.108588	0.044008	-0.117448
O9	O	1.354870	-0.149337	-0.028669
O10	O	1.214797	0.082386	-0.200865
O11	O	1.108529	-0.116644	0.043155
O12	O	1.008752	-0.106394	-0.107188
O13	O	1.179493	-0.131321	-0.292925
O14	O	1.039317	-0.181973	-0.182831
O15	O	1.255137	-0.017364	-0.300699
O16	O	1.255033	-0.299739	-0.018409
O17	O	1.179434	-0.291973	-0.132322
C18	C	0.997182	-0.148705	-0.149514
C19	C	0.914929	-0.162571	-0.163327
C20	C	0.564743	-0.010979	-0.012337
C21	C	0.487458	-0.024022	-0.025323
C22	C	0.519334	-0.102905	-0.103880
C23	C	0.596623	-0.089865	-0.090904
C24	C	0.619321	-0.043903	-0.045131
C25	C	0.651201	-0.122789	-0.123697
C26	C	0.728483	-0.109754	-0.110718
C27	C	0.751188	-0.063796	-0.064946
C28	C	0.696603	-0.030868	-0.032152
C29	C	0.628502	-0.168756	-0.169465
C30	C	0.683080	-0.201680	-0.202259
C31	C	0.760364	-0.188640	-0.189285
C32	C	0.783068	-0.142682	-0.143512
C33	C	0.814949	-0.221568	-0.222079
C34	C	0.892231	-0.208534	-0.209100
C35	C	0.860351	-0.129647	-0.130533
C36	C	1.221764	-0.324990	-0.068579
C37	C	1.235655	-0.414238	-0.047768
C38	C	1.084287	-0.687787	-0.275600
C39	C	1.097337	-0.771655	-0.256019
C40	C	1.176134	-0.779643	-0.137496
C41	C	1.163094	-0.695773	-0.157069
C42	C	1.117169	-0.649852	-0.226122
C43	C	1.195976	-0.657837	-0.107591
C44	C	1.182933	-0.573976	-0.127160
C45	C	1.137009	-0.528050	-0.196208
C46	C	1.104127	-0.565990	-0.245691
C47	C	1.241896	-0.703761	-0.038535
C48	C	1.274778	-0.665825	0.010944
C49	C	1.261740	-0.581961	-0.008629
C50	C	1.215815	-0.536035	-0.077677
C51	C	1.294622	-0.544020	0.040854
C52	C	1.281579	-0.460159	0.021285
C53	C	1.202773	-0.452173	-0.097246
C54	C	1.382495	-0.083827	-0.084882
C55	C	1.464754	-0.069977	-0.071084
C56	C	1.221962	-0.067336	-0.326772
C57	C	1.235811	-0.046458	-0.416053
C58	C	1.157059	0.093153	-0.166147
C59	C	1.143250	0.182422	-0.186980
C60	C	1.084469	-0.274453	-0.689444
C61	C	1.097496	-0.254822	-0.773337
C62	C	1.176258	-0.136168	-0.781421
C63	C	1.163234	-0.155787	-0.697528
C64	C	1.117340	-0.224930	-0.651546
C65	C	1.196105	-0.106264	-0.659630
C66	C	1.183085	-0.125884	-0.575743
C67	C	1.137195	-0.195026	-0.529754
C68	C	1.104320	-0.244550	-0.567659
C69	C	1.242004	-0.037124	-0.705612
C70	C	1.274874	0.012398	-0.667713
C71	C	1.261851	-0.007218	-0.583827
C72	C	1.215960	-0.076360	-0.537838
C73	C	1.294725	0.042306	-0.545922
C74	C	1.281706	0.022686	-0.462035
C75	C	1.202940	-0.095980	-0.453951
C76	C	1.157124	-0.165067	0.091429
C77	C	1.143383	-0.185695	0.180681
H78	H	0.796456	-0.258998	-0.259340
O79	O	1.313513	0.070787	-0.425150
C80	C	1.255823	0.104229	-0.395815
H81	H	1.202169	0.063525	-0.386059
H82	H	1.275146	0.106260	-0.334273
H83	H	1.243505	0.169943	-0.443390
O84	O	1.158239	-0.407607	-0.164416
C85	C	1.189975	-0.406610	-0.237010
H86	H	1.228142	-0.462294	-0.219725
H87	H	1.142574	-0.410091	-0.281278
H88	H	1.224870	-0.346639	-0.268728
H89	H	0.500842	-0.140330	-0.141145
O90	O	1.313478	-0.423421	0.069471
C91	C	1.288121	-0.465366	0.151624
H92	H	1.268891	-0.531469	0.162761
H93	H	1.336418	-0.467599	0.197217
H94	H	1.238552	-0.430948	0.161325
H95	H	1.312167	-0.703226	0.067168
H96	H	1.066927	-0.300838	-0.530225
H97	H	1.165548	-0.152268	-0.416517
H98	H	1.070568	-0.802535	-0.296324
O99	O	0.826250	-0.051232	-0.052187
C100	C	0.843274	-0.085376	0.033950
H101	H	0.798990	-0.135630	0.067887
H102	H	0.901832	-0.113838	0.045937
H103	H	0.842767	-0.034270	0.057678
O104	O	1.339323	-0.588635	0.107841
C105	C	1.401712	-0.618377	0.081400
H106	H	1.412130	-0.577533	0.012993
H107	H	1.454327	-0.616483	0.120180
H108	H	1.389130	-0.685162	0.089648
O109	O	1.040001	-0.341719	-0.644753
C110	C	1.071739	-0.414240	-0.643874
H111	H	1.135062	-0.402931	-0.656091
H112	H	1.062965	-0.467889	-0.580509
H113	H	1.042856	-0.430545	-0.694310
O114	O	1.124681	-0.214069	-0.448243
C115	C	1.194445	-0.229330	-0.403491
H116	H	1.242455	-0.197123	-0.447877
H117	H	1.193281	-0.204018	-0.353613
H118	H	1.204013	-0.299186	-0.372796
H119	H	1.213628	-0.079873	-0.818870
H120	H	0.443020	0.002799	0.001378
H121	H	1.070726	-0.295154	-0.804190
H122	H	1.252605	-0.021154	-0.773917
O123	O	1.319407	0.079553	-0.712513
C124	C	1.323869	0.086239	-0.794675
H125	H	1.272607	0.052996	-0.809580
H126	H	1.324529	0.154698	-0.839753
H127	H	1.378080	0.056430	-0.801130
H128	H	0.583224	0.026463	0.024921
O129	O	1.339195	0.109541	-0.590666
C130	C	1.296578	0.165658	-0.658384
H131	H	1.233599	0.154898	-0.644049
H132	H	1.313933	0.232195	-0.669271
H133	H	1.307740	0.155260	-0.716589
O134	O	1.124311	-0.446621	-0.215075
C135	C	1.089049	-0.439829	-0.147794
H136	H	1.102070	-0.496833	-0.088132
H137	H	1.111499	-0.381403	-0.141048
H138	H	1.025066	-0.435759	-0.159795
O139	O	0.945225	-0.240403	-0.241098
C140	C	0.936072	-0.207442	-0.328417
H141	H	0.905527	-0.145904	-0.351113
H142	H	0.994142	-0.196565	-0.357922
H143	H	0.901147	-0.253203	-0.346826
H144	H	0.715084	0.006574	0.005106
O145	O	0.882440	-0.084878	-0.086200
C146	C	0.926250	-0.014837	-0.136587
H147	H	0.912037	0.000896	-0.204903
H148	H	0.913044	0.040390	-0.121924
H149	H	0.989093	-0.029157	-0.123679
H150	H	0.664588	-0.239106	-0.239524
O151	O	0.553454	-0.181397	-0.182216
C152	C	0.536410	-0.147230	-0.268349
H153	H	0.590268	-0.142684	-0.303898
H154	H	0.492544	-0.188887	-0.282782
H155	H	0.512635	-0.082493	-0.288018
H156	H	1.066737	-0.528597	-0.301926
H157	H	1.046897	-0.650394	-0.331835
H158	H	1.213523	-0.817044	-0.081271
O159	O	1.254706	-0.785200	-0.019502
C160	C	1.333176	-0.796362	-0.021791
H161	H	1.366164	-0.744015	-0.012239
H162	H	1.349465	-0.858709	0.029734
H163	H	1.347351	-0.795388	-0.084715
