data_functionalizedCrystal
_audit_creation_method	'MofGen! by Chris Wilmer'
_symmetry_space_group_name_H-M	'P1'
_symmetry_Int_Tables_number	1
_symmetry_cell_setting	triclinic
loop_
_symmetry_equiv_pos_as_xyz
  x,y,z
_cell_length_a	10.654556
_cell_length_b	10.723024
_cell_length_c	9.130313
_cell_angle_alpha	89.996649
_cell_angle_beta	89.998135
_cell_angle_gamma	84.477703
loop_
_atom_site_label
_atom_site_type_symbol
_atom_site_fract_x
_atom_site_fract_y
_atom_site_fract_z
O1	O	1.667808	0.175313	-0.121740
O2	O	1.302328	0.192003	-0.121755
O3	O	1.493499	0.002083	-0.121742
O4	O	1.476638	0.365233	-0.121753
O5	O	1.493486	0.002078	0.121857
O6	O	1.302315	0.191998	0.121844
O7	O	1.667795	0.175307	0.121859
Cu8	Cu	1.485054	0.183652	0.144094
Cu9	Cu	1.485070	0.183659	-0.143990
O10	O	1.476625	0.365227	0.121846
C11	C	1.255524	0.190773	0.000043
C12	C	1.116082	0.187102	0.000037
C13	C	0.919544	0.181935	-0.132737
C14	C	1.050566	0.185378	-0.132746
C15	C	1.050570	0.185371	0.132839
C16	C	0.919552	0.181920	0.132846
C17	C	1.492265	-0.044419	0.000056
C18	C	1.488594	-0.182974	0.000051
C19	C	1.595563	-0.257938	0.000053
C20	C	1.591771	-0.401142	0.000048
C21	C	1.714599	0.176537	0.000058
C22	C	1.854042	0.180209	0.000054
C23	C	1.477858	0.411730	0.000045
C24	C	1.481530	0.550285	0.000041
N25	N	1.485052	0.183647	0.346717
N26	N	1.485081	0.183654	-0.346612
C27	C	1.569731	0.099586	0.423374
C28	C	1.569743	0.099586	0.576711
C29	C	1.400393	0.267719	0.576719
C30	C	1.400376	0.267712	0.423385
H31	H	0.866210	0.180540	-0.240865
H32	H	1.638678	0.031133	0.360954
H33	H	1.103925	0.186767	0.240953
H34	H	1.394207	-0.224812	0.000037
H35	H	1.689950	-0.216100	0.000066
C36	C	1.122617	0.187282	-0.278821
C37	C	1.117917	0.078644	-0.388371
C38	C	1.189966	0.080545	-0.534453
C39	C	1.266715	0.191085	-0.570984
C40	C	1.271418	0.299731	-0.461431
C41	C	1.199369	0.297829	-0.315349
H42	H	1.061100	-0.003191	-0.361331
H43	H	1.186484	0.000118	-0.615552
H44	H	1.320050	0.192492	-0.679123
H45	H	1.328235	0.381566	-0.488471
H46	H	1.202851	0.378257	-0.234251
C47	C	1.715491	-0.488155	0.000050
C48	C	1.810276	-0.481820	-0.126439
C49	C	1.933999	-0.568835	-0.126437
C50	C	1.962938	-0.662187	0.000055
C51	C	1.868150	-0.668526	0.126554
C52	C	1.744427	-0.581510	0.126552
H53	H	1.788856	-0.412712	-0.220085
H54	H	2.004167	-0.564142	-0.220080
H55	H	2.054526	-0.726601	0.000057
H56	H	1.889570	-0.737633	0.220200
H57	H	1.674259	-0.586203	0.220195
H58	H	1.638695	0.031135	0.639122
H59	H	1.389951	-0.385306	0.000049
C60	C	0.847487	0.180022	0.278925
C61	C	0.770747	0.069474	0.315448
C62	C	0.698681	0.067570	0.461519
C63	C	0.703356	0.176213	0.571067
C64	C	0.780099	0.286769	0.534547
C65	C	0.852165	0.288673	0.388476
H66	H	0.767284	-0.010958	0.234352
H67	H	0.641871	-0.014272	0.488552
H68	H	0.650009	0.174803	0.679197
H69	H	0.783562	0.367200	0.615643
H70	H	0.908975	0.370514	0.361442
H71	H	1.331453	0.336165	0.639158
C72	C	1.307224	0.360186	0.339048
C73	C	1.214137	0.452709	0.423371
C74	C	1.120987	0.545174	0.339032
C75	C	1.120924	0.545114	0.170371
C76	C	1.214014	0.452587	0.086039
C77	C	1.307165	0.360123	0.170377
H78	H	1.214181	0.452757	0.548232
H79	H	1.052076	0.613669	0.401461
H80	H	1.051969	0.613562	0.107938
H81	H	1.213971	0.452540	-0.038823
H82	H	1.376076	0.291628	0.107948
