data_functionalizedCrystal
_audit_creation_method	'MofGen! by Chris Wilmer'
_symmetry_space_group_name_H-M	'P1'
_symmetry_Int_Tables_number	1
_symmetry_cell_setting	triclinic
loop_
_symmetry_equiv_pos_as_xyz
  x,y,z
_cell_length_a	17.641079
_cell_length_b	21.295418
_cell_length_c	17.639252
_cell_angle_alpha	78.767217
_cell_angle_beta	92.162086
_cell_angle_gamma	101.154805
loop_
_atom_site_label
_atom_site_type_symbol
_atom_site_fract_x
_atom_site_fract_y
_atom_site_fract_z
Zn1	Zn	-0.215058	-1.075966	0.491031
Zn2	Zn	0.118275	-0.742632	0.824365
Zn3	Zn	0.451608	-0.409299	1.157698
Zn4	Zn	-0.367649	-1.084156	0.389736
Zn5	Zn	-0.034315	-0.750822	0.723069
Zn6	Zn	0.299018	-0.417489	1.056402
Zn7	Zn	-0.240772	-0.954401	0.364002
Zn8	Zn	0.092562	-0.621068	0.697336
Zn9	Zn	0.425895	-0.287735	1.030669
Zn10	Zn	-0.342023	-0.995228	0.516645
Zn11	Zn	-0.008690	-0.661895	0.849979
Zn12	Zn	0.324644	-0.328562	1.183312
O13	O	-0.291375	-1.027438	0.440354
O14	O	0.041958	-0.694104	0.773687
O15	O	0.375291	-0.360771	1.107020
O16	O	-0.235263	-1.165143	0.477644
O17	O	0.098070	-0.831810	0.810977
O18	O	0.431404	-0.498477	1.144311
O19	O	-0.372304	-1.053285	0.280048
O20	O	-0.038970	-0.719951	0.613381
O21	O	0.294363	-0.386618	0.946714
O22	O	-0.131127	-0.950013	0.359364
O23	O	0.202206	-0.616680	0.692697
O24	O	0.535540	-0.283347	1.026031
O25	O	-0.347370	-1.171161	0.403222
O26	O	-0.014037	-0.837827	0.736556
O27	O	0.319296	-0.504494	1.069889
O28	O	-0.112236	-1.039326	0.452692
O29	O	0.221098	-0.705993	0.786025
O30	O	0.554431	-0.372659	1.119358
O31	O	-0.279088	-0.957955	0.261142
O32	O	0.054246	-0.624621	0.594475
O33	O	0.387579	-0.291288	0.927808
O34	O	-0.254240	-0.871726	0.384201
O35	O	0.079094	-0.538392	0.717534
O36	O	0.412427	-0.205059	1.050868
O37	O	-0.303695	-1.019597	0.619522
O38	O	0.029638	-0.686263	0.952855
O39	O	0.362971	-0.352930	1.286189
O40	O	-0.328629	-0.901721	0.496347
O41	O	0.004705	-0.568388	0.829681
O42	O	0.338038	-0.235054	1.163014
O43	O	-0.210415	-1.078914	0.600703
O44	O	0.122918	-0.745581	0.934037
O45	O	0.456252	-0.412247	1.267370
O46	O	-0.470483	-1.092873	0.428059
O47	O	-0.137150	-0.759540	0.761393
O48	O	0.196184	-0.426206	1.094726
O49	O	-0.451656	-1.027538	0.521300
O50	O	-0.118323	-0.694205	0.854633
O51	O	0.215011	-0.360872	1.187966
C52	C	-0.291444	-0.863882	0.440262
C53	C	0.041889	-0.530549	0.773595
C54	C	0.375223	-0.197216	1.106928
C55	C	-0.291488	-0.793918	0.440244
C56	C	0.041845	-0.460585	0.773578
C57	C	0.375178	-0.127252	1.106911
C58	C	-0.330304	-0.776690	0.498577
C59	C	0.003030	-0.443357	0.831910
C60	C	0.336363	-0.110023	1.165243
C61	C	-0.330283	-0.710948	0.498602
C62	C	0.003051	-0.377615	0.831935
C63	C	0.336384	-0.044281	1.165269
C64	C	-0.291457	-0.662437	0.440283
C65	C	0.041877	-0.329104	0.773616
C66	C	0.375210	0.004230	1.106949
C67	C	-0.252632	-0.679671	0.381945
C68	C	0.080701	-0.346338	0.715278
C69	C	0.414034	-0.013005	1.048612
C70	C	-0.252648	-0.745412	0.381926
C71	C	0.080685	-0.412079	0.715259
C72	C	0.414019	-0.078745	1.048592
N73	N	-0.298946	-0.549490	0.372647
N74	N	0.034388	-0.216157	0.705980
N75	N	0.367721	0.117177	1.039313
N76	N	-0.298935	-0.487040	0.372668
N77	N	0.034399	-0.153707	0.706001
N78	N	0.367732	0.179627	1.039335
C79	C	-0.291405	-0.464363	0.440338
C80	C	0.041928	-0.131030	0.773672
C81	C	0.375261	0.202304	1.107005
N82	N	-0.283902	-0.506498	0.507991
N83	N	0.049431	-0.173165	0.841324
N84	N	0.382765	0.160169	1.174658
N85	N	-0.283917	-0.568954	0.507970
N86	N	0.049416	-0.235621	0.841303
N87	N	0.382749	0.097712	1.174636
C88	C	-0.291435	-0.591151	0.440298
C89	C	0.041899	-0.257817	0.773631
C90	C	0.375232	0.075516	1.106964
C91	C	-0.330200	-0.375851	0.498703
C92	C	0.003134	-0.042517	0.832036
C93	C	0.336467	0.290816	1.165370
C94	C	-0.330173	-0.310107	0.498728
C95	C	0.003160	0.023226	0.832062
C96	C	0.336494	0.356560	1.165395
C97	C	-0.252528	-0.278831	0.382066
C98	C	0.080805	0.054502	0.715399
C99	C	0.414138	0.387835	1.048732
C100	C	-0.252550	-0.344574	0.382046
C101	C	0.080784	-0.011241	0.715379
C102	C	0.414117	0.322093	1.048713
C103	C	-0.291390	-0.393080	0.440364
C104	C	0.041944	-0.059747	0.773698
C105	C	0.375277	0.273586	1.107031
C106	C	-0.488611	-1.065544	0.480268
C107	C	-0.155278	-0.732211	0.813601
C108	C	0.178055	-0.398877	1.146935
C109	C	-0.572985	-1.081907	0.497369
C110	C	-0.239651	-0.748573	0.830702
C111	C	0.093682	-0.415240	1.164036
C112	C	-0.681999	-1.151425	0.570085
C113	C	-0.348666	-0.818092	0.903419
C114	C	-0.015333	-0.484758	1.236752
C115	C	-0.602719	-1.136044	0.554011
C116	C	-0.269386	-0.802711	0.887344
C117	C	0.063947	-0.469378	1.220677
C118	C	-0.622525	-1.043126	0.456782
C119	C	-0.289192	-0.709793	0.790116
C120	C	0.044142	-0.376460	1.123449
C121	C	-0.701808	-1.058497	0.472851
C122	C	-0.368475	-0.725164	0.806185
C123	C	-0.035141	-0.391831	1.139518
C124	C	-0.731539	-1.112648	0.529503
C125	C	-0.398205	-0.779314	0.862837
C126	C	-0.064872	-0.445981	1.196170
C127	C	-0.751347	-1.019720	0.432269
C128	C	-0.418014	-0.686387	0.765603
C129	C	-0.084681	-0.353053	1.098936
C130	C	-0.830624	-1.035092	0.448335
C131	C	-0.497291	-0.701759	0.781668
C132	C	-0.163957	-0.368425	1.115001
C133	C	-0.860361	-1.089241	0.504982
C134	C	-0.527028	-0.755908	0.838316
C135	C	-0.193695	-0.422575	1.171649
C136	C	-0.810815	-1.128020	0.545569
C137	C	-0.477482	-0.794686	0.878902
C138	C	-0.144149	-0.461353	1.212235
C139	C	-0.721616	-0.965572	0.375614
C140	C	-0.388283	-0.632239	0.708947
C141	C	-0.054949	-0.298906	1.042281
C142	C	-0.771155	-0.926795	0.335032
C143	C	-0.437822	-0.593462	0.668365
C144	C	-0.104489	-0.260128	1.001699
C145	C	-0.850433	-0.942164	0.351101
C146	C	-0.517099	-0.608831	0.684434
C147	C	-0.183766	-0.275497	1.017768
C148	C	-0.880170	-0.996313	0.407748
C149	C	-0.546837	-0.662980	0.741082
C150	C	-0.213503	-0.329647	1.074415
C151	C	-0.899979	-0.903385	0.310514
C152	C	-0.566645	-0.570052	0.643848
C153	C	-0.233312	-0.236719	0.977181
C154	C	-0.979255	-0.918757	0.326580
C155	C	-0.645922	-0.585424	0.659913
C156	C	-0.312589	-0.252091	0.993247
C157	C	-0.959447	-1.011685	0.423814
C158	C	-0.626113	-0.678352	0.757147
C159	C	-0.292780	-0.345019	1.090480
C160	C	-0.093366	-0.989202	0.400300
C161	C	0.239967	-0.655869	0.733633
C162	C	0.573301	-0.322535	1.066967
C163	C	-0.008986	-0.972908	0.383232
C164	C	0.324347	-0.639575	0.716565
C165	C	0.657681	-0.306241	1.049898
C166	C	-0.251328	-1.052896	0.638439
C167	C	0.082005	-0.719563	0.971772
C168	C	0.415338	-0.386229	1.305105
C169	C	-0.234263	-1.063745	0.722851
C170	C	0.099071	-0.730412	1.056184
C171	C	0.432404	-0.397078	1.389517
C172	C	-0.291324	-0.191631	0.440427
C173	C	0.042009	0.141702	0.773761
C174	C	0.375343	0.475035	1.107094
C175	C	-0.291346	-0.261600	0.440409
C176	C	0.041988	0.071733	0.773743
C177	C	0.375321	0.405066	1.107076
C178	C	-0.420973	-0.945034	1.049462
C179	C	-0.087640	-0.611700	1.382795
C180	C	0.245693	-0.278367	1.716129
C181	C	-0.404928	-0.955239	1.128778
C182	C	-0.071594	-0.621906	1.462111
C183	C	0.261739	-0.288573	1.795445
C184	C	-0.307803	-1.017001	1.109173
C185	C	0.025530	-0.683668	1.442507
C186	C	0.358864	-0.350335	1.775840
C187	C	-0.323838	-1.006798	1.029854
C188	C	0.009496	-0.673465	1.363187
C189	C	0.342829	-0.340131	1.696520
C190	C	-0.380424	-0.970815	1.000005
C191	C	-0.047091	-0.637481	1.333338
C192	C	0.286242	-0.304148	1.666671
C193	C	-0.283289	-1.032579	0.980396
C194	C	0.050045	-0.699246	1.313730
C195	C	0.383378	-0.365912	1.647063
C196	C	-0.299325	-1.022379	0.901084
C197	C	0.034008	-0.689046	1.234417
C198	C	0.367341	-0.355713	1.567751
C199	C	-0.355911	-0.986399	0.871229
C200	C	-0.022577	-0.653066	1.204562
C201	C	0.310756	-0.319733	1.537896
C202	C	-0.396461	-0.960615	0.920692
C203	C	-0.063127	-0.627282	1.254026
C204	C	0.270206	-0.293948	1.587359
C205	C	-0.226706	-1.068566	1.010247
C206	C	0.106627	-0.735233	1.343581
C207	C	0.439960	-0.401900	1.676914
C208	C	-0.186157	-1.094347	0.960790
C209	C	0.147176	-0.761014	1.294123
C210	C	0.480509	-0.427680	1.627457
C211	C	-0.202190	-1.084144	0.881475
C212	C	0.131144	-0.750811	1.214809
C213	C	0.464477	-0.417477	1.548142
C214	C	-0.258775	-1.048164	0.851621
C215	C	0.074558	-0.714830	1.184954
C216	C	0.407891	-0.381497	1.518287
C217	C	-0.161640	-1.109928	0.832012
C218	C	0.171694	-0.776595	1.165345
C219	C	0.505027	-0.443261	1.498679
C220	C	-0.177676	-1.099728	0.752700
C221	C	0.155657	-0.766395	1.086033
C222	C	0.488990	-0.433062	1.419366
C223	C	-0.274812	-1.037964	0.772308
C224	C	0.058522	-0.704631	1.105642
C225	C	0.391855	-0.371297	1.438975
C226	C	-0.331285	-1.002074	1.243043
C227	C	0.002048	-0.668741	1.576376
C228	C	0.335381	-0.335407	1.909709
C229	C	-0.348355	-0.991217	1.158632
C230	C	-0.015022	-0.657884	1.491965
C231	C	0.318311	-0.324551	1.825298
H232	H	-0.220911	-0.239334	0.334584
H233	H	0.112422	0.094000	0.667917
H234	H	0.445756	0.427333	1.001251
H235	H	-0.220946	-0.358600	0.334542
H236	H	0.112387	-0.025267	0.667876
H237	H	0.445720	0.308066	1.001209
H238	H	-0.835020	-1.172104	0.591715
H239	H	-0.501687	-0.838771	0.925048
H240	H	-0.168354	-0.505438	1.258382
Cl241	Cl	-0.378969	-0.288449	0.572071
Cl242	Cl	-0.045636	0.044884	0.905405
Cl243	Cl	0.287697	0.378218	1.238738
H244	H	-0.221038	-0.759437	0.334424
H245	H	0.112296	-0.426103	0.667757
H246	H	0.445629	-0.092770	1.001091
Cl247	Cl	-0.455908	-0.922822	1.190952
Cl248	Cl	-0.122575	-0.589489	1.524285
Cl249	Cl	0.210758	-0.256156	1.857618
Cl250	Cl	-0.379020	-0.436833	0.572019
Cl251	Cl	-0.045687	-0.103499	0.905353
Cl252	Cl	0.287646	0.229834	1.238686
Cl253	Cl	-0.540443	-1.184802	0.605032
Cl254	Cl	-0.207109	-0.851468	0.938365
Cl255	Cl	0.126224	-0.518135	1.271699
Cl256	Cl	-0.719381	-1.219500	0.641308
Cl257	Cl	-0.386048	-0.886167	0.974642
Cl258	Cl	-0.052714	-0.552833	1.307975
H259	H	-0.983652	-1.055770	0.469960
H260	H	-0.650318	-0.722436	0.803294
H261	H	-0.316985	-0.389103	1.136627
Cl262	Cl	-0.960058	-1.108684	0.525014
Cl263	Cl	-0.626724	-0.775351	0.858347
Cl264	Cl	-0.293391	-0.442017	1.191681
Cl265	Cl	-0.585141	-0.975055	0.385565
Cl266	Cl	-0.251808	-0.641721	0.718898
Cl267	Cl	0.081525	-0.308388	1.052231
Cl268	Cl	-0.621950	-0.946241	0.355427
Cl269	Cl	-0.288617	-0.612908	0.688761
Cl270	Cl	0.044716	-0.279574	1.022094
H271	H	-0.746940	-0.882707	0.288904
H272	H	-0.413606	-0.549373	0.622237
H273	H	-0.080273	-0.216040	0.955570
H274	H	-0.875762	-0.859300	0.264383
H275	H	-0.542429	-0.525966	0.597717
H276	H	-0.209096	-0.192633	0.931050
Cl277	Cl	-1.041538	-0.870011	0.275559
Cl278	Cl	-0.708205	-0.536677	0.608892
Cl279	Cl	-0.374871	-0.203344	0.942225
H280	H	-0.320872	-1.008644	0.748000
H281	H	0.012461	-0.675311	1.081334
H282	H	0.345795	-0.341977	1.414667
H283	H	-0.467033	-0.915714	1.025154
H284	H	-0.133700	-0.582380	1.358487
H285	H	0.199633	-0.249047	1.691821
Cl286	Cl	-0.376076	-0.973580	0.771522
Cl287	Cl	-0.042743	-0.640247	1.104855
Cl288	Cl	0.290590	-0.306913	1.438188
Cl289	Cl	-0.467593	-0.915371	0.883161
Cl290	Cl	-0.134259	-0.582038	1.216494
Cl291	Cl	0.199074	-0.248704	1.549827
Cl292	Cl	-0.236670	-1.062238	1.146706
Cl293	Cl	0.096663	-0.728905	1.480040
Cl294	Cl	0.429996	-0.395571	1.813373
Cl295	Cl	-0.379083	-0.689282	0.571940
Cl296	Cl	-0.045750	-0.355949	0.905273
Cl297	Cl	0.287583	-0.022615	1.238606
Cl298	Cl	-0.379127	-0.837666	0.571894
Cl299	Cl	-0.045794	-0.504332	0.905227
Cl300	Cl	0.287540	-0.170999	1.238561
Cl301	Cl	-0.115025	-1.139584	0.998323
Cl302	Cl	0.218309	-0.806250	1.331656
Cl303	Cl	0.551642	-0.472917	1.664989
H304	H	-0.213653	-1.076871	1.074830
H305	H	0.119680	-0.743538	1.408163
H306	H	0.453013	-0.410205	1.741496
Cl307	Cl	-0.090514	-1.155171	0.869548
Cl308	Cl	0.242819	-0.821838	1.202882
Cl309	Cl	0.576153	-0.488504	1.536215
H310	H	-0.221018	-0.640169	0.334462
H311	H	0.112315	-0.306836	0.667796
H312	H	0.445648	0.026498	1.001129
Cl313	Cl	-0.126702	-1.132142	0.690521
Cl314	Cl	0.206631	-0.798808	1.023855
Cl315	Cl	0.539964	-0.465475	1.357188
