data_functionalizedCrystal
_audit_creation_method	'MofGen! by Chris Wilmer'
_symmetry_space_group_name_H-M	'P1'
_symmetry_Int_Tables_number	1
_symmetry_cell_setting	triclinic
loop_
_symmetry_equiv_pos_as_xyz
  x,y,z
_cell_length_a	16.625548
_cell_length_b	16.120484
_cell_length_c	16.625539
_cell_angle_alpha	92.868615
_cell_angle_beta	89.979432
_cell_angle_gamma	92.926626
loop_
_atom_site_label
_atom_site_type_symbol
_atom_site_fract_x
_atom_site_fract_y
_atom_site_fract_z
Zn1	Zn	1.216388	-0.331882	-0.472167
Zn2	Zn	1.549721	0.001451	-0.138834
Zn3	Zn	1.883055	0.334784	0.194500
Zn4	Zn	1.209447	-0.471307	-0.344164
Zn5	Zn	1.542780	-0.137974	-0.010831
Zn6	Zn	1.876113	0.195360	0.322503
Zn7	Zn	1.081548	-0.331914	-0.337349
Zn8	Zn	1.414882	0.001419	-0.004016
Zn9	Zn	1.748215	0.334752	0.329318
Zn10	Zn	1.074678	-0.471259	-0.478951
Zn11	Zn	1.408011	-0.137926	-0.145618
Zn12	Zn	1.741345	0.195408	0.187715
O13	O	1.145515	-0.401591	-0.408158
O14	O	1.478849	-0.068257	-0.074824
O15	O	1.812182	0.265076	0.258509
O16	O	1.328299	-0.350384	-0.455200
O17	O	1.661633	-0.017051	-0.121866
O18	O	1.994966	0.316283	0.211467
O19	O	1.192451	-0.452849	-0.230429
O20	O	1.525784	-0.119516	0.102904
O21	O	1.859118	0.213817	0.436238
O22	O	1.105215	-0.215244	-0.349541
O23	O	1.438548	0.118089	-0.016208
O24	O	1.771882	0.451423	0.317125
O25	O	1.323200	-0.452819	-0.361156
O26	O	1.656533	-0.119485	-0.027823
O27	O	1.989866	0.213848	0.305510
O28	O	1.204281	-0.215221	-0.448592
O29	O	1.537615	0.118113	-0.115258
O30	O	1.870948	0.451446	0.218075
O31	O	1.098484	-0.350438	-0.225422
O32	O	1.431818	-0.017105	0.107911
O33	O	1.765151	0.316228	0.441245
O34	O	0.967805	-0.350392	-0.356120
O35	O	1.301138	-0.017059	-0.022787
O36	O	1.634472	0.316275	0.310547
O37	O	1.093506	-0.452737	-0.590882
O38	O	1.426839	-0.119404	-0.257549
O39	O	1.760173	0.213930	0.075784
O40	O	0.962757	-0.452768	-0.460155
O41	O	1.296091	-0.119435	-0.126821
O42	O	1.629424	0.213899	0.206512
O43	O	1.197620	-0.350338	-0.585898
O44	O	1.530953	-0.017004	-0.252564
O45	O	1.864286	0.316329	0.080769
O46	O	1.185789	-0.587966	-0.367735
O47	O	1.519123	-0.254633	-0.034402
O48	O	1.852456	0.078700	0.298932
O49	O	1.086775	-0.587931	-0.466763
O50	O	1.420109	-0.254598	-0.133430
O51	O	1.753442	0.078735	0.199904
C52	C	0.936025	-0.401579	-0.408135
C53	C	1.269358	-0.068245	-0.074801
C54	C	1.602692	0.265088	0.258532
C55	C	0.846403	-0.401594	-0.408145
C56	C	1.179736	-0.068260	-0.074812
C57	C	1.513070	0.265073	0.258522
C58	C	1.134805	-0.618199	-0.418742
C59	C	1.468139	-0.284866	-0.085409
C60	C	1.801472	0.048468	0.247924
C61	C	1.130297	-0.710865	-0.423297
C62	C	1.463631	-0.377532	-0.089964
C63	C	1.796964	-0.044198	0.243369
C64	C	0.518227	-0.401599	-0.408180
C65	C	0.851561	-0.068266	-0.074846
C66	C	1.184894	0.265067	0.258487
C67	C	0.609536	-0.401595	-0.408167
C68	C	0.942869	-0.068262	-0.074834
C69	C	1.276203	0.265071	0.258499
C70	C	0.682312	-0.401597	-0.408162
C71	C	1.015646	-0.068264	-0.074828
C72	C	1.348979	0.265070	0.258505
C73	C	0.773627	-0.401592	-0.408150
C74	C	1.106960	-0.068259	-0.074817
C75	C	1.440293	0.265074	0.258516
C76	C	1.122072	-0.880527	-0.431630
C77	C	1.455405	-0.547193	-0.098297
C78	C	1.788738	-0.213860	0.235036
C79	C	1.169103	-0.921814	-0.384698
C80	C	1.502437	-0.588481	-0.051365
C81	C	1.835770	-0.255147	0.281968
C82	C	1.164526	-1.016220	-0.389335
C83	C	1.497860	-0.682886	-0.056001
C84	C	1.831193	-0.349553	0.277332
C85	C	1.126648	-0.786113	-0.426995
C86	C	1.459981	-0.452779	-0.093662
C87	C	1.793314	-0.119446	0.239672
C88	C	1.355823	-0.401603	-0.408181
C89	C	1.689157	-0.068270	-0.074848
C90	C	2.022490	0.265063	0.258485
C91	C	1.445444	-0.401609	-0.408192
C92	C	1.778778	-0.068275	-0.074858
C93	C	2.112111	0.265058	0.258475
C94	C	1.145571	-0.401529	-0.618464
C95	C	1.478904	-0.068195	-0.285130
C96	C	1.812237	0.265138	0.048203
C97	C	1.145594	-0.401502	-0.708084
C98	C	1.478928	-0.068169	-0.374750
C99	C	1.812261	0.265165	-0.041417
C100	C	1.156289	-0.184136	-0.397549
C101	C	1.489622	0.149197	-0.064216
C102	C	1.822956	0.482530	0.269117
C103	C	1.160880	-0.091470	-0.393029
C104	C	1.494213	0.241863	-0.059696
C105	C	1.827547	0.575196	0.273638
C106	C	1.145636	-0.401409	-1.036255
C107	C	1.478969	-0.068075	-0.702922
C108	C	1.812303	0.265258	-0.369588
C109	C	1.145622	-0.401437	-0.944948
C110	C	1.478955	-0.068104	-0.611614
C111	C	1.812289	0.265229	-0.278281
C112	C	1.145616	-0.401456	-0.872172
C113	C	1.478949	-0.068123	-0.538839
C114	C	1.812282	0.265211	-0.205506
C115	C	1.145601	-0.401483	-0.780859
C116	C	1.478934	-0.068150	-0.447526
C117	C	1.812268	0.265183	-0.114193
C118	C	1.145509	-0.401592	-0.198667
C119	C	1.478843	-0.068259	0.134666
C120	C	1.812176	0.265074	0.468000
C121	C	1.145653	-0.401384	-0.109036
C122	C	1.478987	-0.068051	0.224297
C123	C	1.812320	0.265283	0.557631
H124	H	1.078373	-0.916078	-0.475288
H125	H	1.411706	-0.582745	-0.141955
H126	H	1.745039	-0.249412	0.191378
H127	H	1.212805	-0.886260	-0.341036
H128	H	1.546138	-0.552927	-0.007702
H129	H	1.879471	-0.219593	0.325631
