data_functionalizedCrystal
_audit_creation_method	'MofGen! by Chris Wilmer'
_symmetry_space_group_name_H-M	'P1'
_symmetry_Int_Tables_number	1
_symmetry_cell_setting	triclinic
loop_
_symmetry_equiv_pos_as_xyz
  x,y,z
_cell_length_a	19.077212
_cell_length_b	12.759394
_cell_length_c	19.077174
_cell_angle_alpha	92.276241
_cell_angle_beta	85.292016
_cell_angle_gamma	92.306132
loop_
_atom_site_label
_atom_site_type_symbol
_atom_site_fract_x
_atom_site_fract_y
_atom_site_fract_z
Zn1	Zn	1.093791	-0.379354	-0.442036
Zn2	Zn	1.593791	0.120646	0.057964
Zn3	Zn	1.088997	-0.548268	-0.324156
Zn4	Zn	1.588997	-0.048268	0.175844
Zn5	Zn	0.971172	-0.379368	-0.319414
Zn6	Zn	1.471172	0.120632	0.180586
Zn7	Zn	0.975889	-0.561759	-0.437256
Zn8	Zn	1.475889	-0.061759	0.062744
O9	O	1.032462	-0.467187	-0.380715
O10	O	1.532462	0.032813	0.119285
O11	O	1.191808	-0.396109	-0.430384
O12	O	1.691808	0.103891	0.069616
O13	O	1.069387	-0.520222	-0.224876
O14	O	1.569387	-0.020222	0.275124
O15	O	0.987469	-0.232344	-0.335696
O16	O	1.487469	0.267656	0.164304
O17	O	1.188286	-0.520209	-0.343778
O18	O	1.688286	-0.020209	0.156222
O19	O	1.077557	-0.232334	-0.425786
O20	O	1.577557	0.267666	0.074214
O21	O	0.982821	-0.396132	-0.221392
O22	O	1.482821	0.103868	0.278608
O23	O	0.873145	-0.409214	-0.331061
O24	O	1.373145	0.090786	0.168939
O25	O	0.995509	-0.543203	-0.536541
O26	O	1.495509	-0.043203	-0.036541
O27	O	0.876611	-0.543216	-0.417640
O28	O	1.376611	-0.043216	0.082360
O29	O	1.082131	-0.409191	-0.540052
O30	O	1.582131	0.090809	-0.040052
O31	O	1.073961	-0.697079	-0.339143
O32	O	1.573961	-0.197079	0.160857
O33	O	0.990861	-0.706991	-0.422237
O34	O	1.490861	-0.206991	0.077763
C35	C	0.849298	-0.477681	-0.373318
C36	C	1.349298	0.022319	0.126682
C37	C	0.770940	-0.482197	-0.370169
C38	C	1.270940	0.017803	0.129831
C39	C	0.329673	-0.514542	-0.347623
C40	C	0.829673	-0.014542	0.152377
C41	C	0.403298	-0.510293	-0.350576
C42	C	0.903298	-0.010293	0.149424
C43	C	0.441949	-0.443670	-0.397217
C44	C	0.941949	0.056330	0.102783
C45	C	0.406971	-0.381285	-0.440903
C46	C	0.906971	0.118715	0.059097
C47	C	0.333347	-0.385529	-0.437946
C48	C	0.833347	0.114471	0.062054
C49	C	0.662339	-0.424056	-0.410899
C50	C	1.162339	0.075944	0.089101
C51	C	0.735968	-0.419819	-0.413854
C52	C	1.235968	0.080181	0.086146
C53	C	0.732289	-0.548826	-0.323525
C54	C	1.232289	-0.048826	0.176475
C55	C	0.658664	-0.553069	-0.320576
C56	C	1.158664	-0.053069	0.179424
C57	C	0.623692	-0.490679	-0.364259
C58	C	1.123692	0.009321	0.135741
N59	N	0.517206	-0.439328	-0.400238
N60	N	1.017206	0.060672	0.099762
N61	N	0.548437	-0.495017	-0.361235
N62	N	1.048437	0.004983	0.138765
C63	C	1.032423	-0.740156	-0.380702
C64	C	1.532423	-0.240156	0.119298
C65	C	1.032471	-0.856931	-0.380723
C66	C	1.532471	-0.356931	0.119277
C67	C	1.126215	-0.856770	-0.474598
C68	C	1.626215	-0.356770	0.025402
C69	C	1.173109	-0.911550	-0.521542
C70	C	1.673109	-0.411550	-0.021542
C71	C	1.173151	-1.021270	-0.521559
C72	C	1.673151	-0.521270	-0.021559
C73	C	1.126293	-1.076213	-0.474628
C74	C	1.626293	-0.576213	0.025372
C75	C	1.079399	-1.021434	-0.427684
C76	C	1.579399	-0.521434	0.072316
C77	C	1.079363	-0.911711	-0.427671
C78	C	1.579363	-0.411711	0.072329
C79	C	0.985653	-1.021595	-0.333814
C80	C	1.485653	-0.521595	0.166186
C81	C	0.985613	-0.911874	-0.333792
C82	C	1.485613	-0.411874	0.166208
C83	C	0.938795	-1.076538	-0.286883
C84	C	1.438795	-0.576538	0.213117
C85	C	0.891903	-1.021758	-0.239934
C86	C	1.391903	-0.521758	0.260066
C87	C	0.891863	-0.912032	-0.239919
C88	C	1.391863	-0.412032	0.260081
C89	C	0.938719	-0.857095	-0.286848
C90	C	1.438719	-0.357095	0.213152
C91	C	1.216342	-0.456653	-0.388143
C92	C	1.716342	0.043347	0.111857
C93	C	1.294700	-0.452163	-0.391308
C94	C	1.794700	0.047837	0.108692
C95	C	1.039881	-0.477700	-0.564591
C96	C	1.539881	0.022300	-0.064591
C97	C	1.043043	-0.482180	-0.642948
C98	C	1.543043	0.017820	-0.142948
C99	C	1.032522	-0.193152	-0.380745
C100	C	1.532522	0.306848	0.119255
C101	C	1.032547	-0.076374	-0.380757
C102	C	1.532547	0.423626	0.119243
C103	C	0.999460	-0.419679	-0.677946
C104	C	1.499460	0.080321	-0.177946
C105	C	1.002428	-0.423898	-0.751570
C106	C	1.502428	0.076102	-0.251570
C107	C	1.048983	-0.490612	-0.790195
C108	C	1.548983	0.009388	-0.290195
C109	C	1.092567	-0.553120	-0.755192
C110	C	1.592567	-0.053120	-0.255192
C111	C	1.089595	-0.548907	-0.681569
C112	C	1.589595	-0.048907	-0.181569
C113	C	1.062700	-0.510147	-1.010580
C114	C	1.562700	-0.010147	-0.510580
C115	C	1.065671	-0.514354	-1.084208
C116	C	1.565671	-0.014354	-0.584208
C117	C	0.975530	-0.385132	-1.080581
C118	C	1.475530	0.114868	-0.580581
C119	C	0.972565	-0.380920	-1.006956
C120	C	1.472565	0.119080	-0.506956
C121	C	1.016147	-0.443432	-0.971960
C122	C	1.516147	0.056568	-0.471960
N123	N	1.052019	-0.494923	-0.865451
N124	N	1.552019	0.005077	-0.365451
N125	N	1.013107	-0.439125	-0.896705
N126	N	1.513107	0.060875	-0.396705
C127	C	1.025113	-0.456637	-0.197557
C128	C	1.525113	0.043363	0.302443
C129	C	1.022088	-0.451853	-0.119206
C130	C	1.522088	0.048147	0.380794
H131	H	0.633874	-0.373259	-0.446473
H132	H	1.133874	0.126741	0.053527
H133	H	0.767436	-0.365559	-0.451833
H134	H	1.267436	0.134441	0.048167
H135	H	0.934653	-0.326596	-0.975512
H136	H	1.434653	0.173404	-0.475512
O137	O	1.137866	-0.617776	-0.792746
O138	O	1.637866	-0.117776	-0.292746
C139	C	1.185121	-0.557792	-0.837191
C140	C	1.685121	-0.057792	-0.337191
H141	H	1.188600	-0.473526	-0.815189
H142	H	1.688600	0.026474	-0.315189
H143	H	1.239400	-0.592733	-0.840212
H144	H	1.739400	-0.092733	-0.340212
H145	H	1.165577	-0.558612	-0.892109
H146	H	1.665577	-0.058612	-0.392109
O147	O	1.126119	-0.750199	-0.474689
O148	O	1.626119	-0.250199	0.025311
C149	C	1.110701	-0.718425	-0.541507
C150	C	1.610701	-0.218425	-0.041507
H151	H	1.081144	-0.785102	-0.569400
H152	H	1.581144	-0.285102	-0.069400
H153	H	1.076671	-0.646711	-0.535059
H154	H	1.576671	-0.146711	-0.035059
H155	H	1.161818	-0.697768	-0.574093
H156	H	1.661818	-0.197768	-0.074093
O157	O	1.132001	-0.609658	-0.647681
O158	O	1.632001	-0.109658	-0.147681
C159	C	1.173716	-0.669467	-0.697558
C160	C	1.673716	-0.169467	-0.197558
H161	H	1.178291	-0.629294	-0.750142
H162	H	1.678291	-0.129294	-0.250142
H163	H	1.228397	-0.676286	-0.678524
H164	H	1.728397	-0.176286	-0.178524
H165	H	1.148193	-0.751184	-0.704339
H166	H	1.648193	-0.251184	-0.204339
H167	H	0.298208	-0.568799	-0.309647
H168	H	0.798208	-0.068799	0.190353
H169	H	0.304874	-0.334730	-0.473516
H170	H	0.804874	0.165270	0.026484
H171	H	0.938830	-1.165878	-0.286903
H172	H	1.438830	-0.665878	0.213097
H173	H	0.438447	-0.327035	-0.478876
H174	H	0.938447	0.172965	0.021124
O175	O	0.766151	-0.609526	-0.281064
O176	O	1.266151	-0.109526	0.218936
C177	C	0.716248	-0.669217	-0.239251
C178	C	1.216248	-0.169217	0.260749
H179	H	0.664938	-0.677597	-0.266015
H180	H	1.164938	-0.177597	0.233985
H181	H	0.737204	-0.750316	-0.232487
H182	H	1.237204	-0.250316	0.267513
H183	H	0.706249	-0.628007	-0.185441
H184	H	1.206249	-0.128007	0.314559
O185	O	0.846456	-1.075288	-0.194377
O186	O	1.346456	-0.575288	0.305623
C187	C	0.856532	-1.183878	-0.204477
C188	C	1.356532	-0.683878	0.295523
H189	H	0.911859	-1.196987	-0.229805
H190	H	1.411859	-0.696987	0.270195
H191	H	0.849673	-1.222871	-0.151486
H192	H	1.349673	-0.722871	0.348514
H193	H	0.816213	-1.219582	-0.240304
H194	H	1.316213	-0.719582	0.259696
H195	H	1.126326	-1.165554	-0.474652
H196	H	1.626326	-0.665554	0.025348
O197	O	0.954198	-0.355016	-0.640348
O198	O	1.454198	0.144984	-0.140348
C199	C	0.906922	-0.415008	-0.595929
C200	C	1.406922	0.084992	-0.095929
H201	H	0.931325	-0.492570	-0.585892
H202	H	1.431325	0.007430	-0.085892
H203	H	0.895393	-0.369792	-0.543781
H204	H	1.395393	0.130208	-0.043781
H205	H	0.855822	-0.431170	-0.622192
H206	H	1.355822	0.068830	-0.122192
H207	H	0.938693	-0.767755	-0.286837
H208	H	1.438693	-0.267755	0.213163
O209	O	0.933118	-0.324576	-1.114605
O210	O	1.433118	0.175424	-0.614605
C211	C	0.889303	-0.389438	-1.155358
C212	C	1.389303	0.110562	-0.655358
H213	H	0.884038	-0.471166	-1.132985
H214	H	1.384038	0.028834	-0.632985
H215	H	0.835090	-0.354599	-1.154005
H216	H	1.335090	0.145401	-0.654005
H217	H	0.913350	-0.394999	-1.212036
H218	H	1.413350	0.105001	-0.712036
H219	H	0.431769	-0.561086	-0.315002
H220	H	0.931769	-0.061086	0.184998
H221	H	1.211329	-1.065872	-0.559792
H222	H	1.711329	-0.565872	-0.059792
H223	H	1.211259	-0.866805	-0.559754
H224	H	1.711259	-0.366805	-0.059754
O225	O	0.621096	-0.617908	-0.275367
O226	O	1.121096	-0.117908	0.224633
C227	C	0.580121	-0.690590	-0.313715
C228	C	1.080121	-0.190590	0.186285
H229	H	0.604561	-0.699099	-0.370122
H230	H	1.104561	-0.199099	0.129878
H231	H	0.578247	-0.769971	-0.288093
H232	H	1.078247	-0.269971	0.211907
H233	H	0.524423	-0.661476	-0.313939
H234	H	1.024423	-0.161476	0.186061
O235	O	0.959987	-0.363233	-0.785479
O236	O	1.459987	0.136767	-0.285479
C237	C	0.888996	-0.389207	-0.764651
C238	C	1.388996	0.110793	-0.264651
H239	H	0.885377	-0.426625	-0.711133
H240	H	1.385377	0.073375	-0.211133
H241	H	0.857300	-0.315047	-0.760856
H242	H	1.357300	0.184953	-0.260856
H243	H	0.866903	-0.446948	-0.805119
H244	H	1.366903	0.053052	-0.305119
O245	O	0.846282	-0.858982	-0.194251
O246	O	1.346282	-0.358982	0.305749
C247	C	0.804923	-0.931011	-0.152852
C248	C	1.304923	-0.431011	0.347148
H249	H	0.833733	-1.007394	-0.151609
H250	H	1.333733	-0.507394	0.348391
H251	H	0.795183	-0.896603	-0.096996
H252	H	1.295183	-0.396603	0.403004
H253	H	0.752410	-0.947279	-0.176474
H254	H	1.252410	-0.447279	0.323526
O255	O	1.110913	-0.579258	-1.121622
O256	O	1.610913	-0.079258	-0.621622
C257	C	1.148756	-0.633511	-1.074947
C258	C	1.648756	-0.133511	-0.574947
H259	H	1.117761	-0.635806	-1.021300
H260	H	1.617761	-0.135806	-0.521300
H261	H	1.157114	-0.717073	-1.096518
H262	H	1.657114	-0.217073	-0.596518
H263	H	1.201991	-0.591527	-1.069282
H264	H	1.701991	-0.091527	-0.569282
O265	O	1.104939	-0.570979	-0.976558
O266	O	1.604939	-0.070979	-0.476558
C267	C	1.063075	-0.638691	-0.932330
C268	C	1.563075	-0.138691	-0.432330
H269	H	1.008443	-0.649631	-0.952270
H270	H	1.508443	-0.149631	-0.452270
H271	H	1.088524	-0.718035	-0.932523
H272	H	1.588524	-0.218035	-0.432523
H273	H	1.058406	-0.603162	-0.876436
H274	H	1.558406	-0.103162	-0.376436
