data_functionalizedCrystal
_audit_creation_method	'MofGen! by Chris Wilmer'
_symmetry_space_group_name_H-M	'P1'
_symmetry_Int_Tables_number	1
_symmetry_cell_setting	triclinic
loop_
_symmetry_equiv_pos_as_xyz
  x,y,z
_cell_length_a	10.540539
_cell_length_b	10.540539
_cell_length_c	9.616153
_cell_angle_alpha	90.000094
_cell_angle_beta	89.995174
_cell_angle_gamma	95.474508
loop_
_atom_site_label
_atom_site_type_symbol
_atom_site_fract_x
_atom_site_fract_y
_atom_site_fract_z
O1	O	1.685892	-0.178895	-0.115573
O2	O	1.316479	-0.195751	-0.115589
O3	O	1.509614	-0.002617	-0.115579
O4	O	1.492758	-0.372030	-0.115583
O5	O	1.509587	-0.002621	0.115712
O6	O	1.316452	-0.195755	0.115702
O7	O	1.685865	-0.178899	0.115718
Zn8	Zn	1.501155	-0.187328	0.152433
Zn9	Zn	1.501190	-0.187323	-0.152304
O10	O	1.492731	-0.372034	0.115708
C11	C	1.269163	-0.194489	0.000054
C12	C	1.128215	-0.190707	0.000048
C13	C	0.944788	-0.045790	0.000589
C14	C	1.091406	-0.049624	0.000054
C15	C	1.066557	-0.258600	-0.132027
C16	C	0.920013	-0.253785	-0.132123
C17	C	0.919494	-0.256660	0.130899
C18	C	1.066476	-0.257959	0.132630
C19	C	1.508336	0.044684	0.000064
C20	C	1.504554	0.185632	0.000056
C21	C	1.733182	-0.180161	0.000072
C22	C	1.874130	-0.183943	0.000069
C23	C	1.494008	-0.419335	0.000062
C24	C	1.497790	-0.560283	0.000060
N25	N	1.501140	-0.187331	0.360407
C26	C	1.359637	0.369059	-0.000469
C27	C	1.363471	0.222441	0.000052
C28	C	1.572435	0.247288	0.132138
C29	C	1.567620	0.393832	0.132249
C30	C	1.570519	0.394355	-0.130772
C31	C	1.571819	0.247373	-0.132518
N32	N	1.501215	-0.187310	-0.360278
C33	C	1.397510	-0.290298	0.580772
C34	C	1.397739	-0.290684	0.419604
C35	C	1.633864	-0.217464	0.418862
C36	C	1.633299	-0.218193	0.580080
C37	C	1.473368	-0.053892	0.580319
C38	C	1.470321	-0.054757	0.419092
H39	H	0.891814	-0.203603	-0.230849
N40	N	1.665529	-0.347134	0.629879
H41	H	1.665478	-0.348901	0.734892
H42	H	1.752661	-0.363496	0.594369
H43	H	0.872267	-0.358563	0.131790
N44	N	1.563749	0.051641	0.365743
H45	H	1.516386	0.114750	0.312215
H46	H	1.627634	0.015141	0.302555
H47	H	0.872044	-0.355250	-0.138119
H48	H	1.712941	-0.146204	0.619073
H49	H	1.524869	0.425910	-0.230881
H50	H	1.133162	0.004177	-0.094786
H51	H	1.712918	-0.144501	0.380514
N52	N	1.122955	-0.196109	-0.262230
H53	H	1.082666	-0.240461	-0.346651
H54	H	1.217925	-0.202606	-0.263625
N55	N	1.120711	-0.192270	0.262064
H56	H	1.185005	-0.119251	0.234948
H57	H	1.163724	-0.255184	0.320641
N58	N	1.506116	0.193172	-0.261958
H59	H	1.433085	0.128887	-0.234850
H60	H	1.569010	0.150156	-0.320569
N61	N	1.709671	0.217667	0.138631
H62	H	1.724288	0.169494	0.227089
H63	H	1.767399	0.299837	0.137267
H64	H	1.088911	-0.362208	-0.136942
N65	N	1.708074	0.215301	-0.143088
H66	H	1.728221	0.160051	-0.061721
H67	H	1.767212	0.296536	-0.141951
H68	H	1.090701	-0.360819	0.140603
N69	N	0.877702	-0.196189	0.263514
H70	H	0.828930	-0.121037	0.240122
H71	H	0.955136	-0.166317	0.320819
N72	N	1.501136	0.431185	0.263024
H73	H	1.411729	0.387207	0.265250
H74	H	1.497439	0.526571	0.264330
H75	H	1.310058	0.179839	-0.094630
H76	H	1.672423	0.441581	-0.131656
N77	N	1.666858	-0.344937	0.365366
H78	H	1.596029	-0.383341	0.303280
H79	H	1.677788	-0.403779	0.446480
H80	H	1.299122	-0.272553	0.380085
N81	N	1.266469	-0.266662	0.632177
H82	H	1.201355	-0.333796	0.593137
H83	H	1.245714	-0.179590	0.600722
N84	N	1.285814	0.406941	-0.125926
H85	H	1.341202	0.470277	-0.183639
H86	H	1.207411	0.446973	-0.094295
N87	N	1.147850	0.021163	0.125443
H88	H	1.243417	0.018810	0.125327
H89	H	1.110949	-0.020567	0.212942
N90	N	0.904758	0.027733	-0.124156
H91	H	0.927160	-0.017486	-0.212133
H92	H	0.950584	0.116358	-0.122914
H93	H	1.304122	0.399265	0.093714
N94	N	1.347857	-0.015923	0.634231
H95	H	1.276806	-0.081552	0.604912
H96	H	1.331989	0.069958	0.594809
H97	H	1.372683	-0.031917	0.380887
H98	H	1.309662	0.180683	0.094886
H99	H	1.669084	0.441801	0.138246
N100	N	1.421464	-0.421793	0.368489
H101	H	1.421710	-0.422589	0.263462
H102	H	1.351892	-0.486237	0.403894
H103	H	0.916192	0.009944	0.095307
N104	N	1.420943	-0.420686	0.634343
H105	H	1.498437	-0.413332	0.696640
H106	H	1.435768	-0.478360	0.553260
N107	N	1.573504	0.047664	0.630808
H108	H	1.660283	0.027066	0.598180
H109	H	1.572093	0.050751	0.735765
H110	H	1.525259	0.204686	0.230425
