data_functionalizedCrystal
_audit_creation_method	'MofGen! by Chris Wilmer'
_symmetry_space_group_name_H-M	'P1'
_symmetry_Int_Tables_number	1
_symmetry_cell_setting	triclinic
loop_
_symmetry_equiv_pos_as_xyz
  x,y,z
_cell_length_a	12.645323
_cell_length_b	16.120530
_cell_length_c	16.120444
_cell_angle_alpha	89.831599
_cell_angle_beta	92.868836
_cell_angle_gamma	92.919534
loop_
_atom_site_label
_atom_site_type_symbol
_atom_site_fract_x
_atom_site_fract_y
_atom_site_fract_z
Zn1	Zn	-0.705684	-1.254493	-0.395599
Zn2	Zn	-0.372351	-0.921160	-0.062265
Zn3	Zn	-0.039018	-0.587826	0.271068
Zn4	Zn	-0.536909	-1.247327	-0.534661
Zn5	Zn	-0.203576	-0.913994	-0.201328
Zn6	Zn	0.129758	-0.580661	0.132006
Zn7	Zn	-0.519021	-1.115426	-0.388568
Zn8	Zn	-0.185687	-0.782092	-0.055235
Zn9	Zn	0.147646	-0.448759	0.278098
Zn10	Zn	-0.704716	-1.108343	-0.527552
Zn11	Zn	-0.371383	-0.775009	-0.194219
Zn12	Zn	-0.038050	-0.441676	0.139114
O13	O	-0.616583	-1.181397	-0.461595
O14	O	-0.283249	-0.848064	-0.128262
O15	O	0.050084	-0.514730	0.205072
O16	O	-0.691187	-1.369908	-0.419963
O17	O	-0.357854	-1.036575	-0.086630
O18	O	-0.024521	-0.703241	0.246704
O19	O	-0.386189	-1.229796	-0.515314
O20	O	-0.052855	-0.896462	-0.181981
O21	O	0.280478	-0.563129	0.151352
O22	O	-0.536701	-1.139836	-0.273137
O23	O	-0.203367	-0.806503	0.060196
O24	O	0.129966	-0.473170	0.393529
O25	O	-0.567189	-1.364643	-0.522132
O26	O	-0.233855	-1.031310	-0.188798
O27	O	0.099478	-0.697977	0.144535
O28	O	-0.673842	-1.242008	-0.278303
O29	O	-0.340508	-0.908675	0.055031
O30	O	-0.007175	-0.575342	0.388364
O31	O	-0.373046	-1.132888	-0.407981
O32	O	-0.039713	-0.799555	-0.074647
O33	O	0.293621	-0.466221	0.258686
O34	O	-0.535762	-0.998120	-0.401087
O35	O	-0.202429	-0.664787	-0.067754
O36	O	0.130905	-0.331454	0.265579
O37	O	-0.853192	-1.127764	-0.510015
O38	O	-0.519859	-0.794431	-0.176682
O39	O	-0.186526	-0.461098	0.156651
O40	O	-0.672192	-0.992917	-0.503198
O41	O	-0.338859	-0.659583	-0.169865
O42	O	-0.005525	-0.326250	0.163468
O43	O	-0.853903	-1.235140	-0.413070
O44	O	-0.520570	-0.901807	-0.079736
O45	O	-0.187237	-0.568474	0.253597
O46	O	-0.566250	-1.222928	-0.650082
O47	O	-0.232917	-0.889594	-0.316748
O48	O	0.100416	-0.556261	0.016585
O49	O	-0.689538	-1.120816	-0.644859
O50	O	-0.356204	-0.787483	-0.311525
O51	O	-0.022871	-0.454150	0.021808
C52	C	-0.601932	-0.965346	-0.450609
C53	C	-0.268598	-0.632013	-0.117276
C54	C	0.064735	-0.298679	0.216058
C55	C	-0.595690	-0.872917	-0.445929
C56	C	-0.262357	-0.539584	-0.112596
C57	C	0.070976	-0.206251	0.220737
C58	C	-0.629755	-1.170348	-0.677643
C59	C	-0.296421	-0.837015	-0.344310
C60	C	0.036912	-0.503682	-0.010976
C61	C	-0.635430	-1.165698	-0.770073
C62	C	-0.302097	-0.832364	-0.436740
C63	C	0.031236	-0.499031	-0.103406
C64	C	-0.893088	-1.181462	-0.461534
C65	C	-0.559755	-0.848128	-0.128201
C66	C	-0.226422	-0.514795	0.205133
C67	C	-1.010918	-1.181489	-0.461508
C68	C	-0.677585	-0.848156	-0.128174
C69	C	-0.344252	-0.514822	0.205159
C70	C	-1.178003	-1.113756	-0.522184
C71	C	-0.844670	-0.780423	-0.188850
C72	C	-0.511337	-0.447089	0.144483
C73	C	-1.055474	-1.113909	-0.522509
C74	C	-0.722141	-0.780575	-0.189175
C75	C	-0.388807	-0.447242	0.144158
C76	C	-1.062819	-1.267899	-0.489739
C77	C	-0.729486	-0.934565	-0.156406
C78	C	-0.396153	-0.601232	0.176928
C79	C	-1.185418	-1.267525	-0.490122
C80	C	-0.852085	-0.934191	-0.156789
C81	C	-0.518751	-0.600858	0.176545
C82	C	-1.171228	-1.163659	-0.372285
C83	C	-0.837895	-0.830326	-0.038952
C84	C	-0.504562	-0.496993	0.294381
C85	C	-1.048522	-1.161678	-0.372714
C86	C	-0.715189	-0.828344	-0.039381
C87	C	-0.381855	-0.495011	0.293953
C88	C	-0.341152	-1.181384	-0.461598
C89	C	-0.007819	-0.848050	-0.128265
C90	C	0.325514	-0.514717	0.205068
C91	C	-0.223319	-1.181529	-0.461398
C92	C	0.110014	-0.848196	-0.128065
C93	C	0.443347	-0.514863	0.205268
C94	C	-0.631291	-1.398292	-0.472624
C95	C	-0.297958	-1.064958	-0.139291
C96	C	0.035375	-0.731625	0.194042
C97	C	-0.637560	-1.490719	-0.477325
C98	C	-0.304226	-1.157386	-0.143991
C99	C	0.029107	-0.824053	0.189342
C100	C	-0.584303	-0.703690	-0.437366
C101	C	-0.250970	-0.370357	-0.104033
C102	C	0.082364	-0.037023	0.229301
C103	C	-0.648943	-0.659941	-0.485886
C104	C	-0.315610	-0.326608	-0.152552
C105	C	0.017723	0.006725	0.180781
C106	C	-0.642607	-0.565778	-0.481121
C107	C	-0.309274	-0.232444	-0.147787
C108	C	0.024059	0.100889	0.185546
C109	C	-0.590637	-0.797863	-0.442130
C110	C	-0.257304	-0.464529	-0.108796
C111	C	0.076029	-0.131196	0.224537
C112	C	-0.587382	-1.205726	-0.983047
C113	C	-0.254048	-0.872393	-0.649714
C114	C	0.079285	-0.539059	-0.316380
C115	C	-0.645805	-1.157222	-0.939300
C116	C	-0.312472	-0.823889	-0.605966
C117	C	0.020862	-0.490555	-0.272633
C118	C	-0.640031	-1.161939	-0.845133
C119	C	-0.306697	-0.828606	-0.511800
C120	C	0.026636	-0.495273	-0.178467
C121	C	-0.593154	-1.201010	-1.077222
C122	C	-0.259821	-0.867677	-0.743889
C123	C	0.073512	-0.534343	-0.410555
C124	C	-0.603384	-1.192512	-0.244705
C125	C	-0.270050	-0.859178	0.088629
C126	C	0.063283	-0.525845	0.421962
C127	C	-0.597759	-1.197248	-0.152279
C128	C	-0.264426	-0.863915	0.181054
C129	C	0.068907	-0.530581	0.514388
H130	H	-1.202167	-1.049340	-0.504136
H131	H	-0.868834	-0.716007	-0.170802
H132	H	-0.535501	-0.382674	0.162531
H133	H	-0.524208	-0.670427	-0.392253
H134	H	-0.190875	-0.337094	-0.058919
H135	H	0.142458	-0.003760	0.274414
O136	O	-1.221771	-1.329470	-0.439903
O137	O	-0.888437	-0.996136	-0.106570
O138	O	-0.555104	-0.662803	0.226764
C139	C	-1.333279	-1.329741	-0.439790
C140	C	-0.999946	-0.996408	-0.106457
C141	C	-0.666612	-0.663075	0.226877
H142	H	-1.360613	-1.265619	-0.458108
H143	H	-1.027280	-0.932286	-0.124775
H144	H	-0.693947	-0.598952	0.208559
H145	H	-1.360087	-1.346040	-0.374999
H146	H	-1.026753	-1.012707	-0.041665
H147	H	-0.693420	-0.679374	0.291668
H148	H	-1.369306	-1.377783	-0.486170
H149	H	-1.035972	-1.044450	-0.152836
H150	H	-0.702639	-0.711116	0.180497
H151	H	-0.709043	-0.693207	-0.531002
H152	H	-0.375710	-0.359873	-0.197669
H153	H	-0.042377	-0.026540	0.135665
H154	H	-0.700159	-1.112153	-0.972567
H155	H	-0.366826	-0.778820	-0.639234
H156	H	-0.033492	-0.445487	-0.305901
H157	H	-0.533030	-1.250791	-0.949783
H158	H	-0.199697	-0.917458	-0.616450
H159	H	0.133637	-0.584124	-0.283116
H160	H	-1.213768	-1.125066	-0.587740
H161	H	-0.880435	-0.791733	-0.254407
H162	H	-0.547101	-0.458400	0.078927
O163	O	-1.013112	-1.037304	-0.500937
O164	O	-0.679778	-0.703971	-0.167603
O165	O	-0.346445	-0.370638	0.165730
C166	C	-0.953518	-1.004587	-0.566183
C167	C	-0.620184	-0.671254	-0.232849
C168	C	-0.286851	-0.337920	0.100484
H169	H	-0.928101	-1.057586	-0.606116
H170	H	-0.594767	-0.724252	-0.272783
H171	H	-0.261434	-0.390919	0.060550
H172	H	-0.880226	-0.968077	-0.539243
H173	H	-0.546893	-0.634744	-0.205909
H174	H	-0.213559	-0.301410	0.127424
H175	H	-1.004035	-0.961643	-0.605948
H176	H	-0.670702	-0.628310	-0.272614
H177	H	-0.337368	-0.294976	0.060719
O178	O	-1.026571	-1.127496	-0.601256
O179	O	-0.693238	-0.794163	-0.267923
O180	O	-0.359904	-0.460830	0.065410
C181	C	-1.063408	-1.063961	-0.653817
C182	C	-0.730074	-0.730628	-0.320484
C183	C	-0.396741	-0.397294	0.012849
H184	H	-1.133329	-1.034731	-0.625299
H185	H	-0.799996	-0.701397	-0.291966
H186	H	-0.466663	-0.368064	0.041367
H187	H	-1.089764	-1.091274	-0.717110
H188	H	-0.756431	-0.757941	-0.383776
H189	H	-0.423097	-0.424608	-0.050443
H190	H	-0.996919	-1.014504	-0.661546
H191	H	-0.663586	-0.681170	-0.328213
H192	H	-0.330252	-0.347837	0.005121
H193	H	-1.219237	-1.283193	-0.555397
H194	H	-0.885904	-0.949860	-0.222064
H195	H	-0.552570	-0.616527	0.111269
H196	H	-1.034265	-1.319554	-0.447062
H197	H	-0.700932	-0.986221	-0.113729
H198	H	-0.367598	-0.652887	0.219605
H199	H	-1.037320	-1.283926	-0.554357
H200	H	-0.703986	-0.950593	-0.221024
H201	H	-0.370653	-0.617259	0.112310
H202	H	-1.196561	-1.101983	-0.347419
H203	H	-0.863228	-0.768649	-0.014086
H204	H	-0.529894	-0.435316	0.319247
O205	O	-1.007422	-1.085845	-0.347291
O206	O	-0.674088	-0.752511	-0.013958
O207	O	-0.340755	-0.419178	0.319375
C208	C	-1.041676	-1.068725	-0.267509
C209	C	-0.708343	-0.735392	0.065824
C210	C	-0.375009	-0.402059	0.399157
H211	H	-1.117909	-1.107169	-0.256627
H212	H	-0.784576	-0.773836	0.076706
H213	H	-0.451243	-0.440502	0.410040
H214	H	-1.057003	-0.999870	-0.262690
H215	H	-0.723669	-0.666536	0.070644
H216	H	-0.390336	-0.333203	0.403977
H217	H	-0.977816	-1.085293	-0.218698
H218	H	-0.644483	-0.751960	0.114635
H219	H	-0.311150	-0.418627	0.447968
H220	H	-1.017780	-1.207790	-0.324673
H221	H	-0.684446	-0.874457	0.008660
H222	H	-0.351113	-0.541124	0.341993
O223	O	-1.206331	-1.222543	-0.318188
O224	O	-0.872998	-0.889210	0.015145
O225	O	-0.539665	-0.555876	0.348479
C226	C	-1.317488	-1.221232	-0.315309
C227	C	-0.984155	-0.887898	0.018025
C228	C	-0.650822	-0.554565	0.351358
H229	H	-1.344405	-1.157671	-0.336044
H230	H	-1.011071	-0.824338	-0.002711
H231	H	-0.677738	-0.491005	0.330623
H232	H	-1.341625	-1.233890	-0.249081
H233	H	-1.008292	-0.900556	0.084253
H234	H	-0.674958	-0.567223	0.417586
H235	H	-1.356319	-1.271073	-0.358471
H236	H	-1.022986	-0.937739	-0.025138
H237	H	-0.689653	-0.604406	0.308196
