data_functionalizedCrystal
_audit_creation_method	'MofGen! by Chris Wilmer'
_symmetry_space_group_name_H-M	'P1'
_symmetry_Int_Tables_number	1
_symmetry_cell_setting	triclinic
loop_
_symmetry_equiv_pos_as_xyz
  x,y,z
_cell_length_a	16.625545
_cell_length_b	12.759401
_cell_length_c	12.759393
_cell_angle_alpha	90.020938
_cell_angle_beta	89.967170
_cell_angle_gamma	89.972917
loop_
_atom_site_label
_atom_site_type_symbol
_atom_site_fract_x
_atom_site_fract_y
_atom_site_fract_z
Zn1	Zn	-0.320930	-1.606187	-0.594003
Zn2	Zn	-0.455784	-1.606045	-0.418316
Zn3	Zn	-0.320973	-1.430486	-0.418338
Zn4	Zn	-0.455728	-1.430444	-0.593953
O5	O	-0.388354	-1.518291	-0.506153
O6	O	-0.338824	-1.753189	-0.570709
O7	O	-0.437943	-1.582714	-0.271298
O8	O	-0.208135	-1.453870	-0.441671
O9	O	-0.437901	-1.753085	-0.441633
O10	O	-0.208103	-1.582957	-0.570731
O11	O	-0.338897	-1.453732	-0.271314
O12	O	-0.338843	-1.283459	-0.441622
O13	O	-0.437805	-1.453799	-0.740981
O14	O	-0.437847	-1.283429	-0.570646
O15	O	-0.338770	-1.582917	-0.741018
O16	O	-0.568609	-1.582674	-0.441585
O17	O	-0.568568	-1.453661	-0.570624
C18	C	-0.388344	-1.245323	-0.506132
C19	C	-0.388359	-1.128547	-0.506148
C20	C	-0.597844	-1.518176	-0.506120
C21	C	-0.687466	-1.518224	-0.506141
C22	C	-0.388276	-1.518369	-0.780186
C23	C	-0.388243	-1.518403	-0.896963
C24	C	-0.760248	-1.518265	-0.506161
C25	C	-0.851556	-1.518326	-0.506185
C26	C	-0.924333	-1.518380	-0.506198
C27	C	-1.015647	-1.518440	-0.506219
C28	C	-0.178045	-1.518434	-0.506209
C29	C	-0.088424	-1.518495	-0.506233
C30	C	-0.388364	-1.792324	-0.506174
C31	C	-0.388369	-1.909100	-0.506183
C32	C	-0.439989	-1.073696	-0.573225
C33	C	-0.439992	-0.963972	-0.573245
C34	C	-0.336733	-0.963958	-0.439104
C35	C	-0.336727	-1.073680	-0.439089
C36	C	-0.468924	-0.814069	-0.697104
C37	C	-0.520566	-0.759215	-0.764172
C38	C	-0.599254	-0.794793	-0.780116
C39	C	-0.626316	-0.885224	-0.728976
C40	C	-0.574678	-0.940072	-0.661901
C41	C	-0.495979	-0.904496	-0.645977
C42	C	-0.307803	-1.223586	-0.315228
C43	C	-0.256168	-1.278436	-0.248147
C44	C	-0.177479	-1.242860	-0.232193
C45	C	-0.150420	-1.152426	-0.283313
C46	C	-0.202055	-1.097575	-0.350395
C47	C	-0.280743	-1.133159	-0.366351
C48	C	-0.336667	-1.585639	-0.951846
C49	C	-0.336632	-1.585657	-1.061570
C50	C	-0.439757	-1.451199	-1.061519
C51	C	-0.439787	-1.451177	-0.951797
C52	C	-0.241501	-1.623292	-1.211553
C53	C	-0.189932	-1.690545	-1.266439
C54	C	-0.177568	-1.793061	-1.230849
C55	C	-0.216784	-1.828345	-1.140373
C56	C	-0.268359	-1.761098	-1.085492
C57	C	-0.280708	-1.658567	-1.121081
C58	C	-0.534919	-1.413552	-0.801811
C59	C	-0.586499	-1.346309	-0.746929
C60	C	-0.598871	-1.243792	-0.782517
C61	C	-0.559669	-1.208511	-0.872996
C62	C	-0.508089	-1.275754	-0.927879
C63	C	-0.495716	-1.378271	-0.892283
C64	C	-0.388373	-1.518273	-0.233185
C65	C	-0.388178	-1.518443	-0.116409
H66	H	-0.596711	-1.013699	-0.620264
H67	H	-0.690395	-0.914178	-0.741954
N68	N	-0.203454	-1.938921	-1.101986
H69	H	-0.220775	-1.990187	-1.157913
H70	H	-0.144524	-1.949500	-1.085967
H71	H	-0.481723	-1.396468	-1.106178
H72	H	-0.498525	-0.685587	-0.805811
N73	N	-0.121788	-1.302010	-0.159829
H74	H	-0.150868	-1.364694	-0.129854
H75	H	-0.073053	-1.326420	-0.200354
N76	N	-0.384050	-0.775692	-0.679912
H77	H	-0.355440	-0.824161	-0.629667
H78	H	-0.354443	-0.774594	-0.749041
H79	H	-0.278207	-1.352072	-0.206521
H80	H	-0.524843	-1.497028	-0.772821
N81	N	-0.281076	-1.658147	-0.892707
H82	H	-0.313865	-1.706804	-0.847191
H83	H	-0.248414	-1.700671	-0.944200
N84	N	-0.654948	-0.735628	-0.852458
H85	H	-0.672602	-0.783156	-0.911426
H86	H	-0.703649	-0.711147	-0.811908
N87	N	-0.121952	-1.865602	-1.290046
H88	H	-0.098988	-1.827697	-1.352761
H89	H	-0.076719	-1.888545	-1.242481
N90	N	-0.495675	-1.132870	-0.645553
H91	H	-0.483222	-1.113821	-0.720651
H92	H	-0.487816	-1.210683	-0.635276
N93	N	-0.281067	-0.904781	-0.366751
H94	H	-0.288913	-0.826949	-0.376926
H95	H	-0.293567	-0.923933	-0.291695
N96	N	-0.628780	-1.384343	-0.649331
H97	H	-0.688902	-1.379817	-0.659709
H98	H	-0.613053	-1.459473	-0.635147
N99	N	-0.392676	-1.261964	-0.332448
H100	H	-0.401984	-1.327571	-0.289878
H101	H	-0.431953	-1.205945	-0.309800
H102	H	-0.180014	-1.023944	-0.392027
N103	N	-0.465805	-1.237708	-1.025470
H104	H	-0.481468	-1.162559	-1.039692
H105	H	-0.405696	-1.242307	-1.015022
H106	H	-0.086349	-1.123447	-0.270306
N107	N	-0.310659	-1.799139	-0.987917
H108	H	-0.295005	-1.874292	-0.973698
H109	H	-0.294510	-1.753947	-0.926436
H110	H	-0.569746	-1.125035	-0.901976
H111	H	-0.640879	-1.189047	-0.737827
N112	N	-0.147634	-1.652495	-1.364019
H113	H	-0.163283	-1.577339	-1.378234
H114	H	-0.087526	-1.657113	-1.353566
N115	N	-0.254814	-1.512712	-1.249937
H116	H	-0.278095	-1.514579	-1.323010
H117	H	-0.293408	-1.475513	-1.201373
