data_functionalizedCrystal
_audit_creation_method	'MofGen! by Chris Wilmer'
_symmetry_space_group_name_H-M	'P1'
_symmetry_Int_Tables_number	1
_symmetry_cell_setting	triclinic
loop_
_symmetry_equiv_pos_as_xyz
  x,y,z
_cell_length_a	18.215407
_cell_length_b	12.827892
_cell_length_c	18.215407
_cell_angle_alpha	90.008103
_cell_angle_beta	90.010236
_cell_angle_gamma	90.015840
loop_
_atom_site_label
_atom_site_type_symbol
_atom_site_fract_x
_atom_site_fract_y
_atom_site_fract_z
Zn1	Zn	1.125051	-0.416194	0.416137
Zn2	Zn	1.625051	0.083806	0.916137
Zn3	Zn	1.125000	-0.590905	0.293079
Zn4	Zn	1.625000	-0.090905	0.793079
Zn5	Zn	1.002004	-0.416180	0.293084
Zn6	Zn	1.502004	0.083820	0.793084
Zn7	Zn	1.001970	-0.590895	0.416104
Zn8	Zn	1.501970	-0.090895	0.916104
O9	O	1.063506	-0.503543	0.354601
O10	O	1.563506	-0.003543	0.854601
O11	O	1.228028	-0.439379	0.399824
O12	O	1.728028	0.060621	0.899824
O13	O	1.108678	-0.567726	0.190096
O14	O	1.608678	-0.067726	0.690096
O15	O	1.018362	-0.269946	0.309423
O16	O	1.518362	0.230054	0.809423
O17	O	1.227991	-0.567739	0.309415
O18	O	1.727991	-0.067739	0.809415
O19	O	1.108764	-0.269956	0.399829
O20	O	1.608764	0.230044	0.899829
O21	O	1.018313	-0.439356	0.190099
O22	O	1.518313	0.060644	0.690099
O23	O	0.899015	-0.439346	0.309391
O24	O	1.399015	0.060654	0.809391
O25	O	1.018303	-0.567722	0.519093
O26	O	1.518303	-0.067722	1.019093
O27	O	0.898990	-0.567708	0.399774
O28	O	1.398990	-0.067708	0.899774
O29	O	1.108731	-0.439370	0.519117
O30	O	1.608731	0.060630	1.019117
O31	O	1.108644	-0.737139	0.309383
O32	O	1.608644	-0.237139	0.809383
O33	O	1.018254	-0.737132	0.399769
O34	O	1.518254	-0.237132	0.899769
C35	C	0.872300	-0.503525	0.354580
C36	C	1.372300	-0.003525	0.854580
C37	C	0.790501	-0.503543	0.354588
C38	C	1.290501	-0.003543	0.854588
C39	C	1.063460	-0.775053	0.354588
C40	C	1.563460	-0.275053	0.854588
C41	C	1.063508	-0.891206	0.354607
C42	C	1.563508	-0.391206	0.854607
C43	C	0.602313	-0.570486	0.401591
C44	C	1.102313	-0.070486	0.901591
C45	C	0.525454	-0.570489	0.401601
C46	C	1.025454	-0.070489	0.901601
C47	C	0.525451	-0.436619	0.307627
C48	C	1.025451	0.063381	0.807627
C49	C	0.602308	-0.436611	0.307622
C50	C	1.102308	0.063389	0.807622
C51	C	0.640737	-0.503551	0.354603
C52	C	1.140737	-0.003551	0.854603
C53	C	0.487021	-0.503562	0.354617
C54	C	0.987021	-0.003562	0.854617
C55	C	0.403688	-0.503565	0.354627
C56	C	0.903688	-0.003565	0.854627
C57	C	0.724076	-0.503547	0.354595
C58	C	1.224076	-0.003547	0.854595
C59	C	1.108289	-0.942960	0.309931
C60	C	1.608289	-0.442960	0.809931
C61	C	1.108339	-1.063010	0.309950
C62	C	1.608339	-0.563010	0.809950
C63	C	1.255459	-0.503562	0.354623
C64	C	1.755459	-0.003562	0.854623
C65	C	1.337258	-0.503570	0.354632
C66	C	1.837258	-0.003570	0.854632
C67	C	1.063519	-0.503546	0.546554
C68	C	1.563519	-0.003546	1.046554
C69	C	1.063524	-0.503547	0.628353
C70	C	1.563524	-0.003547	1.128353
C71	C	1.063572	-0.230973	0.354630
C72	C	1.563572	0.269027	0.854630
C73	C	1.063601	-0.114820	0.354643
C74	C	1.563601	0.385180	0.854643
C75	C	1.110595	-0.436725	0.816560
C76	C	1.610595	0.063275	1.316560
C77	C	1.110591	-0.436725	0.893419
C78	C	1.610591	0.063275	1.393419
C79	C	1.016429	-0.570384	0.893383
C80	C	1.516429	-0.070384	1.393383
C81	C	1.016430	-0.570379	0.816526
C82	C	1.516430	-0.070379	1.316526
C83	C	1.063517	-0.503551	0.778116
C84	C	1.563517	-0.003551	1.278116
C85	C	1.063512	-0.503556	0.931832
C86	C	1.563512	-0.003556	1.431832
C87	C	1.063508	-0.503556	1.015166
C88	C	1.563508	-0.003556	1.515166
C89	C	1.063521	-0.503549	0.694777
C90	C	1.563521	-0.003549	1.194777
C91	C	1.063494	-0.503563	1.163395
C92	C	1.563494	-0.003563	1.663395
C93	C	1.063505	-0.503559	1.081596
C94	C	1.563505	-0.003559	1.581596
H95	H	0.494173	-0.624993	0.439864
H96	H	0.994173	-0.124993	0.939864
O97	O	1.159123	-1.121960	0.259280
O98	O	1.659123	-0.621960	0.759280
H99	H	1.191883	-1.065740	0.226535
H100	H	1.691883	-0.565740	0.726535
H101	H	0.978089	-0.624795	0.785224
H102	H	1.478089	-0.124795	1.285224
H103	H	0.978095	-0.624796	0.924665
H104	H	1.478095	-0.124796	1.424665
O105	O	1.161364	-0.364651	0.934891
O106	O	1.661364	0.135349	1.434891
H107	H	1.219121	-0.382582	0.920160
H108	H	1.719121	0.117418	1.420160
H109	H	0.633600	-0.624990	0.439848
H110	H	1.133600	-0.124990	0.939848
H111	H	1.025257	-1.070320	0.392891
H112	H	1.525257	-0.570320	0.892891
O113	O	0.643754	-0.364409	0.256938
O114	O	1.143754	0.135591	0.756938
H115	H	0.703654	-0.375641	0.264836
H116	H	1.203654	0.124359	0.764836
O117	O	1.012769	-0.950239	0.405289
O118	O	1.512769	-0.450239	0.905289
H119	H	1.025327	-0.929315	0.463071
H120	H	1.525327	-0.429315	0.963071
O121	O	0.484004	-0.364456	0.256931
O122	O	0.984004	0.135544	0.756931
H123	H	0.424104	-0.375723	0.264815
H124	H	0.924104	0.124277	0.764815
O125	O	1.159039	-0.883928	0.259261
O126	O	1.659039	-0.383928	0.759261
H127	H	1.126087	-0.834253	0.221807
H128	H	1.626087	-0.334253	0.721807
O129	O	1.161373	-0.364643	0.775129
O130	O	1.661373	0.135357	1.275129
H131	H	1.194103	-0.318168	0.814778
H132	H	1.694103	0.181832	1.314778
