data_functionalizedCrystal
_audit_creation_method	'MofGen! by Chris Wilmer'
_symmetry_space_group_name_H-M	'P1'
_symmetry_Int_Tables_number	1
_symmetry_cell_setting	triclinic
loop_
_symmetry_equiv_pos_as_xyz
  x,y,z
_cell_length_a	21.395362
_cell_length_b	21.295417
_cell_length_c	21.395355
_cell_angle_alpha	90.020404
_cell_angle_beta	90.043940
_cell_angle_gamma	90.045579
loop_
_atom_site_label
_atom_site_type_symbol
_atom_site_fract_x
_atom_site_fract_y
_atom_site_fract_z
Zn1	Zn	0.957864	-0.250415	0.354577
Zn2	Zn	0.957768	-0.355667	0.249796
Zn3	Zn	0.853079	-0.250445	0.249779
Zn4	Zn	0.853050	-0.355680	0.354501
O5	O	0.905440	-0.303052	0.302163
O6	O	1.045529	-0.264359	0.340717
O7	O	0.943853	-0.341716	0.162116
O8	O	0.867031	-0.162351	0.263705
O9	O	1.045459	-0.341687	0.263735
O10	O	0.944016	-0.162330	0.340700
O11	O	0.866938	-0.264409	0.162103
O12	O	0.765397	-0.264422	0.263631
O13	O	0.866982	-0.341709	0.442189
O14	O	0.765376	-0.341738	0.340570
O15	O	0.943988	-0.264372	0.442245
O16	O	0.943825	-0.443758	0.263661
O17	O	0.866889	-0.443767	0.340587
C18	C	0.742652	-0.303085	0.302091
C19	C	0.673011	-0.303114	0.302074
C20	C	0.640303	-0.343426	0.342077
C21	C	0.574868	-0.343411	0.342105
C22	C	0.542143	-0.303090	0.302119
C23	C	0.574859	-0.262771	0.262114
C24	C	0.640293	-0.262783	0.262092
C25	C	0.438418	-0.298019	0.245714
C26	C	0.372985	-0.298011	0.245735
C27	C	0.340322	-0.303049	0.302188
C28	C	0.373100	-0.308108	0.358622
C29	C	0.438534	-0.308120	0.358599
C30	C	0.471191	-0.303072	0.302139
C31	C	0.236662	-0.343346	0.342224
C32	C	0.171225	-0.343326	0.342253
C33	C	0.171217	-0.262690	0.262257
C34	C	0.236653	-0.262706	0.262234
C35	C	0.269371	-0.303038	0.302216
C36	C	0.905360	-0.466603	0.302132
C37	C	0.905383	-0.536571	0.302139
C38	C	0.945447	-0.569370	0.342259
C39	C	0.945469	-0.635112	0.342275
C40	C	0.905434	-0.668054	0.302159
C41	C	0.865363	-0.635248	0.262036
C42	C	0.865338	-0.569506	0.262026
N43	N	0.900697	-0.771307	0.247324
N44	N	0.900725	-0.833759	0.247335
C45	C	0.905507	-0.866129	0.302187
N46	N	0.910273	-0.833688	0.357029
N47	N	0.910249	-0.771230	0.357017
C48	C	0.905457	-0.739339	0.302165
C49	C	0.945597	-0.970212	0.342327
C50	C	0.945615	-1.035956	0.342344
C51	C	0.865512	-1.036090	0.262100
C52	C	0.865491	-0.970348	0.262089
C53	C	0.905537	-0.937413	0.302202
C54	C	1.068864	-0.303019	0.302237
C55	C	1.138505	-0.303005	0.302268
C56	C	0.905492	-0.303039	0.465587
C57	C	0.905514	-0.303033	0.535228
C58	C	0.905537	-0.138861	0.302209
C59	C	0.905579	-0.068893	0.302228
C60	C	0.905424	-0.303019	0.139376
C61	C	0.905524	-0.302847	0.069735
C62	C	0.945610	-0.262762	0.567971
C63	C	0.945609	-0.262735	0.633407
C64	C	0.905519	-0.302991	0.666096
C65	C	0.865416	-0.343265	0.633345
C66	C	0.865413	-0.343286	0.567911
C67	C	0.900544	-0.359672	0.769758
C68	C	0.900551	-0.359652	0.835191
C69	C	0.905523	-0.302924	0.867917
C70	C	0.910501	-0.246215	0.835202
C71	C	0.910499	-0.246237	0.769768
C72	C	0.905517	-0.302971	0.737049
C73	C	0.945620	-0.262620	0.971613
C74	C	0.945615	-0.262592	1.037050
C75	C	0.865425	-0.343127	1.036987
C76	C	0.865427	-0.343150	0.971552
C77	C	0.905528	-0.302897	0.938869
H78	H	0.144596	-0.376152	0.374832
H79	H	0.346508	-0.312209	0.404591
N80	N	0.822187	-0.386548	1.072238
H81	H	0.796788	-0.412066	1.041563
H82	H	0.793208	-0.360921	1.099365
H83	H	0.263284	-0.229883	0.229656
H84	H	0.978262	-0.229985	0.541365
N85	N	0.988684	-0.670494	0.385549
H86	H	1.033450	-0.659005	0.375867
H87	H	0.982571	-0.717127	0.379447
H88	H	0.978053	-0.542556	0.374923
N89	N	0.915866	-0.185021	0.870483
H90	H	0.954474	-0.185850	0.897662
H91	H	0.877671	-0.179146	0.897565
N92	N	0.895187	-0.420862	0.734465
H93	H	0.933353	-0.426759	0.707345
H94	H	0.856556	-0.419995	0.707323
N95	N	0.915857	-0.185079	0.734477
H96	H	0.954464	-0.185929	0.707356
H97	H	0.918981	-0.149168	0.765169
N98	N	0.473891	-0.313565	0.419460
H99	H	0.501002	-0.352359	0.418537
H100	H	0.443238	-0.316728	0.455197
N101	N	0.822189	-0.670775	0.218763
H102	H	0.796804	-0.640019	0.193344
H103	H	0.793192	-0.698076	0.244233
H104	H	0.832780	-0.375947	0.944892
H105	H	0.346302	-0.293896	0.199784
H106	H	0.144573	-0.229857	0.229703
N107	N	0.539579	-0.386890	0.385252
H108	H	0.570236	-0.412440	0.410578
H109	H	0.512374	-0.415975	0.359700
H110	H	0.465007	-0.293914	0.199740
N111	N	0.822165	-0.386674	0.668599
H112	H	0.828250	-0.380548	0.715020
H113	H	0.831881	-0.431636	0.657170
H114	H	0.978258	-0.229938	0.660072
N115	N	0.895181	-0.420812	0.870475
H116	H	0.933349	-0.426703	0.897649
H117	H	0.892003	-0.456713	0.839777
N118	N	0.822127	-0.534126	0.218751
H119	H	0.796766	-0.564968	0.193340
H120	H	0.847637	-0.506837	0.189783
N121	N	0.988868	-0.219212	0.936351
H122	H	0.979169	-0.174229	0.947721
H123	H	0.982761	-0.225402	0.889943
N124	N	0.539567	-0.219289	0.218979
H125	H	0.493151	-0.225403	0.225058
H126	H	0.550953	-0.229031	0.174213
H127	H	0.832760	-0.376079	0.541252
H128	H	0.978202	-0.943396	0.374992
H129	H	0.978239	-1.062659	0.375017
N130	N	0.675575	-0.219297	0.218950
H131	H	0.644918	-0.193748	0.193625
H132	H	0.702668	-0.244880	0.189896
H133	H	0.832871	-0.943642	0.229417
N134	N	0.675592	-0.386924	0.385199
H135	H	0.644939	-0.412459	0.410545
H136	H	0.702798	-0.361351	0.414234
N137	N	0.271957	-0.386842	0.385347
H138	H	0.241305	-0.412374	0.410698
H139	H	0.299166	-0.361267	0.414378
H140	H	0.832911	-1.062911	0.229441
H141	H	0.978264	-0.229795	1.063708
