data_functionalizedCrystal
_audit_creation_method	'MofGen! by Chris Wilmer'
_symmetry_space_group_name_H-M	'P1'
_symmetry_Int_Tables_number	1
_symmetry_cell_setting	triclinic
loop_
_symmetry_equiv_pos_as_xyz
  x,y,z
_cell_length_a	13.897449
_cell_length_b	16.120531
_cell_length_c	13.897441
_cell_angle_alpha	92.862141
_cell_angle_beta	90.023394
_cell_angle_gamma	87.066788
loop_
_atom_site_label
_atom_site_type_symbol
_atom_site_fract_x
_atom_site_fract_y
_atom_site_fract_z
Zn1	Zn	1.455136	0.331862	0.564868
Zn2	Zn	1.788470	0.665195	0.898202
Zn3	Zn	2.121803	0.998528	1.231535
Zn4	Zn	1.446809	0.471293	0.411728
Zn5	Zn	1.780143	0.804627	0.745062
Zn6	Zn	2.113476	1.137960	1.078395
Zn7	Zn	1.293823	0.331900	0.403581
Zn8	Zn	1.627156	0.665234	0.736915
Zn9	Zn	1.960490	0.998567	1.070248
Zn10	Zn	1.285590	0.471237	0.572970
Zn11	Zn	1.618923	0.804571	0.906304
Zn12	Zn	1.952256	1.137904	1.239637
O13	O	1.370340	0.401573	0.488287
O14	O	1.703673	0.734907	0.821620
O15	O	2.037006	1.068240	1.154954
O16	O	1.589013	0.350365	0.544573
O17	O	1.922346	0.683698	0.877906
O18	O	2.255679	1.017032	1.211240
O19	O	1.426476	0.452842	0.275668
O20	O	1.759810	0.786175	0.609002
O21	O	2.093143	1.119509	0.942335
O22	O	1.322152	0.215230	0.418176
O23	O	1.655485	0.548563	0.751510
O24	O	1.988819	0.881896	1.084843
O25	O	1.582895	0.452805	0.432062
O26	O	1.916228	0.786138	0.765395
O27	O	2.249562	1.119471	1.098728
O28	O	1.440668	0.215201	0.536673
O29	O	1.774002	0.548535	0.870006
O30	O	2.107335	0.881868	1.203340
O31	O	1.314078	0.350431	0.269683
O32	O	1.647411	0.683764	0.603016
O33	O	1.980745	1.017097	0.936349
O34	O	1.157750	0.350376	0.426032
O35	O	1.491083	0.683710	0.759366
O36	O	1.824416	1.017043	1.092699
O37	O	1.308119	0.452709	0.706875
O38	O	1.641453	0.786043	1.040208
O39	O	1.974786	1.119376	1.373542
O40	O	1.151701	0.452747	0.550482
O41	O	1.485034	0.786080	0.883815
O42	O	1.818367	1.119413	1.217148
O43	O	1.432685	0.350311	0.700922
O44	O	1.766018	0.683644	1.034256
O45	O	2.099351	1.016977	1.367589
O46	O	1.418493	0.587951	0.439918
O47	O	1.751826	0.921285	0.773251
O48	O	2.085159	1.254618	1.106584
O49	O	1.300045	0.587910	0.558381
O50	O	1.633378	0.921244	0.891715
O51	O	1.966712	1.254577	1.225048
C52	C	1.119726	0.401560	0.488253
C53	C	1.453059	0.734894	0.821586
C54	C	1.786393	1.068227	1.154919
C55	C	1.012511	0.401575	0.488262
C56	C	1.345845	0.734908	0.821595
C57	C	1.679178	1.068242	1.154929
C58	C	0.925441	0.401578	0.488278
C59	C	1.258775	0.734911	0.821612
C60	C	1.592108	1.068244	1.154945
C61	C	0.816208	0.401584	0.488308
C62	C	1.149542	0.734917	0.821641
C63	C	1.482875	1.068250	1.154975
C64	C	1.357498	0.618181	0.500934
C65	C	1.690831	0.951514	0.834267
C66	C	2.024165	1.284848	1.167601
C67	C	1.352093	0.710847	0.506376
C68	C	1.685426	1.044180	0.839710
C69	C	2.018759	1.377513	1.173043
C70	C	1.342229	0.880508	0.516333
C71	C	1.675563	1.213841	0.849666
C72	C	2.008896	1.547175	1.183000
C73	C	1.398486	0.921798	0.460187
C74	C	1.731819	1.255131	0.793520
C75	C	2.065153	1.588465	1.126853
C76	C	1.392998	1.016203	0.465727
C77	C	1.726331	1.349537	0.799060
C78	C	2.059665	1.682870	1.132393
C79	C	1.347716	0.786094	0.510794
C80	C	1.681049	1.119427	0.844128
C81	C	2.014383	1.452761	1.177461
C82	C	1.621932	0.401587	0.488322
C83	C	1.955265	0.734920	0.821656
C84	C	2.288598	1.068253	1.154989
C85	C	1.729145	0.401592	0.488337
C86	C	2.062479	0.734926	0.821671
C87	C	2.395812	1.068259	1.155004
C88	C	1.370412	0.401499	0.739876
C89	C	1.703746	0.734833	1.073209
C90	C	2.037079	1.068166	1.406543
C91	C	1.370443	0.401468	0.847088
C92	C	1.703777	0.734801	1.180421
C93	C	2.037110	1.068135	1.513755
C94	C	1.383223	1.184120	0.475594
C95	C	1.716556	1.517453	0.808928
C96	C	2.049890	1.850786	1.142261
C97	C	1.388626	1.091454	0.470140
C98	C	1.721959	1.424787	0.803474
C99	C	2.055292	1.758121	1.136807
C100	C	1.370326	0.401586	0.237674
C101	C	1.703659	0.734920	0.571007
C102	C	2.036993	1.068253	0.904340
C103	C	1.370496	0.401383	0.130448
C104	C	1.703829	0.734716	0.463782
C105	C	2.037162	1.068050	0.797115
C106	C	1.370473	0.401412	1.043380
C107	C	1.703806	0.734745	1.376713
C108	C	2.037140	1.068078	1.710047
C109	C	1.370453	0.401445	0.934149
C110	C	1.703787	0.734779	1.267483
C111	C	2.037120	1.068112	1.600816
H112	H	1.450770	0.886246	0.407957
H113	H	1.784103	1.219580	0.741291
H114	H	2.117436	1.552913	1.074624
H115	H	1.289948	0.916057	0.568557
H116	H	1.623282	1.249390	0.901890
H117	H	1.956615	1.582724	1.235224
