data_functionalizedCrystal
_audit_creation_method	'MofGen! by Chris Wilmer'
_symmetry_space_group_name_H-M	'P1'
_symmetry_Int_Tables_number	1
_symmetry_cell_setting	triclinic
loop_
_symmetry_equiv_pos_as_xyz
  x,y,z
_cell_length_a	10.723024
_cell_length_b	11.026607
_cell_length_c	9.198806
_cell_angle_alpha	89.998911
_cell_angle_beta	89.996352
_cell_angle_gamma	96.526943
loop_
_atom_site_label
_atom_site_type_symbol
_atom_site_fract_x
_atom_site_fract_y
_atom_site_fract_z
O1	O	1.693992	0.170518	-0.120878
O2	O	2.193992	0.670518	0.379122
O3	O	1.334363	0.186840	-0.120883
O4	O	1.834363	0.686840	0.379117
O5	O	1.484372	0.001778	-0.120876
O6	O	1.984372	0.501778	0.379124
O7	O	1.543983	0.355580	-0.120886
O8	O	2.043983	0.855580	0.379114
O9	O	1.484357	0.001777	0.120909
O10	O	1.984357	0.501777	0.620909
O11	O	1.334348	0.186840	0.120902
O12	O	1.834348	0.686840	0.620902
O13	O	1.693977	0.170518	0.120907
O14	O	2.193977	0.670518	0.620907
Cu15	Cu	1.514161	0.178679	0.142981
Cu16	Cu	2.014161	0.678679	0.642981
Cu17	Cu	1.514179	0.178679	-0.142958
Cu18	Cu	2.014179	0.678679	0.357042
O19	O	1.543968	0.355580	0.120899
O20	O	2.043968	0.855580	0.620899
C21	C	1.287599	0.185652	0.000009
C22	C	1.787599	0.685652	0.500009
C23	C	1.148278	0.182098	0.000007
C24	C	1.648278	0.682098	0.500007
C25	C	1.473367	-0.043525	0.000015
C26	C	1.973367	0.456475	0.500015
C27	C	1.440584	-0.178512	0.000009
C28	C	1.940584	0.321488	0.500009
C29	C	1.095646	0.285649	0.000003
C30	C	1.595646	0.785649	0.500003
C31	C	0.951650	0.281979	0.000001
C32	C	1.451650	0.781979	0.500001
C33	C	1.531104	-0.251564	0.000008
C34	C	2.031104	0.248436	0.500008
C35	C	1.497223	-0.391080	0.000003
C36	C	1.997223	0.108920	0.500003
C37	C	1.740741	0.171706	0.000011
C38	C	2.240741	0.671706	0.500011
C39	C	1.880062	0.175259	0.000004
C40	C	2.380062	0.675259	0.500004
C41	C	1.554973	0.400883	0.000006
C42	C	2.054973	0.900883	0.500006
C43	C	1.587756	0.535869	0.000002
C44	C	2.087756	1.035869	0.500002
N45	N	1.514157	0.178677	0.344095
N46	N	2.014157	0.678677	0.844095
N47	N	1.514191	0.178671	-0.344072
N48	N	2.014191	0.678671	0.155928
C49	C	1.577068	0.100633	0.416295
C50	C	2.077068	0.600633	0.916295
C51	C	1.577086	0.100628	0.583707
C52	C	2.077086	0.600628	1.083707
H53	H	1.157190	0.377021	0.000009
H54	H	1.657190	0.877021	0.500009
H55	H	1.460305	0.245487	0.406221
H56	H	1.960305	0.745487	0.906221
H57	H	1.086734	0.090727	-0.000028
H58	H	1.586734	0.590727	0.499972
O59	O	0.940044	0.057822	0.000007
O60	O	1.440044	0.557822	0.500007
H61	H	0.910186	0.004101	0.098552
H62	H	1.410186	0.504101	0.598552
O63	O	1.666990	-0.197611	0.000012
O64	O	2.166990	0.302389	0.500012
H65	H	1.672277	-0.096496	0.000024
H66	H	2.172277	0.403504	0.500024
O67	O	1.648444	0.012116	0.665929
O68	O	2.148444	0.512116	1.165929
H69	H	1.582360	-0.047239	0.735282
H70	H	2.082360	0.452761	1.235282
O71	O	1.442837	0.267176	0.573689
O72	O	1.942837	0.767176	1.073689
H73	H	1.480299	0.362051	0.602795
H74	H	1.980299	0.862051	1.102795
O75	O	1.304701	-0.232475	0.000005
O76	O	1.804701	0.267525	0.500005
H77	H	1.243546	-0.157740	-0.000002
H78	H	1.743546	0.342260	0.499998
O79	O	0.891665	0.399415	0.000010
O80	O	1.391665	0.899415	0.500010
H81	H	0.787979	0.378103	0.000023
H82	H	1.287979	0.878103	0.500023
H83	H	1.394636	-0.431820	-0.000008
H84	H	1.894636	0.068180	0.499992
O85	O	1.723650	-0.410187	0.000011
O86	O	2.223650	0.089813	0.500011
H87	H	1.728941	-0.309071	0.000026
H88	H	2.228941	0.190929	0.500026
H89	H	1.630909	0.033813	0.354172
H90	H	2.130909	0.533813	0.854172
