data_functionalizedCrystal
_audit_creation_method	'MofGen! by Chris Wilmer'
_symmetry_space_group_name_H-M	'P1'
_symmetry_Int_Tables_number	1
_symmetry_cell_setting	triclinic
loop_
_symmetry_equiv_pos_as_xyz
  x,y,z
_cell_length_a	8.497365
_cell_length_b	21.395362
_cell_length_c	21.395361
_cell_angle_alpha	89.953415
_cell_angle_beta	90.058682
_cell_angle_gamma	89.946225
loop_
_atom_site_label
_atom_site_type_symbol
_atom_site_fract_x
_atom_site_fract_y
_atom_site_fract_z
Zn1	Zn	-0.892772	0.957921	0.249015
Zn2	Zn	-0.628941	0.957805	0.353843
Zn3	Zn	-0.628901	0.853117	0.249113
Zn4	Zn	-0.892575	0.853105	0.353788
O5	O	-0.760797	0.905487	0.301440
O6	O	-0.857873	1.045583	0.262903
O7	O	-0.408173	0.943875	0.340014
O8	O	-0.663970	0.867074	0.161422
O9	O	-0.664038	1.045498	0.339920
O10	O	-0.857835	0.944072	0.161350
O11	O	-0.408144	0.866961	0.263069
O12	O	-0.663779	0.765438	0.263016
O13	O	-1.113364	0.867052	0.339826
O14	O	-0.857499	0.765428	0.339920
O15	O	-1.113509	0.944059	0.262850
O16	O	-0.663847	0.943863	0.441514
O17	O	-0.857538	0.866940	0.441474
C18	C	-0.760614	0.742699	0.301473
C19	C	-0.760573	0.673058	0.301502
C20	C	-0.760709	0.905404	0.464228
C21	C	-0.760725	0.905426	0.533869
C22	C	-0.861292	0.640356	0.341600
C23	C	-0.861363	0.574921	0.341584
C24	C	-0.760686	0.542190	0.301478
C25	C	-0.659960	0.574899	0.261373
C26	C	-0.659904	0.640333	0.261385
C27	C	-0.618665	0.438455	0.296467
C28	C	-0.618718	0.373022	0.296460
C29	C	-0.760860	0.340369	0.301437
C30	C	-0.902953	0.373157	0.306436
C31	C	-0.902896	0.438591	0.306448
C32	C	-0.760736	0.471237	0.301460
C33	C	-0.861664	0.236715	0.341520
C34	C	-0.861737	0.171278	0.341500
C35	C	-0.660320	0.171258	0.261292
C36	C	-0.660261	0.236693	0.261309
C37	C	-0.760931	0.269418	0.301426
C38	C	-0.350917	0.905442	0.301508
C39	C	-0.172274	0.905531	0.301380
C40	C	-0.760982	1.068910	0.301407
C41	C	-0.761061	1.138552	0.301393
C42	C	-0.760920	0.905587	0.138017
C43	C	-0.760972	0.905630	0.068375
C44	C	-0.659973	0.945515	0.566582
C45	C	-0.660008	0.945545	0.632018
C46	C	-0.760779	0.905473	0.664737
C47	C	-0.861550	0.865381	0.632016
C48	C	-0.861523	0.865358	0.566582
C49	C	-0.773093	0.849059	0.768465
C50	C	-0.773109	0.849082	0.833898
C51	C	-0.760871	0.905546	0.866558
C52	C	-0.748584	0.961990	0.833777
C53	C	-0.748557	0.961966	0.768343
C54	C	-0.760820	0.905495	0.735689
C55	C	-0.660153	0.945670	0.970224
C56	C	-0.660199	0.945701	1.035660
C57	C	-0.861732	0.865532	1.035657
C58	C	-0.861694	0.865507	0.970222
C59	C	-0.760896	0.905576	0.937509
H60	H	-0.943268	0.666997	0.374266
H61	H	-1.018698	0.346572	0.310488
H62	H	-0.577991	0.548245	0.228717
Br63	Br	-0.425740	0.482764	0.289712
H64	H	-0.503018	0.346332	0.292393
H65	H	-0.578081	0.978299	0.943588
H66	H	-0.578158	0.978350	1.062294
H67	H	-0.578236	0.263319	0.228660
H68	H	-0.577886	0.666959	0.228731
Br69	Br	-0.523265	0.999955	0.676424
H70	H	-0.783099	0.803122	0.860583
H71	H	-0.943601	0.832756	0.658660
H72	H	-0.943643	0.263361	0.374183
H73	H	-0.738557	1.007924	0.741654
H74	H	-1.018593	0.465284	0.310516
H75	H	-0.577901	0.978143	0.539949
Br76	Br	-0.998453	0.126896	0.395918
Br77	Br	-0.731950	1.038625	0.878093
H78	H	-0.578354	0.144609	0.228634
Br79	Br	-0.998511	0.811154	1.080055
Br80	Br	-0.998433	0.811096	0.925822
Br81	Br	-0.998270	0.810947	0.522182
Br82	Br	-0.789709	0.772422	0.724147
H83	H	-0.943386	0.548290	0.374236
