data_functionalizedCrystal
_audit_creation_method	'MofGen! by Chris Wilmer'
_symmetry_space_group_name_H-M	'P1'
_symmetry_Int_Tables_number	1
_symmetry_cell_setting	triclinic
loop_
_symmetry_equiv_pos_as_xyz
  x,y,z
_cell_length_a	9.065218
_cell_length_b	11.792240
_cell_length_c	8.140239
_cell_angle_alpha	89.987491
_cell_angle_beta	89.998449
_cell_angle_gamma	84.604651
loop_
_atom_site_label
_atom_site_type_symbol
_atom_site_fract_x
_atom_site_fract_y
_atom_site_fract_z
O1	O	-1.958836	-0.166429	0.136657
O2	O	-1.625502	0.166904	0.469991
O3	O	-1.292169	0.500237	0.803324
O4	O	-1.529423	-0.180081	0.136663
O5	O	-1.196089	0.153253	0.469996
O6	O	-0.862756	0.486586	0.803330
O7	O	-1.754550	-0.008142	0.136610
O8	O	-1.421217	0.325191	0.469943
O9	O	-1.087883	0.658524	0.803277
O10	O	-1.733709	-0.338368	0.136710
O11	O	-1.400375	-0.005035	0.470043
O12	O	-1.067042	0.328299	0.803377
O13	O	-1.754543	-0.008141	-0.136617
O14	O	-1.421209	0.325192	0.196716
O15	O	-1.087876	0.658526	0.530050
O16	O	-1.529416	-0.180080	-0.136564
O17	O	-1.196082	0.153254	0.196769
O18	O	-0.862749	0.486587	0.530102
O19	O	-1.958828	-0.166428	-0.136570
O20	O	-1.625495	0.166905	0.196764
O21	O	-1.292162	0.500239	0.530097
Zn22	Zn	-1.744121	-0.173254	-0.179948
Zn23	Zn	-1.410787	0.160080	0.153386
Zn24	Zn	-1.077454	0.493413	0.486719
Zn25	Zn	-1.744130	-0.173255	0.180041
Zn26	Zn	-1.410797	0.160078	0.513374
Zn27	Zn	-1.077464	0.493411	0.846707
O28	O	-1.733701	-0.338367	-0.136517
O29	O	-1.400368	-0.005033	0.196816
O30	O	-1.067035	0.328300	0.530150
C31	C	-1.474445	-0.178768	0.000049
C32	C	-1.141112	0.154565	0.333383
C33	C	-0.807778	0.487898	0.666716
C34	C	-1.310639	-0.174845	0.000049
C35	C	-0.977305	0.158488	0.333382
C36	C	-0.643972	0.491821	0.666716
C37	C	-1.753237	0.034156	-0.000013
C38	C	-1.419904	0.367490	0.333321
C39	C	-1.086570	0.700823	0.666654
C40	C	-1.749319	0.160192	-0.000040
C41	C	-1.415985	0.493525	0.333293
C42	C	-1.082652	0.826859	0.666626
N43	N	-1.744125	-0.173252	-0.425630
N44	N	-1.410792	0.160081	-0.092297
N45	N	-1.077458	0.493415	0.241036
C46	C	-2.013806	-0.167741	0.000048
C47	C	-1.680473	0.165593	0.333381
C48	C	-1.347140	0.498926	0.666714
C49	C	-2.177612	-0.171664	0.000059
C50	C	-1.844279	0.161670	0.333392
C51	C	-1.510946	0.495003	0.666725
C52	C	-1.742113	0.390944	-0.000067
C53	C	-1.408780	0.724277	0.333267
C54	C	-1.075447	1.057611	0.666600
C55	C	-1.746117	0.262537	-0.000052
C56	C	-1.412783	0.595870	0.333282
C57	C	-1.079450	0.929203	0.666615
C58	C	-1.735014	0.619335	0.000051
C59	C	-1.401681	0.952668	0.333384
C60	C	-1.068347	1.286001	0.666718
C61	C	-1.738933	0.493299	-0.000085
C62	C	-1.405599	0.826633	0.333249
C63	C	-1.072266	1.159966	0.666582
N64	N	-1.744138	-0.173248	0.425723
N65	N	-1.410804	0.160085	0.759057
N66	N	-1.077471	0.493419	1.092390
