data_functionalizedCrystal
_audit_creation_method	'MofGen! by Chris Wilmer'
_symmetry_space_group_name_H-M	'P1'
_symmetry_Int_Tables_number	1
_symmetry_cell_setting	triclinic
loop_
_symmetry_equiv_pos_as_xyz
  x,y,z
_cell_length_a	18.215407
_cell_length_b	18.050590
_cell_length_c	18.215399
_cell_angle_alpha	89.968856
_cell_angle_beta	89.983176
_cell_angle_gamma	90.019000
loop_
_atom_site_label
_atom_site_type_symbol
_atom_site_fract_x
_atom_site_fract_y
_atom_site_fract_z
Zn1	Zn	1.125082	-0.295641	-0.416112
Zn2	Zn	1.125011	-0.419841	-0.293044
Zn3	Zn	1.002022	-0.295670	-0.293059
Zn4	Zn	1.001995	-0.419794	-0.416069
O5	O	1.063527	-0.357736	-0.354571
O6	O	1.228057	-0.312123	-0.399798
O7	O	1.108677	-0.403401	-0.190062
O8	O	1.018387	-0.191742	-0.309407
O9	O	1.228005	-0.403372	-0.309381
O10	O	1.108799	-0.191720	-0.399813
O11	O	1.018318	-0.312173	-0.190073
O12	O	0.899034	-0.312128	-0.309365
O13	O	1.018341	-0.403293	-0.519059
O14	O	0.899014	-0.403322	-0.399740
O15	O	1.108773	-0.312078	-0.519090
O16	O	1.108651	-0.523759	-0.309339
O17	O	1.018272	-0.523725	-0.399725
C18	C	0.872321	-0.357724	-0.354550
C19	C	0.790522	-0.357736	-0.354558
C20	C	0.602337	-0.405295	-0.401557
C21	C	0.525478	-0.405298	-0.401566
C22	C	0.525470	-0.310191	-0.307601
C23	C	0.602327	-0.310185	-0.307596
C24	C	0.640759	-0.357742	-0.354573
C25	C	0.487043	-0.357750	-0.354587
C26	C	0.403709	-0.357752	-0.354597
C27	C	0.724098	-0.357739	-0.354565
C28	C	1.063471	-0.550689	-0.354542
C29	C	1.063514	-0.633234	-0.354554
C30	C	1.112765	-0.832676	-0.305470
C31	C	1.130738	-0.882006	-0.372637
C32	C	1.063556	-0.784365	-0.354583
C33	C	1.045657	-0.882117	-0.287446
C34	C	1.063597	-0.930350	-0.354605
C35	C	1.081564	-0.832607	-0.421785
C36	C	0.996451	-0.832714	-0.336549
C37	C	1.014399	-0.882020	-0.403762
C38	C	1.063534	-0.700266	-0.354569
C39	C	1.063619	-1.014446	-0.354627
C40	C	1.255480	-0.357750	-0.354593
C41	C	1.337279	-0.357755	-0.354602
C42	C	1.063562	-0.357677	-0.546524
C43	C	1.063577	-0.357652	-0.628323
C44	C	1.063604	-0.164031	-0.354616
C45	C	1.063637	-0.081485	-0.354636
C46	C	1.016566	-0.310117	-0.816524
C47	C	1.016579	-0.310102	-0.893382
C48	C	1.110676	-0.405097	-0.893360
C49	C	1.110658	-0.405116	-0.816503
C50	C	1.063605	-0.357621	-0.778086
C51	C	1.063635	-0.357588	-0.931803
C52	C	1.063649	-0.357572	-1.015136
C53	C	1.063590	-0.357638	-0.694747
C54	C	1.063535	-0.357742	-0.163365
C55	C	1.063663	-0.357558	-0.081566
H56	H	0.633610	-0.271457	-0.269335
H57	H	1.148985	-0.443765	-0.924648
H58	H	0.978252	-0.271445	-0.785247
H59	H	1.148965	-0.443802	-0.785206
H60	H	0.633626	-0.444017	-0.439811
C61	C	0.920808	-0.803852	-0.316016
C62	C	0.902328	-0.828880	-0.245628
C63	C	0.832656	-0.802298	-0.226676
H64	H	0.885669	-0.821464	-0.350353
H65	H	0.921226	-0.751223	-0.316558
H66	H	0.901905	-0.881498	-0.245091
H67	H	0.937449	-0.811269	-0.211275
H68	H	0.833073	-0.749669	-0.227218
H69	H	0.797523	-0.819912	-0.261018
H70	H	0.820111	-0.819270	-0.178914
H71	H	1.154393	-0.811010	-0.263980
H72	H	0.494199	-0.444019	-0.439827
C73	C	1.025543	-0.911011	-0.211665
C74	C	1.077215	-0.885992	-0.160464
C75	C	1.058711	-0.912584	-0.090646
H76	H	1.025277	-0.963631	-0.212226
H77	H	0.978207	-0.893386	-0.198469
H78	H	1.124538	-0.903620	-0.173657
H79	H	1.077489	-0.833376	-0.159880
H80	H	1.011375	-0.894959	-0.077449
H81	H	1.058444	-0.965203	-0.091214
H82	H	1.093763	-0.895607	-0.055896
H83	H	0.494169	-0.271473	-0.269352
H84	H	0.978275	-0.271421	-0.924675
C85	C	1.206492	-0.910732	-0.392969
C86	C	1.253781	-0.850767	-0.404964
C87	C	1.323576	-0.877193	-0.423678
H88	H	1.203250	-0.939640	-0.436408
H89	H	1.225007	-0.940419	-0.354079
H90	H	1.235270	-0.821092	-0.443852
H91	H	1.257045	-0.821853	-0.361535
H92	H	1.342091	-0.906881	-0.384787
H93	H	1.320326	-0.906101	-0.467115
H94	H	1.355671	-0.836512	-0.431812
C95	C	1.101889	-0.803594	-0.497465
C96	C	1.101678	-0.726034	-0.496557
C97	C	1.120410	-0.699281	-0.566254
H98	H	1.067197	-0.820804	-0.532451
H99	H	1.149442	-0.820840	-0.510369
H100	H	1.054131	-0.708795	-0.483662
H101	H	1.136371	-0.708804	-0.461586
H102	H	1.167963	-0.716527	-0.579158
H103	H	1.085715	-0.716496	-0.601234
H104	H	1.120275	-0.646654	-0.565645
H105	H	0.972803	-0.903550	-0.445353
