data_functionalizedCrystal
_audit_creation_method	'MofGen! by Chris Wilmer'
_symmetry_space_group_name_H-M	'P1'
_symmetry_Int_Tables_number	1
_symmetry_cell_setting	triclinic
loop_
_symmetry_equiv_pos_as_xyz
  x,y,z
_cell_length_a	12.827885
_cell_length_b	11.169417
_cell_length_c	11.169416
_cell_angle_alpha	90.011219
_cell_angle_beta	90.027574
_cell_angle_gamma	90.017908
loop_
_atom_site_label
_atom_site_type_symbol
_atom_site_fract_x
_atom_site_fract_y
_atom_site_fract_z
Zn1	Zn	-0.590827	-1.834940	0.477721
Zn2	Zn	-0.090827	-1.334940	0.977721
Zn3	Zn	-0.416094	-1.834836	0.678450
Zn4	Zn	0.083906	-1.334836	1.178450
Zn5	Zn	-0.416105	-1.634232	0.477783
Zn6	Zn	0.083895	-1.134232	0.977783
Zn7	Zn	-0.590798	-1.634233	0.678364
Zn8	Zn	-0.090798	-1.134233	1.178364
O9	O	-0.503456	-1.734560	0.578079
O10	O	-0.003456	-1.234560	1.078079
O11	O	-0.567656	-2.002876	0.504358
O12	O	-0.067656	-1.502876	1.004358
O13	O	-0.269859	-1.808181	0.651893
O14	O	0.230141	-1.308181	1.151893
O15	O	-0.439298	-1.660900	0.309825
O16	O	0.060702	-1.160900	0.809825
O17	O	-0.439280	-2.002799	0.651833
O18	O	0.060720	-1.502799	1.151833
O19	O	-0.567666	-1.808359	0.309779
O20	O	-0.067666	-1.308359	0.809779
O21	O	-0.269867	-1.660799	0.504463
O22	O	0.230133	-1.160799	1.004463
O23	O	-0.439270	-1.466283	0.504380
O24	O	0.060730	-0.966283	1.004380
O25	O	-0.737038	-1.660901	0.651686
O26	O	-0.237038	-1.160901	1.151686
O27	O	-0.567617	-1.466283	0.651746
O28	O	-0.067617	-0.966283	1.151746
O29	O	-0.737059	-1.808359	0.504275
O30	O	-0.237059	-1.308359	1.004275
O31	O	-0.439252	-1.808182	0.846388
O32	O	0.060748	-1.308182	1.346388
O33	O	-0.567606	-1.660800	0.846325
O34	O	-0.067606	-1.160800	1.346325
C35	C	-0.503442	-1.422735	0.578061
C36	C	-0.003442	-0.922735	1.078061
C37	C	-0.503461	-1.289335	0.578082
C38	C	-0.003461	-0.789335	1.078082
C39	C	-0.503448	-1.734513	0.889904
C40	C	-0.003448	-1.234513	1.389904
C41	C	-0.503479	-1.734602	1.023304
C42	C	-0.003479	-1.234602	1.523304
C43	C	-0.776026	-1.734642	0.577964
C44	C	-0.276026	-1.234642	1.077964
C45	C	-0.892179	-1.734677	0.577915
C46	C	-0.392179	-1.234677	1.077915
C47	C	-0.943974	-1.807652	0.504957
C48	C	-0.443974	-1.307652	1.004957
C49	C	-1.064025	-1.807689	0.504904
C50	C	-0.564025	-1.307689	1.004904
C51	C	-0.231946	-1.734548	0.578107
C52	C	0.268054	-1.234548	1.078107
C53	C	-0.115793	-1.734745	0.577818
C54	C	0.384207	-1.234745	1.077818
C55	C	-0.503470	-2.047602	0.578098
C56	C	-0.003470	-1.547602	1.078098
C57	C	-0.503476	-2.181002	0.578107
C58	C	-0.003476	-1.681002	1.078107
C59	C	-0.503487	-1.734641	0.265037
C60	C	-0.003487	-1.234641	0.765037
C61	C	-0.503500	-1.734675	0.131637
C62	C	-0.003500	-1.234675	0.631637
H63	H	-0.899441	-1.870096	0.442529
H64	H	-0.399441	-1.370096	0.942529
O65	O	-0.951161	-1.651947	0.660599
O66	O	-0.451161	-1.151947	1.160599
H67	H	-0.894959	-1.598477	0.714044
H68	H	-0.394959	-1.098477	1.214044
O69	O	-1.123013	-1.890433	0.422137
O70	O	-0.623013	-1.390433	0.922137
H71	H	-1.208048	-1.877462	0.435068
H72	H	-0.708048	-1.377462	0.935068
H73	H	-1.071257	-1.672270	0.640288
H74	H	-0.571257	-1.172270	1.140288
