data_functionalizedCrystal
_audit_creation_method	'MofGen! by Chris Wilmer'
_symmetry_space_group_name_H-M	'P1'
_symmetry_Int_Tables_number	1
_symmetry_cell_setting	triclinic
loop_
_symmetry_equiv_pos_as_xyz
  x,y,z
_cell_length_a	14.519709
_cell_length_b	11.804365
_cell_length_c	13.339070
_cell_angle_alpha	105.112168
_cell_angle_beta	99.654720
_cell_angle_gamma	78.135126
loop_
_atom_site_label
_atom_site_type_symbol
_atom_site_fract_x
_atom_site_fract_y
_atom_site_fract_z
O1	O	1.271005	-0.098862	0.112303
O2	O	1.006507	-0.098898	0.127920
O3	O	1.108399	-0.098880	-0.027207
O4	O	1.169112	-0.098879	0.267430
O5	O	1.081565	0.099171	0.013590
O6	O	0.979672	0.099154	0.168717
O7	O	1.244170	0.099189	0.153101
Cu8	Cu	1.109471	0.117255	0.164634
Cu9	Cu	1.141206	-0.116964	0.116386
O10	O	1.142277	0.099172	0.308228
C11	C	0.958545	0.000123	0.147589
C12	C	0.855611	0.000110	0.145405
N13	N	1.087156	0.281992	0.198569
N14	N	1.163526	-0.281700	0.082444
C15	C	0.478664	0.000164	0.137383
C16	C	0.583542	0.000148	0.139610
C17	C	0.667134	0.000136	0.141393
C18	C	0.772018	0.000122	0.143622
C19	C	1.292132	0.000166	0.133431
C20	C	1.395067	0.000172	0.135614
C21	C	1.084727	0.000142	-0.044517
C22	C	1.054159	0.000133	-0.156876
C23	C	1.217106	0.655963	0.000935
C24	C	1.233985	0.531304	-0.024741
C25	C	1.197279	0.468970	0.031084
C26	C	1.143692	0.531307	0.112590
C27	C	1.126818	0.655978	0.138273
C28	C	1.106990	0.468985	0.168423
C29	C	1.053403	0.531322	0.249928
C30	C	1.036531	0.655981	0.275607
C31	C	1.073237	0.718315	0.219782
C32	C	1.123864	0.344314	0.142739
C33	C	1.033576	0.344329	0.280077
C34	C	1.016697	0.468988	0.305753
C35	C	1.291846	0.000166	-0.521232
C36	C	1.320568	0.000181	-0.415664
C37	C	1.253968	0.000169	-0.350962
C38	C	1.158641	0.000142	-0.391838
C39	C	1.129915	0.000136	-0.497414
C40	C	1.092037	0.000139	-0.327144
C41	C	0.996710	0.000113	-0.368020
C42	C	0.967988	0.000106	-0.473586
C43	C	1.034588	0.000118	-0.538288
C44	C	1.120763	0.000145	-0.221568
C45	C	0.958832	0.000115	-0.197750
C46	C	0.930110	0.000100	-0.303318
C47	C	1.165950	0.000147	0.325537
C48	C	1.196519	0.000148	0.437894
H49	H	1.167495	0.293570	0.076378
H50	H	1.277360	0.000181	-0.265005
H51	H	1.003689	0.293577	0.325537
H52	H	0.890366	0.000093	-0.506861
H53	H	1.211024	0.367467	0.010175
F54	F	0.887945	0.000109	-0.128893
F55	F	1.291014	0.464964	-0.111479
F56	F	1.422020	0.000190	-0.372173
H57	H	1.246993	0.706723	-0.044505
H58	H	1.198379	0.000167	-0.188298
H59	H	1.346059	0.000186	-0.573919
F60	F	0.828658	0.000070	-0.346834
H61	H	1.011208	0.000102	-0.624252
H62	H	0.973066	0.519758	0.372117
F63	F	1.055269	0.850993	0.247104
H64	H	0.992907	0.706736	0.341981
