data_functionalizedCrystal
_audit_creation_method	'MofGen! by Chris Wilmer'
_symmetry_space_group_name_H-M	'P1'
_symmetry_Int_Tables_number	1
_symmetry_cell_setting	triclinic
loop_
_symmetry_equiv_pos_as_xyz
  x,y,z
_cell_length_a	13.032831
_cell_length_b	16.625546
_cell_length_c	13.033352
_cell_angle_alpha	82.833343
_cell_angle_beta	89.095163
_cell_angle_gamma	82.826778
loop_
_atom_site_label
_atom_site_type_symbol
_atom_site_fract_x
_atom_site_fract_y
_atom_site_fract_z
Zn1	Zn	1.498220	-0.544737	0.780749
Zn2	Zn	1.831553	-0.211404	1.114083
Zn3	Zn	2.164886	0.121929	1.447416
Zn4	Zn	1.519997	-0.664820	0.608762
Zn5	Zn	1.853331	-0.331487	0.942096
Zn6	Zn	2.186664	0.001846	1.275429
Zn7	Zn	1.348133	-0.511001	0.587001
Zn8	Zn	1.681467	-0.177668	0.920334
Zn9	Zn	2.014800	0.155665	1.253667
Zn10	Zn	1.326205	-0.660503	0.758883
Zn11	Zn	1.659539	-0.327169	1.092216
Zn12	Zn	1.992872	0.006164	1.425549
O13	O	1.423139	-0.595265	0.683849
O14	O	1.756472	-0.261932	1.017182
O15	O	2.089806	0.071401	1.350515
O16	O	1.645023	-0.576592	0.776193
O17	O	1.978356	-0.243259	1.109527
O18	O	2.311690	0.090074	1.442860
O19	O	1.515490	-0.632104	0.461965
O20	O	1.848823	-0.298771	0.795299
O21	O	2.182157	0.034563	1.128632
O22	O	1.368106	-0.402654	0.612746
O23	O	1.701439	-0.069321	0.946079
O24	O	2.034772	0.264012	1.279412
O25	O	1.661023	-0.664817	0.649835
O26	O	1.994356	-0.331483	0.983169
O27	O	2.327689	0.001850	1.316502
O28	O	1.478373	-0.427440	0.755092
O29	O	1.811707	-0.094107	1.088425
O30	O	2.145040	0.239226	1.421759
O31	O	1.389222	-0.519094	0.445977
O32	O	1.722556	-0.185761	0.779310
O33	O	2.055889	0.147573	1.112644
O34	O	1.201310	-0.514907	0.591543
O35	O	1.534644	-0.181574	0.924876
O36	O	1.867977	0.151760	1.258209
O37	O	1.330733	-0.657458	0.905694
O38	O	1.664066	-0.324124	1.239027
O39	O	1.997399	0.009209	1.572361
O40	O	1.185200	-0.624745	0.717824
O41	O	1.518533	-0.291412	1.051157
O42	O	1.851867	0.041922	1.384490
O43	O	1.457111	-0.572406	0.921759
O44	O	1.790444	-0.239072	1.255092
O45	O	2.123778	0.094261	1.588426
O46	O	1.494227	-0.777069	0.628632
O47	O	1.827561	-0.443736	0.961966
O48	O	2.160894	-0.110403	1.295299
O49	O	1.351849	-0.773897	0.738925
O50	O	1.685183	-0.440564	1.072259
O51	O	2.018516	-0.107231	1.405592
C52	C	1.155940	-0.565697	0.649950
C53	C	1.489273	-0.232364	0.983283
C54	C	1.822606	0.100969	1.316616
C55	C	1.041628	-0.553070	0.635472
C56	C	1.374961	-0.219736	0.968805
C57	C	1.708294	0.113597	1.302138
C58	C	0.982732	-0.601856	0.691405
C59	C	1.316065	-0.268523	1.024738
C60	C	1.649399	0.064811	1.358071
C61	C	0.864584	-0.588806	0.676443
C62	C	1.197918	-0.255472	1.009776
C63	C	1.531251	0.077861	1.343109
C64	C	1.423047	-0.804742	0.683793
C65	C	1.756380	-0.471408	1.017127
C66	C	2.089714	-0.138075	1.350460
C67	C	1.423098	-0.894370	0.683816
C68	C	1.756431	-0.561037	1.017149
C69	C	2.089764	-0.227703	1.350483
C70	C	1.423263	-1.222575	0.683946
C71	C	1.756597	-0.889241	1.017279
C72	C	2.089930	-0.555908	1.350613
C73	C	1.423214	-1.131258	0.683912
C74	C	1.756547	-0.797925	1.017245
C75	C	2.089880	-0.464591	1.350579
C76	C	1.423180	-1.058475	0.683880
C77	C	1.756513	-0.725142	1.017214
C78	C	2.089846	-0.391808	1.350547
C79	C	1.423131	-0.967153	0.683848
C80	C	1.756465	-0.633820	1.017181
C81	C	2.089798	-0.300486	1.350515
C82	C	1.691382	-0.624949	0.717881
C83	C	2.024715	-0.291616	1.051214
C84	C	2.358048	0.041717	1.384548
C85	C	1.805691	-0.637599	0.732384
C86	C	2.139024	-0.304266	1.065717
C87	C	2.472357	0.029068	1.399050
C88	C	1.389047	-0.618213	0.952084
C89	C	1.722380	-0.284880	1.285417
C90	C	2.055713	0.048453	1.618751
C91	C	1.374519	-0.627992	1.066390
C92	C	1.707852	-0.294659	1.399723
C93	C	2.041185	0.038674	1.733057
C94	C	1.423256	-0.384976	0.683930
C95	C	1.756590	-0.051643	1.017264
C96	C	2.089923	0.281691	1.350597
C97	C	1.423306	-0.295363	0.683965
C98	C	1.756640	0.037970	1.017299
C99	C	2.089973	0.371303	1.350632
C100	C	1.430571	-0.590270	1.125300
C101	C	1.763904	-0.256937	1.458633
C102	C	2.097238	0.076397	1.791967
C103	C	1.415557	-0.600376	1.243441
C104	C	1.748890	-0.267043	1.576775
C105	C	2.082223	0.066290	1.910108
C106	C	1.457090	-0.572425	1.416656
C107	C	1.790424	-0.239092	1.749989
C108	C	2.123757	0.094242	2.083322
C109	C	1.471617	-0.562649	1.302350
C110	C	1.804950	-0.229315	1.635683
C111	C	2.138284	0.104018	1.969016
H112	H	1.004581	-0.501637	0.576513
H113	H	1.337915	-0.168304	0.909846
H114	H	1.671248	0.165029	1.243179
Br115	Br	0.802854	-0.503073	0.578167
Br116	Br	1.136188	-0.169740	0.911500
Br117	Br	1.469521	0.163593	1.244833
H118	H	1.489671	-0.550489	1.088271
H119	H	1.823004	-0.217156	1.421604
H120	H	2.156338	0.116177	1.754938
Br121	Br	1.275995	-0.694286	1.128094
Br122	Br	1.609329	-0.360952	1.461427
Br123	Br	1.942662	-0.027619	1.794761
H124	H	1.356442	-0.640150	1.280464
H125	H	1.689775	-0.306817	1.613798
H126	H	2.023109	0.026516	1.947131
Br127	Br	1.044466	-0.687581	0.789682
Br128	Br	1.377799	-0.354247	1.123016
Br129	Br	1.711132	-0.020914	1.456349
Br130	Br	0.867414	-0.723312	0.830689
Br131	Br	1.200747	-0.389979	1.164023
Br132	Br	1.534080	-0.056645	1.497356
Br133	Br	1.570150	-0.496356	1.240654
Br134	Br	1.903483	-0.163023	1.573987
Br135	Br	2.236817	0.170310	1.907321
