data_functionalizedCrystal
_audit_creation_method	'MofGen! by Chris Wilmer'
_symmetry_space_group_name_H-M	'P1'
_symmetry_Int_Tables_number	1
_symmetry_cell_setting	triclinic
loop_
_symmetry_equiv_pos_as_xyz
  x,y,z
_cell_length_a	20.875492
_cell_length_b	19.851628
_cell_length_c	20.875625
_cell_angle_alpha	92.974974
_cell_angle_beta	60.168684
_cell_angle_gamma	58.316025
loop_
_atom_site_label
_atom_site_type_symbol
_atom_site_fract_x
_atom_site_fract_y
_atom_site_fract_z
Zr1	Zr	0.740569	0.601906	-0.122679
O2	O	0.881748	0.480654	-0.232469
O3	O	0.599401	0.644691	-0.083924
O4	O	0.740568	0.629296	-0.225099
O5	O	0.740579	0.501805	0.014267
O6	O	0.740555	0.740160	-0.225085
O7	O	0.740581	0.496049	-0.091294
O8	O	0.488034	0.767699	0.027451
O9	O	0.993100	0.474266	-0.238269
O10	O	0.657452	0.738890	-0.073545
O11	O	0.657460	0.660450	0.005224
O12	O	0.823665	0.642324	-0.160992
O13	O	0.823673	0.563883	-0.082223
Zr14	Zr	0.740544	0.787899	0.045700
Zr15	Zr	0.740549	0.778720	-0.122658
Zr16	Zr	0.740565	0.611085	0.045679
Zr17	Zr	0.918163	0.591717	-0.131930
Zr18	Zr	0.562951	0.798088	0.054951
O19	O	0.881712	0.745113	0.006945
O20	O	0.881718	0.732061	-0.232438
O21	O	0.881742	0.493707	0.006914
O22	O	0.599366	0.909151	0.155490
O23	O	0.599372	0.896098	-0.083893
O24	O	0.599395	0.657744	0.155460
O25	O	0.740535	0.888000	-0.091246
O26	O	0.740546	0.760509	0.148120
O27	O	0.740559	0.649645	0.148107
O28	O	0.740532	0.893756	0.014315
O29	O	0.993083	0.614810	-0.238252
O30	O	0.488030	0.774995	0.161273
O31	O	0.488014	0.915539	0.161291
O32	O	0.488017	0.908242	0.027468
O33	O	0.993097	0.481563	-0.104447
O34	O	0.993080	0.622106	-0.104430
O35	O	0.657448	0.747481	0.084013
O36	O	0.657440	0.825922	0.005244
O37	O	0.823654	0.729355	-0.082203
O38	O	0.823661	0.650915	-0.003433
C39	C	0.518414	0.707647	-0.026918
C40	C	0.443021	0.711972	-0.022991
C41	C	0.468976	0.646234	-0.082517
C42	C	0.398150	0.650298	-0.078855
C43	C	0.301368	0.720098	-0.015664
C44	C	0.275413	0.785842	0.043865
C45	C	0.346239	0.781780	0.040200
C46	C	0.082964	0.739516	0.001876
C47	C	0.012137	0.743571	0.005538
C48	C	0.134879	0.608027	-0.117184
C49	C	0.205700	0.603969	-0.120841
C50	C	0.179740	0.669716	-0.061314
N51	N	0.228971	0.724252	-0.011918
N52	N	0.252137	0.665563	-0.065064
C53	C	0.740583	0.473735	-0.038516
C54	C	0.740592	0.398673	-0.038525
C55	C	0.831197	0.164679	-0.086178
C56	C	0.785897	0.143219	-0.114945
C57	C	0.740567	0.261269	-0.038502
C58	C	0.785873	0.148987	-0.009749
C59	C	0.740550	0.128539	-0.038479
C60	C	0.695266	0.240795	-0.067313
C61	C	0.695255	0.246562	0.037924
C62	C	0.649889	0.225161	0.009179
C63	C	0.740580	0.337729	-0.038516
C64	C	0.740530	0.052084	-0.038466
C65	C	0.962699	0.682158	-0.050060
C66	C	1.038093	0.677833	-0.053988
C67	C	0.740562	0.683420	-0.249080
C68	C	0.740564	0.679523	-0.320552
C69	C	0.740531	0.916070	-0.038462
C70	C	0.740522	0.991132	-0.038453
C71	C	0.740559	0.738767	-0.354122
C72	C	0.740552	0.735108	-0.421274
C73	C	0.740557	0.672201	-0.454857
C74	C	0.740560	0.612954	-0.421281
C75	C	0.740560	0.616617	-0.354127
C76	C	0.740552	0.654698	-0.655696
C77	C	0.740555	0.651038	-0.722856
C78	C	0.740545	0.773194	-0.722844
C79	C	0.740551	0.776848	-0.655692
C80	C	0.740548	0.717605	-0.622118
N81	N	0.740554	0.668457	-0.523498
N82	N	0.740545	0.721352	-0.553475
C83	C	0.740551	0.706385	0.172101
C84	C	0.740550	0.710282	0.243573
C85	C	0.518388	0.928814	-0.026891
C86	C	0.442986	1.008202	-0.022955
C87	C	0.518409	0.719129	0.183672
C88	C	0.443014	0.727351	0.259072
C89	C	0.518383	0.940296	0.183699
C90	C	0.442979	1.023581	0.259108
C91	C	0.962731	0.449508	-0.260678
C92	C	1.038135	0.366224	-0.336086
C93	C	0.962725	0.460991	-0.050087
C94	C	1.038127	0.381603	-0.054024
C95	C	0.962705	0.670676	-0.260651
C96	C	1.038100	0.662454	-0.336050
C97	C	0.407583	1.000053	-0.062241
C98	C	0.336744	1.074638	-0.058558
C99	C	0.301306	1.157371	-0.015585
C100	C	0.336716	1.165517	0.023702
C101	C	0.407558	1.090933	0.020014
C102	C	0.407602	0.776642	0.335614
C103	C	0.336770	0.784365	0.406466
C104	C	0.301347	0.742800	0.400774
C105	C	0.336766	0.693503	0.324223
C106	C	0.407602	0.685776	0.253372
C107	C	0.407564	1.103645	0.253404
C108	C	0.336724	1.181905	0.324251
C109	C	0.301295	1.180100	0.400802
C110	C	0.336717	1.100028	0.406504
C111	C	0.407560	1.021769	0.335657
C112	C	1.073558	0.286160	-0.330383
C113	C	1.144420	0.207898	-0.401231
C114	C	1.179853	0.209703	-0.477783
C115	C	1.144427	0.289776	-0.483484
C116	C	1.073571	0.368035	-0.412637
C117	C	1.073538	0.389751	-0.014745
C118	C	1.144396	0.315164	-0.018447
C119	C	1.179837	0.232431	-0.061423
C120	C	1.144423	0.224285	-0.100706
C121	C	1.073572	0.298870	-0.097009
C122	C	1.073500	0.704029	-0.330331
C123	C	1.144332	0.696320	-0.401170
C124	C	1.179768	0.647031	-0.477728
C125	C	1.144360	0.605454	-0.483444
C126	C	1.073525	0.613169	-0.412606
H127	H	-0.066670	0.800412	0.057000
H128	H	0.307915	0.659664	0.319600
C129	C	1.183406	0.133271	-0.147964
N130	N	1.212762	0.064718	-0.183550
C131	C	0.312160	0.527188	-0.190361
N132	N	0.392346	0.469355	-0.242724
H133	H	0.307922	1.067987	-0.090551
C134	C	0.740731	0.589422	-0.618870
N135	N	0.740930	0.540216	-0.591164
C136	C	0.934719	0.131143	-0.140714
N137	N	1.012689	0.105888	-0.181793
H138	H	0.436400	1.105131	0.191079
C139	C	0.740512	0.800302	-0.458180
N140	N	0.740468	0.849417	-0.485971
H141	H	0.307860	1.098571	0.468841
C142	C	1.034617	0.289894	-0.140211
N143	N	1.005278	0.283126	-0.172751
C144	C	0.643564	0.294088	-0.100259
N145	N	0.604627	0.334227	-0.125077
C146	C	0.297765	1.269976	0.317961
N147	N	0.268421	1.336309	0.313221
C148	C	0.223358	1.266196	0.478729
N149	N	0.164652	1.331046	0.537421
H150	H	1.237529	0.171706	-0.064427
H151	H	1.173218	0.321815	0.013546
C152	C	0.446537	0.631561	0.169178
N153	N	0.475859	0.590725	0.105763
C154	C	0.317684	0.854096	0.105684
N155	N	0.296172	0.908568	0.155009
H156	H	0.824193	0.109421	0.014559
H157	H	0.824202	0.098796	-0.179569
H158	H	0.436386	0.956581	0.340313
C159	C	1.183374	0.119828	-0.394941
N160	N	1.212712	0.053495	-0.390201
H161	H	1.173153	0.730177	-0.396500
H162	H	1.237447	0.640756	-0.535402
H163	H	1.044712	0.284674	-0.268057
C164	C	1.257789	0.123607	-0.555710
N165	N	1.316487	0.058757	-0.614401
H166	H	1.173285	0.291234	-0.545821
C167	C	1.183316	0.551274	-0.567664
N168	N	1.212650	0.510475	-0.631099
C169	C	1.034605	0.567415	-0.418911
N170	N	1.005296	0.532947	-0.423666
H171	H	1.044730	0.433225	-0.417290
C172	C	0.740552	0.807972	-0.317186
N173	N	0.740542	0.860101	-0.289366
C174	C	1.034571	0.480751	0.032529
N175	N	1.005230	0.549289	0.068134
C176	C	0.297716	1.256533	0.070976
N177	N	0.268334	1.325089	0.106589
C178	C	1.034529	0.758259	-0.246125
N179	N	1.005176	0.799112	-0.182702
C180	C	0.546282	0.258906	0.063647
N181	N	0.468247	0.284320	0.104667
H182	H	0.547778	0.589387	-0.133967
H183	H	0.156005	0.554501	-0.165648
H184	H	0.061814	0.793051	0.050346
C185	C	0.168951	0.862623	0.113377
N186	N	0.088762	0.920454	0.165736
C187	C	0.426709	0.577968	-0.144326
N188	N	0.448223	0.523480	-0.193637
H189	H	0.243621	1.218095	-0.012588
H190	H	0.656983	0.290980	0.102533
H191	H	0.740546	0.828073	-0.628350
H192	H	0.740546	0.821429	-0.750185
C193	C	0.740557	0.581834	-0.759795
N194	N	0.740559	0.529712	-0.787617
H195	H	0.740562	0.568375	-0.326793
C196	C	0.446557	0.909052	-0.109522
N197	N	0.475913	0.840512	-0.145142
C198	C	0.740553	0.543762	-0.458218
N199	N	0.740547	0.491646	-0.486038
H200	H	0.243669	0.749099	0.458471
C201	C	0.446559	0.822366	0.341896
N202	N	0.475902	0.856804	0.346633
C203	C	0.446485	1.099912	0.063244
N204	N	0.475800	1.106682	0.095809
H205	H	0.307940	0.824510	0.468790
