data_functionalizedCrystal
_audit_creation_method	'MofGen! by Chris Wilmer'
_symmetry_space_group_name_H-M	'P1'
_symmetry_Int_Tables_number	1
_symmetry_cell_setting	triclinic
loop_
_symmetry_equiv_pos_as_xyz
  x,y,z
_cell_length_a	15.944493
_cell_length_b	15.944545
_cell_length_c	15.021413
_cell_angle_alpha	89.998085
_cell_angle_beta	90.006749
_cell_angle_gamma	83.485608
loop_
_atom_site_label
_atom_site_type_symbol
_atom_site_fract_x
_atom_site_fract_y
_atom_site_fract_z
O1	O	1.114557	0.108089	0.074024
O2	O	1.614557	0.608089	0.574024
O3	O	0.870000	0.121496	0.074029
O4	O	1.370000	0.621496	0.574029
O5	O	0.998960	-0.007484	0.074016
O6	O	1.498960	0.492516	0.574016
O7	O	0.985597	0.237069	0.074038
O8	O	1.485597	0.737069	0.574038
O9	O	0.998939	-0.007465	-0.074048
O10	O	1.498939	0.492535	0.425952
O11	O	0.869980	0.121515	-0.074035
O12	O	1.369980	0.621515	0.425965
O13	O	1.114536	0.108108	-0.074040
O14	O	1.614536	0.608108	0.425960
Zn15	Zn	0.992255	0.114814	-0.097546
Zn16	Zn	1.492255	0.614814	0.402454
Zn17	Zn	0.992282	0.114790	0.097535
Zn18	Zn	1.492282	0.614790	0.597535
O19	O	0.985577	0.237088	-0.074027
O20	O	1.485577	0.737088	0.425973
C21	C	0.838695	0.120958	-0.000002
C22	C	1.338695	0.620958	0.499998
C23	C	0.745447	0.119315	-0.000001
C24	C	1.245447	0.619315	0.499999
C25	C	0.509685	0.195235	0.000007
C26	C	1.009685	0.695235	0.500007
C27	C	0.459117	0.154303	-0.073004
C28	C	0.959117	0.654303	0.426996
C29	C	0.574726	0.116271	-0.000003
C30	C	1.074726	0.616271	0.499997
C31	C	0.459142	0.154267	0.072975
C32	C	0.959142	0.654267	0.572975
C33	C	0.409816	0.113336	-0.000001
C34	C	0.909816	0.613336	0.499999
C35	C	0.525386	0.075360	-0.073074
C36	C	1.025386	0.575360	0.426926
C37	C	0.525414	0.075335	0.072971
C38	C	1.025414	0.575335	0.572971
C39	C	0.474880	0.034345	-0.000057
C40	C	0.974880	0.534345	0.499943
C41	C	0.669725	0.117963	-0.000005
C42	C	1.169725	0.617963	0.499995
C43	C	0.314819	0.111637	-0.000005
C44	C	0.814819	0.611637	0.499995
C45	C	0.998395	-0.038768	-0.000017
C46	C	1.498395	0.461232	0.499983
C47	C	0.996735	-0.132014	-0.000019
C48	C	1.496735	0.367986	0.499981
C49	C	0.911839	-0.402630	0.000000
C50	C	1.411839	0.097370	0.500000
C51	C	0.952779	-0.352062	0.073003
C52	C	1.452779	0.147938	0.573003
C53	C	0.990814	-0.467657	0.000006
C54	C	1.490814	0.032343	0.500006
C55	C	0.952780	-0.352071	-0.072976
C56	C	1.452780	0.147929	0.427024
C57	C	0.993719	-0.302744	-0.000008
C58	C	1.493719	0.197256	0.499992
C59	C	1.031733	-0.418317	0.073069
C60	C	1.531733	0.081683	0.573069
C61	C	1.031723	-0.418330	-0.072976
C62	C	1.531723	0.081670	0.427024
C63	C	1.072721	-0.367795	0.000045
C64	C	1.572721	0.132205	0.500045
C65	C	0.989139	-0.562659	0.000015
C66	C	1.489139	-0.062659	0.500015
C67	C	0.995401	-0.207745	-0.000010
C68	C	1.495401	0.292255	0.499990
C69	C	1.145841	0.108646	-0.000006
C70	C	1.645841	0.608646	0.499994
C71	C	1.239090	0.110289	-0.000002
C72	C	1.739090	0.610289	0.499998
C73	C	0.986141	0.268373	0.000008
C74	C	1.486141	0.768373	0.500008
C75	C	0.987801	0.361618	0.000017
C76	C	1.487801	0.861618	0.500017
N77	N	0.992242	0.114830	-0.230683
N78	N	1.492242	0.614830	0.269317
C79	C	0.932602	0.174443	-0.470360
C80	C	1.432602	0.674443	0.029640
C81	C	1.008504	0.190734	-0.529695
C82	C	1.508504	0.690734	-0.029695
C83	C	0.992264	0.114809	-0.412290
C84	C	1.492264	0.614809	0.087710
C85	C	0.916382	0.098537	-0.529698
C86	C	1.416382	0.598537	-0.029698
C87	C	0.992278	0.114791	-0.587714
C88	C	1.492278	0.614791	-0.087714
C89	C	1.068204	0.131138	-0.470318
C90	C	1.568204	0.631138	0.029682
C91	C	0.976032	0.038908	-0.470316
C92	C	1.476032	0.538908	0.029684
C93	C	1.051989	0.055167	-0.529623
C94	C	1.551989	0.555167	-0.029623
C95	C	0.992255	0.114822	-0.311233
C96	C	1.492255	0.614822	0.188767
C97	C	0.992296	0.114777	-0.688769
C98	C	1.492296	0.614777	-0.188769
N99	N	0.992301	0.114767	0.230673
N100	N	1.492301	0.614767	0.730673
H101	H	0.554370	0.042004	0.134693
H102	H	1.054370	0.542004	0.634693
H103	H	1.102504	0.004726	-0.555481
H104	H	1.602504	0.504726	-0.055481
H105	H	1.065038	-0.447279	-0.134698
H106	H	1.565038	0.052721	0.365302
O107	O	0.959511	-0.037561	-0.439060
O108	O	1.459511	0.462439	0.060940
C109	C	0.886033	-0.027273	-0.386144
C110	C	1.386033	0.472727	0.113856
H111	H	0.875601	0.040279	-0.360157
H112	H	1.375601	0.540279	0.139843
H113	H	0.893694	-0.072980	-0.327582
H114	H	1.393694	0.427020	0.172418
H115	H	0.829391	-0.040800	-0.427901
H116	H	1.329391	0.459200	0.072099
H117	H	0.852205	0.084782	-0.555783
H118	H	1.352205	0.584782	-0.055783
H119	H	0.525307	0.263255	-0.000056
H120	H	1.025307	0.763255	0.499944
H121	H	0.459415	-0.033726	-0.000105
H122	H	0.959415	0.466274	0.499895
O123	O	1.025017	0.267294	-0.560717
O124	O	1.525017	0.767294	-0.060717
C125	C	1.104452	0.284906	-0.529187
C126	C	1.604452	0.784906	-0.029187
H127	H	1.121196	0.246695	-0.466239
H128	H	1.621196	0.746695	0.033761
H129	H	1.102003	0.355099	-0.513523
H130	H	1.602003	0.855099	-0.013523
H131	H	1.154392	0.267165	-0.582303
H132	H	1.654392	0.767165	-0.082303
O133	O	0.912856	-0.317654	-0.146587
O134	O	1.412856	0.182346	0.353413
C135	C	0.828101	-0.335028	-0.146296
C136	C	1.328101	0.164972	0.353704
H137	H	0.822008	-0.393100	-0.103546
H138	H	1.322008	0.106900	0.396454
H139	H	0.807433	-0.347411	-0.217292
H140	H	1.307433	0.152589	0.282708
H141	H	0.786326	-0.278622	-0.117817
H142	H	1.286326	0.221378	0.382183
H143	H	0.430171	0.187659	-0.134722
H144	H	0.930171	0.687659	0.365278
O145	O	0.559626	0.035556	-0.146819
O146	O	1.059626	0.535556	0.353181
C147	C	0.495106	0.006152	-0.198408
C148	C	0.995106	0.506152	0.301592
H149	H	0.438337	-0.001431	-0.154216
H150	H	0.938337	0.498569	0.345784
H151	H	0.519196	-0.057401	-0.229167
H152	H	1.019196	0.442599	0.270833
H153	H	0.475613	0.053511	-0.253556
H154	H	0.975613	0.553511	0.246444
H155	H	1.132396	0.144970	-0.444345
H156	H	1.632396	0.644970	0.055655
O157	O	0.424727	0.194167	0.146588
O158	O	0.924727	0.694167	0.646588
C159	C	0.442086	0.278927	0.146308
C160	C	0.942086	0.778927	0.646308
H161	H	0.500151	0.285040	0.103562
H162	H	1.000151	0.785040	0.603562
H163	H	0.454473	0.299579	0.217307
H164	H	0.954473	0.799579	0.717307
H165	H	0.385670	0.320699	0.117829
H166	H	0.885670	0.820699	0.617829
H167	H	0.843825	-0.418268	0.000073
H168	H	1.343825	0.081732	0.500073
O169	O	0.872563	0.234759	-0.439348
O170	O	1.372563	0.734759	0.060652
C171	C	0.890000	0.314669	-0.469624
C172	C	1.390000	0.814669	0.030376
H173	H	0.959986	0.312289	-0.486259
H174	H	1.459986	0.812289	0.013741
H175	H	0.873153	0.363670	-0.415354
H176	H	1.373153	0.863670	0.084646
H177	H	0.850962	0.332668	-0.531739
H178	H	1.350962	0.832668	-0.031739
O179	O	0.913139	-0.317505	0.146693
O180	O	1.413139	0.182495	0.646693
C181	C	0.970521	-0.276356	0.197579
C182	C	1.470521	0.223644	0.697579
H183	H	1.037776	-0.304250	0.181275
H184	H	1.537776	0.195750	0.681275
H185	H	0.957739	-0.285458	0.271418
H186	H	1.457739	0.214542	0.771418
H187	H	0.962449	-0.206088	0.181192
H188	H	1.462449	0.293912	0.681192
H189	H	1.065071	-0.447138	0.134856
H190	H	1.565071	0.052862	0.634856
H191	H	1.140788	-0.352318	0.000085
H192	H	1.640788	0.147682	0.500085
