data_functionalizedCrystal
_audit_creation_method	'MofGen! by Chris Wilmer'
_symmetry_space_group_name_H-M	'P1'
_symmetry_Int_Tables_number	1
_symmetry_cell_setting	triclinic
loop_
_symmetry_equiv_pos_as_xyz
  x,y,z
_cell_length_a	14.971486
_cell_length_b	15.944551
_cell_length_c	14.048226
_cell_angle_alpha	89.992615
_cell_angle_beta	89.998499
_cell_angle_gamma	83.556434
loop_
_atom_site_label
_atom_site_type_symbol
_atom_site_fract_x
_atom_site_fract_y
_atom_site_fract_z
O1	O	1.186829	0.109463	-0.079053
O2	O	0.926415	0.122572	-0.079079
O3	O	1.063733	-0.006251	-0.079057
O4	O	1.049510	0.238286	-0.079076
O5	O	1.063717	-0.006258	0.079264
O6	O	0.926398	0.122564	0.079242
O7	O	1.186812	0.109456	0.079268
Zn8	Zn	1.056603	0.116009	0.104392
Zn9	Zn	1.056624	0.116019	-0.104203
O10	O	1.049494	0.238278	0.079246
C11	C	0.893082	0.121982	0.000078
C12	C	0.793787	0.120225	0.000068
C13	C	0.736480	0.195904	0.000064
C14	C	0.643182	0.194249	0.000078
C15	C	0.607194	0.116913	0.000090
C16	C	0.664508	0.041227	0.000097
C17	C	0.757804	0.042884	0.000090
C18	C	0.470049	0.037780	0.000111
C19	C	0.376747	0.036123	0.000116
C20	C	0.355428	0.189145	0.000099
C21	C	0.448724	0.190801	0.000092
C22	C	0.506032	0.115116	0.000097
C23	C	1.063134	-0.037549	0.000104
C24	C	1.061364	-0.130797	0.000104
C25	C	0.972017	-0.345738	0.000082
C26	C	1.013499	-0.406720	0.078148
C27	C	1.058162	-0.301526	0.000096
C28	C	1.013535	-0.406696	-0.077944
C29	C	1.055062	-0.466441	0.000085
C30	C	1.099667	-0.361279	0.078227
C31	C	1.099692	-0.361248	-0.077935
C32	C	1.141236	-0.422212	0.000150
C33	C	1.059945	-0.206522	0.000104
C34	C	1.053286	-0.561444	0.000084
C35	C	1.220145	0.110046	0.000109
C36	C	1.319440	0.111802	0.000112
C37	C	1.050093	0.269576	0.000083
C38	C	1.051863	0.362824	0.000076
N39	N	1.056594	0.116001	0.246753
N40	N	1.056640	0.116019	-0.246564
C41	C	1.117418	0.058982	0.296581
C42	C	1.117424	0.058982	0.396238
C43	C	1.056610	0.116005	0.446066
C44	C	0.995780	0.173027	0.396231
C45	C	0.995770	0.173022	0.296575
C46	C	0.995806	0.173033	0.603945
C47	C	0.995816	0.173038	0.703608
C48	C	1.117459	0.058992	0.703608
C49	C	1.117450	0.058988	0.603952
C50	C	1.056621	0.116011	0.554124
H51	H	0.635199	-0.021741	0.000121
H52	H	1.212804	-0.455303	0.000201
H53	H	0.900512	-0.312499	0.000153
H54	H	1.166973	0.012560	0.563383
H55	H	1.136103	-0.341080	-0.143930
H56	H	0.977056	-0.426866	0.144140
C57	C	0.776064	0.280977	0.000050
C58	C	0.754446	0.343863	0.082260
C59	C	0.794027	0.428937	0.082250
C60	C	0.855227	0.451125	0.000030
C61	C	0.876848	0.388237	-0.082186
C62	C	0.837267	0.303163	-0.082176
H63	H	0.709140	0.327439	0.143130
H64	H	0.778022	0.475491	0.143113
H65	H	0.884527	0.514102	0.000023
H66	H	0.922154	0.404661	-0.143055
H67	H	0.853273	0.256610	-0.143038
H68	H	0.596526	0.255875	0.000074
H69	H	0.946294	0.219472	0.744173
H70	H	0.946259	0.219453	0.436807
C71	C	0.337162	-0.048949	0.000139
C72	C	0.275956	-0.071138	-0.082065
C73	C	0.236374	-0.156212	-0.082041
C74	C	0.257997	-0.219097	0.000187
C75	C	0.319206	-0.196909	0.082397
C76	C	0.358788	-0.111835	0.082373
H77	H	0.259947	-0.024586	-0.142940
H78	H	0.191063	-0.172636	-0.142899
H79	H	0.228696	-0.282073	0.000204
H80	H	0.335216	-0.243461	0.143272
H81	H	0.404099	-0.095411	0.143231
H82	H	0.946269	0.219464	0.563379
H83	H	0.977095	-0.426804	-0.143948
H84	H	0.516708	-0.023852	0.000117
C85	C	0.488310	0.275873	0.000079
C86	C	0.466691	0.338759	0.082289
C87	C	0.506275	0.423832	0.082281
C88	C	0.567478	0.446019	0.000063
C89	C	0.589099	0.383131	-0.082153
C90	C	0.549515	0.298058	-0.082145
H91	H	0.421383	0.322336	0.143157
H92	H	0.490270	0.470386	0.143143
H93	H	0.596780	0.508995	0.000057
H94	H	0.634407	0.399553	-0.143022
H95	H	0.565521	0.251504	-0.143007
H96	H	0.308763	0.250771	0.000099
H97	H	0.804463	-0.018742	0.000093
H98	H	1.166943	0.012551	0.256017
H99	H	0.946240	0.219452	0.256006
H100	H	1.136066	-0.341257	0.144298
H101	H	1.166951	0.012552	0.436808
H102	H	1.166988	0.012562	0.744184
