data_functionalizedCrystal
_audit_creation_method	'MofGen! by Chris Wilmer'
_symmetry_space_group_name_H-M	'P1'
_symmetry_Int_Tables_number	1
_symmetry_cell_setting	triclinic
loop_
_symmetry_equiv_pos_as_xyz
  x,y,z
_cell_length_a	12.827893
_cell_length_b	14.908520
_cell_length_c	14.908858
_cell_angle_alpha	90.221996
_cell_angle_beta	86.720297
_cell_angle_gamma	93.320575
loop_
_atom_site_label
_atom_site_type_symbol
_atom_site_fract_x
_atom_site_fract_y
_atom_site_fract_z
Zn1	Zn	1.540287	-0.328610	0.529007
Zn2	Zn	2.040287	0.171390	1.029007
Zn3	Zn	1.539001	-0.487664	0.387320
Zn4	Zn	2.039001	0.012336	0.887320
Zn5	Zn	1.374997	-0.337323	0.378670
Zn6	Zn	1.874997	0.162677	0.878670
Zn7	Zn	1.354868	-0.478929	0.537634
Zn8	Zn	1.854868	0.021071	1.037634
O9	O	1.452288	-0.408132	0.458158
O10	O	1.952288	0.091868	0.958158
O11	O	1.686351	-0.349718	0.510222
O12	O	2.186351	0.150282	1.010222
O13	O	1.525131	-0.475023	0.260349
O14	O	2.025131	0.024977	0.760349
O15	O	1.405885	-0.210340	0.391381
O16	O	1.905885	0.289660	0.891381
O17	O	1.685406	-0.466574	0.406125
O18	O	2.185406	0.033426	0.906125
O19	O	1.527323	-0.203939	0.501834
O20	O	2.027323	0.296061	1.001834
O21	O	1.404638	-0.364568	0.253994
O22	O	1.904638	0.135432	0.753994
O23	O	1.226092	-0.356098	0.399746
O24	O	1.726092	0.143902	0.899746
O25	O	1.371578	-0.451687	0.662313
O26	O	1.871578	0.048313	1.162313
O27	O	1.211303	-0.460136	0.516537
O28	O	1.711303	0.039864	1.016537
O29	O	1.507805	-0.341248	0.655975
O30	O	2.007805	0.158752	1.155975
O31	O	1.505613	-0.612333	0.414490
O32	O	2.005613	-0.112333	0.914490
O33	O	1.370331	-0.605915	0.524925
O34	O	1.870331	-0.105915	1.024925
C35	C	1.180780	-0.408115	0.458139
C36	C	1.680780	0.091885	0.958139
C37	C	1.064625	-0.408129	0.458154
C38	C	1.564625	0.091871	0.958154
C39	C	1.005550	-0.459700	0.515866
C40	C	1.505550	0.040300	1.015866
C41	C	0.885497	-0.459715	0.515883
C42	C	1.385497	0.040285	1.015883
C43	C	1.435675	-0.641748	0.471602
C44	C	1.935675	-0.141748	0.971602
C45	C	1.428662	-0.741689	0.477384
C46	C	1.928662	-0.241689	0.977384
C47	C	1.556483	-0.936104	0.373345
C48	C	2.056483	-0.436104	0.873345
C49	C	1.549897	-1.030007	0.378775
C50	C	2.049897	-0.530007	0.878775
C51	C	1.408910	-1.023400	0.493676
C52	C	1.908910	-0.523400	0.993676
C53	C	1.415495	-0.929497	0.488247
C54	C	1.915495	-0.429497	0.988247
C55	C	1.489284	-0.885852	0.428078
C56	C	1.989284	-0.385852	0.928078
C57	C	1.495864	-0.791948	0.422645
C58	C	1.995864	-0.291948	0.922645
C59	C	1.354882	-0.785342	0.537550
C60	C	1.854882	-0.285342	1.037550
C61	C	1.348296	-0.879245	0.542980
C62	C	1.848296	-0.379245	1.042980
C63	C	1.724856	-0.408149	0.458176
C64	C	2.224856	0.091851	0.958176
C65	C	1.841008	-0.408156	0.458184
C66	C	2.341008	0.091844	0.958184
C67	C	1.437590	-0.394522	0.692680
C68	C	1.937590	0.105478	1.192680
C69	C	1.431326	-0.388722	0.792620
C70	C	1.931326	0.111278	1.292620
C71	C	1.468993	-0.173601	0.444680
C72	C	1.968993	0.326399	0.944680
C73	C	1.476112	-0.073659	0.438937
C74	C	1.976112	0.426341	0.938937
C75	C	1.466994	-0.421624	0.224543
C76	C	1.966994	0.078376	0.724543
C77	C	1.473477	-0.427170	0.124590
C78	C	1.973477	0.072830	0.624590
C79	C	1.359772	-0.323041	0.930171
C80	C	1.859772	0.176959	1.430171
C81	C	1.365653	-0.328489	0.836269
C82	C	1.865653	0.171511	1.336269
C83	C	1.491126	-0.443509	0.842881
C84	C	1.991126	0.056491	1.342881
C85	C	1.485245	-0.438061	0.936783
C86	C	1.985245	0.061939	1.436783
C87	C	1.419564	-0.377826	0.980425
C88	C	1.919564	0.122174	1.480425
C89	C	1.413678	-0.372383	1.074329
C90	C	1.913678	0.127617	1.574329
C91	C	1.539156	-0.487398	1.080939
C92	C	2.039156	0.012602	1.580939
C93	C	1.545037	-0.492845	0.987037
C94	C	2.045037	0.007155	1.487037
H95	H	1.026324	-0.363984	0.408761
H96	H	1.526324	0.136016	0.908761
H97	H	1.598515	-0.541884	0.951491
H98	H	2.098515	-0.041884	1.451491
Br99	Br	1.324544	-0.290637	1.133557
Br100	Br	1.824544	0.209363	1.633557
H101	H	1.306288	-0.274000	0.965705
H102	H	1.806288	0.226000	1.465705
H103	H	1.316966	-0.283876	0.795355
H104	H	1.816966	0.216124	1.295355
H105	H	0.891777	-0.364005	0.408769
H106	H	1.391777	0.135995	0.908769
H107	H	0.834721	-0.503870	0.565290
H108	H	1.334721	-0.003870	1.065290
H109	H	1.555943	-0.756413	0.373650
H110	H	2.055943	-0.256413	0.873650
Br111	Br	1.641105	-1.098204	0.304496
Br112	Br	2.141105	-0.598204	0.804496
H113	H	1.616558	-0.900568	0.324348
H114	H	2.116558	-0.400568	0.824348
Br115	Br	1.620300	-0.561760	1.149146
Br116	Br	2.120300	-0.061760	1.649146
Br117	Br	1.263660	-0.717139	0.611820
Br118	Br	1.763660	-0.217139	1.111820
H119	H	1.043851	-0.503837	0.565267
H120	H	1.543851	-0.003837	1.065267
Br121	Br	1.308793	-1.082647	0.575341
Br122	Br	1.808793	-0.582647	1.075341
H123	H	1.288223	-0.914794	0.591969
H124	H	1.788223	-0.414794	1.091969
H125	H	1.544607	-0.492543	0.807331
H126	H	2.044607	0.007457	1.307331
