data_functionalizedCrystal
_audit_creation_method	'MofGen! by Chris Wilmer'
_symmetry_space_group_name_H-M	'P1'
_symmetry_Int_Tables_number	1
_symmetry_cell_setting	triclinic
loop_
_symmetry_equiv_pos_as_xyz
  x,y,z
_cell_length_a	9.065215
_cell_length_b	9.198806
_cell_length_c	9.065218
_cell_angle_alpha	89.998664
_cell_angle_beta	85.015325
_cell_angle_gamma	89.996792
loop_
_atom_site_label
_atom_site_type_symbol
_atom_site_fract_x
_atom_site_fract_y
_atom_site_fract_z
O1	O	-1.960403	0.120862	-0.216334
O2	O	-1.460403	0.620862	0.283666
O3	O	-1.531118	0.120870	-0.234085
O4	O	-1.031118	0.620870	0.265915
O5	O	-1.754634	0.120863	-0.010567
O6	O	-1.254634	0.620863	0.489433
O7	O	-1.736887	0.120869	-0.439852
O8	O	-1.236887	0.620869	0.060148
O9	O	-1.754616	-0.120922	-0.010566
O10	O	-1.254616	0.379078	0.489434
O11	O	-1.531100	-0.120915	-0.234084
O12	O	-1.031100	0.379085	0.265916
O13	O	-1.960385	-0.120923	-0.216334
O14	O	-1.460385	0.379077	0.283666
Cu15	Cu	-1.745741	-0.142996	-0.225209
Cu16	Cu	-1.245741	0.357004	0.274791
Cu17	Cu	-1.745762	0.142943	-0.225210
Cu18	Cu	-1.245762	0.642943	0.274790
O19	O	-1.736869	-0.120916	-0.439851
O20	O	-1.236869	0.379084	0.060149
C21	C	-1.476122	-0.000022	-0.232380
C22	C	-0.976122	0.499978	0.267620
C23	C	-1.312279	-0.000019	-0.227282
C24	C	-0.812279	0.499981	0.272718
N25	N	-1.745737	-0.344110	-0.225207
N26	N	-1.245737	0.155890	0.274793
C27	C	-1.839582	-0.416310	-0.130943
C28	C	-1.339582	0.083690	0.369057
C29	C	-1.839605	-0.583722	-0.130938
C30	C	-1.339605	-0.083722	0.369062
C31	C	-1.015381	-0.000027	-0.218039
C32	C	-0.515381	0.499973	0.281961
C33	C	-1.179224	-0.000018	-0.223136
C34	C	-0.679224	0.499982	0.276864
C35	C	-1.752919	-0.000027	0.044420
C36	C	-1.252919	0.499973	0.544420
C37	C	-1.747819	-0.000020	0.208263
C38	C	-1.247819	0.499980	0.708263
N39	N	-1.745778	0.344057	-0.225200
N40	N	-1.245778	0.844057	0.274800
C41	C	-1.738584	-0.000023	-0.494838
C42	C	-1.238584	0.499977	0.005162
C43	C	-1.743683	-0.000020	-0.658681
C44	C	-1.243683	0.499980	-0.158681
H45	H	-1.919906	-0.354186	-0.050237
H46	H	-1.419906	0.145814	0.449763
H47	H	-1.919956	-0.645811	-0.050239
H48	H	-1.419956	-0.145811	0.449761
Cl49	Cl	-1.621728	-0.560098	-0.349818
Cl50	Cl	-1.121728	-0.060098	0.150182
H51	H	-1.665403	-0.406236	-0.305902
H52	H	-1.165403	0.093764	0.194098
