data_functionalizedCrystal
_audit_creation_method	'MofGen! by Chris Wilmer'
_symmetry_space_group_name_H-M	'P1'
_symmetry_Int_Tables_number	1
_symmetry_cell_setting	triclinic
loop_
_symmetry_equiv_pos_as_xyz
  x,y,z
_cell_length_a	9.065218
_cell_length_b	12.996460
_cell_length_c	9.065218
_cell_angle_alpha	89.995890
_cell_angle_beta	85.015885
_cell_angle_gamma	89.993829
loop_
_atom_site_label
_atom_site_type_symbol
_atom_site_fract_x
_atom_site_fract_y
_atom_site_fract_z
O1	O	1.960405	-0.085565	0.216359
O2	O	2.460405	0.414435	0.716359
O3	O	1.531120	-0.085566	0.234106
O4	O	2.031120	0.414434	0.734106
O5	O	1.754636	-0.085563	0.010590
O6	O	2.254636	0.414437	0.510590
O7	O	1.736889	-0.085568	0.439875
O8	O	2.236889	0.414432	0.939875
O9	O	1.754609	0.085570	0.010578
O10	O	2.254609	0.585570	0.510578
O11	O	1.531094	0.085568	0.234094
O12	O	2.031094	0.585568	0.734094
O13	O	1.960379	0.085569	0.216347
O14	O	2.460379	0.585569	0.716347
Cu15	Cu	1.745734	0.101194	0.225219
Cu16	Cu	2.245734	0.601194	0.725219
Cu17	Cu	1.745765	-0.101191	0.225233
Cu18	Cu	2.245765	0.398809	0.725233
O19	O	1.736863	0.085566	0.439863
O20	O	2.236863	0.585566	0.939863
C21	C	1.476120	0.000001	0.232394
C22	C	1.976120	0.500001	0.732394
C23	C	1.312277	0.000000	0.227294
C24	C	1.812277	0.500000	0.727294
N25	N	1.745723	0.243541	0.225209
N26	N	2.245723	0.743541	0.725209
C27	C	1.745752	0.663356	0.225239
C28	C	2.245752	1.163356	0.725239
C29	C	1.745740	0.546551	0.225236
C30	C	2.245740	1.046551	0.725236
C31	C	1.745738	0.453452	0.225225
C32	C	2.245738	0.953452	0.725225
C33	C	1.745724	0.336640	0.225219
C34	C	2.245724	0.836640	0.725219
C35	C	2.015378	-0.000000	0.218059
C36	C	2.515378	0.500000	0.718059
C37	C	2.179221	-0.000006	0.223158
C38	C	2.679221	0.499994	0.723158
N39	N	1.745773	0.756462	0.225238
N40	N	2.245773	1.256462	0.725238
C41	C	1.752917	0.000002	-0.044403
C42	C	2.252917	0.500002	0.455597
C43	C	1.747817	-0.000003	-0.208245
C44	C	2.247817	0.499997	0.291755
C45	C	1.738582	-0.000001	0.494855
C46	C	2.238582	0.499999	0.994855
C47	C	1.743681	-0.000003	0.658698
C48	C	2.243681	0.499997	1.158698
