data_functionalizedCrystal
_audit_creation_method	'MofGen! by Chris Wilmer'
_symmetry_space_group_name_H-M	'P1'
_symmetry_Int_Tables_number	1
_symmetry_cell_setting	triclinic
loop_
_symmetry_equiv_pos_as_xyz
  x,y,z
_cell_length_a	12.827893
_cell_length_b	12.827892
_cell_length_c	12.827885
_cell_angle_alpha	90.029786
_cell_angle_beta	89.983682
_cell_angle_gamma	89.981825
loop_
_atom_site_label
_atom_site_type_symbol
_atom_site_fract_x
_atom_site_fract_y
_atom_site_fract_z
Zn1	Zn	1.597670	0.415905	-0.590766
Zn2	Zn	2.097670	0.915905	-0.090766
Zn3	Zn	1.597564	0.590682	-0.416027
Zn4	Zn	2.097564	1.090682	0.083973
Zn5	Zn	1.422911	0.415964	-0.416049
Zn6	Zn	1.922911	0.915964	0.083951
Zn7	Zn	1.422896	0.590613	-0.590736
Zn8	Zn	1.922896	1.090613	-0.090736
O9	O	1.510260	0.503291	-0.503394
O10	O	2.010260	1.003291	-0.003394
O11	O	1.743892	0.439094	-0.567590
O12	O	2.243892	0.939094	-0.067590
O13	O	1.574357	0.567559	-0.269793
O14	O	2.074357	1.067559	0.230207
O15	O	1.446144	0.269720	-0.439248
O16	O	1.946144	0.769720	0.060752
O17	O	1.743814	0.567502	-0.439210
O18	O	2.243814	1.067502	0.060790
O19	O	1.574538	0.269677	-0.567612
O20	O	2.074538	0.769677	-0.067612
O21	O	1.446041	0.439195	-0.269810
O22	O	1.946041	0.939195	0.230190
O23	O	1.276673	0.439128	-0.439218
O24	O	1.776673	0.939128	0.060782
O25	O	1.446118	0.567384	-0.736976
O26	O	1.946118	1.067384	-0.236976
O27	O	1.276662	0.567441	-0.567560
O28	O	1.776662	1.067441	-0.067560
O29	O	1.574524	0.439026	-0.736998
O30	O	2.074524	0.939026	-0.236998
O31	O	1.574343	0.736909	-0.439180
O32	O	2.074343	1.236909	0.060820
O33	O	1.446016	0.736858	-0.567538
O34	O	1.946016	1.236858	-0.067538
C35	C	1.238750	0.503284	-0.503388
C36	C	1.738750	1.003284	-0.003388
C37	C	1.122597	0.503307	-0.503411
C38	C	1.622597	1.003307	-0.003411
C39	C	1.510195	0.774801	-0.503376
C40	C	2.010195	1.274801	-0.003376
C41	C	1.510262	0.890954	-0.503403
C42	C	2.010262	1.390954	-0.003403
C43	C	1.510331	0.503191	-0.775965
C44	C	2.010331	1.003191	-0.275965
C45	C	1.510362	0.503148	-0.892118
C46	C	2.010362	1.003148	-0.392118
C47	C	1.782830	0.503299	-0.503401
C48	C	2.282830	1.003299	-0.003401
C49	C	1.898983	0.503302	-0.503404
C50	C	2.398983	1.003302	-0.003404
C51	C	1.950807	0.439770	-0.566925
C52	C	2.450807	0.939770	-0.066925
C53	C	2.070857	0.439771	-0.566929
C54	C	2.570857	0.939771	-0.066929
C55	C	1.510354	0.230721	-0.503436
C56	C	2.010354	0.730721	-0.003436
C57	C	1.510394	0.114568	-0.503453
C58	C	2.010394	0.614568	-0.003453
C59	C	1.573838	0.942729	-0.439958
C60	C	2.073838	1.442729	0.060042
C61	C	1.573910	1.062780	-0.439984
C62	C	2.073910	1.562780	0.060016
C63	C	1.573907	0.439620	-0.943914
C64	C	2.073907	0.939620	-0.443914
C65	C	1.573940	0.439575	-1.063964
C66	C	2.073940	0.939575	-0.563964
C67	C	1.510249	0.503316	-0.231884
C68	C	2.010249	1.003316	0.268116
C69	C	1.510422	0.503064	-0.115732
C70	C	2.010422	1.003064	0.384268
H71	H	1.906298	0.385380	-0.621309
H72	H	2.406298	0.885380	-0.121309
O73	O	1.438321	0.575145	-0.951099
O74	O	1.938321	1.075145	-0.451099
H75	H	1.391760	0.621681	-0.894896
H76	H	1.891760	1.121681	-0.394896
O77	O	1.957934	0.575353	-0.431366
O78	O	2.457934	1.075353	0.068634
H79	H	1.901711	0.621896	-0.384838
H80	H	2.401711	1.121896	0.115162
H81	H	2.078037	0.557700	-0.449023
H82	H	2.578037	1.057700	0.050977
O83	O	2.129876	0.367716	-0.638973
O84	O	2.629876	0.867716	-0.138973
H85	H	2.214906	0.379030	-0.627676
H86	H	2.714906	0.879030	-0.127676
O87	O	1.645895	0.883734	-0.367997
O88	O	2.145895	1.383734	0.132003
H89	H	1.634538	0.798699	-0.379276
H90	H	2.134538	1.298699	0.120724
H91	H	1.628348	0.385190	-1.108507
H92	H	2.128348	0.885190	-0.608507
H93	H	1.455890	0.935504	-0.557744
H94	H	1.955890	1.435504	-0.057744
H95	H	1.628336	1.107305	-0.385664
H96	H	2.128336	1.607305	0.114336
H97	H	1.455957	1.070050	-0.557770
H98	H	1.955957	1.570050	-0.057770
O99	O	1.645953	0.367622	-0.884941
O100	O	2.145953	0.867622	-0.384941
H101	H	1.634630	0.378965	-0.799903
H102	H	2.134630	0.878965	-0.299903
O103	O	1.438332	0.575109	-1.056758
O104	O	1.938332	1.075109	-0.556758
H105	H	1.485101	0.628257	-1.007013
H106	H	1.985101	1.128257	-0.507013
