data_functionalizedCrystal
_audit_creation_method	'MofGen! by Chris Wilmer'
_symmetry_space_group_name_H-M	'P1'
_symmetry_Int_Tables_number	1
_symmetry_cell_setting	triclinic
loop_
_symmetry_equiv_pos_as_xyz
  x,y,z
_cell_length_a	17.077404
_cell_length_b	17.077402
_cell_length_c	17.077396
_cell_angle_alpha	90.027432
_cell_angle_beta	90.020945
_cell_angle_gamma	90.017812
loop_
_atom_site_label
_atom_site_type_symbol
_atom_site_fract_x
_atom_site_fract_y
_atom_site_fract_z
Zn1	Zn	-1.200047	0.312645	-0.443879
Zn2	Zn	-1.199950	0.443920	-0.312615
Zn3	Zn	-1.068779	0.312657	-0.312623
Zn4	Zn	-1.068743	0.443858	-0.443835
O5	O	-1.134380	0.378270	-0.378238
O6	O	-1.309881	0.330079	-0.426481
O7	O	-1.182525	0.426538	-0.202769
O8	O	-1.086247	0.202808	-0.330056
O9	O	-1.309810	0.426527	-0.330042
O10	O	-1.182689	0.202799	-0.426489
O11	O	-1.086153	0.330100	-0.202775
O12	O	-0.958927	0.330040	-0.330014
O13	O	-1.086186	0.426421	-0.553688
O14	O	-0.958901	0.426433	-0.426415
O15	O	-1.182654	0.330019	-0.553720
O16	O	-1.182490	0.553758	-0.330000
O17	O	-1.086093	0.553713	-0.426407
C18	C	-0.930432	0.378231	-0.378211
C19	C	-0.843182	0.378234	-0.378218
C20	C	-0.467375	0.428551	-0.428364
C21	C	-0.549355	0.428544	-0.428354
C22	C	-0.590333	0.378272	-0.378240
C23	C	-0.549326	0.328011	-0.328127
C24	C	-0.467348	0.328023	-0.328134
C25	C	-0.720197	0.327988	-0.328117
C26	C	-0.802181	0.327974	-0.328111
C27	C	-0.802204	0.428509	-0.428337
C28	C	-0.720225	0.428521	-0.428344
C29	C	-0.679224	0.378258	-0.378232
C30	C	-1.134299	0.582218	-0.378215
C31	C	-1.134336	0.669467	-0.378232
C32	C	-0.339124	0.378300	-0.378260
C33	C	-0.426374	0.378292	-0.378257
C34	C	-1.184580	0.710455	-0.328088
C35	C	-1.184617	0.792436	-0.328111
C36	C	-1.134404	0.833427	-0.378275
C37	C	-1.084157	0.792433	-0.428424
C38	C	-1.084126	0.710454	-0.428404
C39	C	-1.084226	0.963303	-0.428461
C40	C	-1.084256	1.045288	-0.428480
C41	C	-1.184717	1.045284	-0.328168
C42	C	-1.184685	0.963306	-0.328148
C43	C	-1.134437	0.922318	-0.378296
C44	C	-1.134427	0.378212	-0.582982
C45	C	-1.134447	0.378187	-0.670232
C46	C	-1.134476	1.173525	-0.378289
C47	C	-1.134501	1.086276	-0.378336
C48	C	-1.184680	0.327987	-0.711240
C49	C	-1.184690	0.327961	-0.793221
C50	C	-1.134470	0.378139	-0.834192
C51	C	-1.084231	0.428342	-0.793178
C52	C	-1.084219	0.428364	-0.711199
C53	C	-1.084263	0.428295	-0.964048
C54	C	-1.084277	0.428275	-1.046033
C55	C	-1.184734	0.327892	-1.046070
C56	C	-1.184721	0.327913	-0.964091
C57	C	-1.134484	0.378117	-0.923083
C58	C	-1.134378	0.378271	-0.174290
C59	C	-1.134509	0.378074	-0.087041
H60	H	-0.835591	0.469433	-0.469142
O61	O	-0.842018	0.279063	-0.279535
C62	C	-0.889482	0.228418	-0.324301
H63	H	-0.864807	0.223644	-0.386136
H64	H	-0.951610	0.252681	-0.326958
C65	C	-0.921040	0.152636	-0.210136
C66	C	-0.890730	0.146766	-0.286081
H67	H	-0.921813	0.102270	-0.186559
H68	H	-0.889065	0.186757	-0.179975
H69	H	-0.972810	0.172858	-0.212361
H70	H	-0.838957	0.126554	-0.283854
H71	H	-0.922696	0.112640	-0.316241
H72	H	-0.686816	0.287057	-0.287312
H73	H	-0.686863	0.469453	-0.469155
O74	O	-1.035554	0.476978	-1.085955
C75	C	-1.046325	0.466175	-1.167104
H76	H	-1.106927	0.440495	-1.178317
H77	H	-0.999803	0.424338	-1.190361
C78	C	-0.964637	0.577118	-1.195415
C79	C	-1.039072	0.545584	-1.209186
H80	H	-0.960160	0.626100	-1.221374
H81	H	-0.957378	0.584396	-1.140743
H82	H	-0.925877	0.542247	-1.214796
H83	H	-1.077830	0.580450	-1.189796
H84	H	-1.046338	0.538314	-1.263856
O85	O	-0.589145	0.477281	-0.477144
C86	C	-0.569134	0.460237	-0.555409
H87	H	-0.546616	0.397533	-0.559482
H88	H	-0.521546	0.502350	-0.575857
C89	C	-0.669634	0.546447	-0.602777
C90	C	-0.641984	0.469431	-0.607780
H91	H	-0.714570	0.552122	-0.635083
H92	H	-0.683114	0.557933	-0.550049
H93	H	-0.629971	0.581533	-0.619816
H94	H	-0.681643	0.434348	-0.590732
H95	H	-0.628512	0.457940	-0.660507
H96	H	-0.582697	0.287082	-0.287319
H97	H	-0.433966	0.287094	-0.287333
H98	H	-1.225466	0.677086	-0.287236
O99	O	-1.233447	0.832129	-0.279325
C100	C	-1.277768	0.778371	-0.235056
H101	H	-1.245592	0.719959	-0.232295
H102	H	-1.337367	0.769587	-0.263851
C103	C	-1.328657	0.882160	-0.154920
C104	C	-1.289134	0.810419	-0.151523
H105	H	-1.335672	0.901930	-0.103394
H106	H	-1.298799	0.918379	-0.184746
H107	H	-1.378318	0.874830	-0.178919
H108	H	-1.239471	0.817752	-0.127533
H109	H	-1.318984	0.774202	-0.121690
H110	H	-1.043213	0.677083	-0.469237
H111	H	-1.043306	0.469234	-0.677811
O112	O	-1.233588	1.085217	-0.279612
C113	C	-1.222885	1.166363	-0.290417
H114	H	-1.197039	1.177506	-0.350934
H115	H	-1.181229	1.189764	-0.243762
C116	C	-1.334124	1.194652	-0.209170
C117	C	-1.302385	1.208339	-0.283500
H118	H	-1.383163	1.220547	-0.204899
H119	H	-1.341334	1.139983	-0.201887
H120	H	-1.299404	1.214153	-0.170298
H121	H	-1.337101	1.188829	-0.322370
H122	H	-1.295184	1.263007	-0.290789
O123	O	-1.035272	0.832162	-0.477117
C124	C	-0.957038	0.812209	-0.459872
H125	H	-0.955406	0.752710	-0.429680
H126	H	-0.930638	0.858395	-0.419502
C127	C	-0.911450	0.881475	-0.573435
C128	C	-0.909445	0.808394	-0.536358
H129	H	-0.882091	0.879125	-0.620615
H130	H	-0.964157	0.894920	-0.585052
H131	H	-0.889451	0.919956	-0.539786
H132	H	-0.931453	0.769917	-0.570004
H133	H	-0.856740	0.794942	-0.524749
H134	H	-1.225568	0.929931	-0.287297
O135	O	-1.035464	1.084987	-0.477290
C136	C	-0.991100	1.031233	-0.521541
H137	H	-1.023224	0.972769	-0.524271
H138	H	-0.931489	1.022580	-0.492750
C139	C	-0.940315	1.134987	-0.601731
C140	C	-0.979774	1.063182	-0.605089
H141	H	-0.933325	1.154695	-0.653266
H142	H	-0.970201	1.171202	-0.571916
H143	H	-0.890644	1.127766	-0.577735
H144	H	-1.029448	1.070405	-0.629076
H145	H	-0.949896	1.026968	-0.634910
O146	O	-1.035559	0.477182	-0.924240
C147	C	-1.052682	0.555411	-0.944277
H148	H	-1.115390	0.559363	-0.966839
H149	H	-1.010589	0.575920	-0.991840
C150	C	-0.966520	0.602963	-0.843727
C151	C	-1.043541	0.607819	-0.871431
H152	H	-0.960879	0.635293	-0.798793
H153	H	-0.954982	0.550260	-0.830229
H154	H	-0.931452	0.620053	-0.883369
H155	H	-1.078608	0.590720	-0.831792
H156	H	-1.055086	0.660521	-0.884920
O157	O	-1.233490	0.279168	-0.671566
C158	C	-1.277841	0.234868	-0.725344
H159	H	-1.245698	0.232130	-0.783775
H160	H	-1.337446	0.263622	-0.734070
C161	C	-1.328670	0.154696	-0.621606
C162	C	-1.289188	0.151328	-0.693370
H163	H	-1.335673	0.103166	-0.601882
H164	H	-1.298792	0.184544	-0.585374
H165	H	-1.378336	0.178661	-0.628887
H166	H	-1.239519	0.127372	-0.686086
H167	H	-1.319058	0.121474	-0.729601
H168	H	-0.434016	0.469484	-0.469177
H169	H	-1.043311	0.929933	-0.469300
O170	O	-1.233517	0.279303	-0.833148
C171	C	-1.284211	0.323985	-0.880564
H172	H	-1.256502	0.383467	-0.892823
H173	H	-1.342380	0.332625	-0.848990
C174	C	-1.332474	0.207718	-0.943392
C175	C	-1.298438	0.280772	-0.958454
H176	H	-1.341253	0.181062	-0.991437
H177	H	-1.298323	0.177614	-0.911445
H178	H	-1.380944	0.214928	-0.917078
H179	H	-1.249964	0.273561	-0.984758
H180	H	-1.332581	0.310875	-0.990408
O181	O	-1.233421	0.279052	-0.924333
C182	C	-1.216314	0.200813	-0.944402
H183	H	-1.153609	0.196839	-0.966924
H184	H	-1.258414	0.180291	-0.992004
C185	C	-1.302478	0.153318	-0.843934
C186	C	-1.225460	0.148436	-0.871590
H187	H	-1.308122	0.121008	-0.799022
H188	H	-1.314006	0.206029	-0.830415
H189	H	-1.337552	0.136218	-0.883609
H190	H	-1.190388	0.165544	-0.831919
H191	H	-1.213926	0.095726	-0.885101
H192	H	-1.225638	0.287013	-1.079463
H193	H	-1.043339	0.469196	-0.826543
