data_functionalizedCrystal
_audit_creation_method	'MofGen! by Chris Wilmer'
_symmetry_space_group_name_H-M	'P1'
_symmetry_Int_Tables_number	1
_symmetry_cell_setting	triclinic
loop_
_symmetry_equiv_pos_as_xyz
  x,y,z
_cell_length_a	16.109302
_cell_length_b	10.489741
_cell_length_c	14.586319
_cell_angle_alpha	89.996488
_cell_angle_beta	89.994552
_cell_angle_gamma	84.000477
loop_
_atom_site_label
_atom_site_type_symbol
_atom_site_fract_x
_atom_site_fract_y
_atom_site_fract_z
O1	O	1.104141	0.163951	-0.076281
O2	O	1.604141	0.663951	0.423719
O3	O	0.862205	0.184353	-0.076274
O4	O	1.362205	0.684353	0.423726
O5	O	0.988678	-0.011525	-0.076272
O6	O	1.488678	0.488475	0.423728
O7	O	0.977668	0.359830	-0.076283
O8	O	1.477668	0.859830	0.423717
O9	O	0.988669	-0.011528	0.076209
O10	O	1.488669	0.488472	0.576209
O11	O	0.862196	0.184350	0.076207
O12	O	1.362196	0.684350	0.576207
O13	O	1.104132	0.163948	0.076200
O14	O	1.604132	0.663948	0.576200
Cu15	Cu	0.983163	0.174149	0.090126
Cu16	Cu	1.483163	0.674149	0.590126
Cu17	Cu	0.983174	0.174153	-0.090200
Cu18	Cu	1.483174	0.674153	0.409800
O19	O	0.977659	0.359827	0.076198
O20	O	1.477659	0.859827	0.576198
C21	C	0.831220	0.183525	-0.000032
C22	C	1.331220	0.683525	0.499968
C23	C	0.738910	0.181047	-0.000030
C24	C	1.238910	0.681047	0.499970
C25	C	0.526529	0.175315	0.083079
C26	C	1.026529	0.675315	0.583079
C27	C	0.439794	0.172973	0.083076
C28	C	0.939794	0.672973	0.583076
C29	C	0.439815	0.172983	-0.083167
C30	C	0.939815	0.672983	0.416833
C31	C	0.526548	0.175316	-0.083163
C32	C	1.026548	0.675316	0.416837
C33	C	0.569903	0.176489	-0.000037
C34	C	1.069903	0.676489	0.499963
C35	C	0.396434	0.171813	-0.000045
C36	C	0.896434	0.671813	0.499955
C37	C	0.302393	0.169274	-0.000049
C38	C	0.802393	0.669274	0.499951
C39	C	0.663950	0.179026	-0.000033
C40	C	1.163950	0.679026	0.499967
C41	C	0.987842	-0.059046	-0.000032
C42	C	1.487842	0.440954	0.499968
C43	C	0.985354	-0.200640	-0.000034
C44	C	1.485354	0.299360	0.499966
C45	C	0.904883	-0.267613	-0.000038
C46	C	1.404883	0.232387	0.499962
C47	C	0.942892	-0.360288	0.075142
C48	C	1.442892	0.139712	0.575142
C49	C	0.942920	-0.360260	-0.075192
C50	C	1.442920	0.139740	0.424808
C51	C	1.023397	-0.291450	0.075208
C52	C	1.523397	0.208550	0.575208
C53	C	1.023413	-0.291413	-0.075194
C54	C	1.523413	0.208587	0.424806
C55	C	1.061481	-0.384061	0.000005
C56	C	1.561481	0.115939	0.500005
C57	C	1.135117	0.164776	-0.000044
C58	C	1.635117	0.664776	0.499956
C59	C	1.227427	0.167255	-0.000052
C60	C	1.727427	0.667255	0.499948
C61	C	0.978495	0.407348	-0.000044
C62	C	1.478495	0.907348	0.499956
C63	C	0.980983	0.548942	-0.000048
C64	C	1.480983	1.048942	0.499952
N65	N	0.983162	0.174146	0.216958
N66	N	1.483162	0.674146	0.716958
N67	N	0.983182	0.174146	-0.217032
N68	N	1.483182	0.674146	0.282968
C69	C	1.039183	0.087440	0.451965
C70	C	1.539183	0.587440	0.951965
C71	C	1.039186	0.087437	0.547946
C72	C	1.539186	0.587437	1.047946
C73	C	0.927154	0.260856	0.547954
C74	C	1.427154	0.760856	1.047954
C75	C	0.927149	0.260852	0.451975
C76	C	1.427149	0.760852	0.951975
C77	C	0.983168	0.174145	0.403983
C78	C	1.483168	0.674145	0.903983
C79	C	0.983176	0.174146	0.595943
C80	C	1.483176	0.674146	1.095943
C81	C	0.983178	0.174144	0.700011
C82	C	1.483178	0.674144	1.200011
C83	C	0.983165	0.174146	0.299909
C84	C	1.483165	0.674146	0.799909
H85	H	0.561864	0.176268	-0.150851
H86	H	1.061864	0.676268	0.349149
Br87	Br	0.585365	0.176902	0.195891
Br88	Br	1.085365	0.676902	0.695891
Br89	Br	1.080125	-0.240486	-0.181139
Br90	Br	1.580125	0.259514	0.318861
H91	H	0.404483	0.172018	0.150757
H92	H	0.904483	0.672018	0.650757
Br93	Br	0.851133	0.378527	0.613089
Br94	Br	1.351133	0.878527	1.113089
Br95	Br	0.886152	-0.411083	-0.181120
Br96	Br	1.386152	0.088917	0.318880
Br97	Br	0.851116	0.378522	0.386848
Br98	Br	1.351116	0.878522	0.886848
Br99	Br	1.080097	-0.240897	0.181261
Br100	Br	1.580097	0.259103	0.681261
Br101	Br	0.380974	0.171353	-0.195975
Br102	Br	0.880974	0.671353	0.304025
H103	H	0.838720	-0.217002	0.000040
H104	H	1.338720	0.282998	0.500040
Br105	Br	1.115205	-0.030245	0.613064
Br106	Br	1.615205	0.469755	1.113064
Br107	Br	1.171855	-0.468043	0.000064
Br108	Br	1.671855	0.031957	0.500064
Br109	Br	1.115207	-0.030235	0.386836
Br110	Br	1.615207	0.469765	0.886836
H111	H	0.908839	-0.390807	0.138703
H112	H	1.408839	0.109193	0.638703
