data_functionalizedCrystal
_audit_creation_method	'MofGen! by Chris Wilmer'
_symmetry_space_group_name_H-M	'P1'
_symmetry_Int_Tables_number	1
_symmetry_cell_setting	triclinic
loop_
_symmetry_equiv_pos_as_xyz
  x,y,z
_cell_length_a	6.394989
_cell_length_b	16.992694
_cell_length_c	16.053802
_cell_angle_alpha	92.750953
_cell_angle_beta	87.356563
_cell_angle_gamma	88.582967
loop_
_atom_site_label
_atom_site_type_symbol
_atom_site_fract_x
_atom_site_fract_y
_atom_site_fract_z
O1	O	-0.435392	-1.047996	-0.069315
O2	O	0.064608	-0.547996	0.430685
O3	O	-0.430522	-0.819664	-0.069340
O4	O	0.069478	-0.319664	0.430660
O5	O	-0.129434	-0.937071	-0.069328
O6	O	0.370566	-0.437071	0.430672
O7	O	-0.736480	-0.930589	-0.069327
O8	O	-0.236480	-0.430589	0.430673
O9	O	-0.145934	-0.930608	0.069530
O10	O	0.354066	-0.430608	0.569530
O11	O	-0.447022	-0.813201	0.069518
O12	O	0.052978	-0.313201	0.569518
O13	O	-0.451892	-1.041533	0.069543
O14	O	0.048108	-0.541533	0.569543
Zn15	Zn	-0.452077	-0.926341	0.091577
Zn16	Zn	0.047923	-0.426341	0.591577
Zn17	Zn	-0.430337	-0.934856	-0.091374
Zn18	Zn	0.069663	-0.434856	0.408626
O19	O	-0.752980	-0.924126	0.069531
O20	O	-0.252980	-0.424126	0.569531
C21	C	-0.432511	-0.787158	0.000086
C22	C	0.067489	-0.287158	0.500086
C23	C	-0.413828	-0.699930	0.000076
C24	C	0.086172	-0.199930	0.500076
C25	C	-0.449903	-1.074039	0.000115
C26	C	0.050097	-0.574039	0.500115
C27	C	-0.468585	-1.161268	0.000119
C28	C	0.031415	-0.661268	0.500119
N29	N	-0.466913	-0.920535	0.216437
N30	N	0.033087	-0.420535	0.716437
C31	C	-0.059648	-0.932558	0.000098
C32	C	0.440352	-0.432558	0.500098
C33	C	0.177241	-0.928641	0.000097
C34	C	0.677241	-0.428641	0.500097
N35	N	-0.415486	-0.940668	-0.216234
N36	N	0.084514	-0.440668	0.283766
C37	C	-0.594076	-0.651471	0.000077
C38	C	-0.094076	-0.151471	0.500077
C39	C	-0.576512	-0.569510	0.000089
C40	C	-0.076512	-0.069510	0.500089
C41	C	-0.378698	-0.536010	0.000093
C42	C	0.121302	-0.036010	0.500093
C43	C	-0.198436	-0.584476	0.000095
C44	C	0.301564	-0.084476	0.500095
C45	C	-0.216003	-0.666435	0.000089
C46	C	0.283997	-0.166435	0.500089
C47	C	-0.305891	-0.291692	0.000116
C48	C	0.194109	0.208308	0.500116
C49	C	-0.288337	-0.209727	0.000119
C50	C	0.211663	0.290273	0.500119
C51	C	-0.666415	-0.194766	0.000114
C52	C	-0.166415	0.305234	0.500114
C53	C	-0.683964	-0.276728	0.000103
C54	C	-0.183964	0.223272	0.500103
C55	C	-0.503703	-0.325186	0.000109
C56	C	-0.003703	0.174814	0.500109
N57	N	-0.360739	-0.452234	0.000102
N58	N	0.139261	0.047766	0.500102
N59	N	-0.521664	-0.408961	0.000106
N60	N	-0.021664	0.091039	0.500106
C61	C	-0.338851	-0.970511	0.260136
C62	C	0.161149	-0.470511	0.760136
C63	C	-0.349250	-0.966457	0.347542
C64	C	0.150750	-0.466457	0.847542
C65	C	-0.487723	-0.912431	0.391248
C66	C	0.012277	-0.412431	0.891248
C67	C	-0.615790	-0.862449	0.347543
C68	C	-0.115790	-0.362449	0.847543
C69	C	-0.605379	-0.866500	0.260138
C70	C	-0.105379	-0.366500	0.760138
C71	C	-0.533141	-0.894737	0.652656
C72	C	-0.033141	-0.394737	1.152656
C73	C	-0.543548	-0.890692	0.740067
C74	C	-0.043548	-0.390692	1.240067
C75	C	-0.277004	-0.994700	0.740060
C76	C	0.222996	-0.494700	1.240060
C77	C	-0.266614	-0.998749	0.652654
C78	C	0.233386	-0.498749	1.152654
C79	C	-0.394673	-0.948764	0.608956
C80	C	0.105327	-0.448764	1.108956
N81	N	-0.498361	-0.908288	0.480591
N82	N	0.001639	-0.408288	0.980591
N83	N	-0.384023	-0.952904	0.519615
N84	N	0.115977	-0.452904	1.019615
H85	H	-0.755158	-0.678739	0.000073
H86	H	-0.255158	-0.178739	0.500073
H87	H	-0.226101	-1.014509	0.224557
H88	H	0.273899	-0.514509	0.724557
F89	F	-0.140718	-1.047891	0.786572
F90	F	0.359282	-0.547891	1.286572
H91	H	-0.728530	-0.818456	0.383133
H92	H	-0.228530	-0.318456	0.883133
H93	H	-0.723290	-0.530057	0.000088
H94	H	-0.223290	-0.030057	0.500088
F95	F	0.012094	-0.548821	0.000105
F96	F	0.512094	-0.048821	0.500105
H97	H	-0.127244	-0.182455	0.000122
H98	H	0.372756	0.317545	0.500122
H99	H	-0.159108	-0.331137	0.000121
H100	H	0.340892	0.168863	0.500121
H101	H	-0.656317	-0.846695	0.775648
H102	H	-0.156317	-0.346695	1.275648
F103	F	-0.024158	-0.718009	0.000092
F104	F	0.475842	-0.218009	0.500092
H105	H	-0.153858	-1.042741	0.617070
H106	H	0.346142	-0.542741	1.117070
F107	F	-0.212951	-1.019646	0.394051
F108	F	0.287049	-0.519646	0.894051
F109	F	-0.669436	-0.841543	0.606156
F110	F	-0.169436	-0.341543	1.106156
H111	H	-0.845044	-0.303997	0.000090
H112	H	-0.345044	0.196003	0.500090
F113	F	-0.858248	-0.143189	0.000109
F114	F	-0.358248	0.356811	0.500109
H115	H	-0.709658	-0.825803	0.224559
H116	H	-0.209658	-0.325803	0.724559
