data_functionalizedCrystal
_audit_creation_method	'MofGen! by Chris Wilmer'
_symmetry_space_group_name_H-M	'P1'
_symmetry_Int_Tables_number	1
_symmetry_cell_setting	triclinic
loop_
_symmetry_equiv_pos_as_xyz
  x,y,z
_cell_length_a	8.559649
_cell_length_b	19.188924
_cell_length_c	7.681481
_cell_angle_alpha	84.275467
_cell_angle_beta	94.913240
_cell_angle_gamma	76.460314
loop_
_atom_site_label
_atom_site_type_symbol
_atom_site_fract_x
_atom_site_fract_y
_atom_site_fract_z
O1	O	2.105138	-0.016273	-0.146399
O2	O	1.639678	0.019799	-0.146412
O3	O	1.885848	-0.100597	-0.146384
O4	O	1.858968	0.104122	-0.146426
O5	O	1.916148	-0.115446	0.146477
O6	O	1.669978	0.004950	0.146449
O7	O	2.135437	-0.031122	0.146463
Zn8	Zn	1.907519	-0.015443	0.192954
Zn9	Zn	1.867597	0.004120	-0.192903
O10	O	1.889268	0.089274	0.146435
C11	C	1.595279	0.015108	0.000017
C12	C	1.417841	0.023245	0.000013
C13	C	1.900130	-0.133987	0.000048
C14	C	1.897523	-0.211356	0.000053
C15	C	1.879790	-0.239597	-0.159586
C16	C	1.877316	-0.312290	-0.159600
C17	C	1.892609	-0.356743	0.000035
C18	C	1.910335	-0.328493	0.159695
C19	C	1.912792	-0.255799	0.159704
N20	N	1.992007	-0.486984	0.118850
N21	N	1.989675	-0.556040	0.118830
C22	C	1.885203	-0.575764	0.000018
N23	N	1.783168	-0.523824	-0.118802
N24	N	1.785507	-0.454763	-0.118788
C25	C	1.889945	-0.435567	0.000043
C26	C	1.864784	-0.682826	-0.159647
C27	C	1.862301	-0.755519	-0.159654
C28	C	1.895337	-0.771723	0.159646
C29	C	1.897803	-0.699029	0.159648
C30	C	1.882534	-0.654585	-0.000003
C31	C	2.179837	-0.026431	0.000030
C32	C	2.357273	-0.034568	0.000022
C33	C	1.874986	0.122664	-0.000001
C34	C	1.877591	0.200033	-0.000017
N35	N	1.934775	-0.028796	0.456291
N36	N	1.840353	0.017467	-0.456241
H37	H	1.441163	-0.090289	0.000025
O38	O	1.712650	0.080006	0.444136
H39	H	1.771163	0.114534	0.360098
O40	O	1.863281	-0.191661	-0.331781
H41	H	1.963800	-0.213795	-0.408345
O42	O	1.848288	-0.634885	-0.331838
H43	H	1.852997	-0.579594	-0.305014
O44	O	1.306729	0.097063	0.000010
H45	H	1.180123	0.092088	0.000024
O46	O	2.062469	-0.091345	0.555922
H47	H	2.183426	-0.087392	0.520622
H48	H	1.907776	-0.807914	0.289623
H49	H	1.862865	-0.335287	-0.289601
H50	H	1.927227	-0.232806	0.289705
O51	O	1.926859	-0.376435	0.331879
H52	H	1.922198	-0.431732	0.305055
H53	H	1.847852	-0.778510	-0.289656
H54	H	1.912257	-0.676037	0.289644
