data_functionalizedCrystal
_audit_creation_method	'MofGen! by Chris Wilmer'
_symmetry_space_group_name_H-M	'P1'
_symmetry_Int_Tables_number	1
_symmetry_cell_setting	triclinic
loop_
_symmetry_equiv_pos_as_xyz
  x,y,z
_cell_length_a	20.299480
_cell_length_b	20.298645
_cell_length_c	20.294903
_cell_angle_alpha	60.007695
_cell_angle_beta	60.015306
_cell_angle_gamma	59.991039
loop_
_atom_site_label
_atom_site_type_symbol
_atom_site_fract_x
_atom_site_fract_y
_atom_site_fract_z
O1	O	0.091305	-0.962534	0.804873
O2	O	0.034397	-0.749399	0.648508
O3	O	0.169355	-0.884263	0.648401
O4	O	-0.043654	-0.827670	0.804979
O5	O	0.214132	-0.839502	0.693072
O6	O	0.079173	-0.704639	0.693178
O7	O	0.136081	-0.917774	0.849544
Zn8	Zn	0.114736	-0.804099	0.778453
Zn9	Zn	0.055742	-0.863073	0.719598
O10	O	0.001122	-0.782910	0.849650
N11	N	0.155000	-0.763857	0.818624
N12	N	0.015485	-0.903322	0.679427
C13	C	0.179343	-0.615641	0.842971
C14	C	0.179443	-0.739552	0.966834
C15	C	0.303264	-0.739536	0.842917
C16	C	0.179356	-0.739528	0.842952
C17	C	0.210353	-0.708565	0.873918
C18	C	-0.132622	-0.927446	0.654695
C19	C	-0.008595	-0.927622	0.530981
C20	C	-0.008820	-1.051459	0.654914
C21	C	-0.008800	-0.927618	0.654995
C22	C	-0.039709	-0.958538	0.623897
N23	N	0.376268	-0.763873	0.818558
O24	O	0.652281	-0.777347	0.619856
O25	O	0.652556	-0.934198	0.832777
O26	O	0.652445	-0.933836	0.697731
O27	O	0.652392	-0.777709	0.754902
O28	O	0.518259	-0.889182	0.742556
O29	O	0.518369	-0.889544	0.877602
O30	O	0.518095	-0.732693	0.664680
Zn31	Zn	0.496927	-0.804029	0.778258
Zn32	Zn	0.673724	-0.862862	0.719200
O33	O	0.518205	-0.733055	0.799726
N34	N	0.794383	-0.903019	0.678891
N35	N	0.154981	-0.542636	0.818657
O36	O	-0.043628	-0.266455	0.805024
O37	O	0.169291	-0.266451	0.648191
O38	O	0.034217	-0.266468	0.648577
O39	O	0.091446	-0.266438	0.804638
O40	O	0.078998	-0.400670	0.693303
O41	O	0.214071	-0.400653	0.692918
O42	O	0.001152	-0.400657	0.849750
Zn43	Zn	0.114722	-0.421963	0.778435
Zn44	Zn	0.055722	-0.245145	0.719506
O45	O	0.136226	-0.400640	0.849364
N46	N	0.015453	-0.124472	0.679286
N47	N	0.155155	-0.763898	1.039838
O48	O	0.141555	-0.962488	1.315987
O49	O	-0.015254	-0.749480	1.316022
O50	O	-0.014890	-0.884527	1.315962
O51	O	0.141192	-0.827441	1.316047
O52	O	0.029815	-0.839777	1.181768
O53	O	0.029452	-0.704730	1.181828
O54	O	0.186261	-0.917739	1.181793
Zn55	Zn	0.114954	-0.804130	1.160504
Zn56	Zn	0.056053	-0.863089	1.337311
O57	O	0.185897	-0.782692	1.181853
N58	N	0.015850	-0.903330	1.457977
C59	C	0.051451	-0.700162	0.649301
C60	C	0.218580	-0.867175	0.649169
C61	C	0.119026	-0.967011	0.848750
C62	C	-0.048103	-0.799998	0.848882
C63	C	0.585495	-0.933471	0.882014
C64	C	0.585361	-0.933023	0.714775
C65	C	0.585151	-0.733419	0.615444
C66	C	0.585291	-0.733869	0.782682
C67	C	0.218449	-0.333386	0.648902
C68	C	0.051232	-0.333573	0.649435
C69	C	-0.048061	-0.333556	0.848984
C70	C	0.119212	-0.333537	0.848507
C71	C	-0.014496	-0.700269	1.248929
C72	C	-0.014037	-0.867500	1.248828
C73	C	0.185503	-0.966949	1.248886
C74	C	0.185054	-0.799709	1.248957
H75	H	0.279759	-0.879241	0.599998
O76	O	0.243480	-0.785000	1.248939
C77	C	0.214085	-0.705688	1.248982
H78	H	0.162283	-0.667497	1.223574
H79	H	0.191593	-0.706879	1.313369
C80	C	0.345958	-0.715936	1.227581
C81	C	0.282338	-0.669028	1.196367
H82	H	0.388060	-0.693323	1.195129
H83	H	0.365762	-0.769371	1.227555
H84	H	0.327204	-0.716924	1.281236
H85	H	0.301090	-0.668048	1.142717
H86	H	0.262538	-0.615591	1.196383
H87	H	0.585279	-0.684826	0.794916
H88	H	-0.109209	-0.333558	0.898221
H89	H	0.131466	-0.333527	0.897533
H90	H	0.279471	-0.333012	0.599542
H91	H	0.039295	-0.638935	0.600193
H92	H	-0.063726	-0.639093	1.248939
O93	O	-0.072615	-0.881914	1.248766
C94	C	-0.142230	-0.812595	1.248725
H95	H	-0.141573	-0.774088	1.274195
H96	H	-0.143162	-0.776156	1.184330
C97	C	-0.218708	-0.885409	1.269980
C98	C	-0.217905	-0.838117	1.301268
H99	H	-0.265388	-0.901151	1.302388
H100	H	-0.171807	-0.932110	1.270005
H101	H	-0.219482	-0.855036	1.216318
H102	H	-0.217121	-0.868494	1.354925
H103	H	-0.264808	-0.791422	1.301254
O104	O	0.133643	-1.040107	0.907240
C105	C	0.212943	-1.090156	0.877975
H106	H	0.234223	-1.068169	0.809247
H107	H	0.254688	-1.087939	0.898396
C108	C	0.188293	-1.204528	0.995677
C109	C	0.214426	-1.177527	0.911264
H110	H	0.189210	-1.258424	1.016213
H111	H	0.134868	-1.170809	1.015395
H112	H	0.223084	-1.202674	1.012683
H113	H	0.179630	-1.179372	0.894259
H114	H	0.267846	-1.211248	0.891544
H115	H	-0.109285	-0.787936	0.898049
O116	O	0.036603	-0.333445	0.590877
C117	C	0.045543	-0.263957	0.522821
H118	H	0.036814	-0.215366	0.542115
H119	H	0.108528	-0.279675	0.477096
C120	C	-0.007264	-0.292141	0.460486
C121	C	-0.017991	-0.232457	0.484185
H122	H	-0.046451	-0.272711	0.436651
H123	H	-0.013284	-0.338958	0.506335
H124	H	0.045226	-0.305233	0.422386
H125	H	-0.070476	-0.219373	0.522292
H126	H	-0.011981	-0.185637	0.438342
O127	O	0.585729	-0.992240	0.954931
C128	C	0.655240	-1.010931	0.969383
H129	H	0.703760	-0.993037	0.909478
H130	H	0.639534	-0.976370	1.008389
C131	C	0.627250	-1.124181	1.086975
C132	C	0.686846	-1.102210	1.013399
H133	H	0.646745	-1.180485	1.114130
H134	H	0.580417	-1.111588	1.077241
H135	H	0.614167	-1.095373	1.119471
H136	H	0.699921	-1.131010	0.980901
H137	H	0.733682	-1.114811	1.023129
O138	O	0.585348	-0.991437	0.700063
C139	C	0.585285	-0.962047	0.620754
H140	H	0.559821	-0.893315	0.599551
H141	H	0.649644	-0.982420	0.578974
C142	C	0.563951	-1.079682	0.645241
C143	C	0.532669	-0.995266	0.619202
H144	H	0.531499	-1.100176	0.644282
H145	H	0.563997	-1.099485	0.698672
H146	H	0.617583	-1.096649	0.610421
H147	H	0.479043	-0.978300	0.654028
H148	H	0.532614	-0.975461	0.565776
O149	O	0.585082	-0.674765	0.542442
C150	C	0.585034	-0.703807	0.492233
H151	H	0.610507	-0.772539	0.514049
H152	H	0.520640	-0.683334	0.494464
C153	C	0.606272	-0.585921	0.378111
C154	C	0.637564	-0.670339	0.404901
H155	H	0.638672	-0.565274	0.324240
H156	H	0.606301	-0.566353	0.411938
H157	H	0.552611	-0.568871	0.379977
H158	H	0.691220	-0.687387	0.403045
H159	H	0.637545	-0.689909	0.371072
H160	H	0.234736	-1.028122	1.248866
