data_functionalizedCrystal
_audit_creation_method	'MofGen! by Chris Wilmer'
_symmetry_space_group_name_H-M	'P1'
_symmetry_Int_Tables_number	1
_symmetry_cell_setting	triclinic
loop_
_symmetry_equiv_pos_as_xyz
  x,y,z
_cell_length_a	14.519731
_cell_length_b	10.723023
_cell_length_c	9.798715
_cell_angle_alpha	89.997861
_cell_angle_beta	89.996220
_cell_angle_gamma	84.078200
loop_
_atom_site_label
_atom_site_type_symbol
_atom_site_fract_x
_atom_site_fract_y
_atom_site_fract_z
O1	O	1.224690	0.163698	-0.113491
O2	O	0.956314	0.182934	-0.113493
O3	O	1.096693	-0.008318	-0.113486
O4	O	1.084311	0.354949	-0.113497
O5	O	1.096683	-0.008318	0.113496
O6	O	0.956304	0.182933	0.113490
O7	O	1.224680	0.163698	0.113491
Zn8	Zn	1.090490	0.173315	0.149529
Zn9	Zn	1.090504	0.173316	-0.149530
O10	O	1.084301	0.354949	0.113485
C11	C	0.921945	0.182032	-0.000002
C12	C	0.819551	0.179331	-0.000002
C13	C	1.095787	-0.054809	0.000004
C14	C	1.093092	-0.193338	-0.000001
C15	C	1.091895	-0.255093	-0.117586
C16	C	1.089110	-0.398270	-0.117594
C17	C	0.736396	0.177137	-0.000008
C18	C	0.632073	0.174395	-0.000008
C19	C	0.548923	0.172218	-0.000008
C20	C	0.444593	0.169476	-0.000011
C21	C	1.259049	0.164599	-0.000003
C22	C	1.361443	0.167300	-0.000011
C23	C	1.085207	0.401441	-0.000008
C24	C	1.087902	0.539970	-0.000012
N25	N	1.090487	0.173314	0.353628
N26	N	1.090514	0.173307	-0.353630
C27	C	1.149429	0.092662	0.421408
C28	C	1.149443	0.092657	0.578571
H29	H	1.092930	-0.201964	-0.218250
H30	H	1.088936	-0.406932	0.100662
H31	H	1.040033	0.242356	0.411951
H32	H	1.088085	-0.451378	-0.218263
Cl33	Cl	1.091481	-0.275352	0.155425
Cl34	Cl	1.227115	-0.014226	0.331373
Cl35	Cl	1.227362	-0.013949	0.668557
H36	H	1.040053	0.242365	0.588091
