data_functionalizedCrystal
_audit_creation_method	'MofGen! by Chris Wilmer'
_symmetry_space_group_name_H-M	'P1'
_symmetry_Int_Tables_number	1
_symmetry_cell_setting	triclinic
loop_
_symmetry_equiv_pos_as_xyz
  x,y,z
_cell_length_a	23.532407
_cell_length_b	19.288865
_cell_length_c	22.010155
_cell_angle_alpha	89.990247
_cell_angle_beta	90.018154
_cell_angle_gamma	97.007538
loop_
_atom_site_label
_atom_site_type_symbol
_atom_site_fract_x
_atom_site_fract_y
_atom_site_fract_z
O1	O	0.755444	-0.084316	0.050566
O2	O	0.589606	-0.096517	0.050561
O3	O	0.677317	0.010729	0.050552
O4	O	0.667733	-0.191562	0.050575
O5	O	0.677290	0.010729	-0.050499
O6	O	0.589579	-0.096517	-0.050490
O7	O	0.755417	-0.084317	-0.050484
Cu8	Cu	0.672496	-0.090417	-0.059714
Cu9	Cu	0.672527	-0.090417	0.059790
O10	O	0.667706	-0.191562	-0.050475
C11	C	0.568376	-0.096206	0.000035
C12	C	0.505157	-0.095272	0.000032
C13	C	0.776647	-0.084627	0.000043
C14	C	0.839866	-0.085561	0.000050
C15	C	0.676995	0.036604	0.000025
C16	C	0.676069	0.113705	0.000019
C17	C	1.238850	-0.027954	0.000022
C18	C	1.298252	-0.028822	0.000019
O19	O	1.334886	0.024580	-0.000009
N20	N	1.321010	-0.092579	0.000028
C21	C	1.284363	-0.155473	0.000034
O22	O	1.309175	-0.209783	0.000041
C23	C	1.224962	-0.154604	0.000032
C24	C	1.202207	-0.090843	0.000029
C25	C	1.216094	0.035802	0.000018
C26	C	1.156696	0.036669	0.000022
C27	C	1.120054	-0.026220	0.000029
C28	C	1.142809	-0.089976	0.000033
C29	C	1.188316	-0.217497	0.000034
C30	C	1.128912	-0.216623	0.000032
C31	C	1.106157	-0.152862	0.000028
C32	C	1.046769	-0.151997	0.000044
N33	N	1.024011	-0.088240	0.000035
C34	C	1.060653	-0.025351	0.000028
C35	C	1.409109	-0.157292	0.000037
C36	C	1.468509	-0.158161	0.000043
C37	C	1.482394	-0.031510	0.000027
C38	C	1.422993	-0.030641	0.000025
C39	C	1.386351	-0.093535	0.000028
C40	C	0.935913	-0.023534	0.000036
C41	C	0.876509	-0.022672	0.000042
C42	C	0.862629	-0.149323	0.000055
C43	C	0.922028	-0.150185	0.000052
C44	C	0.958669	-0.087285	0.000040
O45	O	1.010100	-0.205371	0.000070
O46	O	1.035833	0.028950	0.000012
C47	C	0.668028	-0.217437	0.000053
C48	C	0.668954	-0.294538	0.000063
N49	N	0.672478	-0.090416	-0.143766
C50	C	0.727534	0.158560	0.000018
C51	C	0.726664	0.231004	0.000027
C52	C	0.674327	0.258590	0.000026
C53	C	0.622855	0.213725	0.000031
C54	C	0.623727	0.141283	0.000027
C55	C	0.633174	0.366751	-0.035371
C56	C	0.632306	0.439193	-0.035371
C57	C	0.671638	0.482028	0.000040
C58	C	0.711849	0.452413	0.035443
C59	C	0.712720	0.379971	0.035439
C60	C	0.673377	0.337141	0.000030
C61	C	0.722163	0.605436	0.000050
C62	C	0.721292	0.677881	0.000063
C63	C	0.617481	0.660601	0.000060
C64	C	0.618354	0.588157	0.000053
C65	C	0.670697	0.560579	0.000045
C66	C	0.706959	-0.132323	-0.563539
C67	C	0.706966	-0.132321	-0.627147
O68	O	0.736263	-0.167948	-0.660033
N69	N	0.672538	-0.090409	-0.658973
C70	C	0.638106	-0.048489	-0.627189
O71	O	0.608823	-0.012838	-0.660100
C72	C	0.638102	-0.048488	-0.563582
C73	C	0.672528	-0.090409	-0.531759
C74	C	0.741383	-0.174240	-0.531716
C75	C	0.741375	-0.174243	-0.468113
C76	C	0.706944	-0.132328	-0.436333
C77	C	0.672521	-0.090411	-0.468156
C78	C	0.603673	-0.006565	-0.531799
C79	C	0.603673	-0.006567	-0.468188
C80	C	0.638099	-0.048488	-0.436365
C81	C	0.638082	-0.048500	-0.372773
N82	N	0.672510	-0.090412	-0.340946
C83	C	0.706941	-0.132327	-0.372726
C84	C	0.638116	-0.048495	-0.760767
C85	C	0.638116	-0.048500	-0.824372
C86	C	0.706977	-0.132331	-0.824325
C87	C	0.706974	-0.132329	-0.760719
C88	C	0.672544	-0.090408	-0.728940
C89	C	0.706922	-0.132330	-0.239155
C90	C	0.706909	-0.132331	-0.175546
C91	C	0.638050	-0.048497	-0.175598
C92	C	0.638060	-0.048498	-0.239201
C93	C	0.672501	-0.090417	-0.270978
O94	O	0.608802	-0.012889	-0.339846
O95	O	0.736224	-0.167965	-0.339807
N96	N	0.672549	-0.090411	0.143843
H97	H	0.857986	0.029252	0.000041
F98	F	0.567031	0.038058	-0.434371
H99	H	0.764784	0.582981	0.000046
F100	F	0.567154	0.243085	0.000033
F101	F	1.089917	-0.283565	0.000032
F102	F	0.743577	-0.176944	-0.272965
H103	H	0.610021	-0.014372	-0.265113
F104	F	0.783242	0.129214	0.000022
F105	F	0.743616	-0.176945	-0.726856
H106	H	0.575641	0.027572	-0.557699
F107	F	1.398781	0.037221	0.000020
H108	H	0.581816	0.104761	0.000028
F109	F	0.743625	-0.176938	-0.858159
H110	H	0.610073	-0.014360	-0.734896
F111	F	0.591309	0.321169	-0.073064
H112	H	0.610076	-0.014372	-0.850277
F113	F	0.561779	0.689955	0.000062
F114	F	1.255084	0.102743	0.000008
H115	H	0.610016	-0.014373	-0.149711
H116	H	0.965739	0.027685	0.000027
F117	F	0.776071	0.725620	0.000065
H118	H	0.576446	0.551635	0.000051
H119	H	1.138175	0.088590	0.000017
H120	H	0.940555	-0.202105	0.000055
H121	H	1.512239	0.019698	0.000021
F122	F	0.778009	-0.218870	-0.434252
F123	F	1.492720	-0.226024	0.000058
F124	F	1.370116	-0.224236	0.000046
H125	H	0.832784	-0.200525	0.000064
F126	F	1.212520	-0.285362	0.000037
F127	F	0.781443	0.278751	0.000027
H128	H	0.745461	0.355862	0.064267
H129	H	0.743877	0.487289	0.064278
F130	F	0.743548	-0.176955	-0.141681
F131	F	0.589512	0.470704	-0.073052
H132	H	0.769424	-0.208372	-0.557585
