data_functionalizedCrystal
_audit_creation_method	'MofGen! by Chris Wilmer'
_symmetry_space_group_name_H-M	'P1'
_symmetry_Int_Tables_number	1
_symmetry_cell_setting	triclinic
loop_
_symmetry_equiv_pos_as_xyz
  x,y,z
_cell_length_a	15.995300
_cell_length_b	15.995292
_cell_length_c	13.101039
_cell_angle_alpha	93.364742
_cell_angle_beta	86.641414
_cell_angle_gamma	83.470212
loop_
_atom_site_label
_atom_site_type_symbol
_atom_site_fract_x
_atom_site_fract_y
_atom_site_fract_z
O1	O	1.115598	0.103105	-0.085245
O2	O	1.615598	0.603105	0.414755
O3	O	0.871814	0.116477	-0.085238
O4	O	1.371814	0.616477	0.414762
O5	O	1.000396	-0.012101	-0.085243
O6	O	1.500396	0.487899	0.414757
O7	O	0.987017	0.231683	-0.085240
O8	O	1.487017	0.731683	0.414760
O9	O	0.991170	-0.002861	0.085187
O10	O	1.491170	0.497139	0.585187
O11	O	0.862588	0.125718	0.085192
O12	O	1.362588	0.625718	0.585192
O13	O	1.106373	0.112346	0.085185
O14	O	1.606373	0.612346	0.585185
Zn15	Zn	0.983016	0.120499	0.112248
Zn16	Zn	1.483016	0.620499	0.612248
Zn17	Zn	0.995171	0.108324	-0.112301
Zn18	Zn	1.495171	0.608324	0.387699
O19	O	0.977791	0.240924	0.085190
O20	O	1.477791	0.740924	0.585190
C21	C	0.995238	-0.038677	-0.000031
C22	C	1.495238	0.461323	0.499969
C23	C	0.993606	-0.131630	-0.000039
C24	C	1.493606	0.368370	0.499961
C25	C	0.836006	0.120552	-0.000022
C26	C	1.336006	0.620552	0.499978
C27	C	0.743053	0.118917	-0.000020
C28	C	1.243053	0.618917	0.499980
C29	C	0.987604	-0.469366	-0.000029
C30	C	1.487604	0.030634	0.499971
C31	C	1.080391	-0.446050	0.000349
C32	C	1.580391	0.053950	0.500349
C33	C	1.082175	-0.349396	-0.000039
C34	C	1.582175	0.150604	0.499961
C35	C	0.990583	-0.301811	-0.000033
C36	C	1.490583	0.198189	0.499967
C37	C	0.949452	-0.336181	-0.097353
C38	C	1.449452	0.163819	0.402647
C39	C	0.948339	-0.432975	-0.097430
C40	C	1.448339	0.067025	0.402570
C41	C	0.935952	-0.422324	0.096381
C42	C	1.435952	0.077676	0.596381
C43	C	0.939322	-0.325762	0.097663
C44	C	1.439322	0.174238	0.597663
C45	C	0.992261	-0.207116	-0.000039
C46	C	1.492261	0.292884	0.499961
C47	C	0.985924	-0.564062	-0.000030
C48	C	1.485924	-0.064062	0.499970
C49	C	0.572871	0.115897	-0.000028
C50	C	1.072871	0.615897	0.499972
C51	C	0.525386	0.207448	-0.000024
C52	C	1.025386	0.707448	0.499976
C53	C	0.428720	0.205757	-0.000414
C54	C	0.928720	0.705757	0.499586
C55	C	0.405316	0.112925	-0.000034
C56	C	0.905316	0.612925	0.499966
C57	C	0.451716	0.062237	-0.097167
C58	C	0.951716	0.562237	0.402833
C59	C	0.548353	0.064550	-0.097246
C60	C	1.048353	0.564550	0.402754
C61	C	0.538141	0.073703	0.096572
C62	C	1.038141	0.573703	0.596572
C63	C	0.441128	0.073780	0.097846
C64	C	0.941128	0.573780	0.597846
C65	C	0.310621	0.111240	-0.000042
C66	C	0.810621	0.611240	0.499958
C67	C	0.667567	0.117579	-0.000027
C68	C	1.167567	0.617579	0.499973
C69	C	1.142181	0.108270	-0.000033
C70	C	1.642181	0.608270	0.499967
C71	C	1.235134	0.109905	-0.000042
C72	C	1.735134	0.609905	0.499958
C73	C	0.982948	0.267499	-0.000025
C74	C	1.482948	0.767499	0.499975
C75	C	0.984581	0.360452	-0.000024
C76	C	1.484581	0.860452	0.499976
N77	N	0.974726	0.128807	0.265497
N78	N	1.474726	0.628807	0.765497
N79	N	1.003467	0.100009	-0.265550
N80	N	1.503467	0.600009	0.234450
C81	C	0.963448	0.140119	0.474540
C82	C	1.463448	0.640119	0.974540
C83	C	1.014742	0.088700	0.525413
C84	C	1.514742	0.588700	1.025413
C85	C	1.008467	0.094994	0.641732
C86	C	1.508467	0.594994	1.141732
C87	C	0.969722	0.133826	0.358211
C88	C	1.469722	0.633826	0.858211
H89	H	1.114737	-0.326595	0.069722
H90	H	1.614737	0.173405	0.569722
H91	H	0.914825	0.188865	0.518339
H92	H	1.414825	0.688865	1.018339
H93	H	1.122511	-0.334787	-0.069925
H94	H	1.622511	0.165213	0.430075
H95	H	1.112385	-0.470270	0.070141
H96	H	1.612385	0.029730	0.570141
Cl97	Cl	0.548652	0.270287	0.107049
Cl98	Cl	1.048652	0.770287	0.607049
Cl99	Cl	1.005252	-0.311288	-0.209180
Cl100	Cl	1.505252	0.188712	0.290820
H101	H	0.570610	0.093333	-0.170128
H102	H	1.070610	0.593333	0.329872
H103	H	1.119721	-0.478837	-0.069053
H104	H	1.619721	0.021163	0.430947
Cl105	Cl	0.598552	-0.039587	-0.103650
Cl106	Cl	1.098552	0.460413	0.396350
H107	H	0.437811	-0.006169	-0.100507
H108	H	0.937811	0.493831	0.399493
Cl109	Cl	1.004038	-0.480481	-0.209749
Cl110	Cl	1.504038	0.019519	0.290251
Cl111	Cl	0.563625	0.126403	0.210275
Cl112	Cl	1.063625	0.626403	0.710275
H113	H	0.867604	-0.436266	0.097040
H114	H	1.367604	0.063734	0.597040
Cl115	Cl	0.414029	0.104309	-0.209194
Cl116	Cl	0.914029	0.604309	0.290806
Cl117	Cl	1.090139	0.013756	0.457789
Cl118	Cl	1.590139	0.513756	0.957789
H119	H	0.880531	-0.447752	-0.101836
H120	H	1.380531	0.052248	0.398164
H121	H	0.882247	-0.304497	-0.100967
H122	H	1.382247	0.195503	0.399033
Cl123	Cl	0.561455	0.257586	-0.107403
Cl124	Cl	1.061455	0.757586	0.392597
Cl125	Cl	0.378941	0.266695	0.107057
Cl126	Cl	0.878941	0.766695	0.607057
Cl127	Cl	0.416950	-0.030222	0.107351
Cl128	Cl	0.916950	0.469778	0.607351
Cl129	Cl	0.974615	-0.459846	0.210267
Cl130	Cl	1.474615	0.040154	0.710267
Cl131	Cl	0.587167	-0.030424	0.098029
Cl132	Cl	1.087167	0.469576	0.598029
H133	H	0.404656	0.237496	-0.070447
H134	H	0.904656	0.737496	0.429553
Cl135	Cl	0.835610	-0.274353	0.106746
Cl136	Cl	1.335610	0.225647	0.606746
H137	H	0.969210	-0.303299	0.169659
H138	H	1.469210	0.196701	0.669659
H139	H	0.409891	0.110846	0.169706
H140	H	0.909891	0.610846	0.669706
