data_functionalizedCrystal
_audit_creation_method	'MofGen! by Chris Wilmer'
_symmetry_space_group_name_H-M	'P1'
_symmetry_Int_Tables_number	1
_symmetry_cell_setting	triclinic
loop_
_symmetry_equiv_pos_as_xyz
  x,y,z
_cell_length_a	12.827893
_cell_length_b	13.897448
_cell_length_c	12.827885
_cell_angle_alpha	89.967724
_cell_angle_beta	89.980728
_cell_angle_gamma	90.017663
loop_
_atom_site_label
_atom_site_type_symbol
_atom_site_fract_x
_atom_site_fract_y
_atom_site_fract_z
Zn1	Zn	1.597653	-0.383969	-0.590831
Zn2	Zn	1.597540	-0.545295	-0.416083
Zn3	Zn	1.422894	-0.384016	-0.416104
Zn4	Zn	1.422873	-0.545224	-0.590783
O5	O	1.510240	-0.464626	-0.503450
O6	O	1.743874	-0.405380	-0.567661
O7	O	1.574335	-0.523951	-0.269850
O8	O	1.446133	-0.249028	-0.439311
O9	O	1.743791	-0.523905	-0.439275
O10	O	1.574527	-0.248994	-0.567681
O11	O	1.446023	-0.405460	-0.269865
O12	O	1.276655	-0.405390	-0.439265
O13	O	1.446096	-0.523783	-0.737026
O14	O	1.276639	-0.523829	-0.567601
O15	O	1.574506	-0.405310	-0.737060
O16	O	1.574314	-0.680267	-0.439229
O17	O	1.445986	-0.680215	-0.567580
C18	C	1.238730	-0.464607	-0.503430
C19	C	1.122577	-0.464623	-0.503447
C20	C	1.070812	-0.523321	-0.566853
C21	C	0.950762	-0.523338	-0.566872
C22	C	1.510164	-0.715240	-0.503420
C23	C	1.510227	-0.822454	-0.503442
C24	C	1.510336	-1.018749	-0.503508
C25	C	1.510272	-0.909517	-0.503474
C26	C	1.782810	-0.464645	-0.503471
C27	C	1.898963	-0.464654	-0.503480
C28	C	1.510311	-0.464533	-0.776021
C29	C	1.510341	-0.464494	-0.892174
C30	C	1.510345	-0.213033	-0.503504
C31	C	1.510390	-0.105819	-0.503526
C32	C	1.446853	-0.523052	-1.063986
C33	C	1.446820	-0.523094	-0.943935
C34	C	1.510229	-0.464649	-0.231940
C35	C	1.510401	-0.464416	-0.115788
H36	H	0.906245	-0.573595	-0.621154
H37	H	1.392418	-0.573298	-0.899387
O38	O	0.952171	-0.404830	-0.438660
C39	C	1.015243	-0.459720	-0.371090
H40	H	1.031491	-0.532871	-0.407821
H41	H	1.092040	-0.420470	-0.357217
H42	H	0.973202	-0.470203	-0.293597
O43	O	1.575103	-0.404494	-0.945349
C44	C	1.515592	-0.342237	-1.008513
H45	H	1.433310	-0.336261	-0.975553
H46	H	1.553414	-0.268006	-1.009873
H47	H	1.511931	-0.372099	-1.091187
O48	O	1.382068	-0.582874	-1.117258
C49	C	1.396509	-0.569500	-1.225263
H50	H	1.477187	-0.537899	-1.240077
H51	H	1.389436	-0.641700	-1.266806
H52	H	1.334582	-0.518089	-1.256242
O53	O	1.069590	-0.404591	-0.438664
C54	C	1.141030	-0.350028	-0.379684
H55	H	1.218884	-0.346658	-0.422410
H56	H	1.109420	-0.274048	-0.368712
H57	H	1.152553	-0.385255	-0.300239
O58	O	1.575424	-0.404608	-1.062788
C59	C	1.679603	-0.425678	-1.089358
H60	H	1.681855	-0.462663	-1.168626
H61	H	1.726493	-0.356060	-1.092993
H62	H	1.714704	-0.475345	-1.027942
H63	H	1.115371	-0.573559	-0.621128
