data_functionalizedCrystal
_audit_creation_method	'MofGen! by Chris Wilmer'
_symmetry_space_group_name_H-M	'P1'
_symmetry_Int_Tables_number	1
_symmetry_cell_setting	triclinic
loop_
_symmetry_equiv_pos_as_xyz
  x,y,z
_cell_length_a	19.121275
_cell_length_b	19.121063
_cell_length_c	14.908308
_cell_angle_alpha	84.445373
_cell_angle_beta	84.146927
_cell_angle_gamma	89.926756
loop_
_atom_site_label
_atom_site_type_symbol
_atom_site_fract_x
_atom_site_fract_y
_atom_site_fract_z
Zn1	Zn	1.037730	-0.345063	0.472057
Zn2	Zn	1.537730	0.154937	0.972057
Zn3	Zn	1.039413	-0.456087	0.327181
Zn4	Zn	1.539413	0.043913	0.827181
Zn5	Zn	0.927298	-0.333850	0.326658
Zn6	Zn	1.427298	0.166150	0.826658
Zn7	Zn	0.914858	-0.457816	0.484913
Zn8	Zn	1.414858	0.042184	0.984913
O9	O	0.979825	-0.398204	0.402702
O10	O	1.479825	0.101796	0.902702
O11	O	1.136296	-0.363760	0.447677
O12	O	1.636296	0.136240	0.947677
O13	O	1.030451	-0.434455	0.200250
O14	O	1.530451	0.065545	0.700250
O15	O	0.946449	-0.236993	0.340346
O16	O	1.446449	0.263007	0.840346
O17	O	1.137533	-0.445329	0.341237
O18	O	1.637533	0.054671	0.841237
O19	O	1.027583	-0.245232	0.447170
O20	O	1.527583	0.254768	0.947170
O21	O	0.948081	-0.344648	0.199865
O22	O	1.448081	0.155352	0.699865
O23	O	0.827305	-0.346324	0.352812
O24	O	1.327305	0.153676	0.852812
O25	O	0.925246	-0.448275	0.610070
O26	O	1.425246	0.051725	1.110070
O27	O	0.818165	-0.437402	0.469082
O28	O	1.318165	0.062598	0.969082
O29	O	1.015520	-0.365437	0.600624
O30	O	1.515520	0.134563	1.100624
O31	O	1.018389	-0.554660	0.353703
O32	O	1.518389	-0.054660	0.853703
O33	O	0.926879	-0.555930	0.469589
O34	O	1.426879	-0.055930	0.969589
C35	C	0.797236	-0.390834	0.412286
C36	C	1.297236	0.109166	0.912286
C37	C	0.719121	-0.387700	0.416409
C38	C	1.219121	0.112300	0.916409
C39	C	0.971485	-0.580796	0.413117
C40	C	1.471485	-0.080796	0.913117
C41	C	0.967980	-0.658914	0.417599
C42	C	1.467980	-0.158914	0.917599
C43	C	0.683072	-0.428618	0.362838
C44	C	1.183072	0.071382	0.862838
C45	C	0.609674	-0.425674	0.366723
C46	C	1.109674	0.074326	0.866723
C47	C	0.572329	-0.381806	0.424176
C48	C	1.072329	0.118194	0.924176
C49	C	0.608384	-0.340886	0.477753
C50	C	1.108384	0.159114	0.977753
C51	C	0.681779	-0.343835	0.473872
C52	C	1.181779	0.156165	0.973872
C53	C	0.350689	-0.370784	0.438677
C54	C	0.850689	0.129216	0.938677
C55	C	0.277289	-0.367837	0.442552
C56	C	0.777289	0.132163	0.942552
C57	C	0.278585	-0.452626	0.331523
C58	C	0.778585	0.047374	0.831523
C59	C	0.351982	-0.455568	0.327643
C60	C	0.851982	0.044432	0.827643
C61	C	0.388030	-0.414651	0.381224
C62	C	0.888030	0.085349	0.881224
C63	C	0.497305	-0.378793	0.428147
C64	C	0.997305	0.121207	0.928147
C65	C	0.463052	-0.417668	0.377257
C66	C	0.963052	0.082332	0.877257
C67	C	1.014010	-0.694933	0.359416
C68	C	1.514010	-0.194933	0.859416
C69	C	1.010717	-0.768333	0.363637
C70	C	1.510717	-0.268333	0.863637
C71	C	0.961391	-0.805713	0.426037
C72	C	1.461391	-0.305713	0.926037
C73	C	0.915358	-0.769690	0.484227
C74	C	1.415358	-0.269690	0.984227
C75	C	0.918654	-0.696291	0.480010
C76	C	1.418654	-0.196291	0.980010
C77	C	0.949055	-1.027364	0.441790
C78	C	1.449055	-0.527364	0.941790
C79	C	0.945761	-1.100768	0.446001
C80	C	1.445761	-0.600768	0.946001
C81	C	1.041122	-1.099407	0.325412
C82	C	1.541122	-0.599407	0.825412
C83	C	1.044411	-1.026006	0.321197
C84	C	1.544411	-0.526006	0.821197
C85	C	0.998381	-0.989989	0.379389
C86	C	1.498381	-0.489989	0.879389
C87	C	0.958022	-0.880740	0.430351
C88	C	1.458022	-0.380740	0.930351
C89	C	1.001753	-0.914964	0.375079
C90	C	1.501753	-0.414964	0.875079
C91	C	1.163127	-0.405603	0.393081
C92	C	1.663127	0.094397	0.893081
C93	C	1.241239	-0.408756	0.388981
C94	C	1.741239	0.091244	0.888981
C95	C	0.968808	-0.408300	0.639160
C96	C	1.468808	0.091700	1.139160
C97	C	0.964113	-0.412602	0.739925
C98	C	1.464113	0.087398	1.239925
C99	C	0.988216	-0.214900	0.392265
C100	C	1.488216	0.285100	0.892265
C101	C	0.991791	-0.136787	0.387818
C102	C	1.491791	0.363213	0.887818
C103	C	0.990841	-0.388098	0.167159
C104	C	1.490841	0.111902	0.667159
C105	C	0.995681	-0.383603	0.066377
C106	C	1.495681	0.116397	0.566377
C107	C	1.049292	-0.334410	0.919437
C108	C	1.549292	0.165590	1.419437
C109	C	1.044883	-0.338450	1.014113
C110	C	1.544883	0.161550	1.514113
C111	C	0.950884	-0.424718	1.023957
C112	C	1.450884	0.075282	1.523957
C113	C	0.955293	-0.420678	0.929280
C114	C	1.455293	0.079322	1.429280
C115	C	1.004499	-0.375523	0.877023
C116	C	1.504499	0.124477	1.377023
C117	C	1.008911	-0.371487	0.782344
C118	C	1.508911	0.128513	1.282344
C119	C	0.914909	-0.457751	0.792189
C120	C	1.414909	0.042249	1.292189
C121	C	0.910500	-0.461791	0.886866
C122	C	1.410500	0.038209	1.386866
H123	H	0.713473	-0.464338	0.316050
H124	H	1.213473	0.035662	0.816050
H125	H	1.048200	-0.797656	0.316257
H126	H	1.548200	-0.297656	0.816257
C127	C	0.236210	-0.319580	0.505761
C128	C	0.736210	0.180420	1.005761
N129	N	0.205269	-0.283235	0.553368
N130	N	0.705269	0.216765	1.053368
H131	H	1.084577	-0.995573	0.270385
H132	H	1.584577	-0.495573	0.770385
C133	C	0.504134	-0.465918	0.314057
C134	C	1.004134	0.034082	0.814057
N135	N	0.535084	-0.502257	0.266450
N136	N	1.035084	-0.002257	0.766450
H137	H	0.577971	-0.305171	0.524537
H138	H	1.077971	0.194829	1.024537
H139	H	0.870436	-0.498553	0.929427
H140	H	1.370436	0.001447	1.429427
H141	H	0.711130	-0.310513	0.517494
H142	H	1.211130	0.189487	1.017494
H143	H	0.580326	-0.458994	0.323100
H144	H	1.080326	0.041006	0.823100
C145	C	0.896745	-0.474366	1.081455
C146	C	1.396745	0.025634	1.581455
N147	N	0.855962	-0.511756	1.124764
N148	N	1.355962	-0.011756	1.624764
C149	C	0.390334	-0.325764	0.497606
C150	C	0.890334	0.174236	0.997606
N151	N	0.420197	-0.291849	0.541990
N152	N	0.920197	0.208151	1.041990
C153	C	0.393056	-0.503826	0.264440
C154	C	0.893056	-0.003826	0.764440
N155	N	0.423994	-0.540173	0.216833
N156	N	0.923994	-0.040173	0.716833
C157	C	0.238925	-0.497637	0.272595
C158	C	0.738925	0.002363	0.772595
N159	N	0.209053	-0.531544	0.228211
N160	N	0.709053	-0.031544	0.728211
H161	H	0.466891	-0.343075	0.474924
H162	H	0.966891	0.156925	0.974924
H163	H	1.054174	-0.664503	0.308599
H164	H	1.554174	-0.164503	0.808599
H165	H	1.081356	-0.304970	1.048642
H166	H	1.581356	0.195030	1.548642
H167	H	0.905601	-1.131202	0.496831
H168	H	1.405601	-0.631202	0.996831
C169	C	1.091753	-1.139032	0.261407
C170	C	1.591753	-0.639032	0.761407
N171	N	1.129892	-1.168877	0.213198
N172	N	1.629892	-0.668877	0.713198
C173	C	0.898454	-0.987759	0.505849
C174	C	1.398454	-0.487759	1.005849
N175	N	0.860351	-0.957926	0.554118
N176	N	1.360351	-0.457926	1.054118
H177	H	0.875198	-0.800131	0.535038
H178	H	1.375198	-0.300131	1.035038
C179	C	0.868017	-0.656671	0.544017
C180	C	1.368017	-0.156671	1.044017
N181	N	0.829878	-0.626830	0.592231
N182	N	1.329878	-0.126830	1.092231
H183	H	1.041917	-0.884528	0.324276
H184	H	1.541917	-0.384528	0.824276
H185	H	0.917859	-0.911183	0.481156
H186	H	1.417859	-0.411183	0.981156
H187	H	1.048978	-0.334721	0.739798
H188	H	1.548978	0.165279	1.239798
C189	C	1.103421	-0.284744	0.861952
C190	C	1.603421	0.215256	1.361952
N191	N	1.144193	-0.247333	0.818656
N192	N	1.644193	0.252667	1.318656
C193	C	0.865633	-0.502979	0.745527
C194	C	1.365633	-0.002979	1.245527
N195	N	0.828522	-0.537045	0.710380
N196	N	1.328522	-0.037045	1.210380
