data_functionalizedCrystal
_audit_creation_method	'MofGen! by Chris Wilmer'
_symmetry_space_group_name_H-M	'P1'
_symmetry_Int_Tables_number	1
_symmetry_cell_setting	triclinic
loop_
_symmetry_equiv_pos_as_xyz
  x,y,z
_cell_length_a	18.101395
_cell_length_b	19.077105
_cell_length_c	19.076919
_cell_angle_alpha	89.923776
_cell_angle_beta	92.272317
_cell_angle_gamma	92.272502
loop_
_atom_site_label
_atom_site_type_symbol
_atom_site_fract_x
_atom_site_fract_y
_atom_site_fract_z
Zn1	Zn	-0.358271	-1.058231	-0.440421
Zn2	Zn	0.141729	-0.558231	0.059579
Zn3	Zn	-0.477344	-1.062857	-0.322915
Zn4	Zn	0.022656	-0.562857	0.177085
Zn5	Zn	-0.348351	-0.945450	-0.318214
Zn6	Zn	0.151649	-0.445450	0.181786
Zn7	Zn	-0.476897	-0.940679	-0.435668
Zn8	Zn	0.023103	-0.440679	0.064332
O9	O	-0.415216	-1.001804	-0.379305
O10	O	0.084784	-0.501804	0.120695
O11	O	-0.378405	-1.157176	-0.428790
O12	O	0.121595	-0.657176	0.071210
O13	O	-0.456268	-1.051216	-0.223960
O14	O	0.043732	-0.551216	0.276040
O15	O	-0.246037	-0.960470	-0.334447
O16	O	0.253963	-0.460470	0.165553
O17	O	-0.465887	-1.160575	-0.342459
O18	O	0.034113	-0.660575	0.157541
O19	O	-0.253326	-1.043330	-0.424232
O20	O	0.246674	-0.543330	0.075768
O21	O	-0.361497	-0.964957	-0.220507
O22	O	0.138503	-0.464957	0.279493
O23	O	-0.361064	-0.846486	-0.329838
O24	O	0.138936	-0.346486	0.170162
O25	O	-0.465126	-0.952340	-0.534630
O26	O	0.034874	-0.452340	-0.034630
O27	O	-0.455506	-0.842981	-0.416131
O28	O	0.044494	-0.342981	0.083869
O29	O	-0.377972	-1.038704	-0.538122
O30	O	0.122028	-0.538704	-0.038122
O31	O	-0.580914	-1.046590	-0.337850
O32	O	-0.080914	-0.546590	0.162150
O33	O	-0.580586	-0.956826	-0.420689
O34	O	-0.080586	-0.456826	0.079311
C35	C	-0.407161	-0.819237	-0.371959
C36	C	0.092839	-0.319237	0.128041
C37	C	-0.403733	-0.741133	-0.368833
C38	C	0.096267	-0.241133	0.131167
C39	C	-0.607621	-1.001711	-0.379280
C40	C	-0.107621	-0.501711	0.120720
C41	C	-0.689937	-1.001735	-0.379296
C42	C	-0.189937	-0.501735	0.120704
C43	C	-0.422606	-0.994474	-0.562585
C44	C	0.077394	-0.494474	-0.062585
C45	C	-0.425755	-0.991350	-0.640688
C46	C	0.074245	-0.491350	-0.140688
C47	C	-0.989036	-1.001887	-0.379340
C48	C	-0.489036	-0.501887	0.120660
C49	C	-0.957547	-0.945531	-0.431600
C50	C	-0.457547	-0.445531	0.068400
C51	C	-0.871910	-0.945280	-0.431419
C52	C	-0.371910	-0.445280	0.068581
C53	C	-0.840650	-1.001811	-0.379319
C54	C	-0.340650	-0.501811	0.120681
C55	C	-0.867911	-0.984741	-0.304458
C56	C	-0.367911	-0.484741	0.195542
C57	C	-0.953554	-0.984379	-0.304770
C58	C	-0.453554	-0.484379	0.195230
C59	C	-0.961424	-1.075459	-0.401293
C60	C	-0.461424	-0.575459	0.098707
C61	C	-0.875820	-1.074956	-0.402900
C62	C	-0.375820	-0.574956	0.097100
C63	C	-0.756788	-1.001770	-0.379302
C64	C	-0.256788	-0.501770	0.120698
C65	C	-1.072898	-1.001927	-0.379351
C66	C	-0.572898	-0.501927	0.120649
C67	C	-0.222060	-1.001916	-0.379345
C68	C	0.277940	-0.501916	0.120655
C69	C	-0.139749	-1.001964	-0.379363
C70	C	0.360251	-0.501964	0.120637
C71	C	-0.423303	-1.185084	-0.386679
C72	C	0.076697	-0.685084	0.113321
C73	C	-0.426749	-1.263188	-0.389822
C74	C	0.073251	-0.763188	0.110178
C75	C	-0.451363	-0.702636	-0.412222
C76	C	0.048637	-0.202636	0.087778
C77	C	-0.448133	-0.629249	-0.409288
C78	C	0.051867	-0.129249	0.090712
C79	C	-0.397276	-0.594361	-0.362962
C80	C	0.102724	-0.094361	0.137038
C81	C	-0.349642	-0.632863	-0.319571
C82	C	0.150358	-0.132863	0.180429
C83	C	-0.352869	-0.706248	-0.322509
C84	C	0.147131	-0.206248	0.177491
C85	C	-0.382341	-0.375075	-0.349369
C86	C	0.117659	0.124925	0.150631
C87	C	-0.379119	-0.301684	-0.346433
C88	C	0.120881	0.198316	0.153567
C89	C	-0.477610	-0.298076	-0.436152
C90	C	0.022390	0.201924	0.063848
C91	C	-0.480836	-0.371463	-0.439082
C92	C	0.019164	0.128537	0.060918
C93	C	-0.433198	-0.409959	-0.395694
C94	C	0.066802	0.090041	0.104306
N95	N	-0.393975	-0.519348	-0.359960
N96	N	0.106025	-0.019348	0.140040
N97	N	-0.436497	-0.484970	-0.398700
N98	N	0.063503	0.015030	0.101300
C99	C	-0.381860	-1.034846	-0.679200
C100	C	0.118140	-0.534846	-0.179200
C101	C	-0.384816	-1.031902	-0.752586
C102	C	0.115184	-0.531902	-0.252586
C103	C	-0.431671	-0.985466	-0.787458
C104	C	0.068329	-0.485466	-0.287458
C105	C	-0.475568	-0.941966	-0.748941
C106	C	0.024432	-0.441966	-0.248941
C107	C	-0.472608	-0.944906	-0.675556
C108	C	0.027392	-0.444906	-0.175556
C109	C	-0.445387	-0.971847	-1.006740
C110	C	0.054613	-0.471847	-0.506740
C111	C	-0.448346	-0.968911	-1.080130
C112	C	0.051654	-0.468911	-0.580130
C113	C	-0.357593	-1.058847	-1.083770
C114	C	0.142407	-0.558847	-0.583770
C115	C	-0.354640	-1.061786	-1.010384
C116	C	0.145360	-0.561786	-0.510384
C117	C	-0.398533	-1.018283	-0.971872
C118	C	0.101467	-0.518283	-0.471872
N119	N	-0.434696	-0.982458	-0.862471
N120	N	0.065304	-0.482458	-0.362471
N121	N	-0.395505	-1.021289	-0.896861
N122	N	0.104495	-0.521289	-0.396861
C123	C	-0.407803	-1.009146	-0.196739
C124	C	0.092197	-0.509146	0.303261
C125	C	-0.404451	-1.012406	-0.118642
C126	C	0.095549	-0.512406	0.381358
H127	H	-0.853628	-0.955615	-0.486834
H128	H	-0.353628	-0.455615	0.013166
H129	H	-0.321856	-1.094263	-1.115133
H130	H	0.178144	-0.594263	-0.615133
H131	H	-0.486918	-0.597908	-0.444619
H132	H	0.013082	-0.097908	0.055381
C133	C	-0.493672	-0.924002	-0.964383
C134	C	0.006328	-0.424002	-0.464383
H135	H	-0.485196	-0.932395	-0.915683
H136	H	0.014804	-0.432395	-0.415683
H137	H	-0.544367	-0.933775	-0.976814
H138	H	-0.044367	-0.433775	-0.476814
H139	H	-0.481231	-0.876312	-0.974512
H140	H	0.018769	-0.376312	-0.474512
C141	C	-0.840380	-1.038617	-0.250240
C142	C	-0.340380	-0.538617	0.249760
H143	H	-0.857494	-1.027312	-0.205353
H144	H	-0.357494	-0.527312	0.294647
H145	H	-0.787829	-1.037578	-0.248448
H146	H	-0.287829	-0.537578	0.251552
H147	H	-0.858846	-1.084202	-0.263466
H148	H	-0.358846	-0.584202	0.236534
H149	H	-0.513715	-0.904154	-0.777340
H150	H	-0.013715	-0.404154	-0.277340
C151	C	-0.330316	-1.085923	-0.640847
C152	C	0.169684	-0.585923	-0.140847
H153	H	-0.304591	-1.111399	-0.674296
H154	H	0.195409	-0.611399	-0.174296
H155	H	-0.358835	-1.117672	-0.613445
H156	H	0.141165	-0.617672	-0.113445
H157	H	-0.295706	-1.060201	-0.611146
H158	H	0.204294	-0.560201	-0.111146
C159	C	-0.507309	-0.741011	-0.463176
C160	C	-0.007309	-0.241011	0.036824
H161	H	-0.502417	-0.790231	-0.458707
H162	H	-0.002417	-0.290231	0.041293
H163	H	-0.497929	-0.727112	-0.509927
H164	H	0.002071	-0.227112	-0.009927
H165	H	-0.556103	-0.729371	-0.452318
H166	H	-0.056103	-0.229371	0.047682
H167	H	-0.308230	-0.604451	-0.281854
H168	H	0.191770	-0.104451	0.218146
C169	C	-0.520891	-0.897063	-0.633190
C170	C	-0.020891	-0.397063	-0.133190
H171	H	-0.512412	-0.905459	-0.584490
H172	H	-0.012412	-0.405459	-0.084490
H173	H	-0.571587	-0.906832	-0.645617
H174	H	-0.071587	-0.406832	-0.145617
H175	H	-0.508447	-0.849373	-0.643317
H176	H	-0.008447	-0.349373	-0.143317
C177	C	-0.976521	-0.911846	-0.280122
C178	C	-0.476521	-0.411846	0.219878
H179	H	-0.933525	-0.882878	-0.270017
H180	H	-0.433525	-0.382878	0.229983
H181	H	-1.004259	-0.917100	-0.239073
H182	H	-0.504259	-0.417100	0.260927
H183	H	-1.005936	-0.890806	-0.316083
H184	H	-0.505936	-0.390806	0.183917
H185	H	-0.858335	-1.087883	-0.458008
H186	H	-0.358335	-0.587883	0.041992
H187	H	-0.522250	-0.399864	-0.476804
H188	H	-0.022250	0.100136	0.023196
C189	C	-0.300475	-0.748595	-0.274783
C190	C	0.199525	-0.248595	0.225217
H191	H	-0.269728	-0.717307	-0.246768
H192	H	0.230272	-0.217307	0.253232
H193	H	-0.270599	-0.776164	-0.302866
H194	H	0.229401	-0.276164	0.197134
H195	H	-0.328776	-0.778431	-0.245260
H196	H	0.171224	-0.278431	0.254740
H197	H	-0.981841	-1.117410	-0.363267
H198	H	-0.481841	-0.617410	0.136733
C199	C	-0.529999	-0.255730	-0.483880
C200	C	-0.029999	0.244270	0.016120
H201	H	-0.520791	-0.207027	-0.475502
H202	H	-0.020791	0.292973	0.024498
H203	H	-0.579851	-0.268146	-0.473998
H204	H	-0.079851	0.231854	0.026002
H205	H	-0.521664	-0.265884	-0.531594
H206	H	-0.021664	0.234116	-0.031594
H207	H	-0.980878	-0.955734	-0.487188
H208	H	-0.480878	-0.455734	0.012812
H209	H	-0.316487	-1.099601	-0.981996
H210	H	0.183513	-0.599601	-0.481996
C211	C	-0.323170	-0.263308	-0.295476
C212	C	0.176830	0.236692	0.204524
H213	H	-0.295256	-0.296744	-0.270061
H214	H	0.204744	0.203256	0.229939
H215	H	-0.348951	-0.235888	-0.263664
H216	H	0.151049	0.264112	0.236336
H217	H	-0.290778	-0.233623	-0.321274
H218	H	0.209222	0.266377	0.178726
H219	H	-0.349074	-1.067323	-0.783940
H220	H	0.150926	-0.567323	-0.283940
C221	C	-0.982759	-0.872222	-0.411868
C222	C	-0.482759	-0.372222	0.088132
H223	H	-1.012391	-0.875811	-0.371919
H224	H	-0.512391	-0.375811	0.128081
H225	H	-1.010822	-0.853394	-0.450062
H226	H	-0.510822	-0.353394	0.049938
H227	H	-0.940613	-0.842237	-0.401435
H228	H	-0.440613	-0.342237	0.098565
C229	C	-0.329947	-0.417414	-0.301643
C230	C	0.170053	0.082586	0.198357
H231	H	-0.339143	-0.466117	-0.310030
H232	H	0.160857	0.033883	0.189970
H233	H	-0.338273	-0.407262	-0.253930
H234	H	0.161727	0.092738	0.246070
H235	H	-0.280095	-0.404993	-0.311535
H236	H	0.219905	0.095007	0.188465
C237	C	-0.840347	-0.871534	-0.411447
C238	C	-0.340347	-0.371534	0.088553
H239	H	-0.879873	-0.841614	-0.403406
H240	H	-0.379873	-0.341614	0.096594
H241	H	-0.811991	-0.853133	-0.448579
H242	H	-0.311991	-0.353133	0.051421
H243	H	-0.809714	-0.874359	-0.370019
H244	H	-0.309714	-0.374359	0.129981
C245	C	-0.981489	-1.037629	-0.250150
C246	C	-0.481489	-0.537629	0.249850
H247	H	-0.940494	-1.059383	-0.227865
H248	H	-0.440494	-0.559383	0.272135
H249	H	-1.013029	-1.072309	-0.272848
H250	H	-0.513029	-0.572309	0.227152
H251	H	-1.008167	-1.014035	-0.216026
H252	H	-0.508167	-0.514035	0.283974
H253	H	-0.843494	-0.931637	-0.285943
H254	H	-0.343494	-0.431637	0.214057
C255	C	-0.499881	-0.917825	-1.118491
C256	C	0.000119	-0.417825	-0.618491
H257	H	-0.495361	-0.922311	-1.167712
H258	H	0.004639	-0.422311	-0.667712
H259	H	-0.486471	-0.871101	-1.104567
H260	H	0.013529	-0.371101	-0.604567
H261	H	-0.549611	-0.928559	-1.106869
H262	H	-0.049611	-0.428559	-0.606869
C263	C	-0.994526	-1.097267	-0.473993
C264	C	-0.494526	-0.597267	0.026007
H265	H	-1.025499	-1.061702	-0.491639
H266	H	-0.525499	-0.561702	0.008361
H267	H	-1.022802	-1.140007	-0.470012
H268	H	-0.522802	-0.640007	0.029988
H269	H	-0.955694	-1.103528	-0.505187
H270	H	-0.455694	-0.603528	-0.005187
H271	H	-0.854786	-1.118927	-0.367848
H272	H	-0.354786	-0.618927	0.132152
