data_functionalizedCrystal
_audit_creation_method	'MofGen! by Chris Wilmer'
_symmetry_space_group_name_H-M	'P1'
_symmetry_Int_Tables_number	1
_symmetry_cell_setting	triclinic
loop_
_symmetry_equiv_pos_as_xyz
  x,y,z
_cell_length_a	11.792241
_cell_length_b	10.489716
_cell_length_c	10.868271
_cell_angle_alpha	89.998908
_cell_angle_beta	89.999893
_cell_angle_gamma	84.361276
loop_
_atom_site_label
_atom_site_type_symbol
_atom_site_fract_x
_atom_site_fract_y
_atom_site_fract_z
O1	O	1.507366	0.174834	-0.102191
O2	O	1.177072	0.192853	-0.102218
O3	O	1.349750	-0.001782	-0.102208
O4	O	1.334689	0.369469	-0.102201
O5	O	1.349735	-0.001790	0.102436
O6	O	1.177058	0.192845	0.102426
O7	O	1.507352	0.174827	0.102454
Zn8	Zn	1.342203	0.183835	0.134932
Zn9	Zn	1.342222	0.183845	-0.134696
O10	O	1.334675	0.369461	0.102444
C11	C	1.134771	0.191717	0.000100
C12	C	1.008749	0.188329	0.000089
C13	C	0.778020	0.182100	0.000124
C14	C	0.906415	0.185561	0.000105
C15	C	1.348611	-0.049314	0.000110
C16	C	1.345225	-0.190934	0.000099
C17	C	1.451116	-0.288968	0.000119
C18	C	1.395168	-0.366134	-0.100783
C19	C	1.395130	-0.366106	0.100980
C20	C	1.289322	-0.266234	-0.100887
C21	C	1.289298	-0.266201	0.100968
C22	C	1.233272	-0.343318	0.000041
C23	C	1.549653	0.175962	0.000132
C24	C	1.675676	0.179350	0.000135
C25	C	1.335814	0.416994	0.000123
C26	C	1.339199	0.558613	0.000126
N27	N	1.342198	0.183827	0.318946
N28	N	1.342235	0.183842	-0.318710
C29	C	1.342216	0.183842	0.569952
C30	C	1.342202	0.183837	0.430274
H31	H	1.439875	-0.409779	-0.186083
C32	C	1.455527	-0.425035	0.216228
C33	C	1.509015	-0.338331	0.309771
C34	C	1.569421	-0.397257	0.425012
C35	C	1.576338	-0.542887	0.446710
C36	C	1.522848	-0.629600	0.353165
C37	C	1.462442	-0.570674	0.237924
H38	H	1.503897	-0.230519	0.293711
H39	H	1.609018	-0.333065	0.494261
H40	H	1.621054	-0.586507	0.532019
H41	H	1.527967	-0.737412	0.369225
H42	H	1.422845	-0.634866	0.168675
H43	H	1.244631	-0.222534	0.186270
C44	C	1.108754	-0.375916	-0.000043
C45	C	1.082378	-0.516807	0.000956
C46	C	0.957863	-0.549411	0.000863
C47	C	0.859723	-0.441124	-0.000229
C48	C	0.886097	-0.300224	-0.001228
C49	C	1.010612	-0.267620	-0.001135
H50	H	1.155029	-0.596976	0.001765
H51	H	0.938340	-0.653715	0.001603
H52	H	0.767550	-0.465259	-0.000298
H53	H	0.813445	-0.220055	-0.002037
H54	H	1.030134	-0.163316	-0.001875
C55	C	1.228986	-0.207540	-0.216268
C56	C	1.295211	-0.132029	-0.308856
C57	C	1.234881	-0.073334	-0.424237
C58	C	1.108326	-0.090151	-0.447030
C59	C	1.042094	-0.165666	-0.354440
C60	C	1.102424	-0.224361	-0.239059
H61	H	1.388901	-0.119576	-0.291985
H62	H	1.283911	-0.017432	-0.492778
H63	H	1.063666	-0.046701	-0.532442
H64	H	0.948403	-0.178118	-0.371311
H65	H	1.053393	-0.280263	-0.170518
H66	H	1.543223	-0.264606	0.000024
