data_functionalizedCrystal
_audit_creation_method	'MofGen! by Chris Wilmer'
_symmetry_space_group_name_H-M	'P1'
_symmetry_Int_Tables_number	1
_symmetry_cell_setting	triclinic
loop_
_symmetry_equiv_pos_as_xyz
  x,y,z
_cell_length_a	16.109296
_cell_length_b	16.109301
_cell_length_c	15.186229
_cell_angle_alpha	89.994833
_cell_angle_beta	90.001331
_cell_angle_gamma	96.539615
loop_
_atom_site_label
_atom_site_type_symbol
_atom_site_fract_x
_atom_site_fract_y
_atom_site_fract_z
O1	O	-1.103133	0.106845	-0.073190
O2	O	-0.769800	0.440178	0.260143
O3	O	-0.436467	0.773511	0.593477
O4	O	-0.861071	0.120149	-0.073201
O5	O	-0.527737	0.453482	0.260132
O6	O	-0.194404	0.786815	0.593466
O7	O	-0.988752	-0.007534	-0.073186
O8	O	-0.655418	0.325799	0.260147
O9	O	-0.322085	0.659132	0.593480
O10	O	-0.975452	0.234528	-0.073205
O11	O	-0.642119	0.567861	0.260129
O12	O	-0.308786	0.901195	0.593462
O13	O	-0.988743	-0.007536	0.073271
O14	O	-0.655410	0.325797	0.406604
O15	O	-0.322077	0.659131	0.739938
O16	O	-0.861062	0.120147	0.073256
O17	O	-0.527729	0.453480	0.406589
O18	O	-0.194396	0.786814	0.739923
O19	O	-1.103125	0.106843	0.073267
O20	O	-0.769792	0.440176	0.406601
O21	O	-0.436458	0.773510	0.739934
Zn22	Zn	-0.982092	0.113495	0.096515
Zn23	Zn	-0.648759	0.446828	0.429848
Zn24	Zn	-0.315426	0.780161	0.763182
Zn25	Zn	-0.982103	0.113497	-0.096449
Zn26	Zn	-0.648770	0.446830	0.236885
Zn27	Zn	-0.315437	0.780164	0.570218
O28	O	-0.975444	0.234526	0.073253
O29	O	-0.642111	0.567859	0.406586
O30	O	-0.308777	0.901193	0.739919
C31	C	-0.830092	0.119610	0.000026
C32	C	-0.496758	0.452943	0.333360
C33	C	-0.163425	0.786276	0.666693
C34	C	-0.737796	0.117996	0.000022
C35	C	-0.404463	0.451330	0.333356
C36	C	-0.071129	0.784663	0.666689
C37	C	-0.428797	0.188486	0.000034
C38	C	-0.095464	0.521819	0.333367
C39	C	0.237870	0.855152	0.666701
C40	C	-0.515517	0.190009	0.000028
C41	C	-0.182184	0.523343	0.333362
C42	C	0.151149	0.856676	0.666695
C43	C	-0.535391	0.038520	0.000028
C44	C	-0.202057	0.371854	0.333361
C45	C	0.131276	0.705187	0.666695
C46	C	-0.448672	0.036998	0.000028
C47	C	-0.115338	0.370331	0.333361
C48	C	0.217995	0.703664	0.666694
C49	C	-0.395377	0.111983	0.000035
C50	C	-0.062043	0.445316	0.333368
C51	C	0.271290	0.778649	0.666702
C52	C	-0.568816	0.115029	0.000030
C53	C	-0.235483	0.448363	0.333363
C54	C	0.097850	0.781696	0.666696
C55	C	-0.662843	0.116681	0.000024
C56	C	-0.329509	0.450014	0.333357
C57	C	0.003824	0.783347	0.666690
C58	C	-0.301345	0.110332	0.000040
C59	C	0.031989	0.443665	0.333373
C60	C	0.365322	0.776998	0.666706
C61	C	-0.988209	-0.038510	0.000043
C62	C	-0.654876	0.294823	0.333376
C63	C	-0.321542	0.628157	0.666709
C64	C	-0.986594	-0.130805	0.000044
C65	C	-0.653260	0.202528	0.333377
C66	C	-0.319927	0.535861	0.666711
C67	C	-1.058602	-0.353079	0.000033
C68	C	-0.725268	-0.019746	0.333367
C69	C	-0.391935	0.313588	0.666700
C70	C	-1.057078	-0.439800	0.000026
C71	C	-0.723744	-0.106466	0.333359
C72	C	-0.390411	0.226867	0.666693
C73	C	-0.905588	-0.419922	0.000023
C74	C	-0.572255	-0.086589	0.333356
C75	C	-0.238922	0.246744	0.666689
C76	C	-0.907113	-0.333204	0.000024
C77	C	-0.573780	0.000130	0.333357
C78	C	-0.240447	0.333463	0.666690
C79	C	-0.983622	-0.299785	0.000033
C80	C	-0.650289	0.033549	0.333367
C81	C	-0.316956	0.366882	0.666700
C82	C	-0.980573	-0.473224	0.000025
C83	C	-0.647240	-0.139890	0.333358
C84	C	-0.313907	0.193443	0.666692
C85	C	-0.978920	-0.567250	0.000017
C86	C	-0.645587	-0.233916	0.333351
C87	C	-0.312254	0.099417	0.666684
C88	C	-0.985276	-0.205753	0.000040
C89	C	-0.651942	0.127581	0.333373
C90	C	-0.318609	0.460914	0.666706
C91	C	-0.134103	0.107387	0.000040
C92	C	0.199230	0.440720	0.333373
C93	C	0.532563	0.774054	0.666706
C94	C	-0.226397	0.109016	0.000043
C95	C	0.106936	0.442349	0.333376
C96	C	0.440270	0.775682	0.666709
C97	C	-0.975987	0.265502	0.000022
C98	C	-0.642654	0.598835	0.333355
C99	C	-0.309320	0.932169	0.666688
C100	C	-0.977602	0.357797	0.000015
C101	C	-0.644269	0.691131	0.333348
C102	C	-0.310935	1.024464	0.666681
N103	N	-0.982091	0.113493	0.228208
N104	N	-0.648757	0.446826	0.561541
N105	N	-0.315424	0.780159	0.894874
N106	N	-0.982112	0.113493	-0.228141
N107	N	-0.648778	0.446826	0.105192
N108	N	-0.315445	0.780159	0.438525
C109	C	-1.038647	0.056974	0.453937
C110	C	-0.705314	0.390307	0.787270
C111	C	-0.371980	0.723640	1.120604
C112	C	-1.038650	0.056972	0.546127
C113	C	-0.705316	0.390305	0.879460
C114	C	-0.371983	0.723638	1.212793
C115	C	-0.925549	0.170014	0.546123
C116	C	-0.592216	0.503348	0.879456
C117	C	-0.258883	0.836681	1.212789
C118	C	-0.925543	0.170012	0.453935
C119	C	-0.592210	0.503345	0.787268
C120	C	-0.258877	0.836678	1.120601
C121	C	-0.982097	0.113492	0.407844
C122	C	-0.648764	0.446826	0.741178
C123	C	-0.315430	0.780159	1.074511
C124	C	-0.982105	0.113493	0.592222
C125	C	-0.648772	0.446826	0.925555
C126	C	-0.315439	0.780160	1.258889
C127	C	-0.982108	0.113491	0.692178
C128	C	-0.648775	0.446825	1.025511
C129	C	-0.315441	0.780158	1.358845
C130	C	-0.982094	0.113493	0.307882
C131	C	-0.648760	0.446826	0.641215
C132	C	-0.315427	0.780159	0.974549
H133	H	-0.542723	0.252306	0.000027
H134	H	-0.209390	0.585639	0.333360
H135	H	0.123943	0.918972	0.666693
H136	H	-0.578794	-0.022530	0.000024
H137	H	-0.245460	0.310803	0.333357
H138	H	0.087873	0.644137	0.666691
O139	O	-0.412616	-0.045520	0.000038
O140	O	-0.079283	0.287813	0.333371
O141	O	0.254050	0.621147	0.666705
H142	H	-0.464243	-0.097406	0.000049
H143	H	-0.130909	0.235927	0.333382
H144	H	0.202424	0.569261	0.666716
H145	H	-0.846052	-0.289808	0.000021
H146	H	-0.512719	0.043525	0.333354
H147	H	-0.179386	0.376858	0.666688
O148	O	-0.371311	0.269358	0.000031
O149	O	-0.037978	0.602691	0.333365
O150	O	0.295356	0.936024	0.666698
H151	H	-0.409123	0.322810	0.000021
H152	H	-0.075790	0.656144	0.333354
H153	H	0.257544	0.989477	0.666688
O154	O	-1.141117	-0.317029	0.000026
O155	O	-0.807784	0.016304	0.333359
O156	O	-0.474451	0.349637	0.666693
H157	H	-1.192998	-0.368661	0.000013
H158	H	-0.859665	-0.035328	0.333347
H159	H	-0.526332	0.298005	0.666680
H160	H	-1.084695	0.010951	0.416413
H161	H	-0.751362	0.344284	0.749746
H162	H	-0.418029	0.677617	1.083079
H163	H	-1.084697	0.010948	0.583653
H164	H	-0.751363	0.344281	0.916986
H165	H	-0.418030	0.677615	1.250320
H166	H	-0.879489	0.216036	0.416403
H167	H	-0.546156	0.549370	0.749737
H168	H	-0.212823	0.882703	1.083070
O169	O	-1.137947	-0.497285	0.000037
O170	O	-0.804614	-0.163951	0.333371
O171	O	-0.471280	0.169382	0.666704
H172	H	-1.191401	-0.459474	0.000053
H173	H	-0.858067	-0.126141	0.333386
H174	H	-0.524734	0.207193	0.666720
O175	O	-0.864563	0.230983	0.595833
O176	O	-0.531229	0.564316	0.929166
O177	O	-0.197896	0.897650	1.262500
H178	H	-0.874073	0.221498	0.667681
H179	H	-0.540740	0.554831	1.001015
H180	H	-0.207407	0.888165	1.334348
H181	H	-0.843297	-0.447143	0.000016
H182	H	-0.509964	-0.113810	0.333350
H183	H	-0.176631	0.219524	0.666683
