data_functionalizedCrystal
_audit_creation_method	'MofGen! by Chris Wilmer'
_symmetry_space_group_name_H-M	'P1'
_symmetry_Int_Tables_number	1
_symmetry_cell_setting	triclinic
loop_
_symmetry_equiv_pos_as_xyz
  x,y,z
_cell_length_a	10.685194
_cell_length_b	10.685661
_cell_length_c	10.685880
_cell_angle_alpha	81.602173
_cell_angle_beta	90.299888
_cell_angle_gamma	89.666412
loop_
_atom_site_label
_atom_site_type_symbol
_atom_site_fract_x
_atom_site_fract_y
_atom_site_fract_z
Zn1	Zn	-0.712830	1.936575	-0.806957
Zn2	Zn	-0.903941	1.904322	-0.578835
Zn3	Zn	-0.678282	1.710887	-0.581358
Zn4	Zn	-0.903828	1.708450	-0.774799
O5	O	-0.799720	1.815058	-0.685487
O6	O	-0.752687	2.108720	-0.789098
O7	O	-0.859595	1.866184	-0.402744
O8	O	-0.508493	1.755343	-0.625798
O9	O	-0.893095	2.085024	-0.621498
O10	O	-0.533875	1.921155	-0.791544
O11	O	-0.693805	1.724068	-0.404598
O12	O	-0.693696	1.534140	-0.594616
O13	O	-0.892903	1.751190	-0.955490
O14	O	-0.859403	1.532349	-0.736736
O15	O	-0.752578	1.918792	-0.979116
O16	O	-1.078298	1.863821	-0.590316
O17	O	-1.078215	1.719915	-0.734290
C18	C	-0.772789	1.487500	-0.662461
C19	C	-0.761301	1.347368	-0.652638
C20	C	-1.123474	1.788140	-0.658569
C21	C	-1.261991	1.776742	-0.647104
C22	C	-0.474707	1.842118	-0.712540
C23	C	-0.336206	1.853650	-0.724068
C24	C	-0.826582	1.838317	-1.014327
C25	C	-0.838029	1.848228	-1.154460
C26	C	-0.826757	2.143896	-0.708604
C27	C	-0.838279	2.284027	-0.718454
C28	C	-0.772879	1.791971	-0.357938
C29	C	-0.761101	1.782333	-0.217853
H30	H	-0.686600	1.294394	-0.588783
C31	C	-0.939195	1.355584	-0.804734
H32	H	-0.985940	1.297057	-0.844714
H33	H	-0.993632	1.399025	-0.755470
H34	H	-0.900262	1.414806	-0.867266
H35	H	-1.293772	1.928220	-0.798743
C36	C	-0.660294	1.695851	-1.146354
H37	H	-0.613577	1.655834	-1.204914
H38	H	-0.605815	1.744994	-1.102884
H39	H	-0.699311	1.633351	-1.087165
H40	H	-1.304420	1.702167	-0.572445
C41	C	-0.938833	1.934698	-1.225958
H42	H	-0.933557	1.930253	-1.313923
H43	H	-1.019303	1.907777	-1.196174
H44	H	-0.925811	2.019423	-1.211909
