data_functionalizedCrystal
_audit_creation_method	'MofGen! by Chris Wilmer'
_symmetry_space_group_name_H-M	'P1'
_symmetry_Int_Tables_number	1
_symmetry_cell_setting	triclinic
loop_
_symmetry_equiv_pos_as_xyz
  x,y,z
_cell_length_a	19.805407
_cell_length_b	18.101396
_cell_length_c	19.805399
_cell_angle_alpha	90.024487
_cell_angle_beta	89.982197
_cell_angle_gamma	89.965660
loop_
_atom_site_label
_atom_site_type_symbol
_atom_site_fract_x
_atom_site_fract_y
_atom_site_fract_z
Zn1	Zn	1.034686	0.294900	-0.382702
Zn2	Zn	1.034580	0.418743	-0.269520
Zn3	Zn	0.921500	0.294914	-0.269530
Zn4	Zn	0.921443	0.418698	-0.382670
O5	O	0.978052	0.356814	-0.326106
O6	O	1.129388	0.311341	-0.367697
O7	O	1.019559	0.402342	-0.174805
O8	O	0.936583	0.191280	-0.284560
O9	O	1.129310	0.402328	-0.284543
O10	O	1.019740	0.191269	-0.367707
O11	O	0.936480	0.311366	-0.174812
O12	O	0.826776	0.311322	-0.284529
O13	O	0.936485	0.402251	-0.477391
O14	O	0.826734	0.402265	-0.367653
O15	O	1.019684	0.311297	-0.477415
O16	O	1.019503	0.522370	-0.284512
O17	O	0.936382	0.522337	-0.367643
C18	C	0.802196	0.356791	-0.326089
C19	C	0.726964	0.356799	-0.326098
C20	C	0.977943	0.549225	-0.326088
C21	C	0.977959	0.631539	-0.326103
C22	C	0.691661	0.309505	-0.369463
C23	C	0.620973	0.309509	-0.369465
C24	C	0.585589	0.356811	-0.326106
C25	C	0.620896	0.404106	-0.282737
C26	C	0.691584	0.404098	-0.282732
C27	C	0.335823	0.404139	-0.282758
C28	C	0.265131	0.404146	-0.282768
C29	C	0.265212	0.309551	-0.369492
C30	C	0.335899	0.309543	-0.369486
C31	C	0.371201	0.356835	-0.326115
C32	C	0.447850	0.356829	-0.326111
C33	C	0.508941	0.356821	-0.326113
C34	C	0.978079	0.930630	-0.326142
C35	C	0.925906	0.899314	-0.378575
C36	C	0.925666	0.813696	-0.378411
C37	C	0.978019	0.782247	-0.326123
C38	C	0.958706	0.813394	-0.254789
C39	C	0.958361	0.899040	-0.255104
C40	C	1.049683	0.898978	-0.344414
C41	C	1.049270	0.813327	-0.345978
C42	C	0.977987	0.698388	-0.326108
C43	C	0.978110	1.014489	-0.326152
C44	C	1.154595	0.356838	-0.326123
C45	C	1.229827	0.356848	-0.326130
C46	C	0.978090	0.356767	-0.502648
C47	C	0.978106	0.356747	-0.577881
C48	C	0.978156	1.163652	-0.326141
C49	C	0.978140	1.081338	-0.326163
C50	C	1.021429	0.309385	-0.613238
C51	C	1.021436	0.309364	-0.683926
C52	C	0.978123	0.356709	-0.719256
C53	C	0.934796	0.404073	-0.683894
C54	C	0.934786	0.404090	-0.613207
C55	C	0.934834	0.404004	-0.968967
C56	C	0.934849	0.403985	-1.039659
C57	C	1.021484	0.309278	-1.039687
C58	C	1.021474	0.309295	-0.969000
C59	C	0.978145	0.356656	-0.933644
C60	C	0.978137	0.356678	-0.856995
C61	C	0.978134	0.356691	-0.795903
C62	C	0.978053	0.356807	-0.150250
C63	C	0.978168	0.356618	-0.075018
H64	H	0.720466	0.270989	-0.404772
C65	C	0.887652	0.926116	-0.234201
H66	H	0.859407	0.884772	-0.225601
H67	H	0.891114	0.955367	-0.194522
H68	H	0.868806	0.954901	-0.269597
C69	C	1.102181	0.926260	-0.292780
H70	H	1.080606	0.956801	-0.260249
H71	H	1.122137	0.885028	-0.270825
H72	H	1.136176	0.953777	-0.315400
C73	C	0.941996	0.927166	-0.450247
H74	H	0.980681	0.958136	-0.448840
H75	H	0.950617	0.886216	-0.479002
H76	H	0.904600	0.954374	-0.467109
C77	C	0.854641	0.928461	-0.362430
H78	H	0.856544	0.959630	-0.323873
H79	H	0.838008	0.955706	-0.399888
H80	H	0.825405	0.888024	-0.353554
C81	C	1.069116	0.257213	-0.930141
H82	H	1.094914	0.228997	-0.961323
H83	H	1.098584	0.285549	-0.902563
H84	H	1.043234	0.224948	-0.902570
C85	C	0.374819	0.257509	-0.417178
H86	H	0.343669	0.229337	-0.443001
H87	H	0.402395	0.285874	-0.446622
H88	H	0.402396	0.225200	-0.391328
C89	C	1.069142	0.257175	-1.078581
H90	H	1.062942	0.263938	-1.125739
H91	H	1.114609	0.268025	-1.067001
H92	H	1.059266	0.207416	-1.067001
H93	H	0.720326	0.442609	-0.247420
H94	H	0.872595	0.793270	-0.366307
H95	H	0.906922	0.792006	-0.239033
H96	H	0.899575	0.442540	-1.068423
H97	H	0.899527	0.442619	-0.712665
C98	C	0.887160	0.456084	-0.930084
H99	H	0.861367	0.484276	-0.961251
H100	H	0.857687	0.427741	-0.902520
H101	H	0.913011	0.488372	-0.902498
H102	H	0.899501	0.442650	-0.584419
C103	C	1.069094	0.257269	-0.722817
H104	H	1.094894	0.229082	-0.691652
H105	H	1.043232	0.224988	-0.750393
H106	H	1.098571	0.285602	-0.750391
H107	H	0.592232	0.271000	-0.404778
H108	H	0.236323	0.442666	-0.247458
C109	C	0.226379	0.257522	-0.417194
H110	H	0.179212	0.264293	-0.410984
H111	H	0.237976	0.268425	-0.462652
H112	H	0.237985	0.207746	-0.407362
H113	H	0.364557	0.442648	-0.247443
H114	H	1.056702	0.270834	-0.584478
H115	H	0.592081	0.442616	-0.247431
H116	H	1.063835	0.792967	-0.398476
C117	C	0.941966	0.785240	-0.449868
H118	H	0.948793	0.826023	-0.479260
H119	H	0.981747	0.755938	-0.448492
H120	H	0.905395	0.756215	-0.465946
H121	H	0.994714	0.919757	-0.214705
C122	C	1.008424	0.785874	-0.200570
H123	H	1.041480	0.755067	-0.221004
H124	H	1.029940	0.826985	-0.179950
H125	H	0.984524	0.758576	-0.167311
C126	C	1.073465	0.928085	-0.413488
H127	H	1.039942	0.959815	-0.431831
H128	H	1.114411	0.954721	-0.408009
H129	H	1.080696	0.887669	-0.443245
H130	H	1.090203	0.791915	-0.310571
