data_functionalizedCrystal
_audit_creation_method	'MofGen! by Chris Wilmer'
_symmetry_space_group_name_H-M	'P1'
_symmetry_Int_Tables_number	1
_symmetry_cell_setting	triclinic
loop_
_symmetry_equiv_pos_as_xyz
  x,y,z
_cell_length_a	23.532407
_cell_length_b	23.532407
_cell_length_c	22.610064
_cell_angle_alpha	90.000603
_cell_angle_beta	89.994501
_cell_angle_gamma	97.151288
loop_
_atom_site_label
_atom_site_type_symbol
_atom_site_fract_x
_atom_site_fract_y
_atom_site_fract_z
O1	O	0.755263	-0.069127	-0.049153
O2	O	0.589400	-0.079131	-0.049163
O3	O	0.677333	0.008803	-0.049147
O4	O	0.667330	-0.157061	-0.049169
O5	O	0.677318	0.008790	0.049222
O6	O	0.589385	-0.079143	0.049206
O7	O	0.755248	-0.069140	0.049216
Zn8	Zn	0.672314	-0.074144	0.064829
Zn9	Zn	0.672334	-0.074127	-0.064777
O10	O	0.667315	-0.157074	0.049200
C11	C	0.568176	-0.078882	0.000020
C12	C	0.504959	-0.078116	0.000017
C13	C	0.238792	-0.022921	0.000040
C14	C	0.298192	-0.023632	0.000040
O15	O	0.334937	0.020153	0.000066
N16	N	0.320818	-0.075909	0.000029
C17	C	0.284041	-0.127477	0.000024
O18	O	0.308740	-0.172007	0.000015
C19	C	0.224642	-0.126765	0.000029
C20	C	0.202019	-0.074485	0.000034
C21	C	0.216168	0.029354	0.000046
C22	C	0.156772	0.030066	0.000045
C23	C	0.119999	-0.021499	0.000038
C24	C	0.142623	-0.073774	0.000033
C25	C	0.187865	-0.178333	0.000028
C26	C	0.128463	-0.177616	0.000033
C27	C	0.105840	-0.125336	0.000038
C28	C	0.046454	-0.124627	0.000025
N29	N	0.023828	-0.072351	0.000036
C30	C	0.060600	-0.020787	0.000043
C31	C	0.408783	-0.128968	0.000016
C32	C	0.468181	-0.129681	0.000007
C33	C	0.482328	-0.025836	0.000024
C34	C	0.422929	-0.025124	0.000028
C35	C	0.386157	-0.076692	0.000027
C36	C	-0.064136	-0.019297	0.000041
C37	C	-0.123538	-0.018590	0.000037
C38	C	-0.137680	-0.122435	0.000024
C39	C	-0.078284	-0.123142	0.000024
C40	C	-0.041512	-0.071568	0.000034
O41	O	0.009675	-0.168390	0.000001
O42	O	0.035892	0.023737	0.000060
C43	C	0.677071	0.030012	0.000039
C44	C	0.676305	0.093229	0.000043
C45	C	0.776472	-0.069389	0.000031
C46	C	0.839689	-0.070155	0.000031
C47	C	0.667577	-0.178283	0.000012
C48	C	0.668343	-0.241500	0.000004
N49	N	0.672304	-0.074155	0.153282
C50	C	0.723538	0.492332	0.000014
C51	C	0.722827	0.551733	0.000009
O52	O	0.766613	0.588477	-0.000010
N53	N	0.670551	0.574359	0.000007
C54	C	0.618982	0.537581	0.000002
O55	O	0.574452	0.562281	-0.000001
C56	C	0.619695	0.478182	0.000003
C57	C	0.671974	0.455559	0.000011
C58	C	0.775814	0.469709	0.000022
C59	C	0.776525	0.410313	0.000028
C60	C	0.724961	0.373540	0.000025
C61	C	0.672685	0.396163	0.000017
C62	C	0.568127	0.441406	-0.000006
C63	C	0.568843	0.382003	-0.000006
C64	C	0.621123	0.359381	0.000003
C65	C	0.621832	0.299994	0.000020
N66	N	0.674109	0.277368	0.000023
C67	C	0.725673	0.314141	0.000025
C68	C	0.617491	0.662324	0.000001
C69	C	0.616778	0.721722	0.000005
C70	C	0.720623	0.735869	0.000011
C71	C	0.721335	0.676470	0.000011
C72	C	0.669767	0.639698	0.000003
C73	C	0.727163	0.189404	0.000038
C74	C	0.727869	0.130002	0.000046
C75	C	0.624025	0.115860	0.000037
C76	C	0.623318	0.175257	0.000032
C77	C	0.674891	0.212028	0.000030
O78	O	0.578069	0.263215	0.000037
O79	O	0.770196	0.289433	0.000021
N80	N	0.672349	-0.074111	-0.153229
C81	C	0.711273	-0.035196	0.561930
C82	C	0.711276	-0.035192	0.623850
O83	O	0.744384	-0.002076	0.655875
N84	N	0.672334	-0.074115	0.654819
C85	C	0.633383	-0.113041	0.623864
O86	O	0.600259	-0.146148	0.655891
C87	C	0.633377	-0.113042	0.561945
C88	C	0.672326	-0.074120	0.530980
C89	C	0.750217	0.003723	0.530965
C90	C	0.750215	0.003718	0.469049
C91	C	0.711268	-0.035206	0.438099
C92	C	0.672323	-0.074125	0.469064
C93	C	0.594424	-0.151965	0.530992
C94	C	0.594422	-0.151963	0.469069
C95	C	0.633370	-0.113041	0.438104
C96	C	0.633374	-0.113055	0.376199
N97	N	0.672316	-0.074131	0.345230
C98	C	0.711263	-0.035207	0.376180
C99	C	0.633396	-0.113036	0.753898
C100	C	0.633403	-0.113038	0.815816
C101	C	0.711296	-0.035188	0.815797
C102	C	0.711291	-0.035189	0.753878
C103	C	0.672338	-0.074112	0.722929
C104	C	0.711255	-0.035221	0.246153
C105	C	0.711251	-0.035231	0.184232
C106	C	0.633357	-0.113079	0.184256
C107	C	0.633363	-0.113071	0.246171
C108	C	0.672314	-0.074137	0.277118
O109	O	0.600281	-0.146152	0.344134
O110	O	0.744376	-0.002101	0.344146
H111	H	-0.034204	0.022699	0.000049
N112	N	0.832910	0.385913	0.000022
H113	H	0.835523	0.361583	0.036487
H114	H	0.865433	0.418257	-0.000003
H115	H	0.138359	0.072637	0.000052
H116	H	0.601694	-0.144738	0.841023
N117	N	0.560388	0.746111	0.000002
H118	H	0.557779	0.770438	-0.036466
H119	H	0.557801	0.770413	0.036489
H120	H	-0.059864	-0.165712	0.000019
H121	H	0.098525	-0.219610	0.000034
N122	N	-0.147942	0.037797	0.000045
H123	H	-0.134506	0.060379	-0.036416
H124	H	-0.134509	0.060320	0.036539
N125	N	0.591355	-0.155055	0.279567
H126	H	0.566263	-0.133417	0.305255
H127	H	0.613010	-0.180152	0.305224
H128	H	0.206274	-0.220904	0.000021
N129	N	0.566933	0.199662	0.000031
H130	H	0.534375	0.167350	0.000032
H131	H	0.564382	0.223992	-0.036441
N132	N	0.492572	-0.186071	-0.000012
H133	H	0.479135	-0.208652	0.036450
H134	H	0.535778	-0.178659	-0.000035
H135	H	0.601677	-0.144737	0.728702
H136	H	0.378846	-0.170964	0.000010
H137	H	0.246104	0.071347	0.000053
H138	H	0.562700	-0.183658	0.443873
N139	N	0.753272	0.006767	0.279523
H140	H	0.778364	-0.014869	0.305209
H141	H	0.731622	0.031871	0.305182
H142	H	0.743008	-0.003493	0.841008
N143	N	0.753298	0.006791	0.720482
H144	H	0.777971	0.031446	0.749490
H145	H	0.731640	0.031861	0.694797
H146	H	0.770443	0.111587	0.000055
H147	H	0.575496	0.632386	-0.000000
N148	N	0.552406	-0.193937	0.564381
H149	H	0.527731	-0.218586	0.535369
H150	H	0.527359	-0.172249	0.590067
H151	H	0.404515	0.017447	0.000033
N152	N	-0.177348	-0.178048	0.000014
H153	H	-0.218408	-0.169660	0.000017
H154	H	-0.170060	-0.200849	0.036479
H155	H	0.601648	-0.144772	0.159046
N156	N	0.511739	0.465796	-0.000008
H157	H	0.479187	0.433480	-0.000010
H158	H	0.509182	0.490132	-0.036475
H159	H	0.526850	0.352065	-0.000013
H160	H	0.742969	-0.003536	0.159021
H161	H	0.769159	0.219337	0.000034
N162	N	0.521997	0.029782	0.000032
H163	H	0.563057	0.021394	0.000030
H164	H	0.514703	0.052574	0.036503
H165	H	0.582043	0.085909	0.000037
N166	N	0.831434	0.509366	0.000025
H167	H	0.864653	0.486012	0.000031
H168	H	0.833396	0.534317	0.036494
H169	H	0.763906	0.658055	0.000018
H170	H	0.762610	0.765821	0.000010
N171	N	0.792221	0.045701	0.435655
H172	H	0.816890	0.070357	0.464665
H173	H	0.770562	0.070769	0.409969
H174	H	0.781933	0.035422	0.556159
