data_functionalizedCrystal
_audit_creation_method	'MofGen! by Chris Wilmer'
_symmetry_space_group_name_H-M	'P1'
_symmetry_Int_Tables_number	1
_symmetry_cell_setting	triclinic
loop_
_symmetry_equiv_pos_as_xyz
  x,y,z
_cell_length_a	21.295419
_cell_length_b	29.839131
_cell_length_c	21.295411
_cell_angle_alpha	90.016194
_cell_angle_beta	90.024539
_cell_angle_gamma	90.056504
loop_
_atom_site_label
_atom_site_type_symbol
_atom_site_fract_x
_atom_site_fract_y
_atom_site_fract_z
Zn1	Zn	0.962307	-0.178727	0.355935
Zn2	Zn	0.962188	-0.253843	0.250670
Zn3	Zn	0.857030	-0.178747	0.250680
Zn4	Zn	0.856979	-0.253850	0.355902
O5	O	0.909626	-0.216292	0.303297
O6	O	1.050380	-0.188680	0.341981
O7	O	0.948211	-0.243886	0.162582
O8	O	0.871066	-0.115877	0.264660
O9	O	1.050293	-0.243867	0.264644
O10	O	0.948412	-0.115863	0.341990
O11	O	0.870951	-0.188714	0.162589
O12	O	0.768934	-0.188721	0.264628
O13	O	0.870979	-0.243880	0.443996
O14	O	0.768896	-0.243899	0.341934
O15	O	0.948363	-0.188687	0.444020
O16	O	0.948161	-0.316711	0.264612
O17	O	0.870864	-0.316716	0.341925
C18	C	0.746074	-0.216313	0.303279
C19	C	0.676106	-0.216333	0.303287
C20	C	0.643307	-0.187644	0.343618
C21	C	0.577565	-0.187632	0.343621
C22	C	0.544624	-0.216317	0.303298
C23	C	0.577431	-0.245008	0.262958
C24	C	0.643172	-0.245016	0.262953
N25	N	0.441337	-0.255624	0.298384
N26	N	0.378886	-0.255615	0.298393
C27	C	0.346549	-0.216294	0.303312
N28	N	0.379023	-0.176981	0.308234
N29	N	0.441480	-0.176990	0.308228
C30	C	0.473338	-0.216311	0.303299
C31	C	0.242464	-0.187590	0.343649
C32	C	0.176721	-0.187577	0.343647
C33	C	0.176588	-0.244957	0.262987
C34	C	0.242330	-0.244965	0.262986
C35	C	0.275265	-0.216282	0.303320
C36	C	0.909511	-0.333014	0.303278
C37	C	0.909520	-0.382949	0.303290
C38	C	0.869403	-0.739554	0.343551
C39	C	0.869320	-0.551881	0.343531
O40	O	0.835074	-0.527633	0.377751
N41	N	0.909587	-0.528394	0.303309
C42	C	0.949880	-0.551827	0.263092
O43	O	0.984132	-0.527544	0.228884
C44	C	0.949966	-0.739500	0.263115
C45	C	0.909692	-0.762985	0.303336
C46	C	0.829133	-0.763040	0.383769
C47	C	0.829152	-0.809955	0.383771
C48	C	0.869441	-0.833385	0.343555
C49	C	0.909711	-0.809900	0.303338
C50	C	0.990262	-0.762932	0.222901
C51	C	0.990281	-0.809853	0.222912
C52	C	0.950007	-0.833338	0.263132
C53	C	0.950018	-0.880246	0.263124
N54	N	0.909752	-0.903733	0.303346
C55	C	0.869463	-0.880303	0.343562
C56	C	0.949831	-0.453297	0.263081
C57	C	0.949809	-0.406379	0.263075
C58	C	0.869250	-0.406436	0.343515
C59	C	0.869269	-0.453355	0.343519
C60	C	0.909564	-0.476784	0.303304
C61	C	0.869505	-0.978829	0.343563
C62	C	0.869525	-1.025749	0.343560
C63	C	0.950087	-1.025687	0.263122
C64	C	0.950064	-0.978772	0.263122
C65	C	0.909771	-0.955344	0.303348
O66	O	0.984251	-0.904524	0.228928
O67	O	0.835226	-0.904595	0.377774
C68	C	0.869384	-0.692639	0.343549
C69	C	0.909654	-0.669154	0.303331
C70	C	0.949943	-0.692584	0.263116
C71	C	0.909632	-0.622236	0.303325
C72	C	0.869343	-0.598806	0.343540
C73	C	0.829077	-0.622293	0.383763
C74	C	0.829096	-0.669209	0.383765
C75	C	0.990210	-0.669097	0.222893
C76	C	0.990187	-0.622181	0.222894
C77	C	0.949898	-0.598751	0.263110
C78	C	1.073816	-0.216270	0.303315
C79	C	1.143784	-0.216261	0.303323
C80	C	0.909678	-0.216282	0.467487
C81	C	0.909700	-0.216278	0.537455
C82	C	0.909758	-0.099113	0.303330
C83	C	0.909814	-0.049179	0.303344
C84	C	0.909610	-0.216269	0.139745
C85	C	0.909710	-0.216146	0.069778
C86	C	0.949992	-0.187538	0.570336
C87	C	0.949992	-0.187519	0.636078
C88	C	0.909705	-0.216247	0.668938
C89	C	0.869405	-0.244989	0.636050
C90	C	0.869403	-0.245005	0.570308
N91	N	0.904838	-0.255549	0.772158
N92	N	0.904844	-0.255533	0.834610
C93	C	0.909709	-0.216202	0.867013
N94	N	0.914581	-0.176886	0.834605
N95	N	0.914578	-0.176903	0.772147
C96	C	0.909703	-0.216233	0.740223
C97	C	0.950003	-0.187438	0.971179
C98	C	0.949997	-0.187418	1.036922
C99	C	0.869414	-0.244893	1.036893
C100	C	0.869416	-0.244909	0.971150
C101	C	0.909714	-0.216182	0.938297
H102	H	0.149768	-0.268312	0.230156
C103	C	0.102840	-0.181419	0.428340
C104	C	0.140665	-0.156040	0.387983
H105	H	0.080579	-0.161949	0.455710
H106	H	0.128466	-0.201020	0.452364
H107	H	0.073817	-0.198496	0.404314
H108	H	0.169691	-0.138965	0.412009
H109	H	0.115037	-0.136431	0.363957
C110	C	0.744139	-0.162179	0.379431
C111	C	0.679508	-0.156115	0.387950
H112	H	0.766488	-0.142716	0.406802
H113	H	0.754899	-0.155559	0.337157
H114	H	0.754863	-0.192377	0.388567
H115	H	0.668784	-0.125918	0.378809
H116	H	0.668745	-0.162732	0.430233
C117	C	0.860602	-0.305357	0.897218
C118	C	0.825131	-0.276505	0.935003
H119	H	0.833258	-0.324861	0.874901
H120	H	0.888004	-0.322531	0.922877
H121	H	0.884593	-0.288245	0.868243
H122	H	0.801143	-0.293617	0.963982
H123	H	0.797718	-0.259330	0.909342
H124	H	0.982852	-0.959650	0.230365
C125	C	0.584293	-0.130928	0.423365
C126	C	0.541502	-0.156100	0.387963
H127	H	0.562029	-0.111464	0.450743
H128	H	0.609943	-0.113712	0.395983
H129	H	0.609919	-0.150536	0.447386
H130	H	0.515878	-0.136492	0.363939
H131	H	0.515841	-0.173317	0.415348
H132	H	0.269036	-0.268329	0.230146
H133	H	0.550606	-0.268363	0.230127
C134	C	0.793408	-0.881897	0.419513
C135	C	0.784890	-0.835766	0.427991
H136	H	0.766079	-0.897829	0.446814
H137	H	0.835697	-0.889543	0.428764
H138	H	0.784213	-0.889606	0.377211
H139	H	0.794089	-0.828057	0.470292
H140	H	0.742591	-0.828118	0.418744
H141	H	1.023097	-0.828927	0.190165
C142	C	0.636436	-0.301733	0.183227
C143	C	0.679228	-0.276557	0.218622
H144	H	0.658698	-0.321208	0.155863
H145	H	0.610818	-0.282131	0.159197
H146	H	0.610776	-0.318941	0.210619
H147	H	0.704885	-0.259347	0.191230
H148	H	0.704857	-0.296162	0.242654
H149	H	0.269281	-0.164231	0.376487
C150	C	0.789895	-1.021085	0.423077
C151	C	0.825257	-1.051563	0.387777
H152	H	0.762571	-1.037021	0.450376
H153	H	0.765825	-1.002815	0.395626
H154	H	0.817311	-1.002754	0.447177
H155	H	0.797842	-1.069892	0.363673
H156	H	0.849329	-1.069840	0.415231
H157	H	0.982805	-0.164146	0.543591
H158	H	0.836695	-0.959759	0.376319
H159	H	0.982812	-0.164045	0.944428
C160	C	0.749502	-0.767821	0.463270
C161	C	0.784838	-0.737290	0.427975
H162	H	0.722149	-0.751926	0.490557
H163	H	0.776926	-0.786085	0.487377
H164	H	0.725456	-0.786153	0.435810
H165	H	0.808888	-0.718960	0.455435
H166	H	0.757410	-0.719019	0.403866
C167	C	1.034676	-0.181261	0.710047
C168	C	0.994287	-0.155928	0.672231
H169	H	1.062020	-0.161758	0.732367
H170	H	1.058726	-0.200834	0.684409
H171	H	1.010671	-0.198365	0.739020
H172	H	1.018292	-0.138827	0.643255
H173	H	0.970235	-0.136347	0.697872
C174	C	0.789641	-0.448688	0.423030
C175	C	0.825005	-0.479167	0.387736
H176	H	0.762318	-0.464623	0.450333
H177	H	0.765570	-0.430422	0.395575
H178	H	0.817055	-0.430353	0.447127
H179	H	0.797592	-0.497500	0.363636
H180	H	0.849079	-0.497441	0.415194
H181	H	0.982596	-0.387261	0.230317
C182	C	0.833461	-0.334536	0.379224
C183	C	0.824968	-0.380676	0.387727
H184	H	0.806130	-0.318632	0.406523
H185	H	0.824259	-0.326871	0.336925
H186	H	0.875753	-0.326813	0.388469
H187	H	0.782677	-0.388399	0.378477
H188	H	0.834165	-0.388344	0.430035
C189	C	0.833639	-0.270491	0.736814
C190	C	0.825125	-0.276571	0.672167
H191	H	0.806303	-0.289991	0.759110
H192	H	0.824459	-0.240309	0.747581
H193	H	0.875930	-0.277058	0.747596
H194	H	0.782835	-0.270001	0.661384
H195	H	0.834301	-0.306760	0.661395
C196	C	1.029452	-0.448517	0.183563
C197	C	0.994122	-0.479047	0.218867
H198	H	1.056791	-0.464414	0.156263
H199	H	1.053507	-0.430190	0.211012
H200	H	1.002018	-0.430249	0.159463
H201	H	1.021556	-0.497313	0.242971
H202	H	0.970066	-0.497382	0.191415
C203	C	1.069908	-0.767609	0.143411
C204	C	1.034540	-0.737126	0.178696
H205	H	1.097249	-0.751676	0.116124
H206	H	1.042502	-0.785936	0.119305
H207	H	1.093967	-0.785882	0.170877
H208	H	1.010478	-0.718854	0.151230
H209	H	1.061949	-0.718791	0.202804
C210	C	0.985859	-1.097588	0.227400
C211	C	0.994356	-1.051448	0.218903
H212	H	1.013189	-1.113492	0.200100
H213	H	0.943571	-1.105308	0.218158
H214	H	0.995064	-1.105257	0.269703
H215	H	0.985146	-1.043779	0.176601
H216	H	1.036653	-1.043725	0.228140
C217	C	1.029661	-0.130618	1.030344
C218	C	0.994291	-0.155825	1.073067
H219	H	1.057009	-0.111116	1.052660
H220	H	1.002256	-0.113442	1.004691
H221	H	1.053712	-0.150202	1.004713
H222	H	0.970236	-0.136240	1.098695
H223	H	1.021699	-0.173002	1.098731
C224	C	0.833650	-0.270397	1.137652
C225	C	0.825137	-0.276477	1.073005
H226	H	0.806317	-0.289900	1.159947
H227	H	0.824463	-0.240216	1.148420
H228	H	0.875942	-0.276960	1.148434
H229	H	0.782846	-0.269911	1.062222
H230	H	0.834319	-0.306665	1.062233
C231	C	0.789755	-0.301817	0.576884
C232	C	0.825117	-0.276603	0.534162
H233	H	0.762420	-0.321327	0.554567
H234	H	0.765696	-0.282240	0.602509
H235	H	0.817169	-0.318988	0.602543
H236	H	0.797703	-0.259429	0.508507
H237	H	0.849178	-0.296182	0.508526
C238	C	0.793289	-0.550393	0.419470
C239	C	0.784793	-0.596532	0.427971
H240	H	0.765956	-0.534488	0.446766
H241	H	0.784092	-0.542727	0.377171
H242	H	0.835580	-0.542671	0.428720
H243	H	0.742502	-0.604254	0.418717
H244	H	0.793985	-0.604201	0.470281
C245	C	1.069828	-0.626849	0.143389
C246	C	1.034462	-0.596370	0.178680
H247	H	1.097166	-0.610914	0.116100
H248	H	1.042421	-0.645176	0.119283
H249	H	1.093891	-0.645123	0.170850
H250	H	1.010395	-0.578097	0.151219
H251	H	1.061872	-0.578035	0.202788
H252	H	0.796301	-0.688326	0.416517
H253	H	1.023019	-0.688169	0.190145
