data_functionalizedCrystal
_audit_creation_method	'MofGen! by Chris Wilmer'
_symmetry_space_group_name_H-M	'P1'
_symmetry_Int_Tables_number	1
_symmetry_cell_setting	triclinic
loop_
_symmetry_equiv_pos_as_xyz
  x,y,z
_cell_length_a	17.640112
_cell_length_b	17.640280
_cell_length_c	17.637464
_cell_angle_alpha	92.150542
_cell_angle_beta	109.606029
_cell_angle_gamma	92.184069
loop_
_atom_site_label
_atom_site_type_symbol
_atom_site_fract_x
_atom_site_fract_y
_atom_site_fract_z
Zn1	Zn	1.193466	-0.110293	-0.183754
Zn2	Zn	1.243952	-0.199819	-0.023315
Zn3	Zn	1.083554	-0.110327	-0.073773
Zn4	Zn	1.093735	-0.260536	-0.173505
O5	O	1.153677	-0.170244	-0.113587
O6	O	1.309028	-0.096744	-0.145644
O7	O	1.239543	-0.162551	0.078874
O8	O	1.072745	-0.009993	-0.113768
O9	O	1.346120	-0.162518	-0.027770
O10	O	1.153496	-0.009968	-0.194571
O11	O	1.121699	-0.096802	0.041803
O12	O	0.976040	-0.155677	-0.103830
O13	O	1.090097	-0.266002	-0.283747
O14	O	0.983520	-0.266035	-0.177102
O15	O	1.163368	-0.155619	-0.291277
O16	O	1.249415	-0.308203	-0.017832
O17	O	1.139051	-0.352812	-0.128176
C18	C	0.951552	-0.217449	-0.144830
C19	C	0.865084	-0.237666	-0.158210
C20	C	1.200835	-0.356521	-0.066430
C21	C	1.221077	-0.436201	-0.046271
C22	C	0.560978	-0.016651	-0.011951
C23	C	0.479730	-0.035665	-0.024530
C24	C	0.487631	-0.150667	-0.100625
C25	C	0.568881	-0.131661	-0.088055
C26	C	0.605548	-0.064653	-0.043717
C27	C	0.613451	-0.179663	-0.119822
C28	C	0.694694	-0.160661	-0.107249
C29	C	0.731368	-0.093657	-0.062911
C30	C	0.686791	-0.045651	-0.031144
C31	C	0.576784	-0.246673	-0.164155
C32	C	0.621354	-0.294675	-0.195922
C33	C	0.702597	-0.275670	-0.183354
C34	C	0.739271	-0.208666	-0.139016
C35	C	0.747174	-0.323676	-0.215121
C36	C	0.828417	-0.304674	-0.202548
C37	C	0.820514	-0.189664	-0.126443
C38	C	1.000179	-0.814503	-0.266965
C39	C	1.019204	-0.889368	-0.247997
C40	C	1.134173	-0.842861	-0.133188
C41	C	1.115159	-0.767990	-0.152148
C42	C	1.048161	-0.753818	-0.219037
C43	C	1.163141	-0.707305	-0.104219
C44	C	1.144126	-0.632441	-0.123176
C45	C	1.077130	-0.618263	-0.190060
C46	C	1.029146	-0.678955	-0.237993
C47	C	1.230135	-0.721479	-0.037328
C48	C	1.278117	-0.660794	0.010601
C49	C	1.259106	-0.585928	-0.008359
C50	C	1.192110	-0.571749	-0.075243
C51	C	1.307090	-0.525236	0.039574
C52	C	1.288075	-0.450372	0.020618
C53	C	1.173095	-0.496886	-0.094199
C54	C	1.356591	-0.122854	-0.082222
C55	C	1.443061	-0.102660	-0.068856
C56	C	1.122237	-0.217580	-0.316533
C57	C	1.108839	-0.237752	-0.403017
C58	C	1.106353	0.016762	-0.160941
C59	C	1.086187	0.096452	-0.181121
C60	C	1.051810	-0.323649	-0.520993
C61	C	1.064404	-0.304687	-0.439729
C62	C	1.140701	-0.189753	-0.447561
C63	C	1.128117	-0.208706	-0.528826
C64	C	1.083670	-0.275655	-0.565536
C65	C	1.159977	-0.160712	-0.573369
C66	C	1.147391	-0.179663	-0.654628
C67	C	1.102944	-0.246607	-0.691345
C68	C	1.071084	-0.294605	-0.646795
C69	C	1.204419	-0.093761	-0.536659
C70	C	1.236279	-0.045767	-0.581202
C71	C	1.223697	-0.064720	-0.662462
C72	C	1.179251	-0.131664	-0.699178
C73	C	1.255557	-0.016722	-0.707011
C74	C	1.242971	-0.035672	-0.788271
C75	C	1.166664	-0.150615	-0.780437
C76	C	1.185027	-0.123030	0.088564
C77	C	1.198524	-0.102621	0.175020
H78	H	0.797522	-0.078187	-0.052673
H79	H	0.590829	0.037921	0.024140
O80	O	1.339844	-0.384916	0.072295
H81	H	1.315366	-0.330479	0.047874
H82	H	0.974594	-0.667417	-0.292466
H83	H	1.038438	-0.343765	-0.403470
H84	H	0.457767	-0.205226	-0.136723
O85	O	1.118719	-0.222822	-0.820041
H86	H	1.157033	-0.259803	-0.842444
H87	H	0.716643	0.008922	0.004946
O88	O	1.217997	-0.073326	-0.449013
H89	H	1.191901	-0.017928	-0.443708
H90	H	1.272465	0.008743	-0.551303
H91	H	1.061644	-0.557303	-0.205488
H92	H	1.092690	-0.262031	-0.757514
H93	H	0.443441	0.003433	0.001335
H94	H	0.510630	-0.262143	-0.174390
H95	H	1.015624	-0.378169	-0.550882
O96	O	1.303497	0.055484	-0.667414
H97	H	1.306899	0.060596	-0.603425
O98	O	1.277337	0.016085	-0.836321
H99	H	1.310366	0.065817	-0.797141
H100	H	0.591489	-0.349235	-0.232019
H101	H	0.945627	-0.802966	-0.321438
O102	O	0.876495	-0.356425	-0.236831
H103	H	0.928141	-0.376065	-0.187003
H104	H	1.245617	-0.782439	-0.021897
H105	H	1.188721	-0.854411	-0.078725
H106	H	0.980135	-0.938779	-0.287039
O107	O	1.350396	-0.676080	0.082725
H108	H	1.355567	-0.738333	0.087848
H109	H	0.850366	-0.135091	-0.090353
H110	H	0.717309	-0.378238	-0.251214
O111	O	1.100830	-0.481593	-0.166344
H112	H	1.108302	-0.507085	-0.221735
H113	H	1.176887	-0.135242	-0.417661
O114	O	1.379363	-0.540524	0.111704
H115	H	1.384530	-0.602777	0.116826
H116	H	1.034897	-0.349125	-0.676684
