data_functionalizedCrystal
_audit_creation_method	'MofGen! by Chris Wilmer'
_symmetry_space_group_name_H-M	'P1'
_symmetry_Int_Tables_number	1
_symmetry_cell_setting	triclinic
loop_
_symmetry_equiv_pos_as_xyz
  x,y,z
_cell_length_a	21.295417
_cell_length_b	16.120542
_cell_length_c	16.120297
_cell_angle_alpha	89.872913
_cell_angle_beta	92.867002
_cell_angle_gamma	92.878379
loop_
_atom_site_label
_atom_site_type_symbol
_atom_site_fract_x
_atom_site_fract_y
_atom_site_fract_z
Zn1	Zn	-0.318985	-1.247394	-0.534551
Zn2	Zn	0.181015	-0.747394	-0.034551
Zn3	Zn	-0.419195	-1.254330	-0.395481
Zn4	Zn	0.080805	-0.754330	0.104519
Zn5	Zn	-0.308340	-1.115386	-0.388467
Zn6	Zn	0.191660	-0.615386	0.111533
Zn7	Zn	-0.418607	-1.108286	-0.527447
Zn8	Zn	0.081393	-0.608286	-0.027447
O9	O	-0.366282	-1.181349	-0.461486
O10	O	0.133718	-0.681349	0.038514
O11	O	-0.336979	-1.364680	-0.522011
O12	O	0.163021	-0.864680	-0.022011
O13	O	-0.400281	-1.241772	-0.278185
O14	O	0.099719	-0.741772	0.221815
O15	O	-0.221667	-1.132966	-0.407884
O16	O	0.278333	-0.632966	0.092116
O17	O	-0.410603	-1.369776	-0.419837
O18	O	0.089397	-0.869776	0.080163
O19	O	-0.229488	-1.229952	-0.515211
O20	O	0.270512	-0.729952	-0.015211
O21	O	-0.318837	-1.139691	-0.273033
O22	O	0.181163	-0.639691	0.226967
O23	O	-0.318267	-0.998078	-0.400995
O24	O	0.181733	-0.498078	0.099005
O25	O	-0.409601	-1.120865	-0.644754
O26	O	0.090399	-0.620865	-0.144754
O27	O	-0.399279	-0.992862	-0.503103
O28	O	0.100721	-0.492862	-0.003103
O29	O	-0.336409	-1.223067	-0.649973
O30	O	0.163591	-0.723067	-0.149973
O31	O	-0.507202	-1.234887	-0.412948
O32	O	-0.007202	-0.734887	0.087052
O33	O	-0.506770	-1.127590	-0.509903
O34	O	-0.006770	-0.627590	-0.009903
C35	C	-0.357555	-0.965298	-0.450517
C36	C	0.142445	-0.465298	0.049483
C37	C	-0.353837	-0.872869	-0.445845
C38	C	0.146163	-0.372869	0.054155
C39	C	-0.385546	-0.659902	-0.485680
C40	C	0.114454	-0.159902	0.014320
C41	C	-0.347055	-0.703646	-0.437312
C42	C	0.152945	-0.203646	0.062688
C43	C	-0.350830	-0.797810	-0.442061
C44	C	0.149170	-0.297810	0.057939
C45	C	-0.381773	-0.565729	-0.480932
C46	C	0.118227	-0.065729	0.019068
C47	C	-0.529827	-1.181242	-0.461435
C48	C	-0.029827	-0.681242	0.038565
C49	C	-0.599797	-1.181271	-0.461444
C50	C	-0.099797	-0.681271	0.038556
C51	C	-0.632872	-1.237186	-0.411017
C52	C	-0.132872	-0.737186	0.088983
C53	C	-0.698616	-1.237224	-0.411038
C54	C	-0.198616	-0.737224	0.088962
C55	C	-0.731283	-1.181333	-0.461476
C56	C	-0.231283	-0.681333	0.038524
C57	C	-0.698201	-1.125414	-0.511914
C58	C	-0.198201	-0.625414	-0.011914
C59	C	-0.632458	-1.125383	-0.511898
C60	C	-0.132458	-0.625383	-0.011898
N61	N	-0.831845	-1.108267	-0.464122
N62	N	-0.331845	-0.608267	0.035878
N63	N	-0.894298	-1.108299	-0.464133
N64	N	-0.394298	-0.608299	0.035867
C65	C	-0.929363	-1.181424	-0.461529
C66	C	-0.429363	-0.681424	0.038471
N67	N	-0.899616	-1.254517	-0.458898
N68	N	-0.399616	-0.754517	0.041102
N69	N	-0.837157	-1.254485	-0.458883
N70	N	-0.337157	-0.754485	0.041117
C71	C	-0.802570	-1.181361	-0.461500
C72	C	-0.302570	-0.681361	0.038500
C73	C	-1.033726	-1.237384	-0.411121
C74	C	-0.533726	-0.737384	0.088879
C75	C	-1.099472	-1.237423	-0.411148
C76	C	-0.599472	-0.737423	0.088852
C77	C	-1.099055	-1.125606	-0.512019
C78	C	-0.599055	-0.625606	-0.012019
C79	C	-1.033310	-1.125574	-0.511997
C80	C	-0.533310	-0.625574	-0.011997
C81	C	-1.000650	-1.181462	-0.461544
C82	C	-0.500650	-0.681462	0.038456
C83	C	-0.202099	-1.181478	-0.461558
C84	C	0.297901	-0.681478	0.038442
C85	C	-0.132134	-1.181533	-0.461588
C86	C	0.367866	-0.681533	0.038412
C87	C	-0.374127	-1.170401	-0.678379
C88	C	0.125873	-0.670401	-0.178379
C89	C	-0.377470	-1.165735	-0.770806
C90	C	0.122530	-0.665735	-0.270806
C91	C	-0.375040	-0.398245	-0.472487
C92	C	0.124960	0.101755	0.027513
C93	C	-0.378763	-0.490674	-0.477145
C94	C	0.121237	0.009326	0.022855
C95	C	-0.383558	-1.157186	-0.940030
C96	C	0.116442	-0.657186	-0.440030
C97	C	-0.348824	-1.205675	-0.983803
C98	C	0.151176	-0.705675	-0.483803
C99	C	-0.352212	-1.200919	-1.077965
C100	C	0.147788	-0.700919	-0.577965
C101	C	-0.380171	-1.161942	-0.845859
C102	C	0.119829	-0.661942	-0.345859
C103	C	-0.358424	-1.192303	-0.245440
C104	C	0.141576	-0.692303	0.254560
C105	C	-0.354910	-1.197129	-0.153022
C106	C	0.145090	-0.697129	0.346978
H107	H	-0.421332	-0.693171	-0.530652
H108	H	0.078668	-0.193171	-0.030652
N109	N	-1.133271	-1.294541	-0.359647
N110	N	-0.633271	-0.794541	0.140353
N111	N	-1.173105	-1.346047	-0.391645
N112	N	-0.673105	-0.846047	0.108355
H113	H	-1.196978	-1.386387	-0.355273
H114	H	-0.696978	-0.886387	0.144727
H115	H	-0.415836	-1.112105	-0.973270
H116	H	0.084164	-0.612105	-0.473270
N117	N	-0.302163	-0.661929	-0.380871
N118	N	0.197837	-0.161929	0.119129
N119	N	-0.265977	-0.703004	-0.335386
N120	N	0.234023	-0.203004	0.164614
H121	H	-0.234275	-0.673540	-0.295522
H122	H	0.265725	-0.173540	0.204478
N123	N	-0.599520	-1.294278	-0.359477
N124	N	-0.099520	-0.794278	0.140523
N125	N	-0.629065	-1.344199	-0.314456
N126	N	-0.129065	-0.844199	0.185544
H127	H	-0.605510	-1.384522	-0.278055
H128	H	-0.105510	-0.884522	0.221945
N129	N	-0.732400	-1.294342	-0.359514
N130	N	-0.232400	-0.794342	0.140486
N131	N	-0.703231	-1.344233	-0.314469
N132	N	-0.203231	-0.844233	0.185531
H133	H	-0.727089	-1.384570	-0.278076
H134	H	-0.227089	-0.884570	0.221924
N135	N	-0.731576	-1.068333	-0.563436
N136	N	-0.231576	-0.568333	-0.063436
N137	N	-0.790274	-1.068367	-0.563444
N138	N	-0.290274	-0.568367	-0.063444
H139	H	-0.813847	-1.028054	-0.599836
H140	H	-0.313847	-0.528054	-0.099836
H141	H	-0.605528	-1.079850	-0.552963
H142	H	-0.105528	-0.579850	-0.052963
H143	H	-0.316543	-1.250760	-0.950561
H144	H	0.183457	-0.750760	-0.450561
H145	H	-1.007133	-1.282894	-0.370041
H146	H	-0.507133	-0.782894	0.129959
H147	H	-1.125652	-1.080102	-0.553091
H148	H	-0.625652	-0.580102	-0.053091
H149	H	-1.006379	-1.080040	-0.553057
H150	H	-0.506379	-0.580040	-0.053057
