data_functionalizedCrystal
_audit_creation_method	'MofGen! by Chris Wilmer'
_symmetry_space_group_name_H-M	'P1'
_symmetry_Int_Tables_number	1
_symmetry_cell_setting	triclinic
loop_
_symmetry_equiv_pos_as_xyz
  x,y,z
_cell_length_a	16.994747
_cell_length_b	19.805407
_cell_length_c	19.805399
_cell_angle_alpha	90.019573
_cell_angle_beta	89.996778
_cell_angle_gamma	89.988941
loop_
_atom_site_label
_atom_site_type_symbol
_atom_site_fract_x
_atom_site_fract_y
_atom_site_fract_z
Zn1	Zn	0.314046	1.034808	0.382834
Zn2	Zn	0.445954	1.034753	0.269694
Zn3	Zn	0.314068	0.921623	0.269659
Zn4	Zn	0.445912	0.921616	0.382841
O5	O	0.379995	0.978200	0.326257
O6	O	0.331553	1.129517	0.367838
O7	O	0.428486	1.019726	0.174973
O8	O	0.203684	0.936662	0.284654
O9	O	0.428465	1.129477	0.284714
O10	O	0.203668	1.019819	0.367804
O11	O	0.331590	0.936609	0.174947
O12	O	0.331549	0.826905	0.284661
O13	O	0.428393	0.936652	0.477557
O14	O	0.428414	0.826901	0.367815
O15	O	0.331512	1.019813	0.477552
O16	O	0.556330	1.019720	0.284721
O17	O	0.556299	0.936599	0.367849
C18	C	0.379980	0.802344	0.326235
C19	C	0.379993	0.727112	0.326242
C20	C	0.430506	0.691783	0.369470
C21	C	0.430508	0.621095	0.369480
C22	C	0.379999	0.585736	0.326257
C23	C	0.329479	0.621070	0.283027
C24	C	0.329475	0.691757	0.283021
C25	C	0.329497	0.335997	0.283049
C26	C	0.329507	0.265305	0.283057
C27	C	0.430530	0.265334	0.369508
C28	C	0.430525	0.336021	0.369502
C29	C	0.380003	0.371349	0.326275
C30	C	0.380001	0.447997	0.326266
C31	C	0.380004	0.509089	0.326262
C32	C	0.584935	0.978161	0.326288
C33	C	0.674257	0.978166	0.326285
C34	C	0.174255	0.978243	0.326223
C35	C	0.084933	0.978264	0.326208
Zn36	Zn	0.945155	0.921642	0.269640
Zn37	Zn	0.945111	1.034838	0.382804
Zn38	Zn	0.813305	0.921639	0.382830
Zn39	Zn	0.813209	1.034765	0.269672
O40	O	0.879195	0.978221	0.326236
O41	O	1.055530	0.936689	0.284627
O42	O	0.927649	1.019851	0.477524
O43	O	0.830853	0.826923	0.367812
O44	O	1.055498	1.019854	0.367769
O45	O	0.927722	0.826925	0.284652
O46	O	0.830811	0.936685	0.477543
O47	O	0.702911	0.936614	0.367843
O48	O	0.830690	1.019730	0.174951
O49	O	0.702841	1.019728	0.284707
O50	O	0.927630	0.936619	0.174927
O51	O	0.927556	1.129545	0.367800
O52	O	0.830648	1.129492	0.284682
C53	C	0.379945	0.978238	0.502800
C54	C	0.379924	0.978254	0.578032
C55	C	0.380011	1.154743	0.326279
C56	C	0.380018	1.229975	0.326289
C57	C	0.379988	0.978201	0.150401
C58	C	0.379787	0.978316	0.075169
C59	C	0.329476	1.021557	0.613375
C60	C	0.329453	1.021564	0.684063
C61	C	0.379883	0.978271	0.719407
C62	C	0.430334	0.934963	0.684060
C63	C	0.430352	0.934953	0.613373
C64	C	0.430260	0.935001	0.969133
C65	C	0.430240	0.935016	1.039825
C66	C	0.329361	1.021612	1.039824
C67	C	0.329379	1.021602	0.969136
C68	C	0.379827	0.978292	0.933795
C69	C	0.379850	0.978284	0.857146
C70	C	0.379865	0.978282	0.796055
C71	C	0.879089	1.154077	0.326244
C72	C	0.879067	1.229309	0.326267
C73	C	0.879154	0.978167	0.149694
C74	C	0.879137	0.978143	0.074462
C75	C	0.879303	0.801679	0.326231
C76	C	0.879349	0.726447	0.326228
C77	C	0.879280	0.978227	0.502092
C78	C	0.879448	0.978062	0.577324
C79	C	0.929559	1.264647	0.369517
C80	C	0.929553	1.335335	0.369539
C81	C	0.879052	1.370685	0.326313
C82	C	0.828558	1.335342	0.283057
C83	C	0.828568	1.264655	0.283033
C84	C	0.929601	0.934855	0.039116
C85	C	0.929585	0.934820	-0.031573
C86	C	0.879108	0.978076	-0.066914
C87	C	0.828639	1.021366	-0.031563
C88	C	0.828652	1.021398	0.039124
C89	C	0.828930	0.691112	0.369525
C90	C	0.828958	0.620424	0.369523
C91	C	0.879409	0.585071	0.326227
C92	C	0.929831	0.620410	0.282926
C93	C	0.929798	0.691097	0.282926
C94	C	0.828743	0.934994	0.612634
C95	C	0.828900	0.934825	0.683322
C96	C	0.879759	0.977729	0.718699
C97	C	0.930470	1.020798	0.683384
C98	C	0.930316	1.020963	0.612697
H99	H	0.471664	0.236562	0.404708
C100	C	0.986407	1.067994	0.722305
C101	C	0.986560	1.067812	0.800057
C102	C	1.042492	1.115012	0.838980
C103	C	1.098270	1.162394	0.800150
C104	C	1.098118	1.162578	0.722393
C105	C	1.042186	1.115379	0.683470
H106	H	0.945268	1.032735	0.828805
H107	H	1.042604	1.114875	0.896541
H108	H	1.139673	1.197335	0.828963
H109	H	1.139410	1.197655	0.693645
H110	H	1.042074	1.115515	0.625909
C111	C	0.773126	1.068953	-0.070445
C112	C	0.773129	1.068918	-0.148198
C113	C	0.717622	1.116510	-0.187082
C114	C	0.662112	1.164136	-0.148213
C115	C	0.662107	1.164172	-0.070455
C116	C	0.717614	1.116580	-0.031571
H117	H	0.814223	1.033661	-0.176975
H118	H	0.717627	1.116483	-0.244643
H119	H	0.621023	1.199366	-0.176997
H120	H	0.621013	1.199429	-0.041678
H121	H	0.717610	1.116607	0.025990
H122	H	0.288351	0.592276	0.247837
C123	C	0.485851	0.887325	0.574490
C124	C	0.451682	0.834187	0.525877
C125	C	0.507181	0.786558	0.486994
C126	C	0.596850	0.792066	0.496724
C127	C	0.631024	0.845206	0.545339
C128	C	0.575525	0.892836	0.584222
H129	H	0.385299	0.830108	0.518673
H130	H	0.481882	0.747220	0.451006
H131	H	0.637934	0.756808	0.467940
H132	H	0.697407	0.849286	0.552543
H133	H	0.600824	0.932174	0.620210
H134	H	0.970860	0.719861	0.247670
H135	H	0.970906	0.591615	0.247676
C136	C	0.986088	1.068351	0.573864
C137	C	0.980260	1.145307	0.583814
C138	C	1.036035	1.192700	0.544987
C139	C	1.097638	1.163137	0.496210
C140	C	1.103468	1.086177	0.486258
C141	C	1.047693	1.038784	0.525085
H142	H	0.934656	1.167195	0.619924
H143	H	1.031719	1.249671	0.552355
H144	H	1.138926	1.198219	0.467468
H145	H	1.149073	1.064289	0.450148
H146	H	1.052010	0.981813	0.517717
C147	C	0.773497	0.581562	0.417163
C148	C	0.779964	0.591315	0.494105
C149	C	0.724505	0.552456	0.541746
C150	C	0.662579	0.503844	0.512445
C151	C	0.656110	0.494088	0.435499
C152	C	0.711569	0.532947	0.387858
H153	H	0.825808	0.627303	0.515799
H154	H	0.729295	0.559678	0.598706
H155	H	0.621525	0.475078	0.547711
H156	H	0.610266	0.458100	0.413805
H157	H	0.706779	0.525725	0.330897
H158	H	0.879107	0.978045	-0.124472
H159	H	0.879424	0.527513	0.326232
H160	H	0.970683	0.899567	-0.060345
H161	H	0.787447	1.235888	0.247815
H162	H	0.471639	0.720567	0.404665
C163	C	0.985093	1.374202	0.417129
C164	C	1.074759	1.364468	0.411532
C165	C	1.130297	1.403332	0.459122
C166	C	1.096170	1.451929	0.512309
C167	C	1.006500	1.461665	0.517908
C168	C	0.950962	1.422801	0.470318
H169	H	1.100025	1.328492	0.372158
H170	H	1.196677	1.396125	0.454978
H171	H	1.137283	1.480698	0.547538
H172	H	0.981233	1.497641	0.557282
H173	H	0.884582	1.430008	0.474462
C174	C	0.273940	0.226409	0.235512
C175	C	0.218365	0.265265	0.187965
C176	C	0.162802	0.226369	0.140422
C177	C	0.162814	0.148616	0.140427
C178	C	0.218391	0.109755	0.187976
C179	C	0.273954	0.148651	0.235519
H180	H	0.218354	0.322827	0.187959
H181	H	0.121660	0.255137	0.105223
H182	H	0.121683	0.119823	0.105233
H183	H	0.218402	0.052193	0.187982
H184	H	0.315096	0.119883	0.270718
C185	C	0.273910	0.730623	0.235469
C186	C	0.212024	0.779236	0.264871
C187	C	0.156455	0.818102	0.217321
C188	C	0.162772	0.808355	0.140368
C189	C	0.224661	0.759740	0.110961
C190	C	0.280230	0.720874	0.158512
H191	H	0.207346	0.786453	0.321840
H192	H	0.110641	0.854090	0.239090
H193	H	0.121636	0.837126	0.105168
H194	H	0.229339	0.752523	0.053993
H195	H	0.326044	0.684886	0.136743
C196	C	0.773108	0.887452	0.722159
C197	C	0.717156	0.840273	0.683240
C198	C	0.661363	0.792902	0.722073
C199	C	0.661522	0.792709	0.799826
C200	C	0.717477	0.839890	0.838749
C201	C	0.773270	0.887262	0.799916
H202	H	0.717036	0.840414	0.625679
H203	H	0.619942	0.757975	0.693259
H204	H	0.620221	0.757642	0.828573
H205	H	0.717597	0.839750	0.896310
H206	H	0.814691	0.922188	0.828730
H207	H	0.471642	0.592333	0.404680
H208	H	0.288374	1.056827	0.712836
H209	H	0.879051	1.428243	0.326340
H210	H	0.879876	0.977589	0.776257
H211	H	0.471657	0.364807	0.404696
C212	C	0.773004	1.374233	0.235515
C213	C	0.772995	1.451986	0.235555
C214	C	0.717437	1.490878	0.188017
C215	C	0.661888	1.452018	0.140439
C216	C	0.661895	1.374261	0.140398
C217	C	0.717453	1.335368	0.187935
H218	H	0.814118	1.480756	0.270777
H219	H	0.717432	1.548440	0.188048
H220	H	0.620760	1.480809	0.105249
H221	H	0.620772	1.345490	0.105176
H222	H	0.717458	1.277806	0.187904
H223	H	0.787323	0.900058	0.583839
C224	C	0.985126	0.887269	0.077985
C225	C	1.047052	0.916628	0.126565
C226	C	1.102577	0.869037	0.165431
C227	C	1.096175	0.792086	0.155717
C228	C	1.034246	0.762723	0.107135
C229	C	0.978721	0.810315	0.068269
H230	H	1.051794	0.973595	0.133758
H231	H	1.148420	0.890774	0.201394
H232	H	1.137277	0.756857	0.184487
H233	H	1.029504	0.705757	0.099942
H234	H	0.932877	0.788578	0.032305
H235	H	0.288365	0.364752	0.247845
C236	C	0.485711	0.887385	1.078706
C237	C	0.541198	0.839742	1.039834
C238	C	0.596665	0.792114	1.078715
C239	C	0.596644	0.792129	1.156468
C240	C	0.541155	0.839774	1.195345
C241	C	0.485688	0.887402	1.156464
H242	H	0.541215	0.839729	0.982273
H243	H	0.637742	0.756844	1.049936
H244	H	0.637704	0.756872	1.185250
H245	H	0.541138	0.839787	1.252906
H246	H	0.444611	0.922672	1.185243
C247	C	0.773145	1.069024	0.077999
C248	C	0.779544	1.145965	0.068260
C249	C	0.724033	1.193595	0.107130
C250	C	0.662122	1.164284	0.155740
C251	C	0.655720	1.087339	0.165481
C252	C	0.711231	1.039710	0.126611
H253	H	0.825377	1.167666	0.032274
H254	H	0.728773	1.250555	0.099919
H255	H	0.621030	1.199542	0.184514
H256	H	0.609888	1.065638	0.201467
H257	H	0.706492	0.982750	0.133822
H258	H	0.288412	1.056814	0.584602
H259	H	0.288316	1.056858	0.940362
H260	H	0.288281	1.056875	1.068607
H261	H	0.471350	0.899745	0.940367
H262	H	0.471392	0.899711	0.712843
H263	H	0.787843	0.719887	0.404782
H264	H	0.970683	1.235875	0.404721
