data_functionalizedCrystal
_audit_creation_method	'MofGen! by Chris Wilmer'
_symmetry_space_group_name_H-M	'P1'
_symmetry_Int_Tables_number	1
_symmetry_cell_setting	triclinic
loop_
_symmetry_equiv_pos_as_xyz
  x,y,z
_cell_length_a	6.817900
_cell_length_b	9.582889
_cell_length_c	10.992410
_cell_angle_alpha	90.912548
_cell_angle_beta	108.764651
_cell_angle_gamma	111.207298
loop_
_atom_site_label
_atom_site_type_symbol
_atom_site_fract_x
_atom_site_fract_y
_atom_site_fract_z
V1	V	-4.127217	-0.207056	-0.400358
O2	O	-4.071753	0.009950	-0.392979
O3	O	-4.117543	-0.410557	-0.397387
O4	O	-4.104610	-0.203871	-0.575074
O5	O	-4.084775	-0.198167	-0.214062
V6	V	-4.602485	-0.181099	-0.378104
O7	O	-4.406584	-0.263993	-0.449174
O8	O	-4.773316	-0.124162	-0.329287
O9	O	-4.388953	0.022402	-0.381075
O10	O	-4.775347	-0.398105	-0.385483
O11	O	-4.762325	-0.189988	-0.564400
O12	O	-4.401886	-0.184284	-0.203387
C13	C	-3.971130	-0.460166	-0.391011
C14	C	-4.044679	-0.626531	-0.389746
C15	C	-3.954631	-0.196516	-0.617667
C16	C	-4.017687	-0.195258	-0.760497
C17	C	-3.884092	-0.183800	-0.955633
C18	C	-3.818663	-0.185728	-0.807148
C19	C	-4.224945	-0.342815	-0.837433
C20	C	-4.289177	-0.341510	-0.986001
C21	C	-4.149046	-0.055786	-0.948294
C22	C	-4.078293	-0.055087	-0.799282
C23	C	-4.198709	0.072003	-0.387447
C24	C	-4.104400	0.238366	-0.388720
C25	C	-4.215207	-0.191644	-0.160788
C26	C	-4.131388	-0.192894	-0.017957
H27	H	-3.663562	-0.079628	-0.753927
H28	H	-4.220298	-0.053354	-0.766772
O29	O	-4.017705	0.077765	-0.972807
C30	C	-3.907862	0.049296	-1.053434
H31	H	-3.898054	-0.066412	-1.043121
H32	H	-4.005865	0.050949	-1.158855
C33	C	-3.680782	0.314381	-1.025697
C34	C	-3.668719	0.172271	-1.013022
H35	H	-3.533272	0.390240	-1.000774
H36	H	-3.754791	0.333563	-0.971381
H37	H	-3.762461	0.315737	-1.113550
H38	H	-3.587066	0.170910	-0.925168
H39	H	-3.594691	0.153092	-1.067322
H40	H	-3.760197	-0.076971	-0.974584
H41	H	-4.328366	-0.061149	-0.989128
O42	O	-3.899309	0.075093	-0.736769
C43	C	-3.842276	0.077333	-0.601355
H44	H	-3.994808	-0.000298	-0.579483
H45	H	-3.699320	0.036361	-0.562972
C46	C	-3.579696	0.335338	-0.561696
C47	C	-3.767045	0.240001	-0.534831
H48	H	-3.533280	0.435679	-0.520658
H49	H	-3.618113	0.333829	-0.652926
H50	H	-3.460590	0.301177	-0.529709
H51	H	-3.886156	0.274151	-0.566833
H52	H	-3.728647	0.241520	-0.443604
O53	O	-3.862099	-0.301453	-1.012839
C54	C	-4.069219	-0.391918	-1.109012
H55	H	-4.211637	-0.374437	-1.086786
H56	H	-4.069846	-0.358350	-1.208127
C57	C	-3.927317	-0.581165	-1.137498
C58	C	-4.102238	-0.559704	-1.110194
H59	H	-3.947683	-0.684663	-1.138233
H60	H	-3.787773	-0.520215	-1.072708
H61	H	-3.927858	-0.553182	-1.220092
H62	H	-4.101677	-0.587668	-1.027595
H63	H	-4.241784	-0.620662	-1.174971
O64	O	-4.178390	-0.467033	-0.806623
C65	C	-4.332813	-0.559456	-0.752695
H66	H	-4.405194	-0.488065	-0.711138
H67	H	-4.474647	-0.653191	-0.831456
C68	C	-4.123227	-0.717912	-0.694570
C69	C	-4.212112	-0.630226	-0.643520
H70	H	-4.048779	-0.761573	-0.627230
H71	H	-4.019193	-0.655650	-0.730907
H72	H	-4.241440	-0.796013	-0.760204
H73	H	-4.093898	-0.552116	-0.577899
H74	H	-4.316124	-0.692477	-0.607170
H75	H	-3.767739	-0.285610	-0.782219
H76	H	-4.280118	-0.445326	-1.032153
H77	H	-4.471983	-0.354341	-1.028618
H78	H	-4.376092	-0.355117	-0.808616
