data_functionalizedCrystal
_audit_creation_method	'MofGen! by Chris Wilmer'
_symmetry_space_group_name_H-M	'P1'
_symmetry_Int_Tables_number	1
_symmetry_cell_setting	triclinic
loop_
_symmetry_equiv_pos_as_xyz
  x,y,z
_cell_length_a	12.594517
_cell_length_b	21.295416
_cell_length_c	12.594509
_cell_angle_alpha	90.033772
_cell_angle_beta	89.978673
_cell_angle_gamma	89.969869
loop_
_atom_site_label
_atom_site_type_symbol
_atom_site_fract_x
_atom_site_fract_y
_atom_site_fract_z
Zn1	Zn	1.627161	0.250594	-0.601819
Zn2	Zn	2.127161	0.750594	-0.101819
Zn3	Zn	1.627008	0.355872	-0.423823
Zn4	Zn	2.127008	0.855872	0.076177
Zn5	Zn	1.449165	0.250621	-0.423848
Zn6	Zn	1.949165	0.750621	0.076152
Zn7	Zn	1.449103	0.355829	-0.601753
Zn8	Zn	1.949103	0.855829	-0.101753
O9	O	1.538109	0.303229	-0.512811
O10	O	2.038109	0.803229	-0.012811
O11	O	1.776087	0.264566	-0.578225
O12	O	2.276087	0.764566	-0.078225
O13	O	1.603378	0.341940	-0.274881
O14	O	2.103378	0.841940	0.225119
O15	O	1.472867	0.162528	-0.447494
O16	O	1.972867	0.662528	0.052506
O17	O	1.775974	0.341914	-0.447452
O18	O	2.275974	0.841914	0.052548
O19	O	1.603640	0.162508	-0.578249
O20	O	2.103640	0.662508	-0.078249
O21	O	1.472718	0.264612	-0.274899
O22	O	1.972718	0.764612	0.225101
O23	O	1.300211	0.264570	-0.447430
O24	O	1.800211	0.764570	0.052570
O25	O	1.472761	0.341839	-0.750708
O26	O	1.972761	0.841839	-0.250708
O27	O	1.300166	0.341865	-0.578137
O28	O	1.800166	0.841865	-0.078137
O29	O	1.603580	0.264524	-0.750756
O30	O	2.103580	0.764524	-0.250756
O31	O	1.603318	0.443956	-0.447388
O32	O	2.103318	0.943956	0.052612
O33	O	1.472612	0.443924	-0.578113
O34	O	1.972612	0.943924	-0.078113
C35	C	1.261568	0.303216	-0.512780
C36	C	1.761568	0.803216	-0.012780
C37	C	1.143263	0.303226	-0.512791
C38	C	1.643263	0.803226	-0.012791
C39	C	1.074004	0.261127	-0.441836
C40	C	1.574004	0.761127	0.058164
C41	C	1.003169	0.318547	-0.415646
C42	C	1.503169	0.818547	0.084354
C43	C	1.003299	0.245834	-0.538999
C44	C	1.503299	0.745834	-0.038999
C45	C	1.073986	0.360676	-0.486551
C46	C	1.573986	0.860676	0.013449
C47	C	1.074123	0.287924	-0.609949
C48	C	1.574123	0.787924	-0.109949
C49	C	1.003320	0.345384	-0.583796
C50	C	1.503320	0.845384	-0.083796
C51	C	1.537971	0.466780	-0.512764
C52	C	2.037971	0.966780	-0.012764
C53	C	1.538009	0.536748	-0.512779
C54	C	2.038009	1.036748	-0.012779
C55	C	1.606128	0.569611	-0.444783
C56	C	2.106128	1.069611	0.055217
C57	C	1.606178	0.635353	-0.444812
C58	C	2.106178	1.135353	0.055188
C59	C	1.538090	0.668231	-0.512826
C60	C	2.038090	1.168231	-0.012826
C61	C	1.469966	0.635361	-0.580835
C62	C	1.969966	1.135361	-0.080835
C63	C	1.469925	0.569619	-0.580812
C64	C	1.969925	1.069619	-0.080812
N65	N	1.444980	0.771496	-0.520937
N66	N	1.944980	1.271496	-0.020937
N67	N	1.445022	0.833948	-0.520953
N68	N	1.945022	1.333948	-0.020953
C69	C	1.538210	0.866306	-0.512901
C70	C	2.038210	1.366306	-0.012901
N71	N	1.631358	0.833853	-0.504812
N72	N	2.131358	1.333853	-0.004812
N73	N	1.631315	0.771396	-0.504791
N74	N	2.131315	1.271396	-0.004791
C75	C	1.538127	0.739516	-0.512859
C76	C	2.038127	1.239516	-0.012859
C77	C	1.606390	0.970454	-0.444933
C78	C	2.106390	1.470454	0.055067
C79	C	1.606442	1.036197	-0.444969
C80	C	2.106442	1.536197	0.055031
C81	C	1.470220	1.036203	-0.580986
C82	C	1.970220	1.536203	-0.080986
C83	C	1.470178	0.970461	-0.580956
C84	C	1.970178	1.470461	-0.080956
C85	C	1.538261	0.937590	-0.512923
C86	C	2.038261	1.437590	-0.012923
C87	C	1.815730	0.303242	-0.512843
C88	C	2.315730	0.803242	-0.012843
C89	C	1.934036	0.303247	-0.512857
C90	C	2.434036	0.803247	-0.012857
C91	C	1.538181	0.303174	-0.790432
C92	C	2.038181	0.803174	-0.290432
C93	C	1.538211	0.303150	-0.908737
C94	C	2.038211	0.803150	-0.408737
C95	C	1.538279	1.139038	-0.512900
C96	C	2.038279	1.639038	-0.012900
C97	C	1.538354	1.069070	-0.512984
C98	C	2.038354	1.569070	-0.012984
C99	C	1.467081	0.345178	-0.977964
C100	C	1.967081	0.845178	-0.477964
C101	C	1.564195	0.360559	-1.048752
C102	C	2.064195	0.860559	-0.548752
C103	C	1.441173	0.287731	-1.048749
C104	C	1.941173	0.787731	-0.548749
C105	C	1.635376	0.318561	-0.977967
C106	C	2.135376	0.818561	-0.477967
C107	C	1.512288	0.245707	-0.977957
C108	C	2.012288	0.745707	-0.477957
C109	C	1.609469	0.261066	-1.048713
C110	C	2.109469	0.761066	-0.548713
C111	C	1.538100	0.303238	-0.236270
C112	C	2.038100	0.803238	0.263730
C113	C	1.538276	0.303084	-0.117965
C114	C	2.038276	0.803084	0.382035
H115	H	1.105313	0.274950	-0.692060
H116	H	1.605313	0.774950	-0.192060
C117	C	1.115755	0.426276	-0.456506
C118	C	1.615755	0.926276	0.043494
N119	N	1.147218	0.475684	-0.433871
N120	N	1.647218	0.975684	0.066129
C121	C	1.395065	0.671527	-0.655646
C122	C	1.895065	1.171527	-0.155646
N123	N	1.338649	0.698768	-0.711998
N124	N	1.838649	1.198768	-0.211998
C125	C	0.961643	0.393547	-0.664893
C126	C	1.461643	0.893547	-0.164893
N127	N	0.930247	0.429826	-0.725968
N128	N	1.430247	0.929826	-0.225968
H129	H	1.661919	1.062953	-0.389600
H130	H	2.161919	1.562953	0.110400
C131	C	1.115941	0.213080	-0.360674
C132	C	1.615941	0.713080	0.139326
N133	N	1.147530	0.176895	-0.299541
N134	N	1.647530	0.676895	0.200459
C135	C	0.961355	0.180252	-0.568913
C136	C	1.461355	0.680252	-0.068913
N137	N	0.929767	0.130854	-0.591437
N138	N	1.429767	0.630854	-0.091437
H139	H	1.717491	0.331630	-0.947006
H140	H	2.217491	0.831630	-0.447006
H141	H	1.414787	1.062971	-0.636369
H142	H	1.914787	1.562971	-0.136369
H143	H	1.490298	0.197170	-0.946837
H144	H	1.990298	0.697170	-0.446837
H145	H	1.661568	0.542849	-0.389390
H146	H	2.161568	1.042849	0.110610
H147	H	1.661831	0.943689	-0.389540
H148	H	2.161831	1.443689	0.110460
C149	C	1.385897	0.393269	-0.935972
C150	C	1.885897	0.893269	-0.435972
N151	N	1.324759	0.429493	-0.904336
N152	N	1.824759	0.929493	-0.404336
H153	H	1.414454	0.542862	-0.636184
H154	H	1.914454	1.042862	-0.136184
H155	H	1.661653	0.662115	-0.389442
H156	H	2.161653	1.162115	0.110558
H157	H	1.414704	0.943702	-0.636320
H158	H	1.914704	1.443702	-0.136320
C159	C	1.593861	0.426147	-1.090769
C160	C	2.093861	0.926147	-0.590769
N161	N	1.616199	0.475550	-1.122413
N162	N	2.116199	0.975550	-0.622413
C163	C	1.690861	0.213012	-1.090419
C164	C	2.190861	0.713012	-0.590419
N165	N	1.752168	0.176820	-1.121832
N166	N	2.252168	0.676820	-0.621832
C167	C	1.330271	0.270147	-1.090747
C168	C	1.830271	0.770147	-0.590747
N169	N	1.246737	0.256907	-1.122375
N170	N	1.746737	0.756907	-0.622375
H171	H	0.972004	0.331503	-0.333510
H172	H	1.472004	0.831503	0.166490
