data_functionalizedCrystal
_audit_creation_method	'MofGen! by Chris Wilmer'
_symmetry_space_group_name_H-M	'P1'
_symmetry_Int_Tables_number	1
_symmetry_cell_setting	triclinic
loop_
_symmetry_equiv_pos_as_xyz
  x,y,z
_cell_length_a	15.995350
_cell_length_b	23.532407
_cell_length_c	14.472310
_cell_angle_alpha	89.994233
_cell_angle_beta	89.990621
_cell_angle_gamma	83.170526
loop_
_atom_site_label
_atom_site_type_symbol
_atom_site_fract_x
_atom_site_fract_y
_atom_site_fract_z
O1	O	1.110386	0.073404	-0.076772
O2	O	0.866535	0.082469	-0.076793
O3	O	0.995814	-0.004967	-0.076765
O4	O	0.981107	0.160840	-0.076800
O5	O	0.995781	-0.004962	0.076917
O6	O	0.866502	0.082474	0.076889
O7	O	1.110353	0.073409	0.076910
Cu8	Cu	0.988424	0.077942	0.090932
Cu9	Cu	0.988464	0.077936	-0.090815
O10	O	0.981074	0.160845	0.076882
C11	C	0.835327	0.082096	0.000046
C12	C	0.742386	0.080973	0.000039
C13	C	0.404672	0.076938	0.000059
C14	C	0.452624	0.014668	0.000415
C15	C	0.549305	0.015792	0.000062
C16	C	0.572216	0.078939	0.000050
C17	C	0.530892	0.109650	-0.087713
C18	C	0.434270	0.108086	-0.087780
C19	C	0.433882	0.109378	0.086985
C20	C	0.530828	0.109364	0.088139
C21	C	0.666904	0.080074	0.000041
C22	C	0.309984	0.075805	0.000061
C23	C	0.995423	-0.026182	0.000078
C24	C	0.994297	-0.089404	0.000085
C25	C	1.063739	-0.488239	0.000041
C26	C	1.062693	-0.547644	0.000033
O27	O	1.127067	-0.584141	0.000005
N28	N	0.985837	-0.570566	0.000028
C29	C	0.910022	-0.534080	0.000020
O30	O	0.844554	-0.559031	0.000013
C31	C	0.911069	-0.474677	0.000020
C32	C	0.987930	-0.451758	0.000035
C33	C	1.140594	-0.465320	0.000055
C34	C	1.141640	-0.405920	0.000063
C35	C	1.065830	-0.369439	0.000058
C36	C	0.988975	-0.392358	0.000044
C37	C	0.835255	-0.438192	0.000006
C38	C	0.836308	-0.378785	0.000005
C39	C	0.913169	-0.355867	0.000020
C40	C	0.914212	-0.296477	0.000048
N41	N	0.991068	-0.273555	0.000053
C42	C	1.066877	-0.310036	0.000059
C43	C	0.907829	-0.658831	0.000017
C44	C	0.906781	-0.718233	0.000023
C45	C	1.059453	-0.731793	0.000035
C46	C	1.060500	-0.672389	0.000036
C47	C	0.984685	-0.635909	0.000023
C48	C	1.069067	-0.185291	0.000078
C49	C	1.070106	-0.125885	0.000091
C50	C	0.917435	-0.112330	0.000074
C51	C	0.916396	-0.171731	0.000066
C52	C	0.992219	-0.208210	0.000065
O53	O	0.849872	-0.259945	0.000073
O54	O	1.132335	-0.285076	0.000053
C55	C	1.141561	0.073781	0.000069
C56	C	1.234502	0.074905	0.000070
C57	C	0.981465	0.182060	0.000037
C58	C	0.982591	0.245281	0.000024
N59	N	0.988403	0.077946	0.218763
N60	N	0.988492	0.077927	-0.218646
C61	C	0.988463	0.077933	0.592854
C62	C	0.919059	0.124562	0.553673
C63	C	0.919217	0.124732	0.446585
C64	C	0.988432	0.077939	0.407263
C65	C	1.075689	0.090918	0.446104
C66	C	1.075298	0.091250	0.553226
C67	C	0.971390	0.018188	0.553394
C68	C	0.969383	0.018587	0.446267
C69	C	0.988421	0.077942	0.302375
C70	C	0.988480	0.077932	0.697742
H71	H	0.577379	-0.008516	-0.062950
H72	H	1.123087	-0.653734	0.000047
N73	N	0.428322	-0.016432	-0.078075
N74	N	0.459568	-0.067111	-0.090462
H75	H	0.442399	-0.089076	-0.145893
H76	H	1.022009	-0.016511	0.578732
N77	N	0.837879	-0.195136	0.000079
N78	N	0.770198	-0.162554	0.000089
H79	H	0.714743	-0.179079	0.000095
H80	H	0.416162	0.085686	-0.153376
H81	H	1.202331	-0.495018	0.000055
H82	H	0.929756	0.168648	0.580575
N83	N	1.148622	-0.102475	0.000123
N84	N	1.199599	-0.113659	0.064910
H85	H	1.255049	-0.097127	0.064934
H86	H	0.909171	0.005708	0.580460
N87	N	1.136885	-0.769072	0.000046
N88	N	1.135931	-0.822108	0.000044
H89	H	1.190613	-0.848439	0.000054
H90	H	0.774569	-0.349085	-0.000006
H91	H	0.905199	0.008737	0.420881
H92	H	0.401642	0.153804	-0.091771
H93	H	1.130810	-0.214986	0.000074
N94	N	1.220159	-0.382524	0.000075
N95	N	1.287834	-0.415112	0.000076
H96	H	1.343294	-0.398593	0.000081
N97	N	1.094244	0.145910	0.584571
N98	N	1.097374	0.156040	0.669203
H99	H	1.110749	0.194646	0.691339
N100	N	1.142000	0.050263	0.585730
N101	N	1.188694	0.021508	0.529299
H102	H	1.235804	-0.007436	0.552251
H103	H	0.844194	-0.736887	0.000027
N104	N	1.028726	-0.026979	0.412681
N105	N	1.086284	-0.016404	0.359218
H106	H	1.128201	-0.048584	0.335497
H107	H	0.846088	-0.629131	0.000015
N108	N	1.142003	0.049444	0.414165
N109	N	1.140994	-0.002309	0.433007
H110	H	1.187828	-0.031601	0.410450
H111	H	0.772666	-0.456841	-0.000012
N112	N	0.393545	0.166969	0.087738
N113	N	0.347446	0.184468	0.154068
H114	H	0.318953	0.225140	0.154596
N115	N	0.840009	-0.075051	0.000076
N116	N	0.840964	-0.022015	0.000081
H117	H	0.786281	0.004315	0.000078
N118	N	0.837852	0.115128	0.413452
N119	N	0.796564	0.151873	0.363895
H120	H	0.739106	0.145123	0.340429
H121	H	0.853972	0.116956	0.579458
N122	N	0.585198	-0.014499	0.078983
N123	N	0.538851	-0.036619	0.134708
H124	H	0.564197	-0.058017	0.190446
N125	N	0.932811	0.180360	0.414443
N126	N	0.998754	0.200869	0.435820
H127	H	1.008348	0.240162	0.413128
N128	N	0.429678	-0.016532	0.079418
N129	N	0.377711	0.006757	0.136380
H130	H	0.361520	-0.015272	0.192195
N131	N	1.095122	0.144954	0.412420
N132	N	1.044853	0.173995	0.359821
H133	H	1.058573	0.212160	0.336031
H134	H	0.559458	0.088316	-0.153019
N135	N	0.548114	0.167853	-0.091820
N136	N	0.524289	0.201659	-0.027876
H137	H	0.536452	0.242765	-0.030774
N138	N	0.408310	0.083851	0.170440
N139	N	0.331921	0.081483	0.185933
H140	H	0.313859	0.063450	0.244870
H141	H	0.558317	0.086945	0.153065
H142	H	0.545809	0.155413	0.093430
