data_functionalizedCrystal
_audit_creation_method	'MofGen! by Chris Wilmer'
_symmetry_space_group_name_H-M	'P1'
_symmetry_Int_Tables_number	1
_symmetry_cell_setting	triclinic
loop_
_symmetry_equiv_pos_as_xyz
  x,y,z
_cell_length_a	12.759401
_cell_length_b	13.031981
_cell_length_c	12.759393
_cell_angle_alpha	97.217753
_cell_angle_beta	90.018496
_cell_angle_gamma	97.192140
loop_
_atom_site_label
_atom_site_type_symbol
_atom_site_fract_x
_atom_site_fract_y
_atom_site_fract_z
Zn1	Zn	1.553145	-0.416051	0.540805
Zn2	Zn	1.530724	-0.590868	0.342781
Zn3	Zn	1.377440	-0.416106	0.365137
Zn4	Zn	1.355131	-0.590787	0.518433
O5	O	1.454110	-0.503453	0.441789
O6	O	1.697191	-0.439252	0.514543
O7	O	1.510344	-0.567742	0.198719
O8	O	1.419468	-0.269833	0.407159
O9	O	1.680718	-0.567689	0.369056
O10	O	1.548558	-0.269793	0.536221
O11	O	1.397727	-0.439345	0.215143
O12	O	1.227461	-0.439267	0.385466
O13	O	1.381444	-0.567551	0.668429
O14	O	1.211070	-0.567605	0.498091
O15	O	1.526925	-0.439174	0.684866
O16	O	1.488711	-0.737123	0.347363
O17	O	1.359703	-0.737064	0.476414
C18	C	1.181145	-0.503434	0.441777
C19	C	1.064366	-0.503451	0.441794
C20	C	1.000984	-0.570383	0.500313
C21	C	0.891258	-0.570396	0.500323
C22	C	0.908308	-0.436542	0.383285
C23	C	1.018032	-0.436524	0.383282
C24	C	0.991138	-0.647666	0.567881
C25	C	0.881413	-0.647679	0.567891
C26	C	1.419382	-0.775018	0.407058
C27	C	1.404621	-0.891195	0.392235
C28	C	1.461870	-0.942887	0.449546
C29	C	1.446615	-1.062962	0.434227
C30	C	1.728141	-0.503473	0.441802
C31	C	1.844916	-0.503482	0.441807
C32	C	1.454197	-0.503348	0.715836
C33	C	1.454234	-0.503303	0.832619
C34	C	1.489003	-0.230828	0.476679
C35	C	1.503872	-0.114651	0.491547
C36	C	1.454094	-0.503483	0.168818
C37	C	1.454298	-0.503233	0.052074
C38	C	1.529996	-0.436450	0.896042
C39	C	1.530026	-0.436412	1.005771
C40	C	1.378528	-0.570089	0.988643
C41	C	1.378494	-0.570120	0.878916
C42	C	1.617465	-0.359276	0.905931
C43	C	1.617495	-0.359238	1.015660
H44	H	1.015342	-0.724521	0.528773
F45	F	1.325789	-0.949536	0.313281
F46	F	1.297846	-0.641259	0.811422
F47	F	1.582702	-1.056316	0.570512
F48	F	1.540687	-0.884545	0.528515
F49	F	1.367779	-1.121299	0.355269
F50	F	1.297925	-0.641197	1.037926
H51	H	1.069636	-0.382015	0.335638
H52	H	1.598199	-0.282327	1.059538
F53	F	1.602518	-0.253476	0.880555
H54	H	1.691033	-0.388295	0.868186
F55	F	1.720236	-0.387564	1.050967
H56	H	1.023702	-0.626078	0.652047
F57	F	0.841791	-0.609912	0.673819
F58	F	0.858986	-0.365317	0.321018
H59	H	0.841286	-0.728611	0.535614
