data_functionalizedCrystal
_audit_creation_method	'MofGen! by Chris Wilmer'
_symmetry_space_group_name_H-M	'P1'
_symmetry_Int_Tables_number	1
_symmetry_cell_setting	triclinic
loop_
_symmetry_equiv_pos_as_xyz
  x,y,z
_cell_length_a	29.839135
_cell_length_b	15.296598
_cell_length_c	15.298431
_cell_angle_alpha	69.176180
_cell_angle_beta	80.345887
_cell_angle_gamma	80.294708
loop_
_atom_site_label
_atom_site_type_symbol
_atom_site_fract_x
_atom_site_fract_y
_atom_site_fract_z
Zn1	Zn	0.622952	0.279225	0.461805
Zn2	Zn	0.622878	0.461738	0.279332
Zn3	Zn	0.558896	0.306195	0.306282
Zn4	Zn	0.536719	0.434767	0.434805
O5	O	0.585361	0.370481	0.370556
O6	O	0.685807	0.303436	0.437620
O7	O	0.623641	0.463680	0.152754
O8	O	0.576705	0.172428	0.349490
O9	O	0.685753	0.437528	0.303558
O10	O	0.623767	0.152612	0.463752
O11	O	0.576633	0.349404	0.172554
O12	O	0.493089	0.323250	0.323310
O13	O	0.538908	0.391558	0.568540
O14	O	0.476796	0.417711	0.417735
O15	O	0.602263	0.277282	0.588376
O16	O	0.602137	0.588351	0.277378
O17	O	0.538837	0.568534	0.391603
C18	C	0.468642	0.370481	0.370517
C19	C	0.418706	0.370499	0.370519
C20	C	0.109074	0.300734	0.440434
C21	C	-0.078602	0.300736	0.440459
O22	O	-0.102853	0.241406	0.499863
N23	N	-0.102083	0.370476	0.370590
C24	C	-0.078642	0.440217	0.300705
O25	O	-0.102920	0.499530	0.241272
C26	C	0.109033	0.440211	0.300677
C27	C	0.132511	0.370472	0.370557
C28	C	0.132552	0.231001	0.510307
C29	C	0.179467	0.231004	0.510303
C30	C	0.202905	0.300741	0.440426
C31	C	0.179426	0.370475	0.370553
C32	C	0.132474	0.509947	0.230790
C33	C	0.179396	0.509938	0.230787
C34	C	0.202874	0.440199	0.300667
C35	C	0.249779	0.440215	0.300671
N36	N	0.273261	0.370475	0.370541
C37	C	0.249823	0.300738	0.440418
C38	C	-0.177175	0.440217	0.300726
C39	C	-0.224094	0.440220	0.300734
C40	C	-0.224050	0.300737	0.440487
C41	C	-0.177131	0.300739	0.440483
C42	C	-0.153693	0.370477	0.370596
C43	C	0.348349	0.300751	0.440405
C44	C	0.395269	0.300762	0.440396
C45	C	0.395221	0.440241	0.300641
C46	C	0.348305	0.440233	0.300651
C47	C	0.324871	0.370479	0.370538
O48	O	0.274060	0.499508	0.241292
O49	O	0.274111	0.241422	0.499830
C50	C	0.062158	0.300731	0.440438
C51	C	0.038680	0.370465	0.370565
C52	C	0.062117	0.440202	0.300687
C53	C	-0.008239	0.370468	0.370573
C54	C	-0.031676	0.300731	0.440450
C55	C	-0.008195	0.230991	0.510320
C56	C	0.038721	0.230994	0.510315
C57	C	0.038636	0.509942	0.230818
C58	C	-0.008280	0.509934	0.230828
C59	C	-0.031717	0.440197	0.300706
C60	C	0.568083	0.612196	0.328657
C61	C	0.560730	0.715597	0.310763
C62	C	0.532793	0.774582	0.242809
C63	C	0.525886	0.871732	0.226001
C64	C	0.546913	0.909905	0.277152
C65	C	0.574849	0.850919	0.345112
C66	C	0.581759	0.753760	0.361916
C67	C	0.595880	0.889083	0.396259
C68	C	0.623816	0.830097	0.464219
C69	C	0.630724	0.732949	0.481020
C70	C	0.609697	0.694775	0.429870
C71	C	0.588969	0.986242	0.379455
C72	C	0.637936	0.965420	0.498562
C73	C	0.644843	0.868270	0.515369
C74	C	0.702536	0.370482	0.370595
C75	C	0.752469	0.370482	0.370612
C76	C	0.568120	0.328403	0.613149
C77	C	0.560773	0.310472	0.716528
C78	C	0.602689	1.127818	0.412648
C79	C	0.609998	1.024405	0.430608
C80	C	0.602566	0.412328	0.128918
C81	C	0.610019	0.429997	0.025586
C82	C	0.532847	0.242547	0.775398
C83	C	0.525938	0.225701	0.872527
C84	C	0.546957	0.276773	0.910796
C85	C	0.574887	0.344695	0.851927
C86	C	0.581794	0.361548	0.754787
C87	C	0.595905	0.395774	0.890186
C88	C	0.623834	0.463696	0.831317
C89	C	0.630740	0.480545	0.734187
C90	C	0.609720	0.429473	0.695917
C91	C	0.588998	0.378921	0.987326
C92	C	0.637945	0.497922	0.966716
C93	C	0.644854	0.514768	0.869586
H94	H	-0.158018	0.243950	0.497383
Br95	Br	0.504331	0.173229	0.723459
H96	H	0.667589	0.820232	0.570703
Br97	Br	0.070438	0.604586	0.135964
H98	H	0.655063	0.539508	0.997874
Br99	Br	0.316553	0.206084	0.535250
Br100	Br	0.211201	0.604588	0.135936
H101	H	0.515677	0.743495	0.201163
Br102	Br	0.551059	1.066283	0.287225
H103	H	0.667595	0.570071	0.821641
H104	H	0.655059	0.996500	0.540211
H105	H	0.198579	0.174214	0.567205
H106	H	0.615346	0.443182	0.616828
H107	H	0.503196	0.170402	0.920451
H108	H	0.329187	0.497029	0.243759
Br109	Br	0.070576	0.136344	0.605159
H110	H	0.414382	0.243971	0.497304
H111	H	0.541288	0.989009	0.263463
Br112	Br	0.668638	0.572737	0.654292
H113	H	0.541331	0.263052	0.989884
Br114	Br	-0.255952	0.534879	0.205903
Br115	Br	-0.255866	0.206093	0.535320
H116	H	0.566258	0.323617	1.035249
H117	H	0.113474	0.174207	0.567211
Br118	Br	0.618860	0.562860	0.453055
H119	H	0.653475	0.684923	0.536350
H120	H	0.113366	0.566735	0.173885
Br121	Br	-0.145372	0.534861	0.205862
H122	H	0.414312	0.497021	0.243750
H123	H	-0.027286	0.174211	0.567219
Br124	Br	0.487975	0.951778	0.133773
H125	H	-0.027393	0.566733	0.173924
