data_functionalizedCrystal
_audit_creation_method	'MofGen! by Chris Wilmer'
_symmetry_space_group_name_H-M	'P1'
_symmetry_Int_Tables_number	1
_symmetry_cell_setting	triclinic
loop_
_symmetry_equiv_pos_as_xyz
  x,y,z
_cell_length_a	16.109301
_cell_length_b	14.853567
_cell_length_c	15.186229
_cell_angle_alpha	90.000050
_cell_angle_beta	89.999362
_cell_angle_gamma	83.548205
loop_
_atom_site_label
_atom_site_type_symbol
_atom_site_fract_x
_atom_site_fract_y
_atom_site_fract_z
O1	O	1.103293	0.115881	-0.073165
O2	O	1.603293	0.615881	0.426835
O3	O	0.861252	0.130302	-0.073178
O4	O	1.361252	0.630302	0.426822
O5	O	0.988738	-0.008149	-0.073174
O6	O	1.488738	0.491851	0.426826
O7	O	0.975807	0.254332	-0.073170
O8	O	1.475807	0.754332	0.426830
O9	O	0.988729	-0.008151	0.073283
O10	O	1.488729	0.491849	0.573283
O11	O	0.861243	0.130300	0.073279
O12	O	1.361243	0.630300	0.573279
O13	O	1.103285	0.115879	0.073292
O14	O	1.603285	0.615879	0.573292
Zn15	Zn	0.982263	0.123089	0.096539
Zn16	Zn	1.482263	0.623089	0.596539
Zn17	Zn	0.982274	0.123092	-0.096425
Zn18	Zn	1.482274	0.623092	0.403575
O19	O	0.975799	0.254330	0.073288
O20	O	1.475799	0.754330	0.573288
C21	C	0.830272	0.129717	0.000048
C22	C	1.330272	0.629717	0.500048
C23	C	0.737974	0.127965	0.000043
C24	C	1.237974	0.627965	0.500043
C25	C	0.515811	0.206047	0.000055
C26	C	1.015811	0.706047	0.500055
C27	C	0.429089	0.204395	0.000060
C28	C	0.929089	0.704395	0.500060
C29	C	0.448732	0.040127	0.000054
C30	C	0.948732	0.540127	0.500054
C31	C	0.535453	0.041781	0.000054
C32	C	1.035453	0.541781	0.500054
C33	C	0.568990	0.124743	0.000050
C34	C	1.068990	0.624743	0.500050
C35	C	0.395546	0.121437	0.000055
C36	C	0.895546	0.621437	0.500055
C37	C	0.301518	0.119645	0.000061
C38	C	0.801518	0.619645	0.500061
C39	C	0.663025	0.126536	0.000046
C40	C	1.163025	0.626536	0.500046
C41	C	0.988148	-0.041738	0.000052
C42	C	1.488148	0.458262	0.500052
C43	C	0.986392	-0.141819	0.000044
C44	C	1.486392	0.358181	0.500044
C45	C	0.903241	-0.554215	0.000056
C46	C	1.403241	-0.054215	0.500056
C47	C	1.054697	-0.575746	0.000064
C48	C	1.554697	-0.075746	0.500064
C49	C	1.056348	-0.481715	0.000059
C50	C	1.556348	0.018285	0.500059
C51	C	0.981444	-0.423930	0.000054
C52	C	1.481444	0.076070	0.500054
C53	C	0.904889	-0.460175	0.000054
C54	C	1.404889	0.039825	0.500054
C55	C	1.132901	-0.445463	0.000068
C56	C	1.632901	0.054537	0.500068
C57	C	1.134555	-0.351426	0.000064
C58	C	1.634555	0.148574	0.500064
C59	C	1.059650	-0.293639	0.000053
C60	C	1.559650	0.206361	0.500053
C61	C	0.983093	-0.329890	0.000052
C62	C	1.483093	0.170110	0.500052
C63	C	0.908189	-0.272104	0.000046
C64	C	1.408189	0.227896	0.500046
C65	C	0.831630	-0.308353	0.000039
C66	C	1.331630	0.191647	0.500039
C67	C	0.829984	-0.402388	0.000042
C68	C	1.329984	0.097612	0.500042
C69	C	1.061296	-0.199604	0.000049
C70	C	1.561296	0.300396	0.500049
C71	C	0.909837	-0.178064	0.000044
C72	C	1.409837	0.321936	0.500044
C73	C	1.134265	0.116464	0.000063
C74	C	1.634265	0.616464	0.500063
C75	C	1.226563	0.118215	0.000063
C76	C	1.726563	0.618215	0.500063
C77	C	0.976389	0.287918	0.000060
C78	C	1.476389	0.787918	0.500060
C79	C	0.978145	0.387999	0.000062
C80	C	1.478145	0.887999	0.500062
N81	N	0.982261	0.123087	0.228231
N82	N	1.482261	0.623087	0.728231
N83	N	0.982282	0.123087	-0.228118
N84	N	1.482282	0.623087	0.271882
C85	C	1.038731	0.061801	0.453956
C86	C	1.538731	0.561801	0.953956
C87	C	1.038734	0.061799	0.546146
C88	C	1.538734	0.561799	1.046146
C89	C	0.925806	0.184375	0.546151
C90	C	1.425806	0.684375	1.046151
C91	C	0.925800	0.184372	0.453963
C92	C	1.425800	0.684372	0.953963
C93	C	0.982267	0.123086	0.407868
C94	C	1.482267	0.623086	0.907868
C95	C	0.982276	0.123087	0.592246
C96	C	1.482276	0.623087	1.092246
C97	C	0.982278	0.123085	0.692202
C98	C	1.482278	0.623085	1.192202
C99	C	0.982264	0.123087	0.307905
C100	C	1.482264	0.623087	0.807905
H101	H	0.385793	0.270600	0.000066
H102	H	0.885793	0.770600	0.500066
H103	H	0.543114	0.273601	0.000058
H104	H	1.043114	0.773601	0.500058
H105	H	1.115680	-0.622800	0.000076
H106	H	1.615680	-0.122800	0.500076
C107	C	1.100842	-0.005613	0.596843
C108	C	1.600842	0.494387	1.096843
H109	H	1.092755	0.003157	0.658349
H110	H	1.592755	0.503157	1.158349
H111	H	1.156338	0.004194	0.581732
H112	H	1.656338	0.504194	1.081732
H113	H	1.091738	-0.065787	0.581733
H114	H	1.591738	0.434213	1.081733
C115	C	0.593954	-0.047658	0.000046
C116	C	1.093954	0.452342	0.500046
H117	H	0.561561	-0.097304	0.000035
H118	H	1.061561	0.402696	0.500035
H119	H	0.628193	-0.050430	0.051118
H120	H	1.128193	0.449570	0.551118
H121	H	0.628191	-0.050420	-0.051034
H122	H	1.128191	0.449580	0.448966
C123	C	0.827441	-0.114507	0.000039
C124	C	1.327441	0.385493	0.500039
H125	H	0.781614	-0.149565	0.000041
H126	H	1.281614	0.350435	0.500041
H127	H	0.824939	-0.077373	-0.051032
H128	H	1.324939	0.422627	0.448968
H129	H	0.824932	-0.077379	0.051120
H130	H	1.324932	0.422621	0.551120
H131	H	0.767654	-0.431911	0.000037
H132	H	1.267654	0.068089	0.500037
C133	C	1.215290	-0.509021	0.000074
C134	C	1.715290	-0.009021	0.500074
H135	H	1.261119	-0.473967	0.000085
H136	H	1.761119	0.026033	0.500085
H137	H	1.217797	-0.546151	-0.051000
H138	H	1.717797	-0.046151	0.449000
H139	H	1.217788	-0.546151	0.051152
H140	H	1.717788	-0.046151	0.551152
H141	H	0.421415	-0.027418	0.000062
H142	H	0.921415	0.472582	0.500062
C143	C	1.218764	-0.311560	0.000061
C144	C	1.718764	0.188440	0.500061
H145	H	1.263137	-0.359444	0.000058
H146	H	1.763137	0.140556	0.500058
H147	H	1.222558	-0.275317	0.051128
H148	H	1.722558	0.224683	0.551128
H149	H	1.222554	-0.275333	-0.051024
H150	H	1.722554	0.224667	0.448976
H151	H	0.770643	-0.261292	0.000041
H152	H	1.270643	0.238708	0.500041
H153	H	0.840908	-0.583733	0.000047
H154	H	1.340908	-0.083733	0.500047
C155	C	1.145499	-0.159733	0.000060
C156	C	1.645499	0.340267	0.500060
H157	H	1.189872	-0.207616	0.000062
H158	H	1.689872	0.292384	0.500062
H159	H	1.149284	-0.123492	0.051130
H160	H	1.649284	0.376508	0.551130
H161	H	1.149297	-0.123503	-0.051022
H162	H	1.649297	0.376497	0.448978
C163	C	0.863705	0.251792	0.596858
C164	C	1.363705	0.751792	1.096858
H165	H	0.871800	0.243024	0.658363
H166	H	1.371800	0.743024	1.158363
H167	H	0.808206	0.241988	0.581758
H168	H	1.308206	0.741988	1.081758
H169	H	0.872809	0.311965	0.581744
H170	H	1.372809	0.811965	1.081744
H171	H	1.084709	0.011897	0.416427
H172	H	1.584709	0.511897	0.916427
C173	C	0.863689	0.251791	0.403263
C174	C	1.363689	0.751791	0.903263
H175	H	0.830068	0.288300	0.443917
H176	H	1.330068	0.788300	0.943917
H177	H	0.829044	0.219348	0.367303
H178	H	1.329044	0.719348	0.867303
H179	H	0.893643	0.289330	0.367297
H180	H	1.393643	0.789330	0.867297
