data_functionalizedCrystal
_audit_creation_method	'MofGen! by Chris Wilmer'
_symmetry_space_group_name_H-M	'P1'
_symmetry_Int_Tables_number	1
_symmetry_cell_setting	triclinic
loop_
_symmetry_equiv_pos_as_xyz
  x,y,z
_cell_length_a	13.339070
_cell_length_b	16.109298
_cell_length_c	12.376457
_cell_angle_alpha	101.278140
_cell_angle_beta	75.589755
_cell_angle_gamma	99.544741
loop_
_atom_site_label
_atom_site_type_symbol
_atom_site_fract_x
_atom_site_fract_y
_atom_site_fract_z
O1	O	-1.361542	-0.405316	0.093995
O2	O	-1.067034	-0.350612	0.093995
O3	O	-1.222381	-0.258800	0.094003
O4	O	-1.206194	-0.497127	0.093987
O5	O	-1.183558	-0.281713	-0.094011
O6	O	-1.028210	-0.373524	-0.094019
O7	O	-1.322719	-0.428228	-0.094019
Zn8	Zn	-1.169300	-0.404514	-0.123871
Zn9	Zn	-1.220452	-0.374326	0.123846
O10	O	-1.167371	-0.520040	-0.094027
C11	C	-1.009936	-0.352827	-0.000012
C12	C	-0.897644	-0.325283	-0.000011
C13	C	-1.202316	-0.239130	0.000000
C14	C	-1.200355	-0.146379	0.000014
C15	C	-1.379817	-0.426012	-0.000010
C16	C	-1.492110	-0.453556	-0.000004
C17	C	-0.532778	-0.539450	-0.000008
C18	C	-0.638282	-0.565332	-0.000005
C19	C	-0.703128	-0.505322	-0.000007
C20	C	-0.662459	-0.419426	-0.000011
C21	C	-0.556946	-0.393541	-0.000005
C22	C	-0.727295	-0.359413	-0.000004
C23	C	-0.686626	-0.273517	-0.000008
C24	C	-0.581123	-0.247637	-0.000003
C25	C	-0.516278	-0.307647	-0.000001
C26	C	-0.832808	-0.385298	-0.000010
C27	C	-0.856976	-0.239388	-0.000007
C28	C	-0.751472	-0.213507	-0.000010
C29	C	-1.187437	-0.539710	-0.000022
C30	C	-1.189399	-0.632460	-0.000028
C31	C	-1.215104	0.166656	0.102476
C32	C	-1.216964	0.079508	0.102484
C33	C	-1.174652	0.054510	-0.102499
C34	C	-1.172799	0.141655	-0.102506
C35	C	-1.193020	0.197728	-0.000015
C36	C	-1.196734	0.023434	0.000000
C37	C	-1.198751	-0.071056	0.000008
C38	C	-1.191005	0.292223	-0.000022
N39	N	-1.134399	-0.425118	-0.292931
C40	C	-1.336380	-0.305873	-0.647905
C41	C	-1.360802	-0.291450	-0.529564
C42	C	-1.304203	-0.324866	-0.470400
C43	C	-1.223178	-0.372706	-0.529589
C44	C	-1.198759	-0.387136	-0.647941
C45	C	-1.166582	-0.406129	-0.470436
C46	C	-1.085557	-0.453970	-0.529624
C47	C	-1.061141	-0.468396	-0.647965
C48	C	-1.117740	-0.434980	-0.707130
C49	C	-1.191001	-0.391700	-0.352083
C50	C	-1.053380	-0.472963	-0.352119
C51	C	-1.028958	-0.487385	-0.470460
N52	N	-1.255362	-0.353717	0.292906
H53	H	-0.865909	-0.455235	-0.000011
H54	H	-1.234948	0.054215	0.185943
F55	F	-1.447031	-0.240539	-0.466576
F56	F	-1.277231	-0.340786	-0.289104
H57	H	-1.158186	0.008846	-0.185943
F58	F	-1.236629	0.226329	0.211556
F59	F	-1.149298	0.174725	-0.211597
H60	H	-1.382461	-0.278675	-0.696085
H61	H	-1.324091	-0.313121	-0.374041
F62	F	-1.091744	-0.450326	-0.833084
F63	F	-0.974918	-0.519322	-0.710959
F64	F	-0.815415	-0.532870	-0.000006
F65	F	-0.942727	-0.538300	-0.533465
F66	F	-0.993142	-0.508532	-0.289157
F67	F	-0.463764	-0.603305	0.000010
F68	F	-0.403985	-0.280105	-0.000007
F69	F	-0.537850	-0.156215	0.000025
F70	F	-0.708176	-0.122092	-0.000013
F71	F	-0.681559	-0.656743	0.000004
H72	H	-0.909775	-0.190523	-0.000004
