data_functionalizedCrystal
_audit_creation_method	'MofGen! by Chris Wilmer'
_symmetry_space_group_name_H-M	'P1'
_symmetry_Int_Tables_number	1
_symmetry_cell_setting	triclinic
loop_
_symmetry_equiv_pos_as_xyz
  x,y,z
_cell_length_a	11.026607
_cell_length_b	9.565339
_cell_length_c	11.026607
_cell_angle_alpha	89.997756
_cell_angle_beta	108.586017
_cell_angle_gamma	90.003896
loop_
_atom_site_label
_atom_site_type_symbol
_atom_site_fract_x
_atom_site_fract_y
_atom_site_fract_z
O1	O	1.726731	0.116257	0.533614
O2	O	1.360151	0.116259	0.472851
O3	O	1.513059	0.116253	0.319943
O4	O	1.573822	0.116263	0.686522
O5	O	1.513046	-0.116267	0.319951
O6	O	1.360138	-0.116261	0.472860
O7	O	1.726718	-0.116264	0.533623
Zn8	Zn	1.543426	-0.153180	0.503243
Zn9	Zn	1.543443	0.153175	0.503231
O10	O	1.573810	-0.116258	0.686531
C11	C	1.312485	-0.000001	0.461645
C12	C	1.170471	-0.000000	0.428228
N13	N	1.543423	-0.362259	0.503252
C14	C	1.116821	0.000003	0.520498
C15	C	0.970043	0.000004	0.485962
C16	C	1.472675	-0.453460	0.573931
C17	C	1.593231	-0.546639	0.623813
C18	C	1.422919	-0.546636	0.453390
C19	C	1.664050	-0.453387	0.553204
C20	C	1.493652	-0.453376	0.382715
C21	C	1.614281	-0.546512	0.432566
C22	C	1.774384	-0.000001	0.544828
C23	C	1.916398	0.000008	0.578245
C24	C	1.501843	-0.000006	0.272287
C25	C	1.468426	-0.000000	0.130273
N26	N	1.543453	0.362255	0.503214
C27	C	1.560695	0.000001	0.076624
C28	C	1.526160	0.000006	-0.070155
C29	C	1.585026	0.000004	0.734187
C30	C	1.618443	0.000008	0.876200
H31	H	1.179555	-0.000002	0.625061
H32	H	0.907314	0.000037	0.381393
H33	H	0.979125	0.000001	0.682816
C34	C	1.085736	-0.000003	0.286965
C35	C	0.991168	-0.120745	0.234475
C36	C	0.906436	-0.120748	0.093208
C37	C	0.916272	-0.000009	0.004432
C38	C	1.010844	0.120742	0.056921
C39	C	1.095576	0.120745	0.198188
H40	H	0.983883	-0.210131	0.300193
H41	H	0.836427	-0.210136	0.054353
H42	H	0.853549	-0.000011	-0.100142
H43	H	1.018129	0.210128	-0.008797
H44	H	1.165584	0.210133	0.237043
C45	C	1.327163	0.000003	0.045538
C46	C	1.238383	-0.120738	0.055366
C47	C	1.097116	-0.120734	-0.029366
C48	C	1.044629	0.000011	-0.123925
C49	C	1.133410	0.120761	-0.133757
C50	C	1.274677	0.120757	-0.049025
H51	H	1.277236	-0.210129	0.125368
H52	H	1.031395	-0.210122	-0.022087
H53	H	0.940055	0.000014	-0.186649
H54	H	1.094558	0.210152	-0.203759
H55	H	1.340398	0.210145	-0.056304
C56	C	1.391963	-0.398245	0.654784
C57	C	1.429283	-0.435099	0.797945
C58	C	1.348580	-0.379882	0.878801
C59	C	1.230557	-0.287811	0.816497
C60	C	1.193232	-0.250952	0.673329
C61	C	1.273935	-0.306169	0.592472
H62	H	1.516656	-0.503260	0.844073
H63	H	1.376211	-0.407167	0.984784
H64	H	1.170816	-0.246936	0.876351
H65	H	1.105859	-0.182791	0.627200
H66	H	1.246303	-0.278884	0.486490
H67	H	1.665258	-0.000008	0.139357
H68	H	1.635347	-0.587603	0.725735
H69	H	1.766018	-0.412598	0.595479
H70	H	1.674206	-0.587113	0.372793
H71	H	1.451506	-0.412378	0.280816
H72	H	1.320999	-0.587600	0.411237
H73	H	1.421590	0.000016	-0.132884
H74	H	1.723013	0.000112	-0.061072
