data_functionalizedCrystal
_audit_creation_method	'MofGen! by Chris Wilmer'
_symmetry_space_group_name_H-M	'P1'
_symmetry_Int_Tables_number	1
_symmetry_cell_setting	triclinic
loop_
_symmetry_equiv_pos_as_xyz
  x,y,z
_cell_length_a	21.883469
_cell_length_b	21.882911
_cell_length_c	21.879399
_cell_angle_alpha	60.006540
_cell_angle_beta	60.013207
_cell_angle_gamma	59.992231
loop_
_atom_site_label
_atom_site_type_symbol
_atom_site_fract_x
_atom_site_fract_y
_atom_site_fract_z
O1	O	0.084645	-0.892842	0.746620
O2	O	0.031867	-0.695139	0.601571
O3	O	0.157054	-0.820237	0.601476
O4	O	-0.040542	-0.767744	0.746716
O5	O	0.198586	-0.778715	0.642912
O6	O	0.073399	-0.653617	0.643007
O7	O	0.126177	-0.851320	0.788056
Cu8	Cu	0.103580	-0.748677	0.719315
Cu9	Cu	0.054464	-0.797782	0.670313
O10	O	0.000990	-0.726222	0.788151
N11	N	0.138128	-0.714145	0.753785
N12	N	0.019923	-0.832320	0.635843
C13	C	0.190018	-0.547369	0.805644
C14	C	0.190029	-0.662289	0.805630
C15	C	0.218780	-0.633565	0.834353
C16	C	0.344122	-0.611968	0.768360
C17	C	0.422474	-0.638085	0.742222
C18	C	0.422504	-0.764859	0.790561
C19	C	0.344154	-0.738739	0.816702
C20	C	0.208899	-0.508180	0.728617
C21	C	0.182748	-0.429822	0.702522
C22	C	0.118843	-0.429847	0.830485
C23	C	0.144993	-0.508205	0.856580
C24	C	0.112994	-0.643364	0.824587
C25	C	0.086865	-0.669476	0.798467
C26	C	0.214799	-0.733437	0.734451
C27	C	0.240932	-0.707325	0.760562
C28	C	0.113084	-0.643389	0.959747
C29	C	0.087018	-0.669524	1.038102
C30	C	0.214996	-0.733501	1.038048
C31	C	0.241061	-0.707367	0.959690
C32	C	0.190103	-0.662308	0.920542
C33	C	0.304966	-0.662293	0.805598
C34	C	-0.117460	-0.854702	0.612901
C35	C	-0.002405	-0.854864	0.498145
C36	C	-0.002621	-0.969735	0.613108
C37	C	-0.002603	-0.854858	0.613180
C38	C	-0.031272	-0.883541	0.584334
N39	N	0.460550	-0.714150	0.753681
O40	O	0.699805	-0.721060	0.574973
O41	O	0.700047	-0.866553	0.772482
O42	O	0.699952	-0.866219	0.647213
O43	O	0.699900	-0.721394	0.700242
O44	O	0.575478	-0.824800	0.688791
O45	O	0.575573	-0.825134	0.814060
O46	O	0.575331	-0.679641	0.616551
Cu47	Cu	0.564087	-0.748606	0.719102
Cu48	Cu	0.711292	-0.797588	0.669931
O49	O	0.575426	-0.679975	0.741820
N50	N	0.814828	-0.832044	0.635345
N51	N	0.138106	-0.391772	0.753815
O52	O	-0.040520	-0.152377	0.746758
O53	O	0.156993	-0.152371	0.601281
O54	O	0.031698	-0.152390	0.601639
O55	O	0.084775	-0.152358	0.746401
O56	O	0.073234	-0.276876	0.643130
O57	O	0.198529	-0.276856	0.642772
O58	O	0.001015	-0.276863	0.788249
Cu59	Cu	0.103564	-0.288226	0.719299
Cu60	Cu	0.054444	-0.141007	0.670231
O61	O	0.126310	-0.276844	0.787892
N62	N	0.019892	-0.037461	0.635717
N63	N	0.138332	-0.714192	1.076133
O64	O	0.131293	-0.892804	1.315506
O65	O	-0.014162	-0.695219	1.315533
O66	O	-0.013826	-0.820490	1.315480
O67	O	0.130957	-0.767533	1.315559
O68	O	0.027651	-0.778981	1.191001
O69	O	0.027314	-0.653710	1.191054
O70	O	0.172770	-0.851295	1.191026
Cu71	Cu	0.103829	-0.748713	1.179674
Cu72	Cu	0.054778	-0.797802	1.326885
O73	O	0.172434	-0.726024	1.191079
N74	N	0.020275	-0.832331	1.430426
C75	C	0.047687	-0.649466	0.602306
C76	C	0.202716	-0.804385	0.602188
C77	C	0.110357	-0.896993	0.787321
C78	C	-0.044672	-0.742074	0.787439
C79	C	0.637839	-0.865879	0.818154
C80	C	0.637724	-0.865466	0.663023
C81	C	0.637536	-0.680313	0.570880
C82	C	0.637655	-0.680728	0.726010
C83	C	0.202592	-0.214459	0.601942
C84	C	0.047481	-0.214636	0.602435
C85	C	-0.044635	-0.214620	0.787537
C86	C	0.110528	-0.214598	0.787096
C87	C	-0.013455	-0.649572	1.253296
C88	C	-0.013030	-0.804697	1.253206
C89	C	0.172063	-0.896942	1.253263
C90	C	0.171648	-0.741808	1.253325
H91	H	0.071582	-0.606692	0.927876
H92	H	0.121892	-0.214588	0.832572
H93	H	0.121632	-0.953785	0.832877
H94	H	0.217133	-0.730478	1.253340
O95	O	-0.112343	-0.728653	0.841876
C96	C	-0.125737	-0.668068	0.859148
H97	H	-0.070163	-0.662060	0.842598
H98	H	-0.156021	-0.678745	0.921805
H99	H	-0.161857	-0.614411	0.827011
O100	O	-0.067917	-0.581843	1.253170
C101	C	-0.088026	-0.548714	1.188700
H102	H	-0.039956	-0.573477	1.143637
H103	H	-0.100397	-0.485730	1.167074
H104	H	-0.139984	-0.560145	1.203256
O105	O	0.270058	-0.213952	0.547223
C106	C	0.259809	-0.149339	0.484364
H107	H	0.200055	-0.128087	0.485384
H108	H	0.300768	-0.163567	0.431057
H109	H	0.270315	-0.104115	0.485821
H110	H	0.637900	-0.911553	0.874882
H111	H	0.637745	-0.910963	0.651673
H112	H	0.637644	-0.635235	0.737357
H113	H	-0.058496	-0.816008	1.253133
H114	H	0.312274	-0.779724	0.847024
O115	O	0.270363	-0.817737	0.547704
C116	C	0.260520	-0.809331	0.484638
H117	H	0.205691	-0.817552	0.502658
H118	H	0.309047	-0.852821	0.457936
H119	H	0.258863	-0.750823	0.442323
H120	H	0.217732	-0.953686	1.253245
H121	H	0.024299	-0.654107	1.070013
H122	H	-0.101359	-0.214623	0.833209
O123	O	0.264600	-0.777276	1.075955
C124	C	0.338167	-0.788347	1.024545
H125	H	0.337989	-0.779587	0.968699
H126	H	0.375399	-0.847773	1.047159
H127	H	0.360603	-0.746635	1.016206
O128	O	0.637344	-0.625839	0.503218
C129	C	0.572842	-0.608478	0.489839
H130	H	0.551409	-0.657978	0.524756
H131	H	0.587281	-0.596240	0.427948
H132	H	0.527677	-0.557178	0.505993
O133	O	0.315864	-0.725618	0.921526
C134	C	0.334773	-0.659780	0.876221
H135	H	0.283121	-0.610542	0.864506
H136	H	0.380186	-0.666782	0.821110
H137	H	0.356302	-0.648778	0.906409
O138	O	0.033953	-0.214795	0.548244
C139	C	0.016340	-0.279271	0.574055
H140	H	0.040510	-0.324312	0.620536
H141	H	0.041309	-0.300936	0.525869
H142	H	-0.047041	-0.264702	0.596630
O143	O	0.063517	-0.599507	0.868249
C144	C	0.018170	-0.533792	0.828714
H145	H	0.048392	-0.522886	0.766023
H146	H	0.006325	-0.484440	0.842743
H147	H	-0.036876	-0.540910	0.845408
O148	O	0.012039	-0.651007	0.816751
C149	C	-0.006944	-0.611563	0.750934
H150	H	0.037202	-0.585041	0.703855
H151	H	-0.063831	-0.565904	0.761287
H152	H	-0.009556	-0.651847	0.734439
O153	O	0.264287	-0.777071	0.690567
C154	C	0.309557	-0.737490	0.624867
H155	H	0.279272	-0.674803	0.613997
H156	H	0.321393	-0.751494	0.575499
H157	H	0.364611	-0.754166	0.631977
O158	O	0.460461	-0.839147	0.801428
C159	C	0.409099	-0.877965	0.839881
H160	H	0.353256	-0.843786	0.872005
H161	H	0.431771	-0.934473	0.880771
H162	H	0.400737	-0.887025	0.797965
O163	O	0.460396	-0.589095	0.706033
C164	C	0.409006	-0.516022	0.701853
H165	H	0.353147	-0.512967	0.707001
H166	H	0.431617	-0.474614	0.645852
H167	H	0.400700	-0.501398	0.749325
O168	O	0.315754	-0.725568	0.742069
C169	C	0.334639	-0.659718	0.702657
H170	H	0.290438	-0.612650	0.676162
H171	H	0.391504	-0.670024	0.656982
H172	H	0.337248	-0.643232	0.742955
H173	H	0.129609	-0.540114	0.919306
H174	H	0.036413	-0.592673	0.556752
H175	H	0.312222	-0.549720	0.759316
H176	H	0.198119	-0.397913	0.639797
O177	O	0.252521	-0.546194	0.679114
C178	C	0.212924	-0.527028	0.633824
H179	H	0.150246	-0.505494	0.664101
H180	H	0.226938	-0.578555	0.621974
H181	H	0.229569	-0.481537	0.578775
O182	O	0.075094	-0.391914	0.880063
C183	C	0.064066	-0.443307	0.953648
H184	H	0.072826	-0.499163	0.953507
H185	H	0.004657	-0.420677	0.990872
H186	H	0.105797	-0.451637	0.976069
