data_functionalizedCrystal
_audit_creation_method	'MofGen! by Chris Wilmer'
_symmetry_space_group_name_H-M	'P1'
_symmetry_Int_Tables_number	1
_symmetry_cell_setting	triclinic
loop_
_symmetry_equiv_pos_as_xyz
  x,y,z
_cell_length_a	25.639242
_cell_length_b	25.639240
_cell_length_c	18.050582
_cell_angle_alpha	89.968180
_cell_angle_beta	89.976321
_cell_angle_gamma	90.028283
loop_
_atom_site_label
_atom_site_type_symbol
_atom_site_fract_x
_atom_site_fract_y
_atom_site_fract_z
Zn1	Zn	0.799254	-0.208246	-0.420038
Zn2	Zn	1.132588	0.125087	-0.086705
Zn3	Zn	1.465921	0.458420	0.246628
Zn4	Zn	0.799185	-0.295674	-0.295828
Zn5	Zn	1.132518	0.037659	0.037505
Zn6	Zn	1.465851	0.370993	0.370838
Zn7	Zn	0.711828	-0.208248	-0.295843
Zn8	Zn	1.045162	0.125086	0.037490
Zn9	Zn	1.378495	0.458419	0.370823
Zn10	Zn	0.711785	-0.295646	-0.419958
Zn11	Zn	1.045118	0.037688	-0.086624
Zn12	Zn	1.378452	0.371021	0.246709
O13	O	0.755513	-0.251953	-0.357917
O14	O	1.088846	0.081380	-0.024584
O15	O	1.422180	0.414713	0.308750
O16	O	0.872410	-0.219855	-0.403589
O17	O	1.205744	0.113478	-0.070256
O18	O	1.539077	0.446812	0.263078
O19	O	0.787586	-0.284089	-0.191906
O20	O	1.120919	0.049244	0.141428
O21	O	1.454252	0.382577	0.474761
O22	O	0.723473	-0.135082	-0.312358
O23	O	1.056806	0.198251	0.020975
O24	O	1.390140	0.531584	0.354308
O25	O	0.872359	-0.284088	-0.312332
O26	O	1.205692	0.049245	0.021001
O27	O	1.539026	0.382579	0.354334
O28	O	0.787705	-0.135081	-0.403604
O29	O	1.121038	0.198252	-0.070270
O30	O	1.454371	0.531585	0.263063
O31	O	0.723405	-0.219857	-0.191917
O32	O	1.056739	0.113476	0.141417
O33	O	1.390072	0.446809	0.474750
O34	O	0.638657	-0.219830	-0.312280
O35	O	0.971991	0.113503	0.021053
O36	O	1.305324	0.446837	0.354387
O37	O	0.723399	-0.284040	-0.523893
O38	O	1.056732	0.049294	-0.190560
O39	O	1.390066	0.382627	0.142774
O40	O	0.638625	-0.284041	-0.403466
O41	O	0.971959	0.049292	-0.070133
O42	O	1.305292	0.382626	0.263200
O43	O	0.787662	-0.219828	-0.523952
O44	O	1.120996	0.113506	-0.190619
O45	O	1.454329	0.446839	0.142714
O46	O	0.787543	-0.368836	-0.312254
O47	O	1.120877	-0.035502	0.021079
O48	O	1.454210	0.297831	0.354412
O49	O	0.723331	-0.368815	-0.403452
O50	O	1.056665	-0.035481	-0.070118
O51	O	1.389998	0.297852	0.263215
C52	C	0.619671	-0.251933	-0.357867
C53	C	0.953004	0.081400	-0.024533
C54	C	1.286337	0.414734	0.308800
C55	C	0.561556	-0.251937	-0.357863
C56	C	0.894890	0.081397	-0.024529
C57	C	1.228223	0.414730	0.308804
C58	C	0.201186	-0.285444	-0.405353
C59	C	0.534519	0.047889	-0.072019
C60	C	0.867852	0.381223	0.261314
C61	C	0.146581	-0.285447	-0.405364
C62	C	0.479915	0.047886	-0.072031
C63	C	0.813248	0.381219	0.261302
O64	O	0.118338	-0.313911	-0.445699
O65	O	0.451671	0.019423	-0.112366
O66	O	0.785005	0.352756	0.220967
N67	N	0.119274	-0.251968	-0.357965
N68	N	0.452607	0.081365	-0.024632
N69	N	0.785941	0.414699	0.308701
C70	C	0.146574	-0.218479	-0.310557
C71	C	0.479907	0.114854	0.022776
C72	C	0.813240	0.448187	0.356110
O73	O	0.118333	-0.190003	-0.270242
O74	O	0.451666	0.143331	0.063091
O75	O	0.784999	0.476664	0.396425
C76	C	0.201177	-0.218474	-0.310550
C77	C	0.534510	0.114859	0.022784
C78	C	0.867844	0.448193	0.356117
C79	C	0.228482	-0.251959	-0.357946
C80	C	0.561815	0.081374	-0.024613
C81	C	0.895148	0.414707	0.308720
C82	C	0.228490	-0.318926	-0.452746
C83	C	0.561824	0.014407	-0.119413
C84	C	0.895157	0.347741	0.213921
C85	C	0.283091	-0.318924	-0.452733
C86	C	0.616424	0.014410	-0.119400
C87	C	0.949757	0.347743	0.213934
C88	C	0.310387	-0.285439	-0.405327
C89	C	0.643720	0.047895	-0.071993
C90	C	0.977053	0.381228	0.261340
C91	C	0.283082	-0.251957	-0.357933
C92	C	0.616416	0.081377	-0.024600
C93	C	0.949749	0.414710	0.308733
C94	C	0.228476	-0.184983	-0.263145
C95	C	0.561809	0.148350	0.070188
C96	C	0.895143	0.481683	0.403521
C97	C	0.283083	-0.184980	-0.263142
C98	C	0.616416	0.148353	0.070191
C99	C	0.949750	0.481686	0.403524
C100	C	0.310387	-0.218466	-0.310539
C101	C	0.643721	0.114868	0.022794
C102	C	0.977054	0.448201	0.356127
C103	C	0.364979	-0.218469	-0.310514
C104	C	0.698312	0.114864	0.022819
C105	C	1.031645	0.448197	0.356153
N106	N	0.392286	-0.251949	-0.357913
N107	N	0.725619	0.081385	-0.024580
N108	N	1.058953	0.414718	0.308754
C109	C	0.364990	-0.285433	-0.405319
C110	C	0.698323	0.047900	-0.071986
C111	C	1.031657	0.381233	0.261347
C112	C	0.031903	-0.218493	-0.310577
C113	C	0.365237	0.114841	0.022756
C114	C	0.698570	0.448174	0.356090
C115	C	-0.022699	-0.218500	-0.310580
C116	C	0.310634	0.114833	0.022753
C117	C	0.643968	0.448166	0.356087
C118	C	-0.022688	-0.285468	-0.405389
C119	C	0.310645	0.047866	-0.072055
C120	C	0.643979	0.381199	0.261278
C121	C	0.031915	-0.285462	-0.405381
C122	C	0.365249	0.047871	-0.072048
C123	C	0.698582	0.381204	0.261285
C124	C	0.059211	-0.251972	-0.357976
C125	C	0.392544	0.081361	-0.024643
C126	C	0.725877	0.414695	0.308691
C127	C	0.479655	-0.285426	-0.405288
C128	C	0.812988	0.047908	-0.071955
C129	C	1.146322	0.381241	0.261378
C130	C	0.534260	-0.285421	-0.405269
C131	C	0.867594	0.047912	-0.071936
C132	C	1.200927	0.381245	0.261398
C133	C	0.534244	-0.218452	-0.310464
C134	C	0.867578	0.114881	0.022870
C135	C	1.200911	0.448214	0.356203
C136	C	0.479644	-0.218458	-0.310480
C137	C	0.812977	0.114875	0.022854
C138	C	1.146311	0.448208	0.356187
C139	C	0.452351	-0.251947	-0.357898
C140	C	0.785684	0.081387	-0.024565
C141	C	1.119017	0.414720	0.308769
O142	O	0.393257	-0.190019	-0.270202
O143	O	0.726590	0.143315	0.063132
O144	O	1.059923	0.476648	0.396465
O145	O	0.393238	-0.313901	-0.445634
O146	O	0.726571	0.019433	-0.112301
O147	O	1.059904	0.352766	0.221032
C148	C	0.755439	-0.387796	-0.357859
C149	C	1.088773	-0.054463	-0.024525
C150	C	1.422106	0.278871	0.308808
C151	C	0.755455	-0.445910	-0.357859
C152	C	1.088789	-0.112577	-0.024525
C153	C	1.422122	0.220757	0.308808
C154	C	0.788975	-0.806234	-0.405514
C155	C	1.122308	-0.472901	-0.072181
C156	C	1.455642	-0.139567	0.261153
C157	C	0.788990	-0.860838	-0.405529
C158	C	1.122324	-0.527505	-0.072196
C159	C	1.455657	-0.194172	0.261137
O160	O	0.817402	-0.889042	-0.445988
O161	O	1.150735	-0.555709	-0.112654
O162	O	1.484069	-0.222375	0.220679
N163	N	0.755586	-0.888193	-0.357989
N164	N	1.088919	-0.554859	-0.024655
N165	N	1.422252	-0.221526	0.308678
C166	C	0.722159	-0.860939	-0.310435
C167	C	1.055493	-0.527606	0.022898
C168	C	1.388826	-0.194273	0.356231
O169	O	0.693747	-0.889220	-0.270000
O170	O	1.027080	-0.555887	0.063333
O171	O	1.360414	-0.222554	0.396666
C172	C	0.722142	-0.806336	-0.310425
C173	C	1.055475	-0.473003	0.022909
C174	C	1.388808	-0.139670	0.356242
C175	C	0.755553	-0.778985	-0.357963
C176	C	1.088886	-0.445652	-0.024629
C177	C	1.422219	-0.112318	0.308704
C178	C	0.822383	-0.778883	-0.453049
C179	C	1.155716	-0.445550	-0.119716
C180	C	1.489049	-0.112216	0.213618
C181	C	0.822368	-0.724282	-0.453033
C182	C	1.155701	-0.390949	-0.119700
C183	C	1.489034	-0.057616	0.213634
C184	C	0.788945	-0.697033	-0.405482
C185	C	1.122279	-0.363700	-0.072148
C186	C	1.455612	-0.030366	0.261185
C187	C	0.755538	-0.724384	-0.357947
C188	C	1.088871	-0.391051	-0.024613
C189	C	1.422204	-0.057718	0.308720
C190	C	0.688713	-0.779084	-0.262875
C191	C	1.022047	-0.445751	0.070458
C192	C	1.355380	-0.112417	0.403791
C193	C	0.688698	-0.724477	-0.262869
C194	C	1.022032	-0.391144	0.070464
C195	C	1.355365	-0.057810	0.403798
C196	C	0.722109	-0.697126	-0.310407
C197	C	1.055442	-0.363793	0.022926
C198	C	1.388776	-0.030459	0.356259
C199	C	0.722100	-0.642535	-0.310379
C200	C	1.055434	-0.309201	0.022954
C201	C	1.388767	0.024132	0.356288
N202	N	0.755505	-0.615181	-0.357920
N203	N	1.088838	-0.281847	-0.024586
N204	N	1.422172	0.051486	0.308747
C205	C	0.788928	-0.642430	-0.405471
C206	C	1.122261	-0.309096	-0.072137
C207	C	1.455594	0.024237	0.261196
C208	C	0.722198	-0.975610	-0.310463
C209	C	1.055532	-0.642277	0.022871
C210	C	1.388865	-0.308943	0.356204
C211	C	0.722218	-1.030212	-0.310469
C212	C	1.055552	-0.696879	0.022864
C213	C	1.388885	-0.363546	0.356198
C214	C	0.789049	-1.030108	-0.405564
C215	C	1.122382	-0.696774	-0.072231
C216	C	1.455715	-0.363441	0.261103
C217	C	0.789031	-0.975504	-0.405553
C218	C	1.122364	-0.642171	-0.072220
C219	C	1.455698	-0.308838	0.261113
C220	C	0.755603	-0.948256	-0.358003
C221	C	1.088937	-0.614923	-0.024670
C222	C	1.422270	-0.281589	0.308664
C223	C	0.788894	-0.527765	-0.405433
C224	C	1.122228	-0.194431	-0.072099
C225	C	1.455561	0.138902	0.261234
C226	C	0.788878	-0.473159	-0.405410
C227	C	1.122211	-0.139826	-0.072077
C228	C	1.455545	0.193507	0.261257
C229	C	0.722046	-0.473269	-0.310318
C230	C	1.055379	-0.139936	0.023015
C231	C	1.388712	0.193398	0.356349
C232	C	0.722064	-0.527870	-0.310338
C233	C	1.055397	-0.194536	0.022996
C234	C	1.388730	0.138797	0.356329
C235	C	0.755490	-0.555116	-0.357901
C236	C	1.088823	-0.221783	-0.024568
C237	C	1.422156	0.111551	0.308766
O238	O	0.693702	-0.614296	-0.269943
O239	O	1.027035	-0.280963	0.063390
O240	O	1.360368	0.052370	0.396723
O241	O	0.817330	-0.614142	-0.445906
O242	O	1.150664	-0.280809	-0.112573
O243	O	1.483997	0.052524	0.220761
C244	C	0.891886	-0.251975	-0.357968
C245	C	1.225219	0.081359	-0.024635
C246	C	1.558553	0.414692	0.308699
C247	C	0.950000	-0.251984	-0.357990
C248	C	1.283333	0.081350	-0.024656
C249	C	1.616667	0.414683	0.308677
C250	C	0.755534	-0.251930	-0.551623
C251	C	1.088867	0.081403	-0.218289
C252	C	1.422200	0.414736	0.115044
C253	C	0.755542	-0.251920	-0.634168
C254	C	1.088876	0.081413	-0.300835
C255	C	1.422209	0.414746	0.032498
C256	C	0.755601	-0.115580	-0.357992
C257	C	1.088935	0.217753	-0.024658
C258	C	1.422268	0.551086	0.308675
C259	C	0.755639	-0.057466	-0.358023
C260	C	1.088973	0.275867	-0.024690
C261	C	1.422306	0.609200	0.308643
C262	C	0.720623	-0.286791	-0.833587
C263	C	1.053956	0.046542	-0.500254
C264	C	1.387289	0.379875	-0.166920
C265	C	0.768323	-0.299575	-0.882986
C266	C	1.101656	0.033758	-0.549652
C267	C	1.434989	0.367091	-0.216319
C268	C	0.755568	-0.251881	-0.785299
C269	C	1.088901	0.081453	-0.451966
C270	C	1.422235	0.414786	-0.118632
C271	C	0.707894	-0.239082	-0.882982
C272	C	1.041227	0.094251	-0.549649
C273	C	1.374561	0.427585	-0.216315
C274	C	0.755589	-0.251843	-0.931284
C275	C	1.088922	0.081490	-0.597951
C276	C	1.422255	0.414824	-0.264617
C277	C	0.803293	-0.264690	-0.833610
C278	C	1.136627	0.068644	-0.500277
C279	C	1.469960	0.401977	-0.166944
C280	C	0.742833	-0.204174	-0.833602
C281	C	1.076166	0.129159	-0.500269
C282	C	1.409499	0.462493	-0.166936
C283	C	0.790566	-0.216940	-0.882979
C284	C	1.123899	0.116393	-0.549645
C285	C	1.457232	0.449727	-0.216312
C286	C	0.755555	-0.251903	-0.701201
C287	C	1.088889	0.081430	-0.367867
C288	C	1.422222	0.414763	-0.034534
C289	C	0.755607	-0.251820	-1.015381
C290	C	1.088940	0.081513	-0.682047
C291	C	1.422273	0.414847	-0.348714
C292	C	0.755523	-0.251939	-0.164965
C293	C	1.088856	0.081394	0.168369
C294	C	1.422189	0.414728	0.501702
C295	C	0.755615	-0.251801	-0.082419
C296	C	1.088949	0.081532	0.250914
C297	C	1.422282	0.414865	0.584247
H298	H	0.305317	-0.346190	-0.491330
H299	H	0.638651	-0.012856	-0.157997
H300	H	0.971984	0.320477	0.175337
Br301	Br	0.676690	-0.436277	-0.245786
Br302	Br	1.010023	-0.102944	0.087547
Br303	Br	1.343356	0.230389	0.420881
H304	H	0.457439	-0.312694	-0.443903
H305	H	0.790773	0.020640	-0.110569
H306	H	1.124106	0.353973	0.222764
H307	H	-0.044926	-0.191239	-0.271977
H308	H	0.288407	0.142095	0.061356
H309	H	0.621741	0.475428	0.394689
H310	H	0.206272	-0.346194	-0.491354
H311	H	0.539605	-0.012860	-0.158021
H312	H	0.872938	0.320473	0.175313
Br313	Br	0.643366	-0.816190	-0.198356
Br314	Br	0.976699	-0.482856	0.134977
Br315	Br	1.310033	-0.149523	0.468310
Br316	Br	0.068966	-0.330908	-0.469708
Br317	Br	0.402299	0.002425	-0.136374
Br318	Br	0.735632	0.335759	0.196959
H319	H	0.843631	-0.275545	-0.812014
H320	H	1.176964	0.057788	-0.478681
H321	H	1.510298	0.391122	-0.145348
Br322	Br	-0.059743	-0.330907	-0.469733
Br323	Br	0.273590	0.002426	-0.136400
Br324	Br	0.606924	0.335759	0.196934
H325	H	0.054123	-0.191221	-0.271969
H326	H	0.387457	0.142112	0.061365
H327	H	0.720790	0.475445	0.394698
Br328	Br	0.191434	-0.139533	-0.198821
Br329	Br	0.524767	0.193800	0.134512
Br330	Br	0.858100	0.527134	0.467845
H331	H	0.691098	-0.316353	-0.811901
H332	H	1.024431	0.016981	-0.478568
H333	H	1.357765	0.350314	-0.145235
H334	H	0.816262	-1.052304	-0.444284
H335	H	1.149596	-0.718970	-0.110951
H336	H	1.482929	-0.385637	0.222382
Br337	Br	0.676882	-1.067325	-0.245938
Br338	Br	1.010216	-0.733992	0.087396
Br339	Br	1.343549	-0.400659	0.420729
Br340	Br	0.571299	-0.173011	-0.246129
Br341	Br	0.904633	0.160322	0.087204
Br342	Br	1.237966	0.493655	0.420538
H343	H	0.305304	-0.157705	-0.224543
H344	H	0.638637	0.175628	0.108790
H345	H	0.971970	0.508962	0.442124
Br346	Br	0.676830	-0.938636	-0.245920
Br347	Br	1.010164	-0.605302	0.087413
Br348	Br	1.343497	-0.271969	0.420747
Br349	Br	0.786300	-0.366791	-0.919141
Br350	Br	1.119633	-0.033458	-0.585808
Br351	Br	1.452966	0.299876	-0.252474
Br352	Br	0.442586	-0.173024	-0.246141
Br353	Br	0.775920	0.160309	0.087192
Br354	Br	1.109253	0.493643	0.420526
H355	H	0.849572	-0.702016	-0.491745
H356	H	1.182905	-0.368683	-0.158411
H357	H	1.516239	-0.035349	0.174922
Br358	Br	0.724836	-0.136975	-0.797417
Br359	Br	1.058169	0.196358	-0.464084
Br360	Br	1.391502	0.529692	-0.130751
Br361	Br	0.676729	-0.564990	-0.245809
Br362	Br	1.010062	-0.231657	0.087524
Br363	Br	1.343395	0.101676	0.420857
H364	H	0.816087	-0.450892	-0.444121
H365	H	1.149420	-0.117558	-0.110788
H366	H	1.482753	0.215775	0.222545
Br367	Br	0.839890	-0.167706	-0.918902
Br368	Br	1.173223	0.165627	-0.585568
Br369	Br	1.506557	0.498961	-0.252235
H370	H	0.667568	-0.228272	-0.904670
H371	H	1.000902	0.105061	-0.571336
H372	H	1.334235	0.438394	-0.238003
H373	H	0.661476	-0.702294	-0.224149
H374	H	0.994809	-0.368961	0.109185
H375	H	1.328142	-0.035627	0.442518
Br376	Br	0.867745	-0.815854	-0.517596
Br377	Br	1.201079	-0.482520	-0.184263
Br378	Br	1.534412	-0.149187	0.149071
Br379	Br	0.571313	-0.330871	-0.469594
Br380	Br	0.904647	0.002462	-0.136261
Br381	Br	1.237980	0.335796	0.197072
H382	H	0.816109	-0.549942	-0.444168
H383	H	1.149443	-0.216609	-0.110835
H384	H	1.482776	0.116724	0.222498
H385	H	0.816237	-0.953238	-0.444263
H386	H	1.149570	-0.619905	-0.110930
H387	H	1.482903	-0.286571	0.222403
