data_functionalizedCrystal
_audit_creation_method	'MofGen! by Chris Wilmer'
_symmetry_space_group_name_H-M	'P1'
_symmetry_Int_Tables_number	1
_symmetry_cell_setting	triclinic
loop_
_symmetry_equiv_pos_as_xyz
  x,y,z
_cell_length_a	16.974800
_cell_length_b	15.944493
_cell_length_c	16.053802
_cell_angle_alpha	92.571009
_cell_angle_beta	91.074188
_cell_angle_gamma	83.432052
loop_
_atom_site_label
_atom_site_type_symbol
_atom_site_fract_x
_atom_site_fract_y
_atom_site_fract_z
O1	O	1.049061	0.107076	0.001491
O2	O	1.382395	0.440409	0.334824
O3	O	1.715728	0.773742	0.668158
O4	O	0.819598	0.119934	-0.014019
O5	O	1.152931	0.453268	0.319314
O6	O	1.486265	0.786601	0.652647
O7	O	0.940620	-0.008760	-0.005846
O8	O	1.273953	0.324574	0.327487
O9	O	1.607287	0.657907	0.660821
O10	O	0.928039	0.235770	-0.006682
O11	O	1.261373	0.569103	0.326651
O12	O	1.594706	0.902437	0.659984
O13	O	0.933959	-0.001705	0.132563
O14	O	1.267292	0.331628	0.465896
O15	O	1.600625	0.664961	0.799230
O16	O	0.812937	0.126989	0.124390
O17	O	1.146270	0.460322	0.457723
O18	O	1.479603	0.793655	0.791056
O19	O	1.042400	0.114130	0.139900
O20	O	1.375733	0.447464	0.473233
O21	O	1.709067	0.780797	0.806567
Zn22	Zn	0.926611	0.121680	0.154120
Zn23	Zn	1.259944	0.455013	0.487454
Zn24	Zn	1.593277	0.788346	0.820787
Zn25	Zn	0.935387	0.112385	-0.028240
Zn26	Zn	1.268721	0.445718	0.305094
Zn27	Zn	1.602054	0.779052	0.638427
O28	O	0.921378	0.242824	0.131727
O29	O	1.254711	0.576158	0.465060
O30	O	1.588045	0.909491	0.798393
C31	C	0.786904	0.122843	0.053200
C32	C	1.120238	0.456177	0.386533
C33	C	1.453571	0.789510	0.719867
C34	C	0.699412	0.120991	0.047286
C35	C	1.032745	0.454324	0.380619
C36	C	1.366079	0.787658	0.713952
C37	C	0.654681	0.123964	0.119956
C38	C	0.988015	0.457298	0.453289
C39	C	1.321348	0.790631	0.786622
C40	C	0.572475	0.122211	0.114401
C41	C	0.905808	0.455544	0.447734
C42	C	1.239141	0.788877	0.781067
C43	C	0.534999	0.117490	0.036175
C44	C	0.868332	0.450823	0.369508
C45	C	1.201666	0.784156	0.702841
C46	C	0.579736	0.114514	-0.036501
C47	C	0.913069	0.447847	0.296833
C48	C	1.246403	0.781181	0.630166
C49	C	0.661942	0.116262	-0.030945
C50	C	0.995275	0.449595	0.302388
C51	C	1.328609	0.782928	0.635722
C52	C	0.289529	0.111845	0.011468
C53	C	0.622863	0.445178	0.344802
C54	C	0.956196	0.778511	0.678135
C55	C	0.207317	0.110100	0.005918
C56	C	0.540650	0.443433	0.339251
C57	C	0.873984	0.776767	0.672585
C58	C	0.200062	0.117795	0.156820
C59	C	0.533395	0.451129	0.490153
C60	C	0.866728	0.784462	0.823487
C61	C	0.282269	0.119548	0.162369
C62	C	0.615602	0.452881	0.495702
C63	C	0.948936	0.786214	0.829035
C64	C	0.326999	0.116567	0.089693
C65	C	0.660332	0.449900	0.423027
C66	C	0.993666	0.783234	0.756360
N67	N	0.450970	0.115700	0.030495
N68	N	0.784304	0.449033	0.363828
N69	N	1.117637	0.782366	0.697161
N70	N	0.411027	0.118351	0.095374
N71	N	0.744360	0.451684	0.428708
N72	N	1.077694	0.785018	0.762041
C73	C	0.936775	-0.036529	0.063320
C74	C	1.270109	0.296805	0.396654
C75	C	1.603442	0.630138	0.729987
C76	C	0.935234	-0.129781	0.063206
C77	C	1.268568	0.203552	0.396539
C78	C	1.601901	0.536886	0.729872
C79	C	1.006470	-0.365386	0.068036
C80	C	1.339803	-0.032052	0.401370
C81	C	1.673136	0.301281	0.734703
C82	C	0.971339	-0.419515	-0.002803
C83	C	1.304672	-0.086182	0.330531
C84	C	1.638006	0.247151	0.663864
C85	C	0.932378	-0.300508	0.063023
C86	C	1.265711	0.032825	0.396356
C87	C	1.599044	0.366159	0.729689
C88	C	0.964754	-0.412536	0.133657
C89	C	1.298088	-0.079203	0.466990
C90	C	1.631421	0.254130	0.800323
C91	C	0.929624	-0.465423	0.062850
C92	C	1.262957	-0.132089	0.396183
C93	C	1.596290	0.201244	0.729517
C94	C	0.897270	-0.353412	-0.007871
C95	C	1.230603	-0.020079	0.325462
C96	C	1.563936	0.313255	0.658795
C97	C	0.890693	-0.346427	0.128650
C98	C	1.224026	-0.013093	0.461983
C99	C	1.557359	0.320240	0.795317
C100	C	0.855509	-0.400524	0.057791
C101	C	1.188842	-0.067191	0.391124
C102	C	1.522175	0.266142	0.724457
C103	C	0.933966	-0.205505	0.063122
C104	C	1.267300	0.127828	0.396455
C105	C	1.600633	0.461162	0.729788
C106	C	0.928029	-0.560423	0.062745
C107	C	1.261363	-0.227090	0.396078
C108	C	1.594696	0.106243	0.729411
C109	C	1.075094	0.111221	0.072679
C110	C	1.408427	0.444554	0.406012
C111	C	1.741761	0.777888	0.739345
C112	C	1.162587	0.113073	0.078588
C113	C	1.495920	0.446406	0.411921
C114	C	1.829253	0.779740	0.745255
C115	C	0.925223	0.270593	0.062559
C116	C	1.258556	0.603926	0.395892
C117	C	1.591890	0.937260	0.729225
C118	C	0.926764	0.363845	0.062668
C119	C	1.260097	0.697179	0.396001
C120	C	1.593431	1.030512	0.729335
N121	N	0.920627	0.128022	0.278576
N122	N	1.253960	0.461356	0.611910
N123	N	1.587293	0.794689	0.945243
N124	N	0.941378	0.106036	-0.152695
N125	N	1.274711	0.439369	0.180638
N126	N	1.608044	0.772702	0.513971
C127	C	0.972140	0.073282	0.325750
C128	C	1.305474	0.406616	0.659083
C129	C	1.638807	0.739949	0.992416
C130	C	0.967962	0.077727	0.412874
C131	C	1.301295	0.411060	0.746207
C132	C	1.634629	0.744394	1.079541
C133	C	0.912273	0.136917	0.452824
C134	C	1.245606	0.470250	0.786158
C135	C	1.578939	0.803583	1.119491
C136	C	0.860753	0.191659	0.405645
C137	C	1.194087	0.524992	0.738978
C138	C	1.527420	0.858326	1.072311
C139	C	0.864929	0.187210	0.318521
C140	C	1.198262	0.520543	0.651855
C141	C	1.531595	0.853876	0.985188
C142	C	0.894034	0.156329	0.713002
C143	C	1.227367	0.489662	1.046335
C144	C	1.560701	0.822995	1.379669
C145	C	0.889864	0.160776	0.800132
C146	C	1.223197	0.494109	1.133465
C147	C	1.556531	0.827442	1.466798
C148	C	0.997072	0.046842	0.807355
C149	C	1.330405	0.380176	1.140688
C150	C	1.663739	0.713509	1.474022
C151	C	1.001246	0.042401	0.720230
C152	C	1.334579	0.375735	1.053563
C153	C	1.667912	0.709068	1.386897
C154	C	0.949724	0.097141	0.673058
C155	C	1.283057	0.430474	1.006391
C156	C	1.616390	0.763807	1.339725
N157	N	0.908002	0.141463	0.541879
N158	N	1.241335	0.474796	0.875213
N159	N	1.574668	0.808130	1.208546
N160	N	0.953991	0.092590	0.584004
N161	N	1.287325	0.425923	0.917337
N162	N	1.620658	0.759256	1.250671
H163	H	0.176807	0.106258	-0.057786
H164	H	0.510140	0.439591	0.275547
H165	H	0.843474	0.772925	0.608880
H166	H	0.844513	0.208978	0.832654
H167	H	1.177846	0.542312	1.165988
H168	H	1.511179	0.875645	1.499321
O169	O	1.016462	-0.461665	-0.076424
O170	O	1.349796	-0.128332	0.256910
O171	O	1.683129	0.205002	0.590243
H172	H	0.975915	-0.496050	-0.116790
H173	H	1.309248	-0.162716	0.216544
H174	H	1.642582	0.170617	0.549877
H175	H	0.791640	-0.416131	0.053436
H176	H	1.124973	-0.082797	0.386769
H177	H	1.458306	0.250536	0.720102
H178	H	1.070294	-0.349622	0.072282
H179	H	1.403627	-0.016289	0.405615
H180	H	1.736961	0.317044	0.738949
O181	O	0.322683	0.124638	0.246744
O182	O	0.656017	0.457972	0.580077
O183	O	0.989350	0.791305	0.913411
H184	H	0.387360	0.125363	0.238398
H185	H	0.720693	0.458696	0.571731
H186	H	1.054027	0.792030	0.905065
O187	O	1.023522	0.018690	0.463760
O188	O	1.356855	0.352023	0.797094
O189	O	1.690189	0.685356	1.130427
H190	H	1.059905	0.056193	0.506037
H191	H	1.393238	0.389527	0.839370
H192	H	1.726571	0.722860	1.172704
H193	H	0.856653	-0.314593	0.184233
H194	H	1.189986	0.018740	0.517567
H195	H	1.523319	0.352074	0.850900
H196	H	0.698361	0.113842	-0.090121
H197	H	1.031694	0.447175	0.243213
H198	H	1.365027	0.780509	0.576546
H199	H	0.852084	0.200901	0.674601
H200	H	1.185417	0.534234	1.007935
H201	H	1.518751	0.867568	1.341268
H202	H	1.046592	-0.005795	0.687705
H203	H	1.379925	0.327538	1.021038
H204	H	1.713259	0.660871	1.354371
O205	O	1.002531	-0.446864	0.212886
O206	O	1.335865	-0.113531	0.546219
O207	O	1.669198	0.219802	0.879552
H208	H	1.065151	-0.433084	0.216968
H209	H	1.398484	-0.099751	0.550301
H210	H	1.731818	0.233583	0.883634
H211	H	0.868777	-0.327604	-0.067741
H212	H	1.202110	0.005729	0.265593
H213	H	1.535444	0.339063	0.598926
O214	O	0.695098	0.129059	0.204330
O215	O	1.028431	0.462392	0.537663
O216	O	1.361764	0.795726	0.870996
H217	H	0.725332	0.187245	0.209997
H218	H	1.058665	0.520578	0.543330
H219	H	1.391998	0.853911	0.876664
O220	O	1.032203	0.009439	0.282661
O221	O	1.365536	0.342772	0.615994
O222	O	1.698869	0.676105	0.949327
H223	H	1.067315	-0.027885	0.330104
H224	H	1.400648	0.305449	0.663437
H225	H	1.733981	0.638782	0.996770
O226	O	1.052634	-0.012204	0.858230
O227	O	1.385967	0.321130	1.191564
O228	O	1.719301	0.654463	1.524897
H229	H	1.040373	0.000826	0.925524
H230	H	1.373706	0.334159	1.258857
H231	H	1.707040	0.667493	1.592191
O232	O	0.800689	0.255505	0.448727
O233	O	1.134023	0.588838	0.782061
O234	O	1.467356	0.922172	1.115394
H235	H	0.806446	0.249411	0.517236
H236	H	1.139779	0.582745	0.850569
H237	H	1.473113	0.916078	1.183902
O238	O	0.539324	0.109411	-0.120876
O239	O	0.872657	0.442744	0.212457
O240	O	1.205990	0.776077	0.545790
H241	H	0.549813	0.165095	-0.156469
H242	H	0.883146	0.498428	0.176865
H243	H	1.216480	0.831761	0.510198
H244	H	0.822980	0.231784	0.280114
H245	H	1.156313	0.565117	0.613447
H246	H	1.489646	0.898450	0.946780
H247	H	0.536060	0.124618	0.173576
H248	H	0.869393	0.457951	0.506910
H249	H	1.202727	0.791284	0.840243
H250	H	0.325939	0.109415	-0.047709
H251	H	0.659273	0.442749	0.285624
H252	H	0.992606	0.776082	0.618957
O253	O	0.151768	0.121435	0.235199
O254	O	0.485101	0.454769	0.568532
O255	O	0.818434	0.788102	0.901865
H256	H	0.088290	0.119579	0.218196
H257	H	0.421623	0.452912	0.551529
H258	H	0.754957	0.786246	0.884863
