data_functionalizedCrystal
_audit_creation_method	'MofGen! by Chris Wilmer'
_symmetry_space_group_name_H-M	'P1'
_symmetry_Int_Tables_number	1
_symmetry_cell_setting	triclinic
loop_
_symmetry_equiv_pos_as_xyz
  x,y,z
_cell_length_a	27.354012
_cell_length_b	27.353283
_cell_length_c	27.349551
_cell_angle_alpha	60.005606
_cell_angle_beta	60.011434
_cell_angle_gamma	59.993282
loop_
_atom_site_label
_atom_site_type_symbol
_atom_site_fract_x
_atom_site_fract_y
_atom_site_fract_z
O1	O	0.067635	-0.714267	0.597330
O2	O	0.025429	-0.556105	0.481282
O3	O	0.125575	-0.656186	0.481214
O4	O	-0.032512	-0.614186	0.597397
O5	O	0.158797	-0.622968	0.514367
O6	O	0.058650	-0.522887	0.514434
O7	O	0.100856	-0.681048	0.630482
Zn8	Zn	0.085028	-0.596693	0.577722
Zn9	Zn	0.041257	-0.640460	0.534042
O10	O	0.000709	-0.580967	0.630549
N11	N	0.114901	-0.566828	0.607534
N12	N	0.011389	-0.670331	0.504229
C13	C	0.179404	-0.338196	0.672015
C14	C	0.179501	-0.502386	0.836160
C15	C	0.179415	-0.502363	0.671996
C16	C	0.343611	-0.502373	0.671960
C17	C	0.197478	-0.392371	0.690061
C18	C	0.197534	-0.484321	0.781984
C19	C	0.289434	-0.484312	0.690032
C20	C	0.197486	-0.484308	0.690051
C21	C	0.156398	-0.269238	0.649045
C22	C	0.156418	-0.525342	0.649015
C23	C	0.220484	-0.461329	0.713032
C24	C	0.443889	-0.485097	0.619172
C25	C	0.506571	-0.505993	0.598266
C26	C	0.506589	-0.607412	0.636940
C27	C	0.443909	-0.586515	0.657848
C28	C	0.171510	-0.237888	0.587422
C29	C	0.150593	-0.175201	0.566543
C30	C	0.099458	-0.175218	0.668913
C31	C	0.120375	-0.237905	0.689792
C32	C	0.094789	-0.510201	0.664176
C33	C	0.073888	-0.531091	0.643278
C34	C	0.176239	-0.582263	0.592072
C35	C	0.197142	-0.561373	0.612963
C36	C	0.094933	-0.510244	0.936476
C37	C	0.074073	-0.531151	0.999161
C38	C	0.176453	-0.582335	0.999126
C39	C	0.197312	-0.561429	0.936439
C40	C	0.156551	-0.525382	0.905116
C41	C	0.412561	-0.525357	0.648961
C42	C	-0.098513	-0.688235	0.485867
C43	C	-0.006461	-0.688368	0.394066
C44	C	-0.006645	-0.780264	0.486040
C45	C	-0.006630	-0.688361	0.486097
C46	C	-0.029562	-0.711308	0.463018
N47	N	0.537030	-0.566846	0.607436
O48	O	0.741877	-0.576849	0.459995
O49	O	0.742050	-0.693241	0.618010
O50	O	0.741986	-0.692977	0.517791
O51	O	0.741941	-0.577114	0.560214
O52	O	0.642405	-0.659839	0.551046
O53	O	0.642469	-0.660104	0.651265
O54	O	0.642296	-0.543712	0.493251
Zn55	Zn	0.626572	-0.596646	0.577538
Zn56	Zn	0.757774	-0.640307	0.533723
O57	O	0.642360	-0.543976	0.593469
N58	N	0.847316	-0.670107	0.503818
N59	N	0.114877	-0.144758	0.607577
O60	O	-0.032498	0.060193	0.597441
O61	O	0.125523	0.060193	0.481067
O62	O	0.025289	0.060179	0.481345
O63	O	0.067736	0.060207	0.597163
O64	O	0.058511	-0.039410	0.514543
O65	O	0.158745	-0.039397	0.514265
O66	O	0.000724	-0.039396	0.630638
Zn67	Zn	0.085009	-0.055208	0.577722
Zn68	Zn	0.041238	0.076005	0.533983
O69	O	0.100958	-0.039382	0.630360
N70	N	0.011362	0.165555	0.504130
N71	N	0.115121	-0.566884	1.029592
O72	O	0.104990	-0.714248	1.234528
O73	O	-0.011371	-0.556177	1.234539
O74	O	-0.011103	-0.656395	1.234497
O75	O	0.104722	-0.614030	1.234569
O76	O	0.022090	-0.623190	1.134913
O77	O	0.021822	-0.522972	1.134954
O78	O	0.138182	-0.681044	1.134943
Zn79	Zn	0.085272	-0.596736	1.119137
Zn80	Zn	0.041539	-0.640484	1.250344
O81	O	0.137914	-0.580826	1.134984
N82	N	0.011689	-0.670343	1.339890
C83	C	0.038085	-0.519567	0.481870
C84	C	0.162104	-0.643505	0.481786
C85	C	0.088200	-0.717587	0.629893
C86	C	-0.035819	-0.593649	0.629977
C87	C	0.692280	-0.692701	0.654545
C88	C	0.692203	-0.692374	0.530435
C89	C	0.692063	-0.544251	0.456717
C90	C	0.692144	-0.544580	0.580825
C91	C	0.162000	0.010521	0.481600
C92	C	0.037914	0.010381	0.481984
C93	C	-0.035795	0.010399	0.630065
C94	C	0.088333	0.010415	0.629722
C95	C	-0.010799	-0.519660	1.184747
C96	C	-0.010461	-0.643761	1.184677
C97	C	0.137610	-0.717561	1.184734
C98	C	0.137280	-0.593452	1.184783
H99	H	0.023897	-0.518815	1.024687
H100	H	0.097420	0.010424	0.666105
C101	C	0.200127	-0.533079	1.133615
C102	C	0.186407	-0.581223	1.184800
H103	H	0.230459	-0.525533	1.133625
H104	H	0.165283	-0.498471	1.133621
H105	H	0.213955	-0.542590	1.098886
H106	H	0.172575	-0.571710	1.219529
H107	H	0.221259	-0.615838	1.184800
C108	C	0.202959	-0.805252	1.235933
C109	C	0.186931	-0.778845	1.184730
H110	H	0.233410	-0.843085	1.235927
H111	H	0.168934	-0.810491	1.270646
H112	H	0.217412	-0.780093	1.235945
H113	H	0.172473	-0.804002	1.184720
H114	H	0.220962	-0.773609	1.150008
H115	H	0.692221	-0.728771	0.521355
C116	C	-0.111341	-0.458281	1.184720
C117	C	-0.060118	-0.458374	1.184746
H118	H	-0.141785	-0.420444	1.184715
H119	H	-0.125066	-0.488738	1.219438
H120	H	-0.101910	-0.465589	1.149983
H121	H	-0.069548	-0.451071	1.219486
H122	H	-0.046390	-0.427908	1.150025
H123	H	0.418403	-0.619300	0.682106
H124	H	0.029071	-0.474132	0.445424
C125	C	0.691977	-0.516241	0.358376
C126	C	0.691988	-0.494917	0.395458
H127	H	0.691934	-0.485784	0.320557
H128	H	0.657272	-0.527142	0.376306
H129	H	0.726724	-0.550254	0.353111
H130	H	0.657239	-0.460906	0.400727
H131	H	0.726697	-0.484007	0.377524
H132	H	-0.046832	-0.652809	1.184615
H133	H	-0.081177	0.010398	0.666600
C134	C	-0.008364	-0.461749	0.942814
C135	C	0.050125	-0.470620	0.902048
H136	H	-0.036026	-0.437291	0.921558
H137	H	-0.014370	-0.442615	0.967264
H138	H	-0.014366	-0.499326	0.967260
H139	H	0.056127	-0.433043	0.877605
H140	H	0.056133	-0.489752	0.877588
C141	C	-0.123564	-0.622356	0.695299
C142	C	-0.097116	-0.581566	0.679231
H143	H	-0.161407	-0.614892	0.725704
H144	H	-0.098446	-0.661981	0.709823
H145	H	-0.128783	-0.617849	0.661267
H146	H	-0.091893	-0.586076	0.713262
H147	H	-0.122240	-0.541931	0.664708
C148	C	0.279749	-0.630831	0.992793
C149	C	0.221259	-0.621957	1.033556
H150	H	0.307409	-0.655300	1.014051
H151	H	0.285756	-0.593261	0.968355
H152	H	0.285752	-0.649960	0.968335
H153	H	0.215255	-0.602824	1.058011
H154	H	0.215250	-0.659533	1.058005
H155	H	0.247489	-0.573760	0.910909
C156	C	0.066394	-0.040833	0.416800
C157	C	0.025665	0.010366	0.432858
H158	H	0.058836	-0.040841	0.386468
H159	H	0.061934	-0.075552	0.450855
H160	H	0.106035	-0.040824	0.402178
H161	H	-0.013976	0.010354	0.447484
H162	H	0.030120	0.045094	0.398797
C163	C	0.692354	-0.720707	0.752889
C164	C	0.692345	-0.742032	0.715807
H165	H	0.692398	-0.751165	0.790708
H166	H	0.657613	-0.686697	0.758152
H167	H	0.727065	-0.709807	0.734958
H168	H	0.657632	-0.752928	0.733736
H169	H	0.727090	-0.776053	0.710546
H170	H	0.023705	-0.518748	0.655609
C171	C	0.013966	-0.418340	0.672449
C172	C	0.050023	-0.470589	0.703796
H173	H	-0.013669	-0.393884	0.696909
H174	H	-0.007299	-0.428618	0.662178
H175	H	0.038413	-0.397079	0.637006
H176	H	0.025575	-0.491852	0.739237
H177	H	0.071289	-0.460311	0.714075
C178	C	0.279515	-0.630750	0.543554
C179	C	0.221009	-0.621873	0.552445
H180	H	0.307151	-0.655199	0.519087
H181	H	0.285555	-0.649896	0.581117
H182	H	0.285520	-0.593175	0.524420
H183	H	0.215002	-0.659448	0.571583
H184	H	0.214967	-0.602728	0.514875
H185	H	0.207509	-0.652460	0.445301
C186	C	0.692070	-0.444070	0.542068
C187	C	0.692130	-0.495443	0.593073
H188	H	0.692066	-0.413738	0.549629
H189	H	0.657328	-0.430254	0.532592
H190	H	0.726781	-0.453377	0.509393
H191	H	0.657417	-0.486137	0.625746
H192	H	0.726875	-0.509261	0.602556
H193	H	0.097215	-0.763020	0.666340
H194	H	0.207290	0.010797	0.444973
H195	H	0.532110	-0.657210	0.644171
C196	C	0.274634	-0.552069	0.622252
C197	C	0.264886	-0.578014	0.596301
H198	H	0.316456	-0.562341	0.611962
H199	H	0.257053	-0.566494	0.664542
H200	H	0.257013	-0.509773	0.607844
H201	H	0.282504	-0.620311	0.610713
H202	H	0.282475	-0.563592	0.554003
C203	C	0.525836	-0.419436	0.514175
C204	C	0.541014	-0.461740	0.565515
H205	H	0.547103	-0.392119	0.493952
H206	H	0.484024	-0.398239	0.525358
H207	H	0.536097	-0.439262	0.488391
H208	H	0.530749	-0.441914	0.591301
H209	H	0.582835	-0.482939	0.554332
C210	C	0.347794	-0.408024	0.634042
C211	C	0.409429	-0.417870	0.609406
H212	H	0.326523	-0.366521	0.628008
H213	H	0.337542	-0.429875	0.675721
H214	H	0.337518	-0.420992	0.615097
H215	H	0.419706	-0.404906	0.628355
H216	H	0.419686	-0.396011	0.567719
C217	C	0.179721	-0.257175	0.506608
C218	C	0.211103	-0.272329	0.542632
H219	H	0.204164	-0.278442	0.478960
H220	H	0.169431	-0.215359	0.485356
H221	H	0.144288	-0.267456	0.531078
H222	H	0.246534	-0.262043	0.518162
H223	H	0.221402	-0.314154	0.563885
C224	C	0.198536	-0.104688	0.483661
C225	C	0.167202	-0.140736	0.498803
H226	H	0.208785	-0.083410	0.441841
H227	H	0.233986	-0.129141	0.493925
H228	H	0.174082	-0.077056	0.504942
H229	H	0.191658	-0.168370	0.477525
H230	H	0.131746	-0.116280	0.488533
C231	C	0.051025	-0.181531	0.772201
C232	C	0.059865	-0.140773	0.713701
H233	H	0.026578	-0.160266	0.799851
H234	H	0.088603	-0.205976	0.778205
H235	H	0.031889	-0.205984	0.778223
H236	H	0.079005	-0.116323	0.707678
H237	H	0.022280	-0.116317	0.707695
H238	H	0.108067	-0.263426	0.739970
