data_functionalizedCrystal
_audit_creation_method	'MofGen! by Chris Wilmer'
_symmetry_space_group_name_H-M	'P1'
_symmetry_Int_Tables_number	1
_symmetry_cell_setting	triclinic
loop_
_symmetry_equiv_pos_as_xyz
  x,y,z
_cell_length_a	13.635800
_cell_length_b	13.563541
_cell_length_c	19.551833
_cell_angle_alpha	69.548046
_cell_angle_beta	101.663477
_cell_angle_gamma	75.295376
loop_
_atom_site_label
_atom_site_type_symbol
_atom_site_fract_x
_atom_site_fract_y
_atom_site_fract_z
V1	V	2.018080	-0.154939	0.247730
O2	O	1.996521	0.006246	0.212507
O3	O	2.008450	-0.306064	0.275377
O4	O	1.989248	-0.153082	0.342387
O5	O	2.015856	-0.147795	0.145032
V6	V	2.258606	-0.135597	0.231882
O7	O	2.151419	-0.197367	0.282494
O8	O	2.350366	-0.093169	0.197119
O9	O	2.156632	0.015529	0.204235
O10	O	2.338863	-0.296782	0.267106
O11	O	2.319528	-0.142740	0.334580
O12	O	2.175835	-0.137454	0.137225
V13	V	2.518080	-0.154939	0.247730
O14	O	2.496521	0.006246	0.212507
O15	O	2.508450	-0.306064	0.275377
O16	O	2.489248	-0.153082	0.342387
O17	O	2.515856	-0.147795	0.145032
V18	V	2.758606	-0.135597	0.231882
O19	O	2.651419	-0.197367	0.282494
O20	O	2.850366	-0.093169	0.197119
O21	O	2.656632	0.015529	0.204235
O22	O	2.838863	-0.296782	0.267106
O23	O	2.819528	-0.142740	0.334580
O24	O	2.675835	-0.137454	0.137225
C25	C	1.934645	-0.342889	0.279040
C26	C	1.967384	-0.466440	0.302276
C27	C	1.984921	-0.749846	0.099308
C28	C	1.954153	-0.633764	0.077475
C29	C	1.957460	-0.591927	0.133673
C30	C	1.991536	-0.666184	0.211708
C31	C	2.022298	-0.782278	0.233543
C32	C	1.994837	-0.624358	0.267908
C33	C	2.028914	-0.698616	0.345943
C34	C	2.059673	-0.814698	0.367774
C35	C	2.056367	-0.856535	0.311576
C36	C	1.964075	-0.508265	0.246074
C37	C	2.001453	-0.540696	0.380309
C38	C	2.032220	-0.656779	0.402142
C39	C	1.910150	-0.147743	0.364517
C40	C	1.927315	-0.147224	0.442093
C41	C	2.062109	0.052348	0.200571
C42	C	2.018989	0.175897	0.177341
C43	C	2.086604	-0.142796	0.115092
C44	C	2.059058	-0.143309	0.037515
C45	C	2.434645	-0.342889	0.279040
C46	C	2.467384	-0.466440	0.302276
C47	C	2.410150	-0.147743	0.364517
C48	C	2.427315	-0.147224	0.442093
C49	C	2.026804	-0.152560	0.483169
C50	C	2.042932	-0.152073	0.556060
C51	C	1.959573	-0.146273	0.587878
C52	C	1.860068	-0.140930	0.546790
C53	C	1.843939	-0.141406	0.473898
C54	C	1.933998	-0.206704	0.718841
C55	C	1.950132	-0.206235	0.791734
C56	C	2.009314	-0.144799	0.812700
C57	C	2.052381	-0.083848	0.760770
C58	C	2.036252	-0.084324	0.687877
C59	C	1.977051	-0.145755	0.666917
C60	C	2.126297	-0.149605	0.932813
C61	C	2.142420	-0.149111	1.005702
C62	C	1.959556	-0.137980	0.996435
C63	C	1.943433	-0.138463	0.923543
C64	C	2.026809	-0.144281	0.891738
C65	C	2.562109	0.052348	0.200571
C66	C	2.518989	0.175897	0.177341
C67	C	2.586604	-0.142796	0.115092
C68	C	2.559058	-0.143309	0.037515
C69	C	2.574209	-0.530146	0.317775
C70	C	2.604988	-0.646238	0.339619
C71	C	2.528940	-0.698621	0.345958
C72	C	2.422107	-0.634907	0.330459
C73	C	2.391330	-0.518818	0.308621
C74	C	2.526808	-0.152541	0.483157
C75	C	2.542946	-0.152040	0.556044
C76	C	2.459592	-0.146229	0.587867
C77	C	2.360090	-0.140908	0.546797
C78	C	2.343951	-0.141402	0.473909
C79	C	2.584658	0.239603	0.161844
C80	C	2.544151	0.355694	0.140003
C81	C	2.437976	0.408076	0.133666
C82	C	2.372302	0.344363	0.149163
C83	C	2.412808	0.228275	0.170997
C84	C	2.460179	-0.149107	0.005707
C85	C	2.434278	-0.149576	-0.067189
C86	C	2.507260	-0.144255	-0.108273
C87	C	2.606145	-0.138453	-0.076461
C88	C	2.632042	-0.137976	-0.003569
H89	H	1.936330	-0.447815	0.182537
H90	H	1.932402	-0.497406	0.115892
N91	N	1.917340	-0.553672	-0.006687
H92	H	1.919895	-0.597786	-0.038977
H93	H	1.965911	-0.508624	-0.015593
N94	N	2.276103	-0.450111	0.291889
H95	H	2.268132	-0.368618	0.277089
H96	H	2.254251	-0.478951	0.339345
N97	N	2.616716	-0.158785	0.448838
H98	H	2.591408	-0.158289	0.396431
H99	H	2.679487	-0.230377	0.483739
N100	N	2.249729	-0.154869	1.050016
H101	H	2.240484	-0.085663	1.060327
H102	H	2.300046	-0.158669	1.018775
H103	H	2.194186	-0.154339	0.906914
N104	N	2.650266	-0.157774	0.600330
H105	H	2.700618	-0.161540	0.569109
H106	H	2.680964	-0.227064	0.650918
N107	N	2.562141	-0.823828	0.369497
H108	H	2.497759	-0.847354	0.371159
H109	H	2.618188	-0.864959	0.422181
H110	H	2.472748	-0.145828	0.647218
N111	N	1.836131	-0.132735	0.879244
H112	H	1.838562	-0.133917	0.828240
H113	H	1.779006	-0.060967	0.869826
H114	H	1.915070	-0.255873	0.834013
H115	H	2.081425	-0.951058	0.329348
N116	N	2.257792	0.400862	0.142339
H117	H	2.207938	0.389221	0.102501
H118	H	2.242207	0.484046	0.126188
N119	N	1.869664	-0.131793	1.030765
H120	H	1.804195	-0.128511	0.993686
H121	H	1.852327	-0.062115	1.040689
N122	N	2.340085	-0.691408	0.337284
H123	H	2.282058	-0.657698	0.285835
H124	H	2.307527	-0.679748	0.377148
N125	N	2.270193	-0.134642	0.581126
H126	H	2.295527	-0.135143	0.633532
H127	H	2.247470	-0.201558	0.586512
H128	H	2.262933	-0.137075	0.440481
N129	N	1.770155	-0.134699	0.581103
H130	H	1.707358	-0.063098	0.546261
H131	H	1.795554	-0.135264	0.633521
H132	H	2.400741	-0.153440	0.039148
N133	N	2.614999	0.424397	0.123306
H134	H	2.640309	0.417689	0.079471
H135	H	2.678868	0.395596	0.170794
H136	H	2.486165	-0.144657	-0.167621
N137	N	2.699177	0.183119	0.168677
H138	H	2.734618	0.241107	0.155541
H139	H	2.700404	0.146228	0.131893
H140	H	2.636144	-0.487511	0.312613
N141	N	2.394297	0.533285	0.110120
H142	H	2.452019	0.565685	0.101269
H143	H	2.370122	0.547903	0.152324
H144	H	2.359327	0.176412	0.183620
N145	N	2.327623	-0.155834	-0.101491
H146	H	2.285330	-0.159144	-0.064397
H147	H	2.339762	-0.225528	-0.111399
N148	N	2.684853	-0.132706	-0.120779
H149	H	2.653434	-0.133891	-0.171779
H150	H	2.753533	-0.199451	-0.089930
N151	N	2.738698	-0.131725	0.030728
H152	H	2.798378	-0.198632	0.036145
H153	H	2.743949	-0.132191	0.083119
N154	N	1.981447	-0.795017	0.038727
H155	H	1.931223	-0.838631	0.041668
H156	H	2.055632	-0.846254	0.047999
N157	N	2.096411	-0.894791	0.451937
H158	H	2.093840	-0.850677	0.484227
H159	H	2.172174	-0.947526	0.467034
H160	H	2.059968	-0.717255	0.465679
H161	H	2.004144	-0.506634	0.426070
H162	H	2.094695	-0.157293	0.457277
H163	H	2.071317	-0.034693	0.645597
N164	N	2.150250	-0.157843	0.600377
H165	H	2.147815	-0.156661	0.651381
H166	H	2.167353	-0.091107	0.569530
N167	N	2.116222	-0.017585	0.783372
H168	H	2.119903	-0.026525	0.837426
H169	H	2.080431	0.064541	0.746417
H170	H	1.885793	-0.256725	0.701775
H171	H	1.762920	-0.137053	0.440451
H172	H	2.691980	-0.698099	0.352233
