data_functionalizedCrystal
_audit_creation_method	'MofGen! by Chris Wilmer'
_symmetry_space_group_name_H-M	'P1'
_symmetry_Int_Tables_number	1
_symmetry_cell_setting	triclinic
loop_
_symmetry_equiv_pos_as_xyz
  x,y,z
_cell_length_a	11.169417
_cell_length_b	12.645330
_cell_length_c	11.169409
_cell_angle_alpha	89.967722
_cell_angle_beta	89.980176
_cell_angle_gamma	90.018570
loop_
_atom_site_label
_atom_site_type_symbol
_atom_site_fract_x
_atom_site_fract_y
_atom_site_fract_z
Zn1	Zn	1.834901	-0.421929	-0.678543
Zn2	Zn	2.334901	0.078071	-0.178543
Zn3	Zn	1.834765	-0.599240	-0.477860
Zn4	Zn	2.334765	-0.099240	0.022140
Zn5	Zn	1.634187	-0.421993	-0.477878
Zn6	Zn	2.134187	0.078007	0.022122
Zn7	Zn	1.634169	-0.599153	-0.678505
Zn8	Zn	2.134169	-0.099153	-0.178505
O9	O	1.734505	-0.510579	-0.578197
O10	O	2.234505	-0.010579	-0.078197
O11	O	2.002833	-0.445458	-0.651931
O12	O	2.502833	0.054542	-0.151931
O13	O	1.808108	-0.575791	-0.309913
O14	O	2.308108	-0.075791	0.190087
O15	O	1.660877	-0.273637	-0.504519
O16	O	2.160877	0.226363	-0.004519
O17	O	2.002732	-0.575728	-0.504490
O18	O	2.502732	-0.075728	-0.004490
O19	O	1.808341	-0.273590	-0.651948
O20	O	2.308341	0.226410	-0.151948
O21	O	1.660745	-0.445569	-0.309925
O22	O	2.160745	0.054431	0.190075
O23	O	1.466235	-0.445485	-0.504483
O24	O	1.966235	0.054515	-0.004483
O25	O	1.660846	-0.575581	-0.846460
O26	O	2.160846	-0.075581	-0.346460
O27	O	1.466221	-0.575644	-0.651883
O28	O	1.966221	-0.075644	-0.151883
O29	O	1.808323	-0.445375	-0.846488
O30	O	2.308323	0.054625	-0.346488
O31	O	1.808090	-0.747575	-0.504453
O32	O	2.308090	-0.247575	-0.004453
O33	O	1.660713	-0.747512	-0.651866
O34	O	2.160713	-0.247512	-0.151866
C35	C	1.422681	-0.510563	-0.578181
C36	C	1.922681	-0.010563	-0.078181
C37	C	1.289281	-0.510581	-0.578203
C38	C	1.789281	-0.010581	-0.078203
C39	C	1.734418	-0.786008	-0.578180
C40	C	2.234418	-0.286008	-0.078180
C41	C	1.734490	-0.903838	-0.578213
C42	C	2.234490	-0.403838	-0.078213
C43	C	1.642158	-1.071407	-0.671236
C44	C	2.142158	-0.571407	-0.171236
C45	C	1.641685	-0.948847	-0.670937
C46	C	2.141685	-0.448847	-0.170937
C47	C	1.700247	-0.948447	-0.451730
C48	C	2.200247	-0.448447	0.048270
C49	C	1.699683	-1.071046	-0.452295
C50	C	2.199683	-0.571046	0.047705
C51	C	1.861631	-1.070922	-0.610646
C52	C	2.361631	-0.570922	-0.110646
C53	C	1.860852	-0.948315	-0.613412
C54	C	2.360852	-0.448315	-0.113412
C55	C	2.047548	-0.510596	-0.578213
C56	C	2.547548	-0.010596	-0.078213
C57	C	2.180948	-0.510603	-0.578220
C58	C	2.680948	-0.010603	-0.078220
C59	C	1.734597	-0.510461	-0.891239
C60	C	2.234597	-0.010461	-0.391239
C61	C	1.734637	-0.510411	-1.024639
C62	C	2.234637	-0.010411	-0.524639
C63	C	1.734626	-0.234073	-0.578240
C64	C	2.234626	0.265927	-0.078240
C65	C	1.734677	-0.116243	-0.578258
C66	C	2.234677	0.383757	-0.078258
C67	C	1.734483	-0.510619	-0.266372
C68	C	2.234483	-0.010619	0.233628
C69	C	1.734676	-0.510371	-0.132972
C70	C	2.234676	-0.010371	0.367028
H71	H	1.663110	-0.918682	-0.764723
H72	H	2.163110	-0.418682	-0.264723
C73	C	1.788388	-0.909059	-0.355579
C74	C	2.288388	-0.409059	0.144421
N75	N	1.854776	-0.879387	-0.283159
N76	N	2.354776	-0.379387	0.216841
C77	C	1.670826	-1.111134	-0.798355
C78	C	2.170826	-0.611134	-0.298355
N79	N	1.692419	-1.141067	-0.894104
N80	N	2.192419	-0.641067	-0.394104
C81	C	1.903826	-1.112569	-0.733133
C82	C	2.403826	-0.612569	-0.233133
N83	N	1.935594	-1.143937	-0.825396
N84	N	2.435594	-0.643937	-0.325396
C85	C	1.786755	-1.111124	-0.355505
C86	C	2.286755	-0.611124	0.144495
N87	N	1.852329	-1.141307	-0.282597
N88	N	2.352329	-0.641307	0.217403
H89	H	1.886676	-0.919154	-0.706497
H90	H	2.386676	-0.419154	-0.206497
C91	C	1.958883	-0.906921	-0.528583
C92	C	2.458883	-0.406921	-0.028583
N93	N	2.032717	-0.875744	-0.464679
N94	N	2.532717	-0.375744	0.035321
H95	H	1.930560	-1.099917	-0.542926
H96	H	2.430560	-0.599917	-0.042926
H97	H	1.547568	-0.919616	-0.649480
H98	H	2.047568	-0.419616	-0.149480
H99	H	1.548628	-1.102311	-0.650053
H100	H	2.048628	-0.602311	-0.150053
H101	H	1.606879	-1.099742	-0.424857
H102	H	2.106879	-0.599742	0.075143
H103	H	1.608410	-0.917841	-0.423796
H104	H	2.108410	-0.417841	0.076204
