data_functionalizedCrystal
_audit_creation_method	'MofGen! by Chris Wilmer'
_symmetry_space_group_name_H-M	'P1'
_symmetry_Int_Tables_number	1
_symmetry_cell_setting	triclinic
loop_
_symmetry_equiv_pos_as_xyz
  x,y,z
_cell_length_a	17.699097
_cell_length_b	10.654551
_cell_length_c	16.176319
_cell_angle_alpha	89.996057
_cell_angle_beta	89.988988
_cell_angle_gamma	83.886896
loop_
_atom_site_label
_atom_site_type_symbol
_atom_site_fract_x
_atom_site_fract_y
_atom_site_fract_z
O1	O	1.005083	0.158888	-0.068810
O2	O	1.505083	0.658888	0.431190
O3	O	0.784837	0.179532	-0.068796
O4	O	1.284837	0.679532	0.431204
O5	O	0.900024	-0.013617	-0.068804
O6	O	1.400024	0.486383	0.431196
O7	O	0.889897	0.352038	-0.068802
O8	O	1.389897	0.852038	0.431198
O9	O	0.900007	-0.013629	0.068689
O10	O	1.400007	0.486371	0.568689
O11	O	0.784821	0.179520	0.068697
O12	O	1.284821	0.679520	0.568697
O13	O	1.005067	0.158876	0.068683
O14	O	1.505067	0.658876	0.568683
Cu15	Cu	0.894943	0.169197	0.081244
Cu16	Cu	1.394943	0.669197	0.581244
Cu17	Cu	0.894962	0.169211	-0.081357
Cu18	Cu	1.394962	0.669211	0.418643
O19	O	0.889881	0.352025	0.068691
O20	O	1.389881	0.852025	0.568691
C21	C	0.756628	0.178783	-0.000048
C22	C	1.256628	0.678783	0.499952
C23	C	0.672596	0.176556	-0.000043
C24	C	1.172596	0.676556	0.499957
C25	C	0.156800	0.162908	-0.075024
C26	C	0.656800	0.662908	0.424976
C27	C	0.235757	0.164993	-0.075019
C28	C	0.735757	0.664993	0.424981
C29	C	0.275221	0.166030	-0.000069
C30	C	0.775221	0.666030	0.499931
C31	C	0.235724	0.164970	0.074883
C32	C	0.735724	0.664970	0.574883
C33	C	0.156769	0.162877	0.074878
C34	C	0.656769	0.662877	0.574878
C35	C	0.554142	0.173412	0.074905
C36	C	1.054142	0.673412	0.574905
C37	C	0.633102	0.175509	0.074904
C38	C	1.133102	0.675509	0.574904
C39	C	0.633130	0.175527	-0.074993
C40	C	1.133130	0.675527	0.425007
C41	C	0.554175	0.173434	-0.074998
C42	C	1.054175	0.673434	0.425002
C43	C	0.514685	0.172367	-0.000047
C44	C	1.014685	0.672367	0.499953
C45	C	0.429071	0.170105	-0.000052
C46	C	0.929071	0.670105	0.499948
C47	C	0.360833	0.168302	-0.000062
C48	C	0.860833	0.668302	0.499938
C49	C	0.899272	-0.060408	-0.000059
C50	C	1.399272	0.439592	0.499941
C51	C	0.897047	-0.199813	-0.000065
C52	C	1.397047	0.300187	0.499935
C53	C	0.896012	-0.265300	-0.075011
C54	C	1.396012	0.234700	0.424989
C55	C	0.893914	-0.396284	-0.075007
C56	C	1.393914	0.103716	0.424993
C57	C	0.893890	-0.396282	0.074896
C58	C	1.393890	0.103718	0.574896
C59	C	0.895982	-0.265300	0.074891
C60	C	1.395982	0.234700	0.574891
C61	C	0.897076	-0.199813	-0.149966
C62	C	1.397076	0.300187	0.350034
C63	C	0.896042	-0.265300	-0.224918
C64	C	1.396042	0.234700	0.275082
C65	C	0.893944	-0.396284	-0.224914
C66	C	1.393944	0.103716	0.275086
C67	C	0.892881	-0.461780	-0.149958
C68	C	1.392881	0.038220	0.350042
C69	C	1.033276	0.159625	-0.000067
C70	C	1.533276	0.659625	0.499933
C71	C	1.117308	0.161852	-0.000078
C72	C	1.617308	0.661852	0.499922
C73	C	0.890632	0.398816	-0.000056
C74	C	1.390632	0.898816	0.499944
C75	C	0.892858	0.538221	-0.000056
C76	C	1.392858	1.038221	0.499944
N77	N	0.894935	0.169186	0.195609
N78	N	1.394935	0.669186	0.695609
N79	N	0.894975	0.169212	-0.195723
N80	N	1.394975	0.669212	0.304277
C81	C	0.945955	0.083694	0.238870
C82	C	1.445955	0.583694	0.738870
C83	C	0.945959	0.083693	0.325417
C84	C	1.445959	0.583693	0.825417
C85	C	0.894945	0.169190	0.368702
C86	C	1.394945	0.669190	0.868702
C87	C	0.843920	0.254686	0.325435
C88	C	1.343920	0.754686	0.825435
C89	C	0.843913	0.254680	0.238890
C90	C	1.343913	0.754680	0.738890
C91	C	0.843946	0.254709	0.674464
C92	C	1.343946	0.754709	1.174464
C93	C	0.843958	0.254711	0.761015
C94	C	1.343958	0.754711	1.261015
C95	C	0.945992	0.083722	0.760991
C96	C	1.445992	0.583722	1.260991
C97	C	0.945985	0.083716	0.674446
C98	C	1.445985	0.583716	1.174446
C99	C	0.894957	0.169207	0.631186
C100	C	1.394957	0.669207	1.131186
C101	C	0.894952	0.169206	0.537342
C102	C	1.394952	0.669206	1.037342
C103	C	0.894953	0.169198	0.462545
C104	C	1.394953	0.669198	0.962545
H105	H	0.267908	0.165845	-0.136048
H106	H	0.767908	0.665845	0.363952
H107	H	0.522047	0.172595	-0.136030
H108	H	1.022047	0.672595	0.363970
F109	F	0.789641	0.345697	0.628430
F110	F	1.289641	0.845697	1.128430
H111	H	0.896809	-0.211975	0.135919
H112	H	1.396809	0.288025	0.635919
F113	F	0.114806	0.161813	-0.154798
F114	F	0.614806	0.661813	0.345202
F115	F	0.899311	-0.060410	-0.149977
F116	F	1.399311	0.439590	0.350023
H117	H	0.893025	-0.449620	0.135922
H118	H	1.393025	0.050380	0.635922
F119	F	0.277727	0.166071	0.154652
F120	F	0.777727	0.666071	0.654652
H121	H	0.896900	-0.211963	-0.285945
H122	H	1.396900	0.288037	0.214055
H123	H	0.802380	0.324295	0.360683
H124	H	1.302380	0.824295	0.860683
H125	H	0.891162	-0.568434	-0.149961
H126	H	1.391162	-0.068434	0.350039
F127	F	0.789608	0.345669	0.192850
F128	F	1.289608	0.845669	0.692850
F129	F	1.000299	-0.007270	0.807037
F130	F	1.500299	0.492730	1.307037
F131	F	0.675164	0.176654	-0.154763
F132	F	1.175164	0.676654	0.345237
H133	H	0.987527	0.014101	0.639206
H134	H	1.487527	0.514101	1.139206
F135	F	1.000255	-0.007300	0.192811
F136	F	1.500255	0.492700	0.692811
H137	H	0.987503	0.014078	0.360640
H138	H	1.487503	0.514078	0.860640
H139	H	0.802414	0.324336	0.796256
H140	H	1.302414	0.824336	1.296256
H141	H	0.665232	0.176354	0.135942
H142	H	1.165232	0.676354	0.635942
H143	H	0.124615	0.162030	0.135907
H144	H	0.624615	0.662030	0.635907
F145	F	0.512123	0.172303	0.154675
F146	F	1.012123	0.672303	0.654675
F147	F	0.892836	-0.465975	-0.304683
F148	F	1.392836	0.034025	0.195317
