data_functionalizedCrystal
_audit_creation_method	'MofGen! by Chris Wilmer'
_symmetry_space_group_name_H-M	'P1'
_symmetry_Int_Tables_number	1
_symmetry_cell_setting	triclinic
loop_
_symmetry_equiv_pos_as_xyz
  x,y,z
_cell_length_a	19.077105
_cell_length_b	12.759400
_cell_length_c	19.077174
_cell_angle_alpha	92.275311
_cell_angle_beta	85.483752
_cell_angle_gamma	87.711168
loop_
_atom_site_label
_atom_site_type_symbol
_atom_site_fract_x
_atom_site_fract_y
_atom_site_fract_z
Zn1	Zn	1.093766	-0.510482	-0.441863
Zn2	Zn	1.088970	-0.678821	-0.323981
Zn3	Zn	0.971149	-0.495796	-0.319260
Zn4	Zn	0.975864	-0.678752	-0.437099
O5	O	1.032437	-0.590963	-0.380551
O6	O	1.191780	-0.538988	-0.430195
O7	O	1.069361	-0.648424	-0.224705
O8	O	0.987448	-0.350726	-0.335541
O9	O	1.188257	-0.662665	-0.343588
O10	O	1.077534	-0.361516	-0.425617
O11	O	0.982798	-0.513957	-0.221236
O12	O	0.873124	-0.513890	-0.330922
O13	O	0.995484	-0.662548	-0.536381
O14	O	0.876588	-0.648307	-0.417498
O15	O	1.082106	-0.538921	-0.539881
O16	O	1.073933	-0.825829	-0.338969
O17	O	0.990835	-0.825779	-0.422076
C18	C	0.849277	-0.579498	-0.373181
C19	C	0.770921	-0.574620	-0.370045
C20	C	0.735928	-0.642409	-0.413576
C21	C	0.662304	-0.637812	-0.410633
C22	C	0.623674	-0.565430	-0.364154
C23	C	0.658672	-0.497634	-0.320621
C24	C	0.732294	-0.502227	-0.323569
C25	C	0.403291	-0.544174	-0.350517
C26	C	0.329663	-0.539588	-0.347571
C27	C	0.333300	-0.679766	-0.437584
C28	C	0.406924	-0.684356	-0.440525
C29	C	0.441915	-0.616557	-0.396994
N30	N	0.548418	-0.560732	-0.361143
N31	N	0.517170	-0.621251	-0.400009
C32	C	1.032395	-0.863926	-0.380534
C33	C	1.032442	-0.980707	-0.380554
C34	C	1.075764	-1.035567	-0.337331
C35	C	1.075808	-1.145295	-0.337355
C36	C	0.989203	-1.145294	-0.423824
C37	C	0.989163	-1.035568	-0.423804
C38	C	1.119043	-0.980706	-0.294081
C39	C	1.162367	-1.035566	-0.250855
C40	C	1.162411	-1.145294	-0.250878
C41	C	1.119131	-1.200162	-0.294128
C42	C	1.216313	-0.602473	-0.387950
C43	C	1.294670	-0.607377	-0.391103
C44	C	1.039856	-0.602365	-0.564425
C45	C	1.043018	-0.607224	-0.642781
C46	C	1.032500	-0.316935	-0.380583
C47	C	1.032526	-0.200161	-0.380597
C48	C	0.999436	-0.539498	-0.677787
C49	C	1.002404	-0.544073	-0.751410
C50	C	1.048957	-0.616368	-0.790028
C51	C	1.092540	-0.684101	-0.755017
C52	C	1.089569	-0.679532	-0.681395
C53	C	1.062675	-0.637548	-1.010410
C54	C	1.065645	-0.642110	-1.084038
C55	C	0.975507	-0.502082	-1.080426
C56	C	0.972542	-0.497515	-1.006802
C57	C	1.016123	-0.565251	-0.971798
N58	N	1.051993	-0.621043	-0.865283
N59	N	1.013082	-0.560581	-0.896543
C60	C	1.025088	-0.579531	-0.197394
C61	C	1.022063	-0.574385	-0.119043
H62	H	0.298212	-0.480635	-0.309727
C63	C	1.200751	-0.867362	-0.212420
C64	C	1.209939	-0.975259	-0.203317
H65	H	1.230119	-0.830135	-0.183068
H66	H	1.212938	-0.852919	-0.260197
H67	H	1.152966	-0.845856	-0.200155
H68	H	1.257724	-0.996766	-0.215587
H69	H	1.197757	-0.989708	-0.155529
C70	C	0.421114	-0.486727	-0.232112
C71	C	0.441744	-0.469651	-0.302665
H72	H	0.444859	-0.440720	-0.202570
H73	H	0.371744	-0.473641	-0.223713
H74	H	0.432760	-0.557401	-0.222203
H75	H	0.430094	-0.398979	-0.312575
H76	H	0.491126	-0.482730	-0.311067
H77	H	1.197693	-1.189958	-0.215687
H78	H	0.934632	-0.438647	-0.975364
H79	H	0.767375	-0.701354	-0.451422
H80	H	1.130441	-0.742971	-0.786465
H81	H	0.940025	-0.446936	-1.108934
H82	H	0.760784	-0.447021	-0.288124
C83	C	0.490095	-0.831454	-0.453476
C84	C	0.449388	-0.763911	-0.491620
H85	H	0.516308	-0.880571	-0.485020
H86	H	0.521467	-0.791737	-0.427975
H87	H	0.460115	-0.867875	-0.421570
H88	H	0.479368	-0.727484	-0.523522
H89	H	0.418013	-0.803633	-0.517133
C90	C	0.222057	-0.734963	-0.473041
C91	C	0.294836	-0.754278	-0.485438
H92	H	0.198314	-0.780961	-0.502591
H93	H	0.208071	-0.746545	-0.425181
H94	H	0.210430	-0.664286	-0.482956
H95	H	0.306464	-0.824953	-0.475518
H96	H	0.308828	-0.742704	-0.533309
C97	C	1.166349	-1.357348	-0.247087
C98	C	1.119181	-1.320778	-0.294156
H99	H	1.166374	-1.431809	-0.247101
H100	H	1.212308	-1.336063	-0.261143
H101	H	1.152343	-1.328985	-0.201093
H102	H	1.133190	-1.349135	-0.340152
H103	H	1.073212	-1.342073	-0.280105
H104	H	1.119010	-0.891360	-0.294055
H105	H	0.627213	-0.438695	-0.282780
C106	C	0.883958	-0.486819	-0.769259
C107	C	0.954494	-0.469620	-0.789879
H108	H	0.854378	-0.440847	-0.793003
H109	H	0.874114	-0.557500	-0.780906
H110	H	0.875544	-0.473756	-0.719883
H111	H	0.962909	-0.482690	-0.839255
H112	H	0.964342	-0.398922	-0.778237
C113	C	0.954859	-0.470311	-0.563327
C114	C	0.948264	-0.460027	-0.635341
H115	H	0.923268	-0.421243	-0.537125
H116	H	0.944037	-0.539496	-0.550839
H117	H	1.001744	-0.457148	-0.553176
H118	H	0.901380	-0.473197	-0.645493
H119	H	0.959081	-0.390825	-0.647833
H120	H	0.953888	-0.990901	-0.459000
H121	H	1.103557	-0.700984	-1.115478
C122	C	1.152084	-0.776393	-1.021387
C123	C	1.110590	-0.711986	-0.971940
H124	H	1.181672	-0.822341	-0.997633
H125	H	1.122521	-0.816445	-1.048856
H126	H	1.180210	-0.734070	-1.051197
H127	H	1.082461	-0.754308	-0.942133
H128	H	1.140157	-0.671930	-0.944458
C129	C	0.950806	-1.313497	-0.462242
C130	C	0.941626	-1.205602	-0.471355
H131	H	0.921428	-1.350725	-0.491582
H132	H	0.998583	-1.335013	-0.474509
H133	H	0.938623	-1.327926	-0.414455
H134	H	0.953814	-1.191172	-0.519142
H135	H	0.893839	-1.184079	-0.459093
C136	C	1.178965	-0.818399	-0.692355
C137	C	1.137474	-0.753979	-0.642914
H138	H	1.208540	-0.864359	-0.668598
H139	H	1.149399	-0.858438	-0.719830
H140	H	1.207102	-0.776086	-0.722161
H141	H	1.109333	-0.796292	-0.613111
H142	H	1.167043	-0.713936	-0.615427
H143	H	0.633816	-0.693014	-0.446080
