data_functionalizedCrystal
_audit_creation_method	'MofGen! by Chris Wilmer'
_symmetry_space_group_name_H-M	'P1'
_symmetry_Int_Tables_number	1
_symmetry_cell_setting	triclinic
loop_
_symmetry_equiv_pos_as_xyz
  x,y,z
_cell_length_a	14.519709
_cell_length_b	12.996460
_cell_length_c	14.853559
_cell_angle_alpha	90.003953
_cell_angle_beta	83.655799
_cell_angle_gamma	89.999966
loop_
_atom_site_label
_atom_site_type_symbol
_atom_site_fract_x
_atom_site_fract_y
_atom_site_fract_z
O1	O	1.223817	0.085428	0.118181
O2	O	1.723817	0.585428	0.618181
O3	O	0.955334	0.085459	0.132099
O4	O	1.455334	0.585459	0.632099
O5	O	1.096751	0.085441	-0.006088
O6	O	1.596751	0.585441	0.493912
O7	O	1.082400	0.085445	0.256367
O8	O	1.582400	0.585445	0.756367
O9	O	1.096736	-0.085693	-0.006095
O10	O	1.596736	0.414307	0.493905
O11	O	0.955319	-0.085675	0.132091
O12	O	1.455319	0.414325	0.632091
O13	O	1.223802	-0.085706	0.118174
O14	O	1.723802	0.414294	0.618174
Cu15	Cu	1.089559	-0.101317	0.125132
Cu16	Cu	1.589559	0.398683	0.625132
Cu17	Cu	1.089577	0.101069	0.125141
Cu18	Cu	1.589577	0.601069	0.625141
O19	O	1.082385	-0.085689	0.256360
O20	O	1.582385	0.414311	0.756360
C21	C	0.920967	-0.000104	0.131446
C22	C	1.420967	0.499896	0.631446
C23	C	0.818587	-0.000092	0.129502
C24	C	1.318587	0.499908	0.629502
C25	C	0.443694	-0.000139	0.122347
C26	C	0.943694	0.499861	0.622347
C27	C	0.548001	-0.000126	0.124334
C28	C	1.048001	0.499874	0.624334
C29	C	0.631137	-0.000115	0.125925
C30	C	1.131137	0.499885	0.625925
C31	C	0.735451	-0.000103	0.127912
C32	C	1.235451	0.499897	0.627912
N33	N	1.089554	-0.243664	0.125125
N34	N	1.589554	0.256336	0.625125
C35	C	1.089576	-0.663478	0.125142
C36	C	1.589576	-0.163478	0.625142
C37	C	1.089567	-0.546673	0.125140
C38	C	1.589567	-0.046673	0.625140
C39	C	1.089565	-0.453575	0.125134
C40	C	1.589565	0.046425	0.625134
C41	C	1.089556	-0.336762	0.125131
C42	C	1.589556	0.163238	0.625131
C43	C	1.258169	-0.000141	0.118826
C44	C	1.758169	0.499859	0.618826
C45	C	1.360550	-0.000146	0.120770
C46	C	1.860550	0.499854	0.620770
C47	C	1.096095	-0.000124	-0.039681
C48	C	1.596095	0.499876	0.460319
C49	C	1.094151	-0.000118	-0.139765
C50	C	1.594151	0.499882	0.360235
N51	N	1.089590	0.243416	0.125140
N52	N	1.589590	0.743416	0.625140
C53	C	1.085910	0.093168	-0.562939
C54	C	1.585910	0.593168	-0.062939
C55	C	1.085894	-0.093408	-0.562942
C56	C	1.585894	0.406592	-0.062942
C57	C	1.087728	-0.093409	-0.468909
C58	C	1.587728	0.406591	0.031091
C59	C	1.088652	-0.000120	-0.421885
C60	C	1.588652	0.499880	0.078115
C61	C	1.087742	0.093170	-0.468896
C62	C	1.587742	0.593170	0.031104
C63	C	1.088629	-0.186698	-0.421889
C64	C	1.588629	0.313302	0.078111
C65	C	1.090463	-0.186703	-0.327849
C66	C	1.590463	0.313297	0.172151
C67	C	1.091394	-0.093412	-0.280826
C68	C	1.591394	0.406588	0.219174
C69	C	1.090484	-0.000118	-0.327842
C70	C	1.590484	0.499882	0.172158
C71	C	1.091408	0.093171	-0.280819
C72	C	1.591408	0.593171	0.219181
C73	C	1.090505	0.186466	-0.327835
C74	C	1.590505	0.686466	0.172165
C75	C	1.088672	0.186461	-0.421872
C76	C	1.588672	0.686461	0.078128
C77	C	1.093227	-0.093407	-0.186788
C78	C	1.593227	0.406593	0.313212
C79	C	1.093240	0.093173	-0.186776
C80	C	1.593240	0.593173	0.313224
C81	C	1.083041	-0.000122	0.289953
C82	C	1.583041	0.499878	0.789953
C83	C	1.084986	-0.000121	0.390037
C84	C	1.584986	0.499879	0.890037
H85	H	1.093997	0.169141	-0.148497
H86	H	1.593997	0.669141	0.351503
F87	F	1.091491	0.285748	-0.277779
F88	F	1.591491	0.785748	0.222221
F89	F	1.087628	-0.285976	-0.471936
F90	F	1.587628	0.214024	0.028064
F91	F	1.087715	0.285743	-0.471916
F92	F	1.587715	0.785743	0.028084
H93	H	1.085178	0.169127	-0.601224
H94	H	1.585178	0.669127	-0.101224
F95	F	1.094185	-0.192691	-0.136754
F96	F	1.594185	0.307309	0.363246
H97	H	1.085135	-0.169360	-0.601234
H98	H	1.585135	0.330640	-0.101234
F99	F	1.091420	-0.285994	-0.277820
F100	F	1.591420	0.214006	0.222180
