data_functionalizedCrystal
_audit_creation_method	'MofGen! by Chris Wilmer'
_symmetry_space_group_name_H-M	'P1'
_symmetry_Int_Tables_number	1
_symmetry_cell_setting	triclinic
loop_
_symmetry_equiv_pos_as_xyz
  x,y,z
_cell_length_a	10.654550
_cell_length_b	10.540539
_cell_length_c	9.130313
_cell_angle_alpha	90.000859
_cell_angle_beta	89.996220
_cell_angle_gamma	84.505197
loop_
_atom_site_label
_atom_site_type_symbol
_atom_site_fract_x
_atom_site_fract_y
_atom_site_fract_z
O1	O	1.667897	0.178295	-0.121912
O2	O	1.302424	0.195282	-0.121888
O3	O	1.493499	0.002079	-0.121899
O4	O	1.476823	0.371498	-0.121902
O5	O	1.493496	0.002084	0.121700
O6	O	1.302422	0.195287	0.121711
O7	O	1.667894	0.178300	0.121686
Cu8	Cu	1.485158	0.186794	0.143941
Cu9	Cu	1.485161	0.186788	-0.144143
O10	O	1.476820	0.371503	0.121697
C11	C	1.255625	0.194038	-0.000086
C12	C	1.116180	0.190306	-0.000077
C13	C	1.036734	0.304061	-0.000099
C14	C	0.905712	0.300547	-0.000124
C15	C	0.933595	0.069513	-0.000111
C16	C	1.064614	0.073028	-0.000075
C17	C	1.020636	0.437446	-0.000113
C18	C	0.889614	0.433932	-0.000138
C19	C	1.492247	-0.045221	-0.000102
C20	C	1.488505	-0.186168	-0.000110
C21	C	1.345134	-0.369543	-0.000647
C22	C	1.348927	-0.222926	-0.000099
C23	C	1.555675	-0.247846	0.138993
C24	C	1.550912	-0.394389	0.139110
C25	C	1.553753	-0.394914	-0.137907
C26	C	1.555039	-0.247933	-0.139747
C27	C	1.714694	0.179545	-0.000119
C28	C	1.854139	0.183276	-0.000138
C29	C	1.478072	0.418803	-0.000103
C30	C	1.481813	0.559750	-0.000105
N31	N	1.485165	0.186798	0.346564
N32	N	1.485163	0.186774	-0.346765
C33	C	1.569795	0.101277	0.423211
C34	C	1.569791	0.101262	0.576548
C35	C	1.400525	0.272300	0.576577
C36	C	1.400523	0.272308	0.423243
C37	C	1.667523	0.002533	0.423195
C38	C	1.667520	0.002518	0.576532
H39	H	1.056307	0.479916	-0.105285
H40	H	1.658178	-0.225529	0.144158
H41	H	0.891593	-0.025971	-0.000133
H42	H	1.758718	0.033451	0.375631
Br43	Br	1.616594	-0.151151	0.655801
Br44	Br	1.631730	-0.160090	0.353815
H45	H	1.764039	0.024268	0.618142
Br46	Br	1.724652	-0.207617	-0.153775
Br47	Br	1.069564	0.524406	0.169799
H48	H	0.843956	0.474245	0.105030
Br49	Br	0.820076	0.517692	-0.170059
H50	H	1.129295	-0.019602	-0.000036
H51	H	1.296074	-0.180306	-0.099813
Br52	Br	1.477907	-0.176819	0.311542
H53	H	1.505891	-0.207059	-0.242651
Br54	Br	1.253228	-0.417174	-0.166912
Br55	Br	1.478450	-0.447462	-0.313635
Br56	Br	1.253337	-0.420460	0.164188
Br57	Br	1.260206	-0.153281	0.166381
Br58	Br	1.468165	-0.441364	0.312427
H59	H	1.654570	-0.442177	-0.138850
H60	H	1.331600	0.341934	0.360838
Br61	Br	1.285655	0.388340	0.680648
H62	H	1.651295	-0.442394	0.145414
