data_functionalizedCrystal
_audit_creation_method	'MofGen! by Chris Wilmer'
_symmetry_space_group_name_H-M	'P1'
_symmetry_Int_Tables_number	1
_symmetry_cell_setting	triclinic
loop_
_symmetry_equiv_pos_as_xyz
  x,y,z
_cell_length_a	23.532407
_cell_length_b	23.532407
_cell_length_c	9.130313
_cell_angle_alpha	89.990840
_cell_angle_beta	90.001817
_cell_angle_gamma	82.848678
loop_
_atom_site_label
_atom_site_type_symbol
_atom_site_fract_x
_atom_site_fract_y
_atom_site_fract_z
O1	O	0.755259	0.069135	-0.121631
O2	O	1.255259	0.569135	0.378369
O3	O	0.589395	0.079138	-0.121676
O4	O	1.089395	0.579138	0.378324
O5	O	0.677329	-0.008795	-0.121626
O6	O	1.177329	0.491205	0.378374
O7	O	0.667325	0.157068	-0.121682
O8	O	1.167325	0.657068	0.378318
O9	O	0.677323	-0.008798	0.121973
O10	O	1.177323	0.491202	0.621973
O11	O	0.589389	0.079135	0.121922
O12	O	1.089389	0.579135	0.621922
O13	O	0.755253	0.069132	0.121968
O14	O	1.255253	0.569132	0.621968
Cu15	Cu	0.672321	0.074134	0.144188
Cu16	Cu	1.172321	0.574134	0.644188
Cu17	Cu	0.672328	0.074137	-0.143896
Cu18	Cu	1.172328	0.574137	0.356104
O19	O	0.667319	0.157066	0.121917
O20	O	1.167319	0.657066	0.621917
C21	C	0.568176	0.078882	0.000118
C22	C	1.068176	0.578882	0.500118
C23	C	0.504959	0.078116	0.000102
C24	C	1.004959	0.578116	0.500102
C25	C	0.677071	-0.030013	0.000177
C26	C	1.177071	0.469987	0.500177
C27	C	0.676305	-0.093230	0.000189
C28	C	1.176305	0.406770	0.500189
C29	C	0.105856	0.125350	0.000152
C30	C	0.605856	0.625350	0.500152
C31	C	0.046456	0.124638	0.000161
C32	C	0.546456	0.624638	0.500161
O33	O	0.009711	0.168424	0.000199
O34	O	0.509711	0.668424	0.500199
N35	N	0.023830	0.072362	0.000176
N36	N	0.523830	0.572362	0.500176
C37	C	0.060607	0.020794	0.000197
C38	C	0.560607	0.520794	0.500197
O39	O	0.035908	-0.023737	0.000213
O40	O	0.535908	0.476263	0.500213
C41	C	0.120006	0.021506	0.000199
C42	C	0.620006	0.521506	0.500199
C43	C	0.142629	0.073785	0.000169
C44	C	0.642629	0.573785	0.500169
C45	C	0.128479	0.177625	0.000123
C46	C	0.628479	0.677625	0.500123
C47	C	0.187876	0.178336	0.000111
C48	C	0.687876	0.678336	0.500111
C49	C	0.224649	0.126772	0.000128
C50	C	0.724649	0.626772	0.500128
C51	C	0.202025	0.074496	0.000157
C52	C	0.702025	0.574496	0.500157
C53	C	0.156783	-0.030062	0.000230
C54	C	0.656783	0.469938	0.500230
C55	C	0.216185	-0.029345	0.000233
C56	C	0.716185	0.470655	0.500233
C57	C	0.238808	0.022934	0.000202
C58	C	0.738808	0.522934	0.500202
C59	C	0.298194	0.023643	0.000161
C60	C	0.798194	0.523643	0.500161
N61	N	0.320820	0.075920	0.000146
N62	N	0.820820	0.575920	0.500146
C63	C	0.284048	0.127484	0.000129
C64	C	0.784048	0.627484	0.500129
C65	C	-0.064135	0.019302	0.000197
C66	C	0.435865	0.519302	0.500197
C67	C	-0.123533	0.018589	0.000186
C68	C	0.376467	0.518589	0.500186
C69	C	-0.137680	0.122434	0.000152
C70	C	0.362320	0.622434	0.500152
C71	C	-0.078281	0.123146	0.000153
C72	C	0.421719	0.623146	0.500153
C73	C	-0.041509	0.071578	0.000182
C74	C	0.458491	0.571578	0.500182
C75	C	0.408784	0.128974	0.000103
C76	C	0.908784	0.628974	0.500103
C77	C	0.468186	0.129680	0.000085
C78	C	0.968186	0.629680	0.500085
C79	C	0.482329	0.025836	0.000126
C80	C	0.982329	0.525836	0.500126
C81	C	0.422932	0.025129	0.000137
C82	C	0.922932	0.525129	0.500137
C83	C	0.386160	0.076702	0.000130
C84	C	0.886160	0.576702	0.500130
O85	O	0.334974	-0.020119	0.000129
O86	O	0.834974	0.479881	0.500129
O87	O	0.308755	0.172007	0.000133
O88	O	0.808755	0.672007	0.500133
C89	C	0.723539	-0.492333	0.000121
C90	C	1.223539	0.007667	0.500121
C91	C	0.722827	-0.551733	0.000110
C92	C	1.222827	-0.051733	0.500110
O93	O	0.766613	-0.588478	0.000068
O94	O	1.266613	-0.088478	0.500068
N95	N	0.670551	-0.574359	0.000097
N96	N	1.170551	-0.074359	0.500097
C97	C	0.618983	-0.537582	0.000080
C98	C	1.118983	-0.037582	0.500080
O99	O	0.574452	-0.562281	0.000066
O100	O	1.074452	-0.062281	0.500066
C101	C	0.619695	-0.478182	0.000081
C102	C	1.119695	0.021818	0.500081
C103	C	0.671974	-0.455560	0.000109
C104	C	1.171974	0.044440	0.500109
C105	C	0.775814	-0.469710	0.000147
C106	C	1.275814	0.030290	0.500147
C107	C	0.776525	-0.410313	0.000161
C108	C	1.276525	0.089687	0.500161
C109	C	0.724961	-0.373540	0.000149
C110	C	1.224961	0.126460	0.500149
C111	C	0.672685	-0.396164	0.000123
C112	C	1.172685	0.103836	0.500123
C113	C	0.568127	-0.441406	0.000053
C114	C	1.068127	0.058594	0.500053
C115	C	0.568844	-0.382004	0.000053
C116	C	1.068844	0.117996	0.500053
C117	C	0.621123	-0.359381	0.000081
C118	C	1.121123	0.140619	0.500081
C119	C	0.621832	-0.299995	0.000124
C120	C	1.121832	0.200005	0.500124
N121	N	0.674109	-0.277368	0.000138
N122	N	1.174109	0.222632	0.500138
C123	C	0.725673	-0.314141	0.000150
C124	C	1.225673	0.185859	0.500150
C125	C	0.617491	-0.662324	0.000076
C126	C	1.117491	-0.162324	0.500076
C127	C	0.616778	-0.721722	0.000085
C128	C	1.116778	-0.221722	0.500085
C129	C	0.720623	-0.735869	0.000112
C130	C	1.220623	-0.235869	0.500112
C131	C	0.721335	-0.676470	0.000113
C132	C	1.221335	-0.176470	0.500113
C133	C	0.669767	-0.639698	0.000089
C134	C	1.169767	-0.139698	0.500089
C135	C	0.727163	-0.189405	0.000181
C136	C	1.227163	0.310595	0.500181
C137	C	0.727869	-0.130003	0.000201
C138	C	1.227869	0.369997	0.500201
C139	C	0.624025	-0.115860	0.000166
C140	C	1.124025	0.384140	0.500166
C141	C	0.623318	-0.175257	0.000154
C142	C	1.123318	0.324743	0.500154
C143	C	0.674891	-0.212029	0.000156
C144	C	1.174891	0.287971	0.500156
O145	O	0.578070	-0.263215	0.000161
O146	O	1.078070	0.236785	0.500161
O147	O	0.770196	-0.289433	0.000144
O148	O	1.270196	0.210567	0.500144
C149	C	0.776472	0.069388	0.000170
C150	C	1.276472	0.569388	0.500170
C151	C	0.839689	0.070154	0.000177
C152	C	1.339689	0.570154	0.500177
C153	C	0.667577	0.178283	0.000110
C154	C	1.167577	0.678283	0.500110
C155	C	0.668343	0.241500	0.000090
C156	C	1.168343	0.741500	0.500090
N157	N	0.672320	0.074131	0.346810
N158	N	1.172320	0.574131	0.846810
N159	N	0.672333	0.074134	-0.346519
N160	N	1.172333	0.574134	0.153481
C161	C	0.711269	0.035210	0.423484
C162	C	1.211269	0.535210	0.923484
C163	C	0.711275	0.035210	0.576821
C164	C	1.211275	0.535210	1.076821
C165	C	0.633379	0.113057	0.576796
C166	C	1.133379	0.613057	1.076796
C167	C	0.633371	0.113054	0.423462
C168	C	1.133371	0.613054	0.923462
H169	H	0.486602	0.172255	0.000060
H170	H	0.986602	0.672255	0.500060
H171	H	0.742983	0.003516	0.361078
H172	H	1.242983	0.503516	0.861078
H173	H	0.206289	0.220908	0.000086
H174	H	0.706289	0.720908	0.500086
H175	H	0.817806	-0.499645	0.000152
H176	H	1.317806	0.000355	0.500152
N177	N	0.090930	0.230307	0.000116
N178	N	0.590930	0.730307	0.500116
N179	N	0.111149	0.276973	0.000096
N180	N	0.611149	0.776973	0.500096
H181	H	0.084634	0.314183	0.000082
H182	H	0.584634	0.814183	0.500082
H183	H	0.582043	-0.085909	0.000161
H184	H	1.082043	0.414091	0.500161
N185	N	0.371221	0.181649	0.000104
N186	N	0.871221	0.681649	0.500104
N187	N	0.336501	0.192843	0.102785
N188	N	0.836501	0.692843	0.602785
H189	H	0.309971	0.230044	0.102780
H190	H	0.809971	0.730044	0.602780
H191	H	-0.059867	0.165717	0.000137
H192	H	0.440133	0.665717	0.500137
H193	H	0.601669	0.144748	0.639221
H194	H	1.101669	0.644748	1.139221
N195	N	0.133687	-0.083467	0.000312
N196	N	0.633687	0.416533	0.500312
N197	N	0.102132	-0.095449	0.103023
N198	N	0.602132	0.404551	0.603023
H199	H	0.085823	-0.133170	0.103091
H200	H	0.585823	0.366830	0.603091
H201	H	-0.167632	0.164421	0.000145
H202	H	0.332368	0.664421	0.500145
N203	N	0.593583	0.152822	0.345156
N204	N	1.093583	0.652822	0.845156
N205	N	0.594061	0.205460	0.362249
N206	N	1.094061	0.705460	0.862249
H207	H	0.565961	0.233545	0.306947
H208	H	1.065961	0.733545	0.806947
N209	N	-0.146628	-0.034818	0.000184
N210	N	0.353372	0.465182	0.500184
N211	N	-0.113782	-0.080851	0.000190
N212	N	0.386218	0.419149	0.500190
H213	H	-0.130090	-0.118572	0.000194
H214	H	0.369910	0.381428	0.500194
N215	N	-0.026583	-0.033382	0.000221
N216	N	0.473417	0.466618	0.500221
N217	N	-0.046798	-0.080050	0.000236
N218	N	0.453202	0.419950	0.500236
H219	H	-0.020280	-0.117259	0.000256
H220	H	0.479720	0.382741	0.500256
N221	N	0.253739	-0.082028	0.000277
N222	N	0.753739	0.417972	0.500277
N223	N	0.233527	-0.128698	0.000311
N224	N	0.733527	0.371302	0.500311
H225	H	0.260047	-0.165905	0.000343
H226	H	0.760047	0.334095	0.500343
H227	H	0.512280	-0.016146	0.000134
H228	H	1.012280	0.483854	0.500134
N229	N	0.399829	-0.028277	0.000143
N230	N	0.899829	0.471723	0.500143
N231	N	0.432672	-0.074312	0.000150
N232	N	0.932672	0.425688	0.500150
H233	H	0.416360	-0.112032	0.000166
H234	H	0.916360	0.387968	0.500166
N235	N	0.751050	-0.004555	0.655150
N236	N	1.251050	0.495445	1.155150
N237	N	0.733179	-0.039818	0.740713
N238	N	1.233179	0.460182	1.240713
H239	H	0.761269	-0.067908	0.796030
H240	H	1.261269	0.432092	1.296030
N241	N	0.781274	-0.106895	0.000256
N242	N	1.281274	0.393105	0.500256
N243	N	0.815955	-0.118278	0.102952
N244	N	1.315955	0.381722	0.602952
H245	H	0.853671	-0.101960	0.102993
H246	H	1.353671	0.398040	0.602993
H247	H	0.763906	-0.658056	0.000135
H248	H	1.263906	-0.158056	0.500135
N249	N	0.779843	-0.226959	0.000225
N250	N	1.279843	0.273041	0.500225
N251	N	0.791030	-0.261687	0.102917
N252	N	1.291030	0.238313	0.602917
H253	H	0.828235	-0.288210	0.102961
H254	H	1.328235	0.211790	0.602961
H255	H	0.574207	-0.740136	0.000088
H256	H	1.074207	-0.240136	0.500088
H257	H	0.819097	-0.391900	0.000178
H258	H	1.319097	0.108100	0.500178
H259	H	0.575496	-0.632386	0.000068
H260	H	1.075496	-0.132386	0.500068
N261	N	0.773302	-0.773431	0.000094
N262	N	1.273302	-0.273431	0.500094
N263	N	0.819977	-0.753230	0.000100
N264	N	1.319977	-0.253230	0.500100
H265	H	0.857180	-0.779757	0.000085
H266	H	1.357180	-0.279757	0.500085
N267	N	0.514723	-0.464503	0.000038
N268	N	1.014723	0.035497	0.500038
N269	N	0.480030	-0.453134	0.102700
N270	N	0.980030	0.046866	0.602700
H271	H	0.442310	-0.469444	0.102688
H272	H	0.942310	0.030556	0.602688
N273	N	0.516161	-0.344450	0.000011
N274	N	1.016161	0.155550	0.500011
N275	N	0.469491	-0.364662	-0.000023
N276	N	0.969491	0.135338	0.499977
H277	H	0.432284	-0.338142	-0.000054
H278	H	0.932284	0.161858	0.499946
H279	H	0.580748	-0.193677	0.000172
H280	H	1.080748	0.306323	0.500172
