data_functionalizedCrystal
_audit_creation_method	'MofGen! by Chris Wilmer'
_symmetry_space_group_name_H-M	'P1'
_symmetry_Int_Tables_number	1
_symmetry_cell_setting	triclinic
loop_
_symmetry_equiv_pos_as_xyz
  x,y,z
_cell_length_a	17.699077
_cell_length_b	10.654541
_cell_length_c	16.776229
_cell_angle_alpha	90.003169
_cell_angle_beta	90.005198
_cell_angle_gamma	83.882252
loop_
_atom_site_label
_atom_site_type_symbol
_atom_site_fract_x
_atom_site_fract_y
_atom_site_fract_z
O1	O	1.005089	0.158768	0.066277
O2	O	1.505089	0.658768	0.566277
O3	O	0.784841	0.179437	0.066281
O4	O	1.284841	0.679437	0.566281
O5	O	0.900030	-0.013726	0.066274
O6	O	1.400030	0.486274	0.566274
O7	O	0.889900	0.351931	0.066284
O8	O	1.389900	0.851931	0.566284
O9	O	0.900017	-0.013727	-0.066302
O10	O	1.400017	0.486273	0.433698
O11	O	0.784828	0.179436	-0.066295
O12	O	1.284828	0.679436	0.433705
O13	O	1.005076	0.158767	-0.066299
O14	O	1.505076	0.658767	0.433701
Zn15	Zn	0.894950	0.169102	-0.087347
Zn16	Zn	1.394950	0.669102	0.412653
Zn17	Zn	0.894967	0.169102	0.087329
Zn18	Zn	1.394967	0.669102	0.587329
O19	O	0.889887	0.351930	-0.066292
O20	O	1.389887	0.851930	0.433708
C21	C	0.756633	0.178697	-0.000007
C22	C	1.256633	0.678697	0.499993
C23	C	0.672600	0.176479	-0.000005
C24	C	1.172600	0.676479	0.499995
C25	C	0.633119	0.175434	-0.072274
C26	C	1.133119	0.675434	0.427726
C27	C	0.554163	0.173330	-0.072274
C28	C	1.054163	0.673330	0.427726
C29	C	0.514689	0.172280	-0.000006
C30	C	1.014689	0.672280	0.499994
C31	C	0.554176	0.173322	0.072268
C32	C	1.054176	0.673322	0.572268
C33	C	0.633131	0.175417	0.072268
C34	C	1.133131	0.675417	0.572268
C35	C	0.235759	0.164871	0.072269
C36	C	0.735759	0.664871	0.572269
C37	C	0.156798	0.162779	0.072263
C38	C	0.656798	0.662779	0.572263
C39	C	0.156791	0.162783	-0.072273
C40	C	0.656791	0.662783	0.427727
C41	C	0.235746	0.164879	-0.072273
C42	C	0.735746	0.664879	0.427727
C43	C	0.275227	0.165913	0.000000
C44	C	0.775227	0.665913	0.500000
C45	C	0.360840	0.168193	0.000000
C46	C	0.860840	0.668193	0.500000
C47	C	0.429077	0.170010	-0.000006
C48	C	0.929077	0.670010	0.499994
C49	C	0.899280	-0.060511	-0.000014
C50	C	1.399280	0.439489	0.499986
C51	C	0.897056	-0.199916	-0.000012
C52	C	1.397056	0.300084	0.499988
C53	C	1.034795	-0.230303	-0.000025
C54	C	1.534795	0.269697	0.499975
C55	C	1.102617	-0.310987	-0.000033
C56	C	1.602617	0.189013	0.499967
C57	C	1.100522	-0.441968	-0.000030
C58	C	1.600522	0.058032	0.499970
C59	C	1.030599	-0.492267	-0.000017
C60	C	1.530599	0.007733	0.499983
C61	C	0.962777	-0.411583	-0.000009
C62	C	1.462777	0.088417	0.499991
C63	C	0.964879	-0.280600	-0.000014
C64	C	1.464879	0.219400	0.499986
C65	C	0.825039	-0.381196	0.000009
C66	C	1.325039	0.118804	0.500009
C67	C	0.827132	-0.250215	0.000001
C68	C	1.327132	0.249785	0.500001
C69	C	0.755116	-0.431495	0.000022
C70	C	1.255116	0.068505	0.500022
C71	C	0.687292	-0.350811	0.000024
C72	C	1.187292	0.149189	0.500024
C73	C	0.689390	-0.219822	0.000020
C74	C	1.189390	0.280178	0.500020
C75	C	0.759310	-0.169531	0.000008
C76	C	1.259310	0.330469	0.500008
C77	C	1.033284	0.159507	-0.000010
C78	C	1.533284	0.659507	0.499990
C79	C	1.117316	0.161725	-0.000006
C80	C	1.617316	0.661725	0.499994
C81	C	0.890637	0.398715	-0.000003
C82	C	1.390637	0.898715	0.499997
C83	C	0.892861	0.538120	0.000001
C84	C	1.392861	1.038120	0.500001
N85	N	0.894943	0.169100	-0.206558
N86	N	1.394943	0.669100	0.293442
C87	C	0.941242	0.245172	-0.248270
C88	C	1.441242	0.745172	0.251730
C89	C	0.941250	0.245167	-0.331722
C90	C	1.441250	0.745167	0.168278
C91	C	0.894956	0.169097	-0.373461
C92	C	1.394956	0.669097	0.126539
C93	C	0.848655	0.093017	-0.331743
C94	C	1.348655	0.593017	0.168257
C95	C	0.848651	0.093016	-0.248292
C96	C	1.348651	0.593016	0.251708
C97	C	0.848671	0.093018	-0.668290
C98	C	1.348671	0.593018	-0.168290
C99	C	0.848676	0.093028	-0.751746
C100	C	1.348676	0.593028	-0.251746
C101	C	0.941269	0.245170	-0.751720
C102	C	1.441269	0.745170	-0.251720
C103	C	0.941265	0.245169	-0.668270
C104	C	1.441265	0.745169	-0.168270
C105	C	0.894968	0.169084	-0.626559
C106	C	1.394968	0.669084	-0.126559
C107	C	0.894961	0.169088	-0.536070
C108	C	1.394961	0.669088	-0.036070
C109	C	0.894959	0.169098	-0.463948
C110	C	1.394959	0.669098	0.036052
N111	N	0.894979	0.169093	0.206540
N112	N	1.394979	0.669093	0.706540
H113	H	0.522031	0.172458	0.131110
H114	H	1.022031	0.672458	0.631110
Cl115	Cl	0.682766	0.176725	0.163123
Cl116	Cl	1.182766	0.676725	0.663123
H117	H	0.630366	-0.391776	0.000039
H118	H	1.130366	0.108224	0.500039
Cl119	Cl	1.190516	-0.247748	-0.000044
Cl120	Cl	1.690516	0.252252	0.499956
H121	H	0.810965	0.031072	-0.365733
H122	H	1.310965	0.531072	0.134267
H123	H	0.978968	0.307118	-0.785691
H124	H	1.478968	0.807118	-0.285691
Cl125	Cl	0.604123	-0.118401	0.000036
Cl126	Cl	1.104123	0.381599	0.500036
H127	H	0.124661	0.161923	0.131116
H128	H	0.624661	0.661923	0.631116
H129	H	0.978960	0.307118	-0.634290
H130	H	1.478960	0.807118	-0.134290
H131	H	1.155749	-0.507662	-0.000030
H132	H	1.655749	-0.007662	0.499970
Cl133	Cl	1.037433	-0.065641	-0.000046
Cl134	Cl	1.537433	0.434359	0.499954
H135	H	0.810976	0.031078	-0.785727
H136	H	1.310976	0.531078	-0.285727
H137	H	0.761025	-0.062881	0.000001
H138	H	1.261025	0.437119	0.500001
Cl139	Cl	1.027968	-0.656930	0.000040
Cl140	Cl	1.527968	-0.156930	0.500040
Cl141	Cl	0.285366	0.166205	-0.163128
Cl142	Cl	0.785366	0.666205	0.336872
Cl143	Cl	0.285382	0.166174	0.163127
Cl144	Cl	0.785382	0.666174	0.663127
Cl145	Cl	0.999443	0.340811	-0.195807
Cl146	Cl	1.499443	0.840811	0.304193
H147	H	0.978952	0.307110	-0.365681
H148	H	1.478952	0.807110	0.134319
H149	H	0.810973	0.031065	-0.634339
H150	H	1.310973	0.531065	-0.134339
H151	H	0.665252	0.176299	-0.131123
H152	H	1.165252	0.676299	0.368877
Cl153	Cl	0.504531	0.172038	-0.163130
Cl154	Cl	1.004531	0.672038	0.336870
H155	H	0.124637	0.161935	-0.131122
H156	H	0.624637	0.661935	0.368878
Cl157	Cl	0.752483	-0.596158	0.000075
Cl158	Cl	1.252483	-0.096158	0.500075
Cl159	Cl	0.790453	-0.002634	-0.195853
Cl160	Cl	1.290453	0.497366	0.304147
