data_functionalizedCrystal
_audit_creation_method	'MofGen! by Chris Wilmer'
_symmetry_space_group_name_H-M	'P1'
_symmetry_Int_Tables_number	1
_symmetry_cell_setting	triclinic
loop_
_symmetry_equiv_pos_as_xyz
  x,y,z
_cell_length_a	25.639242
_cell_length_b	25.639239
_cell_length_c	12.759393
_cell_angle_alpha	89.962948
_cell_angle_beta	89.977361
_cell_angle_gamma	90.030990
loop_
_atom_site_label
_atom_site_type_symbol
_atom_site_fract_x
_atom_site_fract_y
_atom_site_fract_z
Zn1	Zn	0.799268	-0.208227	-0.594057
Zn2	Zn	0.799179	-0.295674	-0.418360
Zn3	Zn	0.711831	-0.208243	-0.418384
Zn4	Zn	0.711789	-0.295622	-0.593989
O5	O	0.755517	-0.251941	-0.506198
O6	O	0.872421	-0.219843	-0.570769
O7	O	0.787572	-0.284104	-0.271342
O8	O	0.723485	-0.135075	-0.441726
O9	O	0.872356	-0.284089	-0.441686
O10	O	0.787724	-0.135064	-0.570792
O11	O	0.723399	-0.219869	-0.271360
O12	O	0.638661	-0.219818	-0.441660
O13	O	0.723413	-0.284000	-0.741019
O14	O	0.638630	-0.284015	-0.570676
O15	O	0.787683	-0.219792	-0.741069
O16	O	0.787531	-0.368832	-0.441620
O17	O	0.723327	-0.368794	-0.570653
C18	C	0.619674	-0.251913	-0.506164
C19	C	0.561560	-0.251914	-0.506174
C20	C	0.310409	-0.218548	-0.573534
C21	C	0.365013	-0.218542	-0.573528
O22	O	0.393286	-0.190151	-0.630793
N23	N	0.392286	-0.251935	-0.506210
C24	C	0.364952	-0.285339	-0.438900
O25	O	0.393164	-0.313743	-0.381641
C26	C	0.310349	-0.285347	-0.438912
C27	C	0.283079	-0.251948	-0.506228
C28	C	0.283139	-0.185152	-0.640845
C29	C	0.228538	-0.185156	-0.640849
C30	C	0.201208	-0.218557	-0.573543
C31	C	0.228478	-0.251953	-0.506232
C32	C	0.283016	-0.318753	-0.371609
C33	C	0.228409	-0.318758	-0.371628
C34	C	0.201139	-0.285359	-0.438943
C35	C	0.146547	-0.285358	-0.438930
N36	N	0.119274	-0.251965	-0.506249
C37	C	0.146604	-0.218564	-0.573555
C38	C	0.479623	-0.285322	-0.438882
C39	C	0.534225	-0.285312	-0.438863
C40	C	0.534282	-0.218516	-0.573493
C41	C	0.479679	-0.218523	-0.573505
C42	C	0.452350	-0.251929	-0.506200
C43	C	0.031939	-0.218576	-0.573558
C44	C	-0.022666	-0.218582	-0.573554
C45	C	-0.022718	-0.285380	-0.438929
C46	C	0.031882	-0.285373	-0.438929
C47	C	0.059210	-0.251969	-0.506252
O48	O	0.118240	-0.313736	-0.381698
O49	O	0.118386	-0.190171	-0.630814
C50	C	0.755429	-0.387784	-0.506150
C51	C	0.755439	-0.445898	-0.506164
C52	C	0.789035	-0.806268	-0.439124
C53	C	0.789056	-0.860873	-0.439138
O54	O	0.817529	-0.889116	-0.382086
N55	N	0.755609	-0.888180	-0.506267
C56	C	0.722143	-0.860881	-0.573394
O57	O	0.693696	-0.889122	-0.630494
C58	C	0.722126	-0.806278	-0.573385
C59	C	0.755571	-0.778973	-0.506244
C60	C	0.822478	-0.778964	-0.371990
C61	C	0.822457	-0.724363	-0.371975
C62	C	0.788993	-0.697067	-0.439094
C63	C	0.755550	-0.724372	-0.506229
C64	C	0.688663	-0.778979	-0.640516
C65	C	0.688649	-0.724372	-0.640501
C66	C	0.722094	-0.697067	-0.573360
C67	C	0.722065	-0.642476	-0.573333
N68	N	0.755512	-0.615168	-0.506204
C69	C	0.788976	-0.642464	-0.439084
C70	C	0.722182	-0.975552	-0.573410
C71	C	0.722197	-1.030154	-0.573415
C72	C	0.789110	-1.030142	-0.439161
C73	C	0.789093	-0.975539	-0.439151
C74	C	0.755629	-0.948244	-0.506281
C75	C	0.788929	-0.527799	-0.439057
C76	C	0.788903	-0.473194	-0.439045
C77	C	0.721992	-0.473210	-0.573303
C78	C	0.722015	-0.527811	-0.573312
C79	C	0.755488	-0.555104	-0.506185
O80	O	0.693607	-0.614198	-0.630359
O81	O	0.817423	-0.614216	-0.382003
C82	C	0.891890	-0.251970	-0.506232
C83	C	0.950004	-0.251982	-0.506247
C84	C	0.755553	-0.251889	-0.780231
C85	C	0.755569	-0.251866	-0.897008
C86	C	0.755619	-0.115568	-0.506269
C87	C	0.755663	-0.057454	-0.506299
C88	C	0.789039	-0.218430	-0.951898
C89	C	0.789052	-0.218411	-1.061622
C90	C	0.722122	-0.285269	-1.061557
C91	C	0.722108	-0.285285	-0.951835
C92	C	0.822500	-0.185011	-0.897071
C93	C	0.855974	-0.151572	-0.951961
C94	C	0.855986	-0.151553	-1.061685
C95	C	0.822525	-0.184973	-1.116519
C96	C	0.755510	-0.251956	-0.233230
C97	C	0.755596	-0.251831	-0.116454
H98	H	-0.044981	-0.312572	-0.384125
O99	O	-0.052078	-0.182555	-0.646157
H100	H	-0.076959	-0.205986	-0.699524
H101	H	0.556545	-0.191320	-0.628298
H102	H	0.054087	-0.312564	-0.384106
O103	O	0.450272	-0.182501	-0.646117
H104	H	0.425397	-0.155872	-0.599199
O105	O	0.822534	-0.184945	-1.234866
H106	H	0.793642	-0.213798	-1.263770
O107	O	0.824981	-0.443742	-0.366634
H108	H	0.848259	-0.471900	-0.319976
O109	O	0.686035	-0.321316	-1.120692
H110	H	0.691672	-0.315690	-1.206210
O111	O	0.825026	-0.557233	-0.366650
H112	H	0.848270	-0.529066	-0.319963
H113	H	0.457375	-0.312524	-0.384065
O114	O	0.858538	-0.694915	-0.299574
H115	H	0.881813	-0.723076	-0.252921
O116	O	0.858571	-0.808400	-0.299584
H117	H	0.881817	-0.780231	-0.252901
H118	H	0.206160	-0.345963	-0.316821
O119	O	0.686116	-1.059597	-0.645824
H120	H	0.659532	-1.084512	-0.598759
H121	H	0.816360	-1.052376	-0.384512
H122	H	0.054183	-0.191375	-0.628379
O123	O	0.686073	-0.946118	-0.645798
H124	H	0.695012	-0.956565	-0.728275
O125	O	0.825171	-0.946089	-0.366748
H126	H	0.848444	-0.974248	-0.320086
H127	H	0.694845	-0.312504	-0.907142
O128	O	0.199127	-0.149137	-0.713461
H129	H	0.227313	-0.125917	-0.760262
O130	O	0.652593	-0.808422	-0.712939
H131	H	0.629330	-0.780260	-0.759613
O132	O	0.312609	-0.149116	-0.713435
H133	H	0.302140	-0.158125	-0.795862
O134	O	0.312421	-0.354776	-0.299002
H135	H	0.284235	-0.378002	-0.252217
O136	O	0.563637	-0.321329	-0.366247
H137	H	0.535453	-0.344554	-0.319453
H138	H	0.661400	-0.702152	-0.695170
H139	H	0.694783	-0.550044	-0.627986
O140	O	0.685901	-0.443766	-0.645700
H141	H	0.691514	-0.401210	-0.634413
H142	H	0.822495	-0.185023	-0.807728
O143	O	0.892064	-0.115529	-0.892828
H144	H	0.886438	-0.121162	-0.807309
O145	O	0.892086	-0.115490	-1.120894
H146	H	0.915353	-0.092259	-1.064332
