data_functionalizedCrystal
_audit_creation_method	'MofGen! by Chris Wilmer'
_symmetry_space_group_name_H-M	'P1'
_symmetry_Int_Tables_number	1
_symmetry_cell_setting	triclinic
loop_
_symmetry_equiv_pos_as_xyz
  x,y,z
_cell_length_a	12.645331
_cell_length_b	25.639239
_cell_length_c	12.645324
_cell_angle_alpha	89.961230
_cell_angle_beta	89.977038
_cell_angle_gamma	90.037665
loop_
_atom_site_label
_atom_site_type_symbol
_atom_site_fract_x
_atom_site_fract_y
_atom_site_fract_z
Zn1	Zn	1.620580	-0.208125	-0.599395
Zn2	Zn	1.620395	-0.295575	-0.422113
Zn3	Zn	1.443293	-0.208154	-0.422139
Zn4	Zn	1.443211	-0.295530	-0.599328
O5	O	1.531870	-0.251846	-0.510744
O6	O	1.768902	-0.219733	-0.575895
O7	O	1.596860	-0.284009	-0.273769
O8	O	1.466922	-0.134985	-0.445691
O9	O	1.768767	-0.283981	-0.445647
O10	O	1.597174	-0.134964	-0.575920
O11	O	1.466744	-0.219781	-0.273788
O12	O	1.294935	-0.219737	-0.445627
O13	O	1.466782	-0.283905	-0.747685
O14	O	1.294875	-0.283932	-0.575807
O15	O	1.597094	-0.219689	-0.747733
O16	O	1.596780	-0.368734	-0.445582
O17	O	1.466603	-0.368701	-0.575782
C18	C	1.256440	-0.251833	-0.510713
C19	C	1.138610	-0.251841	-0.510725
C20	C	0.971049	-0.211270	-0.429281
C21	C	1.093608	-0.211375	-0.428922
C22	C	1.094049	-0.306920	-0.480197
C23	C	0.971450	-0.306699	-0.479641
C24	C	0.971472	-0.237856	-0.623013
C25	C	1.094078	-0.236626	-0.622389
C26	C	1.531692	-0.387688	-0.510695
C27	C	1.531712	-0.445803	-0.510710
C28	C	1.599830	-0.806170	-0.443064
C29	C	1.599871	-0.860774	-0.443079
O30	O	1.657602	-0.889015	-0.385511
N31	N	1.532056	-0.888085	-0.510814
C32	C	1.464204	-0.860788	-0.578547
O33	O	1.406526	-0.889032	-0.636163
C34	C	1.464169	-0.806185	-0.578538
C35	C	1.531980	-0.778877	-0.510790
C36	C	1.667636	-0.778862	-0.375323
C37	C	1.667594	-0.724262	-0.375308
C38	C	1.599744	-0.696969	-0.443034
C39	C	1.531937	-0.724277	-0.510775
C40	C	1.396322	-0.778889	-0.646275
C41	C	1.396294	-0.724282	-0.646261
C42	C	1.464105	-0.696975	-0.578513
C43	C	1.464045	-0.642383	-0.578485
N44	N	1.531860	-0.615073	-0.510750
C45	C	1.599709	-0.642366	-0.443024
C46	C	1.464284	-0.975459	-0.578564
C47	C	1.464312	-1.030061	-0.578569
C48	C	1.599981	-1.030043	-0.443101
C49	C	1.599946	-0.975440	-0.443092
C50	C	1.532098	-0.948148	-0.510828
C51	C	1.599614	-0.527701	-0.442997
C52	C	1.599562	-0.473095	-0.442984
C53	C	1.463897	-0.473118	-0.578455
C54	C	1.463945	-0.527718	-0.578464
C55	C	1.531812	-0.555008	-0.510731
O56	O	1.406347	-0.614108	-0.636027
O57	O	1.657387	-0.614115	-0.385428
C58	C	1.808375	-0.251859	-0.510775
C59	C	1.926205	-0.251864	-0.510789
C60	C	1.531949	-0.251789	-0.787249
C61	C	1.531983	-0.251765	-0.905079
C62	C	1.532078	-0.115473	-0.510816
C63	C	1.532166	-0.057359	-0.510846
C64	C	1.614281	-0.211484	-1.072674
C65	C	1.614018	-0.211338	-0.950114
C66	C	1.420312	-0.236791	-0.949561
C67	C	1.420812	-0.236485	-1.072160
C68	C	1.560450	-0.307078	-1.072264
C69	C	1.562893	-0.306800	-0.949658
C70	C	1.531852	-0.251865	-0.235314
C71	C	1.532023	-0.251742	-0.117485
H72	H	0.942795	-0.318577	-0.397599
C73	C	1.725095	-0.223718	-1.112055
C74	C	1.764104	-0.181099	-1.169360
C75	C	1.866188	-0.192349	-1.205651
H76	H	1.722934	-0.253576	-1.156433
H77	H	1.770051	-0.230391	-1.053415
H78	H	1.719160	-0.174432	-1.227992
H79	H	1.766291	-0.151236	-1.125004
H80	H	1.911144	-0.199023	-1.147010
H81	H	1.864017	-0.222209	-1.250024
H82	H	1.892672	-0.163433	-1.244527
C83	C	1.480645	-0.347151	-1.110748
C84	C	1.506782	-0.396254	-1.069937
C85	C	1.433280	-0.433175	-1.105359
H86	H	1.481779	-0.348427	-1.185811
H87	H	1.411917	-0.337615	-1.087377
H88	H	1.575492	-0.405788	-1.093313
H89	H	1.505640	-0.394995	-0.994876
H90	H	1.364551	-0.423638	-1.081989
H91	H	1.434419	-0.434446	-1.180422
H92	H	1.450997	-0.466494	-1.077667
C93	C	1.132759	-0.348404	-0.556778
C94	C	1.091517	-0.396966	-0.527213
C95	C	1.127144	-0.435191	-0.597744
H96	H	1.207807	-0.349759	-0.555175
H97	H	1.109835	-0.340042	-0.626287
H98	H	1.114448	-0.405327	-0.457722
H99	H	1.016472	-0.395629	-0.528823
H100	H	1.104220	-0.426828	-0.667253
H101	H	1.202192	-0.436540	-0.596135
H102	H	1.099159	-0.468143	-0.577699
C103	C	0.931744	-0.348433	-0.555179
C104	C	0.870354	-0.384631	-0.499338
C105	C	0.833757	-0.423082	-0.568885
H106	H	0.990292	-0.365711	-0.586562
H107	H	0.889993	-0.332682	-0.608848
H108	H	0.912104	-0.400382	-0.445688
H109	H	0.811791	-0.367369	-0.467958
H110	H	0.792006	-0.407331	-0.622554
H111	H	0.892312	-0.440356	-0.600263
H112	H	0.792093	-0.447644	-0.531008
C113	C	1.132960	-0.182616	-0.653302
C114	C	1.191541	-0.185930	-0.747034
C115	C	1.227363	-0.136185	-0.775549
H116	H	1.176404	-0.169026	-0.598588
H117	H	1.074069	-0.160215	-0.663796
H118	H	1.250424	-0.208323	-0.736534
H119	H	1.148119	-0.199511	-0.801769
H120	H	1.168471	-0.113784	-0.786043
H121	H	1.270802	-0.122599	-0.720828
H122	H	1.267105	-0.138426	-0.839153
H123	H	1.357439	-0.264532	-1.101800
C124	C	1.588854	-0.156652	-0.911239
C125	C	1.573829	-0.123613	-0.998140
C126	C	1.550630	-0.073232	-0.962370
H127	H	1.645894	-0.144062	-0.869573
H128	H	1.526252	-0.157479	-0.869705
H129	H	1.636425	-0.122784	-1.039656
H130	H	1.516787	-0.136186	-1.039815
H131	H	1.488027	-0.074058	-0.920836
H132	H	1.607673	-0.060647	-0.920704
H133	H	1.540423	-0.050810	-1.021326
H134	H	1.395769	-0.196792	-0.918876
H135	H	1.655165	-0.953209	-0.387927
H136	H	1.357357	-0.265212	-0.920387
C137	C	1.672536	-0.321860	-0.911079
C138	C	1.739313	-0.329331	-0.998099
C139	C	1.840318	-0.343204	-0.962584
H140	H	1.668283	-0.353241	-0.871329
H141	H	1.700017	-0.294813	-0.867721
H142	H	1.711838	-0.356376	-1.041440
H143	H	1.743597	-0.297957	-1.037858
H144	H	1.867799	-0.316158	-0.919226
H145	H	1.836054	-0.374585	-0.922833
H146	H	1.885641	-0.348271	-1.021620
H147	H	1.595705	-0.170718	-1.103508
H148	H	0.940194	-0.220426	-0.346607
C149	C	1.388711	-0.182509	-1.110120
C150	C	1.369042	-0.150481	-1.022670
C151	C	1.339485	-0.100752	-1.057592
H152	H	1.326531	-0.185077	-1.151920
H153	H	1.444200	-0.167929	-1.151320
H154	H	1.313559	-0.165058	-0.981488
H155	H	1.431209	-0.147898	-0.980862
H156	H	1.394973	-0.086172	-1.098792
H157	H	1.277306	-0.103325	-1.099392
H158	H	1.326145	-0.079013	-0.998263
C159	C	1.741346	-0.808394	-0.301665
C160	C	1.800692	-0.772781	-0.242330
C161	C	1.868591	-0.799963	-0.174443
H162	H	1.787631	-0.829661	-0.342132
H163	H	1.700855	-0.829718	-0.255380
H164	H	1.841180	-0.751466	-0.288609
H165	H	1.754434	-0.751514	-0.201841
H166	H	1.828101	-0.821287	-0.128158
H167	H	1.914870	-0.821228	-0.214919
H168	H	1.908859	-0.775804	-0.134169
H169	H	1.123740	-0.170531	-0.448058
H170	H	1.124695	-0.319003	-0.399035
H171	H	1.507332	-0.338410	-0.918998
C172	C	0.930184	-0.185287	-0.660184
C173	C	0.873988	-0.191781	-0.754646
C174	C	0.835927	-0.143366	-0.788899
H175	H	0.987932	-0.162263	-0.671729
H176	H	0.884718	-0.171068	-0.607796
H177	H	0.919452	-0.205993	-0.807022
H178	H	0.816226	-0.214797	-0.743127
H179	H	0.790461	-0.129147	-0.736512
H180	H	0.893681	-0.120345	-0.800439
H181	H	0.797786	-0.147766	-0.852989
C182	C	0.931608	-0.156672	-0.454463
C183	C	0.820993	-0.155909	-0.449801
C184	C	0.784623	-0.105620	-0.472994
H185	H	0.954074	-0.147008	-0.523439
H186	H	0.959493	-0.132740	-0.404364
H187	H	0.793119	-0.179833	-0.499898
H188	H	0.798499	-0.165563	-0.380834
H189	H	0.812508	-0.081688	-0.422895
H190	H	0.807096	-0.095960	-0.541969
H191	H	0.709568	-0.105095	-0.469825
C192	C	1.132440	-0.223756	-0.317978
C193	C	1.045514	-0.231171	-0.251008
C194	C	1.081243	-0.242585	-0.148799
H195	H	1.174137	-0.195610	-0.292528
H196	H	1.173935	-0.254623	-0.319524
H197	H	1.004037	-0.200307	-0.249459
H198	H	1.003808	-0.259318	-0.276424
H199	H	1.122738	-0.273453	-0.150344
H200	H	1.122940	-0.214438	-0.123359
H201	H	1.022270	-0.247622	-0.103349
H202	H	1.124716	-0.264036	-0.686368
C203	C	0.933007	-0.277321	-0.704006
C204	C	1.020081	-0.302310	-0.749883
C205	C	0.984682	-0.338673	-0.824479
H206	H	0.893628	-0.259925	-0.757362
H207	H	0.889318	-0.302441	-0.670121
H208	H	1.063753	-0.277194	-0.783768
H209	H	1.059469	-0.319717	-0.696554
H210	H	0.940992	-0.363794	-0.790594
H211	H	0.945303	-0.321273	-0.877828
H212	H	1.043755	-0.355636	-0.855609
H213	H	1.654782	-0.450863	-0.387812
H214	H	1.654880	-0.549914	-0.387844
H215	H	1.640455	-0.320710	-1.103246
H216	H	1.722815	-0.702031	-0.320146
H217	H	1.409083	-1.052291	-0.633725
H218	H	1.655232	-1.052275	-0.387959
H219	H	1.409025	-0.953241	-0.633720
H220	H	1.341098	-0.801114	-0.701438
H221	H	1.408731	-0.549954	-0.633633
C222	C	1.322514	-0.694747	-0.719849
C223	C	1.263127	-0.730353	-0.779158
C224	C	1.195142	-0.703165	-0.846948
H225	H	1.362912	-0.673406	-0.766163
H226	H	1.276266	-0.673496	-0.679281
H227	H	1.309369	-0.751595	-0.819724
H228	H	1.222707	-0.751695	-0.732872
H229	H	1.148894	-0.681914	-0.806380
H230	H	1.235549	-0.681826	-0.893255
H231	H	1.154833	-0.727320	-0.887190
H232	H	1.408652	-0.450888	-0.633594
H233	H	1.696825	-0.220716	-0.920041
