data_functionalizedCrystal
_audit_creation_method	'MofGen! by Chris Wilmer'
_symmetry_space_group_name_H-M	'P1'
_symmetry_Int_Tables_number	1
_symmetry_cell_setting	triclinic
loop_
_symmetry_equiv_pos_as_xyz
  x,y,z
_cell_length_a	19.121275
_cell_length_b	19.121073
_cell_length_c	16.959447
_cell_angle_alpha	87.595601
_cell_angle_beta	87.574323
_cell_angle_gamma	89.928405
loop_
_atom_site_label
_atom_site_type_symbol
_atom_site_fract_x
_atom_site_fract_y
_atom_site_fract_z
Zn1	Zn	1.059778	-0.324794	0.411565
Zn2	Zn	1.559778	0.175206	0.911565
Zn3	Zn	1.054689	-0.442038	0.285245
Zn4	Zn	1.554689	0.057962	0.785245
Zn5	Zn	0.942552	-0.319823	0.284794
Zn6	Zn	1.442552	0.180177	0.784794
Zn7	Zn	0.937504	-0.436994	0.422770
Zn8	Zn	1.437504	0.063006	0.922770
O9	O	0.998631	-0.380912	0.351093
O10	O	1.498631	0.119088	0.851093
O11	O	1.157205	-0.344538	0.390308
O12	O	1.657205	0.155462	0.890308
O13	O	1.039797	-0.425856	0.174576
O14	O	1.539797	0.074144	0.674576
O15	O	0.962345	-0.222379	0.296733
O16	O	1.462345	0.277621	0.796733
O17	O	1.153465	-0.430676	0.297501
O18	O	1.653465	0.069324	0.797501
O19	O	1.048471	-0.226031	0.389871
O20	O	1.548471	0.273969	0.889871
O21	O	0.957411	-0.336066	0.174245
O22	O	1.457411	0.163934	0.674245
O23	O	0.843781	-0.331175	0.307598
O24	O	1.343781	0.168825	0.807598
O25	O	0.953741	-0.422080	0.531892
O26	O	1.453741	0.077920	1.031892
O27	O	0.840072	-0.417260	0.408968
O28	O	1.340072	0.082740	0.908968
O29	O	1.043575	-0.339647	0.523660
O30	O	1.543575	0.160353	1.023660
O31	O	1.034901	-0.539472	0.308366
O32	O	1.534901	-0.039472	0.808366
O33	O	0.948806	-0.535767	0.409404
O34	O	1.448806	-0.035767	0.909404
C35	C	0.816490	-0.373132	0.359450
C36	C	1.316490	0.126868	0.859450
C37	C	0.738568	-0.369820	0.363045
C38	C	1.238568	0.130180	0.863045
C39	C	0.700014	-0.413039	0.316335
C40	C	1.200014	0.086961	0.816335
C41	C	0.626798	-0.409927	0.319723
C42	C	1.126798	0.090073	0.819723
C43	C	0.592139	-0.363592	0.369817
C44	C	1.092139	0.136408	0.869817
C45	C	0.630698	-0.320372	0.416532
C46	C	1.130698	0.179628	0.916532
C47	C	0.703912	-0.323487	0.413147
C48	C	1.203912	0.176513	0.913147
C49	C	0.371177	-0.351948	0.382460
C50	C	0.871177	0.148052	0.882460
C51	C	0.297958	-0.348834	0.385839
C52	C	0.797958	0.151166	0.885839
C53	C	0.294063	-0.438391	0.289031
C54	C	0.794063	0.061609	0.789031
C55	C	0.367279	-0.441499	0.285648
C56	C	0.867279	0.058501	0.785648
C57	C	0.405832	-0.398281	0.332366
C58	C	0.905832	0.101719	0.832366
C59	C	0.517301	-0.360409	0.373279
C60	C	1.017301	0.139591	0.873279
C61	C	0.480668	-0.401469	0.328907
C62	C	0.980668	0.098531	0.828907
C63	C	0.990772	-0.563057	0.360166
C64	C	1.490772	-0.063057	0.860166
C65	C	0.987475	-0.640983	0.364071
C66	C	1.487475	-0.140983	0.864071
C67	C	0.966596	-1.081617	0.388855
C68	C	1.466596	-0.581617	0.888855
C69	C	0.969695	-1.008398	0.385177
C70	C	1.469695	-0.508398	0.885177
C71	C	1.016103	-0.973698	0.330767
C72	C	1.516103	-0.473698	0.830767
C73	C	1.059420	-1.012222	0.280037
C74	C	1.559420	-0.512222	0.780037
C75	C	1.056325	-1.085439	0.283720
C76	C	1.556325	-0.585439	0.783720
C77	C	1.027697	-0.752724	0.317023
C78	C	1.527697	-0.252724	0.817023
C79	C	1.030787	-0.679501	0.313343
C80	C	1.530787	-0.179501	0.813343
C81	C	0.941062	-0.675682	0.418484
C82	C	1.441062	-0.175682	0.918484
C83	C	0.937968	-0.748901	0.422159
C84	C	1.437968	-0.248901	0.922159
C85	C	0.981288	-0.787418	0.371432
C86	C	1.481288	-0.287418	0.871432
C87	C	1.019270	-0.898857	0.327005
C88	C	1.519270	-0.398857	0.827005
C89	C	0.978124	-0.862259	0.375198
C90	C	1.478124	-0.362259	0.875198
C91	C	1.181483	-0.388724	0.342705
C92	C	1.681483	0.111276	0.842705
C93	C	1.259404	-0.392053	0.339130
C94	C	1.759404	0.107947	0.839130
C95	C	0.998662	-0.380856	0.557257
C96	C	1.498662	0.119144	1.057257
C97	C	0.998676	-0.380831	0.645112
C98	C	1.498676	0.119169	1.145112
C99	C	1.006539	-0.198057	0.342002
C100	C	1.506539	0.301943	0.842002
C101	C	1.009909	-0.120135	0.338127
C102	C	1.509909	0.379865	0.838127
C103	C	0.998642	-0.380920	0.145727
C104	C	1.498642	0.119080	0.645727
C105	C	0.998772	-0.380753	0.057856
C106	C	1.498772	0.119247	0.557856
C107	C	0.951990	-0.423680	1.020869
C108	C	1.451990	0.076320	1.520869
C109	C	1.045535	-0.337842	1.012292
C110	C	1.545535	0.162158	1.512292
C111	C	1.045516	-0.337856	0.929748
C112	C	1.545516	0.162144	1.429748
C113	C	0.998734	-0.380784	0.892760
C114	C	1.498734	0.119216	1.392760
C115	C	0.951971	-0.423697	0.938317
C116	C	1.451971	0.076303	1.438317
C117	C	1.092283	-0.294949	0.884185
C118	C	1.592283	0.205051	1.384185
C119	C	1.092266	-0.294962	0.801635
C120	C	1.592266	0.205038	1.301635
C121	C	1.045480	-0.337886	0.764646
C122	C	1.545480	0.162114	1.264646
C123	C	0.998714	-0.380801	0.810208
C124	C	1.498714	0.119199	1.310208
C125	C	0.951932	-0.423728	0.773221
C126	C	1.451932	0.076272	1.273221
C127	C	0.905163	-0.466639	0.818782
C128	C	1.405163	0.033361	1.318782
C129	C	0.905184	-0.466621	0.901328
C130	C	1.405184	0.033379	1.401328
C131	C	1.045458	-0.337904	0.682100
C132	C	1.545458	0.162096	1.182100
C133	C	0.951913	-0.423745	0.690669
C134	C	1.451913	0.076255	1.190669
H135	H	0.602472	-0.282648	0.457323
H136	H	1.102472	0.217352	0.957323
H137	H	0.395494	-0.479229	0.244855
H138	H	0.895494	0.020771	0.744855
Cl139	Cl	1.077609	-0.855228	0.258605
Cl140	Cl	1.577609	-0.355228	0.758605
Cl141	Cl	1.104349	-0.283884	1.058791
Cl142	Cl	1.604349	0.216116	1.558791
H143	H	0.913810	-0.458696	0.660560
H144	H	1.413810	0.041304	1.160560
H145	H	0.508891	-0.439197	0.288125
H146	H	1.008891	0.060803	0.788125
Cl147	Cl	1.104253	-0.283968	0.624827
Cl148	Cl	1.604253	0.216032	1.124827
Cl149	Cl	1.151096	-0.240992	0.930686
Cl150	Cl	1.651096	0.259008	1.430686
Cl151	Cl	0.846357	-0.520607	0.772273
Cl152	Cl	1.346357	-0.020607	1.272273
Cl153	Cl	0.879634	-0.792519	0.490573
Cl154	Cl	1.379634	-0.292519	0.990573
H155	H	0.867109	-0.501560	0.938431
H156	H	1.367109	-0.001560	1.438431
Cl157	Cl	1.082155	-0.801136	0.253250
Cl158	Cl	1.582155	-0.301136	0.753250
Cl159	Cl	1.151058	-0.241014	0.744366
Cl160	Cl	1.651058	0.258986	1.244366
H161	H	0.913910	-0.458615	1.057968
H162	H	1.413910	0.041385	1.557968
H163	H	0.905794	-0.644315	0.459785
H164	H	1.405794	-0.144315	0.959785
Cl165	Cl	0.473722	-0.302163	0.436254
Cl166	Cl	0.973722	0.197837	0.936254
H167	H	0.735302	-0.288293	0.451183
H168	H	1.235302	0.211707	0.951183
Cl169	Cl	0.743579	-0.471289	0.253355
Cl170	Cl	1.243579	0.028711	0.753355
Cl171	Cl	1.117766	-0.968599	0.211640
Cl172	Cl	1.617766	-0.468599	0.711640
H173	H	0.595411	-0.445120	0.281687
H174	H	1.095411	0.054880	0.781687
H175	H	0.262666	-0.473578	0.250998
H176	H	0.762666	0.026422	0.750998
H177	H	0.269740	-0.311097	0.426630
H178	H	0.769740	0.188903	0.926630
Cl179	Cl	1.089124	-0.635879	0.244927
Cl180	Cl	1.589124	-0.135879	0.744927
Cl181	Cl	0.419634	-0.297617	0.441192
Cl182	Cl	0.919634	0.202383	0.941192
H183	H	0.940342	-0.890514	0.419501
H184	H	1.440342	-0.390514	0.919501
Cl185	Cl	0.915244	-0.959978	0.448955
Cl186	Cl	1.415244	-0.459978	0.948955
Cl187	Cl	0.908247	-1.125232	0.457255
Cl188	Cl	1.408247	-0.625232	0.957255
H189	H	1.091596	-1.116800	0.242414
H190	H	1.591596	-0.616800	0.742414
