data_functionalizedCrystal
_audit_creation_method	'MofGen! by Chris Wilmer'
_symmetry_space_group_name_H-M	'P1'
_symmetry_Int_Tables_number	1
_symmetry_cell_setting	triclinic
loop_
_symmetry_equiv_pos_as_xyz
  x,y,z
_cell_length_a	10.489741
_cell_length_b	10.489711
_cell_length_c	9.565339
_cell_angle_alpha	89.999726
_cell_angle_beta	90.000516
_cell_angle_gamma	84.533091
loop_
_atom_site_label
_atom_site_type_symbol
_atom_site_fract_x
_atom_site_fract_y
_atom_site_fract_z
O1	O	0.179778	1.694075	-0.116152
O2	O	0.196711	1.322874	-0.116179
O3	O	0.002646	1.516921	-0.116157
O4	O	0.373843	1.500028	-0.116174
O5	O	0.002658	1.516906	0.116364
O6	O	0.196723	1.322859	0.116342
O7	O	0.179790	1.694060	0.116368
Zn8	Zn	0.188258	1.508457	0.153272
Zn9	Zn	0.188242	1.508477	-0.153083
O10	O	0.373855	1.500013	0.116346
C11	C	-0.044880	1.515638	0.000103
C12	C	-0.186509	1.511820	0.000100
C13	C	0.195446	1.275334	0.000078
C14	C	0.191644	1.133703	0.000068
C15	C	0.181055	1.741600	0.000108
C16	C	0.184857	1.883231	0.000109
C17	C	-0.254636	1.388354	0.000081
C18	C	-0.346759	1.446671	0.114729
C19	C	-0.346745	1.446715	-0.114517
C20	C	-0.276766	1.570188	0.114843
C21	C	-0.276743	1.570215	-0.114507
C22	C	-0.368839	1.628622	0.000170
C23	C	0.421381	1.501296	0.000084
C24	C	0.563010	1.505114	0.000077
C25	C	0.068152	2.065617	0.000092
C26	C	0.126442	1.973471	-0.114550
C27	C	0.126485	1.973499	0.114696
C28	C	0.249985	2.043423	-0.114668
C29	C	0.250011	2.043460	0.114681
C30	C	0.308390	1.951341	0.000011
N31	N	0.188268	1.508452	0.362352
N32	N	0.188222	1.508492	-0.362162
C33	C	0.277987	1.418685	0.453545
C34	C	0.303785	1.534183	0.546730
C35	C	0.162481	1.393004	0.546721
C36	C	0.214125	1.624009	0.453486
C37	C	0.072769	1.482754	0.453468
C38	C	0.098519	1.598335	0.546612
H39	H	-0.204974	1.286841	0.000189
H40	H	0.140690	1.295355	0.587679
H41	H	-0.245935	1.622377	0.211878
H42	H	-0.377709	1.394465	-0.211453
H43	H	-0.024855	1.460955	0.412471
Br44	Br	0.477713	1.868889	-0.000092
H45	H	0.236033	1.721681	0.412703
Br46	Br	0.337045	2.095167	0.276227
H47	H	0.302190	2.074230	-0.211703
Br48	Br	-0.398428	1.359594	0.276273
Br49	Br	-0.451238	1.797967	0.000278
H50	H	0.074183	1.942483	-0.211469
Br51	Br	-0.027979	1.725023	0.614305
H52	H	0.074216	1.942541	0.211622
H53	H	-0.033332	2.115348	-0.000046
Br54	Br	0.404555	1.292273	0.385427
Br55	Br	0.466547	1.570462	0.615007
H56	H	-0.245709	1.622419	-0.211432
