data_functionalizedCrystal
_audit_creation_method	'MofGen! by Chris Wilmer'
_symmetry_space_group_name_H-M	'P1'
_symmetry_Int_Tables_number	1
_symmetry_cell_setting	triclinic
loop_
_symmetry_equiv_pos_as_xyz
  x,y,z
_cell_length_a	27.732048
_cell_length_b	27.732048
_cell_length_c	26.210047
_cell_angle_alpha	90.000479
_cell_angle_beta	89.996535
_cell_angle_gamma	97.357345
loop_
_atom_site_label
_atom_site_type_symbol
_atom_site_fract_x
_atom_site_fract_y
_atom_site_fract_z
O1	O	0.640931	-0.057510	-0.042369
O2	O	0.500138	-0.066256	-0.042385
O3	O	0.574907	0.008514	-0.042367
O4	O	0.566162	-0.132279	-0.042387
O5	O	0.574893	0.008502	0.042491
O6	O	0.500123	-0.066267	0.042473
O7	O	0.640917	-0.057522	0.042489
Cu8	Cu	0.570519	-0.061896	0.050229
Cu9	Cu	0.570536	-0.061882	-0.050125
O10	O	0.566147	-0.132291	0.042471
C11	C	0.482124	-0.066078	0.000042
C12	C	0.428469	-0.065525	0.000036
C13	C	0.089654	-0.106229	0.000053
C14	C	-0.112006	-0.104178	0.000057
O15	O	-0.143262	-0.141398	0.000074
N16	N	-0.131130	-0.059843	0.000063
C17	C	-0.099835	-0.016017	0.000071
O18	O	-0.120728	0.021740	0.000081
C19	C	0.101824	-0.018068	0.000069
C20	C	0.120944	-0.062407	0.000059
C21	C	0.108775	-0.150563	0.000043
C22	C	0.159187	-0.151076	0.000039
C23	C	0.190477	-0.107253	0.000045
C24	C	0.171356	-0.062919	0.000055
C25	C	0.133117	0.025757	0.000081
C26	C	0.183535	0.025240	0.000082
C27	C	0.202655	-0.019098	0.000071
C28	C	0.253059	-0.019609	0.000057
N29	N	0.272183	-0.063944	0.000051
C30	C	0.240892	-0.107766	0.000045
C31	C	-0.205709	-0.014943	0.000070
C32	C	-0.256124	-0.014430	0.000070
C33	C	-0.268291	-0.102591	0.000057
C34	C	-0.217876	-0.103104	0.000054
C35	C	-0.186585	-0.059278	0.000065
C36	C	0.346761	-0.108839	0.000036
C37	C	0.397178	-0.109347	0.000030
C38	C	0.409341	-0.021186	0.000045
C39	C	0.358929	-0.020678	0.000049
C40	C	0.327639	-0.064508	0.000046
O41	O	0.284343	0.017592	0.000046
O42	O	0.261794	-0.145518	0.000047
C43	C	0.039242	-0.105716	0.000057
C44	C	0.020120	-0.061382	0.000067
C45	C	0.051411	-0.017560	0.000073
C46	C	-0.030294	-0.060869	0.000066
C47	C	-0.061585	-0.104691	0.000060
C48	C	-0.042461	-0.149026	0.000054
C49	C	0.007951	-0.149539	0.000050
C50	C	0.032287	0.026775	0.000078
C51	C	-0.018125	0.027284	0.000082
C52	C	-0.049416	-0.016538	0.000076
C53	C	0.574716	0.026515	0.000064
C54	C	0.574164	0.080170	0.000068
C55	C	0.658931	-0.057699	0.000061
C56	C	0.712586	-0.058252	0.000064
C57	C	0.566338	-0.150292	0.000040
C58	C	0.566891	-0.203947	0.000032
N59	N	0.570510	-0.061905	0.120813
C60	C	0.614867	0.418985	0.000046
C61	C	0.612816	0.620645	0.000039
O62	O	0.650037	0.651900	0.000021
N63	N	0.568481	0.639768	0.000034
C64	C	0.524656	0.608474	0.000028
O65	O	0.486899	0.629367	0.000019
C66	C	0.526707	0.406815	0.000032
C67	C	0.571045	0.387694	0.000042
C68	C	0.659202	0.399864	0.000056
C69	C	0.659714	0.349452	0.000060
C70	C	0.615892	0.318161	0.000056
C71	C	0.571557	0.337282	0.000046
C72	C	0.482882	0.375521	0.000022
C73	C	0.483399	0.325104	0.000022
C74	C	0.527737	0.305983	0.000032
C75	C	0.528247	0.255580	0.000046
N76	N	0.572583	0.236456	0.000051
C77	C	0.616405	0.267747	0.000056
C78	C	0.523582	0.714348	0.000027
C79	C	0.523069	0.764762	0.000027
C80	C	0.611230	0.776930	0.000037
C81	C	0.611742	0.726514	0.000041
C82	C	0.567917	0.695224	0.000032
C83	C	0.617477	0.161878	0.000066
C84	C	0.617986	0.111461	0.000073
C85	C	0.529825	0.099298	0.000060
C86	C	0.529316	0.149710	0.000056
C87	C	0.573147	0.180999	0.000057
O88	O	0.491047	0.224296	0.000059
O89	O	0.654156	0.246844	0.000054
C90	C	0.614355	0.469397	0.000042
C91	C	0.570021	0.488518	0.000033
C92	C	0.526198	0.457228	0.000028
C93	C	0.569508	0.538933	0.000033
C94	C	0.613330	0.570223	0.000037
C95	C	0.657665	0.551100	0.000042
C96	C	0.658177	0.500688	0.000046
C97	C	0.481863	0.476351	0.000023
C98	C	0.481355	0.526764	0.000019
C99	C	0.525177	0.558054	0.000024
N100	N	0.570548	-0.061868	-0.120709
C101	C	0.603640	-0.028781	0.473336
C102	C	0.603651	-0.028774	0.686994
O103	O	0.631801	-0.000614	0.714623
N104	N	0.570538	-0.061871	0.713707
C105	C	0.537419	-0.094970	0.687003
O106	O	0.509251	-0.123117	0.714626
C107	C	0.537406	-0.094974	0.473345
C108	C	0.570524	-0.061878	0.446635
C109	C	0.636755	0.004312	0.446625
C110	C	0.636754	0.004308	0.393214
C111	C	0.603638	-0.028789	0.366513
C112	C	0.570523	-0.061882	0.393223
C113	C	0.504284	-0.128070	0.446641
C114	C	0.504283	-0.128067	0.393223
C115	C	0.537401	-0.094971	0.366513
C116	C	0.537405	-0.094983	0.313111
N117	N	0.570518	-0.061886	0.286397
C118	C	0.603634	-0.028789	0.313098
C119	C	0.537428	-0.094966	0.799176
C120	C	0.537432	-0.094965	0.852590
C121	C	0.603664	-0.028769	0.852578
C122	C	0.603662	-0.028773	0.799163
C123	C	0.570541	-0.061869	0.772463
C124	C	0.603629	-0.028800	0.200931
C125	C	0.603626	-0.028808	0.147514
C126	C	0.537393	-0.095002	0.147531
C127	C	0.537397	-0.094996	0.200943
C128	C	0.570517	-0.061891	0.227641
O129	O	0.509267	-0.123125	0.285449
O130	O	0.631790	-0.000639	0.285466
C131	C	0.603641	-0.028777	0.526747
C132	C	0.570527	-0.061871	0.553457
C133	C	0.537410	-0.094968	0.526756
C134	C	0.570530	-0.061870	0.606872
C135	C	0.603646	-0.028773	0.633573
C136	C	0.636759	0.004323	0.606859
C137	C	0.636758	0.004320	0.553448
C138	C	0.504298	-0.128064	0.553470
C139	C	0.504302	-0.128058	0.606881
C140	C	0.537418	-0.094961	0.633582
H141	H	-0.180236	0.020747	0.000079
O142	O	-0.199362	-0.146204	-0.000021
C143	C	-0.215372	-0.172881	-0.043981
H144	H	-0.250241	-0.159967	-0.058633
H145	H	-0.222671	-0.213189	-0.034103
H146	H	-0.186150	-0.167059	-0.074753
H147	H	0.343360	0.015426	0.000050
H148	H	0.321291	-0.144530	0.000036
O149	O	0.472062	-0.160153	0.367265
C150	C	0.442444	-0.134473	0.336359
H151	H	0.441917	-0.096354	0.352452
H152	H	0.403875	-0.154459	0.335761
H153	H	0.457587	-0.131841	0.295875
H154	H	0.486964	0.780325	0.000028
H155	H	0.023514	-0.185643	0.000042
O156	O	0.505302	-0.127188	0.773268
C157	C	0.512799	-0.174983	0.786336
H158	H	0.551500	-0.174946	0.801009
H159	H	0.507051	-0.199288	0.751215
H160	H	0.485908	-0.189361	0.817351
O161	O	0.487302	0.068828	0.000032
C162	C	0.497268	0.020233	0.000048
H163	H	0.535226	0.018582	-0.016008
H164	H	0.469321	-0.002817	-0.024594
H165	H	0.495315	0.005638	0.040759
H166	H	0.412743	-0.145454	0.000021
O167	O	0.438238	0.545254	-0.000012
C168	C	0.399673	0.506819	-0.000004
H169	H	0.412970	0.472666	-0.016060
H170	H	0.368701	0.517123	-0.024650
H171	H	0.386164	0.499589	0.040705
H172	H	0.630629	-0.001823	0.777418
O173	O	0.635823	0.003291	0.226915
C174	C	0.665460	-0.022387	0.257800
H175	H	0.645924	-0.060344	0.265815
H176	H	0.673267	-0.002150	0.295355
H177	H	0.701155	-0.025432	0.237206
H178	H	0.510469	-0.121920	0.874334
H179	H	-0.271687	0.021674	0.000070
O180	O	0.114632	0.068870	0.000119
C181	C	0.153070	0.107432	0.000116
H182	H	0.187219	0.094131	0.016173
H183	H	0.142766	0.138404	0.024765
H184	H	0.160305	0.120942	-0.040591
H185	H	0.630597	-0.001858	0.125768
O186	O	-0.072911	-0.191564	-0.000019
C187	C	-0.102428	-0.193902	-0.043973
H188	H	-0.104690	-0.155551	-0.058620
H189	H	-0.140457	-0.212192	-0.034088
H190	H	-0.086005	-0.215853	-0.074751
H191	H	0.209009	0.060929	0.000091
O192	O	0.661028	0.092830	0.000012
C193	C	0.663976	0.064040	-0.043941
H194	H	0.625784	0.051201	-0.058596
H195	H	0.682993	0.031166	-0.034052
H196	H	0.685534	0.086472	-0.074715
H197	H	0.510434	-0.121950	0.222691
H198	H	0.663720	0.031259	0.371469
O199	O	-0.298643	-0.145192	0.000122
C200	C	-0.290041	-0.172130	0.044077
H201	H	-0.251705	-0.159975	0.058728
H202	H	-0.293889	-0.212473	0.034192
H203	H	-0.317570	-0.165726	0.074852
H204	H	0.663725	0.031271	0.628608
H205	H	0.646911	0.802415	0.000041
H206	H	0.434827	0.014492	0.000048
H207	H	-0.033688	0.063392	0.000086
H208	H	0.663722	0.031266	0.468360
H209	H	0.493213	0.165279	0.000062
H210	H	0.057760	0.062462	0.000085
H211	H	0.653168	0.187348	0.000065
O212	O	0.701290	0.482198	0.000030
C213	C	0.739853	0.520634	0.000045
H214	H	0.726561	0.554784	-0.016022
H215	H	0.770837	0.510330	-0.024588
H216	H	0.753345	0.527870	0.040757
O217	O	0.480962	0.684024	0.000046
C218	C	0.441727	0.711721	0.000031
H219	H	0.454289	0.749441	0.016096
H220	H	0.411041	0.692904	0.024667
H221	H	0.428123	0.715213	-0.040680
O222	O	0.439824	0.394112	0.000098
C223	C	0.436874	0.422921	0.044035
H224	H	0.462033	0.411188	0.074763
H225	H	0.397877	0.418106	0.058774
H226	H	0.448325	0.462765	0.034098
H227	H	0.695819	0.333889	0.000066
H228	H	0.694889	0.425336	0.000058
O229	O	0.654824	0.707965	-0.000045
C230	C	0.681525	0.724002	-0.043984
H231	H	0.655595	0.734299	-0.074703
H232	H	0.701862	0.693611	-0.058736
H233	H	0.708707	0.757061	-0.034043
O234	O	0.440781	0.294778	0.000036
C235	C	0.401542	0.322470	0.000013
H236	H	0.414098	0.360191	0.016079
H237	H	0.370854	0.303651	0.024644
H238	H	0.387945	0.325961	-0.040701
H239	H	0.477334	-0.155013	0.628625
H240	H	0.477317	-0.155019	0.468381
H241	H	0.630629	-0.001821	0.874327
O242	O	0.700222	0.581520	-0.000045
C243	C	0.702557	0.611050	-0.043990
H244	H	0.677703	0.592398	-0.074708
H245	H	0.741539	0.617010	-0.058741
H246	H	0.690319	0.647622	-0.034058
H247	H	0.510432	-0.121951	0.125783
H248	H	0.663725	0.031269	0.531704
H249	H	0.477330	-0.155015	0.531734
H250	H	0.174750	-0.187180	0.000030
O251	O	0.078404	-0.193149	-0.000056
C252	C	0.087043	-0.220082	-0.044005
H253	H	0.104462	-0.194421	-0.074715
H254	H	0.051134	-0.239744	-0.058765
H255	H	0.112518	-0.247860	-0.034074
O256	O	0.439304	0.445940	-0.000070
C257	C	0.436967	0.416401	-0.044009
H258	H	0.461833	0.435040	-0.074727
H259	H	0.397988	0.410453	-0.058763
H260	H	0.449190	0.379826	-0.034067
