data_functionalizedCrystal
_audit_creation_method	'MofGen! by Chris Wilmer'
_symmetry_space_group_name_H-M	'P1'
_symmetry_Int_Tables_number	1
_symmetry_cell_setting	triclinic
loop_
_symmetry_equiv_pos_as_xyz
  x,y,z
_cell_length_a	17.077404
_cell_length_b	19.805405
_cell_length_c	17.077395
_cell_angle_alpha	89.969610
_cell_angle_beta	89.984359
_cell_angle_gamma	90.026635
loop_
_atom_site_label
_atom_site_type_symbol
_atom_site_fract_x
_atom_site_fract_y
_atom_site_fract_z
Zn1	Zn	1.200005	-0.269468	-0.443825
Zn2	Zn	1.700005	0.230532	0.056175
Zn3	Zn	1.199913	-0.382658	-0.312552
Zn4	Zn	1.699913	0.117342	0.187448
Zn5	Zn	1.068746	-0.269489	-0.312573
Zn6	Zn	1.568746	0.230511	0.187427
Zn7	Zn	1.068697	-0.382620	-0.443776
Zn8	Zn	1.568697	0.117380	0.056224
O9	O	1.134341	-0.326059	-0.378182
O10	O	1.634341	0.173941	0.121818
O11	O	1.309840	-0.284489	-0.426424
O12	O	1.809840	0.215511	0.073576
O13	O	1.182496	-0.367671	-0.202708
O14	O	1.682496	0.132329	0.297292
O15	O	1.086217	-0.174769	-0.330014
O16	O	1.586217	0.325231	0.169986
O17	O	1.309772	-0.367650	-0.329978
O18	O	1.809772	0.132350	0.170022
O19	O	1.182653	-0.174754	-0.426444
O20	O	1.682653	0.325246	0.073556
O21	O	1.086128	-0.284526	-0.202724
O22	O	1.586128	0.215474	0.297276
O23	O	0.958893	-0.284489	-0.329966
O24	O	1.458893	0.215511	0.170034
O25	O	1.086134	-0.367586	-0.553629
O26	O	1.586134	0.132414	-0.053629
O27	O	0.958857	-0.367606	-0.426360
O28	O	1.458857	0.132394	0.073640
O29	O	1.182605	-0.284453	-0.553666
O30	O	1.682605	0.215547	-0.053666
O31	O	1.182448	-0.477370	-0.329930
O32	O	1.682448	0.022630	0.170070
O33	O	1.086044	-0.477342	-0.426339
O34	O	1.586044	0.022658	0.073661
C35	C	0.930393	-0.326046	-0.378160
C36	C	1.430393	0.173954	0.121840
C37	C	0.843143	-0.326057	-0.378169
C38	C	1.343143	0.173943	0.121831
C39	C	0.802155	-0.369402	-0.428281
C40	C	1.302155	0.130598	0.071719
C41	C	0.720174	-0.369403	-0.428294
C42	C	1.220174	0.130597	0.071706
C43	C	0.679183	-0.326063	-0.378190
C44	C	1.179183	0.173937	0.121810
C45	C	0.720178	-0.282714	-0.328076
C46	C	1.220178	0.217286	0.171924
C47	C	0.802157	-0.282710	-0.328068
C48	C	1.302157	0.217290	0.171932
C49	C	0.549308	-0.282727	-0.328095
C50	C	1.049308	0.217273	0.171905
C51	C	0.467323	-0.282732	-0.328102
C52	C	0.967323	0.217268	0.171898
C53	C	0.467325	-0.369421	-0.428321
C54	C	0.967325	0.130579	0.071679
C55	C	0.549304	-0.369417	-0.428313
C56	C	1.049304	0.130583	0.071687
C57	C	0.590292	-0.326068	-0.378197
C58	C	1.090292	0.173932	0.121803
C59	C	1.134252	-0.501915	-0.378144
C60	C	1.634252	-0.001915	0.121856
C61	C	1.134286	-0.577147	-0.378154
C62	C	1.634286	-0.077147	0.121846
C63	C	1.184533	-0.612483	-0.328006
C64	C	1.684533	-0.112483	0.171994
C65	C	1.184566	-0.683171	-0.328023
C66	C	1.684566	-0.183171	0.171977
C67	C	1.134348	-0.718522	-0.378185
C68	C	1.634348	-0.218522	0.121815
C69	C	1.084100	-0.683181	-0.428338
C70	C	1.584100	-0.183181	0.071662
C71	C	1.084071	-0.612494	-0.428324
C72	C	1.584071	-0.112494	0.071676
C73	C	1.084216	-0.968254	-0.428397
C74	C	1.584216	-0.468254	0.071603
C75	C	1.084247	-1.038947	-0.428405
C76	C	1.584247	-0.538947	0.071595
C77	C	1.184710	-1.038932	-0.328095
C78	C	1.684710	-0.538932	0.171905
C79	C	1.184682	-0.968244	-0.328081
C80	C	1.684682	-0.468244	0.171919
C81	C	1.134436	-0.932910	-0.378237
C82	C	1.634436	-0.432910	0.121763
C83	C	1.134402	-0.856261	-0.378219
C84	C	1.634402	-0.356261	0.121781
C85	C	1.134378	-0.795169	-0.378200
C86	C	1.634378	-0.295169	0.121800
C87	C	1.339085	-0.326072	-0.378204
C88	C	1.839085	0.173928	0.121796
C89	C	1.426335	-0.326077	-0.378213
C90	C	1.926335	0.173923	0.121787
C91	C	1.134374	-0.326013	-0.582926
C92	C	1.634374	0.173987	-0.082926
C93	C	1.134389	-0.325993	-0.670176
C94	C	1.634389	0.174007	-0.170176
C95	C	1.134451	-0.149516	-0.378237
C96	C	1.634451	0.350484	0.121763
C97	C	1.134497	-0.074284	-0.378261
C98	C	1.634497	0.425716	0.121739
C99	C	1.184708	-0.282614	-1.046011
C100	C	1.684708	0.217386	-0.546011
C101	C	1.184692	-0.282638	-0.964030
C102	C	1.684692	0.217362	-0.464030
C103	C	1.134453	-0.325929	-0.923025
C104	C	1.634453	0.174071	-0.423025
C105	C	1.084233	-0.369205	-0.964004
C106	C	1.584233	0.130795	-0.464004
C107	C	1.084253	-0.369184	-1.045983
C108	C	1.584253	0.130816	-0.545983
C109	C	1.084192	-0.369244	-0.793134
C110	C	1.584192	0.130756	-0.293134
C111	C	1.084170	-0.369264	-0.711150
C112	C	1.584170	0.130736	-0.211150
C113	C	1.184631	-0.282698	-0.711181
C114	C	1.684631	0.217302	-0.211181
C115	C	1.184652	-0.282677	-0.793160
C116	C	1.684652	0.217323	-0.293160
C117	C	1.134430	-0.325952	-0.834134
C118	C	1.634430	0.174048	-0.334134
C119	C	1.134352	-0.326056	-0.174234
C120	C	1.634352	0.173944	0.325766
C121	C	1.134490	-0.325885	-0.086984
C122	C	1.634490	0.174115	0.413016
H123	H	0.686805	-0.404699	-0.469099
H124	H	1.186805	0.095301	0.030901
Cl125	Cl	1.247828	-0.228238	-0.912524
Cl126	Cl	1.747828	0.271762	-0.412524
H127	H	1.043215	-0.711970	-0.469184
H128	H	1.543215	-0.211970	0.030816
H129	H	1.043298	-0.404484	-0.826493
H130	H	1.543298	0.095516	-0.326493
H131	H	0.835523	-0.404697	-0.469079
H132	H	1.335523	0.095303	0.030921
Cl133	Cl	1.247881	-1.083357	-0.265045
Cl134	Cl	1.747881	-0.583357	0.234955
Cl135	Cl	1.021016	-0.423692	-0.659601
Cl136	Cl	1.521016	0.076308	-0.159601
H137	H	0.686796	-0.247423	-0.287284
H138	H	1.186796	0.252577	0.212716
Cl139	Cl	0.853685	-0.228215	-0.265070
Cl140	Cl	1.353685	0.271785	0.234930
H141	H	1.043303	-0.939490	-0.469234
H142	H	1.543303	-0.439490	0.030766
Cl143	Cl	0.415798	-0.423907	-0.491334
Cl144	Cl	0.915798	0.076093	0.008666
H145	H	1.043355	-1.067727	-0.469259
H146	H	1.543355	-0.567727	0.030741
Cl147	Cl	1.247662	-0.568048	-0.264936
Cl148	Cl	1.747662	-0.068048	0.235064
H149	H	1.043157	-0.583724	-0.469161
H150	H	1.543157	-0.083724	0.030839
Cl151	Cl	1.021076	-0.423630	-0.912455
Cl152	Cl	1.521076	0.076370	-0.412455
Cl153	Cl	0.415793	-0.228250	-0.265110
Cl154	Cl	0.915793	0.271750	0.234890
H155	H	1.225614	-0.247357	-1.079391
H156	H	1.725614	0.252643	-0.579391
Cl157	Cl	0.600834	-0.423907	-0.491296
Cl158	Cl	1.100834	0.076093	0.008704
H159	H	1.225558	-0.247422	-0.826544
H160	H	1.725558	0.252578	-0.326544
H161	H	1.225522	-0.247460	-0.677816
H162	H	1.725522	0.252540	-0.177816
Cl163	Cl	0.600835	-0.228231	-0.265092
Cl164	Cl	1.100835	0.271769	0.234908
H165	H	1.225481	-0.711939	-0.287187
H166	H	1.725481	-0.211939	0.212813
Cl167	Cl	1.247815	-0.923807	-0.265019
Cl168	Cl	1.747815	-0.423807	0.234981
H169	H	1.043361	-0.404420	-1.079343
H170	H	1.543361	0.095580	-0.579343
