data_functionalizedCrystal
_audit_creation_method	'MofGen! by Chris Wilmer'
_symmetry_space_group_name_H-M	'P1'
_symmetry_Int_Tables_number	1
_symmetry_cell_setting	triclinic
loop_
_symmetry_equiv_pos_as_xyz
  x,y,z
_cell_length_a	16.959454
_cell_length_b	13.032951
_cell_length_c	13.034356
_cell_angle_alpha	105.186779
_cell_angle_beta	82.791981
_cell_angle_gamma	97.177501
loop_
_atom_site_label
_atom_site_type_symbol
_atom_site_fract_x
_atom_site_fract_y
_atom_site_fract_z
Zn1	Zn	-0.400768	-1.700179	-0.806516
Zn2	Zn	0.099232	-1.200179	-0.306516
Zn3	Zn	-0.547848	-1.677486	-0.628895
Zn4	Zn	-0.047848	-1.177486	-0.128895
Zn5	Zn	-0.400768	-1.499982	-0.606393
Zn6	Zn	0.099232	-0.999982	-0.106393
Zn7	Zn	-0.517981	-1.522517	-0.783942
Zn8	Zn	-0.017981	-1.022517	-0.283942
O9	O	-0.466841	-1.600041	-0.706437
O10	O	0.033159	-1.100041	-0.206437
O11	O	-0.432778	-1.845806	-0.801819
O12	O	0.067222	-1.345806	-0.301819
O13	O	-0.540838	-1.635012	-0.477271
O14	O	-0.040838	-1.135012	0.022729
O15	O	-0.290161	-1.526605	-0.632970
O16	O	0.209839	-1.026605	-0.132970
O17	O	-0.540838	-1.829134	-0.671322
O18	O	-0.040838	-1.329134	-0.171322
O19	O	-0.290161	-1.673688	-0.780000
O20	O	0.209839	-1.173688	-0.280000
O21	O	-0.432779	-1.504601	-0.460738
O22	O	0.067221	-1.004601	0.039262
O23	O	-0.403817	-1.354334	-0.611081
O24	O	0.096183	-0.854334	-0.111081
O25	O	-0.489932	-1.565012	-0.935576
O26	O	0.010068	-1.065012	-0.435576
O27	O	-0.489933	-1.370890	-0.741525
O28	O	0.010067	-0.870890	-0.241525
O29	O	-0.403817	-1.695539	-0.952162
O30	O	0.096183	-1.195539	-0.452162
O31	O	-0.654494	-1.656863	-0.649432
O32	O	-0.154494	-1.156863	-0.149432
O33	O	-0.632550	-1.543007	-0.763344
O34	O	-0.132550	-1.043007	-0.263344
C35	C	-0.443634	-1.324072	-0.671412
C36	C	0.056366	-0.824072	-0.171412
C37	C	-0.433723	-1.206014	-0.656454
C38	C	0.066277	-0.706014	-0.156454
C39	C	-0.672202	-1.599950	-0.706407
C40	C	-0.172202	-1.099950	-0.206407
C41	C	-0.760061	-1.600012	-0.706443
C42	C	-0.260061	-1.100012	-0.206443
C43	C	-0.471998	-1.161587	-0.714229
C44	C	0.028002	-0.661587	-0.214229
C45	C	-0.461755	-1.039568	-0.698770
C46	C	0.038245	-0.539568	-0.198770
C47	C	-1.120153	-1.540854	-0.765756
C48	C	-0.620153	-1.040854	-0.265756
C49	C	-1.142943	-1.659537	-0.647263
C50	C	-0.642943	-1.159537	-0.147263
C51	C	-1.060395	-1.659499	-0.647249
C52	C	-0.560395	-1.159499	-0.147249
C53	C	-1.007721	-1.600136	-0.706488
C54	C	-0.507721	-1.100136	-0.206488
C55	C	-1.037596	-1.540811	-0.765741
C56	C	-0.537596	-1.040811	-0.265741
C57	C	-1.030513	-1.718814	-0.587988
C58	C	-0.530513	-1.218814	-0.087988
C59	C	-0.947961	-1.718777	-0.587970
C60	C	-0.447961	-1.218777	-0.087970
C61	C	-0.895286	-1.659419	-0.647216
C62	C	-0.395286	-1.159419	-0.147216
C63	C	-0.925165	-1.600093	-0.706472
C64	C	-0.425165	-1.100093	-0.206472
C65	C	-0.872492	-1.540730	-0.765711
C66	C	-0.372492	-1.040730	-0.265711
C67	C	-0.902370	-1.481410	-0.824975
C68	C	-0.402370	-0.981410	-0.324975
C69	C	-0.984922	-1.481454	-0.824986
C70	C	-0.484922	-0.981454	-0.324986
C71	C	-0.812734	-1.659375	-0.647204
C72	C	-0.312734	-1.159375	-0.147204
C73	C	-0.789936	-1.540688	-0.765696
C74	C	-0.289936	-1.040688	-0.265696
C75	C	-0.260680	-1.600164	-0.706493
C76	C	0.239320	-1.100164	-0.206493
C77	C	-0.172826	-1.600217	-0.706517
C78	C	0.327174	-1.100217	-0.206517
C79	C	-0.443543	-1.635320	-0.983487
C80	C	0.056457	-1.135320	-0.483487
C81	C	-0.433614	-1.650354	-1.101550
C82	C	0.066386	-1.150354	-0.601550
C83	C	-0.490131	-0.877087	-0.741592
C84	C	0.009869	-0.377087	-0.241592
C85	C	-0.500035	-0.995145	-0.756554
C86	C	-0.000035	-0.495145	-0.256554
C87	C	-0.461539	-1.608010	-1.268003
C88	C	0.038461	-1.108010	-0.768003
C89	C	-0.471801	-1.592468	-1.145979
C90	C	0.028199	-1.092468	-0.645979
C91	C	-0.489997	-1.564960	-0.430472
C92	C	0.010003	-1.064960	0.069528
C93	C	-0.499720	-1.550132	-0.312436
C94	C	0.000280	-1.050132	0.187564
H95	H	-0.512346	-1.213886	-0.775142
H96	H	-0.012346	-0.713886	-0.275142
H97	H	-0.540384	-1.047439	-0.817474
H98	H	-0.040384	-0.547439	-0.317474
N99	N	-0.408175	-1.688892	-1.337258
N100	N	0.091825	-1.188892	-0.837258
H101	H	-0.440592	-1.743917	-1.389520
H102	H	0.059408	-1.243917	-0.889520
H103	H	-0.364081	-1.651487	-1.377745
H104	H	0.135919	-1.151487	-0.877745
H105	H	-0.393368	-1.153716	-0.595550
H106	H	0.106632	-0.653716	-0.095550
H107	H	-0.788411	-1.707668	-0.598947
H108	H	-0.288411	-1.207668	-0.098947
N109	N	-0.408307	-0.970309	-0.618075
N110	N	0.091693	-0.470309	-0.118075
H111	H	-0.364254	-0.929806	-0.655529
H112	H	0.135746	-0.429806	-0.155529
H113	H	-0.440748	-0.918057	-0.563013
H114	H	0.059252	-0.418057	-0.063013
H115	H	-0.393328	-1.711418	-1.153842
H116	H	0.106672	-1.211418	-0.653842
H117	H	-0.512092	-1.531412	-1.093686
H118	H	-0.012092	-1.031412	-0.593686
N119	N	-0.733126	-1.476665	-0.829596
N120	N	-0.233126	-0.976665	-0.329596
H121	H	-0.764582	-1.439096	-0.867137
H122	H	-0.264582	-0.939096	-0.367137
H123	H	-0.698423	-1.422013	-0.780078
H124	H	-0.198423	-0.922013	-0.280078
N125	N	-0.553091	-1.469259	-1.243177
N126	N	-0.053091	-0.969259	-0.743177
H127	H	-0.552857	-1.469622	-1.165825
H128	H	-0.052857	-0.969622	-0.665825
H129	H	-0.532795	-1.395851	-1.252886
H130	H	-0.032795	-0.895851	-0.752886
N131	N	-0.845550	-1.417378	-0.888854
N132	N	-0.345550	-0.917378	-0.388854
H133	H	-0.810744	-1.466758	-0.943573
H134	H	-0.310744	-0.966758	-0.443573
H135	H	-0.877052	-1.379807	-0.926332
H136	H	-0.377052	-0.879807	-0.426332
H137	H	-1.009256	-1.433157	-0.873234
H138	H	-0.509256	-0.933157	-0.373234
H139	H	-1.144483	-1.492560	-0.814010
H140	H	-0.644483	-0.992560	-0.314010
N141	N	-1.199749	-1.723542	-0.583353
N142	N	-0.699749	-1.223542	-0.083353
H143	H	-1.256579	-1.714560	-0.592348
H144	H	-0.756579	-1.214560	-0.092348
H145	H	-1.190263	-1.801497	-0.609562
H146	H	-0.690263	-1.301497	-0.109562
N147	N	-1.087321	-1.782813	-0.524074
N148	N	-0.587321	-1.282813	-0.024074
H149	H	-1.144150	-1.773836	-0.533076
H150	H	-0.644150	-1.273836	-0.033076
H151	H	-1.077834	-1.860768	-0.550273
H152	H	-0.577834	-1.360768	-0.050273
H153	H	-0.923640	-1.767080	-0.539716
H154	H	-0.423640	-1.267080	-0.039716
