data_functionalizedCrystal
_audit_creation_method	'MofGen! by Chris Wilmer'
_symmetry_space_group_name_H-M	'P1'
_symmetry_Int_Tables_number	1
_symmetry_cell_setting	triclinic
loop_
_symmetry_equiv_pos_as_xyz
  x,y,z
_cell_length_a	17.699104
_cell_length_b	17.699083
_cell_length_c	16.776229
_cell_angle_alpha	89.992455
_cell_angle_beta	89.991971
_cell_angle_gamma	83.287266
loop_
_atom_site_label
_atom_site_type_symbol
_atom_site_fract_x
_atom_site_fract_y
_atom_site_fract_z
O1	O	1.004069	0.095788	-0.066306
O2	O	1.504069	0.595788	0.433694
O3	O	0.783692	0.108224	-0.066304
O4	O	1.283692	0.608224	0.433696
O5	O	0.900107	-0.008183	-0.066298
O6	O	1.400107	0.491817	0.433702
O7	O	0.887654	0.212195	-0.066312
O8	O	1.387654	0.712195	0.433688
O9	O	0.900091	-0.008190	0.066278
O10	O	1.400091	0.491810	0.566278
O11	O	0.783677	0.108217	0.066272
O12	O	1.283677	0.608217	0.566272
O13	O	1.004053	0.095781	0.066271
O14	O	1.504053	0.595781	0.566271
Zn15	Zn	0.893863	0.101998	0.087321
Zn16	Zn	1.393863	0.601998	0.587321
Zn17	Zn	0.893883	0.102007	-0.087354
Zn18	Zn	1.393883	0.602007	0.412646
O19	O	0.887639	0.212188	0.066264
O20	O	1.387639	0.712188	0.566264
C21	C	0.755488	0.107772	-0.000016
C22	C	1.255488	0.607772	0.499984
C23	C	0.671471	0.106427	-0.000015
C24	C	1.171471	0.606427	0.499985
C25	C	0.146600	0.167171	-0.000027
C26	C	0.646600	0.667171	0.499973
C27	C	0.225543	0.168430	-0.000029
C28	C	0.725543	0.668430	0.499971
C29	C	0.274161	0.100095	-0.000025
C30	C	0.774161	0.600095	0.499975
C31	C	0.243831	0.030496	-0.000026
C32	C	0.743831	0.530496	0.499974
C33	C	0.164889	0.029238	-0.000029
C34	C	0.664889	0.529238	0.499971
C35	C	0.562197	0.035569	-0.000014
C36	C	1.062197	0.535569	0.499986
C37	C	0.641144	0.036833	-0.000008
C38	C	1.141144	0.536833	0.499992
C39	C	0.622852	0.174762	-0.000014
C40	C	1.122852	0.674762	0.499986
C41	C	0.543909	0.173503	-0.000017
C42	C	1.043909	0.673503	0.499983
C43	C	0.513587	0.103905	-0.000022
C44	C	1.013587	0.603905	0.499978
C45	C	0.427987	0.102541	-0.000021
C46	C	0.927987	0.602541	0.499979
C47	C	0.359759	0.101459	-0.000020
C48	C	0.859759	0.601459	0.499980
C49	C	0.899653	-0.036383	-0.000010
C50	C	1.399653	0.463617	0.499990
C51	C	0.898314	-0.120402	-0.000009
C52	C	1.398314	0.379598	0.499991
C53	C	0.966647	-0.169017	-0.000009
C54	C	1.466647	0.330983	0.499991
C55	C	0.965385	-0.247961	-0.000016
C56	C	1.465385	0.252039	0.499984
C57	C	0.895789	-0.278287	-0.000018
C58	C	1.395789	0.221713	0.499982
C59	C	0.827451	-0.229665	-0.000021
C60	C	1.327451	0.270335	0.499979
C61	C	0.828714	-0.150723	-0.000019
C62	C	1.328714	0.349277	0.499981
C63	C	0.822356	-0.548028	-0.000027
C64	C	1.322356	-0.048028	0.499973
C65	C	0.821098	-0.626976	-0.000026
C66	C	1.321098	-0.126976	0.499974
C67	C	0.959026	-0.645266	-0.000024
C68	C	1.459026	-0.145266	0.499976
C69	C	0.960289	-0.566324	-0.000022
C70	C	1.460289	-0.066324	0.499978
C71	C	0.891952	-0.517709	-0.000029
C72	C	1.391952	-0.017709	0.499971
C73	C	0.893321	-0.432110	-0.000023
C74	C	1.393321	0.067890	0.499977
C75	C	0.894419	-0.363885	-0.000018
C76	C	1.394419	0.136115	0.499982
C77	C	1.032258	0.096233	-0.000020
C78	C	1.532258	0.596233	0.499980
C79	C	1.116275	0.097578	-0.000026
C80	C	1.616275	0.597578	0.499974
C81	C	0.888093	0.240388	-0.000026
C82	C	1.388093	0.740388	0.499974
C83	C	0.889431	0.324406	-0.000031
C84	C	1.389431	0.824406	0.499969
N85	N	0.893854	0.101991	0.206532
N86	N	1.393854	0.601991	0.706532
N87	N	0.893897	0.102008	-0.206566
N88	N	1.393897	0.602008	0.293434
C89	C	0.945418	0.050467	0.248252
C90	C	1.445418	0.550467	0.748252
C91	C	0.945422	0.050466	0.331704
C92	C	1.445422	0.550466	0.831704
C93	C	0.893866	0.101994	0.373435
C94	C	1.393866	0.601994	0.873435
C95	C	0.842296	0.153520	0.331709
C96	C	1.342296	0.653520	0.831709
C97	C	0.842289	0.153516	0.248259
C98	C	1.342289	0.653516	0.748259
C99	C	0.842324	0.153535	0.668257
C100	C	1.342324	0.653535	1.168257
C101	C	0.842336	0.153536	0.751713
C102	C	1.342336	0.653536	1.251713
C103	C	0.945457	0.050485	0.751702
C104	C	1.445457	0.550485	1.251702
C105	C	0.945450	0.050481	0.668251
C106	C	1.445450	0.550481	1.168251
C107	C	0.893878	0.102004	0.626533
C108	C	1.393878	0.602004	1.126533
C109	C	0.893873	0.102004	0.536045
C110	C	1.393873	0.602004	1.036045
C111	C	0.893874	0.101999	0.463922
C112	C	1.393874	0.601999	0.963922
H113	H	0.140200	-0.027432	-0.000030
H114	H	0.640200	0.472568	0.499970
O115	O	0.995442	0.000455	0.207594
O116	O	1.495442	0.500455	0.707594
C117	C	0.984353	0.011469	0.124992
C118	C	1.484353	0.511469	0.624992
H119	H	0.955996	0.071691	0.113576
H120	H	1.455996	0.571691	0.613576
H121	H	1.041669	0.002922	0.093246
H122	H	1.541669	0.502922	0.593246
H123	H	0.946427	-0.031300	0.101358
H124	H	1.446427	0.468700	0.601358
H125	H	0.987434	0.008525	0.634277
H126	H	1.487434	0.508525	1.134277
H127	H	1.023320	-0.144333	-0.000002
H128	H	1.523320	0.355667	0.499998
O129	O	1.027848	-0.536777	-0.000129
O130	O	1.527848	-0.036777	0.499871
C131	C	1.032718	-0.491670	-0.068802
C132	C	1.532718	0.008330	0.431198
H133	H	0.973030	-0.471899	-0.091690
H134	H	1.473030	0.028101	0.408310
H135	H	1.062792	-0.440030	-0.053361
H136	H	1.562792	0.059970	0.446639
H137	H	1.066269	-0.526602	-0.116883
H138	H	1.566269	-0.026602	0.383117
O139	O	0.792173	0.203617	0.792128
O140	O	1.292173	0.703617	1.292128
C141	C	0.746663	0.249103	0.737413
C142	C	1.246663	0.749103	1.237413
H143	H	0.745862	0.218072	0.677931
H144	H	1.245862	0.718072	1.177931
H145	H	0.686205	0.260712	0.761543
H146	H	1.186205	0.760712	1.261543
H147	H	0.771121	0.305304	0.728521
H148	H	1.271121	0.805304	1.228521
O149	O	0.762356	-0.103463	-0.000159
O150	O	1.262356	0.396537	0.499841
C151	C	0.758979	-0.057233	-0.068812
C152	C	1.258979	0.442767	0.431188
H153	H	0.797741	-0.086210	-0.116802
H154	H	1.297741	0.413790	0.383198
H155	H	0.698001	-0.048243	-0.091862
H156	H	1.198001	0.451757	0.408138
H157	H	0.778464	0.000136	-0.053289
H158	H	1.278464	0.500136	0.446711
O159	O	0.759797	-0.259030	0.000081
O160	O	1.259797	0.240970	0.500081
C161	C	0.718148	-0.234196	0.068752
C162	C	1.218148	0.265804	0.568752
H163	H	0.738673	-0.179484	0.091645
H164	H	1.238673	0.320516	0.591645
H165	H	0.655102	-0.223123	0.053307
H166	H	1.155102	0.276877	0.553307
H167	H	0.726988	-0.279899	0.116832
H168	H	1.226988	0.220101	0.616832
O169	O	0.792340	0.203625	0.627655
O170	O	1.292340	0.703625	1.127655
C171	C	0.832782	0.250283	0.579384
C172	C	1.332782	0.750283	1.079384
H173	H	0.892054	0.220061	0.566863
H174	H	1.392054	0.720061	1.066863
H175	H	0.801161	0.262305	0.520711
H176	H	1.301161	0.762305	1.020711
H177	H	0.837832	0.306210	0.611542
H178	H	1.337832	0.806210	1.111542
H179	H	0.987409	0.008511	0.365672
H180	H	1.487409	0.508511	0.865672
O181	O	0.290978	-0.035936	0.000082
O182	O	0.790978	0.464064	0.500082
C183	C	0.277250	-0.078197	0.068754
C184	C	0.777250	0.421803	0.568754
H185	H	0.217330	-0.059501	0.091642
H186	H	0.717330	0.440499	0.591642
H187	H	0.282915	-0.141330	0.053312
H188	H	0.782915	0.358670	0.553312
H189	H	0.320405	-0.067935	0.116836
H190	H	0.820405	0.432065	0.616836
O191	O	1.025342	-0.692600	-0.000061
O192	O	1.525342	-0.192600	0.499939
C193	C	1.009310	-0.768780	-0.000046
C194	C	1.509310	-0.268780	0.499954
H195	H	0.949872	-0.771700	-0.025149
H196	H	1.449872	-0.271700	0.474851
H197	H	1.052883	-0.804616	-0.038537
H198	H	1.552883	-0.304616	0.461463
H199	H	1.012212	-0.791626	0.063556
H200	H	1.512212	-0.291626	0.563556
H201	H	0.764421	-0.651664	-0.000026
H202	H	1.264421	-0.151664	0.499974
O203	O	0.688404	-0.029532	0.000130
O204	O	1.188404	0.470468	0.500130
C205	C	0.734616	-0.032932	0.068785
C206	C	1.234616	0.467068	0.568785
H207	H	0.705627	0.005814	0.116778
H208	H	1.205627	0.505814	0.616778
H209	H	0.743601	-0.093918	0.091828
H210	H	1.243601	0.406082	0.591828
H211	H	0.791989	-0.013442	0.053267
H212	H	1.291989	0.486558	0.553267
H213	H	0.987447	0.008529	0.785678
H214	H	1.487447	0.508529	1.285678
H215	H	0.800314	0.195472	0.365691
H216	H	1.300314	0.695472	0.865691
H217	H	0.800300	0.195471	0.214291
H218	H	1.300300	0.695471	0.714291
H219	H	1.021028	-0.287541	-0.000014
H220	H	1.521028	0.212459	0.499986
O221	O	0.099484	0.233623	-0.000067
O222	O	0.599484	0.733623	0.499933
C223	C	0.143182	0.295317	-0.000051
C224	C	0.643182	0.795317	0.499949
H225	H	0.202140	0.275995	-0.025146
H226	H	0.702140	0.775995	0.474854
H227	H	0.113986	0.343190	-0.038547
H228	H	0.613986	0.843190	0.461453
H229	H	0.148755	0.316655	0.063551
H230	H	0.648755	0.816655	0.563551
H231	H	0.250230	0.225100	-0.000038
H232	H	0.750230	0.725100	0.499962
O233	O	0.652434	0.242306	-0.000055
O234	O	1.152434	0.742306	0.499945
C235	C	0.732536	0.228769	-0.000036
C236	C	1.232536	0.728769	0.499964
H237	H	0.751182	0.169673	-0.025132
H238	H	1.251182	0.669673	0.474868
H239	H	0.756700	0.273296	-0.038530
H240	H	1.256700	0.773296	0.461470
H241	H	0.754497	0.232393	0.063567
H242	H	1.254497	0.732393	0.563567
O243	O	0.496791	0.239954	-0.000057
O244	O	0.996791	0.739954	0.499943
C245	C	0.540486	0.301651	-0.000040
C246	C	1.040486	0.801651	0.499960
H247	H	0.599444	0.282332	-0.025134
H248	H	1.099444	0.782332	0.474866
H249	H	0.511287	0.349522	-0.038536
H250	H	1.011287	0.849522	0.461464
H251	H	0.546057	0.322989	0.063562
H252	H	1.046057	0.822989	0.563562
O253	O	0.532874	-0.032102	0.000026
O254	O	1.032874	0.467898	0.500026
C255	C	0.592715	-0.092143	0.000017
C256	C	1.092715	0.407857	0.500017
H257	H	0.646301	-0.071023	0.025116
H258	H	1.146301	0.428977	0.525116
H259	H	0.576299	-0.140742	0.038513
H260	H	1.076299	0.359258	0.538513
H261	H	0.603935	-0.113214	-0.063583
H262	H	1.103935	0.386786	0.436417
H263	H	0.766711	-0.508455	-0.000033
H264	H	1.266711	-0.008455	0.499967
