data_functionalizedCrystal
_audit_creation_method	'MofGen! by Chris Wilmer'
_symmetry_space_group_name_H-M	'P1'
_symmetry_Int_Tables_number	1
_symmetry_cell_setting	triclinic
loop_
_symmetry_equiv_pos_as_xyz
  x,y,z
_cell_length_a	12.759401
_cell_length_b	14.908520
_cell_length_c	12.759393
_cell_angle_alpha	93.262204
_cell_angle_beta	89.982620
_cell_angle_gamma	93.320696
loop_
_atom_site_label
_atom_site_type_symbol
_atom_site_fract_x
_atom_site_fract_y
_atom_site_fract_z
Zn1	Zn	1.582055	-0.359098	-0.618082
Zn2	Zn	1.571790	-0.509985	-0.452529
Zn3	Zn	1.406358	-0.359146	-0.442425
Zn4	Zn	1.396187	-0.509915	-0.628166
O5	O	1.489097	-0.434536	-0.535301
O6	O	1.727714	-0.379123	-0.596130
O7	O	1.549805	-0.490025	-0.304171
O8	O	1.438217	-0.232896	-0.457278
O9	O	1.720172	-0.489979	-0.474499
O10	O	1.567301	-0.232861	-0.586332
O11	O	1.428263	-0.379204	-0.296748
O12	O	1.257988	-0.379137	-0.467055
O13	O	1.420883	-0.489860	-0.773846
O14	O	1.250516	-0.489906	-0.603519
O15	O	1.557440	-0.379055	-0.766438
O16	O	1.539943	-0.636220	-0.484277
O17	O	1.410929	-0.636169	-0.613316
C18	C	1.216131	-0.434520	-0.535285
C19	C	1.099354	-0.434534	-0.535305
C20	C	1.040622	-0.492304	-0.606257
C21	C	0.930897	-0.492316	-0.606269
C22	C	0.938645	-0.376785	-0.464369
C23	C	1.048368	-0.376769	-0.464363
C24	C	1.036148	-0.559008	-0.688179
C25	C	0.926423	-0.559019	-0.688191
C26	C	1.473247	-0.668928	-0.551010
C27	C	1.466562	-0.769202	-0.557766
C28	C	1.588481	-0.957619	-0.436200
C29	C	1.582204	-1.051836	-0.442544
C30	C	1.447735	-1.051852	-0.576803
C31	C	1.454013	-0.957636	-0.570459
C32	C	1.524387	-0.910523	-0.500154
C33	C	1.530658	-0.816305	-0.493805
C34	C	1.396196	-0.816323	-0.628069
C35	C	1.389919	-0.910539	-0.634413
C36	C	1.763130	-0.434554	-0.535317
C37	C	1.879906	-0.434561	-0.535324
C38	C	1.489172	-0.434444	-0.809328
C39	C	1.489204	-0.434405	-0.926102
C40	C	1.505039	-0.199229	-0.519553
C41	C	1.511832	-0.098955	-0.512842
C42	C	1.425946	-0.376690	-0.977104
C43	C	1.425979	-0.376663	-1.086826
C44	C	1.552537	-0.492069	-1.094536
C45	C	1.552498	-0.492100	-0.984815
C46	C	1.352882	-0.310059	-0.972654
C47	C	1.352915	-0.310032	-1.082376
C48	C	1.489088	-0.434563	-0.262335
C49	C	1.489277	-0.434348	-0.145545
H50	H	0.891923	-0.628873	-0.670947
H51	H	1.270232	-0.328769	-0.944132
O52	O	1.073251	-0.536938	-0.783842
C53	C	1.129845	-0.608027	-0.828412
H54	H	1.102757	-0.673444	-0.791948
H55	H	1.115283	-0.614849	-0.916729
H56	H	1.217258	-0.593275	-0.812601
O57	O	1.071349	-0.638217	-0.658732
C58	C	1.032362	-0.708830	-0.728820
H59	H	1.011756	-0.680549	-0.806875
H60	H	1.094732	-0.760009	-0.742060
H61	H	0.959073	-0.743032	-0.694203
H62	H	0.894104	-0.534080	-0.763869
H63	H	1.587958	-0.777946	-0.436557
O64	O	1.656919	-0.911988	-0.367878
C65	C	1.712120	-0.973761	-0.312763
H66	H	1.711269	-1.040891	-0.360319
H67	H	1.796719	-0.946480	-0.299781
H68	H	1.673011	-0.983864	-0.233621
H69	H	1.634398	-1.090178	-0.390468
H70	H	1.332625	-0.948912	-0.691656
H71	H	1.604070	-0.539041	-1.142353
O72	O	1.258709	-0.339745	-1.125106
C73	C	1.218362	-0.271442	-1.182690
H74	H	1.285504	-0.223133	-1.206658
H75	H	1.176585	-0.302910	-1.255958
H76	H	1.160372	-0.233051	-1.132020
O77	O	1.613783	-0.548267	-0.935234
C78	C	1.549992	-0.606529	-0.875645
H79	H	1.466879	-0.612076	-0.909083
H80	H	1.583274	-0.675964	-0.879045
H81	H	1.548239	-0.578662	-0.790625
H82	H	1.390447	-1.090228	-0.634049
O83	O	1.334082	-0.770535	-0.690309
C84	C	1.397484	-0.715925	-0.754529
H85	H	1.478342	-0.744245	-0.763007
H86	H	1.359504	-0.714835	-0.835273
H87	H	1.405874	-0.644539	-0.717241
H88	H	1.386516	-0.243701	-0.934184
O89	O	1.384464	-0.226607	-1.112211
C90	C	1.314960	-0.163471	-1.071093
H91	H	1.273367	-0.190898	-0.999533
H92	H	1.360970	-0.097674	-1.047131
H93	H	1.254341	-0.150787	-1.133363
H94	H	0.897120	-0.329754	-0.406611
H95	H	1.096184	-0.329721	-0.406594
