data_functionalizedCrystal
_audit_creation_method	'MofGen! by Chris Wilmer'
_symmetry_space_group_name_H-M	'P1'
_symmetry_Int_Tables_number	1
_symmetry_cell_setting	triclinic
loop_
_symmetry_equiv_pos_as_xyz
  x,y,z
_cell_length_a	12.759394
_cell_length_b	12.759401
_cell_length_c	12.759393
_cell_angle_alpha	90.019003
_cell_angle_beta	89.967501
_cell_angle_gamma	89.989193
loop_
_atom_site_label
_atom_site_type_symbol
_atom_site_fract_x
_atom_site_fract_y
_atom_site_fract_z
Zn1	Zn	-0.418315	-1.606243	-0.594021
Zn2	Zn	-0.594035	-1.606140	-0.418339
Zn3	Zn	-0.418358	-1.430548	-0.418356
Zn4	Zn	-0.593941	-1.430533	-0.593976
O5	O	-0.506162	-1.518366	-0.506173
O6	O	-0.441647	-1.753250	-0.570729
O7	O	-0.570788	-1.582811	-0.271320
O8	O	-0.271331	-1.453904	-0.441684
O9	O	-0.570747	-1.753175	-0.441656
O10	O	-0.271300	-1.582986	-0.570745
O11	O	-0.441719	-1.453804	-0.271333
O12	O	-0.441628	-1.283525	-0.441640
O13	O	-0.570586	-1.453878	-0.741003
O14	O	-0.570628	-1.283514	-0.570667
O15	O	-0.441555	-1.582971	-0.741037
O16	O	-0.741044	-1.582796	-0.441612
O17	O	-0.740974	-1.453778	-0.570651
C18	C	-0.506123	-1.245399	-0.506151
C19	C	-0.506131	-1.128622	-0.506167
C20	C	-0.439033	-1.073792	-0.573478
C21	C	-0.439047	-0.964068	-0.573481
C22	C	-0.573268	-0.964013	-0.438860
C23	C	-0.573247	-1.073735	-0.438852
C24	C	-0.361545	-1.073823	-0.651203
C25	C	-0.361559	-0.964099	-0.651207
C26	C	-0.779130	-1.518303	-0.506148
C27	C	-0.895906	-1.518372	-0.506172
C28	C	-0.895925	-1.652819	-0.371904
C29	C	-0.950795	-1.720070	-0.304782
C30	C	-1.060517	-1.720132	-0.304811
C31	C	-1.115371	-1.652937	-0.371971
C32	C	-1.060501	-1.585686	-0.439092
C33	C	-0.950777	-1.585630	-0.439054
C34	C	-1.060482	-1.451246	-0.573364
C35	C	-0.950760	-1.451178	-0.573332
C36	C	-1.115336	-1.384052	-0.640524
C37	C	-1.060466	-1.316794	-0.707642
C38	C	-0.950737	-1.316734	-0.707609
C39	C	-0.895890	-1.383927	-0.640453
C40	C	-0.232129	-1.518458	-0.506222
C41	C	-0.115352	-1.518497	-0.506242
C42	C	-0.506055	-1.518434	-0.780207
C43	C	-0.506010	-1.518463	-0.896983
C44	C	-0.506189	-0.792399	-0.506189
C45	C	-0.506166	-0.909176	-0.506178
C46	C	-0.438791	-1.451318	-0.951858
C47	C	-0.438760	-1.451350	-1.061582
C48	C	-0.573169	-1.585681	-1.061548
C49	C	-0.573205	-1.585643	-0.951825
C50	C	-0.361188	-1.373766	-0.951878
C51	C	-0.361157	-1.373798	-1.061603
C52	C	-0.506193	-1.518359	-0.233206
C53	C	-0.505943	-1.518533	-0.116430
H54	H	-0.280143	-1.103591	-0.629551
C55	C	-0.308963	-0.862902	-0.800849
C56	C	-0.391062	-0.923843	-0.760982
H57	H	-0.327158	-0.838030	-0.868613
H58	H	-0.296810	-0.805046	-0.755602
H59	H	-0.247244	-0.904310	-0.805385
H60	H	-0.452779	-0.882433	-0.756439
H61	H	-0.403228	-0.981707	-0.806240
H62	H	-0.627956	-1.640304	-0.907151
H63	H	-0.390779	-1.107887	-0.728442
H64	H	-0.279776	-1.395615	-1.091402
H65	H	-0.806584	-1.652762	-0.371860
C66	C	-0.782604	-1.779670	-0.245099
C67	C	-0.890498	-1.793925	-0.230959
H68	H	-0.745385	-1.825262	-0.199519
H69	H	-0.764556	-1.795008	-0.315687
H70	H	-0.764700	-1.709073	-0.229662
H71	H	-0.908405	-1.864520	-0.246404
H72	H	-0.908555	-1.778594	-0.160355
H73	H	-1.204677	-1.384111	-0.640547
C74	C	-0.481636	-1.270397	-0.850666
C75	C	-0.390605	-1.263903	-0.911660
H76	H	-0.499791	-1.202575	-0.825833
H77	H	-0.537306	-1.297417	-0.892015
H78	H	-0.469537	-1.315594	-0.792774
H79	H	-0.402707	-1.218713	-0.969557
H80	H	-0.334922	-1.236869	-0.870310
C81	C	-0.714526	-1.197120	-0.423982
C82	C	-0.646997	-1.134006	-0.364855
H83	H	-0.760052	-1.234332	-0.378295
H84	H	-0.754777	-1.154334	-0.469676
H85	H	-0.674542	-1.245511	-0.464062
H86	H	-0.686981	-1.085610	-0.324781
H87	H	-0.606742	-1.176795	-0.319143
H88	H	-0.627875	-1.640378	-1.106213
C89	C	-0.632896	-0.795792	-0.379097
C90	C	-0.647046	-0.903678	-0.364878
H91	H	-0.678452	-0.758547	-0.333427
H92	H	-0.562299	-0.777812	-0.363842
H93	H	-0.648359	-0.777847	-0.449665
H94	H	-0.631576	-0.921623	-0.294311
H95	H	-0.717660	-0.921665	-0.380126
H96	H	-1.105192	-1.774898	-0.250160
H97	H	-1.204712	-1.653003	-0.371997
C98	C	-0.188600	-0.999856	-0.586347
C99	C	-0.257172	-0.918134	-0.612061
H100	H	-0.124157	-0.971475	-0.562184
H101	H	-0.218932	-1.041729	-0.532794
H102	H	-0.176191	-1.041778	-0.646631
H103	H	-0.269587	-0.876217	-0.551773
H104	H	-0.226833	-0.876244	-0.665618
H105	H	-1.105136	-1.262095	-0.762322
H106	H	-0.906068	-1.261975	-0.762272
C107	C	-0.188320	-1.439017	-0.987696
C108	C	-0.256868	-1.413127	-0.905949
H109	H	-0.123918	-1.463312	-0.959338
H110	H	-0.218724	-1.492516	-1.029581
H111	H	-0.175819	-1.378772	-1.029599
H112	H	-0.269377	-1.473374	-0.864051
H113	H	-0.226459	-1.359624	-0.864047
C114	C	-0.503197	-1.250938	-1.073592
C115	C	-0.400465	-1.269449	-1.107531
H116	H	-0.527463	-1.186516	-1.101940
H117	H	-0.547255	-1.306352	-1.096578
H118	H	-0.504538	-1.247374	-0.999236
H119	H	-0.399125	-1.273020	-1.181887
H120	H	-0.356396	-1.214020	-1.084551
C121	C	-0.738821	-1.357115	-0.540437
C122	C	-0.775282	-1.383866	-0.640414
H123	H	-0.664362	-1.357088	-0.540413
H124	H	-0.763699	-1.289341	-0.522238
H125	H	-0.763661	-1.406786	-0.490860
H126	H	-0.750448	-1.334190	-0.689991
H127	H	-0.750394	-1.451650	-0.658626
