data_functionalizedCrystal
_audit_creation_method	'MofGen! by Chris Wilmer'
_symmetry_space_group_name_H-M	'P1'
_symmetry_Int_Tables_number	1
_symmetry_cell_setting	triclinic
loop_
_symmetry_equiv_pos_as_xyz
  x,y,z
_cell_length_a	11.026607
_cell_length_b	11.792254
_cell_length_c	10.065875
_cell_angle_alpha	98.849918
_cell_angle_beta	79.302338
_cell_angle_gamma	96.392307
loop_
_atom_site_label
_atom_site_type_symbol
_atom_site_fract_x
_atom_site_fract_y
_atom_site_fract_z
O1	O	1.630988	0.462837	-0.113504
O2	O	2.130988	0.962837	0.386496
O3	O	1.277323	0.408645	-0.113505
O4	O	1.777323	0.908645	0.386495
O5	O	1.462728	0.272276	-0.113495
O6	O	1.962728	0.772276	0.386505
O7	O	1.445582	0.599207	-0.113514
O8	O	1.945582	1.099207	0.386486
O9	O	1.427375	0.298413	0.113492
O10	O	1.927375	0.798413	0.613492
O11	O	1.241969	0.434783	0.113482
O12	O	1.741969	0.934783	0.613482
O13	O	1.595634	0.488975	0.113483
O14	O	2.095634	0.988975	0.613483
Zn15	Zn	1.413189	0.466029	0.149521
Zn16	Zn	1.913189	0.966029	0.649521
Zn17	Zn	1.459768	0.431592	-0.149544
Zn18	Zn	1.959768	0.931592	0.350456
O19	O	1.410229	0.625345	0.113473
O20	O	1.910229	1.125345	0.613473
C21	C	1.214369	0.411717	-0.000011
C22	C	1.714369	0.911717	0.499989
C23	C	1.079457	0.381914	-0.000011
C24	C	1.579457	0.881914	0.499989
C25	C	1.443971	0.242839	-0.000002
C26	C	1.943971	0.742839	0.499998
C27	C	1.440738	0.116184	-0.000003
C28	C	1.940738	0.616184	0.499997
C29	C	1.006198	0.464204	-0.000017
C30	C	1.506198	0.964204	0.499983
C31	C	0.866760	0.433403	-0.000017
C32	C	1.366760	0.933403	0.499983
C33	C	1.438112	0.013325	-0.000008
C34	C	1.938112	0.513325	0.499992
C35	C	1.434829	-0.115715	-0.000021
C36	C	1.934829	0.384285	0.499979
C37	C	1.658589	0.485903	-0.000014
C38	C	2.158589	0.985903	0.499986
C39	C	1.793502	0.515705	-0.000023
C40	C	2.293502	1.015705	0.499977
C41	C	1.428986	0.654781	-0.000023
C42	C	1.928986	1.154781	0.499977
C43	C	1.432221	0.781435	-0.000031
C44	C	1.932221	1.281435	0.499969
N45	N	1.381408	0.489532	0.353625
N46	N	1.881408	0.989532	0.853625
N47	N	1.491559	0.408081	-0.353647
N48	N	1.991559	0.908081	0.146353
C49	C	1.448703	0.439760	0.421408
C50	C	1.948703	0.939760	0.921408
C51	C	1.424254	0.457860	0.578574
C52	C	1.924254	0.957860	1.078574
H53	H	1.046707	0.557458	-0.000015
H54	H	1.546707	1.057458	0.499985
H55	H	0.826260	0.340139	-0.000047
H56	H	1.326260	0.840139	0.499953
F57	F	1.325276	0.531069	0.654794
F58	F	1.825276	1.031069	1.154794
H59	H	1.524414	0.383744	0.363087
H60	H	2.024414	0.883744	0.863087
H61	H	1.038952	0.288656	-0.000041
H62	H	1.538952	0.788656	0.499959
H63	H	0.834003	0.608966	-0.000019
H64	H	1.334003	1.108966	0.499981
F65	F	1.590735	0.335095	0.570135
F66	F	2.090735	0.835095	1.070135
H67	H	1.305689	0.545539	0.411947
H68	H	1.805689	1.045539	0.911947
