data_functionalizedCrystal
_audit_creation_method	'MofGen! by Chris Wilmer'
_symmetry_space_group_name_H-M	'P1'
_symmetry_Int_Tables_number	1
_symmetry_cell_setting	triclinic
loop_
_symmetry_equiv_pos_as_xyz
  x,y,z
_cell_length_a	15.944551
_cell_length_b	26.210047
_cell_length_c	15.944551
_cell_angle_alpha	89.996450
_cell_angle_beta	83.498738
_cell_angle_gamma	90.004547
loop_
_atom_site_label
_atom_site_type_symbol
_atom_site_fract_x
_atom_site_fract_y
_atom_site_fract_z
O1	O	1.114531	0.042377	0.108320
O2	O	0.869981	0.042390	0.121676
O3	O	0.998934	0.042378	-0.007277
O4	O	0.985578	0.042388	0.237273
O5	O	0.998909	-0.042480	-0.007257
O6	O	0.869956	-0.042468	0.121696
O7	O	1.114506	-0.042481	0.108340
Cu8	Cu	0.992229	-0.050223	0.115020
Cu9	Cu	0.992258	0.050132	0.114996
O10	O	0.985553	-0.042470	0.237293
C11	C	0.838675	-0.000038	0.121132
C12	C	0.745429	-0.000033	0.119470
N13	N	0.992214	-0.120807	0.115036
C14	C	0.530572	-0.000046	0.035565
C15	C	0.469564	0.041795	0.074518
C16	C	0.574703	-0.000039	0.116462
C17	C	0.469562	-0.041869	0.074557
C18	C	0.409790	-0.000047	0.113551
C19	C	0.514923	0.041837	0.155437
C20	C	0.514927	-0.041864	0.155465
C21	C	0.453937	-0.000013	0.194476
C22	C	0.669705	-0.000034	0.118137
C23	C	0.314789	-0.000049	0.111883
C24	C	1.049353	-0.473326	0.057909
C25	C	1.049372	-0.686985	0.057897
O26	O	1.097920	-0.714611	0.009329
N27	N	0.992263	-0.713701	0.114978
C28	C	0.935142	-0.686999	0.172062
O29	O	0.886562	-0.714625	0.220606
C30	C	0.935120	-0.473342	0.172069
C31	C	0.992238	-0.446628	0.114990
C32	C	1.106466	-0.446612	0.000834
C33	C	1.106464	-0.393201	0.000841
C34	C	1.049349	-0.366503	0.057922
C35	C	0.992236	-0.393217	0.114997
C36	C	0.877996	-0.446641	0.229148
C37	C	0.877994	-0.393223	0.229143
C38	C	0.935112	-0.366510	0.172065
C39	C	0.935119	-0.313107	0.172084
N40	N	0.992228	-0.286391	0.115004
C41	C	1.049342	-0.313089	0.057923
C42	C	0.935159	-0.799172	0.172055
C43	C	0.935165	-0.852587	0.172055
C44	C	1.049394	-0.852568	0.057889
C45	C	1.049391	-0.799153	0.057894
C46	C	0.992267	-0.772456	0.114975
C47	C	1.049334	-0.200921	0.057941
C48	C	1.049329	-0.147505	0.057955
C49	C	0.935098	-0.147528	0.172118
C50	C	0.935105	-0.200939	0.172107
C51	C	0.992227	-0.227635	0.115012
O52	O	0.886589	-0.285448	0.220621
O53	O	1.097902	-0.285453	0.009373
C54	C	1.049355	-0.526737	0.057902
C55	C	0.992242	-0.553451	0.114977
C56	C	0.935128	-0.526753	0.172058
C57	C	0.992249	-0.606865	0.114976
C58	C	1.049364	-0.633563	0.057895
C59	C	1.106472	-0.606847	0.000814
C60	C	1.106470	-0.553435	0.000821
C61	C	0.878019	-0.553469	0.229139
C62	C	0.878026	-0.606881	0.229128
C63	C	0.935141	-0.633579	0.172047
C64	C	1.145813	-0.000053	0.108885
C65	C	1.239059	-0.000054	0.110547
C66	C	0.998367	-0.000051	-0.038561
C67	C	0.996705	-0.000051	-0.131807
N68	N	0.992280	0.120715	0.114973
C69	C	0.912801	-0.000039	-0.346663
C70	C	0.951751	-0.041882	-0.407671
C71	C	0.993698	-0.000047	-0.302533
C72	C	0.951794	0.041782	-0.407674
C73	C	0.990787	-0.000041	-0.467445
C74	C	1.032670	-0.041924	-0.362312
C75	C	1.032702	0.041777	-0.362309
C76	C	1.071711	-0.000075	-0.423298
C77	C	0.995372	-0.000051	-0.207530
C78	C	0.989119	-0.000040	-0.562446
C79	C	0.986120	-0.000040	0.268577
C80	C	0.987782	-0.000036	0.361823
H81	H	0.563905	0.000003	-0.031573
F82	F	0.443294	0.088028	0.029786
F83	F	0.817202	-0.475062	0.289898
F84	F	0.907066	0.088015	-0.433945
F85	F	0.541059	0.088123	0.200116
F86	F	0.825033	-0.000087	-0.303129
H87	H	0.420779	0.000013	0.261683
H88	H	1.152975	-0.468345	-0.045652
F89	F	0.541230	-0.088099	0.200162
H90	H	1.095900	-0.874315	0.011412
H91	H	0.449466	-0.077241	0.040334
F92	F	1.110126	-0.119077	-0.002797
H93	H	1.066900	0.077150	-0.342187
F94	F	1.110129	-0.229324	-0.002826
H95	H	1.152972	-0.371454	-0.045640
H96	H	0.888663	-0.874333	0.218542
F97	F	1.110182	-0.770728	-0.002857
F98	F	0.874322	-0.229369	0.232866
H99	H	0.917524	-0.077252	-0.427771
F100	F	0.874358	-0.770765	0.232813
H101	H	1.152980	-0.628593	-0.045661
H102	H	0.831475	-0.371489	0.275624
F103	F	0.874316	-0.119106	0.232867
F104	F	1.167262	-0.525011	-0.059931
F105	F	0.817227	-0.525061	0.289895
F106	F	0.817234	-0.635306	0.289887
H107	H	1.066847	-0.077337	-0.342313
F108	F	1.159555	-0.000109	-0.466641
