data_functionalizedCrystal
_audit_creation_method	'MofGen! by Chris Wilmer'
_symmetry_space_group_name_H-M	'P1'
_symmetry_Int_Tables_number	1
_symmetry_cell_setting	triclinic
loop_
_symmetry_equiv_pos_as_xyz
  x,y,z
_cell_length_a	21.295419
_cell_length_b	21.295418
_cell_length_c	21.295411
_cell_angle_alpha	90.043738
_cell_angle_beta	89.994293
_cell_angle_gamma	89.985077
loop_
_atom_site_label
_atom_site_type_symbol
_atom_site_fract_x
_atom_site_fract_y
_atom_site_fract_z
Zn1	Zn	0.250415	0.962493	0.356303
Zn2	Zn	0.355667	0.962453	0.251058
Zn3	Zn	0.250445	0.857216	0.251013
Zn4	Zn	0.355679	0.857243	0.356255
O5	O	0.303052	0.909851	0.303657
O6	O	0.264359	1.050577	0.342382
O7	O	0.341716	0.948465	0.162963
O8	O	0.162351	0.871187	0.264982
O9	O	0.341687	1.050548	0.265058
O10	O	0.162330	0.948533	0.342338
O11	O	0.264410	0.871148	0.162930
O12	O	0.264422	0.769130	0.264934
O13	O	0.341709	0.871233	0.444350
O14	O	0.341737	0.769150	0.342255
O15	O	0.264372	0.948559	0.444386
O16	O	0.443758	0.948492	0.265011
O17	O	0.443767	0.871194	0.342298
C18	C	0.303085	0.746300	0.303585
C19	C	0.303114	0.676332	0.303569
C20	C	0.138861	0.909861	0.303660
C21	C	0.068893	0.909866	0.303662
C22	C	-0.430555	0.869642	0.263423
C23	C	-0.364812	0.869638	0.263415
C24	C	-0.331946	0.909903	0.303688
C25	C	-0.364829	0.950188	0.343961
C26	C	-0.430570	0.950196	0.343964
N27	N	-0.228730	0.914738	0.358788
N28	N	-0.166279	0.914727	0.358783
C29	C	-0.133872	0.909883	0.303681
N30	N	-0.166275	0.905039	0.248582
N31	N	-0.228732	0.905047	0.248587
C32	C	-0.260661	0.909900	0.303689
C33	C	-0.029712	0.869599	0.263398
C34	C	0.036032	0.869599	0.263389
C35	C	0.036014	0.950146	0.343941
C36	C	-0.029728	0.950149	0.343944
C37	C	-0.062587	0.909873	0.303674
C38	C	0.343425	0.643492	0.343769
C39	C	0.343410	0.577749	0.343798
C40	C	0.303090	0.544849	0.303614
C41	C	0.262770	0.577697	0.263411
C42	C	0.262782	0.643438	0.263388
N43	N	0.298162	0.441571	0.248555
N44	N	0.298155	0.379119	0.248578
C45	C	0.303049	0.346775	0.303681
N46	N	0.307965	0.379241	0.358760
N47	N	0.307976	0.441698	0.358736
C48	C	0.303072	0.473564	0.303634
C49	C	0.343346	0.242649	0.343915
C50	C	0.343326	0.176906	0.343945
C51	C	0.262690	0.176854	0.263552
C52	C	0.262707	0.242597	0.263529
C53	C	0.303038	0.275490	0.303709
C54	C	0.466603	0.909859	0.303668
C55	C	0.536571	0.909919	0.303694
C56	C	0.303038	0.909904	0.467848
C57	C	0.303033	0.909926	0.537816
C58	C	0.303019	1.074042	0.303730
C59	C	0.303005	1.144010	0.303762
C60	C	0.303019	0.909836	0.140106
C61	C	0.302848	0.909935	0.070138
C62	C	0.262761	0.950188	0.570702
C63	C	0.262734	0.950187	0.636445
C64	C	0.302989	0.909931	0.669298
C65	C	0.343263	0.869661	0.636404
C66	C	0.343285	0.869658	0.570663
N67	N	0.358058	0.905104	0.772527
N68	N	0.358036	0.905110	0.834979
C69	C	0.302925	0.909935	0.867373
N70	N	0.247837	0.914765	0.834957
N71	N	0.247860	0.914763	0.772499
C72	C	0.302970	0.909929	0.740584
C73	C	0.262621	0.950198	0.971545
C74	C	0.262593	0.950193	1.037289
C75	C	0.343128	0.869670	1.037247
C76	C	0.343150	0.869672	0.971504
C77	C	0.302898	0.909939	0.938657
H78	H	-0.457306	0.836848	0.230632
C79	C	0.218987	0.993974	0.672047
C80	C	0.183751	1.029248	0.629209
C81	C	0.143452	1.069596	0.661981
H82	H	0.191499	0.969970	0.697673
H83	H	0.243045	1.021432	0.697703
H84	H	0.159695	1.001793	0.603564
H85	H	0.211223	1.053264	0.603582
H86	H	0.167511	1.097054	0.687637
H87	H	0.115968	1.045587	0.687606
H88	H	0.119544	1.093538	0.632921
H89	H	-0.457337	0.982995	0.376757
H90	H	-0.056467	0.836805	0.230606
C91	C	-0.329185	0.994007	0.387615
C92	C	-0.345169	1.056289	0.373927
C93	C	-0.312343	1.096674	0.414125
H94	H	-0.339939	0.984890	0.429928
H95	H	-0.285317	0.988276	0.381846
H96	H	-0.389028	1.062017	0.379702
H97	H	-0.334414	1.065425	0.331622
H98	H	-0.268474	1.090943	0.408356
H99	H	-0.323099	1.087552	0.456435
H100	H	-0.323179	1.138937	0.404840
C101	C	0.219046	0.278335	0.219838
C102	C	0.254637	0.316028	0.179432
C103	C	0.214436	0.348964	0.139181
H104	H	0.195016	0.249399	0.195849
H105	H	0.191668	0.304057	0.243934
H106	H	0.282004	0.290308	0.155339
H107	H	0.278666	0.344976	0.203404
H108	H	0.187058	0.374686	0.163277
H109	H	0.190408	0.320023	0.115196
H110	H	0.238578	0.374547	0.111765
H111	H	0.376078	0.836869	0.543887
C112	C	0.386918	0.826069	1.072938
C113	C	0.427256	0.861714	1.110701
C114	C	0.467612	0.821570	1.143583
H115	H	0.362914	0.798627	1.098611
H116	H	0.410945	0.802105	1.043950
H117	H	0.403232	0.885667	1.139685
H118	H	0.451274	0.889154	1.085043
H119	H	0.491639	0.797606	1.114595
H120	H	0.443603	0.794130	1.169252
H121	H	0.494990	0.845749	1.169204
C122	C	0.386947	0.825937	0.935908
C123	C	0.422207	0.790691	0.978749
C124	C	0.462564	0.750397	0.945981
H125	H	0.362950	0.798455	0.910235
H126	H	0.414413	0.849999	0.910300
H127	H	0.394744	0.766630	1.004347
H128	H	0.446217	0.818156	1.004423
H129	H	0.490030	0.774460	0.920372
H130	H	0.438561	0.722920	0.920309
H131	H	0.486496	0.726482	0.975043
C132	C	-0.329078	0.826008	0.219615
C133	C	-0.291348	0.861627	0.179268
C134	C	-0.258430	0.821457	0.138906
H135	H	-0.303379	0.798576	0.243615
H136	H	-0.358044	0.802035	0.195596
H137	H	-0.262385	0.885590	0.203284
H138	H	-0.317031	0.889057	0.155254
H139	H	-0.287397	0.797484	0.114886
H140	H	-0.232735	0.794028	0.162911
H141	H	-0.232831	0.845619	0.111522
C142	C	0.219101	0.541949	0.219700
C143	C	0.254681	0.504163	0.179297
C144	C	0.214472	0.471231	0.139016
H145	H	0.191691	0.516287	0.243755
H146	H	0.195106	0.570907	0.195716
H147	H	0.278665	0.475208	0.203278
H148	H	0.282089	0.529808	0.155228
H149	H	0.190477	0.500189	0.115032
H150	H	0.187064	0.445573	0.163076
H151	H	0.238607	0.445593	0.111594
C152	C	0.386948	0.826024	0.672184
C153	C	0.378324	0.834657	0.736797
C154	C	0.418560	0.794472	0.769776
H155	H	0.377788	0.783703	0.661456
H156	H	0.429258	0.835240	0.661461
H157	H	0.336023	0.825436	0.747516
H158	H	0.387488	0.876970	0.747544
H159	H	0.460871	0.803689	0.759053
H160	H	0.409397	0.752154	0.759043
H161	H	0.412719	0.800328	0.813619
H162	H	0.062797	0.836802	0.230592
H163	H	0.376266	0.670270	0.376489
H164	H	0.376152	0.150168	0.376685
H165	H	0.062773	0.982933	0.376729
C166	C	0.218999	0.141029	0.219929
C167	C	0.227633	0.076426	0.228534
C168	C	0.187407	0.043401	0.188346
H169	H	0.176687	0.151747	0.229146
H170	H	0.228176	0.151725	0.177608
H171	H	0.218451	0.065734	0.270845
H172	H	0.269936	0.065688	0.219312
H173	H	0.196584	0.054097	0.146025
H174	H	0.145098	0.054124	0.197566
H175	H	0.193264	-0.000436	0.194175
C176	C	0.218762	0.993872	1.072913
C177	C	0.156488	0.980184	1.056878
C178	C	0.116093	1.020415	1.089676
H179	H	0.224422	0.988148	1.116781
H180	H	0.227936	1.036177	1.062159
H181	H	0.147317	0.937890	1.067637
H182	H	0.150808	0.985912	1.013016
H183	H	0.125268	1.062719	1.078922
H184	H	0.121759	1.014687	1.133543
H185	H	0.073837	1.011137	1.078797
C186	C	-0.065311	0.993899	0.387742
C187	C	-0.022461	1.029151	0.423022
C188	C	-0.055216	1.069456	0.463380
H189	H	-0.090962	1.021376	0.363744
H190	H	-0.090941	0.969845	0.415195
H191	H	0.003159	1.053203	0.395572
H192	H	0.003192	1.001690	0.447032
H193	H	-0.080846	1.045402	0.490833
H194	H	-0.080866	1.096930	0.439377
H195	H	-0.026147	1.093375	0.487326
H196	H	0.376236	0.551006	0.376536
H197	H	0.229954	0.670176	0.230652
H198	H	0.376183	0.269433	0.376636
H199	H	0.229842	0.982983	0.944800
H200	H	0.229984	0.982976	0.543962
