data_functionalizedCrystal
_audit_creation_method	'MofGen! by Chris Wilmer'
_symmetry_space_group_name_H-M	'P1'
_symmetry_Int_Tables_number	1
_symmetry_cell_setting	triclinic
loop_
_symmetry_equiv_pos_as_xyz
  x,y,z
_cell_length_a	13.033293
_cell_length_b	13.032868
_cell_length_c	13.034296
_cell_angle_alpha	89.135208
_cell_angle_beta	76.645775
_cell_angle_gamma	74.808508
loop_
_atom_site_label
_atom_site_type_symbol
_atom_site_fract_x
_atom_site_fract_y
_atom_site_fract_z
Zn1	Zn	1.689338	0.097706	-0.818224
Zn2	Zn	2.022671	0.431040	-0.484891
Zn3	Zn	2.356005	0.764373	-0.151558
Zn4	Zn	1.644043	0.297934	-0.663120
Zn5	Zn	1.977376	0.631268	-0.329787
Zn6	Zn	2.310709	0.964601	0.003547
Zn7	Zn	1.483375	0.148594	-0.623742
Zn8	Zn	1.816709	0.481927	-0.290408
Zn9	Zn	2.150042	0.815261	0.042925
Zn10	Zn	1.489069	0.297835	-0.818092
Zn11	Zn	1.822403	0.631168	-0.484758
Zn12	Zn	2.155736	0.964502	-0.151425
O13	O	1.576456	0.210517	-0.730794
O14	O	1.909790	0.543851	-0.397461
O15	O	2.243123	0.877184	-0.064128
O16	O	1.834382	0.103012	-0.814185
O17	O	2.167715	0.436345	-0.480851
O18	O	2.501049	0.769679	-0.147518
O19	O	1.601390	0.299462	-0.511648
O20	O	1.934724	0.632796	-0.178315
O21	O	2.268057	0.966129	0.155018
O22	O	1.527270	-0.004410	-0.633116
O23	O	1.860603	0.328923	-0.299782
O24	O	2.193937	0.662256	0.033551
O25	O	1.801104	0.250119	-0.700230
O26	O	2.134437	0.583452	-0.366897
O27	O	2.467770	0.916785	-0.033564
O28	O	1.678590	-0.041797	-0.776001
O29	O	2.011923	0.291536	-0.442668
O30	O	2.345256	0.624869	-0.109335
O31	O	1.483349	0.189743	-0.482717
O32	O	1.816682	0.523076	-0.149384
O33	O	2.150016	0.856409	0.183950
O34	O	1.333078	0.189646	-0.632987
O35	O	1.666411	0.522980	-0.299654
O36	O	1.999745	0.856313	0.033680
O37	O	1.536975	0.249949	-0.964357
O38	O	1.870308	0.583283	-0.631024
O39	O	2.203641	0.916616	-0.297691
O40	O	1.337261	0.299293	-0.775775
O41	O	1.670595	0.632626	-0.442442
O42	O	2.003928	0.965960	-0.109109
O43	O	1.684111	0.102916	-0.964455
O44	O	2.017444	0.436249	-0.631121
O45	O	2.350778	0.769582	-0.297788
O46	O	1.606912	0.444175	-0.700102
O47	O	1.940245	0.777509	-0.366769
O48	O	2.273578	1.110842	-0.033435
O49	O	1.493054	0.444102	-0.813959
O50	O	1.826387	0.777436	-0.480626
O51	O	2.159720	1.110769	-0.147292
C52	C	1.296003	0.249982	-0.700094
C53	C	1.629337	0.583315	-0.366761
C54	C	1.962670	0.916648	-0.033428
C55	C	1.176025	0.266886	-0.686989
C56	C	1.509359	0.600219	-0.353655
C57	C	1.842692	0.933553	-0.020322
C58	C	1.139004	0.201721	-0.737637
C59	C	1.472337	0.535055	-0.404304
C60	C	1.805670	0.868388	-0.070971
C61	C	1.015000	0.219191	-0.724093
C62	C	1.348334	0.552525	-0.390760
C63	C	1.681667	0.885858	-0.057426
C64	C	1.545718	0.482053	-0.761315
C65	C	1.879051	0.815387	-0.427982
C66	C	2.212385	1.148720	-0.094648
C67	C	1.532672	0.598198	-0.774418
C68	C	1.866005	0.931532	-0.441084
C69	C	2.199339	1.264865	-0.107751
C70	C	1.583255	0.649966	-0.723979
C71	C	1.916589	0.983299	-0.390646
C72	C	2.249922	1.316633	-0.057312
C73	C	1.569773	0.770008	-0.737520
C74	C	1.903106	1.103342	-0.404187
C75	C	2.236439	1.436675	-0.070853
C76	C	1.858004	0.170900	-0.761615
C77	C	2.191338	0.504233	-0.428282
C78	C	2.524671	0.837567	-0.094948
C79	C	1.977983	0.154017	-0.774749
C80	C	2.311317	0.487351	-0.441415
C81	C	2.644650	0.820684	-0.108082
C82	C	1.607310	0.937921	-0.700165
C83	C	1.940643	1.271254	-0.366832
C84	C	2.273977	1.604587	-0.033499
C85	C	1.620363	0.821773	-0.687074
C86	C	1.953696	1.155106	-0.353741
C87	C	2.287030	1.488440	-0.020407
C88	C	1.616231	0.170745	-1.003387
C89	C	1.949564	0.504078	-0.670053
C90	C	2.282897	0.837412	-0.336720
C91	C	1.633180	0.153796	-1.119549
C92	C	1.966513	0.487130	-0.786216
C93	C	2.299847	0.820463	-0.452883
C94	C	1.567937	0.218989	-1.171290
C95	C	1.901270	0.552323	-0.837957
C96	C	2.234603	0.885656	-0.504624
C97	C	1.585453	0.201474	-1.291350
C98	C	1.918786	0.534807	-0.958017
C99	C	2.252120	0.868140	-0.624684
C100	C	1.536907	0.250051	-0.459261
C101	C	1.870241	0.583384	-0.125927
C102	C	2.203574	0.916718	0.207406
C103	C	1.520200	0.266676	-0.343088
C104	C	1.853534	0.600009	-0.009755
C105	C	2.186867	0.933343	0.323578
H106	H	0.954895	0.287917	-0.670697
H107	H	1.288229	0.621251	-0.337364
H108	H	1.621562	0.954584	-0.004031
H109	H	1.499115	0.287774	-1.126704
H110	H	1.832448	0.621108	-0.793371
H111	H	2.165782	0.954441	-0.460038
H112	H	1.702008	0.085018	-1.164137
H113	H	2.035342	0.418351	-0.830804
H114	H	2.368675	0.751685	-0.497470
H115	H	1.199111	0.132995	-0.791023
H116	H	1.532444	0.466328	-0.457689
H117	H	1.865778	0.799661	-0.124356
H118	H	1.636548	0.605417	-0.670775
H119	H	1.969882	0.938750	-0.337442
H120	H	2.303215	1.272084	-0.004109
H121	H	1.451373	0.335466	-1.298508
H122	H	1.784707	0.668799	-0.965175
H123	H	2.118040	1.002132	-0.631841
H124	H	1.516486	0.814553	-0.790736
H125	H	1.849820	1.147887	-0.457402
H126	H	2.183153	1.481220	-0.124069
H127	H	1.115917	0.335607	-0.633597
H128	H	1.449251	0.668941	-0.300263
H129	H	1.782584	1.002274	0.033070
H130	H	1.654286	0.132690	-1.335934
H131	H	1.987620	0.466024	-1.002601
H132	H	2.320953	0.799357	-0.669267
H133	H	1.038087	0.085284	-0.828137
H134	H	1.371420	0.418618	-0.494803
H135	H	1.704753	0.751951	-0.161470
H136	H	1.479389	0.642748	-0.827630
H137	H	1.812723	0.976081	-0.494296
H138	H	2.146056	1.309414	-0.160963
H139	H	1.673659	0.777227	-0.633867
H140	H	2.006993	1.110560	-0.300534
H141	H	2.340326	1.443893	0.032800
