data_functionalizedCrystal
_audit_creation_method	'MofGen! by Chris Wilmer'
_symmetry_space_group_name_H-M	'P1'
_symmetry_Int_Tables_number	1
_symmetry_cell_setting	triclinic
loop_
_symmetry_equiv_pos_as_xyz
  x,y,z
_cell_length_a	17.077404
_cell_length_b	10.686285
_cell_length_c	17.077396
_cell_angle_alpha	94.391882
_cell_angle_beta	90.019501
_cell_angle_gamma	85.631810
loop_
_atom_site_label
_atom_site_type_symbol
_atom_site_fract_x
_atom_site_fract_y
_atom_site_fract_z
Zn1	Zn	1.224115	-0.502339	0.419935
Zn2	Zn	1.234129	-0.713359	0.278625
Zn3	Zn	1.092848	-0.502383	0.288680
Zn4	Zn	1.102918	-0.713284	0.409853
O5	O	1.163502	-0.607841	0.349273
O6	O	1.335290	-0.530344	0.401201
O7	O	1.215364	-0.685422	0.170110
O8	O	1.101856	-0.325802	0.314519
O9	O	1.342648	-0.685379	0.297382
O10	O	1.198297	-0.325769	0.410951
O11	O	1.111566	-0.530419	0.177497
O12	O	0.984337	-0.530347	0.304743
O13	O	1.119018	-0.685252	0.521039
O14	O	0.991734	-0.685295	0.393768
O15	O	1.208061	-0.530271	0.528447
O16	O	1.225128	-0.889924	0.287606
O17	O	1.128728	-0.889869	0.384018
C18	C	0.959553	-0.607818	0.349253
C19	C	0.872305	-0.607839	0.349261
C20	C	0.835193	-0.688642	0.395530
C21	C	0.753212	-0.688645	0.395542
C22	C	0.708346	-0.607850	0.349281
C23	C	0.745463	-0.527038	0.303011
C24	C	0.827441	-0.527030	0.303003
C25	C	0.574594	-0.527063	0.303028
C26	C	0.492610	-0.527072	0.303035
C27	C	0.500365	-0.688678	0.395568
C28	C	0.582344	-0.688670	0.395560
C29	C	0.619455	-0.607859	0.349288
C30	C	1.179129	-0.935681	0.333644
C31	C	1.185885	-1.075932	0.326983
C32	C	1.368248	-0.607865	0.349294
C33	C	1.455498	-0.607875	0.349303
C34	C	1.163545	-0.607748	0.554022
C35	C	1.163564	-0.607709	0.641274
C36	C	1.147836	-0.278722	0.364981
C37	C	1.141160	-0.138470	0.371675
C38	C	1.163500	-0.607843	0.145325
C39	C	1.163617	-0.607527	0.058091
C40	C	1.209930	-0.527004	0.686123
C41	C	1.209937	-0.526962	0.768105
C42	C	1.163582	-0.607632	0.805237
C43	C	1.117211	-0.688341	0.760382
C44	C	1.117200	-0.688375	0.678402
C45	C	1.117239	-0.688265	0.931256
C46	C	1.117251	-0.688232	1.013242
C47	C	1.209976	-0.526851	1.020959
C48	C	1.209965	-0.526886	0.938979
C49	C	1.163595	-0.607596	0.894130
H50	H	0.723000	-0.754444	0.433218
N51	N	0.697071	-0.439918	0.253101
H52	H	0.660275	-0.381512	0.287838
H53	H	0.665544	-0.491246	0.214246
N54	N	1.243458	-1.147133	0.269546
H55	H	1.272344	-1.085476	0.240670
H56	H	1.214133	-1.201891	0.230616
N57	N	1.259938	-0.440007	0.646078
H58	H	1.252903	-0.452281	0.587337
H59	H	1.316933	-0.459667	0.659488
H60	H	1.079465	-0.754019	0.790622
H61	H	1.097701	-1.084717	0.415034
N62	N	1.067226	-0.775324	0.882888
H63	H	1.101907	-0.833814	0.846089
H64	H	1.028407	-0.723971	0.851364
H65	H	0.857656	-0.461225	0.265331
H66	H	0.604807	-0.461247	0.265356
N67	N	0.444205	-0.439972	0.253123
H68	H	0.407403	-0.381576	0.287858
H69	H	0.412685	-0.491323	0.214273
N70	N	1.259929	-0.439891	0.816480
H71	H	1.289292	-0.388791	0.780517
H72	H	1.298707	-0.491222	0.848060
H73	H	1.247716	-0.461204	0.908748
N74	N	1.259994	-0.439800	1.069326
H75	H	1.252966	-0.452012	1.126895
H76	H	1.243490	-0.349686	1.059294
N77	N	1.067256	-0.775238	1.053295
H78	H	1.037874	-0.826367	1.012446
H79	H	1.028495	-0.723849	1.089758
N80	N	1.067183	-0.775409	0.630026
H81	H	1.037818	-0.826508	0.665987
H82	H	1.101904	-0.833824	0.593225
N83	N	0.460341	-0.775841	0.445473
H84	H	0.501204	-0.827033	0.474771
H85	H	0.429097	-0.834164	0.410674
H86	H	0.871718	-0.754439	0.433198
H87	H	0.618873	-0.754467	0.433225
