data_functionalizedCrystal
_audit_creation_method	'MofGen! by Chris Wilmer'
_symmetry_space_group_name_H-M	'P1'
_symmetry_Int_Tables_number	1
_symmetry_cell_setting	triclinic
loop_
_symmetry_equiv_pos_as_xyz
  x,y,z
_cell_length_a	18.050590
_cell_length_b	13.032721
_cell_length_c	13.032268
_cell_angle_alpha	103.289627
_cell_angle_beta	97.179226
_cell_angle_gamma	97.191822
loop_
_atom_site_label
_atom_site_type_symbol
_atom_site_fract_x
_atom_site_fract_y
_atom_site_fract_z
Zn1	Zn	1.031259	-0.499313	-0.653851
Zn2	Zn	1.531259	0.000687	-0.153851
Zn3	Zn	1.031178	-0.654397	-0.498799
Zn4	Zn	1.531178	-0.154397	0.001201
Zn5	Zn	0.925132	-0.476784	-0.476307
Zn6	Zn	1.425132	0.023216	0.023693
Zn7	Zn	0.888983	-0.676839	-0.676389
Zn8	Zn	1.388983	-0.176839	-0.176389
O9	O	0.969138	-0.576833	-0.576336
O10	O	1.469138	-0.076833	-0.076336
O11	O	1.135171	-0.519922	-0.633264
O12	O	1.635171	-0.019922	-0.133264
O13	O	1.032205	-0.612016	-0.347190
O14	O	1.532205	-0.112016	0.152810
O15	O	0.954373	-0.331145	-0.481013
O16	O	1.454373	0.168855	0.018987
O17	O	1.135111	-0.633861	-0.519348
O18	O	1.635111	-0.133861	-0.019348
O19	O	1.032343	-0.347697	-0.611454
O20	O	1.532343	0.152303	-0.111454
O21	O	0.954294	-0.481524	-0.330665
O22	O	1.454294	0.018476	0.169335
O23	O	0.816414	-0.503285	-0.502867
O24	O	1.316414	-0.003285	-0.002867
O25	O	0.892762	-0.672110	-0.822024
O26	O	1.392762	-0.172110	-0.322024
O27	O	0.789856	-0.650265	-0.649867
O28	O	1.289856	-0.150265	-0.149867
O29	O	0.997291	-0.541683	-0.805466
O30	O	1.497291	-0.041683	-0.305466
O31	O	0.997153	-0.806001	-0.541202
O32	O	1.497153	-0.306001	-0.041202
O33	O	0.892683	-0.822489	-0.671677
O34	O	1.392683	-0.322489	-0.171677
C35	C	0.776189	-0.576767	-0.576373
C36	C	1.276189	-0.076767	-0.076373
C37	C	0.693639	-0.576767	-0.576417
C38	C	1.193639	-0.076767	-0.076417
C39	C	0.941005	-0.852786	-0.611349
C40	C	1.441005	-0.352786	-0.111349
C41	C	0.929033	-0.970844	-0.626363
C42	C	1.429033	-0.470844	-0.126363
C43	C	0.975421	-1.015291	-0.568548
C44	C	1.475421	-0.515291	-0.068548
C45	C	0.963049	-1.137310	-0.584065
C46	C	1.463049	-0.637310	-0.084065
C47	C	0.479764	-0.656876	-0.656213
C48	C	0.979764	-0.156876	-0.156213
C49	C	0.437556	-0.563345	-0.670048
C50	C	0.937556	-0.063345	-0.170048
C51	C	0.542508	-0.576820	-0.576373
C52	C	1.042508	-0.076820	-0.076373
C53	C	0.437628	-0.670406	-0.562543
C54	C	0.937628	-0.170406	-0.062543
C55	C	0.396521	-0.576879	-0.576333
C56	C	0.896521	-0.076879	-0.076333
C57	C	0.501388	-0.483244	-0.590252
C58	C	1.001388	0.016756	-0.090252
C59	C	0.501462	-0.590364	-0.482710
C60	C	1.001462	-0.090364	0.017290
C61	C	0.459287	-0.496761	-0.496501
C62	C	0.959287	0.003239	0.003499
C63	C	0.626607	-0.576787	-0.576399
C64	C	1.126607	-0.076787	-0.076399
C65	C	0.312425	-0.576901	-0.576306
C66	C	0.812425	-0.076901	-0.076306
C67	C	1.162841	-0.576901	-0.576301
C68	C	1.662841	-0.076901	-0.076301
C69	C	1.245385	-0.576930	-0.576285
C70	C	1.745385	-0.076930	-0.076285
C71	C	0.941003	-0.611913	-0.853359
C72	C	1.441003	-0.111913	-0.353359
C73	C	0.929014	-0.626862	-0.971410
C74	C	1.429014	-0.126862	-0.471410
C75	C	0.997399	-0.299806	-0.541211
C76	C	1.497399	0.200194	-0.041211
C77	C	1.009442	-0.181754	-0.526242
C78	C	1.509442	0.318246	-0.026242
C79	C	0.975388	-0.568993	-1.015848
C80	C	1.475388	-0.068993	-0.515848
C81	C	0.962997	-0.584442	-1.137859
C82	C	1.462997	-0.084442	-0.637859
C83	C	0.997214	-0.541814	-0.300381
C84	C	1.497214	-0.041814	0.199619
C85	C	1.009377	-0.526566	-0.182293
C86	C	1.509377	-0.026566	0.317707
H87	H	0.914175	-1.189588	-0.645057
H88	H	1.414175	-0.689588	-0.145057
H89	H	0.489231	-0.724480	-0.723785
H90	H	0.989231	-0.224480	-0.223785
O91	O	1.074128	-0.445789	-1.113052
O92	O	1.574128	0.054211	-0.613052
H93	H	1.067756	-0.365093	-1.123705
H94	H	1.567756	0.134907	-0.623705
H95	H	0.880135	-0.687835	-1.023693
H96	H	1.380135	-0.187835	-0.523693
O97	O	0.400564	-0.548291	-0.774917
O98	O	0.900564	-0.048291	-0.274917
H99	H	0.408299	-0.614854	-0.841077
H100	H	0.908299	-0.114854	-0.341077
O101	O	1.074192	-1.112522	-0.445459
O102	O	1.574192	-0.612522	0.054541
H103	H	1.051562	-1.055192	-0.385010
H104	H	1.551562	-0.555192	0.114990
O105	O	0.400840	-0.775197	-0.547047
O106	O	0.900840	-0.275197	-0.047047
H107	H	0.427387	-0.786971	-0.469937
H108	H	0.927387	-0.286971	0.030063
H109	H	0.880163	-1.023125	-0.687351
H110	H	1.380163	-0.523125	-0.187351
O111	O	1.040176	-0.946057	-0.487785
O112	O	1.540176	-0.446057	0.012215
H113	H	1.039735	-0.861084	-0.488279
H114	H	1.539735	-0.361084	0.011721
O115	O	0.538033	-0.378426	-0.605859
O116	O	1.038033	0.121574	-0.105859
H117	H	0.599453	-0.379241	-0.605797
H118	H	1.099453	0.120759	-0.105797
H119	H	1.024261	-0.508009	-0.963564
H120	H	1.524261	-0.008009	-0.463564
O121	O	0.898247	-0.665224	-1.207096
O122	O	1.398247	-0.165224	-0.707096
H123	H	0.898678	-0.664685	-1.292064
H124	H	1.398678	-0.164685	-0.792064
H125	H	0.449968	-0.429016	-0.428957
H126	H	0.949968	0.070984	0.071043
H127	H	0.529302	-0.601834	-0.403548
H128	H	1.029302	-0.101834	0.096452
