data_functionalizedCrystal
_audit_creation_method	'MofGen! by Chris Wilmer'
_symmetry_space_group_name_H-M	'P1'
_symmetry_Int_Tables_number	1
_symmetry_cell_setting	triclinic
loop_
_symmetry_equiv_pos_as_xyz
  x,y,z
_cell_length_a	13.339070
_cell_length_b	10.723023
_cell_length_c	12.377033
_cell_angle_alpha	78.606324
_cell_angle_beta	104.397079
_cell_angle_gamma	100.048421
loop_
_atom_site_label
_atom_site_type_symbol
_atom_site_fract_x
_atom_site_fract_y
_atom_site_fract_z
O1	O	0.161483	1.687675	0.093982
O2	O	0.175098	1.329092	0.093987
O3	O	0.020741	1.467230	0.093982
O4	O	0.315840	1.549536	0.093987
O5	O	-0.017789	1.501732	-0.094015
O6	O	0.136568	1.363593	-0.094010
O7	O	0.122953	1.722176	-0.094015
Zn8	Zn	0.123643	1.548363	-0.123861
Zn9	Zn	0.174408	1.502905	0.123833
O10	O	0.277310	1.584038	-0.094010
C11	C	0.154843	1.299510	-0.000011
C12	C	0.151879	1.159961	-0.000009
C13	C	0.130599	1.115618	-0.097397
C14	C	0.127535	0.971387	-0.097397
C15	C	-0.036309	1.470577	-0.000015
C16	C	-0.148898	1.429134	-0.000010
C17	C	-0.511456	1.751369	-0.000014
C18	C	-0.405675	1.790313	-0.000026
C19	C	-0.341476	1.700021	-0.000021
C20	C	-0.383067	1.570780	-0.000007
C21	C	-0.488860	1.531834	-0.000004
C22	C	-0.318880	1.480486	-0.000011
C23	C	-0.360471	1.351245	0.000003
C24	C	-0.466254	1.312306	0.000006
C25	C	-0.530453	1.402597	0.000002
C26	C	-0.213087	1.519432	-0.000013
C27	C	-0.190491	1.299897	-0.000003
C28	C	-0.296271	1.260954	0.000008
C29	C	0.334361	1.580690	-0.000010
C30	C	0.446951	1.622132	-0.000008
C31	C	0.143209	1.751757	-0.000014
C32	C	0.146174	1.891306	-0.000009
N33	N	0.088997	1.579395	-0.292906
C34	C	0.289498	1.399816	-0.647969
C35	C	0.313756	1.378075	-0.529639
C36	C	0.257568	1.428404	-0.470450
C37	C	0.177119	1.500476	-0.529603
C38	C	0.152854	1.522211	-0.647945
C39	C	0.120924	1.550799	-0.470425
C40	C	0.040475	1.622872	-0.529578
C41	C	0.016214	1.644604	-0.647908
C42	C	0.072402	1.594275	-0.707097
C43	C	0.145189	1.529064	-0.352083
C44	C	0.008545	1.651459	-0.352059
C45	C	-0.015712	1.673200	-0.470389
N46	N	0.209046	1.471880	0.292878
H47	H	0.167828	1.091145	0.083367
H48	H	-0.081216	1.731883	-0.518566
F49	F	-0.051261	1.705021	-0.289070
H50	H	0.109317	0.933185	-0.180774
F51	F	0.170003	0.941226	0.108980
F52	F	-0.579790	1.847452	-0.000037
F53	F	0.046589	1.617420	-0.833040
H54	H	-0.371820	1.895541	-0.000039
F55	F	-0.228894	1.741471	-0.000030
F56	F	0.109745	1.205558	-0.206380
F57	F	-0.168834	1.656975	-0.000030
H58	H	-0.616589	1.370895	0.000015
H59	H	-0.500115	1.207071	0.000010
H60	H	-0.330151	1.155723	0.000019
H61	H	-0.138220	1.226374	-0.000005
F62	F	0.230806	1.452361	-0.289142
F63	F	0.283388	1.405265	-0.344512
F64	F	0.349282	1.346248	-0.710966
F65	F	0.399370	1.301372	-0.466688
H66	H	-0.049299	1.703277	-0.696071
