data_functionalizedCrystal
_audit_creation_method	'MofGen! by Chris Wilmer'
_symmetry_space_group_name_H-M	'P1'
_symmetry_Int_Tables_number	1
_symmetry_cell_setting	triclinic
loop_
_symmetry_equiv_pos_as_xyz
  x,y,z
_cell_length_a	14.908571
_cell_length_b	25.639239
_cell_length_c	14.908694
_cell_angle_alpha	93.266315
_cell_angle_beta	83.592472
_cell_angle_gamma	86.734636
loop_
_atom_site_label
_atom_site_type_symbol
_atom_site_fract_x
_atom_site_fract_y
_atom_site_fract_z
Zn1	Zn	1.413187	-0.275253	-0.591468
Zn2	Zn	1.913187	0.224747	-0.091468
Zn3	Zn	1.404309	-0.357334	-0.440091
Zn4	Zn	1.904309	0.142666	0.059909
Zn5	Zn	1.253095	-0.264559	-0.431405
Zn6	Zn	1.753095	0.235441	0.068595
Zn7	Zn	1.261741	-0.357293	-0.582690
Zn8	Zn	1.761741	0.142707	-0.082690
O9	O	1.333083	-0.313610	-0.511414
O10	O	1.833083	0.186390	-0.011414
O11	O	1.538674	-0.290634	-0.578697
O12	O	2.038674	0.209366	-0.078697
O13	O	1.376916	-0.340569	-0.312274
O14	O	1.876916	0.159431	0.187726
O15	O	1.274428	-0.192817	-0.452676
O16	O	1.774428	0.307183	0.047324
O17	O	1.532151	-0.350938	-0.467481
O18	O	2.032151	0.149062	0.032519
O19	O	1.392047	-0.200674	-0.570274
O20	O	1.892047	0.299326	-0.070274
O21	O	1.265820	-0.272407	-0.305892
O22	O	1.765820	0.227593	0.194108
O23	O	1.127577	-0.272368	-0.444164
O24	O	1.627577	0.227632	0.055836
O25	O	1.289164	-0.350869	-0.710519
O26	O	1.789164	0.149131	-0.210519
O27	O	1.133929	-0.340499	-0.555312
O28	O	1.633929	0.159501	-0.055312
O29	O	1.400431	-0.290594	-0.716969
O30	O	1.900431	0.209406	-0.216969
O31	O	1.385300	-0.430489	-0.458969
O32	O	1.885300	0.069511	0.041031
O33	O	1.280555	-0.430459	-0.563735
O34	O	1.780555	0.069541	-0.063735
C35	C	1.097911	-0.305269	-0.497844
C36	C	1.597911	0.194731	0.002156
C37	C	0.997304	-0.301715	-0.492060
C38	C	1.497304	0.198285	0.007940
C39	C	1.332928	-0.449446	-0.511363
C40	C	1.832928	0.050554	-0.011363
C41	C	1.332947	-0.507561	-0.511377
C42	C	1.832947	-0.007561	-0.011377
C43	C	0.814908	-0.366078	-0.596774
C44	C	1.314908	0.133922	-0.096774
C45	C	0.720379	-0.362740	-0.591343
C46	C	1.220379	0.137260	-0.091343
C47	C	0.713717	-0.291698	-0.475771
C48	C	1.213717	0.208302	0.024229
C49	C	0.808246	-0.295036	-0.481202
C50	C	1.308246	0.204964	0.018798
C51	C	0.858838	-0.332228	-0.541705
C52	C	1.358838	0.167772	-0.041705
C53	C	0.953368	-0.335568	-0.547131
C54	C	1.453368	0.164432	-0.047131
C55	C	0.946704	-0.264524	-0.431564
C56	C	1.446704	0.235476	0.068436
C57	C	0.852176	-0.261186	-0.426133
C58	C	1.352176	0.238814	0.073867
C59	C	1.387780	-0.867941	-0.456969
C60	C	1.887780	-0.367941	0.043031
C61	C	1.387816	-0.922547	-0.456983
C62	C	1.887816	-0.422547	0.043017
O63	O	1.434276	-0.950792	-0.410669
O64	O	1.934276	-0.450792	0.089331
N65	N	1.333245	-0.949857	-0.511483
N66	N	1.833245	-0.449857	-0.011483
C67	C	1.278643	-0.922558	-0.565979
C68	C	1.778643	-0.422558	-0.065979
O69	O	1.232230	-0.950801	-0.612337
O70	O	1.732230	-0.450801	-0.112337
C71	C	1.278612	-0.867953	-0.565969
C72	C	1.778612	-0.367953	-0.065969
C73	C	1.333179	-0.840646	-0.511459
C74	C	1.833179	-0.340646	-0.011459
C75	C	1.442343	-0.840634	-0.402464
C76	C	1.942343	-0.340634	0.097536
C77	C	1.442306	-0.786032	-0.402449
C78	C	1.942306	-0.286032	0.097551
C79	C	1.387705	-0.758737	-0.456939
C80	C	1.887705	-0.258737	0.043061
C81	C	1.333142	-0.786044	-0.511443
C82	C	1.833142	-0.286044	-0.011443
C83	C	1.224015	-0.840655	-0.620469
C84	C	1.724015	-0.340655	-0.120469
C85	C	1.223990	-0.786047	-0.620454
C86	C	1.723990	-0.286047	-0.120454
C87	C	1.278557	-0.758740	-0.565945
C88	C	1.778557	-0.258740	-0.065945
C89	C	1.278504	-0.704146	-0.565918
C90	C	1.778504	-0.204146	-0.065918
N91	N	1.333074	-0.676837	-0.511418
N92	N	1.833074	-0.176837	-0.011418
C93	C	1.387675	-0.704132	-0.456929
C94	C	1.887675	-0.204132	0.043071
C95	C	1.278712	-1.037231	-0.565996
C96	C	1.778712	-0.537231	-0.065996
C97	C	1.278736	-1.091834	-0.566002
C98	C	1.778736	-0.591834	-0.066002
C99	C	1.387911	-1.091820	-0.457008
C100	C	1.887911	-0.591820	0.042992
C101	C	1.387881	-1.037216	-0.456998
C102	C	1.887881	-0.537216	0.043002
C103	C	1.333282	-1.009922	-0.511497
C104	C	1.833282	-0.509922	-0.011497
C105	C	1.387592	-0.589463	-0.456900
C106	C	1.887592	-0.089463	0.043100
C107	C	1.387547	-0.534856	-0.456887
C108	C	1.887547	-0.034856	0.043113
C109	C	1.278377	-0.534875	-0.565885
C110	C	1.778377	-0.034875	-0.065885
C111	C	1.278417	-0.589477	-0.565895
C112	C	1.778417	-0.089477	-0.065895
C113	C	1.333032	-0.616770	-0.511400
C114	C	1.833032	-0.116770	-0.011400
O115	O	1.232070	-0.675867	-0.612211
O116	O	1.732070	-0.175867	-0.112211
O117	O	1.434088	-0.675883	-0.410587
O118	O	1.934088	-0.175883	0.089413
C119	C	1.569173	-0.321983	-0.525037
C120	C	2.069173	0.178017	-0.025037
C121	C	1.669781	-0.325552	-0.530843
C122	C	2.169781	0.174448	-0.030843
C123	C	1.346752	-0.321920	-0.747505
C124	C	1.846752	0.178080	-0.247505
C125	C	1.352577	-0.325461	-0.848113
C126	C	1.852577	0.174539	-0.348113
C127	C	1.333264	-0.177245	-0.511485
C128	C	1.833264	0.322755	-0.011485
C129	C	1.333341	-0.119135	-0.511516
C130	C	1.833341	0.380865	-0.011516
C131	C	1.247818	-0.261140	-1.030521
C132	C	1.747818	0.238860	-0.530521
C133	C	1.253288	-0.264466	-1.125051
C134	C	1.753288	0.235534	-0.625051
C135	C	1.368982	-0.335440	-1.131705
C136	C	1.868982	0.164560	-0.631705
C137	C	1.363512	-0.332114	-1.037175
C138	C	1.863512	0.167886	-0.537175
C139	C	1.302929	-0.294963	-0.986586
C140	C	1.802929	0.205037	-0.486586
C141	C	1.297464	-0.291635	-0.892055
C142	C	1.797464	0.208365	-0.392055
C143	C	1.413153	-0.362612	-0.898709
C144	C	1.913153	0.137388	-0.398709
C145	C	1.418624	-0.365937	-0.993240
C146	C	1.918624	0.134063	-0.493240
C147	C	1.319519	-0.305296	-0.276244
C148	C	1.819519	0.194704	0.223756
C149	C	1.313869	-0.301614	-0.175646
C150	C	1.813869	0.198386	0.324354
H151	H	0.994559	-0.365853	-0.596394
H152	H	1.494559	0.134147	-0.096394
H153	H	0.856101	-0.396364	-0.646033
H154	H	1.356101	0.103636	-0.146033
H155	H	0.672509	-0.261415	-0.426519
H156	H	1.172509	0.238585	0.073481
C157	C	1.435199	-0.376529	-1.187342
C158	C	1.935199	0.123471	-0.687342
N159	N	1.484924	-0.407559	-1.229241
N160	N	1.984924	0.092441	-0.729241
H161	H	1.198496	-0.230885	-0.989331
H162	H	1.698496	0.269115	-0.489331
H163	H	1.233918	-0.512643	-0.610247
H164	H	1.733918	-0.012643	-0.110247
H165	H	1.179576	-0.862879	-0.664852
H166	H	1.679576	-0.362879	-0.164852
H167	H	1.432067	-0.611679	-0.412528
H168	H	1.932067	-0.111679	0.087472
H169	H	1.486742	-0.763802	-0.358065
H170	H	1.986742	-0.263802	0.141935
H171	H	1.208410	-0.236924	-1.160819
H172	H	1.708410	0.263076	-0.660819
H173	H	0.684616	-0.390304	-0.636188
H174	H	1.184616	0.109696	-0.136188
C175	C	1.473780	-0.399819	-0.850374
C176	C	1.973780	0.100181	-0.350374
N177	N	1.519444	-0.427842	-0.813966
N178	N	2.019444	0.072158	-0.313966
C179	C	1.230819	-0.250769	-0.836408
C180	C	1.730819	0.249231	-0.336408
N181	N	1.180617	-0.219989	-0.794498
N182	N	1.680617	0.280011	-0.294498
H183	H	1.467946	-0.396186	-1.034441
H184	H	1.967946	0.103814	-0.534441
C185	C	0.796514	-0.220276	-0.359584
C186	C	1.296514	0.279724	0.140416
N187	N	0.754590	-0.189464	-0.309455
N188	N	1.254590	0.310536	0.190545
H189	H	0.982482	-0.236962	-0.386721
H190	H	1.482482	0.263038	0.113279
C191	C	1.447981	-1.121856	-0.397075
C192	C	1.947981	-0.621856	0.102925
N193	N	1.493224	-1.144481	-0.351938
N194	N	1.993224	-0.644481	0.148062
C195	C	1.447573	-0.504821	-0.396915
C196	C	1.947573	-0.004821	0.103085
N197	N	1.492783	-0.482201	-0.351744
N198	N	1.992783	0.017799	0.148256
H199	H	1.486810	-0.862852	-0.358092
H200	H	1.986810	-0.362852	0.141908
C201	C	1.163925	-0.756027	-0.680410
C202	C	1.663925	-0.256027	-0.180410
N203	N	1.118684	-0.733417	-0.725566
N204	N	1.618684	-0.233417	-0.225566
C205	C	1.218388	-0.619516	-0.625855
C206	C	1.718388	-0.119516	-0.125855
N207	N	1.173180	-0.642137	-0.671025
N208	N	1.673180	-0.142137	-0.171025
C209	C	1.447911	-1.007183	-0.397036
C210	C	1.947911	-0.507183	0.102964
N211	N	1.493130	-0.984566	-0.351872
N212	N	1.993130	-0.484566	0.148128
C213	C	1.218699	-1.121865	-0.625958
C214	C	1.718699	-0.621865	-0.125958
N215	N	1.173481	-1.144483	-0.671123
N216	N	1.673481	-0.644483	-0.171123
H217	H	1.234243	-1.015011	-0.610373
H218	H	1.734243	-0.515011	-0.110373
