data_functionalizedCrystal
_audit_creation_method	'MofGen! by Chris Wilmer'
_symmetry_space_group_name_H-M	'P1'
_symmetry_Int_Tables_number	1
_symmetry_cell_setting	triclinic
loop_
_symmetry_equiv_pos_as_xyz
  x,y,z
_cell_length_a	10.654549
_cell_length_b	8.597304
_cell_length_c	9.130313
_cell_angle_alpha	82.295602
_cell_angle_beta	89.997498
_cell_angle_gamma	84.909817
loop_
_atom_site_label
_atom_site_type_symbol
_atom_site_fract_x
_atom_site_fract_y
_atom_site_fract_z
O1	O	1.669011	0.220462	-0.149580
O2	O	1.303644	0.241467	-0.152240
O3	O	1.493517	0.002575	-0.122086
O4	O	1.479137	0.459353	-0.179734
O5	O	1.493504	0.002568	0.121514
O6	O	1.303630	0.241460	0.091360
O7	O	1.668997	0.220455	0.094020
Cu8	Cu	1.486313	0.230957	0.114932
Cu9	Cu	1.486328	0.230965	-0.173153
O10	O	1.479124	0.459346	0.063866
C11	C	1.256831	0.239921	-0.030247
C12	C	1.117363	0.235307	-0.029669
C13	C	0.907572	0.371616	-0.046866
C14	C	1.038616	0.375963	-0.047423
C15	C	1.065061	0.090295	-0.011370
C16	C	0.934019	0.085949	-0.010824
C17	C	1.491966	-0.055917	0.007092
C18	C	1.487348	-0.230194	0.029078
C19	C	1.715810	0.222001	-0.027976
C20	C	1.855278	0.226614	-0.028564
C21	C	1.480675	0.517838	-0.065316
C22	C	1.485293	0.692116	-0.087311
N23	N	1.486311	0.230950	0.317556
N24	N	1.486340	0.230959	-0.375775
C25	C	1.570416	0.125214	0.407554
C26	C	1.570428	0.125214	0.560891
C27	C	1.402226	0.336701	0.534216
C28	C	1.402209	0.336692	0.380883
H29	H	1.081187	0.494037	-0.062327
H30	H	1.487062	-0.241071	-0.203785
O31	O	1.320364	0.439259	0.595693
C32	C	1.103112	0.528749	0.631294
C33	C	1.195679	0.412486	0.561623
H34	H	1.002285	0.507166	0.603748
H35	H	1.117464	0.510594	0.756361
H36	H	1.121071	0.654650	0.585260
H37	H	1.177776	0.286539	0.607540
H38	H	1.181305	0.430779	0.436559
O39	O	1.485177	-0.309645	0.168143
C40	C	1.485692	-0.292725	0.429451
C41	C	1.488127	-0.202549	0.272046
H42	H	1.488103	-0.206181	0.513500
H43	H	1.395970	-0.355933	0.444080
H44	H	1.571300	-0.382852	0.447297
H45	H	1.402581	-0.112345	0.254092
H46	H	1.577904	-0.139448	0.257492
H47	H	1.638895	0.039110	0.355998
H48	H	1.638912	0.039112	0.634165
H49	H	1.333714	0.422795	0.307600
O50	O	0.883006	-0.054779	0.006872
C51	C	0.692842	-0.188064	0.023765
C52	C	0.750449	-0.028593	0.003688
H53	H	0.585662	-0.166947	0.021229
H54	H	0.725040	-0.257664	-0.069422
H55	H	0.725192	-0.257651	0.134468
H56	H	0.718126	0.041122	-0.106962
H57	H	0.718256	0.040888	0.096957
H58	H	1.129187	-0.024229	0.003077
H59	H	0.843464	0.486155	-0.061312
