data_functionalizedCrystal
_audit_creation_method	'MofGen! by Chris Wilmer'
_symmetry_space_group_name_H-M	'P1'
_symmetry_Int_Tables_number	1
_symmetry_cell_setting	triclinic
loop_
_symmetry_equiv_pos_as_xyz
  x,y,z
_cell_length_a	13.897449
_cell_length_b	13.897448
_cell_length_c	13.897441
_cell_angle_alpha	89.971988
_cell_angle_beta	89.973931
_cell_angle_gamma	90.019497
loop_
_atom_site_label
_atom_site_type_symbol
_atom_site_fract_x
_atom_site_fract_y
_atom_site_fract_z
Zn1	Zn	-1.474690	0.383986	0.545536
Zn2	Zn	-1.224690	0.633986	0.795536
Zn3	Zn	-0.974690	0.883986	1.045536
Zn4	Zn	-0.724690	1.133986	1.295536
Zn5	Zn	-1.474579	0.545308	0.384244
Zn6	Zn	-1.224579	0.795308	0.634244
Zn7	Zn	-0.974579	1.045308	0.884244
Zn8	Zn	-0.724579	1.295308	1.134244
Zn9	Zn	-1.313379	0.384028	0.384239
Zn10	Zn	-1.063379	0.634028	0.634239
Zn11	Zn	-0.813379	0.884028	0.884239
Zn12	Zn	-0.563379	1.134028	1.134239
Zn13	Zn	-1.313356	0.545240	0.545482
Zn14	Zn	-1.063356	0.795240	0.795482
Zn15	Zn	-0.813356	1.045240	1.045482
Zn16	Zn	-0.563356	1.295240	1.295482
O17	O	-1.394001	0.464641	0.464875
O18	O	-1.144001	0.714641	0.714875
O19	O	-0.894001	0.964641	0.964875
O20	O	-0.644001	1.214641	1.214875
O21	O	-1.609657	0.405396	0.524165
O22	O	-1.359657	0.655396	0.774165
O23	O	-1.109657	0.905396	1.024165
O24	O	-0.859657	1.155396	1.274165
O25	O	-1.453159	0.523959	0.249262
O26	O	-1.203159	0.773959	0.499262
O27	O	-0.953159	1.023959	0.749262
O28	O	-0.703159	1.273959	0.999262
O29	O	-1.334834	0.249041	0.405656
O30	O	-1.084834	0.499041	0.655656
O31	O	-0.834834	0.749041	0.905656
O32	O	-0.584834	0.999041	1.155656
O33	O	-1.609575	0.523918	0.405665
O34	O	-1.359575	0.773918	0.655665
O35	O	-1.109575	1.023918	0.905665
O36	O	-0.859575	1.273918	1.155665
O37	O	-1.453348	0.249010	0.524160
O38	O	-1.203348	0.499010	0.774160
O39	O	-0.953348	0.749010	1.024160
O40	O	-0.703348	0.999010	1.274160
O41	O	-1.334726	0.405468	0.249258
O42	O	-1.084726	0.655468	0.499258
O43	O	-0.834726	0.905468	0.749258
O44	O	-0.584726	1.155468	0.999258
O45	O	-1.178394	0.405403	0.405604
O46	O	-0.928394	0.655403	0.655604
O47	O	-0.678394	0.905403	0.905604
O48	O	-0.428394	1.155403	1.155604
O49	O	-1.334794	0.523804	0.680471
O50	O	-1.084794	0.773804	0.930471
O51	O	-0.834794	1.023804	1.180471
O52	O	-0.584794	1.273804	1.430471
O53	O	-1.178377	0.523845	0.524068
O54	O	-0.928377	0.773845	0.774068
O55	O	-0.678377	1.023845	1.024068
O56	O	-0.428377	1.273845	1.274068
O57	O	-1.453325	0.405331	0.680510
O58	O	-1.203325	0.655331	0.930510
O59	O	-0.953325	0.905331	1.180510
O60	O	-0.703325	1.155331	1.430510
O61	O	-1.453136	0.680280	0.405613
O62	O	-1.203136	0.930280	0.655613
O63	O	-0.953136	1.180280	0.905613
O64	O	-0.703136	1.430280	1.155613
O65	O	-1.334686	0.680231	0.524073
O66	O	-1.084686	0.930231	0.774073
O67	O	-0.834686	1.180231	1.024073
O68	O	-0.584686	1.430231	1.274073
C69	C	-1.143387	0.464622	0.464830
C70	C	-0.893387	0.714622	0.714830
C71	C	-0.643387	0.964622	0.964830
C72	C	-0.393387	1.214622	1.214830
C73	C	-1.036173	0.464637	0.464834
C74	C	-0.786173	0.714637	0.714834
C75	C	-0.536173	0.964637	0.964834
C76	C	-0.286173	1.214637	1.214834
C77	C	-0.949103	0.464639	0.464846
C78	C	-0.699103	0.714639	0.714846
C79	C	-0.449103	0.964639	0.964846
C80	C	-0.199103	1.214639	1.214846
C81	C	-0.839870	0.464644	0.464870
C82	C	-0.589870	0.714644	0.714870
C83	C	-0.339870	0.964644	0.964870
C84	C	-0.089870	1.214644	1.214870
C85	C	-1.393922	0.715255	0.464859
C86	C	-1.143922	0.965255	0.714859
C87	C	-0.893922	1.215255	0.964859
C88	C	-0.643922	1.465255	1.214859
C89	C	-1.393977	0.822469	0.464884
C90	C	-1.143977	1.072469	0.714884
C91	C	-0.893977	1.322469	0.964884
C92	C	-0.643977	1.572469	1.214884
C93	C	-0.645594	0.464656	0.464910
C94	C	-0.395594	0.714656	0.714910
C95	C	-0.145594	0.964656	0.964910
C96	C	0.104406	1.214656	1.214910
C97	C	-0.752808	0.464653	0.464894
C98	C	-0.502808	0.714653	0.714894
C99	C	-0.252808	0.964653	0.964894
C100	C	-0.002808	1.214653	1.214894
C101	C	-1.394072	1.018764	0.464953
C102	C	-1.144072	1.268764	0.714953
C103	C	-0.894072	1.518764	0.964953
C104	C	-0.644072	1.768764	1.214953
C105	C	-1.394016	0.909531	0.464918
C106	C	-1.144016	1.159531	0.714918
C107	C	-0.894016	1.409531	0.964918
C108	C	-0.644016	1.659531	1.214918
C109	C	-1.394069	0.464555	0.716469
C110	C	-1.144069	0.714555	0.966469
C111	C	-0.894069	0.964555	1.216469
C112	C	-0.644069	1.214555	1.466469
C113	C	-1.394099	0.464519	0.823683
C114	C	-1.144099	0.714519	1.073683
C115	C	-0.894099	0.964519	1.323683
C116	C	-0.644099	1.214519	1.573683
C117	C	-1.394098	1.213048	0.464925
C118	C	-1.144098	1.463048	0.714925
C119	C	-0.894098	1.713048	0.964925
C120	C	-0.644098	1.963048	1.214925
C121	C	-1.394118	1.105834	0.464974
C122	C	-1.144118	1.355834	0.714974
C123	C	-0.894118	1.605834	0.964974
C124	C	-0.644118	1.855834	1.214974
C125	C	-1.393988	0.464656	0.214261
C126	C	-1.143988	0.714656	0.464261
C127	C	-0.893988	0.964656	0.714261
C128	C	-0.643988	1.214656	0.964261
C129	C	-1.394146	0.464420	0.107048
C130	C	-1.144146	0.714420	0.357048
C131	C	-0.894146	0.964420	0.607048
C132	C	-0.644146	1.214420	0.857048
C133	C	-1.394125	0.464454	1.019978
C134	C	-1.144125	0.714454	1.269978
C135	C	-0.894125	0.964454	1.519978
C136	C	-0.644125	1.214454	1.769978
C137	C	-1.394107	0.464493	0.910745
C138	C	-1.144107	0.714493	1.160745
C139	C	-0.894107	0.964493	1.410745
C140	C	-0.644107	1.214493	1.660745
