data_functionalizedCrystal
_audit_creation_method	'MofGen! by Chris Wilmer'
_symmetry_space_group_name_H-M	'P1'
_symmetry_Int_Tables_number	1
_symmetry_cell_setting	triclinic
loop_
_symmetry_equiv_pos_as_xyz
  x,y,z
_cell_length_a	12.759401
_cell_length_b	15.297327
_cell_length_c	12.759393
_cell_angle_alpha	99.641342
_cell_angle_beta	89.982549
_cell_angle_gamma	99.705457
loop_
_atom_site_label
_atom_site_type_symbol
_atom_site_fract_x
_atom_site_fract_y
_atom_site_fract_z
Zn1	Zn	1.533781	-0.359126	-0.666303
Zn2	Zn	2.033781	0.140874	-0.166303
Zn3	Zn	1.503234	-0.510013	-0.521009
Zn4	Zn	2.003234	-0.010013	-0.021009
Zn5	Zn	1.358078	-0.359171	-0.490651
Zn6	Zn	1.858078	0.140829	0.009349
Zn7	Zn	1.327641	-0.509940	-0.696635
Zn8	Zn	1.827641	-0.009940	-0.196635
O9	O	1.430683	-0.434563	-0.593650
O10	O	1.930683	0.065437	-0.093650
O11	O	1.676748	-0.379153	-0.647040
O12	O	2.176748	0.120847	-0.147040
O13	O	1.483932	-0.490053	-0.369970
O14	O	1.983932	0.009947	0.130030
O15	O	1.406907	-0.232921	-0.488553
O16	O	1.906907	0.267079	0.011447
O17	O	1.654305	-0.490010	-0.540293
O18	O	2.154305	0.009990	-0.040293
O19	O	1.535996	-0.232888	-0.617604
O20	O	2.035996	0.267112	-0.117604
O21	O	1.377286	-0.379230	-0.347667
O22	O	1.877286	0.120770	0.152333
O23	O	1.207021	-0.379159	-0.517965
O24	O	1.707021	0.120841	-0.017965
O25	O	1.355033	-0.489885	-0.839623
O26	O	1.855033	0.010115	-0.339623
O27	O	1.184660	-0.489929	-0.669300
O28	O	1.684660	0.010071	-0.169300
O29	O	1.506483	-0.379083	-0.817338
O30	O	2.006483	0.120917	-0.317338
O31	O	1.454419	-0.636248	-0.569705
O32	O	1.954419	-0.136248	-0.069705
O33	O	1.325412	-0.636195	-0.698737
O34	O	1.825412	-0.136195	-0.198737
C35	C	1.157720	-0.434542	-0.593631
C36	C	1.657720	0.065458	-0.093631
C37	C	1.040941	-0.434554	-0.593652
C38	C	1.540941	0.065446	-0.093652
C39	C	0.997736	-0.376940	-0.649361
C40	C	1.497736	0.123060	-0.149361
C41	C	0.888009	-0.376958	-0.649371
C42	C	1.388009	0.123042	-0.149371
C43	C	0.864699	-0.492210	-0.537961
C44	C	1.364699	0.007790	-0.037961
C45	C	0.974426	-0.492188	-0.537946
C46	C	1.474426	0.007812	-0.037946
C47	C	1.064252	-0.319307	-0.705068
C48	C	1.564252	0.180693	-0.205068
C49	C	1.021048	-0.261689	-0.760782
C50	C	1.521048	0.238311	-0.260782
C51	C	0.911320	-0.261706	-0.760793
C52	C	1.411320	0.238294	-0.260793
C53	C	0.844797	-0.319341	-0.705088
C54	C	1.344797	0.180659	-0.205088
C55	C	1.383327	-0.668955	-0.640829
C56	C	1.883327	-0.168955	-0.140829
C57	C	1.363163	-0.769229	-0.661048
C58	C	1.863163	-0.269229	-0.161048
C59	C	1.575227	-1.051871	-0.449502
C60	C	2.075227	-0.551871	0.050498
C61	C	1.594171	-0.957659	-0.430500
C62	C	2.094171	-0.457659	0.069500
C63	C	1.536421	-0.910547	-0.488136
C64	C	2.036421	-0.410547	0.011864
C65	C	1.459723	-0.957656	-0.564776
C66	C	1.959723	-0.457656	-0.064776
C67	C	1.440772	-1.051878	-0.583774
C68	C	1.940772	-0.551878	-0.083774
C69	C	1.401965	-0.910554	-0.622407
C70	C	1.901965	-0.410554	-0.122407
C71	C	1.325268	-0.957663	-0.699047
C72	C	1.825268	-0.457663	-0.199047
C73	C	1.306320	-1.051876	-0.718042
C74	C	1.806320	-0.551876	-0.218042
C75	C	1.364070	-1.098988	-0.660407
C76	C	1.864070	-0.598988	-0.160407
C77	C	1.420917	-0.816332	-0.603409
C78	C	1.920917	-0.316332	-0.103409
C79	C	1.286462	-0.816339	-0.737681
C80	C	1.786462	-0.316339	-0.237681
C81	C	1.267518	-0.910551	-0.756683
C82	C	1.767518	-0.410551	-0.256683
C83	C	1.704712	-0.434585	-0.593669
C84	C	2.204712	0.065415	-0.093669
C85	C	1.821487	-0.434594	-0.593678
C86	C	2.321487	0.065406	-0.093678
C87	C	1.430770	-0.434471	-0.867665
C88	C	1.930770	0.065529	-0.367665
C89	C	1.430807	-0.434432	-0.984433
C90	C	1.930807	0.065568	-0.484433
C91	C	1.478254	-0.199255	-0.546309
C92	C	1.978254	0.300745	-0.046309
C93	C	1.498526	-0.098981	-0.526135
C94	C	1.998526	0.401019	-0.026135
C95	C	1.375307	-0.376715	-1.027686
C96	C	1.875307	0.123285	-0.527686
C97	C	1.375345	-0.376688	-1.137405
C98	C	1.875345	0.123312	-0.637405
C99	C	1.486390	-0.492097	-1.160609
C100	C	1.986390	0.007903	-0.660609
C101	C	1.486346	-0.492128	-1.050893
C102	C	1.986346	0.007872	-0.550893
C103	C	1.319769	-0.319019	-0.961226
C104	C	1.819769	0.180981	-0.461226
C105	C	1.264265	-0.261298	-1.004478
C106	C	1.764265	0.238702	-0.504478
C107	C	1.264303	-0.261271	-1.114197
C108	C	1.764303	0.238729	-0.614197
C109	C	1.319843	-0.318966	-1.180664
C110	C	1.819843	0.181034	-0.680664
C111	C	1.430671	-0.434589	-0.320688
C112	C	1.930671	0.065411	0.179312
C113	C	1.430888	-0.434374	-0.203868
C114	C	1.930888	0.065626	0.296132
H115	H	1.075219	-0.214759	-0.806128
H116	H	1.575219	0.285241	-0.306128
Br117	Br	1.561762	-0.570391	-1.250813
Br118	Br	2.061762	-0.070391	-0.750813
H119	H	1.219101	-0.214277	-1.149410
H120	H	1.719101	0.285723	-0.649410
H121	H	1.219040	-0.214330	-0.950355
H122	H	1.719040	0.285670	-0.450355
H123	H	1.551849	-0.833835	-0.472659
H124	H	2.051849	-0.333835	0.027341
Br125	Br	0.852689	-0.183503	-0.836391
Br126	Br	1.352689	0.316497	-0.336391
Br127	Br	1.337892	-1.226852	-0.685721
Br128	Br	1.837892	-0.726852	-0.185721
H129	H	1.531555	-0.539113	-1.015674
H130	H	2.031555	-0.039113	-0.515674
Br131	Br	0.774419	-0.570425	-0.462369
Br132	Br	1.274419	-0.070425	0.037631
Br133	Br	0.695882	-0.319352	-0.705087
Br134	Br	1.195882	0.180648	-0.205087
Br135	Br	1.319885	-0.318933	-1.329570
Br136	Br	1.819885	0.181067	-0.829570
Br137	Br	1.525002	-0.752409	-0.499399
Br138	Br	2.025002	-0.252409	0.000601
H139	H	1.009603	-0.539102	-0.492582
H140	H	1.509603	-0.039102	0.007418
H141	H	1.622233	-1.090238	-0.402577
H142	H	2.122233	-0.590238	0.097423
Br143	Br	1.213167	-0.319286	-0.705066
Br144	Br	1.713167	0.180714	-0.205066
Br145	Br	1.698265	-0.893730	-0.326502
Br146	Br	2.198265	-0.393730	0.173498
Br147	Br	1.163433	-0.974496	-0.860693
Br148	Br	1.663433	-0.474496	-0.360693
Br149	Br	1.202223	-1.115809	-0.822047
Br150	Br	1.702223	-0.615809	-0.322047
Br151	Br	1.208071	-0.752409	-0.815895
Br152	Br	1.708071	-0.252409	-0.315895
Br153	Br	1.319724	-0.319046	-0.812321
Br154	Br	1.819724	0.180954	-0.312321
