data_functionalizedCrystal
_audit_creation_method	'MofGen! by Chris Wilmer'
_symmetry_space_group_name_H-M	'P1'
_symmetry_Int_Tables_number	1
_symmetry_cell_setting	triclinic
loop_
_symmetry_equiv_pos_as_xyz
  x,y,z
_cell_length_a	18.050591
_cell_length_b	18.050589
_cell_length_c	16.959447
_cell_angle_alpha	90.026643
_cell_angle_beta	90.020296
_cell_angle_gamma	90.024669
loop_
_atom_site_label
_atom_site_type_symbol
_atom_site_fract_x
_atom_site_fract_y
_atom_site_fract_z
Zn1	Zn	1.135296	-0.295715	0.447055
Zn2	Zn	1.135206	-0.419917	0.314885
Zn3	Zn	1.011115	-0.295737	0.314879
Zn4	Zn	1.011064	-0.419860	0.447010
O5	O	1.073170	-0.357807	0.380957
O6	O	1.239209	-0.312205	0.429544
O7	O	1.118728	-0.403477	0.204273
O8	O	1.027647	-0.191810	0.332428
O9	O	1.239143	-0.403455	0.332439
O10	O	1.118883	-0.191793	0.429538
O11	O	1.027559	-0.312243	0.204268
O12	O	0.907183	-0.312188	0.332384
O13	O	1.027560	-0.403359	0.557627
O14	O	0.907146	-0.403381	0.429461
O15	O	1.118833	-0.312150	0.557660
O16	O	1.118679	-0.523834	0.332395
O17	O	1.027472	-0.523792	0.429467
C18	C	0.880218	-0.357781	0.380917
C19	C	0.797672	-0.357788	0.380919
C20	C	0.548845	-0.308146	0.328254
C21	C	0.598278	-0.290055	0.400389
C22	C	0.500552	-0.357826	0.380984
C23	C	0.598201	-0.375863	0.308821
C24	C	0.646537	-0.357805	0.380948
C25	C	0.548897	-0.339700	0.453158
C26	C	0.548816	-0.425539	0.361540
C27	C	0.598226	-0.407474	0.433725
C28	C	0.416454	-0.357836	0.381003
C29	C	0.730633	-0.357796	0.380937
C30	C	1.073081	-0.550760	0.380944
C31	C	1.073110	-0.633305	0.380965
C32	C	1.023561	-0.832760	0.433734
C33	C	1.005462	-0.882203	0.361605
C34	C	1.073183	-0.784436	0.380975
C35	C	1.091318	-0.882074	0.453112
C36	C	1.073252	-0.930421	0.380991
C37	C	1.055049	-0.832791	0.308808
C38	C	1.140936	-0.832658	0.400364
C39	C	1.122864	-0.882079	0.328185
C40	C	1.073141	-0.700337	0.380967
C41	C	1.073294	-1.014517	0.380991
C42	C	1.266876	-0.357834	0.380997
C43	C	1.349422	-0.357846	0.381014
C44	C	1.073201	-0.357746	0.587125
C45	C	1.073214	-0.357720	0.674982
C46	C	1.073280	-0.164102	0.380987
C47	C	1.073327	-0.081556	0.381000
C48	C	1.073182	-0.357815	0.175591
C49	C	1.073313	-0.357632	0.087735
C50	C	1.025781	-0.405130	1.046443
C51	C	1.120825	-0.310153	1.046473
C52	C	1.120805	-0.310169	0.963927
C53	C	1.073273	-0.357666	0.922635
C54	C	1.025761	-0.405148	0.963889
C55	C	1.168321	-0.262693	0.922666
C56	C	1.168304	-0.262708	0.840115
C57	C	1.120768	-0.310202	0.798822
C58	C	1.073254	-0.357685	0.840081
C59	C	1.025722	-0.405183	0.798790
C60	C	0.978203	-0.452663	0.840048
C61	C	0.978225	-0.452643	0.922596
C62	C	1.120746	-0.310222	0.716274
C63	C	1.025702	-0.405202	0.716236
H64	H	0.527074	-0.482796	0.345084
H65	H	1.206996	-0.224046	0.806530
O66	O	0.624236	-0.221779	0.420132
C67	C	0.696645	-0.149562	0.511551
C68	C	0.667287	-0.226924	0.489299
H69	H	0.731470	-0.153698	0.567465
H70	H	0.648008	-0.110555	0.522207
H71	H	0.732233	-0.127167	0.461411
H72	H	0.631711	-0.249386	0.539411
H73	H	0.715957	-0.265882	0.478615
O74	O	0.932141	-0.498738	0.962796
C75	C	0.890022	-0.540767	1.089956
C76	C	0.942260	-0.488539	1.044525
H77	H	0.898174	-0.532528	1.156042
H78	H	0.903023	-0.600673	1.073772
H79	H	0.830150	-0.527727	1.073678
H80	H	1.002150	-0.501512	1.060779
H81	H	0.929195	-0.428649	1.060713
H82	H	0.619860	-0.391127	0.247809
O83	O	1.166877	-0.264178	0.676074
C84	C	1.208941	-0.222085	0.548917
C85	C	1.156669	-0.274282	0.594343
H86	H	1.200695	-0.230224	0.482830
H87	H	1.268836	-0.235139	0.565091
H88	H	1.195953	-0.162203	0.565209
H89	H	1.169591	-0.334181	0.578076
H90	H	1.096790	-0.261164	0.578166
H91	H	0.527330	-0.324368	0.514187
H92	H	0.619770	-0.449478	0.478354
O93	O	1.166958	-0.263915	1.086495
C94	C	1.203053	-0.137588	1.111836
C95	C	1.150771	-0.189871	1.066443
H96	H	1.189974	-0.077711	1.095653
H97	H	1.262937	-0.150577	1.095593
H98	H	1.194918	-0.145773	1.177918
H99	H	1.158840	-0.181715	1.000351
H100	H	1.090906	-0.176869	1.082752
O101	O	0.973328	-0.806953	0.486796
C102	C	0.845175	-0.802961	0.526312
C103	C	0.901983	-0.832223	0.466158
H104	H	0.787483	-0.823393	0.509656
H105	H	0.845924	-0.739807	0.526208
H106	H	0.860077	-0.824063	0.587644
H107	H	0.887121	-0.811176	0.404796
H108	H	0.901224	-0.895376	0.466330
H109	H	0.948198	-0.903982	0.345220
H110	H	1.039672	-0.811232	0.247792
H111	H	0.527165	-0.266111	0.283732
H112	H	1.164857	-0.903597	0.283524
H113	H	1.198188	-0.810881	0.416783
H114	H	1.106629	-0.903723	0.514111
H115	H	0.986989	-0.443874	0.682622
H116	H	0.939506	-0.491339	0.806417
O117	O	0.979694	-0.451226	1.086637
C118	C	0.937558	-0.493257	1.213791
C119	C	0.989802	-0.441028	1.168369
H120	H	0.945701	-0.485019	1.279878
H121	H	0.950563	-0.553163	1.197608
H122	H	0.877688	-0.480218	1.197504
H123	H	1.049689	-0.454000	1.184631
H124	H	0.976733	-0.381138	1.184555
O125	O	1.214454	-0.216457	0.962692
C126	C	1.250555	-0.090132	0.988036
C127	C	1.198275	-0.142412	0.942637
H128	H	1.237483	-0.030255	0.971851
H129	H	1.310441	-0.103126	0.971802
H130	H	1.242412	-0.098315	1.054117
H131	H	1.206353	-0.134258	0.876545
H132	H	1.138409	-0.129405	0.958937
