data_functionalizedCrystal
_audit_creation_method	'MofGen! by Chris Wilmer'
_symmetry_space_group_name_H-M	'P1'
_symmetry_Int_Tables_number	1
_symmetry_cell_setting	triclinic
loop_
_symmetry_equiv_pos_as_xyz
  x,y,z
_cell_length_a	27.440280
_cell_length_b	23.096457
_cell_length_c	27.440280
_cell_angle_alpha	60.007966
_cell_angle_beta	90.008003
_cell_angle_gamma	59.998890
loop_
_atom_site_label
_atom_site_type_symbol
_atom_site_fract_x
_atom_site_fract_y
_atom_site_fract_z
Zr1	Zr	0.469514	0.633655	-0.063868
O2	O	0.391696	0.754441	-0.141684
O3	O	0.493368	0.512869	-0.040017
O4	O	0.493369	0.633641	-0.141675
O5	O	0.391697	0.633680	0.040168
O6	O	0.573571	0.633630	-0.141665
O7	O	0.391695	0.633669	-0.040025
O8	O	0.573569	0.417591	0.040183
O9	O	0.391699	0.849719	-0.141680
O10	O	0.563397	0.562542	-0.029833
O11	O	0.503544	0.562558	0.030007
O12	O	0.503545	0.704751	-0.089683
O13	O	0.443691	0.704768	-0.029843
Zr14	Zr	0.597430	0.633655	0.064047
Zr15	Zr	0.597428	0.633637	-0.063852
Zr16	Zr	0.469516	0.633673	0.064031
Zr17	Zr	0.469517	0.785612	-0.063863
Zr18	Zr	0.597427	0.481698	0.064042
O19	O	0.573577	0.754441	0.040195
O20	O	0.573574	0.754415	-0.141661
O21	O	0.391699	0.754466	0.040173
O22	O	0.675248	0.512869	0.141862
O23	O	0.675245	0.512844	-0.039994
O24	O	0.493370	0.512894	0.141840
O25	O	0.675248	0.633630	-0.039990
O26	O	0.573575	0.633669	0.141854
O27	O	0.493373	0.633680	0.141844
O28	O	0.675249	0.633641	0.040204
O29	O	0.493373	0.849705	-0.141667
O30	O	0.573571	0.417605	0.141846
O31	O	0.675246	0.417591	0.141859
O32	O	0.675244	0.417577	0.040196
O33	O	0.391700	0.849733	-0.040017
O34	O	0.493375	0.849719	-0.040005
O35	O	0.563399	0.562558	0.089862
O36	O	0.623253	0.562542	0.030022
O37	O	0.563400	0.704751	-0.029828
O38	O	0.503547	0.704768	0.030012
C39	C	0.533468	0.443579	0.000083
C40	C	0.533467	0.379070	0.000080
C41	C	0.564706	0.348760	-0.031158
C42	C	0.564711	0.288138	-0.031153
C43	C	0.533467	0.257839	0.000082
C44	C	0.502226	0.288153	0.031327
C45	C	0.502226	0.348768	0.031326
N46	N	0.482621	0.195450	-0.004256
N47	N	0.482622	0.137869	-0.004259
C48	C	0.533466	0.075207	0.000087
N49	N	0.584308	0.072308	0.004425
N50	N	0.584306	0.129897	0.004424
C51	C	0.533464	0.192111	0.000087
C52	C	0.564714	-0.020837	-0.031147
C53	C	0.564722	-0.081464	-0.031138
C54	C	0.502231	-0.081442	0.031338
C55	C	0.502229	-0.020822	0.031333
C56	C	0.533469	0.009479	0.000087
C57	C	0.373471	0.633677	0.000069
C58	C	0.319168	0.633685	0.000062
C59	C	0.013713	0.559409	0.031347
C60	C	-0.037306	0.559405	0.031352
O61	O	-0.037124	0.496273	0.057940
N62	N	-0.094065	0.633636	0.000110
C63	C	-0.099805	0.707877	-0.031133
O64	O	-0.152767	0.771016	-0.057706
C65	C	-0.048787	0.707880	-0.031135
C66	C	0.007971	0.633644	0.000104
C67	C	0.070468	0.485179	0.062584
C68	C	0.121483	0.485184	0.062577
C69	C	0.115742	0.559419	0.031334
C70	C	0.058986	0.633649	0.000097
C71	C	-0.054527	0.782120	-0.062375
C72	C	-0.003503	0.782117	-0.062373
C73	C	0.053255	0.707881	-0.031135
C74	C	0.104260	0.707889	-0.031152
N75	N	0.161019	0.633658	0.000090
C76	C	0.166760	0.559423	0.031333
C77	C	-0.206943	0.707863	-0.031127
C78	C	-0.257961	0.707860	-0.031130
C79	C	-0.195458	0.559388	0.031357
C80	C	-0.144440	0.559392	0.031356
C81	C	-0.150184	0.633632	0.000114
C82	C	0.273892	0.559438	0.031317
C83	C	0.324909	0.559450	0.031306
C84	C	0.262402	0.707921	-0.031178
C85	C	0.211390	0.707911	-0.031170
C86	C	0.217139	0.633662	0.000082
O87	O	0.104124	0.770988	-0.057724
O88	O	0.219724	0.496294	0.057907
C89	C	0.693473	0.633633	0.000109
C90	C	0.747776	0.633625	0.000116
C91	C	0.533470	0.633633	-0.159893
C92	C	0.533469	0.633625	-0.214190
C93	C	0.533476	0.823730	0.000096
C94	C	0.533477	0.888240	0.000098
C95	C	0.502235	0.707900	-0.582165
C96	C	0.502237	0.707905	-0.633187
O97	O	0.475685	0.771036	-0.686144
N98	N	0.533478	0.633674	-0.627463
C99	C	0.564724	0.559433	-0.570713
O100	O	0.591298	0.496294	-0.570530
C101	C	0.564726	0.559430	-0.519692
C102	C	0.533478	0.633666	-0.525420
C103	C	0.470990	0.782130	-0.587891
C104	C	0.470988	0.782126	-0.536872
C105	C	0.502230	0.707891	-0.480127
C106	C	0.533475	0.633661	-0.474401
C107	C	0.595975	0.485190	-0.462943
C108	C	0.595974	0.485193	-0.411921
C109	C	0.564726	0.559429	-0.417649
C110	C	0.564715	0.559421	-0.366638
N111	N	0.533474	0.633652	-0.372361
C112	C	0.502232	0.707887	-0.429106
C113	C	0.564720	0.559447	-0.677863
C114	C	0.564715	0.559449	-0.728882
C115	C	0.502229	0.707921	-0.791353
C116	C	0.502230	0.707918	-0.740332
C117	C	0.533479	0.633678	-0.683586
C118	C	0.502228	0.707871	-0.321960
C119	C	0.502226	0.707860	-0.270934
C120	C	0.564715	0.559388	-0.208468
C121	C	0.564715	0.559399	-0.259490
C122	C	0.533470	0.633647	-0.316237
O123	O	0.591256	0.496322	-0.313662
O124	O	0.475669	0.771016	-0.429279
C125	C	0.533474	0.633677	0.160072
C126	C	0.533475	0.633685	0.214368
C127	C	0.693469	0.443557	0.000103
C128	C	0.747771	0.379040	0.000107
C129	C	0.533470	0.443602	0.160065
C130	C	0.533470	0.379099	0.214359
C131	C	0.693471	0.443579	0.160085
C132	C	0.747774	0.379070	0.214386
C133	C	0.373473	0.823730	-0.159906
C134	C	0.319170	0.888240	-0.214207
C135	C	0.373475	0.823753	0.000076
C136	C	0.319173	0.888270	0.000072
C137	C	0.533474	0.823708	-0.159886
C138	C	0.533474	0.888210	-0.214181
C139	C	0.742027	0.348742	-0.031140
C140	C	0.793045	0.288129	-0.031147
C141	C	0.849804	0.257811	0.000096
C142	C	0.855547	0.288116	0.031343
C143	C	0.804530	0.348731	0.031347
C144	C	0.564713	0.348808	0.271105
C145	C	0.564710	0.288210	0.322126
C146	C	0.533467	0.257900	0.316398
C147	C	0.502220	0.288197	0.259646
C148	C	0.502219	0.348798	0.208627
C149	C	0.804523	0.348766	0.208651
C150	C	0.855551	0.288161	0.259667
C151	C	0.849828	0.257856	0.316419
C152	C	0.793073	0.288165	0.322153
C153	C	0.742046	0.348773	0.271137
C154	C	0.262421	0.918551	-0.208472
C155	C	0.211393	0.979175	-0.259489
C156	C	0.217116	1.009484	-0.316240
C157	C	0.273872	0.979170	-0.321975
C158	C	0.324898	0.918551	-0.270958
C159	C	0.324917	0.918575	0.031313
C160	C	0.273900	0.979204	0.031307
C161	C	0.217140	1.009524	0.000062
C162	C	0.211398	0.979217	-0.031184
C163	C	0.262414	0.918593	-0.031180
C164	C	0.564724	0.918502	-0.208434
C165	C	0.564736	0.979100	-0.259444
C166	C	0.533495	1.009411	-0.316201
C167	C	0.502245	0.979114	-0.321946
C168	C	0.502236	0.918512	-0.270936
H169	H	0.590164	-0.106146	-0.056573
H170	H	0.175604	1.058888	0.000064
H171	H	0.901759	0.263489	0.254988
O172	O	0.595116	0.487264	-0.723210
C173	C	0.622676	0.421746	-0.662181
H174	H	0.628859	0.443508	-0.634968
H175	H	0.668062	0.369822	-0.655066
H176	H	0.593394	0.398927	-0.647161
O177	O	0.471904	1.008681	-0.377125
C178	C	0.478627	1.068653	-0.420909
H179	H	0.490143	1.095142	-0.401010
H180	H	0.435142	1.119662	-0.460255
H181	H	0.516031	1.039652	-0.436866
H182	H	-0.098228	0.498942	0.056798
O183	O	0.810042	0.378304	0.153506
C184	C	0.782427	0.463232	0.122101
H185	H	0.747631	0.488993	0.141540
H186	H	0.759806	0.494601	0.073001
H187	H	0.817513	0.474779	0.126366
H188	H	0.695840	0.373438	0.275815
O189	O	0.595166	1.008453	-0.253886
C190	C	0.639018	0.993644	-0.281520
H191	H	0.650633	0.940520	-0.283878
H192	H	0.680739	0.977584	-0.254450
H193	H	0.621144	1.050852	-0.328575
H194	H	0.257738	0.768362	-0.056618
O195	O	0.471864	0.378097	0.153550
C196	C	0.444281	0.338356	0.159443
H197	H	0.468788	0.276931	0.204976
H198	H	0.445967	0.327885	0.122864
H199	H	0.395786	0.378114	0.155254
H200	H	0.590164	0.893832	-0.162225
O201	O	0.686850	0.378252	-0.061442
C202	C	0.643044	0.438268	-0.054758
H203	H	0.662924	0.428314	-0.012559
H204	H	0.603697	0.433356	-0.051192
H205	H	0.627087	0.501664	-0.095119
H206	H	0.590158	0.263550	0.368331
O207	O	0.533452	0.199105	0.366005
C208	C	0.508600	0.228749	0.400173
H209	H	0.512841	0.280313	0.389005
H210	H	0.533408	0.176992	0.449664
H211	H	0.459455	0.252911	0.389480
H212	H	0.371104	0.893873	-0.275635
O213	O	0.471890	-0.110932	0.061629
C214	C	0.478602	-0.170951	0.054947
H215	H	0.490107	-0.161009	0.012756
H216	H	0.435116	-0.166029	0.051366
H217	H	0.516010	-0.234346	0.095314
H218	H	0.476789	0.003859	0.056768
O219	O	0.471935	0.258621	0.254194
C220	C	0.478636	0.198644	0.311397
H221	H	0.520827	0.172165	0.345210
H222	H	0.482237	0.147629	0.310848
H223	H	0.438264	0.227638	0.324389
O224	O	0.787440	0.258712	0.377251
C225	C	0.755984	0.223627	0.383799
H226	H	0.727815	0.251007	0.337876
H227	H	0.725664	0.236912	0.410640
H228	H	0.789036	0.154591	0.408178
H229	H	0.590154	0.003833	-0.056587
H230	H	-0.008187	0.842574	-0.087807
H231	H	0.165186	1.003846	-0.254808
O232	O	0.380077	0.487385	0.061698
C233	C	0.411459	0.482941	0.105551
H234	H	0.391975	0.547396	0.092418
H235	H	0.460559	0.451519	0.109332
H236	H	0.407219	0.446314	0.150363
H237	H	0.533506	1.058757	-0.357731
H238	H	-0.211629	0.768322	-0.056570
H239	H	0.891382	0.208504	0.357955
O240	O	0.279557	0.487263	0.061759
C241	C	0.311032	0.442116	0.122741
H242	H	0.339184	0.463239	0.127846
H243	H	0.341370	0.374206	0.141878
H244	H	0.277994	0.452397	0.147811
O245	O	0.471907	0.889004	-0.276417
C246	C	0.478567	0.829044	-0.219229
H247	H	0.520778	0.802488	-0.185399
H248	H	0.482105	0.778079	-0.219805
H249	H	0.438206	0.858078	-0.206239
H250	H	0.590145	0.373428	-0.056598
H251	H	0.590151	0.263455	-0.056591
H252	H	0.257750	0.893877	-0.162266
H253	H	0.278524	1.003855	-0.368188
H254	H	0.175562	1.058843	-0.357776
O255	O	-0.109610	0.854307	-0.092723
C256	C	-0.103722	0.919819	-0.120300
H257	H	-0.058185	0.898041	-0.095799
H258	H	-0.140304	0.971735	-0.118607
H259	H	-0.107918	0.942654	-0.168794
O260	O	0.626385	0.413005	-0.457266
C261	C	0.653950	0.347489	-0.396237
H262	H	0.660127	0.369259	-0.369027
H263	H	0.699339	0.295570	-0.389122
H264	H	0.624674	0.324659	-0.381212
H265	H	0.278587	1.003870	0.056753
O266	O	0.156298	0.780095	-0.061537
C267	C	0.162174	0.845616	-0.089134
H268	H	0.207702	0.823862	-0.064632
H269	H	0.125577	0.897547	-0.087463
H270	H	0.157993	0.868422	-0.137620
H271	H	0.371129	0.893893	0.056760
H272	H	0.476787	0.263479	0.056759
O273	O	0.156215	1.008734	-0.061478
C274	C	0.112425	1.068750	-0.054785
H275	H	0.132323	1.058793	-0.012592
H276	H	0.073077	1.063841	-0.051201
H277	H	0.096464	1.132145	-0.095149
O278	O	0.787353	0.258758	-0.061508
C279	C	0.726314	0.298525	-0.089085
H280	H	0.699117	0.323502	-0.064575
H281	H	0.719197	0.253060	-0.087403
H282	H	0.711271	0.351169	-0.137575
H283	H	0.476786	0.373447	0.056764
H284	H	0.257730	0.893920	-0.056619
H285	H	0.167695	0.424733	0.088012
H286	H	-0.190791	0.498942	0.056795
O287	O	0.076159	0.412988	0.092943
C288	C	0.137198	0.347483	0.120522
H289	H	0.164395	0.369262	0.096014
H290	H	0.144320	0.295557	0.118839
H291	H	0.152239	0.324659	0.169012
O292	O	-0.313048	0.780047	-0.061491
C293	C	-0.307166	0.845563	-0.089079
H294	H	-0.261634	0.823799	-0.064576
H295	H	-0.343757	0.897489	-0.087400
H296	H	-0.311352	0.868380	-0.137568
O297	O	0.471863	0.780050	-0.276607
C298	C	0.444278	0.845569	-0.337635
H299	H	0.468787	0.823803	-0.364841
H300	H	0.445959	0.897485	-0.344736
H301	H	0.395784	0.868401	-0.352678
H302	H	0.476786	0.768331	-0.368161
O303	O	0.440550	0.854293	-0.542519
C304	C	0.379562	0.899452	-0.573991
H305	H	0.374453	0.878335	-0.602148
H306	H	0.360425	0.967361	-0.604320
H307	H	0.354490	0.889180	-0.540957
O308	O	0.440733	0.854228	-0.643023
C309	C	0.480831	0.858676	-0.674410
H310	H	0.527908	0.816542	-0.641309
H311	H	0.467286	0.924333	-0.702605
H312	H	0.479726	0.838751	-0.704697
O313	O	0.471792	0.780082	-0.745975
C314	C	0.410802	0.825238	-0.777441
H315	H	0.405691	0.804126	-0.805601
H316	H	0.391662	0.893148	-0.807766
H317	H	0.385737	0.814955	-0.744402
O318	O	0.471926	0.780089	-0.846449
C319	C	0.494912	0.825231	-0.852980
H320	H	0.517787	0.804123	-0.807050
H321	H	0.456891	0.893145	-0.879818
H322	H	0.528645	0.814929	-0.877353
O323	O	0.595107	0.487339	-0.254002
C324	C	0.638974	0.482878	-0.281614
H325	H	0.625845	0.547329	-0.316376
H326	H	0.642763	0.451458	-0.304271
H327	H	0.683785	0.446242	-0.246525
H328	H	0.590164	0.498988	-0.631658
H329	H	0.621422	0.424736	-0.365717
H330	H	0.590151	0.498948	-0.162258
H331	H	0.891341	0.208454	0.000088
H332	H	0.901767	0.263422	0.056780
H333	H	0.809215	0.373392	0.056796
H334	H	0.590155	0.373480	0.275780
