data_functionalizedCrystal
_audit_creation_method	'MofGen! by Chris Wilmer'
_symmetry_space_group_name_H-M	'P1'
_symmetry_Int_Tables_number	1
_symmetry_cell_setting	triclinic
loop_
_symmetry_equiv_pos_as_xyz
  x,y,z
_cell_length_a	19.805407
_cell_length_b	21.295417
_cell_length_c	21.295411
_cell_angle_alpha	90.028718
_cell_angle_beta	90.017372
_cell_angle_gamma	90.030507
loop_
_atom_site_label
_atom_site_type_symbol
_atom_site_fract_x
_atom_site_fract_y
_atom_site_fract_z
Zn1	Zn	1.034702	-0.250637	0.355927
Zn2	Zn	1.034613	-0.355902	0.250652
Zn3	Zn	0.921521	-0.250650	0.250670
Zn4	Zn	0.921472	-0.355872	0.355882
O5	O	0.978077	-0.303265	0.303283
O6	O	1.129406	-0.264607	0.341973
O7	O	1.019594	-0.341958	0.162565
O8	O	0.936592	-0.162559	0.264659
O9	O	1.129341	-0.341945	0.264628
O10	O	1.019746	-0.162549	0.341991
O11	O	0.936506	-0.264630	0.162578
O12	O	0.826798	-0.264602	0.264616
O13	O	0.936509	-0.341895	0.443978
O14	O	0.826762	-0.341908	0.341915
O15	O	1.019698	-0.264579	0.444010
O16	O	1.019547	-0.443987	0.264585
O17	O	0.936422	-0.443966	0.341897
C18	C	0.802221	-0.303253	0.303263
C19	C	0.726989	-0.303263	0.303269
C20	C	0.691644	-0.343577	0.343453
C21	C	0.620955	-0.343578	0.343462
C22	C	0.585613	-0.303268	0.303283
C23	C	0.620963	-0.262950	0.263097
C24	C	0.691650	-0.262946	0.263092
C25	C	0.335890	-0.262964	0.263118
C26	C	0.265198	-0.262972	0.263125
C27	C	0.265195	-0.343596	0.343488
C28	C	0.335882	-0.343592	0.343483
C29	C	0.371226	-0.303272	0.303299
C30	C	0.447874	-0.303270	0.303291
C31	C	0.508966	-0.303273	0.303288
C32	C	0.977988	-0.466817	0.303248
C33	C	0.978012	-0.536785	0.303254
C34	C	1.021333	-0.569642	0.263039
C35	C	1.021365	-0.635385	0.263053
C36	C	0.978063	-0.668268	0.303276
C37	C	0.934739	-0.635403	0.343499
C38	C	0.934713	-0.569661	0.343488
N39	N	0.918853	-0.771534	0.308068
N40	N	0.918879	-0.833985	0.308075
C41	C	0.978139	-0.866342	0.303312
N42	N	1.037373	-0.833889	0.298530
N43	N	1.037346	-0.771432	0.298520
C44	C	0.978087	-0.739553	0.303292
C45	C	1.021498	-0.970485	0.263110
C46	C	1.021531	-1.036229	0.263129
C47	C	0.934899	-1.036245	0.343571
C48	C	0.934873	-0.970503	0.343556
C49	C	0.978171	-0.937627	0.303322
C50	C	1.154619	-0.303278	0.303304
C51	C	1.229851	-0.303283	0.303313
C52	C	0.978108	-0.303232	0.467473
C53	C	0.978121	-0.303218	0.537441
C54	C	0.978184	-0.139075	0.303332
C55	C	0.978230	-0.069107	0.303353
C56	C	0.978085	-0.303253	0.139731
C57	C	0.978203	-0.303090	0.069764
C58	C	1.021461	-0.343352	1.036893
C59	C	1.021449	-0.343372	0.971151
C60	C	0.978185	-0.303119	0.938281
C61	C	0.934918	-0.262855	0.971159
C62	C	0.934927	-0.262841	1.036901
N63	N	0.973015	-0.248040	0.835076
N64	N	0.973011	-0.248056	0.772624
C65	C	0.978155	-0.303162	0.740206
N66	N	0.983318	-0.358253	0.772599
N67	N	0.983325	-0.358237	0.835056
C68	C	0.978171	-0.303131	0.866996
C69	C	1.021403	-0.343448	0.636050
C70	C	1.021386	-0.343469	0.570307
C71	C	0.934859	-0.262948	0.570316
C72	C	0.934873	-0.262932	0.636059
C73	C	0.978148	-0.303181	0.668922
H74	H	0.592180	-0.376406	0.376184
C75	C	0.888018	-0.219182	0.671835
C76	C	0.926367	-0.178839	0.709611
C77	C	0.883222	-0.138537	0.742584
H78	H	0.862230	-0.195151	0.642921
H79	H	0.858529	-0.243245	0.697504
H80	H	0.955844	-0.154779	0.683944
H81	H	0.952153	-0.202853	0.738537
H82	H	0.853734	-0.162599	0.768253
H83	H	0.857437	-0.114510	0.713665
H84	H	0.909235	-0.111163	0.768223
H85	H	0.899593	-0.943749	0.376300
C86	C	0.730047	-0.387421	0.386973
C87	C	0.770580	-0.427731	0.351255
C88	C	0.805958	-0.468133	0.391327
H89	H	0.757701	-0.363449	0.414456
H90	H	0.698891	-0.411466	0.410897
H91	H	0.801732	-0.403689	0.327342
H92	H	0.742943	-0.451717	0.323774
H93	H	0.774802	-0.492178	0.415250
H94	H	0.833608	-0.444156	0.418807
H95	H	0.833459	-0.495492	0.367098
C96	C	0.226916	-0.219237	0.219396
C97	C	0.244097	-0.232844	0.157088
C98	C	0.208854	-0.192566	0.116789
H99	H	0.179745	-0.224974	0.225065
H100	H	0.238539	-0.176943	0.228652
H101	H	0.232469	-0.275128	0.147835
H102	H	0.291262	-0.227103	0.151400
H103	H	0.220477	-0.150272	0.126045
H104	H	0.161684	-0.198306	0.122463
H105	H	0.220511	-0.201789	0.074509
H106	H	1.056697	-0.376128	1.063646
C107	C	0.887833	-0.219231	0.935508
C108	C	0.820858	-0.232946	0.951470
C109	C	0.777460	-0.192779	0.918634
H110	H	0.897673	-0.176910	0.946268
H111	H	0.893979	-0.225010	0.891641
H112	H	0.814715	-0.227161	0.995327
H113	H	0.810996	-0.275259	0.940708
H114	H	0.783605	-0.198559	0.874767
H115	H	0.787306	-0.150461	0.929398
H116	H	0.732012	-0.202083	0.929456
C117	C	1.068424	-0.670955	0.219317
C118	C	1.106326	-0.628092	0.184070
C119	C	1.149676	-0.660834	0.143767
H120	H	1.097970	-0.696564	0.243353
H121	H	1.042570	-0.696625	0.191840
H122	H	1.132179	-0.602433	0.211543
H123	H	1.076798	-0.602481	0.160021
H124	H	1.123821	-0.686504	0.116291
H125	H	1.179217	-0.686442	0.167809
H126	H	1.175393	-0.631757	0.119843
C127	C	0.887874	-0.219230	1.072623
C128	C	0.844466	-0.254865	1.110337
C129	C	0.801105	-0.214713	1.143247
H130	H	0.913704	-0.191782	1.098332
H131	H	0.862064	-0.195273	1.043652
H132	H	0.870273	-0.278812	1.139305
H133	H	0.818621	-0.282312	1.084644
H134	H	0.775294	-0.190756	1.114276
H135	H	0.826941	-0.187267	1.168952
H136	H	0.771643	-0.238886	1.168835
H137	H	0.364654	-0.376419	0.376199
H138	H	0.364659	-0.230137	0.230393
H139	H	0.236409	-0.376424	0.376210
C140	C	0.582472	-0.219249	0.219500
C141	C	0.513002	-0.227891	0.228093
C142	C	0.477525	-0.187649	0.187936
H143	H	0.594001	-0.176941	0.228754
H144	H	0.593995	-0.228407	0.177172
H145	H	0.501483	-0.218729	0.270411
H146	H	0.501453	-0.270191	0.218835
H147	H	0.489048	-0.196807	0.145608
H148	H	0.489059	-0.145344	0.197193
H149	H	0.430386	-0.193512	0.193756
H150	H	1.056638	-0.376223	0.662809
C151	C	1.068235	-0.533918	0.219284
C152	C	1.029926	-0.496245	0.178885
C153	C	1.073109	-0.463333	0.138565
H154	H	1.097716	-0.508181	0.243311
H155	H	1.094028	-0.562888	0.195300
H156	H	1.004144	-0.467279	0.202867
H157	H	1.000447	-0.521966	0.154845
H158	H	1.098902	-0.492303	0.114580
H159	H	1.102588	-0.437600	0.162597
H160	H	1.047123	-0.437773	0.111146
C161	C	0.887750	-0.671214	0.387101
C162	C	0.897031	-0.735821	0.378491
C163	C	0.853751	-0.768830	0.418643
H164	H	0.897581	-0.660481	0.429429
H165	H	0.842261	-0.660520	0.377841
H166	H	0.942510	-0.746512	0.387754
H167	H	0.887195	-0.746573	0.336171
H168	H	0.808261	-0.758135	0.409384
H169	H	0.863586	-0.758091	0.460969
H170	H	0.860038	-0.812668	0.412803
H171	H	0.899435	-0.542909	0.376237
C172	C	0.887958	-0.219270	0.534524
C173	C	0.897217	-0.227890	0.469914
C174	C	0.854026	-0.187661	0.436920
H175	H	0.842450	-0.228440	0.545214
H176	H	0.897896	-0.176958	0.545274
H177	H	0.887274	-0.270192	0.459169
H178	H	0.942716	-0.218716	0.459206
H179	H	0.863965	-0.145349	0.447670
H180	H	0.808520	-0.196834	0.447615
H181	H	0.860307	-0.193500	0.393079
H182	H	1.056813	-1.062980	0.230382
C183	C	1.068470	-0.934864	0.219332
C184	C	1.053794	-0.950925	0.157041
C185	C	1.097055	-0.918131	0.116696
H186	H	1.062289	-0.890995	0.224997
H187	H	1.113958	-0.945604	0.228549
H188	H	1.008317	-0.940181	0.147827
H189	H	1.059979	-0.994788	0.151356
H190	H	1.142543	-0.928870	0.125913
H191	H	1.090870	-0.874264	0.122366
H192	H	1.087107	-0.929028	0.074427
C193	C	0.887860	-1.071825	0.387312
C194	C	0.849922	-1.028975	0.422538
C195	C	0.806590	-1.061730	0.462847
H196	H	0.858335	-1.097515	0.363282
H197	H	0.913729	-1.097416	0.414801
H198	H	0.824055	-1.003394	0.395052
H199	H	0.879429	-1.003283	0.446581
H200	H	0.832459	-1.087321	0.490337
H201	H	0.777070	-1.087419	0.438812
H202	H	0.780849	-1.032662	0.486757
H203	H	1.056609	-0.376261	0.543545
C204	C	1.068490	-0.387111	0.935566
C205	C	1.106399	-0.422348	0.978417
C206	C	1.149745	-0.462641	0.945662
H207	H	1.042653	-0.414599	0.909906
H208	H	1.098027	-0.363049	0.909945
H209	H	1.076866	-0.446408	1.004028
H210	H	1.132249	-0.394876	1.004079
H211	H	1.179281	-0.438580	0.920041
H212	H	1.123902	-0.490125	0.920004
H213	H	1.175475	-0.486550	0.974732
H214	H	0.720428	-0.230115	0.230373
