data_functionalizedCrystal
_audit_creation_method	'MofGen! by Chris Wilmer'
_symmetry_space_group_name_H-M	'P1'
_symmetry_Int_Tables_number	1
_symmetry_cell_setting	triclinic
loop_
_symmetry_equiv_pos_as_xyz
  x,y,z
_cell_length_a	14.044220
_cell_length_b	14.044190
_cell_length_c	13.101039
_cell_angle_alpha	86.336293
_cell_angle_beta	93.659868
_cell_angle_gamma	93.190328
loop_
_atom_site_label
_atom_site_type_symbol
_atom_site_fract_x
_atom_site_fract_y
_atom_site_fract_z
O1	O	1.281975	0.225348	0.085126
O2	O	1.781975	0.725348	0.585126
O3	O	1.005305	0.217041	0.085151
O4	O	1.505305	0.717041	0.585151
O5	O	1.139483	0.082859	0.085118
O6	O	1.639483	0.582859	0.585118
O7	O	1.147797	0.359530	0.085158
O8	O	1.647797	0.859530	0.585158
O9	O	1.129857	0.092504	-0.085309
O10	O	1.629857	0.592504	0.414691
O11	O	0.995679	0.226686	-0.085277
O12	O	1.495679	0.726686	0.414723
O13	O	1.272349	0.234993	-0.085302
O14	O	1.772349	0.734993	0.414698
Zn15	Zn	1.132486	0.232371	-0.112348
Zn16	Zn	1.632486	0.732371	0.387652
Zn17	Zn	1.145168	0.219663	0.112197
Zn18	Zn	1.645168	0.719663	0.612197
O19	O	1.138172	0.369174	-0.085270
O20	O	1.638172	0.869174	0.414730
C21	C	0.964870	0.218228	-0.000060
C22	C	1.464870	0.718228	0.499940
C23	C	0.858728	0.207382	-0.000051
C24	C	1.358728	0.707382	0.499949
C25	C	1.131033	0.052060	-0.000098
C26	C	1.631033	0.552060	0.499902
C27	C	1.120185	-0.054083	-0.000106
C28	C	1.620185	0.445917	0.499894
C29	C	1.177288	-0.299543	-0.000071
C30	C	1.677288	0.200457	0.499929
C31	C	1.100371	-0.248418	-0.000071
C32	C	1.600371	0.251582	0.499929
C33	C	1.111398	-0.140280	-0.000091
C34	C	1.611398	0.359720	0.499909
C35	C	1.166262	-0.407691	-0.000052
C36	C	1.666262	0.092309	0.499948
C37	C	0.664388	0.187557	-0.000075
C38	C	1.164388	0.687557	0.499925
C39	C	0.613261	0.264472	-0.000068
C40	C	1.113261	0.764472	0.499932
C41	C	0.505123	0.253441	-0.000081
C42	C	1.005123	0.753441	0.499919
C43	C	0.772535	0.198587	-0.000062
C44	C	1.272535	0.698587	0.499938
C45	C	1.312784	0.233806	-0.000089
C46	C	1.812784	0.733806	0.499911
C47	C	1.418927	0.244651	-0.000091
C48	C	1.918927	0.744651	0.499909
C49	C	1.146621	0.399974	-0.000051
C50	C	1.646621	0.899974	0.499949
C51	C	1.157470	0.506116	-0.000036
C52	C	1.657470	1.006116	0.499964
N53	N	1.123838	0.241043	-0.265595
N54	N	1.623838	0.741043	0.234405
C55	C	1.112072	0.252851	-0.474635
C56	C	1.612072	0.752851	0.025365
C57	C	1.165586	0.199179	-0.525523
C58	C	1.665586	0.699179	-0.025523
C59	C	1.159040	0.205749	-0.641840
C60	C	1.659040	0.705749	-0.141840
C61	C	1.118618	0.246282	-0.358307
C62	C	1.618618	0.746282	0.141693
N63	N	1.153824	0.210984	0.265444
N64	N	1.653824	0.710984	0.765444
H65	H	1.026240	-0.285862	-0.000059
H66	H	1.526240	0.214138	0.499941
H67	H	0.650703	0.338605	-0.000052
H68	H	1.150703	0.838605	0.499948
H69	H	1.061345	0.303733	-0.518419
H70	H	1.561345	0.803733	-0.018419
Cl71	Cl	1.244308	0.121012	-0.457921
Cl72	Cl	1.744308	0.621012	0.042079
Cl73	Cl	1.291735	-0.241735	-0.000098
Cl74	Cl	1.791735	0.258265	0.499902
H75	H	0.626948	0.113431	-0.000091
H76	H	1.126948	0.613431	0.499909
