data_functionalizedCrystal
_audit_creation_method	'MofGen! by Chris Wilmer'
_symmetry_space_group_name_H-M	'P1'
_symmetry_Int_Tables_number	1
_symmetry_cell_setting	triclinic
loop_
_symmetry_equiv_pos_as_xyz
  x,y,z
_cell_length_a	14.044220
_cell_length_b	19.188930
_cell_length_c	12.503572
_cell_angle_alpha	93.506241
_cell_angle_beta	86.164750
_cell_angle_gamma	88.166830
loop_
_atom_site_label
_atom_site_type_symbol
_atom_site_fract_x
_atom_site_fract_y
_atom_site_fract_z
O1	O	1.262485	0.164589	-0.089229
O2	O	0.986542	0.158515	-0.089255
O3	O	1.132475	0.060411	-0.089220
O4	O	1.116552	0.262693	-0.089264
O5	O	1.121500	0.067803	0.089419
O6	O	0.975567	0.165907	0.089384
O7	O	1.251510	0.171980	0.089411
Cu8	Cu	1.112536	0.169618	0.105709
Cu9	Cu	1.125516	0.160877	-0.105553
O10	O	1.105577	0.270084	0.089376
C11	C	0.945752	0.159553	0.000061
C12	C	0.840559	0.151624	0.000052
C13	C	1.126472	0.038063	0.000102
C14	C	1.124923	-0.039541	0.000112
C15	C	0.647956	0.137129	0.000077
C16	C	0.590090	0.193363	0.000069
C17	C	0.482920	0.185298	0.000083
C18	C	0.755137	0.145193	0.000063
C19	C	1.210552	-0.078939	0.000125
C20	C	1.209099	-0.151857	0.000108
C21	C	1.122010	-0.185374	0.000098
C22	C	1.036370	-0.145968	0.000079
C23	C	1.037826	-0.073051	0.000086
N24	N	1.051706	-0.295160	0.060886
N25	N	1.050328	-0.364427	0.060882
C26	C	1.117616	-0.405067	0.000076
N27	N	1.186348	-0.373823	-0.060712
N28	N	1.187729	-0.304548	-0.060704
C29	C	1.120421	-0.264440	0.000091
C30	C	1.201676	-0.523532	0.000069
C31	C	1.200219	-0.596451	0.000045
C32	C	1.027487	-0.590560	0.000028
C33	C	1.028947	-0.517642	0.000041
C34	C	1.116043	-0.484132	0.000067
C35	C	1.292301	0.170943	0.000092
C36	C	1.397493	0.178872	0.000094
C37	C	1.111580	0.292433	0.000051
C38	C	1.113129	0.370037	0.000034
N39	N	1.103414	0.175766	0.254299
N40	N	1.134645	0.154724	-0.254143
C41	C	1.089995	0.184816	0.473411
C42	C	1.148061	0.145676	0.526752
C43	C	1.140595	0.150712	0.648673
C44	C	1.097461	0.179782	0.351478
H45	H	0.621038	0.247564	0.000052
C46	C	0.606839	0.064812	-0.000081
C47	C	0.643428	0.024848	-0.091975
C48	C	0.605570	-0.041776	-0.092155
H49	H	0.539254	0.068828	-0.000133
H50	H	0.623942	0.042705	0.062181
H51	H	0.626319	0.046950	-0.154221
H52	H	0.711009	0.020812	-0.091942
H53	H	0.622673	-0.063883	-0.029893
H54	H	0.537986	-0.037752	-0.092205
H55	H	0.630396	-0.068901	-0.154498
C56	C	1.302055	-0.194689	-0.000091
C57	C	1.311930	-0.240504	-0.092009
C58	C	1.397553	-0.279963	-0.092233
H59	H	1.301333	-0.220747	0.062132
H60	H	1.354166	-0.164315	-0.000133
H61	H	1.259833	-0.270875	-0.091957
H62	H	1.312669	-0.214465	-0.154247
H63	H	1.449664	-0.249589	-0.092276
H64	H	1.396824	-0.306017	-0.030006
H65	H	1.404269	-0.311049	-0.154603
C66	C	1.293111	-0.639311	0.000221
C67	C	1.291658	-0.677573	0.092104
C68	C	1.377208	-0.717072	0.092294
H69	H	1.345263	-0.608990	0.000293
H70	H	1.299967	-0.670484	-0.062049
H71	H	1.284812	-0.646403	0.154357
H72	H	1.239523	-0.707907	0.092052
H73	H	1.384064	-0.748245	0.030024
H74	H	1.429354	-0.686745	0.092363
H75	H	1.376230	-0.743042	0.154629
C76	C	1.221880	0.095993	0.465565
C77	C	1.313420	0.114054	0.492686
C78	C	1.381402	0.068295	0.436289
H79	H	1.217188	0.099182	0.390574
H80	H	1.210601	0.049509	0.483919
H81	H	1.324696	0.160527	0.474324
H82	H	1.318144	0.110862	0.567666
H83	H	1.370123	0.021811	0.454643
H84	H	1.376701	0.071487	0.361302
H85	H	1.443519	0.080539	0.454690
H86	H	1.281473	-0.051660	0.000142
H87	H	0.965462	-0.173262	0.000069
H88	H	1.034680	0.222105	0.519305
H89	H	0.968095	-0.040973	0.000075
C90	C	1.296335	-0.487276	0.000021
C91	C	1.371020	-0.537392	-0.000015
C92	C	1.458234	-0.504023	-0.000079
H93	H	1.296810	-0.456387	0.062301
H94	H	1.304366	-0.461541	-0.062298
H95	H	1.362991	-0.563115	0.062297
H96	H	1.370576	-0.568284	-0.062291
H97	H	1.466265	-0.478288	-0.062397
H98	H	1.458699	-0.473134	0.062203
H99	H	1.508919	-0.538021	-0.000113
H100	H	0.956578	-0.617849	0.000015
H101	H	0.959218	-0.485563	0.000036
