data_functionalizedCrystal
_audit_creation_method	'MofGen! by Chris Wilmer'
_symmetry_space_group_name_H-M	'P1'
_symmetry_Int_Tables_number	1
_symmetry_cell_setting	triclinic
loop_
_symmetry_equiv_pos_as_xyz
  x,y,z
_cell_length_a	13.033291
_cell_length_b	29.839131
_cell_length_c	29.839125
_cell_angle_alpha	89.982291
_cell_angle_beta	82.796668
_cell_angle_gamma	97.210424
loop_
_atom_site_label
_atom_site_type_symbol
_atom_site_fract_x
_atom_site_fract_y
_atom_site_fract_z
Zn1	Zn	1.597565	-0.091803	-0.341385
Zn2	Zn	1.597407	-0.166924	-0.266247
Zn3	Zn	1.422815	-0.101329	-0.256710
Zn4	Zn	1.422693	-0.176442	-0.331792
O5	O	1.510120	-0.134125	-0.299034
O6	O	1.743796	-0.093798	-0.339424
O7	O	1.574232	-0.158226	-0.202114
O8	O	1.446113	-0.037192	-0.267966
O9	O	1.743681	-0.148989	-0.284220
O10	O	1.574501	-0.030193	-0.330177
O11	O	1.445960	-0.110033	-0.195107
O12	O	1.276546	-0.119263	-0.258664
O13	O	1.445905	-0.165212	-0.395933
O14	O	1.276457	-0.174449	-0.313826
O15	O	1.574383	-0.103028	-0.402981
O16	O	1.574114	-0.231060	-0.274918
O17	O	1.445752	-0.238053	-0.323074
C18	C	1.238580	-0.148923	-0.284169
C19	C	1.122414	-0.155264	-0.277821
C20	C	0.950620	-0.137376	-0.295789
C21	C	1.070683	-0.130823	-0.302350
C22	C	1.509931	-0.250857	-0.299001
C23	C	1.509946	-0.300791	-0.299007
C24	C	1.577080	-0.606764	-0.274007
C25	C	1.577209	-0.794430	-0.274032
O26	O	1.634138	-0.815583	-0.252751
N27	N	1.510337	-0.821555	-0.299079
C28	C	1.443433	-0.801760	-0.324125
O29	O	1.386565	-0.829137	-0.345433
C30	C	1.443310	-0.614094	-0.324102
C31	C	1.510178	-0.586973	-0.299050
C32	C	1.643944	-0.579643	-0.248957
C33	C	1.643907	-0.532729	-0.248949
C34	C	1.577006	-0.512937	-0.273992
C35	C	1.510142	-0.540059	-0.299042
C36	C	1.376412	-0.594300	-0.349150
C37	C	1.376389	-0.547380	-0.349143
C38	C	1.443258	-0.520258	-0.324091
C39	C	1.443204	-0.473354	-0.324077
N40	N	1.510075	-0.446229	-0.299029
C41	C	1.576976	-0.466021	-0.273987
C42	C	1.443501	-0.900287	-0.324134
C43	C	1.443530	-0.947203	-0.324139
C44	C	1.577307	-0.939870	-0.274047
C45	C	1.577272	-0.892953	-0.274039
C46	C	1.510372	-0.873162	-0.299086
C47	C	1.576893	-0.367500	-0.273972
C48	C	1.576847	-0.320583	-0.273965
C49	C	1.443074	-0.327920	-0.324059
C50	C	1.443116	-0.374833	-0.324064
C51	C	1.510034	-0.394621	-0.299020
O52	O	1.386312	-0.452170	-0.345351
O53	O	1.633852	-0.438636	-0.252689
C54	C	1.577116	-0.653678	-0.274015
C55	C	1.510252	-0.680799	-0.299065
C56	C	1.443351	-0.661008	-0.324108
C57	C	1.510282	-0.727716	-0.299070
C58	C	1.577183	-0.747507	-0.274028
C59	C	1.644054	-0.720383	-0.248981
C60	C	1.644018	-0.673469	-0.248973
C61	C	1.376480	-0.688132	-0.349155
C62	C	1.376521	-0.735045	-0.349161
C63	C	1.443422	-0.754837	-0.324118
C64	C	1.782720	-0.119269	-0.313956
C65	C	1.898886	-0.112938	-0.320315
C66	C	1.510148	-0.134119	-0.416213
C67	C	1.510160	-0.134117	-0.466149
C68	C	1.510338	-0.016934	-0.299078
C69	C	1.510431	0.033005	-0.299096
C70	C	1.577129	-0.101658	-0.779469
C71	C	1.577181	-0.101617	-0.967145
O72	O	1.634042	-0.074067	-0.994532
N73	N	1.510299	-0.133989	-0.986941
C74	C	1.443394	-0.166371	-0.959816
O75	O	1.386501	-0.193901	-0.980960
C76	C	1.443338	-0.166410	-0.772140
C77	C	1.510232	-0.134039	-0.752347
C78	C	1.644017	-0.069290	-0.759675
C79	C	1.644007	-0.069302	-0.712759
C80	C	1.577110	-0.101683	-0.685637
C81	C	1.510222	-0.134051	-0.705431
C82	C	1.376429	-0.198790	-0.745015
C83	C	1.376419	-0.198796	-0.698093
C84	C	1.443313	-0.166425	-0.678300
C85	C	1.443315	-0.166444	-0.631393
N86	N	1.510197	-0.134072	-0.611596
C87	C	1.577095	-0.101692	-0.638718
C88	C	1.443430	-0.166349	-1.058348
C89	C	1.443445	-0.166340	-1.105267
C90	C	1.577231	-0.101585	-1.112593
C91	C	1.577220	-0.101597	-1.065674
C92	C	1.510312	-0.133977	-1.038552
C93	C	1.577070	-0.101720	-0.540191
C94	C	1.577058	-0.101736	-0.493271
C95	C	1.443269	-0.166489	-0.485949
C96	C	1.443285	-0.166474	-0.532865
C97	C	1.510189	-0.134086	-0.559985
O98	O	1.386476	-0.193977	-0.603978
O99	O	1.633963	-0.074159	-0.617565
C100	C	1.577139	-0.101646	-0.826385
C101	C	1.510251	-0.134015	-0.846179
C102	C	1.443354	-0.166395	-0.819057
C103	C	1.510266	-0.134006	-0.893097
C104	C	1.577164	-0.101625	-0.920220
C105	C	1.644046	-0.069253	-0.900423
C106	C	1.644036	-0.069266	-0.853507
C107	C	1.376472	-0.198767	-0.838853
C108	C	1.376488	-0.198753	-0.885770
C109	C	1.443385	-0.166372	-0.912892
C110	C	1.510152	-0.134094	-0.182313
C111	C	1.510343	-0.133959	-0.132389
H112	H	1.631300	-0.298501	-0.253562
C113	C	1.650029	-0.066472	-1.142032
C114	C	1.753424	-0.070621	-1.136293
C115	C	1.820503	-0.038286	-1.163411
H116	H	1.634917	-0.037097	-1.133541
H117	H	1.640519	-0.071107	-1.172817
H118	H	1.762930	-0.065983	-1.105515
H119	H	1.768570	-0.099989	-1.144787
H120	H	1.810993	-0.042920	-1.194196
H121	H	1.805381	-0.008913	-1.154918
H122	H	1.890664	-0.041099	-1.159524
H123	H	1.077823	-0.181040	-0.251965
H124	H	1.321955	-0.616375	-0.369548
H125	H	1.115275	-0.105046	-0.328205
C126	C	1.716785	-0.601121	-0.221867
C127	C	1.783776	-0.624337	-0.251012
C128	C	1.850931	-0.644109	-0.226079
H129	H	1.677045	-0.621662	-0.200078
H130	H	1.756655	-0.578239	-0.206977
H131	H	1.743910	-0.647216	-0.265895
H132	H	1.823539	-0.603806	-0.272802
H133	H	1.890801	-0.621228	-0.211189
H134	H	1.811182	-0.664649	-0.204290
H135	H	1.896398	-0.659861	-0.245850
H136	H	1.322002	-0.672022	-0.369548
C137	C	1.303875	-0.764410	-0.376410
C138	C	1.245304	-0.737029	-0.398348
C139	C	1.178392	-0.764061	-0.423461
H140	H	1.258281	-0.785231	-0.356770
H141	H	1.343817	-0.780497	-0.398212
H142	H	1.205365	-0.720950	-0.376548
H143	H	1.290870	-0.716209	-0.417995
H144	H	1.218334	-0.780147	-0.445263
H145	H	1.132805	-0.784880	-0.403818
H146	H	1.138651	-0.745486	-0.438352
C147	C	1.303712	-0.233859	-0.809379
C148	C	1.236740	-0.212083	-0.778786
C149	C	1.169690	-0.244399	-0.751632
H150	H	1.343530	-0.251277	-0.793219
H151	H	1.263823	-0.253130	-0.827873
H152	H	1.276624	-0.192819	-0.760293
H153	H	1.196898	-0.194667	-0.794933
H154	H	1.129802	-0.263670	-0.770127
H155	H	1.209518	-0.261815	-0.735476
H156	H	1.124236	-0.229628	-0.730875
C157	C	1.370962	-0.976726	-0.351289
C158	C	1.385279	-1.022052	-0.345930
C159	C	1.318442	-1.049260	-0.370933
H160	H	1.386141	-0.968242	-0.382327
H161	H	1.300724	-0.972924	-0.340841
H162	H	1.455501	-1.025852	-0.356381
H163	H	1.370093	-1.030550	-0.314897
H164	H	1.248203	-1.045458	-0.360484
H165	H	1.333626	-1.040772	-0.401969
H166	H	1.328140	-1.080017	-0.367296
C167	C	0.958283	-0.078499	-0.354733
C168	C	0.931880	-0.035465	-0.343594
C169	C	0.986583	-0.003727	-0.375287
H170	H	0.940504	-0.086025	-0.383958
H171	H	1.031088	-0.078631	-0.354558
H172	H	0.859092	-0.035334	-0.343774
H173	H	0.949662	-0.027925	-0.314375
H174	H	1.059388	-0.003859	-0.375112
H175	H	0.968799	-0.011257	-0.404509
H176	H	0.968684	0.025476	-0.367731
C177	C	0.891356	-0.171752	-0.261276
C178	C	0.962351	-0.193021	-0.239913
C179	C	0.907799	-0.224687	-0.208112
H180	H	0.848753	-0.193700	-0.276065
H181	H	0.848804	-0.156854	-0.239399
H182	H	1.004885	-0.207919	-0.261787
H183	H	1.004956	-0.171084	-0.225115
H184	H	0.865247	-0.209789	-0.186236
H185	H	0.865198	-0.246632	-0.222905
H186	H	0.955961	-0.239118	-0.193611
C187	C	1.649581	-0.388897	-0.246732
C188	C	1.708101	-0.355097	-0.224785
C189	C	1.775055	-0.374792	-0.199680
H190	H	1.695204	-0.404686	-0.266378
H191	H	1.609670	-0.409391	-0.224935
H192	H	1.748009	-0.334611	-0.246579
H193	H	1.662506	-0.339305	-0.205131
H194	H	1.735145	-0.395286	-0.177884
H195	H	1.820672	-0.390581	-0.219330
H196	H	1.814762	-0.351862	-0.184783
C197	C	1.370947	-0.201469	-1.126842
C198	C	1.385289	-0.194543	-1.173738
C199	C	1.318528	-0.226899	-1.193627
H200	H	1.300692	-0.198754	-1.115362
H201	H	1.386202	-0.230832	-1.120006
H202	H	1.370027	-0.165187	-1.180570
H203	H	1.455530	-0.197262	-1.185231
H204	H	1.333784	-0.256263	-1.186791
H205	H	1.248278	-0.224182	-1.182144
H206	H	1.328257	-0.222208	-1.225448
C207	C	1.370736	-0.878891	-0.351336
C208	C	1.312165	-0.912694	-0.373258
C209	C	1.245109	-0.893005	-0.398313
H210	H	1.410543	-0.858391	-0.373146
H211	H	1.325157	-0.863111	-0.331647
H212	H	1.357738	-0.928466	-0.392945
H213	H	1.272338	-0.933196	-0.351459
H214	H	1.199530	-0.877225	-0.378625
H215	H	1.284924	-0.872505	-0.420121
H216	H	1.205354	-0.915937	-0.413187
C217	C	1.716636	-0.503360	-0.221744
C218	C	1.775248	-0.530742	-0.199829
C219	C	1.842275	-0.503706	-0.174770
H220	H	1.676808	-0.487251	-0.199930
H221	H	1.762191	-0.482559	-0.241429
H222	H	1.729699	-0.551535	-0.180146
H223	H	1.815098	-0.546851	-0.221632
H224	H	1.887830	-0.482904	-0.194455
H225	H	1.802438	-0.487598	-0.152958
H226	H	1.882058	-0.522280	-0.159901
H227	H	1.631723	-0.870873	-0.253640
H228	H	1.631781	-0.955992	-0.253656
H229	H	1.321912	-0.531269	-0.369541
C230	C	1.716482	-0.034094	-0.831957
C231	C	1.657347	-0.008533	-0.801784
C232	C	1.724047	0.023872	-0.781924
H233	H	1.756335	-0.014766	-0.854787
H234	H	1.761980	-0.048782	-0.816115
H235	H	1.611868	0.006155	-0.817626
H236	H	1.617496	-0.027848	-0.778946
H237	H	1.769545	0.009184	-0.766082
H238	H	1.763897	0.043197	-0.804757
H239	H	1.683935	0.041217	-0.761447
H240	H	1.388669	-0.396917	-0.344466
C241	C	1.649726	-0.066536	-0.471865
C242	C	1.708289	-0.038169	-0.505662
C243	C	1.775227	-0.005735	-0.485961
H244	H	1.695323	-0.081189	-0.456055
H245	H	1.609803	-0.049117	-0.451387
H246	H	1.748209	-0.055586	-0.526131
H247	H	1.662719	-0.023505	-0.521473
H248	H	1.735304	0.011685	-0.465483
H249	H	1.820818	-0.020392	-0.470152
H250	H	1.814964	0.013519	-0.508888
H251	H	1.388601	-0.311798	-0.344447
H252	H	1.698468	-0.651390	-0.228573
H253	H	1.321957	-0.225150	-0.761122
C254	C	1.716683	-0.741958	-0.221853
C255	C	1.702424	-0.788848	-0.227242
C256	C	1.769334	-0.808738	-0.202274
H257	H	1.701534	-0.735179	-0.190809
H258	H	1.786901	-0.730427	-0.232314
H259	H	1.632221	-0.800375	-0.216779
H260	H	1.717580	-0.795640	-0.258281
H261	H	1.839552	-0.797207	-0.212735
H262	H	1.754179	-0.801956	-0.171231
H263	H	1.759675	-0.840554	-0.205930
C264	C	1.716560	-0.034118	-0.929950
C265	C	1.702221	-0.041034	-0.975273
C266	C	1.768982	-0.008673	-1.002487
H267	H	1.786814	-0.036833	-0.926165
H268	H	1.701303	-0.004757	-0.921456
H269	H	1.717485	-0.070388	-0.983765
H270	H	1.631980	-0.038315	-0.979072
H271	H	1.753725	0.020689	-0.993993
H272	H	1.839233	-0.011391	-0.998698
H273	H	1.759256	-0.013358	-1.033241
C274	C	1.649538	-0.066511	-0.569645
C275	C	1.590434	-0.040918	-0.593339
C276	C	1.657159	-0.008478	-0.620471
H277	H	1.695072	-0.081157	-0.590475
H278	H	1.689350	-0.047213	-0.551144
H279	H	1.550640	-0.060213	-0.611838
H280	H	1.544903	-0.026262	-0.572520
H281	H	1.696971	0.010820	-0.601971
H282	H	1.702690	-0.023128	-0.641299
H283	H	1.617066	0.008893	-0.636548
H284	H	1.698477	-0.042941	-0.696648
H285	H	1.698493	-0.042919	-0.781753
H286	H	1.322017	-0.225117	-0.901881
C287	C	1.370742	-0.201560	-1.028984
C288	C	1.312201	-0.229910	-1.056370
C289	C	1.245241	-0.262355	-1.029339
H290	H	1.325133	-0.186915	-1.008187
H291	H	1.410650	-0.218989	-1.012872
H292	H	1.272296	-0.212483	-1.072475
H293	H	1.357783	-0.244566	-1.077167
H294	H	1.285148	-0.279785	-1.013227
H295	H	1.199638	-0.247707	-1.008543
H296	H	1.205520	-0.281598	-1.047916
H297	H	1.631689	-0.075237	-1.049561
C298	C	1.303918	-0.234025	-0.668676
C299	C	1.326622	-0.277234	-0.681322
C300	C	1.259874	-0.309699	-0.654229
H301	H	1.233669	-0.231339	-0.672498
H302	H	1.313503	-0.229427	-0.637895
H303	H	1.317028	-0.281830	-0.712096
H304	H	1.396858	-0.279934	-0.677499
H305	H	1.269459	-0.305100	-0.623448
H306	H	1.189629	-0.307009	-0.658053
H307	H	1.275276	-0.339019	-0.662803
H308	H	1.388824	-0.192837	-0.548982
C309	C	1.370676	-0.201591	-0.456417
C310	C	1.384970	-0.194660	-0.411092
C311	C	1.318100	-0.226982	-0.383873
H312	H	1.385840	-0.230969	-0.464876
H313	H	1.300447	-0.198834	-0.460236
H314	H	1.455183	-0.197421	-0.407276
H315	H	1.369799	-0.165290	-0.402619
H316	H	1.247871	-0.224225	-0.387691
H317	H	1.333270	-0.256357	-0.392335
H318	H	1.327782	-0.222281	-0.353116
