data_functionalizedCrystal
_audit_creation_method	'MofGen! by Chris Wilmer'
_symmetry_space_group_name_H-M	'P1'
_symmetry_Int_Tables_number	1
_symmetry_cell_setting	triclinic
loop_
_symmetry_equiv_pos_as_xyz
  x,y,z
_cell_length_a	9.065218
_cell_length_b	10.654550
_cell_length_c	7.540329
_cell_angle_alpha	89.997570
_cell_angle_beta	89.996962
_cell_angle_gamma	84.750394
loop_
_atom_site_label
_atom_site_type_symbol
_atom_site_fract_x
_atom_site_fract_y
_atom_site_fract_z
O1	O	1.959392	0.184158	-0.147482
O2	O	1.530024	0.199263	-0.147484
O3	O	1.754580	0.009010	-0.147477
O4	O	1.734836	0.374410	-0.147490
O5	O	1.754567	0.009008	0.147489
O6	O	1.530011	0.199261	0.147481
O7	O	1.959378	0.184155	0.147483
Cu8	Cu	1.744693	0.191708	0.174415
Cu9	Cu	1.744709	0.191711	-0.174416
O10	O	1.734823	0.374408	0.147475
C11	C	1.475039	0.197810	-0.000002
C12	C	1.311220	0.193469	-0.000003
C13	C	1.753124	-0.037795	0.000004
C14	C	1.748786	-0.177255	-0.000002
C15	C	1.881001	-0.256217	0.000004
C16	C	1.876917	-0.387254	-0.000009
C17	C	1.608391	-0.360354	-0.000026
C18	C	1.612477	-0.229320	-0.000026
C19	C	2.017310	-0.204153	0.000027
C20	C	2.149536	-0.283116	0.000035
C21	C	2.145452	-0.414153	0.000023
C22	C	2.009142	-0.466226	0.000003
C23	C	2.014364	0.185608	-0.000003
C24	C	2.178183	0.189949	-0.000014
C25	C	1.736279	0.421213	-0.000009
C26	C	1.740616	0.560673	-0.000014
N27	N	1.744693	0.191705	0.419763
N28	N	1.744721	0.191703	-0.419764
H29	H	2.020651	-0.097457	0.000043
C30	C	2.290900	-0.501009	0.000032
N31	N	2.400458	-0.566427	0.000053
C32	C	2.004657	-0.610373	-0.000021
N33	N	2.001281	-0.718942	-0.000031
C34	C	1.467034	-0.142457	-0.000019
N35	N	1.357482	-0.077031	-0.000015
H36	H	2.260515	-0.240708	0.000008
H37	H	1.497414	-0.402764	-0.000040
