data_functionalizedCrystal
_audit_creation_method	'MofGen! by Chris Wilmer'
_symmetry_space_group_name_H-M	'P1'
_symmetry_Int_Tables_number	1
_symmetry_cell_setting	triclinic
loop_
_symmetry_equiv_pos_as_xyz
  x,y,z
_cell_length_a	21.295418
_cell_length_b	25.639239
_cell_length_c	21.295411
_cell_angle_alpha	90.019526
_cell_angle_beta	90.043738
_cell_angle_gamma	90.054499
loop_
_atom_site_label
_atom_site_type_symbol
_atom_site_fract_x
_atom_site_fract_y
_atom_site_fract_z
Zn1	Zn	0.962320	-0.207990	0.356243
Zn2	Zn	0.962207	-0.295410	0.250972
Zn3	Zn	0.857043	-0.208014	0.250953
Zn4	Zn	0.856998	-0.295420	0.356169
O5	O	0.909642	-0.251708	0.303584
O6	O	1.050395	-0.219572	0.342318
O7	O	0.948229	-0.283822	0.162880
O8	O	0.871075	-0.134846	0.264943
O9	O	1.050312	-0.283799	0.264976
O10	O	0.948421	-0.134828	0.342299
O11	O	0.870965	-0.219613	0.162866
O12	O	0.768948	-0.219623	0.264871
O13	O	0.870997	-0.283816	0.444268
O14	O	0.768914	-0.283840	0.342172
O15	O	0.948377	-0.219582	0.444322
O16	O	0.948185	-0.368576	0.264904
O17	O	0.870888	-0.368584	0.342191
C18	C	0.746090	-0.251736	0.303512
C19	C	0.676122	-0.251760	0.303496
C20	C	0.643255	-0.285242	0.343686
C21	C	0.577512	-0.285229	0.343715
C22	C	0.544640	-0.251740	0.303541
C23	C	0.577515	-0.218252	0.263347
C24	C	0.643257	-0.218262	0.263325
N25	N	0.441365	-0.247648	0.248483
N26	N	0.378913	-0.247641	0.248506
C27	C	0.346565	-0.251707	0.303608
N28	N	0.379028	-0.255789	0.358686
N29	N	0.441485	-0.255799	0.358662
C30	C	0.473354	-0.251725	0.303561
C31	C	0.242412	-0.285176	0.343832
C32	C	0.176668	-0.285160	0.343862
C33	C	0.176673	-0.218185	0.263489
C34	C	0.242415	-0.218199	0.263465
C35	C	0.275281	-0.251697	0.303636
C36	C	0.909536	-0.387551	0.303555
C37	C	0.909548	-0.445665	0.303564
C38	C	0.949996	-0.806011	0.263409
C39	C	0.950020	-0.860616	0.263418
O40	O	0.984300	-0.888838	0.229245
N41	N	0.909753	-0.887947	0.303626
C42	C	0.869463	-0.860672	0.343833
O43	O	0.835215	-0.888934	0.378034
C44	C	0.869442	-0.806069	0.343827
C45	C	0.909708	-0.778740	0.303612
C46	C	0.990259	-0.778683	0.223198
C47	C	0.990233	-0.724082	0.223188
C48	C	0.949945	-0.696810	0.263391
C49	C	0.909682	-0.724139	0.303603
C50	C	0.829156	-0.778794	0.384037
C51	C	0.829139	-0.724187	0.384028
C52	C	0.869404	-0.696858	0.343812
C53	C	0.869369	-0.642267	0.343796
N54	N	0.909636	-0.614935	0.303588
C55	C	0.949924	-0.642207	0.263385
C56	C	0.869510	-0.975343	0.343842
C57	C	0.869527	-1.029945	0.343845
C58	C	0.950086	-1.029885	0.263431
C59	C	0.950065	-0.975282	0.263425
C60	C	0.909778	-0.948011	0.303634
C61	C	0.949868	-0.527542	0.263369
C62	C	0.949837	-0.472937	0.263361
C63	C	0.869281	-0.473001	0.343778
C64	C	0.869309	-0.527602	0.343783
C65	C	0.909607	-0.554871	0.303577
O66	O	0.835108	-0.614010	0.377953
O67	O	0.984172	-0.613939	0.229195
C68	C	1.073832	-0.251681	0.303657
C69	C	1.143801	-0.251670	0.303688
C70	C	0.909694	-0.251697	0.467774
C71	C	0.909717	-0.251693	0.537743
C72	C	0.909766	-0.115335	0.303627
C73	C	0.909818	-0.057221	0.303645
C74	C	0.909626	-0.251682	0.140032
C75	C	0.909726	-0.251539	0.070065
C76	C	0.950007	-0.218244	0.570639
C77	C	0.950006	-0.218221	0.636381
C78	C	0.909721	-0.251657	0.669225
C79	C	0.869424	-0.285108	0.636321
C80	C	0.869421	-0.285126	0.570580
N81	N	0.904857	-0.297396	0.772441
N82	N	0.904863	-0.297377	0.834892
C83	C	0.909725	-0.251604	0.867300
N84	N	0.914594	-0.205848	0.834897
N85	N	0.914591	-0.205867	0.772440
C86	C	0.909719	-0.251641	0.740511
C87	C	0.950017	-0.218128	0.971482
C88	C	0.950011	-0.218104	1.037225
C89	C	0.869433	-0.284995	1.037164
C90	C	0.869435	-0.285014	0.971422
C91	C	0.909730	-0.251581	0.938584
H92	H	0.149909	-0.312424	0.376594
H93	H	0.836626	-0.312213	1.063905
O94	O	1.029329	-0.805244	0.184146
C95	C	0.993556	-0.836892	0.143430
H96	H	0.945827	-0.845107	0.165541
H97	H	1.019225	-0.875268	0.135077
H98	H	0.986689	-0.815895	0.096750
H99	H	0.982626	-0.450687	0.230611
H100	H	0.982684	-0.549738	0.230630
O101	O	0.989117	-0.185658	0.668277
C102	C	0.975405	-0.133551	0.652221
H103	H	0.951208	-0.132477	0.604471
H104	H	1.020862	-0.110105	0.650010
H105	H	0.943061	-0.115936	0.689200
O106	O	0.274444	-0.185696	0.224476
C107	C	0.339517	-0.192896	0.233057
H108	H	0.348526	-0.210079	0.281598
H109	H	0.364552	-0.153733	0.228862
H110	H	0.358092	-0.220698	0.195653
H111	H	0.982853	-0.953034	0.230679
O112	O	0.675209	-0.317831	0.382623
C113	C	0.713167	-0.351553	0.346702
H114	H	0.693298	-0.354723	0.297123
H115	H	0.713885	-0.391817	0.369385
H116	H	0.763009	-0.335390	0.344553
O117	O	0.830383	-0.317644	0.668250
C118	C	0.866194	-0.351390	0.706312
H119	H	0.915768	-0.354616	0.686535
H120	H	0.843390	-0.391630	0.707040
H121	H	0.868380	-0.335212	0.756139
H122	H	0.836609	-0.312363	0.543796
H123	H	0.550747	-0.190983	0.230639
O124	O	1.029414	-0.697620	0.184110
C125	C	1.064964	-0.733408	0.148624
H126	H	1.067135	-0.772318	0.174419
H127	H	1.114563	-0.717589	0.141974
H128	H	1.041944	-0.739258	0.100784
H129	H	0.982824	-0.190902	0.944744
H130	H	0.796364	-0.801036	0.416781
H131	H	0.550746	-0.312494	0.376445
H132	H	0.982819	-0.190863	1.064008
O133	O	0.989249	-1.056463	0.224482
C134	C	0.980641	-1.110516	0.233128
H135	H	0.959943	-1.117960	0.281661
H136	H	1.027821	-1.131204	0.229000
H137	H	0.947202	-1.126094	0.195717
O138	O	0.144651	-0.185715	0.224468
C139	C	0.079578	-0.192880	0.233110
H140	H	0.070570	-0.233247	0.253663
H141	H	0.054552	-0.189294	0.185968
H142	H	0.060989	-0.161895	0.266686
H143	H	0.836630	-0.312254	0.944637
H144	H	0.670017	-0.190995	0.230596
O145	O	0.830397	-0.948911	0.382986
C146	C	0.844137	-0.962210	0.445744
H147	H	0.868356	-1.001827	0.447081
H148	H	0.798692	-0.964122	0.473911
H149	H	0.876473	-0.931435	0.466988
O150	O	0.789970	-0.697641	0.423001
C151	C	0.749300	-0.666125	0.387111
H152	H	0.771517	-0.657934	0.339432
H153	H	0.740832	-0.627729	0.412740
H154	H	0.702665	-0.687225	0.380140
H155	H	0.269173	-0.312450	0.376545
O156	O	0.830496	-1.056546	0.382938
C157	C	0.866328	-1.088064	0.423660
H158	H	0.914046	-1.096206	0.401520
H159	H	0.840696	-1.126483	0.432076
H160	H	0.873214	-1.066990	0.470312
O161	O	0.989195	-0.185832	0.538705
C162	C	1.029814	-0.215589	0.500680
H163	H	1.033691	-0.256761	0.520492
H164	H	1.078267	-0.196656	0.499955
H165	H	1.010332	-0.217411	0.450849
H166	H	0.836477	-0.450788	0.376509
O167	O	0.830174	-0.554072	0.382905
C168	C	0.794597	-0.518289	0.418373
H169	H	0.820358	-0.479335	0.420571
H170	H	0.787869	-0.534049	0.467967
H171	H	0.746794	-0.512549	0.395262
