data_functionalizedCrystal
_audit_creation_method	'MofGen! by Chris Wilmer'
_symmetry_space_group_name_H-M	'P1'
_symmetry_Int_Tables_number	1
_symmetry_cell_setting	triclinic
loop_
_symmetry_equiv_pos_as_xyz
  x,y,z
_cell_length_a	31.640172
_cell_length_b	14.560438
_cell_length_c	14.560438
_cell_angle_alpha	60.000905
_cell_angle_beta	90.004997
_cell_angle_gamma	59.997940
loop_
_atom_site_label
_atom_site_type_symbol
_atom_site_fract_x
_atom_site_fract_y
_atom_site_fract_z
Zr1	Zr	0.407181	1.005165	-0.120389
O2	O	0.339690	1.196787	-0.267054
O3	O	0.427871	0.813558	-0.075431
O4	O	0.427869	1.005162	-0.267032
O5	O	0.339694	1.005180	0.075688
O6	O	0.497426	1.005143	-0.267012
O7	O	0.339692	1.005183	-0.075453
O8	O	0.497430	0.662399	0.075727
O9	O	0.339690	1.347925	-0.267051
O10	O	0.488605	0.892349	-0.056239
O11	O	0.436696	0.892362	0.056541
O12	O	0.436694	1.117951	-0.169045
O13	O	0.384786	1.117963	-0.056265
Zr14	Zr	0.518120	1.005131	0.120695
Zr15	Zr	0.518117	1.005135	-0.120357
Zr16	Zr	0.407184	1.005161	0.120663
Zr17	Zr	0.407182	1.246213	-0.120385
Zr18	Zr	0.518120	0.764083	0.120690
O19	O	0.497430	1.196738	0.075737
O20	O	0.497426	1.196744	-0.267008
O21	O	0.339694	1.196781	0.075691
O22	O	0.585611	0.813509	0.267360
O23	O	0.585607	0.813515	-0.075386
O24	O	0.427875	0.813552	0.267314
O25	O	0.585607	1.005116	-0.075382
O26	O	0.497432	1.005134	0.267338
O27	O	0.427875	1.005153	0.267317
O28	O	0.585609	1.005113	0.075759
O29	O	0.427869	1.347901	-0.267025
O30	O	0.497432	0.662395	0.267331
O31	O	0.585611	0.662371	0.267357
O32	O	0.585609	0.662374	0.075752
O33	O	0.339693	1.347922	-0.075447
O34	O	0.427872	1.347898	-0.075421
O35	O	0.488607	0.892346	0.169350
O36	O	0.540516	0.892333	0.056571
O37	O	0.488605	1.117934	-0.056235
O38	O	0.436697	1.117947	0.056545
C39	C	0.462650	0.703634	0.000147
C40	C	0.462650	0.601303	0.000145
C41	C	0.489745	0.553221	-0.058725
C42	C	0.489747	0.457061	-0.058714
C43	C	0.435556	0.457079	0.059038
C44	C	0.435557	0.553230	0.059033
C45	C	0.323887	1.005186	0.000113
C46	C	0.276792	1.005199	0.000099
C47	C	0.011883	0.887374	0.059059
C48	C	-0.165102	0.887352	0.059081
O49	O	-0.164943	0.787199	0.109200
N50	N	-0.214329	1.005112	0.000196
C51	C	-0.219308	1.122887	-0.058692
O52	O	-0.265239	1.223049	-0.108767
C53	C	-0.042324	1.122908	-0.058707
C54	C	0.006903	1.005140	0.000172
C55	C	0.061107	0.769616	0.117934
C56	C	0.105350	0.769622	0.117923
C57	C	0.100370	0.887388	0.059037
C58	C	0.051146	1.005147	0.000161
C59	C	-0.047304	1.240682	-0.117588
C60	C	-0.003052	1.240676	-0.117585
C61	C	0.046174	1.122908	-0.058705
C62	C	0.090409	1.122919	-0.058737
N63	N	0.139635	1.005158	0.000148
C64	C	0.144616	0.887393	0.059035
C65	C	-0.312226	1.122868	-0.058682
C66	C	-0.356472	1.122863	-0.058680
C67	C	-0.302262	0.887327	0.059095
C68	C	-0.258016	0.887333	0.059086
C69	C	-0.262999	1.005107	0.000203
C70	C	0.237528	0.887416	0.059006
C71	C	0.281773	0.887433	0.058986
C72	C	0.227560	1.122968	-0.058784
C73	C	0.183319	1.122952	-0.058769
C74	C	0.188306	1.005165	0.000134
O75	O	0.090289	1.223019	-0.108819
O76	O	0.190551	0.787246	0.109123
C77	C	-0.032360	0.887367	0.059070
C78	C	-0.081584	1.005126	0.000194
C79	C	-0.086565	1.122892	-0.058692
C80	C	-0.125830	1.005121	0.000196
C81	C	-0.120850	0.887356	0.059083
C82	C	-0.071623	0.769595	0.117968
C83	C	-0.027380	0.769602	0.117957
C84	C	-0.135791	1.240652	-0.117577
C85	C	-0.180032	1.240636	-0.117562
C86	C	-0.175052	1.122870	-0.058675
C87	C	0.601414	1.005110	0.000193
C88	C	0.648509	1.005097	0.000207
C89	C	0.462647	1.005153	-0.301367
C90	C	0.462646	1.005155	-0.403700
C91	C	0.462651	1.306662	0.000158
C92	C	0.462651	1.408993	0.000160
C93	C	0.435550	1.122914	-0.510659
C94	C	0.435556	1.122908	-0.606808
C95	C	0.489755	0.887373	-0.489024
C96	C	0.489752	0.887380	-0.392878
C97	C	0.462654	1.005143	0.301672
C98	C	0.462655	1.005141	0.404005
C99	C	0.601414	0.703596	0.000187
C100	C	0.648509	0.601252	0.000199
C101	C	0.462654	0.703629	0.301667
C102	C	0.462655	0.601296	0.403998
C103	C	0.601417	0.703591	0.301707
C104	C	0.648513	0.601246	0.404051
C105	C	0.323884	1.306705	-0.301401
C106	C	0.276788	1.409051	-0.403746
C107	C	0.323888	1.306700	0.000118
C108	C	0.276793	1.409044	0.000107
C109	C	0.462647	1.306667	-0.301361
C110	C	0.462646	1.409000	-0.403692
C111	C	0.643528	0.553199	-0.058691
C112	C	0.687774	0.457049	-0.058703
C113	C	0.737001	0.408948	0.000183
C114	C	0.741981	0.457011	0.059075
C115	C	0.697735	0.553166	0.059079
C116	C	0.697730	0.553177	0.393244
C117	C	0.741986	0.457025	0.489398
C118	C	0.737024	0.408938	0.596359
C119	C	0.687802	0.457017	0.607165
C120	C	0.643547	0.553173	0.511011
C121	C	0.227571	1.457131	-0.392938
C122	C	0.183315	1.553312	-0.489093
C123	C	0.188277	1.601404	-0.596054
C124	C	0.237499	1.553320	-0.606859
C125	C	0.281754	1.457147	-0.510706
C126	C	0.281773	1.457107	0.058987
C127	C	0.237527	1.553283	0.058972
C128	C	0.188300	1.601388	0.000082
C129	C	0.183321	1.553321	-0.058805
C130	C	0.227566	1.457153	-0.058796
C131	C	0.489752	0.553210	0.510959
C132	C	0.489747	0.457066	0.607106
C133	C	0.435547	0.457101	0.489317
C134	C	0.435550	0.553249	0.393173
H135	H	0.241597	0.791503	0.106972
N136	N	-0.008135	1.360972	-0.177743
N137	N	0.031371	1.360973	-0.177753
H138	H	0.027782	1.445930	-0.220242
N139	N	0.517440	0.767087	-0.477995
N140	N	0.517440	0.767094	-0.563845
H141	H	0.536993	0.682140	-0.556055
N142	N	0.133034	1.602436	-0.118921
N143	N	0.119829	1.527314	-0.093936
H144	H	0.084313	1.561997	-0.136383
N145	N	0.222464	1.408057	-0.118929
N146	N	0.199370	1.354435	-0.093957
H147	H	0.195762	1.319765	-0.136429
N148	N	0.407878	1.243209	-0.716056
N149	N	0.383682	1.348348	-0.725695
H150	H	0.364134	1.433317	-0.802854
H151	H	0.511807	0.592357	-0.106673
N152	N	0.593280	0.602222	0.522091
N153	N	0.580101	0.527052	0.572273
H154	H	0.544601	0.561683	0.580111
N155	N	0.517426	0.407969	0.716355
N156	N	0.541621	0.450889	0.725997
H157	H	0.561169	0.416217	0.803156
N158	N	0.782227	0.310699	0.694584
N159	N	0.777795	0.267758	0.790083
H160	H	0.809721	0.198372	0.859453
N161	N	-0.097576	1.360993	-0.177740
N162	N	-0.102005	1.466120	-0.230299
H163	H	-0.137510	1.551099	-0.272784
H164	H	0.413497	0.417928	0.106981
H165	H	0.241533	1.592489	-0.693958
H166	H	0.143240	1.592447	-0.480273
H167	H	0.413493	0.592378	0.106977
N168	N	0.222485	1.408029	-0.283696
N169	N	0.178533	1.450990	-0.274083
H170	H	0.174936	1.416321	-0.196934
N171	N	0.702836	0.602229	0.119246
N172	N	0.746794	0.559260	0.171816
H173	H	0.750401	0.593907	0.214311
H174	H	0.413478	1.218814	-0.519477
N175	N	0.517411	0.407954	-0.118865
N176	N	0.517405	0.322111	-0.118860
H177	H	0.536942	0.287430	-0.161346
N178	N	0.682671	0.407962	-0.118848
N179	N	0.659584	0.354321	-0.093870
H180	H	0.655978	0.319654	-0.136347
N181	N	0.792261	0.407898	0.478344
N182	N	0.822999	0.289849	0.518862
H183	H	0.858504	0.255152	0.511052
N184	N	0.782189	0.310619	0.000271
N185	N	0.777729	0.267656	-0.052242
H186	H	0.809641	0.198166	-0.052140
H187	H	0.413481	0.592405	0.306074
N188	N	0.517439	0.767073	-0.283619
N189	N	0.541636	0.661928	-0.273970
H190	H	0.561192	0.576964	-0.196809
N191	N	-0.066539	0.649298	0.178101
N192	N	-0.085188	0.623029	0.126848
H193	H	-0.081600	0.538073	0.169317
H194	H	0.782067	0.417833	0.107018
N195	N	0.407864	0.408005	0.478284
N196	N	0.407866	0.322158	0.564134
H197	H	0.388316	0.287481	0.556341
N198	N	0.702798	0.602314	0.283985
N199	N	0.663287	0.688174	0.198132
H200	H	0.666868	0.722880	0.120968
N201	N	0.593247	0.602306	-0.118827
N202	N	0.580047	0.527181	-0.093871
H203	H	0.544536	0.561859	-0.136346
N204	N	0.682729	0.407886	0.716418
N205	N	0.638784	0.450798	0.726068
H206	H	0.635201	0.416092	0.803231
H207	H	0.321855	0.791528	0.106936
H208	H	0.152238	1.679714	-0.674339
H209	H	0.321828	1.418000	-0.519519
N210	N	0.133038	1.243258	-0.118939
N211	N	0.128600	1.348396	-0.171522
H212	H	0.093091	1.433366	-0.214014
N213	N	0.332050	1.408012	0.119136
N214	N	0.345246	1.483148	0.094160
H215	H	0.380752	1.448486	0.136639
N216	N	0.242630	1.602358	0.119131
N217	N	0.286587	1.559379	0.171713
H218	H	0.290193	1.594034	0.214201
H219	H	0.145429	0.673723	0.165864
N220	N	0.066213	0.649296	0.178083
N221	N	0.089306	0.570461	0.153107
H222	H	0.092918	0.485476	0.195584
N223	N	-0.207739	0.767025	0.119230
N224	N	-0.203306	0.661892	0.171792
H225	H	-0.167798	0.576918	0.214272
H226	H	0.152277	1.679694	0.000084
H227	H	-0.396551	1.218762	-0.106640
N228	N	0.022897	0.649291	0.178103
N229	N	0.027327	0.544162	0.230671
H230	H	0.062833	0.459185	0.273153
N231	N	-0.230311	1.360955	-0.177728
N232	N	-0.234744	1.466088	-0.230297
H233	H	-0.270251	1.551062	-0.272782
H234	H	0.511821	0.592332	0.519779
N235	N	-0.140893	1.360966	-0.177732
N236	N	-0.184851	1.466091	-0.230295
H237	H	-0.188459	1.551071	-0.272787
H238	H	-0.316292	1.218779	-0.106639
H239	H	-0.298214	0.791437	0.107036
H240	H	0.223513	1.218850	-0.106732
