data_functionalizedCrystal
_audit_creation_method	'MofGen! by Chris Wilmer'
_symmetry_space_group_name_H-M	'P1'
_symmetry_Int_Tables_number	1
_symmetry_cell_setting	triclinic
loop_
_symmetry_equiv_pos_as_xyz
  x,y,z
_cell_length_a	13.032831
_cell_length_b	12.594516
_cell_length_c	13.034356
_cell_angle_alpha	82.793051
_cell_angle_beta	74.815040
_cell_angle_gamma	82.821304
loop_
_atom_site_label
_atom_site_type_symbol
_atom_site_fract_x
_atom_site_fract_y
_atom_site_fract_z
Zn1	Zn	1.700212	-0.539591	-0.806488
Zn2	Zn	1.677534	-0.737648	-0.628874
Zn3	Zn	1.500017	-0.539600	-0.606370
Zn4	Zn	1.522563	-0.697435	-0.783924
O5	O	1.600081	-0.628569	-0.706414
O6	O	1.845842	-0.582689	-0.801788
O7	O	1.635060	-0.728209	-0.477251
O8	O	1.526628	-0.390657	-0.632941
O9	O	1.829181	-0.728200	-0.671296
O10	O	1.673711	-0.390651	-0.779966
O11	O	1.504638	-0.582705	-0.460717
O12	O	1.354369	-0.543712	-0.611062
O13	O	1.565054	-0.659664	-0.935556
O14	O	1.370933	-0.659673	-0.741510
O15	O	1.695573	-0.543697	-0.952133
O16	O	1.656921	-0.881255	-0.649417
O17	O	1.543065	-0.851711	-0.763332
C18	C	1.324111	-0.597331	-0.671396
C19	C	1.206053	-0.583990	-0.656441
C20	C	1.161630	-0.635532	-0.714219
C21	C	1.039610	-0.621744	-0.698763
C22	C	1.600010	-0.905103	-0.706395
C23	C	1.600082	-1.023412	-0.706434
C24	C	1.538142	-1.076640	-0.768342
C25	C	1.499946	-1.155524	-0.668141
C26	C	1.638377	-1.155336	-0.806664
C27	C	1.561828	-1.100738	-0.606176
C28	C	1.700312	-1.100542	-0.744770
C29	C	1.662145	-1.179406	-0.644507
C30	C	1.877130	-0.659929	-0.741569
C31	C	1.995191	-0.673293	-0.756550
C32	C	1.635358	-0.597194	-0.983462
C33	C	1.650391	-0.583823	-1.101524
C34	C	1.600184	-0.350955	-0.706460
C35	C	1.600228	-0.232653	-0.706480
C36	C	1.608049	-0.621429	-1.267980
C37	C	1.592509	-0.635247	-1.145957
C38	C	1.565003	-0.659752	-0.430451
C39	C	1.550176	-0.672845	-0.312417
H40	H	1.485643	-1.032043	-0.820594
H41	H	1.784993	-1.076098	-0.777206
H42	H	1.153751	-0.529651	-0.595536
H43	H	1.213932	-0.689861	-0.775132
O44	O	1.523157	-1.072157	-0.504962
C45	C	1.496169	-1.164413	-0.434192
H46	H	1.543204	-1.238796	-0.471073
H47	H	1.516501	-1.157278	-0.355576
H48	H	1.406982	-1.171767	-0.418700
O49	O	1.477332	-0.737653	-1.250201
C50	C	1.426521	-0.782758	-1.315208
H51	H	1.480025	-0.782463	-1.399831
H52	H	1.411107	-0.868952	-1.281629
H53	H	1.347346	-0.733336	-1.316730
H54	H	1.714579	-1.223817	-0.592105
H55	H	1.531457	-0.689505	-1.093667
H56	H	0.987312	-0.567402	-0.637855
O57	O	1.057694	-0.737977	-0.829292
C58	C	1.130608	-0.676900	-0.906088
H59	H	1.142369	-0.602261	-0.870837
H60	H	1.210454	-0.727429	-0.930073
H61	H	1.097962	-0.651621	-0.979452
O62	O	1.676838	-1.184114	-0.907826
C63	C	1.611196	-1.131216	-0.972778
H64	H	1.566697	-1.055725	-0.936125
H65	H	1.662682	-1.107960	-1.055948
H66	H	1.551132	-1.187188	-0.978784
H67	H	1.415252	-1.179964	-0.635749
O68	O	1.723083	-0.518954	-1.163918
C69	C	1.670749	-0.436165	-1.220439
H70	H	1.582857	-0.423898	-1.176334
H71	H	1.709359	-0.358445	-1.226683
H72	H	1.677712	-0.459202	-1.304002
O73	O	1.680810	-0.556713	-1.330507
C74	C	1.680142	-0.557339	-1.438423
H75	H	1.600059	-0.581225	-1.443062
H76	H	1.692720	-0.473683	-1.481586
H77	H	1.747105	-0.617613	-1.477885
