data_functionalizedCrystal
_audit_creation_method	'MofGen! by Chris Wilmer'
_symmetry_space_group_name_H-M	'P1'
_symmetry_Int_Tables_number	1
_symmetry_cell_setting	triclinic
loop_
_symmetry_equiv_pos_as_xyz
  x,y,z
_cell_length_a	14.446369
_cell_length_b	14.560438
_cell_length_c	14.560438
_cell_angle_alpha	119.999504
_cell_angle_beta	89.997771
_cell_angle_gamma	59.998281
loop_
_atom_site_label
_atom_site_type_symbol
_atom_site_fract_x
_atom_site_fract_y
_atom_site_fract_z
Zr1	Zr	0.891767	1.005231	0.120476
O2	O	0.743950	1.196846	0.267128
O3	O	0.937080	0.813626	0.075522
O4	O	0.937071	1.005235	0.267125
O5	O	0.743967	1.005231	-0.075617
O6	O	1.089408	1.005227	0.267119
O7	O	0.743959	1.005237	0.075525
O8	O	1.089425	0.662474	-0.075624
O9	O	0.743950	1.347984	0.267126
O10	O	1.070093	0.892426	0.056342
O11	O	0.956412	0.892428	-0.056450
O12	O	0.956401	1.118022	0.169138
O13	O	0.842719	1.118024	0.056346
Zr14	Zr	1.134739	1.005208	-0.120588
Zr15	Zr	1.134727	1.005218	0.120467
Zr16	Zr	0.891779	1.005221	-0.120579
Zr17	Zr	0.891767	1.246279	0.120472
Zr18	Zr	1.134738	0.764160	-0.120583
O19	O	1.089426	1.196813	-0.075634
O20	O	1.089408	1.196827	0.267116
O21	O	0.743968	1.196832	-0.075621
O22	O	1.282555	0.813593	-0.267240
O23	O	1.282538	0.813607	0.075509
O24	O	0.937097	0.813612	-0.267228
O25	O	1.282538	1.005208	0.075506
O26	O	1.089435	1.005204	-0.267237
O27	O	0.937098	1.005213	-0.267231
O28	O	1.282546	1.005202	-0.075637
O29	O	0.937071	1.347974	0.267119
O30	O	1.089434	0.662466	-0.267230
O31	O	1.282555	0.662455	-0.267237
O32	O	1.282545	0.662463	-0.075631
O33	O	0.743960	1.347976	0.075519
O34	O	0.937081	1.347966	0.075512
O35	O	1.070105	0.892417	-0.169250
O36	O	1.183787	0.892415	-0.056458
O37	O	1.070094	1.118011	0.056338
O38	O	0.956412	1.118013	-0.056454
C39	C	1.013252	0.703706	-0.000050
C40	C	1.013252	0.601375	-0.000048
C41	C	0.709347	1.005236	-0.000045
C42	C	0.606204	1.005242	-0.000041
C43	C	1.072590	0.553298	0.058828
C44	C	1.072595	0.457139	0.058818
C45	C	0.953913	0.457145	-0.058947
C46	C	0.953916	0.553296	-0.058942
C47	C	0.387832	1.147510	0.070741
C48	C	0.495063	1.147606	0.071139
C49	C	0.602877	0.934572	0.051852
C50	C	0.495108	0.935475	0.052371
C51	C	0.496481	0.932538	-0.122805
C52	C	0.602450	0.935219	-0.122612
C53	C	1.317159	1.005203	-0.000067
C54	C	1.420302	1.005197	-0.000071
C55	C	1.013237	1.005232	0.301467
C56	C	1.013232	1.005236	0.403802
C57	C	1.013253	1.306733	-0.000062
C58	C	1.013254	1.409064	-0.000063
C59	C	0.953886	1.122994	0.510757
C60	C	0.953897	1.122991	0.606907
C61	C	1.072602	0.887461	0.489133
C62	C	1.072597	0.887466	0.392985
C63	C	1.013262	1.005213	0.698424
C64	C	1.013248	1.005228	0.596099
C65	C	1.317158	0.703689	-0.000061
C66	C	1.420301	0.601353	-0.000063
C67	C	1.013268	0.703693	-0.301573
C68	C	1.013273	0.601358	-0.403906
C69	C	1.317174	0.703677	-0.301585
C70	C	1.420322	0.601336	-0.403921
C71	C	0.709332	1.306763	0.301473
C72	C	0.606184	1.409103	0.403809
C73	C	0.709347	1.306750	-0.000050
C74	C	0.606205	1.409087	-0.000049
C75	C	1.013238	1.306746	0.301462
C76	C	1.013233	1.409081	0.403794
C77	C	1.409414	0.553278	0.058814
C78	C	1.506331	0.457129	0.058816
C79	C	1.625020	0.457135	-0.058945
C80	C	1.528103	0.553289	-0.058940
C81	C	1.072621	0.553273	-0.510862
C82	C	1.072612	0.457127	-0.607010
C83	C	0.953906	0.457156	-0.489232
C84	C	0.953909	0.553307	-0.393086
C85	C	1.528121	0.553253	-0.393125
C86	C	1.625036	0.457101	-0.489284
C87	C	1.506337	0.457120	-0.607032
C88	C	1.409425	0.553277	-0.510873
H89	H	1.120907	0.592439	0.106781
H90	H	1.497479	0.417977	-0.694122
H91	H	1.536999	0.592382	-0.306043
H92	H	1.120933	0.791576	0.480340
H93	H	1.120915	0.417995	0.106758
H94	H	1.321643	0.592430	-0.519672
H95	H	1.120930	0.791567	0.305891
H96	H	0.905603	0.417989	-0.106895
H97	H	1.321640	0.592420	0.106767
H98	H	0.521764	0.831063	0.004129
H99	H	0.905572	1.218881	0.693991
H100	H	0.905595	0.592439	-0.106892
H101	H	0.333877	1.203360	0.036109
H102	H	1.497457	0.417993	0.106762
H103	H	1.712809	0.417956	-0.480487
H104	H	0.446460	0.978070	-0.166155
H105	H	0.601934	0.986747	-0.161379
H106	H	0.493305	1.203335	0.036601
H107	H	1.120938	0.417982	-0.694096
H108	H	0.332842	1.203095	0.160732
H109	H	1.712802	0.417988	-0.106882
H110	H	1.536976	0.592435	-0.106885
H111	H	0.444760	0.985702	0.142687
H112	H	0.492613	1.203398	0.161676
H113	H	0.681148	0.829896	0.002759
H114	H	1.120954	0.592398	-0.519678
H115	H	0.605008	0.983663	0.141311
H116	H	0.523922	0.827703	-0.175816
H117	H	0.681611	0.831356	-0.179811
H118	H	0.905547	1.218891	0.519570
H119	H	0.905577	0.418019	-0.480436
H120	H	0.905575	0.592461	-0.305991
