data_functionalizedCrystal
_audit_creation_method	'MofGen! by Chris Wilmer'
_symmetry_space_group_name_H-M	'P1'
_symmetry_Int_Tables_number	1
_symmetry_cell_setting	triclinic
loop_
_symmetry_equiv_pos_as_xyz
  x,y,z
_cell_length_a	16.992695
_cell_length_b	16.974800
_cell_length_c	15.455313
_cell_angle_alpha	90.973911
_cell_angle_beta	87.146003
_cell_angle_gamma	92.978746
loop_
_atom_site_label
_atom_site_type_symbol
_atom_site_fract_x
_atom_site_fract_y
_atom_site_fract_z
O1	O	-0.099968	1.055370	0.001992
O2	O	-0.111944	0.826691	-0.014066
O3	O	0.008189	0.940114	-0.006109
O4	O	-0.220101	0.941947	-0.005965
O5	O	0.001347	0.933626	0.137698
O6	O	-0.118786	0.820203	0.129740
O7	O	-0.106810	1.048882	0.145799
Cu8	Cu	-0.113422	0.933950	0.150901
Cu9	Cu	-0.105331	0.941623	-0.019168
O10	O	-0.226943	0.935459	0.137842
C11	C	-0.114784	0.794051	0.055772
C12	C	-0.113044	0.706460	0.049621
C13	C	-0.115954	0.661778	0.125122
C14	C	-0.114306	0.579477	0.119344
C15	C	-0.109755	0.541860	0.038065
C16	C	-0.106842	0.586549	-0.037442
C17	C	-0.108484	0.668848	-0.031664
C18	C	-0.104439	0.296101	0.012376
C19	C	-0.102800	0.213796	0.006604
C20	C	-0.110262	0.206730	0.163391
C21	C	-0.111909	0.289031	0.169162
C22	C	-0.108992	0.333712	0.093655
N23	N	-0.108073	0.457736	0.032157
N24	N	-0.110668	0.417835	0.099564
C25	C	-0.252740	0.941061	0.066106
C26	C	-0.339800	0.948098	0.066606
C27	C	-0.389890	0.880198	0.061837
C28	C	-0.471691	0.886815	0.062291
C29	C	-0.503400	0.961334	0.067520
C30	C	-0.453303	1.029240	0.072286
C31	C	-0.371503	1.022622	0.071826
C32	C	-0.747057	0.988763	0.069426
C33	C	-0.828863	0.995375	0.069888
C34	C	-0.847246	0.852950	0.059891
C35	C	-0.765444	0.846339	0.059437
C36	C	-0.715354	0.914245	0.064199
N37	N	-0.587013	0.968100	0.067986
N38	N	-0.631742	0.907479	0.063726
C39	C	0.033986	0.934512	0.065625
C40	C	0.121046	0.927475	0.065120
C41	C	-0.103970	1.081522	0.075959
C42	C	-0.105709	1.169113	0.082105
N43	N	-0.119112	0.928559	0.270518
N44	N	-0.099635	0.947019	-0.138785
C45	C	-0.068094	0.976764	0.319294
C46	C	-0.072405	0.972695	0.409816
C47	C	-0.127738	0.920425	0.451561
C48	C	-0.178758	0.872214	0.402779
C49	C	-0.174443	0.876280	0.312258
C50	C	-0.146341	0.902875	0.721912
C51	C	-0.150653	0.898814	0.812439
C52	C	-0.044299	0.999295	0.819471
C53	C	-0.039992	1.003359	0.728948
C54	C	-0.091009	0.955146	0.680173
N55	N	-0.132146	0.916266	0.544090
N56	N	-0.086596	0.959301	0.587646
H57	H	-0.099095	0.183171	-0.059588
H58	H	-0.119667	0.692399	0.191309
H59	H	-0.103130	0.555915	-0.103622
H60	H	0.005064	1.045922	0.694961
H61	H	-0.512472	0.831523	0.058405
H62	H	-0.479126	1.089914	0.076545
O63	O	-0.101747	0.339451	-0.060996
C64	C	-0.163719	0.365970	-0.193588
C65	C	-0.166874	0.316833	-0.110514
H66	H	-0.216358	0.347690	-0.233655
H67	H	-0.165717	0.431263	-0.175559
H68	H	-0.106703	0.355295	-0.233079
H69	H	-0.223881	0.327440	-0.070984
H70	H	-0.164831	0.251556	-0.128602
O71	O	-0.116296	0.325446	0.248187
C72	C	-0.123579	0.309746	0.403087
C73	C	-0.118586	0.268407	0.313648
H74	H	-0.125448	0.263647	0.456037
H75	H	-0.069695	0.351841	0.410035
H76	H	-0.179352	0.344359	0.409400
H77	H	-0.062847	0.233751	0.307274
H78	H	-0.172509	0.226357	0.306741
H79	H	-0.030862	1.011947	0.449530
H80	H	-0.106116	0.705228	-0.093145
H81	H	-0.330719	1.077914	0.075706
H82	H	-0.112636	0.170341	0.224864
H83	H	-0.364080	0.819516	0.057589
H84	H	-0.739633	0.785658	0.055169
H85	H	-0.888037	0.797665	0.056014
H86	H	-0.854677	1.056060	0.074147
O87	O	-0.698521	1.054802	0.074106
C88	C	-0.688926	1.196768	0.084033
C89	C	-0.743988	1.122039	0.078754
H90	H	-0.725663	1.251148	0.087773
H91	H	-0.653055	1.194570	0.144268
H92	H	-0.647285	1.199906	0.023896
H93	H	-0.785677	1.118853	0.138846
H94	H	-0.779804	1.124267	0.018480
O95	O	-0.014274	1.027560	0.278883
C96	C	0.090730	1.126823	0.295424
C97	C	0.029826	1.069320	0.341295
H98	H	0.126390	1.160613	0.345865
H99	H	0.132075	1.092270	0.250519
H100	H	0.058770	1.170197	0.255921
H101	H	0.061719	1.025933	0.380845
H102	H	-0.011516	1.103924	0.386149
H103	H	-0.002762	1.038547	0.859192
O104	O	-0.204421	0.847958	0.852852
C105	C	-0.309469	0.748739	0.836331
C106	C	-0.248609	0.806282	0.790453
H107	H	-0.345222	0.715040	0.785903
H108	H	-0.277548	0.705291	0.875781
H109	H	-0.350731	0.783332	0.881288
H110	H	-0.207329	0.771754	0.745453
H111	H	-0.280581	0.849730	0.751058
H112	H	-0.187882	0.863619	0.682206
O113	O	-0.232485	0.821506	0.443466
C114	C	-0.286240	0.770681	0.579797
C115	C	-0.225366	0.828154	0.533833
H116	H	-0.280494	0.776024	0.652865
H117	H	-0.348252	0.785700	0.563053
H118	H	-0.275003	0.707721	0.557487
H119	H	-0.236530	0.891133	0.556117
H120	H	-0.163374	0.813067	0.550576
O121	O	-0.224086	0.829425	0.265006
C122	C	-0.329998	0.729300	0.267577
C123	C	-0.273839	0.782336	0.321193
H124	H	-0.370227	0.691204	0.312981
H125	H	-0.367305	0.767656	0.227768
H126	H	-0.293993	0.689737	0.222275
H127	H	-0.309783	0.821909	0.366543
H128	H	-0.236530	0.743933	0.360944
H129	H	-0.116663	0.543101	0.180825
