data_functionalizedCrystal
_audit_creation_method	'MofGen! by Chris Wilmer'
_symmetry_space_group_name_H-M	'P1'
_symmetry_Int_Tables_number	1
_symmetry_cell_setting	triclinic
loop_
_symmetry_equiv_pos_as_xyz
  x,y,z
_cell_length_a	19.288864
_cell_length_b	16.109301
_cell_length_c	18.366186
_cell_angle_alpha	89.992337
_cell_angle_beta	89.977106
_cell_angle_gamma	83.298863
loop_
_atom_site_label
_atom_site_type_symbol
_atom_site_fract_x
_atom_site_fract_y
_atom_site_fract_z
O1	O	0.921600	0.103716	-0.060785
O2	O	1.421600	0.603716	0.439215
O3	O	0.719373	0.117707	-0.060736
O4	O	1.219373	0.617707	0.439264
O5	O	0.826042	-0.010339	-0.060755
O6	O	1.326042	0.489661	0.439245
O7	O	0.814931	0.231761	-0.060767
O8	O	1.314931	0.731761	0.439233
O9	O	0.826024	-0.010345	0.060345
O10	O	1.326024	0.489655	0.560345
O11	O	0.719355	0.117701	0.060363
O12	O	1.219355	0.617701	0.560363
O13	O	0.921582	0.103710	0.060314
O14	O	1.421582	0.603710	0.560314
Zn15	Zn	0.820466	0.110704	0.079566
Zn16	Zn	1.320466	0.610704	0.579566
Zn17	Zn	0.820490	0.110712	-0.079988
Zn18	Zn	1.320490	0.610712	0.420012
O19	O	0.814913	0.231755	0.060333
O20	O	1.314913	0.731755	0.560333
C21	C	0.693487	0.117254	-0.000180
C22	C	1.193487	0.617254	0.499820
C23	C	0.616380	0.115902	-0.000161
C24	C	1.116380	0.615902	0.499839
C25	C	0.825583	-0.041315	-0.000205
C26	C	1.325583	0.458685	0.499795
C27	C	0.824234	-0.133606	-0.000203
C28	C	1.324234	0.366394	0.499797
C29	C	0.571863	0.191034	-0.000176
C30	C	1.071863	0.691034	0.499824
C31	C	0.499413	0.189764	-0.000184
C32	C	0.999413	0.689764	0.499816
C33	C	0.471483	0.113359	-0.000191
C34	C	0.971483	0.613359	0.499809
C35	C	0.516009	0.038218	-0.000172
C36	C	1.016009	0.538218	0.499828
C37	C	0.588458	0.039489	-0.000157
C38	C	1.088458	0.539489	0.499843
C39	C	0.363084	0.053298	-0.042639
C40	C	0.863084	0.553298	0.457361
C41	C	0.290636	0.052029	-0.042659
C42	C	0.790636	0.552029	0.457341
C43	C	0.248028	0.109433	-0.000235
C44	C	0.748028	0.609433	0.499765
C45	C	0.277874	0.168120	0.042199
C46	C	0.777874	0.668120	0.542199
C47	C	0.350323	0.169391	0.042214
C48	C	0.850323	0.669391	0.542214
C49	C	0.392925	0.111971	-0.000207
C50	C	0.892925	0.611971	0.499793
C51	C	0.124952	0.183193	-0.000258
C52	C	0.624952	0.683193	0.499742
C53	C	0.052501	0.181920	-0.000262
C54	C	0.552501	0.681920	0.499738
C55	C	0.069099	0.030372	-0.000257
C56	C	0.569099	0.530372	0.499743
C57	C	0.141548	0.031647	-0.000246
C58	C	0.641548	0.531647	0.499754
C59	C	0.169470	0.108060	-0.000250
C60	C	0.669470	0.608060	0.499750
C61	C	0.884391	-0.356084	-0.000229
C62	C	1.384391	0.143916	0.499771
C63	C	0.883118	-0.442800	-0.000235
C64	C	1.383118	0.057200	0.499765
C65	C	0.756559	-0.422493	-0.000201
C66	C	1.256559	0.077507	0.499799
C67	C	0.757833	-0.335778	-0.000201
C68	C	1.257833	0.164222	0.499799
C69	C	0.821751	-0.302577	-0.000211
C70	C	1.321751	0.197423	0.499789
C71	C	0.819204	-0.476007	-0.000217
C72	C	1.319204	0.023993	0.499783
C73	C	0.817823	-0.570028	-0.000223
C74	C	1.317823	-0.070028	0.499777
C75	C	0.823133	-0.208549	-0.000206
C76	C	1.323133	0.291451	0.499794
C77	C	0.947469	0.104163	-0.000244
C78	C	1.447469	0.604163	0.499756
C79	C	1.024576	0.105514	-0.000268
C80	C	1.524576	0.605514	0.499732
C81	C	0.815372	0.262732	-0.000219
C82	C	1.315372	0.762732	0.499781
C83	C	0.816722	0.355022	-0.000225
C84	C	1.316722	0.855022	0.499775
N85	N	0.820455	0.110698	0.188457
N86	N	1.320455	0.610698	0.688457
N87	N	0.820506	0.110712	-0.188879
N88	N	1.320506	0.610712	0.311121
C89	C	0.867703	0.054027	0.226549
C90	C	1.367703	0.554027	0.726549
C91	C	0.867707	0.054023	0.302777
C92	C	1.367707	0.554023	0.802777
C93	C	0.820470	0.110705	0.340910
C94	C	1.320470	0.610705	0.840910
C95	C	0.773213	0.167380	0.302808
C96	C	1.273213	0.667380	0.802808
C97	C	0.773205	0.167377	0.226582
C98	C	1.273205	0.667377	0.726582
C99	C	0.811353	0.186459	0.461668
C100	C	1.311353	0.686459	0.961668
C101	C	0.811365	0.186463	0.537893
C102	C	1.311365	0.686463	1.037893
C103	C	0.820490	0.110715	0.576017
C104	C	1.320490	0.610715	1.076017
C105	C	0.829616	0.034960	0.537908
C106	C	1.329616	0.534960	1.037908
C107	C	0.829609	0.034956	0.461681
C108	C	1.329609	0.534956	0.961681
C109	C	0.820473	0.110715	0.423564
C110	C	1.320473	0.610715	0.923564
C111	C	0.867746	0.054036	0.696764
C112	C	1.367746	0.554036	1.196764
C113	C	0.867745	0.054031	0.772993
C114	C	1.367745	0.554031	1.272993
C115	C	0.773254	0.167395	0.773023
C116	C	1.273254	0.667395	1.273023
C117	C	0.773251	0.167392	0.696796
C118	C	1.273251	0.667392	1.196796
C119	C	0.820500	0.110714	0.658671
C120	C	1.320500	0.610714	1.158671
H121	H	0.594592	0.253255	-0.000181
H122	H	1.094592	0.753255	0.499819
C123	C	0.954696	-0.319560	-0.000246
C124	C	1.454696	0.180440	0.499754
H125	H	0.946486	-0.260252	-0.000236
H126	H	1.446486	0.239748	0.499764
H127	H	0.980493	-0.337936	-0.042484
H128	H	1.480493	0.162064	0.457516
H129	H	0.980481	-0.337951	0.041982
H130	H	1.480481	0.162049	0.541982
H131	H	0.837038	-0.026726	0.430655
H132	H	1.337038	0.473274	0.930655
C133	C	0.839648	-0.048368	0.579834
C134	C	1.339648	0.451632	1.079834
H135	H	0.838337	-0.037520	0.630689
H136	H	1.338337	0.462480	1.130689
H137	H	0.883459	-0.078153	0.567327
H138	H	1.383459	0.421847	1.067327
H139	H	0.803326	-0.080831	0.567361
H140	H	1.303326	0.419169	1.067361
C141	C	0.686255	-0.459018	-0.000180
C142	C	1.186255	0.040982	0.499820
H143	H	0.694466	-0.518326	-0.000174
H144	H	1.194466	-0.018326	0.499826
H145	H	0.660465	-0.440631	-0.042401
H146	H	1.160465	0.059369	0.457599
H147	H	0.660463	-0.440639	0.042065
H148	H	1.160463	0.059361	0.542065
H149	H	0.706821	-0.292210	-0.000188
H150	H	1.206821	0.207790	0.499812
C151	C	0.952022	-0.501655	-0.000251
C152	C	1.452022	-0.001655	0.499749
H153	H	0.990269	-0.469458	-0.000251
H154	H	1.490269	0.030542	0.499749
H155	H	0.954165	-0.535898	-0.042482
H156	H	1.454165	-0.035898	0.457518
H157	H	0.954148	-0.535909	0.041984
H158	H	1.454148	-0.035909	0.541984
H159	H	0.803910	0.248146	0.430633
H160	H	1.303910	0.748146	0.930633
C161	C	0.038388	-0.053675	-0.000262
C162	C	0.538388	0.446325	0.499738
H163	H	0.075281	-0.098240	-0.000247
H164	H	0.575281	0.401760	0.499753
H165	H	0.010492	-0.057322	-0.042495
H166	H	0.510492	0.442678	0.457505
H167	H	0.010450	-0.057321	0.041970
H168	H	0.510450	0.442679	0.541970
H169	H	0.906175	0.007874	0.195510
H170	H	1.406175	0.507874	0.695510
C171	C	0.919710	-0.008315	0.654824
C172	C	1.419710	0.491685	1.154824
H173	H	0.947844	-0.042077	0.688431
H174	H	1.447844	0.457923	1.188431
H175	H	0.948613	0.021502	0.625068
H176	H	1.448613	0.521502	1.125068
H177	H	0.894726	-0.042850	0.625106
H178	H	1.394726	0.457150	1.125106
C179	C	0.919723	-0.008309	0.814895
C180	C	1.419723	0.491691	1.314895
H181	H	0.947864	-0.042056	0.781269
H182	H	1.447864	0.457944	1.281269
H183	H	0.894755	-0.042847	0.844649
H184	H	1.394755	0.457153	1.344649
H185	H	0.948627	0.021523	0.844611
H186	H	1.448627	0.521523	1.344611
H187	H	0.803938	0.248148	0.568916
H188	H	1.303938	0.748148	1.068916
C189	C	0.257807	-0.012516	-0.089337
C190	C	0.757807	0.487484	0.410663
H191	H	0.208557	-0.005045	-0.083279
H192	H	0.708557	0.494955	0.416721
H193	H	0.275693	-0.067315	-0.074415
H194	H	0.775693	0.432685	0.425585
H195	H	0.268912	-0.004994	-0.139123
H196	H	0.768912	0.495006	0.360877
C197	C	0.409946	-0.009844	-0.089315
C198	C	0.909946	0.490156	0.410685
H199	H	0.381795	-0.044966	-0.114598
H200	H	0.881795	0.455034	0.385402
H201	H	0.441871	-0.042923	-0.058728
H202	H	0.941871	0.457077	0.441272
H203	H	0.435074	0.019411	-0.123426
H204	H	0.935074	0.519411	0.376574
H205	H	0.624704	-0.021694	-0.000145
H206	H	1.124704	0.478306	0.499855
C207	C	0.919684	-0.008315	0.344687
C208	C	1.419684	0.491685	0.844687
H209	H	0.947824	-0.042068	0.311064
H210	H	1.447824	0.457932	0.811064
H211	H	0.894714	-0.042848	0.374444
H212	H	1.394714	0.457152	0.874444
H213	H	0.948590	0.021518	0.374401
H214	H	1.448590	0.521518	0.874401
C215	C	0.721255	0.229730	0.344751
C216	C	1.221255	0.729730	0.844751
H217	H	0.728031	0.221622	0.395605
H218	H	1.228031	0.721622	0.895605
H219	H	0.674901	0.220842	0.332287
H220	H	1.174901	0.720842	0.832287
H221	H	0.728786	0.285198	0.332243
H222	H	1.228786	0.785198	0.832243
C223	C	0.190522	-0.050997	-0.000240
C224	C	0.690522	0.449003	0.499760
H225	H	0.237669	-0.039297	-0.000225
H226	H	0.737669	0.460703	0.499775
H227	H	0.182082	-0.082336	-0.042471
H228	H	0.682082	0.417664	0.457529
H229	H	0.182035	-0.082340	0.041994
H230	H	0.682035	0.417660	0.541994
H231	H	0.734789	0.213542	0.804071
H232	H	1.234789	0.713542	1.304071
H233	H	0.734779	0.213542	0.665779
H234	H	1.234779	0.713542	1.165779
C235	C	0.003528	0.264567	-0.000279
C236	C	0.503528	0.764567	0.499721
H237	H	-0.043619	0.252867	-0.000279
H238	H	0.456381	0.752867	0.499721
H239	H	0.012014	0.295906	-0.042511
H240	H	0.512014	0.795906	0.457489
H241	H	0.011970	0.295910	0.041955
H242	H	0.511970	0.795910	0.541955
C243	C	0.721234	0.229723	0.184679
C244	C	1.221234	0.729723	0.684679
H245	H	0.693103	0.263484	0.218304
H246	H	1.193103	0.763484	0.718304
H247	H	0.692329	0.199904	0.154959
H248	H	1.192329	0.699904	0.654959
H249	H	0.746214	0.264259	0.154929
H250	H	1.246214	0.764259	0.654929
C251	C	0.450432	0.272409	-0.000204
C252	C	0.950432	0.772409	0.499796
H253	H	0.403286	0.260706	-0.000209
H254	H	0.903286	0.760706	0.499791
H255	H	0.458920	0.303750	-0.042435
H256	H	0.958920	0.803750	0.457565
H257	H	0.458869	0.303752	0.042031
H258	H	0.958869	0.803752	0.542031
H259	H	0.374621	0.217173	0.076768
H260	H	0.874621	0.717173	0.576768
H261	H	0.243184	0.214863	0.076745
H262	H	0.743184	0.714863	0.576745
C263	C	0.155669	0.267242	-0.000255
C264	C	0.655669	0.767242	0.499745
H265	H	0.118777	0.311807	-0.000255
H266	H	0.618777	0.811807	0.499745
H267	H	0.183608	0.270891	-0.042481
H268	H	0.683608	0.770891	0.457519
H269	H	0.183564	0.270884	0.041984
H270	H	0.683564	0.770884	0.541984
H271	H	0.493264	-0.023992	-0.000188
H272	H	0.993264	0.476008	0.499812
