data_functionalizedCrystal
_audit_creation_method	'MofGen! by Chris Wilmer'
_symmetry_space_group_name_H-M	'P1'
_symmetry_Int_Tables_number	1
_symmetry_cell_setting	triclinic
loop_
_symmetry_equiv_pos_as_xyz
  x,y,z
_cell_length_a	21.606444
_cell_length_b	20.875684
_cell_length_c	21.606444
_cell_angle_alpha	87.032727
_cell_angle_beta	60.001331
_cell_angle_gamma	58.314923
loop_
_atom_site_label
_atom_site_type_symbol
_atom_site_fract_x
_atom_site_fract_y
_atom_site_fract_z
Zr1	Zr	0.677441	0.617927	-0.112119
O2	O	0.806566	0.515498	-0.205816
O3	O	0.548321	0.649328	-0.083399
O4	O	0.677445	0.649320	-0.212516
O5	O	0.677437	0.515512	0.025155
O6	O	0.677444	0.754880	-0.217798
O7	O	0.677442	0.515506	-0.076699
O8	O	0.446464	0.754894	0.013170
O9	O	0.908416	0.515497	-0.205813
O10	O	0.601428	0.741497	-0.075088
O11	O	0.601425	0.662723	0.004866
O12	O	0.753452	0.662713	-0.147153
O13	O	0.753450	0.583939	-0.067199
Zr14	Zr	0.677432	0.786291	0.041903
Zr15	Zr	0.677439	0.786283	-0.120543
Zr16	Zr	0.677434	0.617936	0.050326
Zr17	Zr	0.839882	0.617925	-0.112114
Zr18	Zr	0.514992	0.786293	0.041897
O19	O	0.806552	0.754890	0.013182
O20	O	0.806562	0.754878	-0.217794
O21	O	0.806556	0.515510	0.025160
O22	O	0.548308	0.888720	0.135600
O23	O	0.548318	0.888708	-0.095376
O24	O	0.548311	0.649340	0.147578
O25	O	0.677436	0.888706	-0.095372
O26	O	0.677428	0.754898	0.142300
O27	O	0.677430	0.649339	0.147582
O28	O	0.677432	0.888712	0.006482
O29	O	0.908414	0.649317	-0.212509
O30	O	0.446459	0.754901	0.142292
O31	O	0.446457	0.888721	0.135597
O32	O	0.446462	0.888714	0.006475
O33	O	0.908411	0.515504	-0.076691
O34	O	0.908409	0.649324	-0.083387
O35	O	0.601421	0.741505	0.076937
O36	O	0.601423	0.820279	-0.003017
O37	O	0.753448	0.741495	-0.075083
O38	O	0.753446	0.662721	0.004871
C39	C	0.474249	0.702111	-0.035115
C40	C	0.405288	0.702112	-0.035117
C41	C	0.677440	0.491522	-0.024571
C42	C	0.677441	0.420051	-0.020995
C43	C	0.372892	0.743230	-0.076853
C44	C	0.308092	0.743232	-0.076848
C45	C	0.275694	0.702113	-0.035111
C46	C	0.308093	0.660994	0.006630
C47	C	0.372888	0.660996	0.006629
C48	C	0.046784	0.660985	0.006637
C49	C	-0.018013	0.660984	0.006633
C50	C	-0.018012	0.743221	-0.076840
C51	C	0.046783	0.743223	-0.076842
C52	C	0.079173	0.702108	-0.035098
C53	C	0.149435	0.702107	-0.035102
C54	C	0.205437	0.702109	-0.035110
C55	C	0.677428	0.017753	0.005208
C56	C	0.677425	0.084909	0.001841
C57	C	0.677433	0.118474	-0.055960
C58	C	0.677435	0.084885	-0.110392
C59	C	0.677431	0.017734	-0.107021
C60	C	0.677439	0.319310	-0.072056
C61	C	0.677445	0.386465	-0.075425
C62	C	0.677434	0.386485	0.036809
C63	C	0.677436	0.319330	0.040173
C64	C	0.677433	0.285749	-0.014257
N65	N	0.677433	0.187117	-0.059405
N66	N	0.677426	0.217111	-0.010809
C67	C	0.880625	0.702107	-0.035101
C68	C	0.949585	0.702106	-0.035099
C69	C	0.677445	0.702098	-0.238302
C70	C	0.677448	0.702095	-0.307264
C71	C	0.677433	0.912696	-0.045645
C72	C	0.677432	0.984167	-0.049221
C73	C	0.756803	0.660970	-0.377281
C74	C	0.756801	0.660977	-0.442076
C75	C	0.677443	0.702104	-0.436853
C76	C	0.598082	0.743234	-0.366830
C77	C	0.598085	0.743231	-0.302036
C78	C	0.598066	0.743246	-0.628133
C79	C	0.598069	0.743244	-0.692934
C80	C	0.756782	0.660992	-0.768173
C81	C	0.756785	0.660989	-0.703380
C82	C	0.677425	0.702122	-0.633362
C83	C	0.677429	0.702116	-0.563104
C84	C	0.677438	0.702107	-0.507109
C85	C	0.677428	0.702120	0.168086
C86	C	0.677425	0.702123	0.237048
C87	C	0.474245	0.912698	-0.045652
C88	C	0.405284	0.984170	-0.049230
C89	C	0.474240	0.702122	0.168079
C90	C	0.405277	0.702126	0.237039
C91	C	0.474237	0.912709	0.157542
C92	C	0.405272	0.984185	0.222926
C93	C	0.880637	0.491509	-0.227759
C94	C	0.949601	0.420034	-0.293143
C95	C	0.880628	0.491520	-0.024565
C96	C	0.949589	0.420048	-0.020986
C97	C	0.880633	0.702096	-0.238296
C98	C	0.949596	0.702092	-0.307255
C99	C	0.372901	0.976611	-0.088537
C100	C	0.308114	1.043760	-0.091915
C101	C	0.275706	1.118468	-0.055979
C102	C	0.308095	1.126026	-0.016671
C103	C	0.372886	1.058877	-0.013298
C104	C	0.372889	0.743252	0.307050
C105	C	0.308100	0.743253	0.371852
C106	C	0.275695	0.702133	0.366640
C107	C	0.308090	0.661002	0.296622
C108	C	0.372882	0.660997	0.231822
C109	C	0.372887	1.058877	0.211896
C110	C	0.308097	1.126042	0.273324
C111	C	0.275689	1.118514	0.345783
C112	C	0.308080	1.043814	0.356812
C113	C	0.372874	0.976650	0.295384
C114	C	0.981994	0.345342	-0.282112
C115	C	1.046804	0.278176	-0.343541
C116	C	1.079216	0.285704	-0.415999
C117	C	1.046820	0.360404	-0.427029
C118	C	0.982015	0.427568	-0.365601
C119	C	0.981979	0.427607	0.018314
C120	C	1.046784	0.360458	0.021673
C121	C	1.079194	0.285750	-0.014264
C122	C	1.046802	0.278192	-0.053570
C123	C	0.982002	0.345341	-0.056933
C124	C	0.981980	0.743220	-0.302020
C125	C	1.046770	0.743231	-0.366810
C126	C	1.079179	0.702109	-0.436834
C127	C	1.046789	0.660980	-0.442068
C128	C	0.981996	0.660974	-0.377279
H129	H	0.399270	0.776710	-0.110844
O130	O	0.273126	1.206609	0.022088
H131	H	0.327506	1.213456	-0.001178
O132	O	0.407821	0.616688	0.156283
H133	H	0.395363	0.658252	0.122831
H134	H	1.073218	0.366525	-0.486032
H135	H	0.955603	0.776706	-0.245009
H136	H	1.131984	0.231009	-0.466011
O137	O	-0.052947	0.787569	-0.121866
H138	H	-0.124424	0.833030	-0.084089
O139	O	0.407796	0.896089	0.307285
H140	H	0.395357	0.863529	0.281292
O141	O	0.512475	0.787591	-0.552619
H142	H	0.508663	0.833049	-0.523467
O143	O	0.407798	1.067034	0.029112
H144	H	0.374364	1.130266	0.053539
H145	H	1.073170	0.217359	-0.334546
O146	O	0.677421	0.422711	0.095522
H147	H	0.677415	0.475050	0.083475
H148	H	0.821401	0.627502	-0.825191
H149	H	0.677452	0.413790	-0.122496
H150	H	0.399264	1.065021	0.152901
O151	O	1.081762	0.197613	-0.092330
H152	H	1.132256	0.152198	-0.083378
H153	H	0.533467	0.776725	-0.362582
O154	O	0.512473	0.787630	-0.687305
H155	H	0.457288	0.816247	-0.627733
H156	H	0.677439	0.291973	-0.116376
O157	O	0.677409	-0.018438	0.067558
H158	H	0.736735	-0.036287	0.065704
H159	H	0.281730	1.186860	0.264331
H160	H	0.281751	1.037591	-0.123923
H161	H	0.073145	0.627509	0.040630
O162	O	1.149061	0.213327	-0.010610
H163	H	1.166120	0.231143	0.022772
H164	H	0.955641	0.488384	-0.374591
O165	O	1.149067	0.702116	-0.506710
H166	H	1.208112	0.640879	-0.537861
O167	O	0.677453	0.121078	-0.172741
H168	H	0.677468	0.173408	-0.165948
O169	O	0.677443	-0.018500	-0.165729
H170	H	0.677459	0.016115	-0.206493
H171	H	0.281684	1.037696	0.415816
H172	H	0.955608	0.339197	-0.223118
H173	H	0.821426	0.627474	-0.381542
O174	O	0.205794	1.190958	0.412036
H175	H	0.188716	1.244158	0.392185
O176	O	0.842389	0.616619	-0.517595
H177	H	0.897572	0.588011	-0.510341
O178	O	0.947041	0.508181	0.057065
H179	H	0.980470	0.502143	0.084944
O180	O	0.407859	0.896038	-0.127310
H181	H	0.353471	0.889206	-0.104056
H182	H	1.073147	0.366627	0.053683
O183	O	0.081726	0.787572	-0.121863
H184	H	0.132230	0.780659	-0.114858
H185	H	1.073135	0.776723	-0.362533
H186	H	0.399265	0.776737	0.311308
O187	O	0.842377	0.616630	-0.709010
H188	H	0.897559	0.588038	-0.768584
H189	H	0.533466	0.776719	-0.245026
O190	O	1.081756	0.616619	-0.517595
H191	H	1.132259	0.623529	-0.561760
O192	O	0.947062	0.337184	-0.099315
H193	H	0.980483	0.273952	-0.123730
H194	H	0.955636	0.627479	-0.381552
O195	O	0.273152	0.787631	0.447366
H196	H	0.306559	0.816236	0.440096
H197	H	0.281714	0.776714	-0.110833
O198	O	0.205797	0.702160	0.436538
H199	H	0.230663	0.676443	0.472045
O200	O	-0.052938	0.616613	0.051642
H201	H	-0.082469	0.640377	0.111438
O202	O	0.273158	0.616637	0.051646
H203	H	0.222668	0.623534	0.044628
H204	H	0.222948	1.173138	-0.058730
H205	H	0.399266	0.627512	0.040613
H206	H	0.677421	0.112255	0.046162
H207	H	0.677430	0.292002	0.087238
H208	H	0.281697	0.627523	0.292389
