data_functionalizedCrystal
_audit_creation_method	'MofGen! by Chris Wilmer'
_symmetry_space_group_name_H-M	'P1'
_symmetry_Int_Tables_number	1
_symmetry_cell_setting	triclinic
loop_
_symmetry_equiv_pos_as_xyz
  x,y,z
_cell_length_a	17.699083
_cell_length_b	15.995350
_cell_length_c	16.176319
_cell_angle_alpha	89.995430
_cell_angle_beta	89.998611
_cell_angle_gamma	83.387695
loop_
_atom_site_label
_atom_site_type_symbol
_atom_site_fract_x
_atom_site_fract_y
_atom_site_fract_z
O1	O	1.004255	0.105885	-0.068627
O2	O	1.504255	0.605885	0.431373
O3	O	0.783899	0.119661	-0.068653
O4	O	1.283899	0.619661	0.431347
O5	O	0.900101	-0.009127	-0.068638
O6	O	1.400101	0.490873	0.431362
O7	O	0.888054	0.234673	-0.068641
O8	O	1.388054	0.734673	0.431359
O9	O	0.900085	-0.009135	0.068855
O10	O	1.400085	0.490865	0.568855
O11	O	0.783883	0.119653	0.068840
O12	O	1.283883	0.619653	0.568840
O13	O	1.004239	0.105877	0.068867
O14	O	1.504239	0.605877	0.568867
Cu15	Cu	0.894060	0.112764	0.081408
Cu16	Cu	1.394060	0.612764	0.581408
Cu17	Cu	0.894079	0.112774	-0.081194
Cu18	Cu	1.394079	0.612774	0.418806
O19	O	0.888038	0.234665	0.068852
O20	O	1.388038	0.734665	0.568852
C21	C	0.755694	0.119163	0.000090
C22	C	1.255694	0.619163	0.500090
C23	C	0.671673	0.117683	0.000080
C24	C	1.171673	0.617683	0.500080
C25	C	0.623178	0.193278	0.000079
C26	C	1.123178	0.693278	0.500079
C27	C	0.544232	0.191882	0.000090
C28	C	1.044232	0.691882	0.500090
C29	C	0.513783	0.114889	0.000095
C30	C	1.013783	0.614889	0.500095
C31	C	0.562285	0.039287	0.000098
C32	C	1.062285	0.539287	0.500098
C33	C	0.641229	0.040685	0.000094
C34	C	1.141229	0.540685	0.500094
C35	C	0.243912	0.033651	0.000119
C36	C	0.743912	0.533651	0.500119
C37	C	0.164962	0.032259	0.000121
C38	C	0.664962	0.532259	0.500121
C39	C	0.146916	0.184848	0.000115
C40	C	0.646916	0.684848	0.500115
C41	C	0.225860	0.186245	0.000110
C42	C	0.725860	0.686245	0.500110
C43	C	0.274354	0.110644	0.000118
C44	C	0.774354	0.610644	0.500118
C45	C	0.359956	0.112159	0.000108
C46	C	0.859956	0.612159	0.500108
C47	C	0.428183	0.113373	0.000099
C48	C	0.928183	0.613373	0.500099
C49	C	0.899595	-0.040324	0.000107
C50	C	1.399595	0.459676	0.500107
C51	C	0.898101	-0.133272	0.000102
C52	C	1.398101	0.366728	0.500102
C53	C	0.892739	-0.471008	0.000104
C54	C	1.392739	0.028992	0.500104
C55	C	0.809983	-0.423406	-0.000214
C56	C	1.309983	0.076594	0.499786
C57	C	0.811476	-0.326719	0.000096
C58	C	1.311476	0.173281	0.500096
C59	C	0.895399	-0.303453	0.000102
C60	C	1.395399	0.196547	0.500102
C61	C	0.936208	-0.344618	0.078621
C62	C	1.436208	0.155382	0.578621
C63	C	0.934129	-0.441250	0.078687
C64	C	1.434129	0.058750	0.578687
C65	C	0.935857	-0.441602	-0.077669
C66	C	1.435857	0.058398	0.422331
C67	C	0.935838	-0.344657	-0.078706
C68	C	1.435838	0.155343	0.421294
C69	C	0.896907	-0.208759	0.000104
C70	C	1.396907	0.291241	0.500104
C71	C	0.891234	-0.565703	0.000108
C72	C	1.391234	-0.065703	0.500108
C73	C	1.032445	0.106375	0.000122
C74	C	1.532445	0.606375	0.500122
C75	C	1.116465	0.107856	0.000126
C76	C	1.616465	0.607856	0.500126
C77	C	0.888544	0.265863	0.000105
C78	C	1.388544	0.765863	0.500105
C79	C	0.890037	0.358810	0.000104
C80	C	1.390037	0.858810	0.500104
N81	N	0.894052	0.112757	0.195773
N82	N	1.394052	0.612757	0.695773
N83	N	0.894092	0.112775	-0.195559
N84	N	1.394092	0.612775	0.304441
C85	C	0.945521	0.055753	0.239043
C86	C	1.445521	0.555753	0.739043
C87	C	0.945525	0.055752	0.325591
C88	C	1.445525	0.555752	0.825591
C89	C	0.894063	0.112760	0.368865
C90	C	1.394063	0.612760	0.868865
C91	C	0.842588	0.169767	0.325589
C92	C	1.342588	0.669767	0.825589
C93	C	0.842581	0.169763	0.239043
C94	C	1.342581	0.669763	0.739043
C95	C	0.842614	0.169782	0.674617
C96	C	1.342614	0.669782	1.174617
C97	C	0.842626	0.169783	0.761168
C98	C	1.342626	0.669783	1.261168
C99	C	0.945558	0.055772	0.761164
C100	C	1.445558	0.555772	1.261164
C101	C	0.945551	0.055768	0.674619
C102	C	1.445551	0.555768	1.174619
C103	C	0.894074	0.112771	0.631350
C104	C	1.394074	0.612771	1.131350
C105	C	0.894069	0.112770	0.537505
C106	C	1.394069	0.612770	1.037505
C107	C	0.894070	0.112765	0.462708
C108	C	1.394070	0.612765	0.962708
H109	H	0.647962	0.255975	0.000074
H110	H	1.147962	0.755975	0.500074
C111	C	0.528793	-0.045403	0.000103
C112	C	1.028793	0.454597	0.500103
H113	H	0.474831	-0.035410	0.000097
H114	H	0.974831	0.464590	0.500097
H115	H	0.545439	-0.076528	0.048049
H116	H	1.045439	0.423472	0.548049
H117	H	0.545440	-0.076517	-0.047851
H118	H	1.045440	0.423483	0.452149
C119	C	0.694574	-0.042470	0.000086
C120	C	1.194574	0.457530	0.500086
H121	H	0.665134	-0.088525	0.000081
H122	H	1.165134	0.411475	0.500081
H123	H	0.725749	-0.045103	0.048030
H124	H	1.225749	0.454897	0.548030
H125	H	0.725741	-0.045091	-0.047870
H126	H	1.225741	0.454909	0.452130
H127	H	0.504750	0.253440	0.000088
H128	H	1.004750	0.753440	0.500088
C129	C	1.018280	-0.484681	-0.078384
C130	C	1.518280	0.015319	0.421616
H131	H	1.026407	-0.520419	-0.031544
H132	H	1.526407	-0.020419	0.468456
H133	H	1.052474	-0.443089	-0.076659
H134	H	1.552474	0.056911	0.423341
H135	H	1.026801	-0.517132	-0.127385
H136	H	1.526801	-0.017132	0.372615
H137	H	0.908807	-0.462083	-0.137181
H138	H	1.408807	0.037917	0.362819
C139	C	1.016203	-0.484986	0.083522
C140	C	1.516203	0.015014	0.583522
H141	H	1.050667	-0.443672	0.085444
H142	H	1.550667	0.056328	0.585444
H143	H	1.026650	-0.519522	0.036180
H144	H	1.526650	-0.019522	0.536180
H145	H	1.021928	-0.518733	0.131942
H146	H	1.521928	-0.018733	0.631942
C147	C	0.297249	-0.049505	0.000115
C148	C	0.797249	0.450495	0.500115
H149	H	0.348628	-0.037651	0.000119
H150	H	0.848628	0.462349	0.500119
H151	H	0.288016	-0.081076	-0.047832
H152	H	0.788016	0.418924	0.452168
H153	H	0.288020	-0.081085	0.048068
H154	H	0.788020	0.418915	0.548068
C155	C	0.259353	0.270935	0.000102
C156	C	0.759353	0.770935	0.500102
H157	H	0.313315	0.260939	0.000091
H158	H	0.813315	0.760939	0.500091
H159	H	0.242710	0.302054	0.048048
H160	H	0.742710	0.802054	0.548048
H161	H	0.242706	0.302054	-0.047852
H162	H	0.742706	0.802054	0.452148
H163	H	0.904358	-0.459494	0.137376
H164	H	1.404358	0.040506	0.637376
H165	H	0.906001	-0.317344	-0.136792
H166	H	1.406001	0.182656	0.363208
H167	H	0.800668	0.216180	0.203813
H168	H	1.300668	0.716180	0.703813
C169	C	1.002139	-0.006952	0.373189
C170	C	1.502139	0.493048	0.873189
H171	H	0.994768	0.001206	0.430930
H172	H	1.494768	0.501206	0.930930
H173	H	1.052648	0.002071	0.359001
H174	H	1.552648	0.502071	0.859001
H175	H	0.993917	-0.062825	0.359009
H176	H	1.493917	0.437175	0.859009
C177	C	0.131470	-0.052437	0.000135
C178	C	0.631470	0.447563	0.500135
H179	H	0.171657	-0.097263	0.000148
H180	H	0.671657	0.402737	0.500148
H181	H	0.101048	-0.056155	-0.047809
H182	H	0.601048	0.443845	0.452191
H183	H	0.101050	-0.056146	0.048091
H184	H	0.601050	0.443854	0.548091
H185	H	0.800682	0.216181	0.360828
H186	H	1.300682	0.716181	0.860828
C187	C	1.019497	-0.325703	0.082582
C188	C	1.519497	0.174297	0.582582
H189	H	1.030146	-0.292449	0.036276
H190	H	1.530146	0.207551	0.536276
H191	H	1.052315	-0.377057	0.081858
H192	H	1.552315	0.122943	0.581858
H193	H	1.027408	-0.295915	0.132054
H194	H	1.527408	0.204085	0.632054
C195	C	1.018516	-0.324080	-0.085105
C196	C	1.518516	0.175920	0.414895
H197	H	1.029505	-0.289943	-0.039592
H198	H	1.529505	0.210057	0.460408
H199	H	1.024932	-0.294745	-0.135217
H200	H	1.524932	0.205255	0.364783
H201	H	1.052123	-0.374865	-0.084435
H202	H	1.552123	0.125135	0.415565
H203	H	0.107421	0.246406	0.000113
H204	H	0.607421	0.746406	0.500113
H205	H	0.779397	-0.298228	-0.056190
H206	H	1.279397	0.201772	0.443810
H207	H	0.907851	-0.316183	0.137047
H208	H	1.407851	0.183817	0.637047
H209	H	0.777046	-0.442936	0.055772
H210	H	1.277046	0.057064	0.555772
H211	H	0.779168	-0.298792	0.056470
H212	H	1.279168	0.201208	0.556470
C213	C	0.765299	-0.448352	-0.076272
C214	C	1.265299	0.051648	0.423728
H215	H	0.796708	-0.488026	-0.108514
H216	H	1.296708	0.011974	0.391486
H217	H	0.750082	-0.399744	-0.108607
H218	H	1.250082	0.100256	0.391393
H219	H	0.721541	-0.472700	-0.058614
H220	H	1.221541	0.027300	0.441386
H221	H	0.987471	0.009354	0.796403
H222	H	1.487471	0.509354	1.296403
H223	H	0.800700	0.216198	0.639394
H224	H	1.300700	0.716198	1.139394
H225	H	0.987459	0.009350	0.639387
H226	H	1.487459	0.509350	1.139387
H227	H	0.987431	0.009334	0.203815
H228	H	1.487431	0.509334	0.703815
H229	H	0.800716	0.216208	0.796401
H230	H	1.300716	0.716208	1.296401
