data_functionalizedCrystal
_audit_creation_method	'MofGen! by Chris Wilmer'
_symmetry_space_group_name_H-M	'P1'
_symmetry_Int_Tables_number	1
_symmetry_cell_setting	triclinic
loop_
_symmetry_equiv_pos_as_xyz
  x,y,z
_cell_length_a	27.732048
_cell_length_b	27.732048
_cell_length_c	9.565339
_cell_angle_alpha	89.995294
_cell_angle_beta	90.001982
_cell_angle_gamma	82.642655
loop_
_atom_site_label
_atom_site_type_symbol
_atom_site_fract_x
_atom_site_fract_y
_atom_site_fract_z
O1	O	0.640927	0.057514	-0.116095
O2	O	0.500133	0.066259	-0.116139
O3	O	0.574903	-0.008510	-0.116089
O4	O	0.566157	0.132283	-0.116145
O5	O	0.574897	-0.008506	0.116431
O6	O	0.500128	0.066264	0.116381
O7	O	0.640921	0.057518	0.116425
Zn8	Zn	0.570523	0.061892	0.153321
Zn9	Zn	0.570531	0.061886	-0.153034
O10	O	0.566152	0.132288	0.116375
C11	C	0.482124	0.066078	0.000116
C12	C	0.428469	0.065525	0.000100
C13	C	0.574716	-0.026515	0.000175
C14	C	0.574164	-0.080170	0.000186
C15	C	0.089654	0.106229	0.000144
C16	C	-0.112006	0.104178	0.000158
O17	O	-0.143262	0.141398	0.000203
N18	N	-0.131130	0.059843	0.000173
C19	C	-0.099835	0.016017	0.000194
O20	O	-0.120728	-0.021740	0.000221
C21	C	0.101824	0.018068	0.000190
C22	C	0.120944	0.062407	0.000161
C23	C	0.108775	0.150563	0.000116
C24	C	0.159187	0.151075	0.000106
C25	C	0.190477	0.107253	0.000122
C26	C	0.171356	0.062919	0.000150
C27	C	0.133117	-0.025757	0.000221
C28	C	0.183535	-0.025240	0.000224
C29	C	0.202655	0.019098	0.000195
C30	C	0.253059	0.019609	0.000156
N31	N	0.272183	0.063944	0.000141
C32	C	0.240892	0.107766	0.000124
C33	C	-0.205709	0.014943	0.000193
C34	C	-0.256124	0.014430	0.000191
C35	C	-0.268291	0.102591	0.000157
C36	C	-0.217876	0.103104	0.000149
C37	C	-0.186585	0.059278	0.000177
C38	C	0.346761	0.108839	0.000100
C39	C	0.397178	0.109347	0.000083
C40	C	0.409341	0.021186	0.000124
C41	C	0.358929	0.020678	0.000133
C42	C	0.327639	0.064508	0.000126
O43	O	0.284343	-0.017592	0.000126
O44	O	0.261794	0.145518	0.000127
C45	C	0.039242	0.105716	0.000155
C46	C	0.020120	0.061382	0.000183
C47	C	0.051411	0.017560	0.000200
C48	C	-0.030294	0.060869	0.000181
C49	C	-0.061585	0.104691	0.000164
C50	C	-0.042461	0.149026	0.000149
C51	C	0.007951	0.149539	0.000138
C52	C	0.032287	-0.026775	0.000215
C53	C	-0.018125	-0.027284	0.000224
C54	C	-0.049416	0.016538	0.000207
C55	C	0.614867	-0.418985	0.000127
C56	C	0.612816	-0.620645	0.000107
O57	O	0.650037	-0.651900	0.000058
N58	N	0.568481	-0.639768	0.000095
C59	C	0.524656	-0.608474	0.000078
O60	O	0.486899	-0.629367	0.000052
C61	C	0.526707	-0.406815	0.000088
C62	C	0.571045	-0.387694	0.000115
C63	C	0.659202	-0.399864	0.000153
C64	C	0.659714	-0.349452	0.000165
C65	C	0.615892	-0.318161	0.000153
C66	C	0.571557	-0.337282	0.000127
C67	C	0.482882	-0.375521	0.000061
C68	C	0.483399	-0.325104	0.000060
C69	C	0.527737	-0.305983	0.000087
C70	C	0.528247	-0.255580	0.000127
N71	N	0.572583	-0.236456	0.000140
C72	C	0.616405	-0.267747	0.000153
C73	C	0.523582	-0.714348	0.000075
C74	C	0.523069	-0.764762	0.000075
C75	C	0.611230	-0.776930	0.000102
C76	C	0.611742	-0.726514	0.000112
C77	C	0.567917	-0.695224	0.000088
C78	C	0.617477	-0.161878	0.000180
C79	C	0.617986	-0.111461	0.000199
C80	C	0.529825	-0.099298	0.000165
C81	C	0.529316	-0.149710	0.000154
C82	C	0.573147	-0.180999	0.000157
O83	O	0.491047	-0.224296	0.000161
O84	O	0.654156	-0.246844	0.000147
C85	C	0.614355	-0.469397	0.000115
C86	C	0.570021	-0.488518	0.000089
C87	C	0.526198	-0.457228	0.000077
C88	C	0.569508	-0.538933	0.000089
C89	C	0.613330	-0.570223	0.000102
C90	C	0.657665	-0.551100	0.000115
C91	C	0.658177	-0.500688	0.000127
C92	C	0.481863	-0.476351	0.000064
C93	C	0.481355	-0.526764	0.000053
C94	C	0.525177	-0.558054	0.000066
C95	C	0.658931	0.057699	0.000168
C96	C	0.712586	0.058252	0.000174
C97	C	0.566338	0.150292	0.000108
C98	C	0.566891	0.203947	0.000088
N99	N	0.570522	0.061896	0.362400
N100	N	0.570537	0.061878	-0.362114
C101	C	0.535933	0.096463	0.453580
C102	C	0.579544	0.105516	0.546768
C103	C	0.526929	0.052846	0.546767
C104	C	0.614155	0.070971	0.453537
C105	C	0.561511	0.018281	0.453527
C106	C	0.605154	0.027316	0.546674
H107	H	0.412743	0.145454	0.000058
H108	H	0.634443	-0.001926	0.587292
N109	N	0.662243	-0.193841	0.000181
N110	N	0.671802	-0.223326	-0.097830
H111	H	0.703418	-0.245901	-0.097822
H112	H	0.651035	0.078662	0.412757
H113	H	-0.293777	0.138273	0.000144
H114	H	0.694282	-0.485125	0.000149
N115	N	-0.198355	0.148398	0.000147
N116	N	-0.208066	0.177855	0.098150
H117	H	-0.194282	0.209846	0.098153
H118	H	0.695819	-0.333889	0.000181
H119	H	-0.180236	-0.020747	0.000216
H120	H	0.083302	0.186251	0.000108
N121	N	0.551916	-0.027965	0.402120
N122	N	0.512816	-0.043502	0.431938
H123	H	0.506035	-0.076164	0.395631
N124	N	0.339401	-0.024615	0.000167
N125	N	0.349114	-0.054068	0.098194
H126	H	0.335326	-0.086058	0.098231
N127	N	0.480672	0.043259	0.598149
N128	N	0.443180	0.071368	0.568321
H129	H	0.410511	0.064602	0.604609
N130	N	-0.074436	0.193786	0.000153
N131	N	-0.103922	0.203328	0.098174
H132	H	-0.126506	0.234937	0.098186
H133	H	0.486964	-0.780325	0.000077
N134	N	0.589112	0.151773	0.598185
N135	N	0.591004	0.159046	0.726917
H136	H	0.597757	0.191716	0.763229
N137	N	0.314812	0.153614	0.000100
N138	N	0.331899	0.193192	0.000076
H139	H	0.309336	0.224815	0.000070
N140	N	0.064246	-0.071541	0.000196
N141	N	0.093729	-0.081094	-0.097828
H142	H	0.116299	-0.112712	-0.097850
N143	N	0.178706	0.196370	0.000074
N144	N	0.150755	0.235490	0.000060
H145	H	0.164536	0.267483	0.000039
N146	N	-0.275644	-0.030865	0.000190
N147	N	-0.247694	-0.069986	0.000204
H148	H	-0.261478	-0.101977	0.000208
H149	H	0.506708	0.125721	0.412706
N150	N	0.484026	-0.169242	0.000111
N151	N	0.473904	-0.196005	-0.097924
H152	H	0.441916	-0.209795	-0.097967
H153	H	0.117558	-0.061861	0.000246
N154	N	0.663278	-0.091930	0.000252
N155	N	0.692731	-0.101642	0.098278
H156	H	0.724718	-0.087850	0.098316
H157	H	-0.033688	-0.063392	0.000237
N158	N	0.215489	-0.070012	0.000268
N159	N	0.198406	-0.109593	0.000300
H160	H	0.220973	-0.141213	0.000331
H161	H	0.434827	-0.014492	0.000132
N162	N	0.027470	0.194834	0.000103
N163	N	-0.000481	0.233954	0.000087
H164	H	0.013301	0.265946	0.000063
H165	H	0.694889	-0.425336	0.000158
N166	N	0.657036	-0.706993	0.000146
N167	N	0.696157	-0.734943	0.000168
H168	H	0.728149	-0.721159	0.000192
H169	H	0.646911	-0.802415	0.000113
N170	N	0.478807	-0.682396	0.000051
N171	N	0.439229	-0.699483	0.000042
H172	H	0.407607	-0.676919	0.000031
N173	N	0.436061	-0.546292	0.000056
N174	N	0.406600	-0.536590	0.098057
H175	H	0.374612	-0.550381	0.098052
N176	N	0.438630	-0.293144	0.000068
N177	N	0.429074	-0.263661	0.098087
H178	H	0.397456	-0.241090	0.098099
N179	N	0.437587	-0.395036	0.000030
N180	N	0.398468	-0.367083	0.000004
H181	H	0.366474	-0.380864	-0.000023
H182	H	0.446177	-0.450879	0.000051
H183	H	0.494146	-0.073812	0.000159
N184	N	0.702424	-0.583074	0.000142
N185	N	0.701954	-0.628085	0.000137
H186	H	0.733563	-0.650670	0.000152
