data_functionalizedCrystal
_audit_creation_method	'MofGen! by Chris Wilmer'
_symmetry_space_group_name_H-M	'P1'
_symmetry_Int_Tables_number	1
_symmetry_cell_setting	triclinic
loop_
_symmetry_equiv_pos_as_xyz
  x,y,z
_cell_length_a	6.817900
_cell_length_b	19.263509
_cell_length_c	11.168138
_cell_angle_alpha	84.397645
_cell_angle_beta	108.508793
_cell_angle_gamma	81.428207
loop_
_atom_site_label
_atom_site_type_symbol
_atom_site_fract_x
_atom_site_fract_y
_atom_site_fract_z
V1	V	-3.998077	0.219008	-0.176056
O2	O	-3.959791	0.214832	0.007070
O3	O	-3.975128	0.217515	-0.347752
O4	O	-3.925606	0.314522	-0.173958
O5	O	-4.009656	0.117155	-0.167927
V6	V	-4.481526	0.206824	-0.154080
O7	O	-4.259498	0.245732	-0.224262
O8	O	-4.670303	0.180100	-0.105874
O9	O	-4.281269	0.208316	0.017616
O10	O	-4.637209	0.210999	-0.337206
O11	O	-4.587344	0.308677	-0.162208
O12	O	-4.330790	0.111310	-0.156178
C13	C	-3.827099	0.214062	-0.389589
C14	C	-3.889462	0.213479	-0.529957
C15	C	-4.154851	0.215947	-0.743738
C16	C	-4.090400	0.216550	-0.598661
C17	C	-4.155812	0.088026	-0.162244
C18	C	-4.112851	0.009942	-0.162817
C19	C	-3.920124	-0.023162	-0.169425
C20	C	-3.879762	-0.096530	-0.169971
C21	C	-4.032155	-0.136788	-0.163936
C22	C	-4.224904	-0.103676	-0.157320
C23	C	-4.265252	-0.030311	-0.156761
N24	N	-4.143532	-0.248366	-0.232355
N25	N	-4.105193	-0.318060	-0.232889
C26	C	-3.910597	-0.357834	-0.165617
N27	N	-3.755770	-0.325279	-0.097807
N28	N	-3.794110	-0.255579	-0.097279
C29	C	-3.988423	-0.216341	-0.164540
C30	C	-3.674092	-0.470491	-0.172816
C31	C	-3.633732	-0.543861	-0.173354
C32	C	-3.978888	-0.551005	-0.160716
C33	C	-4.019234	-0.477638	-0.160165
C34	C	-3.866833	-0.437385	-0.166221
C35	C	-3.763928	0.337802	-0.167896
C36	C	-3.786128	0.415885	-0.167316
C37	C	-4.092641	0.211768	0.059446
C38	C	-4.009516	0.212356	0.199813
H39	H	-4.214721	0.219629	-0.550093
H40	H	-3.722803	-0.123490	-0.175332
H41	H	-4.422196	-0.003358	-0.151382
H42	H	-3.476786	-0.570813	-0.178731
C43	C	-4.190747	-0.589155	-0.041005
C44	C	-4.146402	-0.595252	-0.154077
H45	H	-4.294153	-0.616478	-0.036902
H46	H	-4.242367	-0.540729	-0.039740
H47	H	-4.065796	-0.606136	0.030313
H48	H	-4.271350	-0.578266	-0.225396
H49	H	-4.094789	-0.643688	-0.155353
H50	H	-3.765132	0.210407	-0.578518
C51	C	-4.458095	0.161088	-0.778225
C52	C	-4.387241	0.219494	-0.823480
H53	H	-4.601562	0.163278	-0.827459
H54	H	-4.445280	0.161966	-0.691204
H55	H	-4.375510	0.118411	-0.785341
H56	H	-4.469816	0.262172	-0.816355
H57	H	-4.400073	0.218624	-0.910522
H58	H	-4.348981	-0.136459	-0.152406
H59	H	-3.549991	-0.437716	-0.177737
H60	H	-3.837373	0.209724	-0.741110
C61	C	-3.695356	0.054009	-0.067015
C62	C	-3.752593	0.021081	-0.176062
H63	H	-3.591937	0.081327	-0.071116
H64	H	-3.639384	0.018814	0.007028
H65	H	-3.815932	0.084229	-0.063018
H66	H	-3.632019	-0.009142	-0.180055
H67	H	-3.808560	0.056281	-0.250125
H68	H	-4.176176	-0.450684	-0.154791
