data_functionalizedCrystal
_audit_creation_method	'MofGen! by Chris Wilmer'
_symmetry_space_group_name_H-M	'P1'
_symmetry_Int_Tables_number	1
_symmetry_cell_setting	triclinic
loop_
_symmetry_equiv_pos_as_xyz
  x,y,z
_cell_length_a	14.971491
_cell_length_b	15.538191
_cell_length_c	14.048226
_cell_angle_alpha	89.996115
_cell_angle_beta	89.991693
_cell_angle_gamma	65.444165
loop_
_atom_site_label
_atom_site_type_symbol
_atom_site_fract_x
_atom_site_fract_y
_atom_site_fract_z
O1	O	1.146971	0.122739	-0.079190
O2	O	0.881787	0.137429	-0.079182
O3	O	1.065999	-0.006987	-0.079192
O4	O	0.962759	0.267154	-0.079180
O5	O	1.065985	-0.006995	0.079129
O6	O	0.881773	0.137420	0.079139
O7	O	1.146957	0.122730	0.079131
Zn8	Zn	1.014363	0.130074	0.104272
Zn9	Zn	1.014381	0.130085	-0.104323
O10	O	0.962745	0.267145	0.079141
C11	C	0.848670	0.136767	-0.000021
C12	C	0.750015	0.134795	-0.000018
C13	C	0.325087	0.126293	-0.086341
C14	C	0.417785	0.128143	-0.086338
C15	C	0.464120	0.129069	-0.000033
C16	C	0.417757	0.128136	0.086273
C17	C	0.325064	0.126280	0.086268
C18	C	0.610958	0.132007	0.086277
C19	C	0.703657	0.133865	0.086282
C20	C	0.703679	0.133870	-0.086329
C21	C	0.610986	0.132014	-0.086334
C22	C	0.564628	0.131083	-0.000027
C23	C	1.076794	-0.042074	-0.000035
C24	C	1.108969	-0.146611	-0.000046
C25	C	0.789322	-0.434768	-0.000015
C26	C	0.819578	-0.532999	-0.000014
C27	C	0.989758	-0.555247	-0.000020
C28	C	0.959517	-0.457015	-0.000026
C29	C	0.859298	-0.396783	-0.000022
C30	C	1.029492	-0.419031	-0.000033
C31	C	0.999253	-0.320808	-0.000034
C32	C	0.899038	-0.260570	-0.000027
C33	C	0.829058	-0.298561	-0.000023
C34	C	1.129710	-0.479265	-0.000029
C35	C	1.199686	-0.441281	-0.000036
C36	C	1.169447	-0.343056	-0.000044
C37	C	1.069232	-0.282818	-0.000038
C38	C	1.239427	-0.305066	-0.000048
C39	C	1.209188	-0.206843	-0.000049
C40	C	1.038993	-0.184595	-0.000039
C41	C	1.180074	0.123392	-0.000033
C42	C	1.278729	0.125364	-0.000042
C43	C	0.951950	0.302233	-0.000018
C44	C	0.919776	0.406770	-0.000014
N45	N	1.014357	0.130066	0.246633
N46	N	1.014396	0.130086	-0.246684
C47	C	1.095937	0.066145	0.296446
C48	C	1.095943	0.066144	0.396104
C49	C	1.014372	0.130070	0.445946
C50	C	0.932785	0.193994	0.396126
C51	C	0.932776	0.193989	0.296470
C52	C	0.932808	0.194000	0.603840
C53	C	0.932817	0.194007	0.703503
C54	C	1.095975	0.066156	0.703474
C55	C	1.095967	0.066151	0.603818
C56	C	1.014380	0.130076	0.554004
H57	H	0.455493	0.128884	0.156543
H58	H	0.573211	0.131261	0.156557
H59	H	0.287316	0.125533	0.156542
N60	N	0.561009	0.131009	-0.179416
H61	H	0.496361	0.188566	-0.183265
H62	H	0.604513	0.131841	-0.234036
N63	N	0.844817	0.262949	0.550107
H64	H	0.816918	0.226894	0.508773
H65	H	0.793209	0.303434	0.596860
N66	N	1.162325	-0.585205	-0.000023
H67	H	1.136211	-0.604500	-0.058714
H68	H	1.236430	-0.617526	0.000017
H69	H	1.162371	0.014095	0.436661
N70	N	0.753638	0.134861	0.179364
H71	H	0.710210	0.133982	0.234038
H72	H	0.818287	0.077302	0.183114
N73	N	1.284656	-0.165865	-0.000052
H74	H	1.352732	-0.218926	-0.000056
H75	H	1.275818	-0.125594	-0.058742
N76	N	1.183922	-0.002799	0.242691
H77	H	1.235602	-0.043293	0.289374
H78	H	1.163217	-0.044492	0.201355
H79	H	0.866345	0.246038	0.255913
H80	H	1.162391	0.014103	0.563237
H81	H	0.455528	0.128894	-0.156611
N82	N	1.183976	-0.002792	0.757194
H83	H	1.171604	0.006906	0.827888
H84	H	1.195346	-0.069614	0.739780
N85	N	0.753671	0.134879	-0.179420
H86	H	0.819424	0.136191	-0.166324
H87	H	0.763661	0.076229	-0.217113
H88	H	0.957385	-0.135550	-0.000043
H89	H	0.762588	-0.563920	0.000005
N90	N	0.844844	0.262961	0.757265
H91	H	0.793157	0.303455	0.710588
H92	H	0.817039	0.226845	0.798635
H93	H	0.287365	0.125546	-0.156620
H94	H	0.874419	-0.180591	-0.000023
N95	N	0.844808	0.262941	0.449888
H96	H	0.833398	0.329792	0.432535
H97	H	0.784940	0.251901	0.432547
N98	N	0.720965	-0.233585	-0.000035
H99	H	0.681219	-0.272550	-0.000036
H100	H	0.704703	-0.192346	0.058656
H101	H	0.707714	-0.385722	-0.000020
H102	H	1.071356	-0.604301	-0.000019
N103	N	1.307775	-0.506247	-0.000031
H104	H	1.316315	-0.574235	-0.000026
H105	H	1.339655	-0.493938	-0.058725
N106	N	1.347515	-0.370034	-0.000034
H107	H	1.356053	-0.438021	-0.000025
H108	H	1.379404	-0.357732	-0.058726
