data_functionalizedCrystal
_audit_creation_method	'MofGen! by Chris Wilmer'
_symmetry_space_group_name_H-M	'P1'
_symmetry_Int_Tables_number	1
_symmetry_cell_setting	triclinic
loop_
_symmetry_equiv_pos_as_xyz
  x,y,z
_cell_length_a	14.971482
_cell_length_b	14.044190
_cell_length_c	14.048226
_cell_angle_alpha	89.988942
_cell_angle_beta	89.994098
_cell_angle_gamma	88.402193
loop_
_atom_site_label
_atom_site_type_symbol
_atom_site_fract_x
_atom_site_fract_y
_atom_site_fract_z
O1	O	1.196683	0.123521	-0.079159
O2	O	0.937448	0.138319	-0.079165
O3	O	1.063171	-0.007069	-0.079144
O4	O	1.070960	0.268909	-0.079181
O5	O	1.063154	-0.007078	0.079178
O6	O	0.937431	0.138310	0.079156
O7	O	1.196666	0.123512	0.079162
Zn8	Zn	1.067046	0.130910	0.104296
Zn9	Zn	1.067068	0.130921	-0.104299
O10	O	1.070943	0.268900	0.079140
C11	C	0.904063	0.137653	-0.000005
C12	C	0.804609	0.135672	-0.000006
C13	C	0.757882	0.134734	0.086296
C14	C	0.664435	0.132857	0.086297
C15	C	0.617718	0.131925	-0.000005
C16	C	0.664452	0.132860	-0.086314
C17	C	0.757897	0.134730	-0.086314
C18	C	0.469683	0.128965	-0.086307
C19	C	0.376232	0.127097	-0.086307
C20	C	0.376222	0.127092	0.086304
C21	C	0.469667	0.128962	0.086304
C22	C	0.516394	0.129899	-0.000006
C23	C	1.059755	-0.042392	0.000020
C24	C	1.049591	-0.147629	0.000028
C25	C	1.103093	-0.397856	-0.000008
C26	C	1.031025	-0.340307	-0.000003
C27	C	1.041358	-0.233092	0.000014
C28	C	1.092761	-0.505082	-0.000026
C29	C	1.230051	0.124178	-0.000000
C30	C	1.329504	0.126159	-0.000005
C31	C	1.074359	0.304223	-0.000025
C32	C	1.084522	0.409460	-0.000039
N33	N	1.067037	0.130902	0.246657
N34	N	1.067084	0.130922	-0.246660
C35	C	1.122728	0.066550	0.296484
C36	C	1.122734	0.066550	0.396142
C37	C	1.067053	0.130906	0.445970
C38	C	1.011355	0.195260	0.396136
C39	C	1.011345	0.195255	0.296480
C40	C	1.011381	0.195267	0.603850
C41	C	1.011392	0.195273	0.703513
C42	C	1.122770	0.066562	0.703512
C43	C	1.122760	0.066557	0.603856
C44	C	1.067064	0.130912	0.554029
H45	H	0.507726	0.129728	-0.156589
F46	F	1.193877	-0.357008	0.000005
H47	H	1.168074	0.014148	0.255921
H48	H	0.626395	0.132078	0.156573
F49	F	1.182027	-0.001931	0.550825
F50	F	0.807593	0.135732	0.178152
H51	H	0.961564	-0.371561	-0.000010
F52	F	1.182005	-0.001941	0.449173
H53	H	0.626408	0.132095	-0.156582
H54	H	0.966014	0.247657	0.436711
F55	F	0.807628	0.135725	-0.178168
H56	H	0.507701	0.129727	0.156578
H57	H	1.168120	0.014161	0.744088
H58	H	0.966050	0.247677	0.744078
F59	F	0.326514	0.126103	-0.178159
H60	H	0.966024	0.247669	0.563283
F61	F	0.952068	0.263744	0.243451
H62	H	0.338172	0.126330	0.156580
