data_functionalizedCrystal
_audit_creation_method	'MofGen! by Chris Wilmer'
_symmetry_space_group_name_H-M	'P1'
_symmetry_Int_Tables_number	1
_symmetry_cell_setting	triclinic
loop_
_symmetry_equiv_pos_as_xyz
  x,y,z
_cell_length_a	25.639242
_cell_length_b	25.639239
_cell_length_c	25.639234
_cell_angle_alpha	90.024905
_cell_angle_beta	90.030783
_cell_angle_gamma	90.033712
loop_
_atom_site_label
_atom_site_type_symbol
_atom_site_fract_x
_atom_site_fract_y
_atom_site_fract_z
Zn1	Zn	-0.799262	0.208252	-0.295762
Zn2	Zn	-0.299262	0.708252	0.204238
Zn3	Zn	-0.799175	0.295680	-0.208327
Zn4	Zn	-0.299175	0.795680	0.291673
Zn5	Zn	-0.711828	0.208253	-0.208324
Zn6	Zn	-0.211828	0.708253	0.291676
Zn7	Zn	-0.711784	0.295651	-0.295714
Zn8	Zn	-0.211784	0.795651	0.204286
O9	O	-0.755512	0.251959	-0.252032
O10	O	-0.255512	0.751959	0.247968
O11	O	-0.872416	0.219861	-0.284185
O12	O	-0.372416	0.719861	0.215815
O13	O	-0.787570	0.284096	-0.135161
O14	O	-0.287570	0.784096	0.364839
O15	O	-0.723481	0.135088	-0.219942
O16	O	-0.223481	0.635088	0.280058
O17	O	-0.872351	0.284095	-0.219946
O18	O	-0.372351	0.784095	0.280054
O19	O	-0.787719	0.135087	-0.284182
O20	O	-0.287719	0.635087	0.215818
O21	O	-0.723396	0.219863	-0.135159
O22	O	-0.223396	0.719863	0.364841
O23	O	-0.638656	0.219835	-0.219896
O24	O	-0.138656	0.719835	0.280104
O25	O	-0.723406	0.284044	-0.368886
O26	O	-0.223406	0.784044	0.131114
O27	O	-0.638624	0.284045	-0.284101
O28	O	-0.138624	0.784045	0.215899
O29	O	-0.787676	0.219833	-0.368921
O30	O	-0.287676	0.719833	0.131079
O31	O	-0.787527	0.368841	-0.219900
O32	O	-0.287527	0.868841	0.280100
O33	O	-0.723321	0.368820	-0.284103
O34	O	-0.223321	0.868820	0.215897
C35	C	-0.619669	0.251937	-0.251993
C36	C	-0.119669	0.751937	0.248007
C37	C	-0.561555	0.251940	-0.251989
C38	C	-0.061555	0.751940	0.248011
C39	C	-0.755546	0.251935	-0.388405
C40	C	-0.255546	0.751935	0.111595
C41	C	-0.755560	0.251925	-0.446519
C42	C	-0.255560	0.751925	0.053481
C43	C	-0.755424	0.387801	-0.252008
C44	C	-0.255424	0.887801	0.247992
C45	C	-0.755434	0.445916	-0.252015
C46	C	-0.255434	0.945916	0.247985
C47	C	-0.201184	0.285444	-0.285418
C48	C	0.298816	0.785444	0.214582
C49	C	-0.146580	0.285447	-0.285425
C50	C	0.353420	0.785447	0.214575
O51	O	-0.118337	0.313910	-0.313824
O52	O	0.381663	0.813910	0.186176
N53	N	-0.119273	0.251968	-0.252050
N54	N	0.380727	0.751968	0.247950
C55	C	-0.146573	0.218480	-0.218670
C56	C	0.353427	0.718480	0.281330
O57	O	-0.118332	0.190003	-0.190283
O58	O	0.381668	0.690003	0.309717
C59	C	-0.201176	0.218475	-0.218666
C60	C	0.298824	0.718475	0.281334
C61	C	-0.228481	0.251960	-0.252039
C62	C	0.271519	0.751960	0.247961
C63	C	-0.228489	0.318927	-0.318789
C64	C	0.271511	0.818927	0.181211
C65	C	-0.283089	0.318924	-0.318781
C66	C	0.216911	0.818924	0.181219
C67	C	-0.310385	0.285440	-0.285402
C68	C	0.189615	0.785440	0.214598
C69	C	-0.283081	0.251958	-0.252032
C70	C	0.216919	0.751958	0.247968
C71	C	-0.228475	0.184984	-0.185289
C72	C	0.271525	0.684984	0.314711
C73	C	-0.283082	0.184982	-0.185288
C74	C	0.216918	0.684982	0.314712
C75	C	-0.310387	0.218467	-0.218662
C76	C	0.189613	0.718467	0.281338
C77	C	-0.364978	0.218471	-0.218645
C78	C	0.135022	0.718471	0.281355
N79	N	-0.392285	0.251951	-0.252020
N80	N	0.107715	0.751951	0.247980
C81	C	-0.364989	0.285435	-0.285399
C82	C	0.135011	0.785435	0.214601
C83	C	-0.031902	0.218492	-0.218681
C84	C	0.468098	0.718492	0.281319
C85	C	0.022700	0.218499	-0.218682
C86	C	0.522700	0.718499	0.281318
C87	C	0.022689	0.285466	-0.285438
C88	C	0.522689	0.785466	0.214562
C89	C	-0.031914	0.285461	-0.285434
C90	C	0.468086	0.785461	0.214566
C91	C	-0.059209	0.251971	-0.252056
C92	C	0.440791	0.751971	0.247944
C93	C	-0.479654	0.285428	-0.285380
C94	C	0.020346	0.785428	0.214620
C95	C	-0.534259	0.285425	-0.285367
C96	C	-0.034259	0.785425	0.214633
C97	C	-0.534244	0.218456	-0.218614
C98	C	-0.034244	0.718456	0.281386
C99	C	-0.479643	0.218461	-0.218624
C100	C	0.020357	0.718461	0.281376
C101	C	-0.452349	0.251949	-0.252011
C102	C	0.047651	0.751949	0.247989
O103	O	-0.393256	0.190021	-0.190262
O104	O	0.106744	0.690021	0.309738
O105	O	-0.393236	0.313902	-0.313786
O106	O	0.106764	0.813902	0.186214
C107	C	0.108115	0.251979	-0.252065
C108	C	0.608115	0.751979	0.247935
C109	C	0.050001	0.251982	-0.252063
C110	C	0.550001	0.751982	0.247937
C111	C	-0.755614	0.115586	-0.252067
C112	C	-0.255614	0.615586	0.247933
C113	C	-0.755658	0.057472	-0.252082
C114	C	-0.255658	0.557472	0.247918
C115	C	-0.789031	0.806277	-0.218658
C116	C	-0.289031	1.306277	0.281342
C117	C	-0.789051	0.860882	-0.218665
C118	C	-0.289051	1.360882	0.281335
O119	O	-0.817526	0.889117	-0.190277
O120	O	-0.317526	1.389117	0.309723
N121	N	-0.755604	0.888198	-0.252066
N122	N	-0.255604	1.388198	0.247934
C123	C	-0.722138	0.860907	-0.285467
C124	C	-0.222138	1.360907	0.214533
O125	O	-0.693690	0.889156	-0.313878
O126	O	-0.193690	1.389156	0.186122
C127	C	-0.722120	0.806304	-0.285462
C128	C	-0.222120	1.306304	0.214538
C129	C	-0.755566	0.778990	-0.252055
C130	C	-0.255566	1.278990	0.247945
C131	C	-0.822475	0.778964	-0.185254
C132	C	-0.322475	1.278964	0.314746
C133	C	-0.822454	0.724363	-0.185246
C134	C	-0.322454	1.224363	0.314754
C135	C	-0.788989	0.697076	-0.218643
C136	C	-0.288989	1.197076	0.281357
C137	C	-0.755545	0.724390	-0.252047
C138	C	-0.255545	1.224390	0.247953
C139	C	-0.688657	0.779014	-0.318865
C140	C	-0.188657	1.279014	0.181135
C141	C	-0.688643	0.724407	-0.318857
C142	C	-0.188643	1.224407	0.181143
C143	C	-0.722089	0.697094	-0.285450
C144	C	-0.222089	1.197094	0.214550
C145	C	-0.722059	0.642502	-0.285436
C146	C	-0.222059	1.142502	0.214564
N147	N	-0.755507	0.615186	-0.252035
N148	N	-0.255507	1.115186	0.247965
C149	C	-0.788972	0.642473	-0.218638
C150	C	-0.288972	1.142473	0.281362
C151	C	-0.722177	0.975578	-0.285475
C152	C	-0.222177	1.475578	0.214525
C153	C	-0.722191	1.030180	-0.285477
C154	C	-0.222191	1.530180	0.214523
C155	C	-0.789106	1.030151	-0.218676
C156	C	-0.289106	1.530151	0.281324
C157	C	-0.789089	0.975547	-0.218671
C158	C	-0.289089	1.475547	0.281329
C159	C	-0.755625	0.948261	-0.252073
C160	C	-0.255625	1.448261	0.247927
C161	C	-0.788925	0.527808	-0.218625
C162	C	-0.288925	1.027808	0.281375
C163	C	-0.788899	0.473202	-0.218618
C164	C	-0.288899	0.973202	0.281382
C165	C	-0.721987	0.473237	-0.285421
C166	C	-0.221987	0.973237	0.214579
C167	C	-0.722010	0.527837	-0.285426
C168	C	-0.222010	1.027837	0.214574
C169	C	-0.755483	0.555121	-0.252026
C170	C	-0.255483	1.055121	0.247974
O171	O	-0.693601	0.614232	-0.313811
O172	O	-0.193601	1.114232	0.186189
O173	O	-0.817419	0.614218	-0.190236
O174	O	-0.317419	1.114218	0.309764
C175	C	-0.722160	0.218417	-0.806887
C176	C	-0.222160	0.718417	-0.306887
C177	C	-0.722163	0.218407	-0.861491
C178	C	-0.222163	0.718407	-0.361491
O179	O	-0.693738	0.189975	-0.889732
O180	O	-0.193738	0.689975	-0.389732
N181	N	-0.755578	0.251843	-0.888802
N182	N	-0.255578	0.751843	-0.388802
C183	C	-0.788989	0.285294	-0.861505
C184	C	-0.288989	0.785294	-0.361505
O185	O	-0.817411	0.313733	-0.889749
O186	O	-0.317411	0.813733	-0.389749
C187	C	-0.788983	0.285306	-0.806902
C188	C	-0.288983	0.785306	-0.306902
C189	C	-0.755569	0.251864	-0.779594
C190	C	-0.255569	0.751864	-0.279594
C191	C	-0.688749	0.184978	-0.779579
C192	C	-0.188749	0.684978	-0.279579
C193	C	-0.688747	0.184987	-0.724978
C194	C	-0.188747	0.684987	-0.224978
C195	C	-0.722156	0.218435	-0.697686
C196	C	-0.222156	0.718435	-0.197686
C197	C	-0.755567	0.251873	-0.724993
C198	C	-0.255567	0.751873	-0.224993
C199	C	-0.822390	0.318759	-0.779606
C200	C	-0.322390	0.818759	-0.279606
C201	C	-0.822381	0.318768	-0.724999
C202	C	-0.322381	0.818768	-0.224999
C203	C	-0.788968	0.285326	-0.697691
C204	C	-0.288968	0.785326	-0.197691
C205	C	-0.788974	0.285329	-0.643100
C206	C	-0.288974	0.785329	-0.143100
N207	N	-0.755559	0.251894	-0.615789
N208	N	-0.255559	0.751894	-0.115789
C209	C	-0.722150	0.218446	-0.643082
C210	C	-0.222150	0.718446	-0.143082
C211	C	-0.788998	0.285267	-0.976176
C212	C	-0.288998	0.785267	-0.476176
C213	C	-0.789006	0.285253	-1.030778
C214	C	-0.289006	0.785253	-0.530778
C215	C	-0.722180	0.218367	-1.030760
C216	C	-0.222180	0.718367	-0.530760
C217	C	-0.722174	0.218379	-0.976157
C218	C	-0.222174	0.718379	-0.476157
C219	C	-0.755583	0.251832	-0.948865
C220	C	-0.255583	0.751832	-0.448865
C221	C	-0.722149	0.218467	-0.528417
C222	C	-0.222149	0.718467	-0.028417
C223	C	-0.722151	0.218478	-0.473812
C224	C	-0.222151	0.718478	0.026188
C225	C	-0.788976	0.285365	-0.473834
C226	C	-0.288976	0.785365	0.026166
C227	C	-0.788975	0.285353	-0.528435
C228	C	-0.288975	0.785353	-0.028435
C229	C	-0.755558	0.251902	-0.555725
C230	C	-0.255558	0.751902	-0.055725
O231	O	-0.817383	0.313748	-0.614825
O232	O	-0.317383	0.813748	-0.114825
O233	O	-0.693728	0.190017	-0.614832
O234	O	-0.193728	0.690017	-0.114832
C235	C	-0.755508	0.251945	-0.116189
C236	C	-0.255508	0.751945	0.383811
C237	C	-0.755595	0.251808	-0.058076
C238	C	-0.255595	0.751808	0.441924
H239	H	-0.556488	0.312695	-0.312544
H240	H	-0.056488	0.812695	0.187456
Br241	Br	-0.676754	0.938552	-0.330807
Br242	Br	-0.176754	1.438552	0.169193
Br243	Br	-0.676574	0.436194	-0.330745
Br244	Br	-0.176574	0.936194	0.169255
H245	H	-0.457438	0.312696	-0.312568
H246	H	0.042562	0.812696	0.187432
Br247	Br	-0.643393	0.139588	-0.816609
Br248	Br	-0.143393	0.639588	-0.316609
H249	H	-0.054123	0.191221	-0.191497
H250	H	0.445877	0.691221	0.308503
Br251	Br	0.059749	0.173061	-0.173380
Br252	Br	0.559749	0.673061	0.326620
Br253	Br	-0.191454	0.364375	-0.364095
Br254	Br	0.308546	0.864375	0.135905
H255	H	-0.661393	0.702193	-0.346059
H256	H	-0.161393	1.202193	0.153941
H257	H	-0.816135	0.450965	-0.191412
H258	H	-0.316135	0.950965	0.308588
H259	H	-0.816183	0.550016	-0.191428
H260	H	-0.316183	1.050016	0.308572
Br261	Br	-0.191433	0.139534	-0.139997
Br262	Br	0.308567	0.639534	0.360003
Br263	Br	-0.676804	0.173088	-0.436754
Br264	Br	-0.176804	0.673088	0.063246
Br265	Br	-0.676606	0.564907	-0.330752
Br266	Br	-0.176606	1.064907	0.169248
Br267	Br	-0.068964	0.330907	-0.330728
Br268	Br	0.431036	0.830907	0.169272
Br269	Br	-0.676838	0.172974	-1.067811
Br270	Br	-0.176838	0.672974	-0.567811
H271	H	-0.556478	0.191196	-0.191436
H272	H	-0.056478	0.691196	0.308564
Br273	Br	-0.834481	0.938485	-0.173331
Br274	Br	-0.334481	1.438485	0.326669
Br275	Br	-0.867855	0.687303	-0.139913
Br276	Br	-0.367855	1.187303	0.360087
Br277	Br	-0.676791	1.067242	-0.330810
Br278	Br	-0.176791	1.567242	0.169190
H279	H	-0.694966	0.191148	-0.953927
H280	H	-0.194966	0.691148	-0.453927
H281	H	-0.849729	0.801175	-0.158058
H282	H	-0.349729	1.301175	0.341942
Br283	Br	-0.834363	0.330632	-1.067832
Br284	Br	-0.334363	0.830632	-0.567832
H285	H	-0.816189	0.312578	-0.550670
H286	H	-0.316189	0.812578	-0.050670
Br287	Br	-0.320137	0.364369	-0.364078
Br288	Br	0.179863	0.864369	0.135922
Br289	Br	0.059744	0.330905	-0.330742
Br290	Br	0.559744	0.830905	0.169258
Br291	Br	-0.676799	0.173066	-0.565445
Br292	Br	-0.176799	0.673066	-0.065445
H293	H	-0.816357	1.052378	-0.191485
H294	H	-0.316357	1.552378	0.308515
H295	H	-0.457411	0.191196	-0.191448
H296	H	0.042589	0.691196	0.308552
H297	H	-0.661419	0.801243	-0.346066
H298	H	-0.161419	1.301243	0.153934
H299	H	-0.661536	0.157758	-0.702749
H300	H	-0.161536	0.657758	-0.202749
Br301	Br	-0.320123	0.139527	-0.139989
Br302	Br	0.179877	0.639527	0.360011
Br303	Br	-0.834346	0.330668	-0.939142
Br304	Br	-0.334346	0.830668	-0.439142
H305	H	-0.849599	0.345991	-0.801831
H306	H	-0.349599	0.845991	-0.301831
Br307	Br	-0.867721	0.364173	-0.687963
Br308	Br	-0.367721	0.864173	-0.187963
Br309	Br	-0.834318	0.330752	-0.436784
Br310	Br	-0.334318	0.830752	0.063216
