data_functionalizedCrystal
_audit_creation_method	'MofGen! by Chris Wilmer'
_symmetry_space_group_name_H-M	'P1'
_symmetry_Int_Tables_number	1
_symmetry_cell_setting	triclinic
loop_
_symmetry_equiv_pos_as_xyz
  x,y,z
_cell_length_a	13.635800
_cell_length_b	10.943925
_cell_length_c	17.078481
_cell_angle_alpha	84.941579
_cell_angle_beta	99.306161
_cell_angle_gamma	71.155711
loop_
_atom_site_label
_atom_site_type_symbol
_atom_site_fract_x
_atom_site_fract_y
_atom_site_fract_z
V1	V	2.003476	-0.178331	0.247351
O2	O	1.983343	0.008880	0.242653
O3	O	1.992843	-0.353900	0.245648
O4	O	1.968779	-0.175452	0.355234
O5	O	2.007574	-0.170803	0.132309
V6	V	2.244892	-0.155955	0.233592
O7	O	2.134863	-0.227416	0.277531
O8	O	2.338605	-0.106870	0.203412
O9	O	2.143922	0.019613	0.235295
O10	O	2.323725	-0.343166	0.238290
O11	O	2.299494	-0.163483	0.348634
O12	O	2.167987	-0.158834	0.125709
V13	V	2.503476	-0.178331	0.247351
O14	O	2.483343	0.008880	0.242653
O15	O	2.492843	-0.353900	0.245648
O16	O	2.468779	-0.175452	0.355234
O17	O	2.507574	-0.170803	0.132309
V18	V	2.744892	-0.155955	0.233592
O19	O	2.634863	-0.227416	0.277531
O20	O	2.838605	-0.106870	0.203412
O21	O	2.643922	0.019613	0.235295
O22	O	2.823725	-0.343166	0.238290
O23	O	2.799494	-0.163483	0.348634
O24	O	2.667987	-0.158834	0.125709
C25	C	1.918983	-0.396704	0.241744
C26	C	1.950863	-0.540232	0.241071
C27	C	2.083814	-0.716961	0.244408
C28	C	2.003937	-0.611043	0.177026
C29	C	2.030335	-0.644237	0.308432
C30	C	1.927724	-0.690022	0.172430
C31	C	1.954150	-0.723238	0.303895
C32	C	1.874208	-0.617350	0.236494
C33	C	1.888286	-0.169075	0.381530
C34	C	1.900649	-0.167882	0.469725
C35	C	2.049454	0.062410	0.239197
C36	C	2.007193	0.205937	0.239875
C37	C	2.080151	-0.165216	0.099409
C38	C	2.057407	-0.166402	0.011213
C39	C	2.418983	-0.396704	0.241744
C40	C	2.450863	-0.540232	0.241071
C41	C	2.388286	-0.169075	0.381530
C42	C	2.400649	-0.167882	0.469725
C43	C	1.997621	-0.173767	0.515200
C44	C	2.009230	-0.172646	0.598068
C45	C	1.923869	-0.165649	0.635460
C46	C	1.826888	-0.159760	0.589979
C47	C	1.815278	-0.160872	0.507111
C48	C	1.948816	-0.161624	0.882864
C49	C	1.960435	-0.160517	0.965738
C50	C	2.142776	-0.173401	0.973822
C51	C	2.131159	-0.174520	0.890953
C52	C	2.034178	-0.168624	0.845478
N53	N	1.935735	-0.164507	0.720165
N54	N	2.022312	-0.169756	0.760774
C55	C	2.549454	0.062410	0.239197
C56	C	2.507193	0.205937	0.239875
C57	C	2.580151	-0.165216	0.099409
C58	C	2.557407	-0.166402	0.011213
C59	C	2.497626	-0.173755	0.515185
C60	C	2.509251	-0.172617	0.598053
C61	C	2.423901	-0.165617	0.635459
C62	C	2.326916	-0.159740	0.589992
C63	C	2.315289	-0.160868	0.507125
C64	C	2.460524	-0.173387	-0.026172
C65	C	2.439135	-0.174486	-0.109042
C66	C	2.514634	-0.168609	-0.154525
C67	C	2.611524	-0.161619	-0.117134
C68	C	2.632909	-0.160511	-0.034266
C69	C	2.374285	-0.617391	0.236556
C70	C	2.427766	-0.690117	0.172514
C71	C	2.454197	-0.723250	0.303922
C72	C	2.503914	-0.611054	0.176984
C73	C	2.530341	-0.644193	0.308449
C74	C	2.583880	-0.716881	0.244395
H75	H	2.172701	-0.760452	0.247664
H76	H	2.285368	-0.573911	0.233167
H77	H	2.399036	-0.178173	0.010849
H78	H	1.933474	-0.772120	0.357533
H79	H	2.497213	-0.169528	-0.221999
H80	H	2.672988	-0.156830	-0.154178
H81	H	2.384731	-0.710945	0.115035
H82	H	2.073412	-0.623465	0.365914
H83	H	2.200671	-0.180216	0.860514
H84	H	2.257428	-0.154041	0.620460
H85	H	2.024654	-0.562192	0.123393
H86	H	2.711804	-0.154830	-0.003833
H87	H	1.757385	-0.154055	0.620429
H88	H	1.736306	-0.156048	0.470083
H89	H	2.524612	-0.562350	0.123284
H90	H	2.573336	-0.623332	0.365929
H91	H	2.236318	-0.156089	0.470117
H92	H	1.785287	-0.574068	0.233132
H93	H	1.869861	-0.156869	0.845852
H94	H	2.360238	-0.180178	-0.139474
H95	H	2.067135	-0.179473	0.484763
H96	H	2.672790	-0.760103	0.247687
H97	H	2.433471	-0.772106	0.357550
H98	H	2.433383	-0.164700	0.702935
H99	H	2.567134	-0.179458	0.484741
H100	H	1.884645	-0.710629	0.114891
H101	H	2.588230	-0.177408	0.635062
H102	H	2.221734	-0.178199	1.010856
H103	H	2.088192	-0.177431	0.635090
H104	H	1.890917	-0.154815	0.996179
