data_functionalizedCrystal
_audit_creation_method	'MofGen! by Chris Wilmer'
_symmetry_space_group_name_H-M	'P1'
_symmetry_Int_Tables_number	1
_symmetry_cell_setting	triclinic
loop_
_symmetry_equiv_pos_as_xyz
  x,y,z
_cell_length_a	13.032831
_cell_length_b	14.908579
_cell_length_c	13.032268
_cell_angle_alpha	99.988225
_cell_angle_beta	89.113023
_cell_angle_gamma	93.475351
loop_
_atom_site_label
_atom_site_type_symbol
_atom_site_fract_x
_atom_site_fract_y
_atom_site_fract_z
Zn1	Zn	1.453320	0.608127	0.815740
Zn2	Zn	1.465099	0.742290	0.651461
Zn3	Zn	1.305972	0.570510	0.619822
Zn4	Zn	1.271709	0.737421	0.801307
O5	O	1.374025	0.664587	0.722083
O6	O	1.597483	0.643704	0.813230
O7	O	1.463260	0.705797	0.502561
O8	O	1.334927	0.449499	0.638611
O9	O	1.606137	0.742273	0.692535
O10	O	1.443183	0.477136	0.782551
O11	O	1.346349	0.579591	0.479316
O12	O	1.158827	0.574870	0.624615
O13	O	1.276531	0.733975	0.947925
O14	O	1.133654	0.697499	0.757951
O15	O	1.409960	0.638983	0.958529
O16	O	1.430036	0.867645	0.678539
O17	O	1.287953	0.864068	0.788630
C18	C	1.109265	0.631575	0.686284
C19	C	0.995995	0.617477	0.670995
C20	C	1.356580	0.898532	0.735478
C21	C	1.349205	0.998630	0.741256
C22	C	0.933074	0.671945	0.730062
C23	C	0.816003	0.657375	0.714262
C24	C	1.483419	1.190415	0.637600
C25	C	1.476493	1.284466	0.643025
C26	C	1.328435	1.280786	0.757538
C27	C	1.335360	1.186735	0.752113
C28	C	1.412854	1.141552	0.692140
C29	C	1.419774	1.047499	0.686709
C30	C	1.271720	1.043821	0.801227
C31	C	1.264795	1.137872	0.806653
C32	C	1.639818	0.697728	0.758022
C33	C	1.753084	0.711850	0.773337
C34	C	1.391555	1.429734	0.708674
C35	C	1.399003	1.329654	0.702991
C36	C	1.338110	0.690132	0.991796
C37	C	1.322805	0.701018	1.106732
C38	C	1.409864	0.639083	0.453423
C39	C	1.425385	0.627968	0.338500
C40	C	1.381999	0.658871	1.163221
C41	C	1.366183	0.670121	1.282013
H42	H	0.965876	0.729361	0.792332
H43	H	0.963193	0.560055	0.608733
C44	C	1.281900	0.730127	1.335473
H45	H	1.282331	0.729823	1.408302
H46	H	1.216746	0.706760	1.307814
H47	H	1.294641	0.790829	1.323297
H48	H	0.783206	0.599949	0.651995
H49	H	1.533956	1.324247	0.598615
H50	H	1.260411	0.745423	1.146314
H51	H	0.785879	0.769268	0.835614
H52	H	1.265350	1.317591	0.806373
H53	H	1.482870	1.010712	0.637873
H54	H	1.546511	1.153625	0.588759
C55	C	1.194089	0.990074	0.861221
H56	H	1.146942	1.030455	0.897705
H57	H	1.229723	0.962457	0.909456
H58	H	1.157691	0.944158	0.813498
C59	C	1.179556	1.187577	0.872612
H60	H	1.185532	1.250587	0.868027
H61	H	1.186284	1.180562	0.943220
H62	H	1.114254	1.162249	0.847261
C63	C	1.466284	0.598875	1.109758
H64	H	1.465863	0.599190	1.036930
H65	H	1.453560	0.538177	1.121934
H66	H	1.531437	0.622258	1.137419
C67	C	1.509673	0.567966	1.285043
H68	H	1.509253	0.568279	1.212215
H69	H	1.496946	0.507269	1.297222
H70	H	1.574827	0.591348	1.312704
