data_functionalizedCrystal
_audit_creation_method	'MofGen! by Chris Wilmer'
_symmetry_space_group_name_H-M	'P1'
_symmetry_Int_Tables_number	1
_symmetry_cell_setting	triclinic
loop_
_symmetry_equiv_pos_as_xyz
  x,y,z
_cell_length_a	10.723024
_cell_length_b	10.489741
_cell_length_c	9.798715
_cell_angle_alpha	89.997135
_cell_angle_beta	89.996609
_cell_angle_gamma	84.503522
loop_
_atom_site_label
_atom_site_type_symbol
_atom_site_fract_x
_atom_site_fract_y
_atom_site_fract_z
O1	O	1.657297	0.178906	-0.113481
O2	O	1.294155	0.196031	-0.113486
O3	O	1.483989	0.001865	-0.113475
O4	O	1.467463	0.373072	-0.113492
O5	O	1.483975	0.001865	0.113507
O6	O	1.294141	0.196030	0.113496
O7	O	1.657283	0.178906	0.113501
Zn8	Zn	1.475709	0.187468	0.149537
Zn9	Zn	1.475728	0.187469	-0.149522
O10	O	1.467448	0.373071	0.113490
C11	C	1.247647	0.194785	0.000005
C12	C	1.109091	0.191056	0.000003
C13	C	1.034175	0.299701	-0.000003
C14	C	0.890969	0.295850	-0.000004
C15	C	1.482734	-0.045666	0.000015
C16	C	1.478999	-0.187293	0.000012
C17	C	1.358213	-0.255356	0.000001
C18	C	1.415265	-0.347515	0.111915
C19	C	1.415307	-0.347489	-0.111871
C20	C	1.536100	-0.277587	0.112019
C21	C	1.536126	-0.277551	-0.111868
C22	C	1.593265	-0.369683	0.000074
C23	C	1.703790	0.180152	0.000007
C24	C	1.842347	0.183881	-0.000000
C25	C	1.468704	0.420602	-0.000003
C26	C	1.472438	0.562229	-0.000009
N27	N	1.475706	0.187467	0.353637
N28	N	1.475742	0.187460	-0.353622
C29	C	1.555412	0.105583	0.421418
C30	C	1.555432	0.105578	0.578581
H31	H	0.826593	0.388858	-0.000015
H32	H	1.623632	0.035476	0.363099
O33	O	0.919077	0.072876	-0.000238
C34	C	0.895754	0.001351	-0.117773
H35	H	0.851798	0.068256	-0.199940
H36	H	0.987696	-0.048883	-0.157232
H37	H	0.828910	-0.073155	-0.091190
H38	H	1.076055	0.395567	0.000001
O39	O	1.354093	-0.384398	0.224689
C40	C	1.230212	-0.325615	0.224312
H41	H	1.201504	-0.298156	0.115404
H42	H	1.164485	-0.395201	0.266585
H43	H	1.224471	-0.235956	0.290640
H44	H	1.067210	0.095190	-0.000028
H45	H	1.258904	-0.205641	0.000112
O46	O	1.597130	-0.240717	0.224884
C47	C	1.702464	-0.179006	0.184953
H48	H	1.687810	-0.140022	0.076950
H49	H	1.715229	-0.096656	0.257974
H50	H	1.789529	-0.250434	0.187647
H51	H	1.407476	0.257563	0.411957
O52	O	1.711863	-0.428676	0.000385
C53	C	1.775060	-0.393003	0.118520
H54	H	1.703708	-0.360360	0.200619
H55	H	1.838681	-0.478534	0.157579
H56	H	1.833893	-0.311270	0.092889
O57	O	1.636788	0.021763	0.647960
C58	C	1.615021	-0.104635	0.613181
H59	H	1.566988	-0.104878	0.509409
H60	H	1.708114	-0.166838	0.608423
H61	H	1.552364	-0.144399	0.693584
O62	O	1.354161	-0.384236	-0.224710
C63	C	1.230265	-0.325491	-0.224262
H64	H	1.225085	-0.235340	-0.158741
H65	H	1.200599	-0.298856	-0.333101
H66	H	1.164926	-0.394774	-0.180586
O67	O	1.596870	-0.240578	-0.224883
C68	C	1.532892	-0.275839	-0.342653
H69	H	1.431058	-0.286998	-0.315841
H70	H	1.536637	-0.198475	-0.423864
H71	H	1.579245	-0.370555	-0.383487
H72	H	1.407503	0.257572	0.588098
