data_functionalizedCrystal
_audit_creation_method	'MofGen! by Chris Wilmer'
_symmetry_space_group_name_H-M	'P1'
_symmetry_Int_Tables_number	1
_symmetry_cell_setting	triclinic
loop_
_symmetry_equiv_pos_as_xyz
  x,y,z
_cell_length_a	10.489741
_cell_length_b	9.065215
_cell_length_c	7.540329
_cell_angle_alpha	90.002218
_cell_angle_beta	89.996684
_cell_angle_gamma	95.223031
loop_
_atom_site_label
_atom_site_type_symbol
_atom_site_fract_x
_atom_site_fract_y
_atom_site_fract_z
O1	O	0.187026	-1.959497	-0.147452
O2	O	0.202372	-1.530138	-0.147462
O3	O	0.009136	-1.754587	-0.147446
O4	O	0.380262	-1.735047	-0.147468
O5	O	0.009134	-1.754574	0.147519
O6	O	0.202370	-1.530124	0.147503
O7	O	0.187024	-1.959484	0.147513
Cu8	Cu	0.194696	-1.744803	0.174440
Cu9	Cu	0.194699	-1.744818	-0.174390
O10	O	0.380259	-1.735034	0.147497
C11	C	0.200897	-1.475151	0.000019
C12	C	0.196489	-1.311329	0.000016
C13	C	-0.038402	-1.753105	0.000035
C14	C	-0.180047	-1.748689	0.000032
C15	C	-0.248702	-1.605879	0.000015
C16	C	-0.340582	-1.673334	0.145450
C17	C	-0.340554	-1.673381	-0.145362
C18	C	-0.270062	-1.816204	0.145586
C19	C	-0.270025	-1.816231	-0.145357
C20	C	-0.361878	-1.883791	0.000113
C21	C	0.427797	-1.736516	0.000012
C22	C	0.569443	-1.740932	0.000003
N23	N	0.194694	-1.744802	0.419789
C24	C	0.188499	-1.014470	0.000026
C25	C	0.192906	-1.178292	0.000015
N26	N	0.194692	-1.744831	-0.419738
H27	H	-0.371813	-1.612902	0.268402
H28	H	-0.410878	-2.001314	0.000197
C29	C	-0.382352	-1.593029	-0.309373
C30	C	-0.465543	-1.689326	-0.409976
C31	C	-0.504080	-1.615342	-0.561051
H32	H	-0.309359	-1.560871	-0.378504
H33	H	-0.425079	-1.509684	-0.274472
H34	H	-0.422815	-1.772645	-0.444880
H35	H	-0.538554	-1.721489	-0.340898
H36	H	-0.546807	-1.531996	-0.526150
H37	H	-0.431080	-1.583187	-0.630168
H38	H	-0.560538	-1.680663	-0.629321
H39	H	-0.238762	-1.876612	-0.268315
C40	C	-0.183118	-1.449290	0.000562
C41	C	-0.218676	-1.375195	0.153194
C42	C	-0.158271	-1.230955	0.153778
H43	H	-0.208217	-1.397867	-0.101588
H44	H	-0.092914	-1.453133	-0.000397
H45	H	-0.308861	-1.371344	0.154136
H46	H	-0.193575	-1.426573	0.255369
H47	H	-0.068066	-1.234799	0.152820
H48	H	-0.183375	-1.179546	0.051622
H49	H	-0.182379	-1.180668	0.257345
C50	C	-0.228414	-1.896585	0.309658
C51	C	-0.095217	-1.899700	0.307818
C52	C	-0.056800	-1.973710	0.458942
H53	H	-0.268046	-1.995067	0.310237
H54	H	-0.253058	-1.846172	0.412852
H55	H	-0.070585	-1.950116	0.204651
H56	H	-0.055553	-1.801239	0.307266
H57	H	-0.081444	-1.923297	0.562136
H58	H	-0.096440	-2.072187	0.459508
H59	H	0.033578	-1.975821	0.457722
