data_functionalizedCrystal
_audit_creation_method	'MofGen! by Chris Wilmer'
_symmetry_space_group_name_H-M	'P1'
_symmetry_Int_Tables_number	1
_symmetry_cell_setting	triclinic
loop_
_symmetry_equiv_pos_as_xyz
  x,y,z
_cell_length_a	6.817900
_cell_length_b	19.452420
_cell_length_c	25.601691
_cell_angle_alpha	99.061182
_cell_angle_beta	90.315674
_cell_angle_gamma	101.696715
loop_
_atom_site_label
_atom_site_type_symbol
_atom_site_fract_x
_atom_site_fract_y
_atom_site_fract_z
V1	V	-3.874846	-0.098838	-0.163311
O2	O	-3.874542	0.003049	-0.159939
O3	O	-3.818468	-0.194344	-0.162447
O4	O	-3.764267	-0.098064	-0.234420
O5	O	-3.929118	-0.093898	-0.087467
V6	V	-4.367565	-0.086563	-0.154208
O7	O	-4.115933	-0.125765	-0.183277
O8	O	-4.576676	-0.059637	-0.134242
O9	O	-4.200737	0.008942	-0.155072
O10	O	-4.485267	-0.188450	-0.157580
O11	O	-4.430691	-0.091504	-0.230052
O12	O	-4.254939	-0.087337	-0.083098
C13	C	-3.663539	-0.217603	-0.159936
C14	C	-3.698316	-0.295685	-0.159704
C15	C	-3.585065	-0.094800	-0.310972
C16	C	-3.594400	-0.094794	-0.251744
V17	V	-3.836385	-0.098868	-0.407059
O18	O	-3.866730	-0.093940	-0.482857
O19	O	-3.748669	-0.098081	-0.333262
O20	O	-3.776549	-0.194375	-0.428058
O21	O	-3.838657	0.003020	-0.387405
V22	V	-4.324714	-0.086600	-0.425803
O23	O	-4.081839	-0.125794	-0.399342
O24	O	-4.527665	-0.059679	-0.444894
O25	O	-4.190112	-0.087384	-0.493959
O26	O	-4.411298	-0.091529	-0.352970
O27	O	-4.439372	-0.188489	-0.448422
O28	O	-4.162232	0.008909	-0.399164
C29	C	-3.717316	-0.321827	-0.111670
C30	C	-3.750077	-0.395191	-0.111436
C31	C	-3.763797	-0.442411	-0.159237
C32	C	-3.744804	-0.416261	-0.207277
C33	C	-3.712063	-0.342898	-0.207510
N34	N	-3.701157	-0.563200	-0.192903
N35	N	-3.732255	-0.632891	-0.192678
C36	C	-3.862446	-0.663449	-0.158538
N37	N	-3.960341	-0.621681	-0.124623
N38	N	-3.929231	-0.551984	-0.124846
C39	C	-3.799299	-0.521961	-0.158990
C40	C	-3.916973	-0.769141	-0.110247
C41	C	-3.949747	-0.842507	-0.110015
C42	C	-3.944453	-0.863575	-0.205857
C43	C	-3.911700	-0.790210	-0.206088
C44	C	-3.897952	-0.742997	-0.158282
C45	C	-4.019009	0.032198	-0.157582
C46	C	-3.963468	0.110279	-0.157817
C47	C	-4.088149	-0.090616	-0.065771
C48	C	-4.076569	-0.090614	-0.007637
C49	C	-3.620615	-0.217629	-0.431894
C50	C	-3.652391	-0.295711	-0.450637
C51	C	-4.018410	-0.090662	-0.507740
C52	C	-3.988563	-0.090672	-0.565352
C53	C	-3.895885	-0.094153	0.017001
C54	C	-3.885007	-0.094155	0.071624
C55	C	-4.054834	-0.090632	0.101607
C56	C	-4.235539	-0.087088	0.076963
C57	C	-4.246407	-0.087079	0.022342
N58	N	-4.197654	-0.128233	0.184581
N59	N	-4.187320	-0.128244	0.236469
C60	C	-4.022100	-0.090658	0.266179
N61	N	-3.867583	-0.053070	0.242039
N62	N	-3.877915	-0.053063	0.190146
C63	C	-4.043069	-0.090641	0.160835
C64	C	-3.829608	-0.094199	0.350045
C65	C	-3.818734	-0.094196	0.404670
C66	C	-4.169277	-0.087136	0.410007
C67	C	-4.180141	-0.087132	0.355384
C68	C	-4.010303	-0.090666	0.325406
C69	C	-3.982847	0.032171	-0.386820
C70	C	-3.930393	0.110255	-0.367557
C71	C	-3.846805	-0.335988	-0.462183
C72	C	-3.876688	-0.409354	-0.479802
C73	C	-3.712156	-0.442442	-0.485871
C74	C	-3.517726	-0.402159	-0.474326
C75	C	-3.487845	-0.328794	-0.456710
C76	C	-3.731915	0.143330	-0.352290
C77	C	-3.682596	0.216699	-0.334197
C78	C	-3.831761	0.256991	-0.331366
C79	C	-4.030254	0.223912	-0.346635
C80	C	-4.079567	0.150545	-0.364732
H81	H	-3.706137	-0.283390	-0.072743
H82	H	-3.671593	-0.097076	0.424729
H83	H	-3.610430	0.110533	-0.354595
H84	H	-3.765545	-0.416481	-0.072320
H85	H	-3.757588	-0.097030	-0.007404
Br86	Br	-3.639769	-0.098950	0.105070
H87	H	-3.520965	0.243621	-0.321765
H88	H	-4.035015	-0.442142	-0.489199
Br89	Br	-3.752746	-0.542011	-0.509778
H90	H	-4.151690	0.256729	-0.344328
H91	H	-4.241191	0.123621	-0.377159
H92	H	-3.905778	-0.730697	-0.071320
Br93	Br	-3.764800	0.356562	-0.306804
H94	H	-4.373813	-0.084220	0.101378
Br95	Br	-3.763443	-0.480343	-0.272151
H96	H	-3.965230	-0.863789	-0.070900
Br97	Br	-3.686277	-0.307417	-0.272704
H98	H	-4.327275	-0.084253	0.335324
H99	H	-3.896214	-0.768926	-0.245202
Br100	Br	-3.963101	-0.927651	-0.270732
H101	H	-3.383774	-0.429111	-0.479270
H102	H	-3.329530	-0.296006	-0.447308
H103	H	-4.393546	-0.084197	0.002283
Br104	Br	-3.599119	-0.098991	0.309357
H105	H	-3.980800	-0.309058	-0.457242
H106	H	-4.307556	-0.084271	0.434418
