data_functionalizedCrystal
_audit_creation_method	'MofGen! by Chris Wilmer'
_symmetry_space_group_name_H-M	'P1'
_symmetry_Int_Tables_number	1
_symmetry_cell_setting	triclinic
loop_
_symmetry_equiv_pos_as_xyz
  x,y,z
_cell_length_a	14.971482
_cell_length_b	15.995350
_cell_length_c	14.048226
_cell_angle_alpha	89.995798
_cell_angle_beta	89.994098
_cell_angle_gamma	83.552491
loop_
_atom_site_label
_atom_site_type_symbol
_atom_site_fract_x
_atom_site_fract_y
_atom_site_fract_z
O1	O	1.186824	0.109101	-0.079143
O2	O	1.686824	0.609101	0.420857
O3	O	0.926409	0.122172	-0.079147
O4	O	1.426409	0.622172	0.420853
O5	O	1.063735	-0.006244	-0.079144
O6	O	1.563735	0.493756	0.420856
O7	O	1.049498	0.237517	-0.079146
O8	O	1.549498	0.737517	0.420854
O9	O	1.063719	-0.006252	0.079177
O10	O	1.563719	0.493748	0.579177
O11	O	0.926392	0.122164	0.079174
O12	O	1.426392	0.622164	0.579174
O13	O	1.186808	0.109094	0.079178
O14	O	1.686808	0.609094	0.579178
Zn15	Zn	1.056598	0.115628	0.104313
Zn16	Zn	1.556598	0.615628	0.604313
Zn17	Zn	1.056619	0.115638	-0.104282
Zn18	Zn	1.556619	0.615638	0.395718
O19	O	1.049482	0.237510	0.079175
O20	O	1.549482	0.737510	0.579175
C21	C	0.893077	0.121584	0.000013
C22	C	1.393077	0.621584	0.500013
C23	C	0.793781	0.119834	0.000011
C24	C	1.293781	0.619834	0.500011
C25	C	0.747129	0.119006	0.086313
C26	C	1.247129	0.619006	0.586313
C27	C	0.653832	0.117348	0.086314
C28	C	1.153832	0.617348	0.586314
C29	C	0.607189	0.116525	0.000012
C30	C	1.107189	0.616525	0.500012
C31	C	0.653849	0.117351	-0.086297
C32	C	1.153849	0.617351	0.413703
C33	C	0.747144	0.119002	-0.086297
C34	C	1.247144	0.619002	0.413703
C35	C	0.459391	0.113910	-0.086291
C36	C	0.959391	0.613910	0.413709
C37	C	0.366088	0.112260	-0.086291
C38	C	0.866088	0.612260	0.413709
C39	C	0.366078	0.112256	0.086320
C40	C	0.866078	0.612256	0.586320
C41	C	0.459374	0.113907	0.086320
C42	C	0.959374	0.613907	0.586320
C43	C	0.506027	0.114735	0.000011
C44	C	1.006027	0.614735	0.500011
C45	C	1.063138	-0.037443	0.000014
C46	C	1.563138	0.462557	0.500014
C47	C	1.061374	-0.130395	0.000009
C48	C	1.561374	0.369605	0.500009
C49	C	1.055037	-0.468149	0.000012
C50	C	1.555037	0.031851	0.500012
C51	C	0.957235	-0.420812	-0.000345
C52	C	1.457235	0.079188	0.499655
C53	C	0.959000	-0.324120	0.000012
C54	C	1.459000	0.175880	0.500012
C55	C	1.058180	-0.300585	0.000010
C56	C	1.558180	0.199415	0.500010
C57	C	1.106410	-0.341620	0.090418
C58	C	1.606410	0.158380	0.590418
C59	C	1.103953	-0.438258	0.090494
C60	C	1.603953	0.061742	0.590494
C61	C	1.105992	-0.438605	-0.089547
C62	C	1.605992	0.061395	0.410453
C63	C	1.105969	-0.341660	-0.090742
C64	C	1.605969	0.158340	0.409258
C65	C	1.059962	-0.205886	0.000012
C66	C	1.559962	0.294114	0.500012
C67	C	1.053258	-0.562849	0.000016
C68	C	1.553258	-0.062849	0.500016
C69	C	1.220140	0.109682	0.000016
C70	C	1.720140	0.609682	0.500016
C71	C	1.319436	0.111432	0.000011
C72	C	1.819436	0.611432	0.500011
C73	C	1.050078	0.268709	0.000014
C74	C	1.550078	0.768709	0.500014
C75	C	1.051843	0.361661	0.000013
C76	C	1.551843	0.861661	0.500013
N77	N	1.056589	0.115620	0.246673
N78	N	1.556589	0.615620	0.746673
N79	N	1.056635	0.115638	-0.246643
N80	N	1.556635	0.615638	0.253357
C81	C	1.117416	0.058781	0.296493
C82	C	1.617416	0.558781	0.796493
C83	C	1.117422	0.058781	0.396150
C84	C	1.617422	0.558781	0.896150
C85	C	1.056605	0.115624	0.445987
C86	C	1.556605	0.615624	0.945987
C87	C	0.995771	0.172466	0.396161
C88	C	1.495771	0.672466	0.896161
C89	C	0.995762	0.172462	0.296505
C90	C	1.495762	0.672462	0.796505
C91	C	0.995797	0.172472	0.603875
C92	C	1.495797	0.672472	1.103875
C93	C	0.995808	0.172477	0.703538
C94	C	1.495808	0.672477	1.203538
C95	C	1.117458	0.058791	0.703521
C96	C	1.617458	0.558791	1.203521
C97	C	1.117448	0.058787	0.603865
C98	C	1.617448	0.558787	1.103865
C99	C	1.056615	0.115630	0.554045
C100	C	1.556615	0.615630	1.054045
H101	H	0.785128	0.119678	-0.156573
H102	H	1.285128	0.619678	0.343427
H103	H	1.166975	0.012505	0.563288
H104	H	1.666975	0.512505	1.063288
Br105	Br	0.590519	0.116238	0.203443
Br106	Br	1.090519	0.616238	0.703443
Br107	Br	0.522674	0.115038	0.203445
Br108	Br	1.022674	0.615038	0.703445
Br109	Br	0.302765	0.111137	0.203454
Br110	Br	0.802765	0.611137	0.703454
Br111	Br	0.892087	-0.451753	-0.108408
Br112	Br	1.392087	0.048247	0.391592
Br113	Br	1.045309	-0.468829	0.203134
Br114	Br	1.545309	0.031171	0.703134
H115	H	1.179274	-0.327422	0.093779
H116	H	1.679274	0.172578	0.593779
H117	H	0.946283	0.218764	0.744109
H118	H	1.446283	0.718764	1.244109
Br119	Br	0.522706	0.115028	-0.203425
Br120	Br	1.022706	0.615028	0.296575
Br121	Br	0.302787	0.111143	-0.203416
Br122	Br	0.802787	0.611143	0.296584
Br123	Br	1.226177	-0.491422	-0.090565
Br124	Br	1.726177	0.008578	0.409435
H125	H	0.615865	0.116674	-0.156565
H126	H	1.115865	0.616674	0.343435
H127	H	0.921088	-0.295732	-0.064796
H128	H	1.421088	0.204268	0.435204
Br129	Br	1.223626	-0.491894	0.097340
Br130	Br	1.723626	0.008106	0.597340
Br131	Br	0.892172	-0.453937	0.106783
Br132	Br	1.392172	0.046063	0.606783
Br133	Br	0.895357	-0.277736	0.108209
Br134	Br	1.395357	0.222264	0.608209
Br135	Br	1.050559	-0.294380	0.202561
Br136	Br	1.550559	0.205620	0.702561
Br137	Br	1.052700	-0.472874	-0.203760
Br138	Br	1.552700	0.027126	0.296240
H139	H	1.070707	-0.314443	-0.157623
H140	H	1.570707	0.185557	0.342377
H141	H	1.178296	-0.326226	-0.096202
H142	H	1.678296	0.173774	0.403798
Br143	Br	0.913232	0.249614	0.536266
Br144	Br	1.413232	0.749614	1.036266
Br145	Br	1.199966	-0.018361	0.228868
Br146	Br	1.699966	0.481639	0.728868
H147	H	1.166952	0.012498	0.436713
H148	H	1.666952	0.512498	0.936713
H149	H	1.166990	0.012508	0.744089
H150	H	1.666990	0.512508	1.244089
H151	H	0.946229	0.218745	0.255943
H152	H	1.446229	0.718745	0.755943
Br153	Br	0.810420	0.120131	0.203444
Br154	Br	1.310420	0.620131	0.703444
Br155	Br	0.913224	0.249606	0.463792
Br156	Br	1.413224	0.749606	0.963792
