data_functionalizedCrystal
_audit_creation_method	'MofGen! by Chris Wilmer'
_symmetry_space_group_name_H-M	'P1'
_symmetry_Int_Tables_number	1
_symmetry_cell_setting	triclinic
loop_
_symmetry_equiv_pos_as_xyz
  x,y,z
_cell_length_a	12.827893
_cell_length_b	13.897447
_cell_length_c	12.827885
_cell_angle_alpha	90.031004
_cell_angle_beta	90.019272
_cell_angle_gamma	90.019691
loop_
_atom_site_label
_atom_site_type_symbol
_atom_site_fract_x
_atom_site_fract_y
_atom_site_fract_z
Zn1	Zn	1.597640	-0.383964	0.590840
Zn2	Zn	1.597521	-0.545290	0.416096
Zn3	Zn	1.422881	-0.384012	0.416113
Zn4	Zn	1.422854	-0.545219	0.590796
O5	O	1.510224	-0.464621	0.503462
O6	O	1.743860	-0.405374	0.567671
O7	O	1.574316	-0.523946	0.269863
O8	O	1.446124	-0.249024	0.439317
O9	O	1.743773	-0.523900	0.439288
O10	O	1.574518	-0.248989	0.567687
O11	O	1.446009	-0.405455	0.269875
O12	O	1.276641	-0.405386	0.439274
O13	O	1.446077	-0.523779	0.737038
O14	O	1.276621	-0.523825	0.567613
O15	O	1.574492	-0.405305	0.737070
O16	O	1.574290	-0.680263	0.439245
O17	O	1.445963	-0.680210	0.567597
C18	C	1.238714	-0.464604	0.503442
C19	C	1.122561	-0.464619	0.503458
C20	C	1.070819	-0.406073	0.567085
C21	C	0.950769	-0.406088	0.567103
C22	C	1.510139	-0.715236	0.503437
C23	C	1.510198	-0.822450	0.503462
C24	C	1.510249	-0.909519	0.503486
C25	C	1.510322	-1.018752	0.503513
C26	C	1.782794	-0.464640	0.503482
C27	C	1.898947	-0.464648	0.503491
C28	C	1.510295	-0.464529	0.776032
C29	C	1.510325	-0.464489	0.892185
C30	C	1.510338	-0.213028	0.503509
C31	C	1.510386	-0.105814	0.503529
C32	C	1.510213	-0.464644	0.231952
C33	C	1.510385	-0.464412	0.115799
C34	C	1.573876	-0.405853	0.943986
C35	C	1.573908	-0.405811	1.064036
H36	H	1.628255	-0.355681	0.899457
H37	H	0.906272	-0.355967	0.621580
H38	H	1.628320	-0.355614	1.108583
H39	H	1.455978	-0.514618	1.071259
O40	O	1.445344	-0.524376	0.945136
C41	C	1.386269	-0.578923	0.873663
H42	H	1.382576	-0.539507	0.795837
H43	H	1.424492	-0.652197	0.862084
C44	C	1.279628	-0.641180	1.011947
C45	C	1.275085	-0.592765	0.916363
H46	H	1.211046	-0.649724	1.038287
H47	H	1.319430	-0.604434	1.060101
H48	H	1.311485	-0.702237	1.002285
H49	H	1.243240	-0.531705	0.926028
H50	H	1.235275	-0.629501	0.868212
O51	O	1.124152	-0.346349	0.632025
C52	C	1.232143	-0.359618	0.617536
H53	H	1.246912	-0.434031	0.583156
H54	H	1.263103	-0.302364	0.561960
C55	C	1.270196	-0.259538	0.765453
C56	C	1.288336	-0.350937	0.723234
H57	H	1.304860	-0.254179	0.830651
H58	H	1.197441	-0.250595	0.775212
H59	H	1.295996	-0.211836	0.719129
H60	H	1.262525	-0.398636	0.769551
H61	H	1.361089	-0.359888	0.713485
H62	H	0.943437	-0.514779	0.449020
H63	H	1.077982	-0.514752	0.448996
