data_functionalizedCrystal
_audit_creation_method	'MofGen! by Chris Wilmer'
_symmetry_space_group_name_H-M	'P1'
_symmetry_Int_Tables_number	1
_symmetry_cell_setting	triclinic
loop_
_symmetry_equiv_pos_as_xyz
  x,y,z
_cell_length_a	10.540514
_cell_length_b	10.540535
_cell_length_c	13.101039
_cell_angle_alpha	93.394726
_cell_angle_beta	86.608242
_cell_angle_gamma	84.519401
loop_
_atom_site_label
_atom_site_type_symbol
_atom_site_fract_x
_atom_site_fract_y
_atom_site_fract_z
O1	O	1.692825	0.171803	-0.085231
O2	O	2.192825	0.671803	0.414769
O3	O	1.323407	0.188692	-0.085230
O4	O	1.823407	0.688692	0.414770
O5	O	1.516546	-0.004459	-0.085220
O6	O	2.016546	0.495541	0.414780
O7	O	1.499686	0.364954	-0.085241
O8	O	1.999686	0.864954	0.414759
O9	O	1.502689	0.009422	0.085209
O10	O	2.002689	0.509422	0.585209
O11	O	1.309550	0.202574	0.085199
O12	O	1.809550	0.702574	0.585199
O13	O	1.678967	0.185684	0.085198
O14	O	2.178967	0.685684	0.585198
Zn15	Zn	1.492058	0.196333	0.112258
Zn16	Zn	1.992058	0.696333	0.612258
Zn17	Zn	1.510316	0.178044	-0.112290
Zn18	Zn	2.010316	0.678044	0.387710
O19	O	1.485828	0.378836	0.085188
O20	O	1.985828	0.878836	0.585188
C21	C	1.269175	0.194373	-0.000016
C22	C	1.769175	0.694373	0.499984
C23	C	1.128225	0.190604	-0.000015
C24	C	1.628225	0.690604	0.499985
C25	C	1.508354	-0.044821	-0.000005
C26	C	2.008354	0.455179	0.499995
C27	C	1.504574	-0.185769	-0.000004
C28	C	2.004574	0.314231	0.499996
C29	C	1.057518	0.328744	-0.000025
C30	C	1.557518	0.828744	0.499975
C31	C	0.910937	0.324837	-0.000417
C32	C	1.410937	0.824837	0.499583
C33	C	0.943787	0.107565	-0.097151
C34	C	1.443787	0.607565	0.402849
C35	C	1.090332	0.112413	-0.097227
C36	C	1.590332	0.612413	0.402773
C37	C	1.074976	0.126155	0.096589
C38	C	1.574976	0.626155	0.596589
C39	C	0.927894	0.124926	0.097861
C40	C	1.427894	0.624926	0.597861
C41	C	1.363559	-0.222428	-0.000011
C42	C	1.863559	0.277572	0.499989
C43	C	1.359615	-0.369061	-0.000416
C44	C	1.859615	0.130939	0.499584
C45	C	1.576845	-0.403013	-0.097161
C46	C	2.076845	0.096987	0.402839
C47	C	1.579851	-0.256253	-0.097225
C48	C	2.079851	0.243747	0.402775
C49	C	1.566143	-0.240605	0.096592
C50	C	2.066143	0.259395	0.596592
C51	C	1.559519	-0.386849	0.097850
C52	C	2.059519	0.113151	0.597850
C53	C	1.733200	0.180003	-0.000019
C54	C	2.233200	0.680003	0.499981
C55	C	1.874150	0.183772	-0.000026
C56	C	2.374150	0.683772	0.499974
C57	C	1.494021	0.419198	-0.000029
C58	C	1.994021	0.919198	0.499971
C59	C	1.497801	0.560145	-0.000037
C60	C	1.997801	1.060145	0.499963
N61	N	1.479607	0.208815	0.265506
N62	N	1.979607	0.708815	0.765506
N63	N	1.522777	0.165552	-0.265538
N64	N	2.022777	0.665552	0.234462
C65	C	1.462667	0.225808	0.474547
C66	C	1.962667	0.725808	0.974547
C67	C	1.539713	0.148563	0.525427
C68	C	2.039713	0.648563	1.025427
C69	C	1.530287	0.158018	0.641745
C70	C	2.030287	0.658018	1.141745
C71	C	1.472091	0.216354	0.358219
C72	C	1.972091	0.716354	0.858219
H73	H	0.862613	0.384224	0.069190
H74	H	1.362613	0.884224	0.569190
H75	H	0.903210	0.022581	0.104020
H76	H	1.403210	0.522581	0.604020
Cl77	Cl	1.726208	-0.206246	0.098050
Cl78	Cl	2.226208	0.293754	0.598050
Cl79	Cl	1.147843	-0.031029	0.098061
Cl80	Cl	1.647843	0.468971	0.598061
Cl81	Cl	0.855578	0.211014	0.208802
Cl82	Cl	1.355578	0.711014	0.708802
H83	H	1.516152	-0.192152	0.170238
H84	H	2.016152	0.307848	0.670238
H85	H	1.612753	0.075332	0.481629
H86	H	2.112753	0.575332	0.981629
H87	H	1.093400	0.378297	-0.069578
H88	H	1.593400	0.878297	0.430422
H89	H	1.124482	0.156357	-0.170113
H90	H	1.624482	0.656357	0.329887
H91	H	1.298302	-0.392731	0.069186
H92	H	1.798302	0.107269	0.569186
H93	H	1.389633	0.299036	0.518341
H94	H	1.889633	0.799036	1.018341
H95	H	1.080395	0.390454	0.069613
H96	H	1.580395	0.890454	0.569613
H97	H	1.533931	-0.439811	-0.169724
H98	H	2.033931	0.060189	0.330276
H99	H	0.874899	0.372620	-0.070456
H100	H	1.374899	0.872620	0.429544
Cl101	Cl	1.282930	-0.421788	-0.108554
Cl102	Cl	1.782930	0.078212	0.391446
Cl103	Cl	1.164978	-0.044770	-0.103617
Cl104	Cl	1.664978	0.455230	0.396383
Cl105	Cl	1.114353	0.206411	0.210286
Cl106	Cl	1.614353	0.706411	0.710286
Cl107	Cl	0.909759	-0.052855	-0.102302
Cl108	Cl	1.409759	0.447145	0.397698
Cl109	Cl	1.514816	-0.203371	-0.209745
Cl110	Cl	2.014816	0.296629	0.290255
Cl111	Cl	1.470565	-0.421978	0.208791
Cl112	Cl	1.970565	0.078022	0.708791
Cl113	Cl	0.887240	0.170823	-0.209184
Cl114	Cl	1.387240	0.670823	0.290816
H115	H	1.303745	-0.174788	0.069632
H116	H	1.803745	0.325212	0.569632
H117	H	1.315970	-0.184622	-0.069558
H118	H	1.815970	0.315378	0.430442
H119	H	1.683563	-0.233568	-0.101361
H120	H	2.183563	0.266432	0.398639
H121	H	1.678884	-0.450651	-0.100501
H122	H	2.178884	0.049349	0.399499
Cl123	Cl	1.714538	-0.461725	0.107320
Cl124	Cl	2.214538	0.038275	0.607320
