data_functionalizedCrystal
_audit_creation_method	'MofGen! by Chris Wilmer'
_symmetry_space_group_name_H-M	'P1'
_symmetry_Int_Tables_number	1
_symmetry_cell_setting	triclinic
loop_
_symmetry_equiv_pos_as_xyz
  x,y,z
_cell_length_a	16.974800
_cell_length_b	15.995292
_cell_length_c	15.455313
_cell_angle_alpha	92.667666
_cell_angle_beta	90.973911
_cell_angle_gamma	83.429017
loop_
_atom_site_label
_atom_site_type_symbol
_atom_site_fract_x
_atom_site_fract_y
_atom_site_fract_z
O1	O	1.049053	0.106739	0.001543
O2	O	0.819618	0.119526	-0.014569
O3	O	0.940631	-0.008744	-0.006072
O4	O	0.928040	0.235009	-0.006954
O5	O	0.933711	-0.001439	0.137704
O6	O	0.812698	0.126831	0.129207
O7	O	1.042133	0.114044	0.145320
Cu8	Cu	0.926784	0.121104	0.150391
Cu9	Cu	0.934968	0.112466	-0.019641
O10	O	0.921120	0.242314	0.136822
C11	C	0.786799	0.122558	0.055257
C12	C	0.699318	0.120700	0.049113
C13	C	0.654451	0.123807	0.124601
C14	C	0.572255	0.122048	0.118831
C15	C	0.534926	0.117188	0.037572
C16	C	0.579798	0.114079	-0.037922
C17	C	0.661994	0.115832	-0.032151
C18	C	0.289502	0.111513	0.011907
C19	C	0.207300	0.109762	0.006142
C20	C	0.199763	0.117731	0.162895
C21	C	0.281960	0.119488	0.168659
C22	C	0.326826	0.116374	0.093166
N23	N	0.450907	0.115393	0.031671
N24	N	0.410843	0.118164	0.099067
C25	C	0.936659	-0.036288	0.065778
C26	C	0.935123	-0.129245	0.065663
C27	C	0.929474	-0.466996	0.065275
C28	C	1.016803	-0.443462	0.071730
C29	C	1.018479	-0.346799	0.071519
C30	C	0.932277	-0.299434	0.065468
C31	C	0.892561	-0.332809	-0.019699
C32	C	0.891513	-0.429605	-0.019839
C33	C	0.881860	-0.421160	0.143537
C34	C	0.885044	-0.324605	0.144846
C35	C	0.933857	-0.204734	0.065574
C36	C	0.927893	-0.561696	0.065163
C37	C	1.074953	0.111012	0.075492
C38	C	1.162434	0.112869	0.081630
C39	C	0.925092	0.269858	0.064971
C40	C	0.926629	0.362815	0.065079
N41	N	0.921033	0.127180	0.269983
N42	N	0.940724	0.106384	-0.139232
C43	C	0.972462	0.072707	0.318988
C44	C	0.968121	0.077309	0.409491
C45	C	0.912354	0.136389	0.450988
C46	C	0.860920	0.190865	0.401976
C47	C	0.865258	0.186258	0.311474
C48	C	0.893628	0.156252	0.721254
C49	C	0.889296	0.160857	0.811763
C50	C	0.996496	0.047299	0.819272
C51	C	1.000832	0.042701	0.728768
C52	C	0.949396	0.097174	0.679764
N53	N	0.907916	0.141097	0.543496
N54	N	0.953830	0.092461	0.587257
H55	H	0.326023	0.108974	-0.049565
H56	H	0.925826	-0.315781	-0.078670
H57	H	0.535730	0.124564	0.180301
H58	H	0.815509	0.238967	0.435767
N59	N	0.841091	0.211912	0.671224
N60	N	0.841669	0.289824	0.681406
H61	H	0.804562	0.329139	0.646071
H62	H	0.163224	0.120264	0.224358
N63	N	0.320102	0.124439	0.251657
N64	N	0.393491	0.126002	0.256798
H65	H	0.420431	0.129501	0.315416
H66	H	0.829275	-0.301246	-0.027205
H67	H	1.009997	0.032952	0.449391
N68	N	1.049017	-0.008345	0.869341
N69	N	1.021603	-0.057823	0.918098
H70	H	1.058695	-0.097127	0.953461
H71	H	0.176909	0.105807	-0.060033
N72	N	1.057936	-0.017510	0.686407
N73	N	1.103940	-0.066049	0.730179
H74	H	1.144323	-0.108519	0.700266
N75	N	1.065194	-0.327346	0.000598
N76	N	1.125487	-0.290375	0.014477
H77	H	1.158482	-0.276636	-0.035614
H78	H	0.549399	0.110116	-0.104085
H79	H	0.698523	0.113303	-0.093621
H80	H	1.017876	0.024601	0.285208
N81	N	0.812739	0.241903	0.261401
N82	N	0.816619	0.237783	0.180597
H83	H	0.779525	0.277083	0.145232
H84	H	1.049846	-0.324703	0.132773
N85	N	0.933157	-0.467062	-0.094170
N86	N	0.962792	-0.421670	-0.145581
H87	H	0.992206	-0.448119	-0.198079
N88	N	0.832318	0.221209	0.854137
N89	N	0.786393	0.269836	0.810375
H90	H	0.746153	0.312456	0.840301
N91	N	1.055479	-0.474740	0.148557
N92	N	1.019137	-0.514745	0.199451
H93	H	1.046452	-0.536842	0.253712
N94	N	1.062332	-0.483499	0.001230
N95	N	1.030744	-0.529290	-0.053748
H96	H	1.062896	-0.557568	-0.103540
H97	H	0.684838	0.127772	0.190771
N98	N	0.811397	-0.448278	-0.030145
N99	N	0.756436	-0.389843	-0.037217
H100	H	0.699855	-0.403026	-0.044496
H101	H	0.906371	-0.446022	0.207700
H102	H	0.913918	-0.302879	0.207816
H103	H	0.821887	-0.291532	0.145387
N104	N	0.801174	-0.438867	0.138559
N105	N	0.778740	-0.485026	0.077699
H106	H	0.721759	-0.497536	0.074176
