data_functionalizedCrystal
_audit_creation_method	'MofGen! by Chris Wilmer'
_symmetry_space_group_name_H-M	'P1'
_symmetry_Int_Tables_number	1
_symmetry_cell_setting	triclinic
loop_
_symmetry_equiv_pos_as_xyz
  x,y,z
_cell_length_a	14.908795
_cell_length_b	29.839131
_cell_length_c	14.908308
_cell_angle_alpha	93.261283
_cell_angle_beta	89.788666
_cell_angle_gamma	93.331550
loop_
_atom_site_label
_atom_site_type_symbol
_atom_site_fract_x
_atom_site_fract_y
_atom_site_fract_z
Zn1	Zn	1.345199	-0.157139	-0.587804
Zn2	Zn	1.845199	0.342861	-0.087804
Zn3	Zn	1.353728	-0.227707	-0.437431
Zn4	Zn	1.853728	0.272293	0.062569
Zn5	Zn	1.203513	-0.156653	-0.428775
Zn6	Zn	1.703513	0.343347	0.071225
Zn7	Zn	1.194748	-0.236309	-0.579051
Zn8	Zn	1.694748	0.263691	-0.079051
O9	O	1.274297	-0.194452	-0.508265
O10	O	1.774297	0.305548	-0.008265
O11	O	1.472160	-0.163104	-0.575142
O12	O	1.972160	0.336896	-0.075142
O13	O	1.341039	-0.214477	-0.310460
O14	O	1.841039	0.285523	0.189540
O15	O	1.222406	-0.093848	-0.449911
O16	O	1.722406	0.406152	0.050089
O17	O	1.478427	-0.214949	-0.464664
O18	O	1.978427	0.285051	0.035336
O19	O	1.326502	-0.094206	-0.566748
O20	O	1.826502	0.405794	-0.066748
O21	O	1.230677	-0.162274	-0.304100
O22	O	1.730677	0.337726	0.195900
O23	O	1.076520	-0.170615	-0.441423
O24	O	1.576520	0.329385	0.058577
O25	O	1.207468	-0.229610	-0.706034
O26	O	1.707468	0.270390	-0.206034
O27	O	1.070080	-0.229138	-0.551831
O28	O	1.570080	0.270862	-0.051831
O29	O	1.318003	-0.171445	-0.712465
O30	O	1.818003	0.328555	-0.212465
O31	O	1.332540	-0.291716	-0.456177
O32	O	1.832540	0.208284	0.043823
O33	O	1.215738	-0.298036	-0.560224
O34	O	1.715738	0.201964	-0.060224
C35	C	1.040674	-0.200758	-0.494738
C36	C	1.540674	0.299242	0.005262
C37	C	0.940727	-0.203467	-0.488973
C38	C	1.440727	0.296533	0.011027
C39	C	0.803127	-0.234228	-0.423238
C40	C	1.303127	0.265772	0.076762
C41	C	0.897036	-0.231684	-0.428655
C42	C	1.397036	0.268316	0.071345
C43	C	0.890504	-0.177791	-0.543877
C44	C	1.390504	0.322209	-0.043877
C45	C	0.796596	-0.180334	-0.538460
C46	C	1.296596	0.319666	-0.038460
C47	C	0.752911	-0.208554	-0.478140
C48	C	1.252911	0.291446	0.021860
C49	C	0.659000	-0.211100	-0.472728
C50	C	1.159000	0.288900	0.027272
C51	C	0.652471	-0.157205	-0.587945
C52	C	1.152471	0.342795	-0.087945
C53	C	0.746379	-0.154661	-0.593361
C54	C	1.246379	0.345339	-0.093361
C55	C	1.274137	-0.311177	-0.508211
C56	C	1.774137	0.188823	-0.008211
C57	C	1.274149	-0.361112	-0.508223
C58	C	1.774149	0.138888	-0.008223
C59	C	1.335215	-0.667449	-0.454178
C60	C	1.835215	-0.167449	0.045822
C61	C	1.335324	-0.855120	-0.454219
C62	C	1.835324	-0.355120	0.045781
O63	O	1.387118	-0.876575	-0.408226
O64	O	1.887118	-0.376575	0.091774
N65	N	1.274479	-0.881891	-0.508344
N66	N	1.774479	-0.381891	-0.008344
C67	C	1.213607	-0.861742	-0.562466
C68	C	1.713607	-0.361742	-0.062466
O69	O	1.161863	-0.888819	-0.608511
O70	O	1.661863	-0.388819	-0.108511
C71	C	1.213503	-0.674071	-0.562429
C72	C	1.713503	-0.174071	-0.062429
C73	C	1.274346	-0.647302	-0.508294
C74	C	1.774346	-0.147302	-0.008294
C75	C	1.396054	-0.640680	-0.400048
C76	C	1.896054	-0.140680	0.099952
C77	C	1.396023	-0.593765	-0.400034
C78	C	1.896023	-0.093765	0.099966
C79	C	1.335153	-0.573619	-0.454151
C80	C	1.835153	-0.073619	0.045849
C81	C	1.274315	-0.600387	-0.508281
C82	C	1.774315	-0.100387	-0.008281
C83	C	1.152635	-0.653923	-0.616556
C84	C	1.652635	-0.153923	-0.116556
C85	C	1.152616	-0.607002	-0.616544
C86	C	1.652616	-0.107002	-0.116544
C87	C	1.213459	-0.580233	-0.562408
C88	C	1.713459	-0.080233	-0.062408
C89	C	1.213414	-0.533326	-0.562384
C90	C	1.713414	-0.033326	-0.062384
N91	N	1.274259	-0.506555	-0.508259
N92	N	1.774259	-0.006555	-0.008259
C93	C	1.335128	-0.526701	-0.454142
C94	C	1.835128	-0.026701	0.045858
C95	C	1.213664	-0.960271	-0.562481
C96	C	1.713664	-0.460271	-0.062481
C97	C	1.213689	-1.007188	-0.562489
C98	C	1.713689	-0.507188	-0.062489
C99	C	1.335408	-1.000563	-0.454242
C100	C	1.835408	-0.500563	0.045758
C101	C	1.335379	-0.953645	-0.454230
C102	C	1.835379	-0.453645	0.045770
C103	C	1.274509	-0.933500	-0.508356
C104	C	1.774509	-0.433500	-0.008356
C105	C	1.335058	-0.428177	-0.454118
C106	C	1.835058	0.071823	0.045882
C107	C	1.335019	-0.381258	-0.454106
C108	C	1.835019	0.118742	0.045894
C109	C	1.213303	-0.387887	-0.562356
C110	C	1.713303	0.112113	-0.062356
C111	C	1.213339	-0.434802	-0.562364
C112	C	1.713339	0.065198	-0.062364
C113	C	1.274224	-0.454945	-0.508242
C114	C	1.774224	0.045055	-0.008242
O115	O	1.161654	-0.511840	-0.608360
O116	O	1.661654	-0.011840	-0.108360
O117	O	1.386878	-0.499617	-0.408120
O118	O	1.886878	0.000383	0.091880
C119	C	1.335247	-0.714363	-0.454191
C120	C	1.835247	-0.214363	0.045809
C121	C	1.274408	-0.741132	-0.508321
C122	C	1.774408	-0.241132	-0.008321
C123	C	1.213538	-0.720986	-0.562437
C124	C	1.713538	-0.220986	-0.062437
C125	C	1.274433	-0.788050	-0.508329
C126	C	1.774433	-0.288050	-0.008329
C127	C	1.335302	-0.808196	-0.454213
C128	C	1.835302	-0.308196	0.045787
C129	C	1.396148	-0.781424	-0.400088
C130	C	1.896148	-0.281424	0.099912
C131	C	1.396116	-0.734510	-0.400074
C132	C	1.896116	-0.234510	0.099926
C133	C	1.152693	-0.747757	-0.616562
C134	C	1.652693	-0.247757	-0.116562
C135	C	1.152728	-0.794672	-0.616570
C136	C	1.652728	-0.294672	-0.116570
C137	C	1.213598	-0.814818	-0.562454
C138	C	1.713598	-0.314818	-0.062454
C139	C	1.508832	-0.188122	-0.521845
C140	C	2.008832	0.311878	-0.021845
C141	C	1.608777	-0.185424	-0.527632
C142	C	2.108777	0.314576	-0.027632
C143	C	1.260806	-0.201542	-0.742786
C144	C	1.760806	0.298458	-0.242786
C145	C	1.255058	-0.204563	-0.842725
C146	C	1.755058	0.295437	-0.342725
C147	C	1.274481	-0.077270	-0.508340
C148	C	1.774481	0.422730	-0.008340
C149	C	1.274559	-0.027335	-0.508372
C150	C	1.774559	0.472665	-0.008372
C151	C	1.359353	-0.149662	-1.037219
C152	C	1.859353	0.350338	-0.537219
C153	C	1.353955	-0.152499	-1.131121
C154	C	1.853955	0.347501	-0.631121
C155	C	1.238857	-0.213072	-1.124432
C156	C	1.738857	0.286928	-0.624432
C157	C	1.244256	-0.210235	-1.030530
C158	C	1.744256	0.289765	-0.530530
C159	C	1.304507	-0.178529	-0.986927
C160	C	1.804507	0.321471	-0.486927
C161	C	1.309910	-0.175695	-0.893024
C162	C	1.809910	0.324305	-0.393024
C163	C	1.194809	-0.236264	-0.886337
C164	C	1.694809	0.263736	-0.386337
C165	C	1.189410	-0.239101	-0.980238
C166	C	1.689410	0.260899	-0.480238
C167	C	1.287787	-0.187356	-0.274659
C168	C	1.787787	0.312644	0.225341
C169	C	1.293710	-0.184203	-0.174731
C170	C	1.793710	0.315797	0.325269
H171	H	0.781961	-0.131684	-0.642470
H172	H	1.281961	0.368316	-0.142470
H173	H	1.150151	-0.259771	-0.845379
H174	H	1.650151	0.240229	-0.345379
H175	H	0.926090	-0.154813	-0.592981
H176	H	1.426090	0.345187	-0.092981
H177	H	1.398614	-0.128992	-1.172065
H178	H	1.898614	0.371008	-0.672065
H179	H	1.163798	-0.456599	-0.606448
H180	H	1.663798	0.043401	-0.106448
H181	H	1.445708	-0.797836	-0.356022
H182	H	1.945708	-0.297836	0.143978
H183	H	1.445627	-0.657077	-0.355979
H184	H	1.945627	-0.157077	0.144021
H185	H	0.623433	-0.234080	-0.423615
H186	H	1.123433	0.265920	0.076385
H187	H	1.189804	-0.238884	-1.159950
H188	H	1.689804	0.261116	-0.659950
H189	H	0.611575	-0.136300	-0.632651
H190	H	1.111575	0.363700	-0.132651
H191	H	1.384565	-0.359464	-0.410020
H192	H	1.884565	0.140536	0.089980
H193	H	1.384638	-0.444572	-0.410049
H194	H	1.884638	0.055428	0.089951
H195	H	1.445569	-0.571972	-0.355956
H196	H	1.945569	-0.071972	0.144044
H197	H	1.384923	-0.931852	-0.410149
H198	H	1.884923	-0.431852	0.089851
H199	H	1.140354	-0.264914	-1.015753
H200	H	1.640354	0.235086	-0.515753
H201	H	1.103126	-0.731359	-0.660632
H202	H	1.603126	-0.231359	-0.160632
H203	H	1.164137	-1.028980	-0.606562
H204	H	1.664137	-0.528980	-0.106562
H205	H	1.384971	-1.016974	-0.410179
H206	H	1.884971	-0.516974	0.089821
H207	H	1.164095	-0.943873	-0.606557
H208	H	1.664095	-0.443873	-0.106557
H209	H	1.408416	-0.123849	-1.001717
H210	H	1.908416	0.376151	-0.501717
H211	H	0.767558	-0.257210	-0.374130
H212	H	1.267558	0.242790	0.125870
H213	H	1.358970	-0.149879	-0.857524
H214	H	1.858970	0.350121	-0.357524
H215	H	1.103050	-0.590603	-0.660622
H216	H	1.603050	-0.090603	-0.160622
H217	H	0.937919	-0.252590	-0.383948
H218	H	1.437919	0.247410	0.116052
H219	H	1.103086	-0.675711	-0.660634
H220	H	1.603086	-0.175711	-0.160634
H221	H	1.445661	-0.712717	-0.355993
H222	H	1.945661	-0.212717	0.144007
H223	H	1.163741	-0.371477	-0.606414
H224	H	1.663741	0.128523	-0.106414
H225	H	1.103175	-0.816464	-0.660652
H226	H	1.603175	-0.316464	-0.160652
