data_functionalizedCrystal
_audit_creation_method	'MofGen! by Chris Wilmer'
_symmetry_space_group_name_H-M	'P1'
_symmetry_Int_Tables_number	1
_symmetry_cell_setting	triclinic
loop_
_symmetry_equiv_pos_as_xyz
  x,y,z
_cell_length_a	10.654550
_cell_length_b	12.837942
_cell_length_c	9.730223
_cell_angle_alpha	89.998888
_cell_angle_beta	89.996251
_cell_angle_gamma	89.656921
loop_
_atom_site_label
_atom_site_type_symbol
_atom_site_fract_x
_atom_site_fract_y
_atom_site_fract_z
O1	O	1.683735	0.145718	-0.114403
O2	O	1.319772	0.159602	-0.114381
O3	O	1.493683	0.001699	-0.114383
O4	O	1.509824	0.303621	-0.114401
O5	O	1.493681	0.001703	0.114196
O6	O	1.319770	0.159606	0.114199
O7	O	1.683734	0.145722	0.114177
Zn8	Zn	1.501752	0.152665	0.150480
Zn9	Zn	1.501754	0.152659	-0.150684
O10	O	1.509822	0.303625	0.114179
C11	C	1.272862	0.158585	-0.000089
C12	C	1.133086	0.155535	-0.000080
C13	C	1.063745	0.248505	-0.000105
C14	C	0.932411	0.245633	-0.000129
C15	C	0.939770	0.056812	-0.000107
C16	C	1.071101	0.059685	-0.000074
C17	C	1.059496	0.357520	-0.000124
C18	C	0.928162	0.354648	-0.000148
C19	C	1.488230	-0.036959	-0.000094
C20	C	1.471967	-0.152153	-0.000095
C21	C	1.667472	-0.391705	-0.000136
C22	C	1.652197	-0.499941	-0.000137
C23	C	1.426146	-0.476862	-0.000109
C24	C	1.441420	-0.368626	-0.000108
C25	C	1.562087	-0.326052	-0.000119
C26	C	1.577360	-0.217814	-0.000108
C27	C	1.351309	-0.194737	-0.000090
C28	C	1.336035	-0.302973	-0.000091
C29	C	1.730644	0.146740	-0.000119
C30	C	1.870420	0.149790	-0.000137
C31	C	1.515276	0.342283	-0.000114
C32	C	1.531538	0.457477	-0.000122
N33	N	1.501759	0.152668	0.356016
N34	N	1.501755	0.152648	-0.356221
C35	C	1.578792	0.082772	0.427941
C36	C	1.578787	0.082760	0.571824
C37	C	1.424714	0.222547	0.571844
C38	C	1.424713	0.222554	0.427964
C39	C	1.667748	0.002070	0.427931
C40	C	1.667744	0.002058	0.571814
H41	H	1.098940	0.392230	-0.098814
H42	H	1.738013	-0.553393	-0.000155
F43	F	1.342720	0.296920	0.648427
H44	H	1.265497	-0.141270	-0.000065
H45	H	1.637603	-0.077675	0.388883
H46	H	1.766195	0.019834	0.610857
H47	H	0.886085	0.387595	0.098535
F48	F	1.297734	-0.522190	-0.000131
F49	F	0.879468	0.408331	-0.125192
F50	F	1.790530	0.035109	0.369584
F51	F	1.207620	-0.348295	-0.000090
H52	H	1.361976	0.279459	0.369403
H53	H	1.127554	-0.016021	-0.000033
F54	F	0.873790	-0.045192	-0.000100
H55	H	1.629007	-0.073301	0.616436
H56	H	1.675613	-0.183153	-0.000112
F57	F	1.795892	-0.346393	-0.000119
F58	F	1.103920	0.413253	0.124908
