data_functionalizedCrystal
_audit_creation_method	'MofGen! by Chris Wilmer'
_symmetry_space_group_name_H-M	'P1'
_symmetry_Int_Tables_number	1
_symmetry_cell_setting	triclinic
loop_
_symmetry_equiv_pos_as_xyz
  x,y,z
_cell_length_a	21.395362
_cell_length_b	19.077068
_cell_length_c	19.077579
_cell_angle_alpha	90.063424
_cell_angle_beta	87.667927
_cell_angle_gamma	92.343691
loop_
_atom_site_label
_atom_site_type_symbol
_atom_site_fract_x
_atom_site_fract_y
_atom_site_fract_z
Zn1	Zn	0.963019	-0.263487	-0.408896
Zn2	Zn	0.954537	-0.385722	-0.296098
Zn3	Zn	0.853875	-0.268264	-0.291362
Zn4	Zn	0.854171	-0.380997	-0.413529
O5	O	0.906401	-0.324617	-0.352471
O6	O	1.049574	-0.279680	-0.393976
O7	O	0.937511	-0.374117	-0.197137
O8	O	0.871779	-0.169295	-0.303032
O9	O	1.043342	-0.369485	-0.311105
O10	O	0.951966	-0.165786	-0.389383
O11	O	0.863555	-0.287821	-0.193657
O12	O	0.766234	-0.283239	-0.307524
O13	O	0.872284	-0.361432	-0.511248
O14	O	0.766452	-0.366064	-0.397280
O15	O	0.952253	-0.275099	-0.507844
O16	O	0.937798	-0.483429	-0.315597
O17	O	0.864060	-0.479958	-0.401873
C18	C	0.743609	-0.324658	-0.352391
C19	C	0.673966	-0.324691	-0.352374
C20	C	0.641378	-0.367880	-0.399045
C21	C	0.575944	-0.367862	-0.399076
C22	C	0.543100	-0.324662	-0.352423
C23	C	0.575696	-0.281465	-0.305749
C24	C	0.641129	-0.281479	-0.305724
C25	C	0.437224	-0.321554	-0.288936
C26	C	0.371793	-0.321545	-0.288959
C27	C	0.341284	-0.324613	-0.352499
C28	C	0.376215	-0.327706	-0.416018
C29	C	0.441647	-0.327720	-0.415993
C30	C	0.472149	-0.324641	-0.352445
C31	C	0.237745	-0.367784	-0.399207
C32	C	0.172311	-0.367761	-0.399239
C33	C	0.172064	-0.281368	-0.305906
C34	C	0.237498	-0.281387	-0.305880
C35	C	0.270334	-0.324599	-0.352530
C36	C	0.900058	-0.507190	-0.359767
C37	C	0.897403	-0.585295	-0.362912
C38	C	0.934579	-0.623771	-0.319507
C39	C	0.932086	-0.697158	-0.322469
C40	C	0.892412	-0.732068	-0.368833
C41	C	0.855234	-0.693586	-0.412242
C42	C	0.857731	-0.620200	-0.409283
C43	C	0.880826	-0.951357	-0.382498
C44	C	0.878330	-1.024749	-0.385452
C45	C	0.955183	-1.028315	-0.295680
C46	C	0.957674	-0.954928	-0.292722
C47	C	0.920499	-0.916453	-0.336134
N48	N	0.889861	-0.807082	-0.371860
N49	N	0.923054	-0.841440	-0.333110
C50	C	1.069828	-0.324577	-0.352552
C51	C	1.139471	-0.324560	-0.352586
C52	C	0.913248	-0.317206	-0.535755
C53	C	0.916166	-0.314047	-0.613860
C54	C	0.912786	-0.141331	-0.345162
C55	C	0.915507	-0.063225	-0.342048
C56	C	0.937091	-0.291447	-1.053318
C57	C	0.934346	-0.294417	-0.979930
C58	C	0.891334	-0.340848	-0.945012
C59	C	0.851070	-0.384316	-0.983485
C60	C	0.853819	-0.381348	-1.056872
C61	C	0.878650	-0.354547	-0.725720
C62	C	0.875903	-0.357510	-0.652328
C63	C	0.959180	-0.267612	-0.648778
C64	C	0.961923	-0.264646	-0.722166
C65	C	0.921661	-0.308116	-0.760633
N66	N	0.888525	-0.343885	-0.869998
N67	N	0.924473	-0.305083	-0.835646
C68	C	0.899618	-0.331949	-0.169898
C69	C	0.896829	-0.334909	-0.091786
H70	H	0.145779	-0.402929	-0.437248
H71	H	0.845865	-0.389943	-0.757031
H72	H	0.549406	-0.403031	-0.437083
C73	C	0.996076	-1.070644	-0.247933
N74	N	1.026879	-1.102526	-0.211969
H75	H	0.996950	-0.226840	-0.750592
H76	H	0.962358	-0.728482	-0.287124
H77	H	0.967133	-0.259027	-0.948612
H78	H	0.966883	-0.595353	-0.281750
H79	H	0.989980	-0.926506	-0.254970
H80	H	0.850555	-0.920037	-0.417844
H81	H	0.816051	-0.422124	-0.955049
H82	H	0.846031	-1.053170	-0.423219
C83	C	0.816834	-0.577877	-0.457032
N84	N	0.786031	-0.546000	-0.493000
C85	C	0.809525	-0.429159	-1.099186
N86	N	0.776163	-0.465173	-1.131057
C87	C	0.135939	-0.233847	-0.254587
N88	N	0.108727	-0.198052	-0.215934
H89	H	0.822934	-0.722016	-0.449995
H90	H	0.972112	-0.253633	-1.081742
C91	C	0.480069	-0.331121	-0.485862
N92	N	0.509007	-0.333682	-0.538489
H93	H	0.991960	-0.232222	-0.617450
H94	H	0.840863	-0.395307	-0.623900
C95	C	0.273345	-0.233882	-0.254532
N96	N	0.300346	-0.198098	-0.215854
H97	H	0.462059	-0.319053	-0.237190
C98	C	0.677494	-0.415413	-0.450364
N99	N	0.704699	-0.451214	-0.489018
H100	H	0.351376	-0.330203	-0.467758
C101	C	0.539567	-0.233945	-0.254431
N102	N	0.512354	-0.198150	-0.215778
C103	C	0.273868	-0.415310	-0.450530
N104	N	0.301075	-0.451105	-0.489189
H105	H	0.667662	-0.246307	-0.267719
C106	C	0.333375	-0.318138	-0.219088
N107	N	0.304441	-0.315568	-0.166459
