data_functionalizedCrystal
_audit_creation_method	'MofGen! by Chris Wilmer'
_symmetry_space_group_name_H-M	'P1'
_symmetry_Int_Tables_number	1
_symmetry_cell_setting	triclinic
loop_
_symmetry_equiv_pos_as_xyz
  x,y,z
_cell_length_a	15.944545
_cell_length_b	15.944493
_cell_length_c	8.965430
_cell_angle_alpha	90.006294
_cell_angle_beta	89.998976
_cell_angle_gamma	83.485608
loop_
_atom_site_label
_atom_site_type_symbol
_atom_site_fract_x
_atom_site_fract_y
_atom_site_fract_z
O1	O	1.114505	0.108304	-0.123923
O2	O	0.869952	0.121666	-0.123945
O3	O	0.998932	-0.007294	-0.123946
O4	O	0.985525	0.237263	-0.123922
O5	O	0.998921	-0.007285	0.124133
O6	O	0.869941	0.121674	0.124134
O7	O	1.114494	0.108312	0.124156
Cu8	Cu	0.992216	0.114994	0.146796
Cu9	Cu	0.992229	0.114984	-0.146586
O10	O	0.985514	0.237272	0.124157
C11	C	0.838652	0.121116	0.000091
C12	C	0.745406	0.119456	0.000082
C13	C	0.474791	0.034560	0.000090
C14	C	0.525359	0.075494	0.122413
C15	C	0.409764	0.113535	0.000107
C16	C	0.525350	0.075507	-0.122173
C17	C	0.574677	0.116440	0.000092
C18	C	0.459103	0.154448	0.122532
C19	C	0.459091	0.154449	-0.122165
C20	C	0.509626	0.195442	0.000189
C21	C	0.314762	0.111860	0.000117
C22	C	0.669676	0.118122	0.000093
C23	C	0.998378	-0.038584	0.000087
C24	C	0.996735	-0.131833	0.000068
C25	C	1.072656	-0.367594	0.000103
C26	C	1.031720	-0.418166	-0.122216
C27	C	0.993691	-0.302554	0.000086
C28	C	1.031691	-0.418133	0.122371
C29	C	0.990757	-0.467463	0.000110
C30	C	0.952777	-0.351897	-0.122334
C31	C	0.952759	-0.351861	0.122363
C32	C	0.911766	-0.402400	0.000014
C33	C	0.995384	-0.207554	0.000071
C34	C	0.989058	-0.562460	0.000114
C35	C	1.145793	0.108862	0.000116
C36	C	1.239039	0.110522	0.000116
C37	C	0.986067	0.268562	0.000120
C38	C	0.987710	0.361811	0.000130
N39	N	0.992213	0.115001	0.353146
N40	N	0.992239	0.114971	-0.352935
C41	C	0.932546	0.174621	0.450452
C42	C	1.008447	0.190922	0.549875
C43	C	0.916344	0.098706	0.549850
C44	C	1.068153	0.131340	0.450379
C45	C	0.976000	0.039091	0.450346
C46	C	1.051956	0.055360	0.549724
H47	H	0.554279	0.042137	-0.225581
O48	O	0.420740	0.198585	-0.259144
H49	H	0.375323	0.253091	-0.224730
H50	H	0.554292	0.042144	0.225821
O51	O	0.908643	-0.313729	-0.259469
H52	H	0.842081	-0.327913	-0.259779
O53	O	1.162746	-0.346874	-0.000047
H54	H	1.195338	-0.373553	-0.101740
H55	H	1.065073	-0.447116	-0.225622
O56	O	0.454048	-0.055522	0.000225
H57	H	0.513465	-0.099150	0.001346
O58	O	0.821593	-0.422869	-0.000041
H59	H	0.789021	-0.396083	-0.101664
H60	H	0.919436	-0.322896	0.225773
H61	H	1.065051	-0.447062	0.225775
H62	H	0.430282	0.187780	0.226057
H63	H	1.102480	0.004926	0.593039
H64	H	0.962245	-0.025071	0.406595
H65	H	0.525104	0.263508	0.000267
O66	O	0.865768	0.241463	0.392709
H67	H	0.819441	0.211204	0.324608
O68	O	1.026612	0.275926	0.607877
H69	H	0.976980	0.325320	0.568160
O70	O	0.831343	0.080464	0.607732
H71	H	0.839205	0.021959	0.675806
O72	O	1.153176	0.149687	0.392767
H73	H	1.152487	0.149589	0.268971
