data_functionalizedCrystal
_audit_creation_method	'MofGen! by Chris Wilmer'
_symmetry_space_group_name_H-M	'P1'
_symmetry_Int_Tables_number	1
_symmetry_cell_setting	triclinic
loop_
_symmetry_equiv_pos_as_xyz
  x,y,z
_cell_length_a	16.974829
_cell_length_b	19.188940
_cell_length_c	15.455313
_cell_angle_alpha	92.655652
_cell_angle_beta	83.671566
_cell_angle_gamma	83.273674
loop_
_atom_site_label
_atom_site_type_symbol
_atom_site_fract_x
_atom_site_fract_y
_atom_site_fract_z
O1	O	1.055889	0.082815	-0.146249
O2	O	1.555889	0.582815	0.353751
O3	O	0.824863	0.094831	-0.130034
O4	O	1.324863	0.594831	0.369966
O5	O	0.947039	-0.012840	-0.138603
O6	O	1.447039	0.487160	0.361397
O7	O	0.933714	0.190486	-0.137681
O8	O	1.433714	0.690486	0.362319
O9	O	0.940052	-0.006708	0.006150
O10	O	1.440052	0.493292	0.506150
O11	O	0.817877	0.100963	0.014718
O12	O	1.317877	0.600963	0.514718
O13	O	1.048903	0.088947	-0.001497
O14	O	1.548903	0.588947	0.498503
Cu15	Cu	0.932752	0.095515	0.019828
Cu16	Cu	1.432752	0.595515	0.519828
Cu17	Cu	0.941014	0.088263	-0.151359
Cu18	Cu	1.441014	0.588263	0.348641
O19	O	0.926727	0.196618	0.007071
O20	O	1.426727	0.696618	0.507071
C21	C	0.791813	0.097553	-0.055584
C22	C	1.291813	0.597553	0.444416
C23	C	0.703743	0.096520	-0.049402
C24	C	1.203743	0.596520	0.450598
C25	C	0.207589	0.091086	-0.006137
C26	C	0.707589	0.591086	0.493863
C27	C	0.290340	0.092057	-0.011947
C28	C	0.790340	0.592057	0.488053
C29	C	0.335525	0.089194	-0.093757
C30	C	0.835525	0.589194	0.406243
C31	C	0.297954	0.085368	-0.169763
C32	C	0.797954	0.585368	0.330237
C33	C	0.215203	0.084402	-0.163952
C34	C	0.715203	0.584402	0.336048
C35	C	0.583421	0.091728	-0.119597
C36	C	1.083421	0.591728	0.380403
C37	C	0.666177	0.092692	-0.125402
C38	C	1.166177	0.592692	0.374598
C39	C	0.658558	0.099382	0.032415
C40	C	1.158558	0.599382	0.532415
C41	C	0.575807	0.098412	0.038219
C42	C	1.075807	0.598412	0.538219
C43	C	0.538242	0.094589	-0.037787
C44	C	1.038242	0.594589	0.462213
N45	N	0.420111	0.090184	-0.099698
N46	N	0.920111	0.590184	0.400302
N47	N	0.453657	0.093604	-0.031845
N48	N	0.953657	0.593604	0.468155
C49	C	0.943113	-0.035784	-0.066196
C50	C	1.443113	0.464216	0.433804
C51	C	0.941814	-0.113287	-0.066106
C52	C	1.441814	0.386713	0.433894
C53	C	0.928763	-0.663193	0.013427
C54	C	1.428763	-0.163193	0.513427
C55	C	0.929975	-0.590370	0.013347
C56	C	1.429975	-0.090370	0.513347
C57	C	0.934393	-0.557294	-0.065599
C58	C	1.434393	-0.057294	0.434401
C59	C	0.937579	-0.597044	-0.144470
C60	C	1.437579	-0.097044	0.355530
C61	C	0.936359	-0.669865	-0.144387
C62	C	1.436359	-0.169865	0.355613
N63	N	0.984289	-0.450815	-0.127632
N64	N	1.484289	0.049185	0.372368
N65	N	0.985450	-0.381638	-0.127706
N66	N	1.485450	0.118362	0.372294
C67	C	0.938067	-0.337889	-0.065854
C68	C	1.438067	0.162111	0.434146
N69	N	0.889489	-0.365930	-0.003914
N70	N	1.389489	0.134070	0.496086
N71	N	0.888332	-0.435113	-0.003838
N72	N	1.388332	0.064887	0.496162
C73	C	0.935716	-0.478332	-0.065698
C74	C	1.435716	0.021668	0.434302
C75	C	0.936190	-0.219183	0.012925
C76	C	1.436190	0.280817	0.512925
C77	C	0.937397	-0.146358	0.012841
C78	C	1.437397	0.353642	0.512841
C79	C	0.945009	-0.153035	-0.144978
C80	C	1.445009	0.346965	0.355022
C81	C	0.943794	-0.225858	-0.144892
C82	C	1.443794	0.274142	0.355108
C83	C	0.939388	-0.258928	-0.065939
C84	C	1.439388	0.241072	0.434061
C85	C	1.081953	0.086225	-0.075949
C86	C	1.581953	0.586225	0.424051
C87	C	1.170023	0.087258	-0.082137
C88	C	1.670023	0.587258	0.417863
C89	C	0.930653	0.219562	-0.065337
C90	C	1.430653	0.719562	0.434663
C91	C	0.931953	0.297065	-0.065433
C92	C	1.431953	0.797065	0.434567
N93	N	0.926946	0.100615	0.140230
N94	N	1.426946	0.600615	0.640230
N95	N	0.946826	0.083158	-0.271762
N96	N	1.446826	0.583158	0.228238
C97	C	0.978869	0.054889	0.181983
C98	C	1.478869	0.554889	0.681983
C99	C	0.974486	0.058752	0.273098
C100	C	1.474486	0.558752	0.773098
C101	C	0.918183	0.108345	0.322459
C102	C	1.418183	0.608345	0.822459
C103	C	0.866255	0.154073	0.280700
C104	C	1.366255	0.654073	0.780700
C105	C	0.870635	0.150206	0.189587
C106	C	1.370635	0.650206	0.689587
C107	C	0.899278	0.125019	0.595366
C108	C	1.399278	0.625019	1.095366
C109	C	0.894903	0.128884	0.686486
C110	C	1.394903	0.628884	1.186486
C111	C	1.003133	0.033562	0.678877
C112	C	1.503133	0.533562	1.178877
C113	C	1.007512	0.029702	0.587762
C114	C	1.507512	0.529702	1.087762
C115	C	0.955581	0.075427	0.546012
C116	C	1.455581	0.575427	1.046012
N117	N	0.913703	0.112297	0.415593
N118	N	1.413703	0.612297	0.915593
N119	N	0.960058	0.071472	0.452879
N120	N	1.460058	0.571472	0.952879
H121	H	0.184619	0.081287	-0.225840
H122	H	0.684619	0.581287	0.274160
C123	C	0.950133	-0.044360	-0.215171
C124	C	1.450133	0.455640	0.284829
C125	C	0.949777	-0.116675	-0.231752
C126	C	1.449777	0.383325	0.268248
H127	H	0.953053	-0.021909	-0.268743
H128	H	1.453053	0.478091	0.231257
H129	H	0.902541	-0.025585	-0.179461
H130	H	1.402541	0.474415	0.320539
H131	H	0.995058	-0.036542	-0.186076
H132	H	1.495058	0.463458	0.313924
H133	H	0.904848	-0.124493	-0.260842
H134	H	1.404848	0.375507	0.239158
H135	H	0.997374	-0.135456	-0.267477
H136	H	1.497374	0.364544	0.232523
H137	H	0.941173	-0.570109	-0.208748
H138	H	1.441173	-0.070109	0.291252
H139	H	1.024719	0.014508	0.141799
H140	H	1.524719	0.514508	0.641799
C141	C	0.668417	0.165398	0.165773
C142	C	1.168417	0.665398	0.665773
C143	C	0.699847	0.103589	0.115959
C144	C	1.199847	0.603589	0.615959
H145	H	0.693904	0.167993	0.217354
H146	H	1.193904	0.667993	0.717354
H147	H	0.677364	0.204886	0.132829
H148	H	1.177364	0.704886	0.632829
H149	H	0.612667	0.165224	0.180931
H150	H	1.112667	0.665224	0.680931
H151	H	0.755596	0.103765	0.100795
H152	H	1.255596	0.603765	0.600795
H153	H	0.690906	0.064091	0.148910
H154	H	1.190906	0.564091	0.648910
C155	C	0.921359	-0.649273	0.169415
C156	C	1.421359	-0.149273	0.669415
C157	C	0.923907	-0.699541	0.100213
C158	C	1.423907	-0.199541	0.600213
H159	H	0.918355	-0.671715	0.222992
H160	H	1.418355	-0.171715	0.722992
H161	H	0.968247	-0.626518	0.162852
H162	H	1.468247	-0.126518	0.662852
H163	H	0.875737	-0.615502	0.169340
H164	H	1.375737	-0.115502	0.669340
H165	H	0.969533	-0.733310	0.100284
H166	H	1.469533	-0.233310	0.600284
H167	H	0.877014	-0.722308	0.106777
H168	H	1.377014	-0.222308	0.606777
C169	C	0.881737	-0.245851	-0.274602
C170	C	1.381737	0.254149	0.225398
C171	C	0.947318	-0.269545	-0.231583
C172	C	1.447318	0.230455	0.268417
H173	H	0.883917	-0.272819	-0.328126
H174	H	1.383917	0.227181	0.171874
H175	H	0.833725	-0.250919	-0.238926
H176	H	1.333725	0.249081	0.261074
H177	H	0.883101	-0.197747	-0.285940
H178	H	1.383101	0.302253	0.214060
H179	H	0.945951	-0.317648	-0.220239
H180	H	1.445951	0.182352	0.279761
H181	H	0.995342	-0.264484	-0.267266
H182	H	1.495342	0.235516	0.232734
H183	H	0.932595	-0.246110	0.077214
H184	H	1.432595	0.253890	0.577214
H185	H	1.016764	0.021519	0.307093
H186	H	1.516764	0.521519	0.807093
H187	H	1.053357	-0.010681	0.547574
H188	H	1.553357	0.489319	1.047574
H189	H	0.934797	-0.114001	0.077062
H190	H	1.434797	0.385999	0.577062
C191	C	1.139268	-0.006724	0.697253
C192	C	1.639268	0.493276	1.197253
C193	C	1.060205	-0.016706	0.724770
C194	C	1.560205	0.483294	1.224770
H195	H	1.174500	-0.037759	0.725589
H196	H	1.674500	0.462241	1.225589
H197	H	1.149927	-0.016123	0.635933
H198	H	1.649927	0.483877	1.135933
H199	H	1.147000	0.040478	0.711590
H200	H	1.647000	0.540478	1.211590
H201	H	1.052472	-0.063908	0.710427
H202	H	1.552472	0.436092	1.210427
H203	H	1.049543	-0.007313	0.786104
H204	H	1.549543	0.492687	1.286104
H205	H	0.849053	0.169271	0.726672
H206	H	1.349053	0.669271	1.226672
H207	H	0.702964	0.090367	-0.192026
H208	H	1.202964	0.590367	0.307974
H209	H	0.856995	0.162251	0.561380
H210	H	1.356995	0.662251	1.061380
C211	C	0.871214	-0.747517	-0.231054
C212	C	1.371214	-0.247517	0.268946
C213	C	0.939868	-0.713556	-0.231075
C214	C	1.439868	-0.213556	0.268925
H215	H	0.873381	-0.774487	-0.284575
H216	H	1.373381	-0.274487	0.215425
H217	H	0.868419	-0.777632	-0.184028
H218	H	1.368419	-0.277632	0.315972
H219	H	0.825281	-0.713460	-0.224558
H220	H	1.325281	-0.213460	0.275442
H221	H	0.985801	-0.747613	-0.237565
H222	H	1.485801	-0.247613	0.262435
H223	H	0.942671	-0.683438	-0.278114
H224	H	1.442671	-0.183438	0.221886
H225	H	0.552846	0.088613	-0.181486
H226	H	1.052846	0.588613	0.318514
H227	H	0.320922	0.095172	0.049941
H228	H	0.820922	0.595172	0.549941
H229	H	0.820409	0.194451	0.320895
H230	H	1.320409	0.694451	0.820895
C231	C	0.763223	0.244822	0.206253
C232	C	1.263223	0.744822	0.706253
C233	C	0.813564	0.200473	0.143689
C234	C	1.313564	0.700473	0.643689
H235	H	0.727991	0.275856	0.177916
H236	H	1.227991	0.775856	0.677916
H237	H	0.733080	0.217364	0.243798
H238	H	1.233080	0.717364	0.743798
H239	H	0.794460	0.271331	0.239465
H240	H	1.294460	0.771331	0.739465
H241	H	0.782328	0.173959	0.110480
H242	H	1.282328	0.673959	0.610480
H243	H	0.843710	0.227933	0.106129
H244	H	1.343710	0.727933	0.606129
H245	H	0.539024	0.100728	0.104837
H246	H	1.039024	0.600728	0.604837
C247	C	0.208377	0.097803	0.149273
C248	C	0.708377	0.597803	0.649273
C249	C	0.157925	0.094234	0.083794
C250	C	0.657925	0.594234	0.583794
H251	H	0.177715	0.099753	0.204793
H252	H	0.677715	0.599753	0.704793
H253	H	0.246994	0.057330	0.143297
H254	H	0.746994	0.557330	0.643297
H255	H	0.234627	0.138756	0.144144
H256	H	0.734627	0.638756	0.644144
H257	H	0.131680	0.053278	0.088919
H258	H	0.631680	0.553278	0.588919
H259	H	0.119294	0.134712	0.089772
H260	H	0.619294	0.634712	0.589772
C261	C	0.858751	-0.496481	0.109587
C262	C	1.358751	0.003519	0.609587
C263	C	0.926468	-0.546668	0.100032
C264	C	1.426468	-0.046668	0.600032
H265	H	0.856584	-0.469505	0.163104
H266	H	1.356584	0.030495	0.663104
H267	H	0.861558	-0.466373	0.062555
H268	H	1.361558	0.033627	0.562555
H269	H	0.812182	-0.519531	0.109597
H270	H	1.312182	-0.019531	0.609597
H271	H	0.973036	-0.523617	0.100015
H272	H	1.473036	-0.023617	0.600015
H273	H	0.923667	-0.576780	0.147076
H274	H	1.423667	-0.076780	0.647076
H275	H	0.334749	0.083042	-0.236375
H276	H	0.834749	0.583042	0.263625
