data_functionalizedCrystal
_audit_creation_method	'MofGen! by Chris Wilmer'
_symmetry_space_group_name_H-M	'P1'
_symmetry_Int_Tables_number	1
_symmetry_cell_setting	triclinic
loop_
_symmetry_equiv_pos_as_xyz
  x,y,z
_cell_length_a	19.188930
_cell_length_b	27.732048
_cell_length_c	18.266242
_cell_angle_alpha	89.988683
_cell_angle_beta	89.977082
_cell_angle_gamma	82.893716
loop_
_atom_site_label
_atom_site_type_symbol
_atom_site_fract_x
_atom_site_fract_y
_atom_site_fract_z
O1	O	0.925764	0.060348	-0.061124
O2	O	0.722401	0.068472	-0.061075
O3	O	0.830399	-0.005968	-0.061087
O4	O	0.817767	0.134787	-0.061112
O5	O	0.830381	-0.005971	0.060675
O6	O	0.722383	0.068468	0.060687
O7	O	0.925746	0.060344	0.060638
Zn8	Zn	0.824062	0.064405	0.079995
Zn9	Zn	0.824086	0.064410	-0.080432
O10	O	0.817749	0.134783	0.060650
C11	C	0.696383	0.068207	-0.000187
C12	C	0.618883	0.067417	-0.000168
C13	C	0.573681	0.111096	-0.000187
C14	C	0.500862	0.110354	-0.000195
C15	C	0.473249	0.065931	-0.000199
C16	C	0.518461	0.022246	-0.000175
C17	C	0.591278	0.022990	-0.000160
N18	N	0.365491	0.031976	-0.041663
N19	N	0.296317	0.031273	-0.041679
C20	C	0.253854	0.063689	-0.000243
N21	N	0.283177	0.096842	0.041201
N22	N	0.352358	0.097546	0.041213
C23	C	0.394291	0.065120	-0.000215
C24	C	0.129692	0.106566	-0.000270
C25	C	0.056872	0.105822	-0.000273
C26	C	0.074473	0.017714	-0.000261
C27	C	0.147292	0.018459	-0.000250
C28	C	0.174897	0.062886	-0.000258
C29	C	0.830125	-0.023977	-0.000204
C30	C	0.829326	-0.077635	-0.000198
C31	C	0.888119	-0.416270	-0.000250
C32	C	0.885157	-0.617939	-0.000259
O33	O	0.938918	-0.649030	-0.000304
N34	N	0.821118	-0.637258	-0.000243
C35	C	0.757816	-0.606157	-0.000229
O36	O	0.703280	-0.627217	-0.000223
C37	C	0.760780	-0.404489	-0.000225
C38	C	0.824822	-0.385173	-0.000234
C39	C	0.952156	-0.396953	-0.000259
C40	C	0.952896	-0.346539	-0.000253
C41	C	0.889599	-0.315441	-0.000237
C42	C	0.825562	-0.334759	-0.000227
C43	C	0.697478	-0.373389	-0.000216
C44	C	0.698225	-0.322969	-0.000217
C45	C	0.762267	-0.303653	-0.000226
C46	C	0.763005	-0.253247	-0.000205
N47	N	0.827043	-0.233928	-0.000221
C48	C	0.890340	-0.265025	-0.000237
C49	C	0.756265	-0.712036	-0.000230
C50	C	0.755524	-0.762452	-0.000230
C51	C	0.882865	-0.774231	-0.000261
C52	C	0.883605	-0.723813	-0.000256
C53	C	0.820303	-0.692716	-0.000246
C54	C	0.891889	-0.159151	-0.000223
C55	C	0.892623	-0.108732	-0.000214
C56	C	0.765283	-0.096958	-0.000186
C57	C	0.764549	-0.147373	-0.000192
C58	C	0.827857	-0.178468	-0.000213
O59	O	0.709272	-0.222127	-0.000168
O60	O	0.944868	-0.243956	-0.000259
C61	C	0.887379	-0.466684	-0.000256
C62	C	0.823342	-0.486001	-0.000246
C63	C	0.760045	-0.454904	-0.000230
C64	C	0.822601	-0.536418	-0.000246
C65	C	0.885898	-0.567515	-0.000262
C66	C	0.949936	-0.548195	-0.000278
C67	C	0.950676	-0.497781	-0.000272
C68	C	0.696007	-0.474223	-0.000214
C69	C	0.695272	-0.524638	-0.000220
C70	C	0.758569	-0.555735	-0.000236
C71	C	0.951765	0.060609	-0.000251
C72	C	1.029264	0.061399	-0.000275
C73	C	0.818023	0.152793	-0.000235
C74	C	0.818821	0.206450	-0.000246
N75	N	0.824051	0.064402	0.189482
N76	N	0.824103	0.064410	-0.189919
C77	C	0.871887	0.031456	0.227785
C78	C	0.871892	0.031454	0.304430
C79	C	0.824066	0.064406	0.342769
C80	C	0.776220	0.097354	0.304456
C81	C	0.776213	0.097352	0.227813
N82	N	0.814718	0.107196	0.463095
N83	N	0.814729	0.107196	0.535903
C84	C	0.824086	0.064413	0.573691
N85	N	0.833444	0.021627	0.535921
N86	N	0.833436	0.021628	0.463106
C87	C	0.824069	0.064411	0.425876
C88	C	0.871930	0.031462	0.695102
C89	C	0.871929	0.031459	0.771748
C90	C	0.776261	0.097363	0.771772
C91	C	0.776258	0.097362	0.695127
C92	C	0.824096	0.064412	0.656797
H93	H	0.464051	0.145923	-0.000209
O94	O	1.012905	-0.479044	-0.000416
C95	C	1.051469	-0.494953	-0.063479
H96	H	1.014014	-0.505355	-0.107546
H97	H	1.080848	-0.464471	-0.084653
H98	H	1.090729	-0.527897	-0.049232
H99	H	0.152169	0.142741	-0.000266
O100	O	0.491607	-0.020894	-0.000311
C101	C	0.450037	-0.023953	-0.063373
H102	H	0.467015	0.001271	-0.107449
H103	H	0.457006	-0.062923	-0.084534
H104	H	0.392478	-0.012681	-0.049132
O105	O	0.945832	-0.705074	-0.000401
C106	C	0.984398	-0.720984	-0.063463
H107	H	0.946944	-0.731391	-0.107528
H108	H	1.013773	-0.690501	-0.084641
H109	H	1.023661	-0.753926	-0.049213
O110	O	1.011442	-0.578388	-0.000166
C111	C	1.050363	-0.569661	0.062875
H112	H	1.013314	-0.552359	0.106966
H113	H	1.078747	-0.605495	0.084029
H114	H	1.090501	-0.544071	0.048609
O115	O	0.954855	-0.089992	-0.000355
C116	C	0.993421	-0.105896	-0.063419
H117	H	0.955969	-0.116300	-0.107487
H118	H	1.022795	-0.075410	-0.084590
H119	H	1.032686	-0.138838	-0.049175
H120	H	1.005046	-0.330816	-0.000263
H121	H	0.628083	-0.012580	-0.000145
O122	O	0.953340	-0.189401	-0.000142
C123	C	0.956724	-0.218918	0.062926
H124	H	0.901331	-0.221367	0.083958
H125	H	0.983163	-0.256860	0.048736
H126	H	0.988415	-0.202396	0.107080
H127	H	0.020068	0.141392	-0.000285
O128	O	0.729768	0.129416	0.658029
C129	C	0.687543	0.158492	0.708299
H130	H	0.716167	0.158991	0.762918
H131	H	0.676471	0.197113	0.686146
H132	H	0.635850	0.142886	0.716483
O133	O	0.729735	0.129297	0.341776
C134	C	0.686940	0.103483	0.386131
H135	H	0.715162	0.065611	0.397611
H136	H	0.675683	0.123679	0.440025
H137	H	0.635373	0.100285	0.356624
H138	H	0.712400	-0.163101	-0.000164
O139	O	1.013712	-0.427088	-0.000240
C140	C	1.070382	-0.399216	-0.000268
H141	H	1.052228	-0.361554	0.022784
H142	H	1.114694	-0.417899	0.035078
H143	H	1.090051	-0.395658	-0.058686
O144	O	0.047542	-0.025397	-0.000298
C145	C	-0.026422	-0.016688	-0.000295
H146	H	-0.043917	0.021071	-0.023353
H147	H	-0.048457	-0.045103	-0.035648
H148	H	-0.046701	-0.018990	0.058117
H149	H	0.934404	-0.799559	-0.000274
H150	H	0.184097	-0.017109	-0.000238
H151	H	0.704714	-0.686720	-0.000222
O152	O	0.600379	0.154293	-0.000155
C153	C	0.544861	0.192686	-0.000191
H154	H	0.495520	0.179240	0.022850
H155	H	0.559723	0.223710	0.035161
H156	H	0.534446	0.206154	-0.058610
O157	O	0.918469	-0.000564	0.808845
C158	C	0.960677	-0.029652	0.758574
H159	H	0.961242	-0.009835	0.703933
H160	H	1.016516	-0.037116	0.780693
H161	H	0.938405	-0.065525	0.750446
O162	O	0.693252	-0.781133	-0.000246
C163	C	0.637548	-0.742869	-0.000215
H164	H	0.656752	-0.708656	-0.023269
H165	H	0.592808	-0.753307	-0.035557
H166	H	0.618041	-0.735702	0.058205
O167	O	0.635205	-0.392065	-0.000244
C168	C	0.579506	-0.353797	-0.000216
H169	H	0.598717	-0.319585	-0.023266
H170	H	0.534767	-0.364232	-0.035564
H171	H	0.559994	-0.346631	0.058202
H172	H	0.646676	-0.297652	-0.000210
H173	H	0.737318	0.124191	0.802987
H174	H	0.643117	-0.540360	-0.000206
H175	H	0.910838	0.004625	0.196579
H176	H	0.713749	-0.071630	-0.000171
O177	O	0.634453	-0.444088	-0.000162
C178	C	0.577780	-0.471957	-0.000168
H179	H	0.595924	-0.509627	0.022871
H180	H	0.533458	-0.453283	0.035201
H181	H	0.558129	-0.475498	-0.058578
H182	H	0.910847	0.004625	0.335623
H183	H	0.737257	0.124181	0.196625
O184	O	0.918317	-0.000539	0.657757
C185	C	0.881285	-0.030307	0.613430
H186	H	0.826423	-0.010987	0.601992
H187	H	0.910506	-0.037959	0.559512
H188	H	0.876980	-0.066046	0.642938
