data_functionalizedCrystal
_audit_creation_method	'MofGen! by Chris Wilmer'
_symmetry_space_group_name_H-M	'P1'
_symmetry_Int_Tables_number	1
_symmetry_cell_setting	triclinic
loop_
_symmetry_equiv_pos_as_xyz
  x,y,z
_cell_length_a	23.204063
_cell_length_b	23.204065
_cell_length_c	23.204116
_cell_angle_alpha	59.997987
_cell_angle_beta	89.998953
_cell_angle_gamma	60.000253
loop_
_atom_site_label
_atom_site_type_symbol
_atom_site_fract_x
_atom_site_fract_y
_atom_site_fract_z
O1	O	-0.491197	-0.412484	0.017135
O2	O	-0.407392	-0.294473	-0.017070
O3	O	-0.407389	-0.412483	0.100940
O4	O	-0.491200	-0.294474	-0.100875
O5	O	-0.311538	-0.508333	0.100940
O6	O	-0.311541	-0.390323	-0.017071
O7	O	-0.395346	-0.508335	0.017135
Cu8	Cu	-0.344692	-0.458081	0.000032
Cu9	Cu	-0.458046	-0.344727	0.000033
O10	O	-0.395349	-0.390324	-0.100876
C11	C	-0.310652	-0.181456	-0.024838
C12	C	-0.346214	-0.110333	-0.019942
C13	C	-0.241294	-0.215971	-0.025323
C14	C	-0.310655	-0.285810	-0.024846
C15	C	-0.346219	-0.326263	-0.019957
C16	C	-0.241297	-0.320167	-0.025331
C17	C	-0.206293	-0.285815	-0.024838
C18	C	-0.130274	-0.326273	-0.019941
C19	C	-0.345497	-0.215967	-0.025331
C20	C	-0.658540	-0.590043	0.035860
C21	C	-0.734559	-0.549588	0.030967
C22	C	-0.623539	-0.659889	0.036349
C23	C	-0.554183	-0.590040	0.035855
C24	C	-0.518621	-0.549582	0.030958
C25	C	-0.519339	-0.659886	0.036344
C26	C	-0.554182	-0.694402	0.035859
C27	C	-0.518619	-0.765527	0.030967
C28	C	-0.623539	-0.555686	0.036345
C29	C	-0.489889	-0.822989	0.027012
C30	C	-0.795974	-0.516903	0.027013
C31	C	-0.489891	-0.516895	0.027000
C32	C	-0.453845	-0.895077	0.022052
C33	C	-0.873022	-0.475899	0.022054
C34	C	-0.453848	-0.475888	0.022036
C35	C	-0.554187	-0.212776	-0.445775
C36	C	-0.518624	-0.253233	-0.481336
C37	C	-0.623545	-0.142931	-0.480619
C38	C	-0.554188	-0.212775	-0.341416
C39	C	-0.518626	-0.253231	-0.265397
C40	C	-0.623546	-0.142930	-0.376419
C41	C	-0.658547	-0.108416	-0.445777
C42	C	-0.734566	-0.037291	-0.481340
C43	C	-0.519344	-0.247131	-0.376417
C44	C	-0.795982	0.020169	-0.510072
C45	C	-0.489893	-0.285920	-0.510065
C46	C	-0.489896	-0.285917	-0.203980
C47	C	-0.873032	0.092257	-0.546117
C48	C	-0.453848	-0.326925	-0.546108
C49	C	-0.453852	-0.326922	-0.126930
O50	O	0.100922	-0.508345	0.017151
O51	O	-0.100892	-0.390333	-0.017055
O52	O	0.017109	-0.508348	0.100956
O53	O	-0.017080	-0.390330	-0.100860
O54	O	0.017112	-0.412502	0.100963
O55	O	-0.100890	-0.294486	-0.017048
O56	O	0.100924	-0.412499	0.017158
Cu57	Cu	0.000018	-0.344741	0.000056
Cu58	Cu	0.000014	-0.458090	0.000048
O59	O	-0.017077	-0.294483	-0.100853
O60	O	-0.395342	0.083766	0.017156
O61	O	-0.311534	-0.083842	-0.017048
O62	O	-0.311538	-0.083852	0.100962
O63	O	-0.395338	0.083777	-0.100854
O64	O	-0.407391	-0.083849	0.100954
O65	O	-0.407387	-0.083839	-0.017056
O66	O	-0.491195	0.083770	0.017149
Cu67	Cu	-0.458043	-0.000034	0.000046
Cu68	Cu	-0.344686	-0.000038	0.000055
O69	O	-0.491191	0.083780	-0.100861
O70	O	-1.100901	0.281028	-0.592582
O71	O	-0.899087	0.113413	-0.508770
O72	O	-1.017091	0.113409	-0.508767
O73	O	-0.982897	0.281032	-0.592584
O74	O	-1.017088	0.113407	-0.604617
O75	O	-0.899085	0.113411	-0.604619
O76	O	-1.100898	0.281026	-0.688432
Cu77	Cu	-0.999991	0.197218	-0.655277
Cu78	Cu	-0.999994	0.197221	-0.541924
O79	O	-0.982895	0.281030	-0.688434
O80	O	-0.407389	-0.412483	-0.688416
O81	O	-0.491197	-0.294477	-0.604610
O82	O	-0.491195	-0.412486	-0.604605
O83	O	-0.407390	-0.294474	-0.688421
O84	O	-0.395343	-0.508338	-0.508754
O85	O	-0.395345	-0.390329	-0.508759
O86	O	-0.311537	-0.508334	-0.592565
Cu87	Cu	-0.344689	-0.458084	-0.541910
Cu88	Cu	-0.458045	-0.344728	-0.655265
O89	O	-0.311539	-0.390326	-0.592570
C90	C	-0.206294	-0.621360	0.310702
C91	C	-0.130275	-0.692485	0.346265
C92	C	-0.241296	-0.586846	0.345545
C93	C	-0.310654	-0.517001	0.206342
C94	C	-0.346216	-0.476544	0.130323
C95	C	-0.345497	-0.482645	0.241343
C96	C	-0.310653	-0.517001	0.310701
C97	C	-0.346216	-0.476544	0.346263
C98	C	-0.241296	-0.586846	0.241345
C99	C	0.024887	-0.517030	0.310724
C100	C	0.019993	-0.476577	0.346290
C101	C	0.025371	-0.586874	0.345565
C102	C	0.024889	-0.517022	0.206362
C103	C	0.019998	-0.476562	0.130342
C104	C	0.025374	-0.586867	0.241361
C105	C	0.024884	-0.621384	0.310718
C106	C	0.019987	-0.692509	0.346278
C107	C	0.025377	-0.482671	0.241366
C108	C	-0.310656	-0.285855	0.310709
C109	C	-0.346220	-0.326314	0.346266
C110	C	-0.241298	-0.320218	0.345555
C111	C	-0.310655	-0.181484	0.206357
C112	C	-0.346217	-0.110348	0.130340
C113	C	-0.241296	-0.216005	0.241362
C114	C	-0.206295	-0.285860	0.310717
C115	C	-0.130275	-0.326323	0.346282
C116	C	-0.345499	-0.216001	0.241354
C117	C	-0.035774	-0.108410	-0.445754
C118	C	-0.030877	-0.037285	-0.481314
C119	C	-0.036262	-0.142920	-0.480600
C120	C	-0.035780	-0.212771	-0.341397
C121	C	-0.030889	-0.253231	-0.265377
C122	C	-0.036268	-0.247124	-0.376401
C123	C	-0.035777	-0.212765	-0.445759
C124	C	-0.030883	-0.253218	-0.481324
C125	C	-0.036265	-0.142927	-0.376396
C126	C	-0.026928	-0.285901	-0.510056
C127	C	-0.026920	0.020175	-0.510042
C128	C	-0.026936	-0.285920	-0.203961
C129	C	-0.021967	-0.326903	-0.546103
C130	C	-0.021955	0.092262	-0.546083
C131	C	-0.021978	-0.326928	-0.126911
O132	O	-0.017120	-0.390358	0.491266
O133	O	0.017098	-0.508368	0.407461
O134	O	-0.100916	-0.390357	0.407446
O135	O	0.100893	-0.508369	0.491281
O136	O	-0.100904	-0.294507	0.311599
O137	O	0.017110	-0.412518	0.311614
O138	O	-0.017109	-0.294509	0.395420
Cu139	Cu	0.000001	-0.344761	0.344766
Cu140	Cu	-0.000012	-0.458115	0.458115
O141	O	0.100905	-0.412519	0.395435
C142	C	-0.658539	0.410016	-0.445751
C143	C	-0.734559	0.450479	-0.481316
C144	C	-0.623536	0.444375	-0.480590
C145	C	-0.554179	0.305641	-0.341392
C146	C	-0.518616	0.234505	-0.265374
C147	C	-0.519335	0.340158	-0.376388
C148	C	-0.554178	0.410013	-0.445743
C149	C	-0.518614	0.450471	-0.481300
C150	C	-0.623537	0.340162	-0.376396
C151	C	-0.489883	0.483159	-0.510025
C152	C	-0.795975	0.483170	-0.510049
C153	C	-0.489886	0.177036	-0.203959
C154	C	-0.453838	0.524167	-0.546063
C155	C	-0.873025	0.524182	-0.546095
C156	C	-0.453842	0.104937	-0.126912
H157	H	-0.402486	-0.187075	-0.026121
C158	C	-0.203925	-0.625358	0.203842
C159	C	-0.241458	-0.648525	0.184440
C160	C	-0.207049	-0.683997	0.149891
H161	H	-0.157521	-0.672007	0.234586
H162	H	-0.201541	-0.587046	0.162810
H163	H	-0.243834	-0.686835	0.225466
H164	H	-0.287861	-0.601891	0.153688
H165	H	-0.204665	-0.645685	0.108859
H166	H	-0.160646	-0.730643	0.180639
H167	H	-0.232513	-0.699714	0.136717
H168	H	0.026169	-0.615754	0.213258
C169	C	-0.203911	-0.625444	0.421584
C170	C	-0.241460	-0.648628	0.464118
C171	C	-0.207040	-0.684205	0.534170
H172	H	-0.201488	-0.587209	0.424394
H173	H	-0.157513	-0.672101	0.437446
H174	H	-0.287846	-0.601978	0.448261
H175	H	-0.243885	-0.686872	0.461330
H176	H	-0.160641	-0.730861	0.550032
H177	H	-0.204619	-0.645965	0.536973
H178	H	-0.232508	-0.699946	0.563039
C179	C	-0.037178	-0.322156	-0.338917
C180	C	0.022895	-0.386008	-0.335453
C181	C	0.022083	-0.455138	-0.300919
H182	H	-0.078288	-0.310085	-0.364258
H183	H	-0.037355	-0.337819	-0.292490
H184	H	0.023067	-0.370347	-0.381872
H185	H	0.064015	-0.398104	-0.310107
H186	H	0.021906	-0.470801	-0.254492
H187	H	-0.019029	-0.443058	-0.326264
H188	H	0.062845	-0.498471	-0.298559
C189	C	0.026261	-0.625265	0.421501
C190	C	-0.033827	-0.568651	0.425259
C191	C	-0.033040	-0.603991	0.495194
H192	H	0.067361	-0.641033	0.450554
H193	H	0.026442	-0.671871	0.437334
H194	H	-0.034001	-0.522061	0.409435
H195	H	-0.074937	-0.552879	0.396222
H196	H	-0.032860	-0.650596	0.511027
H197	H	0.008062	-0.619758	0.524241
H198	H	-0.073812	-0.565587	0.497752
H199	H	-0.651645	-0.499479	0.037123
H200	H	-0.651642	-0.688773	0.037135
C201	C	-0.421433	-0.407602	0.203873
C202	C	-0.425176	-0.343777	0.200432
C203	C	-0.495110	-0.274632	0.165919
H204	H	-0.450471	-0.419670	0.229219
H205	H	-0.437291	-0.391915	0.157441
H206	H	-0.409327	-0.359461	0.246856
H207	H	-0.396153	-0.331684	0.175081
H208	H	-0.510968	-0.258946	0.119487
H209	H	-0.524143	-0.286708	0.191269
H210	H	-0.497658	-0.231317	0.163574
C211	C	0.026313	-0.407655	0.203940
C212	C	-0.033756	-0.343816	0.200494
C213	C	-0.032915	-0.274705	0.166028
H214	H	0.026502	-0.391942	0.157514
H215	H	0.067440	-0.419791	0.229335
H216	H	-0.074872	-0.331682	0.175098
H217	H	-0.033958	-0.359503	0.246910
H218	H	0.008212	-0.286841	0.191424
H219	H	-0.032724	-0.259000	0.119604
H220	H	-0.073667	-0.231385	0.163692
C221	C	-0.661082	0.519440	-0.556517
C222	C	-0.721446	0.583276	-0.560254
C223	C	-0.756041	0.652447	-0.630178
H224	H	-0.674378	0.507419	-0.585589
H225	H	-0.630307	0.535090	-0.572340
H226	H	-0.752216	0.567629	-0.544441
H227	H	-0.708171	0.595322	-0.531198
H228	H	-0.725266	0.668096	-0.646001
H229	H	-0.769332	0.640417	-0.659245
H230	H	-0.796998	0.695770	-0.632722
H231	H	-0.462354	-0.688766	0.037124
C232	C	-0.203905	-0.177360	0.203921
C233	C	-0.241449	-0.097271	0.184555
C234	C	-0.207020	-0.061653	0.150077
H235	H	-0.201478	-0.176983	0.162881
H236	H	-0.157508	-0.207898	0.234719
H237	H	-0.287833	-0.066741	0.153758
H238	H	-0.243878	-0.097625	0.225582
H239	H	-0.160623	-0.092191	0.180875
H240	H	-0.204594	-0.061282	0.109040
H241	H	-0.232485	-0.007312	0.136939
C242	C	-0.443379	-0.322114	-0.338800
C243	C	-0.420237	-0.344959	-0.270434
C244	C	-0.350273	-0.414041	-0.235754
H245	H	-0.414308	-0.310055	-0.364092
H246	H	-0.440693	-0.365546	-0.336348
H247	H	-0.422919	-0.301536	-0.272890
H248	H	-0.449289	-0.357034	-0.245123
H249	H	-0.347587	-0.457473	-0.233301
H250	H	-0.321208	-0.401975	-0.261051
H251	H	-0.334565	-0.429555	-0.189362
H252	H	-0.213202	-0.376423	0.402543
C253	C	-0.037437	-0.104333	-0.556628
C254	C	-0.098153	-0.081130	-0.599203
C255	C	-0.099258	-0.045569	-0.669240
H256	H	0.003232	-0.142582	-0.559415
H257	H	-0.037682	-0.057687	-0.572474
H258	H	-0.097901	-0.127770	-0.583362
H259	H	-0.138832	-0.042872	-0.596438
H260	H	-0.099503	0.001077	-0.685086
H261	H	-0.058586	-0.083822	-0.672019
H262	H	-0.140456	-0.029814	-0.698137
C263	C	-0.421532	-0.177409	0.203957
C264	C	-0.464081	-0.154247	0.241504
C265	C	-0.534124	-0.118683	0.207068
H266	H	-0.424325	-0.215646	0.201521
H267	H	-0.437392	-0.130745	0.157563
H268	H	-0.448226	-0.200905	0.287886
H269	H	-0.461309	-0.116002	0.243941
H270	H	-0.549984	-0.072019	0.160673
H271	H	-0.536910	-0.156924	0.204634
H272	H	-0.563004	-0.102956	0.232534
C273	C	-0.661015	0.301697	-0.338841
C274	C	-0.664463	0.301373	-0.278448
C275	C	-0.698985	0.265954	-0.243838
H276	H	-0.635674	0.247318	-0.325574
H277	H	-0.707445	0.332283	-0.369597
H278	H	-0.618041	0.270787	-0.247697
H279	H	-0.689808	0.355742	-0.291694
H280	H	-0.745415	0.296540	-0.274594
H281	H	-0.673641	0.211577	-0.230576
H282	H	-0.701335	0.265736	-0.202861
C283	C	-0.037462	-0.104287	-0.339004
C284	C	-0.098177	-0.024193	-0.376553
C285	C	-0.099312	0.011421	-0.342122
H286	H	0.003207	-0.103921	-0.336572
H287	H	-0.037729	-0.134821	-0.292608
H288	H	-0.097905	0.006334	-0.422936
H289	H	-0.138857	-0.024535	-0.378986
H290	H	-0.099578	-0.019114	-0.295726
H291	H	-0.058640	0.011781	-0.339692
H292	H	-0.140509	0.065765	-0.367590
C293	C	-0.203869	-0.395180	-0.026268
C294	C	-0.200426	-0.459021	0.033799
C295	C	-0.165960	-0.528130	0.032957
H296	H	-0.157442	-0.410892	-0.026453
H297	H	-0.229261	-0.383042	-0.067398
H298	H	-0.175033	-0.471159	0.074919
H299	H	-0.246843	-0.443336	0.033997
H300	H	-0.191352	-0.515992	-0.008173
H301	H	-0.119536	-0.543834	0.032769
H302	H	-0.163625	-0.571452	0.073708
C303	C	-0.203806	-0.177421	-0.026536
C304	C	-0.184452	-0.154276	-0.087268
C305	C	-0.149913	-0.118763	-0.088425
H306	H	-0.162758	-0.215683	0.014123
H307	H	-0.234563	-0.130755	-0.026795
H308	H	-0.153697	-0.200936	-0.087003
H309	H	-0.225488	-0.116006	-0.127937
H310	H	-0.180670	-0.072097	-0.088684
H311	H	-0.108868	-0.157030	-0.047764
H312	H	-0.136783	-0.103048	-0.129634
C313	C	-0.660886	-0.104506	-0.338846
C314	C	-0.615364	-0.149701	-0.270488
C315	C	-0.649734	-0.114323	-0.235862
H316	H	-0.701889	-0.104205	-0.336370
H317	H	-0.674069	-0.050151	-0.364202
H318	H	-0.602192	-0.204042	-0.245139
H319	H	-0.574361	-0.150005	-0.272944
H320	H	-0.662917	-0.059968	-0.261218
H321	H	-0.690736	-0.114023	-0.233391
H322	H	-0.618851	-0.144977	-0.189480
C323	C	-0.660886	-0.104512	-0.556615
C324	C	-0.615364	-0.149709	-0.579775
C325	C	-0.649732	-0.114329	-0.649782
H326	H	-0.674066	-0.050167	-0.585628
H327	H	-0.701896	-0.104211	-0.559376
H328	H	-0.574367	-0.150001	-0.577019
H329	H	-0.602182	-0.204053	-0.550782
H330	H	-0.690742	-0.114028	-0.652543
H331	H	-0.662911	-0.059984	-0.678788
H332	H	-0.618853	-0.144994	-0.665503
C333	C	-0.443339	0.301499	-0.338809
C334	C	-0.420177	0.232806	-0.270454
C335	C	-0.350175	0.197171	-0.235821
H336	H	-0.440564	0.339722	-0.336328
H337	H	-0.414336	0.285685	-0.364163
H338	H	-0.449172	0.248622	-0.245106
H339	H	-0.422934	0.194565	-0.272914
H340	H	-0.321171	0.181357	-0.261175
H341	H	-0.347407	0.235400	-0.233345
H342	H	-0.334449	0.150555	-0.189441
