data_functionalizedCrystal
_audit_creation_method	'MofGen! by Chris Wilmer'
_symmetry_space_group_name_H-M	'P1'
_symmetry_Int_Tables_number	1
_symmetry_cell_setting	triclinic
loop_
_symmetry_equiv_pos_as_xyz
  x,y,z
_cell_length_a	15.944551
_cell_length_b	15.944551
_cell_length_c	7.540329
_cell_angle_alpha	89.995457
_cell_angle_beta	90.001531
_cell_angle_gamma	83.498738
loop_
_atom_site_label
_atom_site_type_symbol
_atom_site_fract_x
_atom_site_fract_y
_atom_site_fract_z
O1	O	1.114522	0.108331	-0.147301
O2	O	0.869973	0.121687	-0.147346
O3	O	0.998926	-0.007266	-0.147306
O4	O	0.985569	0.237284	-0.147341
O5	O	0.998918	-0.007267	0.147659
O6	O	0.869965	0.121685	0.147619
O7	O	1.114515	0.108329	0.147664
Cu8	Cu	0.992239	0.115007	0.174574
Cu9	Cu	0.992248	0.115009	-0.174256
O10	O	0.985562	0.237282	0.147624
C11	C	0.838675	0.121132	0.000131
C12	C	0.745429	0.119470	0.000115
C13	C	0.998367	-0.038561	0.000176
C14	C	0.996705	-0.131807	0.000177
C15	C	0.530572	0.035565	0.000161
C16	C	0.469556	0.074528	-0.145278
C17	C	0.574703	0.116462	0.000136
C18	C	0.469571	0.074546	0.145534
C19	C	0.409790	0.113551	0.000164
C20	C	0.514915	0.155448	-0.145423
C21	C	0.514936	0.155454	0.145520
C22	C	0.453937	0.194476	0.000046
C23	C	0.669705	0.118137	0.000118
C24	C	0.314789	0.111883	0.000170
C25	C	0.912801	-0.346663	0.000137
C26	C	0.951759	-0.407681	0.145580
C27	C	0.993698	-0.302533	0.000163
C28	C	0.951786	-0.407663	-0.145232
C29	C	0.990787	-0.467445	0.000141
C30	C	1.032679	-0.362322	0.145726
C31	C	1.032694	-0.362298	-0.145217
C32	C	1.071711	-0.423298	0.000261
C33	C	0.995372	-0.207530	0.000177
C34	C	0.989119	-0.562446	0.000140
C35	C	1.145813	0.108885	0.000183
C36	C	1.239059	0.110547	0.000188
C37	C	0.986120	0.268577	0.000138
C38	C	0.987782	0.361823	0.000125
N39	N	0.992239	0.115005	0.419923
N40	N	0.992255	0.115004	-0.419605
H41	H	0.449449	0.040313	-0.268227
H42	H	0.845652	-0.313356	0.000270
H43	H	0.917540	-0.427790	0.268528
H44	H	1.066863	-0.342333	0.268821
H45	H	0.420779	0.261683	-0.000045
O46	O	1.151900	-0.462827	0.000679
C47	C	1.285105	-0.484507	0.154346
C48	C	1.194310	-0.439702	0.154104
H49	H	1.319425	-0.465813	0.278357
H50	H	1.283309	-0.555780	0.153285
H51	H	1.319817	-0.465052	0.031485
H52	H	1.159545	-0.459088	0.276944
H53	H	1.196167	-0.368438	0.155073
H54	H	1.066884	-0.342167	-0.268172
O55	O	0.910846	-0.431512	-0.291872
C56	C	0.780785	-0.419279	-0.457504
C57	C	0.827061	-0.392192	-0.291395
H58	H	0.713032	-0.387516	-0.457154
H59	H	0.814555	-0.399688	-0.581497
H60	H	0.780500	-0.490745	-0.456772
H61	H	0.827360	-0.320731	-0.291955
H62	H	0.793277	-0.411846	-0.167476
H63	H	0.535064	0.189641	0.268475
O64	O	0.570282	-0.044551	-0.000313
C65	C	0.592308	-0.177689	-0.154131
C66	C	0.547294	-0.086979	-0.153821
H67	H	0.573724	-0.212024	-0.278210
H68	H	0.663556	-0.175720	-0.152984
H69	H	0.572921	-0.212498	-0.031340
H70	H	0.566611	-0.052117	-0.276592
H71	H	0.476054	-0.089010	-0.154876
H72	H	0.534906	0.189639	-0.268514
H73	H	0.449481	0.040314	0.268487
