data_functionalizedCrystal
_audit_creation_method	'MofGen! by Chris Wilmer'
_symmetry_space_group_name_H-M	'P1'
_symmetry_Int_Tables_number	1
_symmetry_cell_setting	triclinic
loop_
_symmetry_equiv_pos_as_xyz
  x,y,z
_cell_length_a	10.686220
_cell_length_b	12.759400
_cell_length_c	10.686551
_cell_angle_alpha	94.404840
_cell_angle_beta	89.691918
_cell_angle_gamma	94.394725
loop_
_atom_site_label
_atom_site_type_symbol
_atom_site_fract_x
_atom_site_fract_y
_atom_site_fract_z
Zn1	Zn	1.972298	-0.256137	0.562391
Zn2	Zn	1.956076	-0.446297	0.352635
Zn3	Zn	1.746417	-0.283013	0.368709
Zn4	Zn	1.762506	-0.444167	0.578413
O5	O	1.859324	-0.357404	0.465537
O6	O	2.145687	-0.271006	0.521134
O7	O	1.914742	-0.436775	0.179222
O8	O	1.776436	-0.132422	0.394422
O9	O	2.133769	-0.410715	0.367028
O10	O	1.942390	-0.112676	0.536719
O11	O	1.760707	-0.316812	0.191031
O12	O	1.573010	-0.314747	0.409958
O13	O	1.803857	-0.407086	0.751833
O14	O	1.584830	-0.433147	0.564027
O15	O	1.957990	-0.268941	0.740061
O16	O	1.930343	-0.593040	0.382564
O17	O	1.788128	-0.591476	0.548442
C18	C	1.533404	-0.376633	0.490476
C19	C	1.393976	-0.384883	0.501175
C20	C	1.859257	-0.630376	0.465522
C21	C	1.859346	-0.747145	0.465549
C22	C	1.945723	-0.791644	0.539712
C23	C	1.945783	-0.901362	0.539738
C24	C	1.773086	-0.922075	0.391428
C25	C	1.773021	-0.812358	0.391409
C26	C	2.032048	-0.726431	0.613852
C27	C	2.118433	-0.770929	0.688020
C28	C	2.118494	-0.880647	0.688046
C29	C	2.032169	-0.945868	0.613904
C30	C	2.186517	-0.338100	0.440501
C31	C	2.325947	-0.329874	0.429832
C32	C	1.884528	-0.334778	0.792737
C33	C	1.895268	-0.325137	0.932170
C34	C	1.859428	-0.083361	0.465576
C35	C	1.859472	0.033419	0.465593
C36	C	1.834290	-0.379861	0.139604
C37	C	1.823793	-0.389192	0.000153
H38	H	1.374370	-0.276468	0.360565
N39	N	1.680000	-0.992413	0.311446
H40	H	1.591836	-0.977327	0.337708
H41	H	1.693263	-1.068642	0.322739
H42	H	1.345547	-0.438299	0.570438
H43	H	2.032011	-0.637092	0.613836
H44	H	1.964688	-0.262920	0.980642
H45	H	2.188709	-0.717821	0.748392
H46	H	2.188823	-0.916874	0.748447
N47	N	1.679861	-0.764366	0.311407
H48	H	1.726387	-0.719833	0.249404
H49	H	1.625605	-0.718834	0.366870
N50	N	2.032220	-1.064208	0.613942
H51	H	2.100035	-1.082504	0.672180
H52	H	2.048692	-1.095158	0.526103
N53	N	1.731854	-0.471614	0.935966
H54	H	1.736956	-0.467052	0.842118
H55	H	1.644008	-0.458987	0.965661
