data_functionalizedCrystal
_audit_creation_method	'MofGen! by Chris Wilmer'
_symmetry_space_group_name_H-M	'P1'
_symmetry_Int_Tables_number	1
_symmetry_cell_setting	triclinic
loop_
_symmetry_equiv_pos_as_xyz
  x,y,z
_cell_length_a	10.654544
_cell_length_b	14.971486
_cell_length_c	13.448316
_cell_angle_alpha	90.006811
_cell_angle_beta	89.992199
_cell_angle_gamma	95.950510
loop_
_atom_site_label
_atom_site_type_symbol
_atom_site_fract_x
_atom_site_fract_y
_atom_site_fract_z
O1	O	1.666498	-0.125633	-0.082717
O2	O	1.300891	-0.137602	-0.082714
O3	O	1.493494	-0.001471	-0.082709
O4	O	1.473896	-0.261764	-0.082723
O5	O	1.493470	-0.001462	0.082675
O6	O	1.300867	-0.137593	0.082670
O7	O	1.666474	-0.125624	0.082666
Cu8	Cu	1.483668	-0.131608	0.097769
Cu9	Cu	1.483697	-0.131618	-0.097817
O10	O	1.473871	-0.261755	0.082661
C11	C	1.254091	-0.136719	-0.000022
C12	C	1.114675	-0.134090	-0.000020
C13	C	1.114624	-0.134091	0.180286
C14	C	1.049102	-0.132858	0.270437
C15	C	0.918110	-0.130386	0.270432
C16	C	0.852637	-0.129144	0.180268
C17	C	0.918160	-0.130376	0.090118
C18	C	1.049154	-0.132851	0.090132
C19	C	0.918212	-0.130369	-0.090186
C20	C	1.049203	-0.132847	-0.090184
C21	C	0.852740	-0.129126	-0.180350
C22	C	0.918261	-0.130365	-0.270503
C23	C	1.049261	-0.132838	-0.270495
C24	C	1.114725	-0.134079	-0.180334
C25	C	1.492605	0.031863	-0.000017
C26	C	1.489979	0.131175	-0.000018
C27	C	1.713275	-0.126507	-0.000028
C28	C	1.852690	-0.129136	-0.000036
C29	C	1.474760	-0.295089	-0.000033
C30	C	1.477386	-0.394401	-0.000038
N31	N	1.483657	-0.131600	0.235333
C32	C	1.603128	0.187784	-0.000018
C33	C	1.600652	0.281097	-0.000028
C34	C	1.485027	0.317799	-0.000031
C35	C	1.371869	0.261182	-0.000033
C36	C	1.374346	0.167871	-0.000031
C37	C	1.366715	0.455672	-0.000037
C38	C	1.364238	0.548990	-0.000038
C39	C	1.593021	0.568899	-0.000035
C40	C	1.595498	0.475588	-0.000032
C41	C	1.482340	0.418977	-0.000033
N42	N	1.483718	-0.131619	-0.235381
C43	C	1.568968	-0.071346	0.287376
C44	C	1.568976	-0.071346	0.391479
C45	C	1.483678	-0.131604	0.443538
C46	C	1.398358	-0.191861	0.391488
C47	C	1.398345	-0.191856	0.287387
C48	C	1.398393	-0.191867	0.608468
C49	C	1.398407	-0.191873	0.712576
C50	C	1.569024	-0.071356	0.712561
C51	C	1.569011	-0.071352	0.608459
C52	C	1.483692	-0.131610	0.556416
H53	H	0.746080	-0.127107	-0.180347
Br54	Br	1.214946	0.310990	-0.000054
H55	H	1.221282	-0.136116	0.180299
H56	H	1.328875	-0.240920	0.245014
H57	H	0.864944	-0.129348	-0.343907
H58	H	1.328913	-0.240933	0.566098
H59	H	1.328900	-0.240921	0.433880
H60	H	1.328947	-0.240940	0.754957
Br61	Br	1.137961	-0.134542	0.392796
Br62	Br	0.829184	-0.128699	0.392779
Br63	Br	1.213142	0.378844	-0.000042
Br64	Br	1.220781	0.091041	-0.000038
H65	H	1.697284	0.157910	-0.000010
Br66	Br	1.292500	-0.137443	-0.180316
H67	H	0.745979	-0.127120	0.180273
H68	H	1.102602	-0.133839	-0.343906
Br69	Br	1.684746	0.010431	0.216736
H70	H	1.692790	0.327186	-0.000026
H71	H	1.638442	-0.022282	0.433852
Br72	Br	1.752420	0.425779	-0.000031
Br73	Br	1.207316	0.598799	-0.000037
Br74	Br	1.746594	0.645726	-0.000036
H75	H	1.638473	-0.022290	0.566073
H76	H	1.638493	-0.022292	0.754940
