data_functionalizedCrystal
_audit_creation_method	'MofGen! by Chris Wilmer'
_symmetry_space_group_name_H-M	'P1'
_symmetry_Int_Tables_number	1
_symmetry_cell_setting	triclinic
loop_
_symmetry_equiv_pos_as_xyz
  x,y,z
_cell_length_a	25.639243
_cell_length_b	25.639240
_cell_length_c	12.594509
_cell_angle_alpha	90.041310
_cell_angle_beta	90.023577
_cell_angle_gamma	90.035481
loop_
_atom_site_label
_atom_site_type_symbol
_atom_site_fract_x
_atom_site_fract_y
_atom_site_fract_z
Zn1	Zn	0.799286	-0.208097	0.601827
Zn2	Zn	1.299286	0.291903	1.101827
Zn3	Zn	0.799207	-0.295539	0.423808
Zn4	Zn	1.299207	0.204461	0.923808
Zn5	Zn	0.711851	-0.208124	0.423849
Zn6	Zn	1.211851	0.291876	0.923849
Zn7	Zn	0.711816	-0.295507	0.601731
Zn8	Zn	1.211816	0.204493	1.101731
O9	O	0.755540	-0.251817	0.512804
O10	O	1.255540	0.248183	1.012804
O11	O	0.872441	-0.219699	0.578236
O12	O	1.372441	0.280301	1.078236
O13	O	0.787600	-0.283968	0.274868
O14	O	1.287600	0.216032	0.774868
O15	O	0.723497	-0.134955	0.447516
O16	O	1.223497	0.365045	0.947516
O17	O	0.872383	-0.283942	0.447446
O18	O	1.372383	0.216058	0.947446
O19	O	0.787735	-0.134935	0.578275
O20	O	1.287735	0.365065	1.078275
O21	O	0.723420	-0.219744	0.274898
O22	O	1.223420	0.280256	0.774898
O23	O	0.638681	-0.219713	0.447422
O24	O	1.138681	0.280287	0.947422
O25	O	0.723438	-0.283888	0.750690
O26	O	1.223438	0.216112	1.250690
O27	O	0.638656	-0.283914	0.578112
O28	O	1.138656	0.216086	1.078112
O29	O	0.787702	-0.219668	0.750760
O30	O	1.287702	0.280332	1.250760
O31	O	0.787567	-0.368700	0.447352
O32	O	1.287567	0.131300	0.947352
O33	O	0.723361	-0.368677	0.578072
O34	O	1.223361	0.131323	1.078072
C35	C	0.619697	-0.251813	0.512762
C36	C	1.119697	0.248187	1.012762
C37	C	0.561583	-0.251824	0.512769
C38	C	1.061583	0.248176	1.012769
C39	C	0.201245	-0.218418	0.581020
C40	C	0.701245	0.281582	1.081020
C41	C	0.146641	-0.218417	0.581026
C42	C	0.646641	0.281583	1.081026
O43	O	0.118425	-0.190004	0.639003
O44	O	0.618425	0.309996	1.139003
N45	N	0.119301	-0.251815	0.512833
N46	N	0.619301	0.248185	1.012833
C47	C	0.146568	-0.285212	0.444621
C48	C	0.646568	0.214788	0.944621
O49	O	0.118300	-0.313619	0.386618
O50	O	0.618300	0.186381	0.886618
C51	C	0.201172	-0.285210	0.444610
C52	C	0.701172	0.214790	0.944610
C53	C	0.228509	-0.251813	0.512815
C54	C	0.728509	0.248187	1.012815
C55	C	0.228582	-0.185024	0.649219
C56	C	0.728582	0.314976	1.149219
C57	C	0.283183	-0.185025	0.649213
C58	C	0.783183	0.314975	1.149213
C59	C	0.310446	-0.218420	0.581009
C60	C	0.810446	0.281580	1.081009
C61	C	0.283109	-0.251814	0.512810
C62	C	0.783109	0.248186	1.012810
C63	C	0.228438	-0.318603	0.376394
C64	C	0.728438	0.181397	0.876394
C65	C	0.283045	-0.318598	0.376388
C66	C	0.783045	0.181402	0.876388
C67	C	0.310382	-0.285201	0.444593
C68	C	0.810382	0.214799	0.944593
C69	C	0.364973	-0.285211	0.444600
C70	C	0.864973	0.214789	0.944600
N71	N	0.392313	-0.251813	0.512793
N72	N	0.892313	0.248187	1.012793
C73	C	0.365049	-0.218418	0.580998
C74	C	0.865049	0.281582	1.080998
C75	C	0.031898	-0.285214	0.444649
C76	C	0.531898	0.214786	0.944649
C77	C	-0.022705	-0.285220	0.444664
C78	C	0.477295	0.214780	0.944664
C79	C	-0.022629	-0.218424	0.581068
C80	C	0.477371	0.281576	1.081068
C81	C	0.031975	-0.218422	0.581057
C82	C	0.531975	0.281578	1.081057
C83	C	0.059237	-0.251816	0.512842
C84	C	0.559237	0.248184	1.012842
C85	C	0.479714	-0.218423	0.580982
C86	C	0.979714	0.281577	1.080982
C87	C	0.534320	-0.218429	0.580973
C88	C	1.034320	0.281571	1.080973
C89	C	0.534239	-0.285222	0.444566
C90	C	1.034239	0.214778	0.944566
C91	C	0.479638	-0.285219	0.444578
C92	C	0.979638	0.214781	0.944578
C93	C	0.452377	-0.251815	0.512789
C94	C	0.952377	0.248185	1.012789
O95	O	0.393224	-0.313608	0.386650
O96	O	0.893224	0.186392	0.886650
O97	O	0.393325	-0.190011	0.638982
O98	O	0.893325	0.309989	1.138982
C99	C	0.755466	-0.387659	0.512720
C100	C	1.255466	0.112341	1.012720
C101	C	0.755482	-0.445774	0.512720
C102	C	1.255482	0.054226	1.012720
C103	C	0.789005	-0.806088	0.581013
C104	C	1.289005	-0.306088	1.081013
C105	C	0.789021	-0.860692	0.581035
C106	C	1.289021	-0.360692	1.081035
O107	O	0.817436	-0.888887	0.639014
O108	O	1.317436	-0.388887	1.139014
N109	N	0.755613	-0.888056	0.512907
N110	N	1.255613	-0.388056	1.012907
C111	C	0.722183	-0.860813	0.444760
C112	C	1.222183	-0.360813	0.944760
O113	O	0.693767	-0.889102	0.386814
O114	O	1.193767	-0.389102	0.886814
C115	C	0.722165	-0.806209	0.444745
C116	C	1.222165	-0.306209	0.944745
C117	C	0.755579	-0.778848	0.512870
C118	C	1.255579	-0.278848	1.012870
C119	C	0.822417	-0.778727	0.649134
C120	C	1.322417	-0.278727	1.149134
C121	C	0.822402	-0.724126	0.649110
C122	C	1.322402	-0.224126	1.149110
C123	C	0.788976	-0.696887	0.580967
C124	C	1.288976	-0.196887	1.080967
C125	C	0.755565	-0.724248	0.512846
C126	C	1.255565	-0.224248	1.012846
C127	C	0.688733	-0.778967	0.376604
C128	C	1.188733	-0.278967	0.876604
C129	C	0.688718	-0.724360	0.376595
C130	C	1.188718	-0.224360	0.876595
C131	C	0.722132	-0.696999	0.444720
C132	C	1.222132	-0.196999	0.944720
C133	C	0.722124	-0.642408	0.444679
C134	C	1.222124	-0.142408	0.944679
N135	N	0.755532	-0.615044	0.512808
N136	N	1.255532	-0.115044	1.012808
C137	C	0.788958	-0.642283	0.580951
C138	C	1.288958	-0.142283	1.080951
C139	C	0.722222	-0.975483	0.444799
C140	C	1.222222	-0.475483	0.944799
C141	C	0.722242	-1.030086	0.444808
C142	C	1.222242	-0.530086	0.944808
C143	C	0.789079	-1.029961	0.581085
C144	C	1.289079	-0.529961	1.081085
C145	C	0.789062	-0.975358	0.581069
C146	C	1.289062	-0.475358	1.081069
C147	C	0.755630	-0.948119	0.512927
C148	C	1.255630	-0.448119	1.012927
C149	C	0.788925	-0.527618	0.580897
C150	C	1.288925	-0.027618	1.080897
C151	C	0.788908	-0.473013	0.580864
C152	C	1.288908	0.026987	1.080864
C153	C	0.722069	-0.473142	0.444592
C154	C	1.222069	0.026858	0.944592
C155	C	0.722087	-0.527743	0.444620
C156	C	1.222087	-0.027743	0.944620
C157	C	0.755517	-0.554979	0.512781
C158	C	1.255517	-0.054979	1.012781
O159	O	0.693722	-0.614178	0.386733
O160	O	1.193722	-0.114178	0.886733
O161	O	0.817364	-0.613988	0.638897
O162	O	1.317364	-0.113988	1.138897
C163	C	0.891913	-0.251821	0.512847
C164	C	1.391913	0.248179	1.012847
C165	C	0.950027	-0.251823	0.512865
C166	C	1.450027	0.248177	1.012865
C167	C	0.755575	-0.251771	0.790425
C168	C	1.255575	0.248229	1.290425
C169	C	0.755590	-0.251752	0.908730
C170	C	1.255590	0.248248	1.408730
C171	C	0.755628	-0.115444	0.512911
C172	C	1.255628	0.384556	1.012911
C173	C	0.755666	-0.057330	0.512956
C174	C	1.255666	0.442670	1.012956
C175	C	0.755535	-0.251825	0.236263
C176	C	1.255535	0.248175	0.736263
C177	C	0.755622	-0.251697	0.117958
C178	C	1.255622	0.248303	0.617958
C179	C	0.720648	-0.286661	0.977945
C180	C	1.220648	0.213339	1.477945
C181	C	0.768352	-0.299433	1.048734
C182	C	1.268352	0.200567	1.548734
C183	C	0.707923	-0.238948	1.048741
C184	C	1.207923	0.261052	1.548741
C185	C	0.803319	-0.264549	0.977961
C186	C	1.303319	0.235451	1.477961
C187	C	0.742858	-0.204041	0.977962
C188	C	1.242858	0.295959	1.477962
C189	C	0.790595	-0.216795	1.048718
C190	C	1.290595	0.283205	1.548718
H191	H	0.556447	-0.312413	0.389038
H192	H	1.056447	0.187587	0.889038
H193	H	0.667599	-0.228141	1.079833
H194	H	1.167599	0.271859	1.579833
H195	H	0.843655	-0.275402	0.947000
H196	H	1.343655	0.224598	1.447000
H197	H	0.206390	-0.157826	0.704759
H198	H	0.706390	0.342174	1.204759
H199	H	0.054229	-0.191226	0.636594
H200	H	0.554229	0.308774	1.136594
H201	H	0.556575	-0.191233	0.636518
H202	H	1.056575	0.308767	1.136518
Br203	Br	0.724858	-0.136849	0.926106
Br204	Br	1.224858	0.363151	1.426106
H205	H	0.849609	-0.701852	0.704587
H206	H	1.349609	-0.201852	1.204587
Br207	Br	0.442726	-0.173089	0.673554
Br208	Br	0.942726	0.326911	1.173554
Br209	Br	0.676708	-0.436164	0.352114
Br210	Br	1.176708	0.063836	0.852114
Br211	Br	0.867784	-0.815684	0.741633
Br212	Br	1.367784	-0.315684	1.241633
Br213	Br	0.786332	-0.366643	1.100548
Br214	Br	1.286332	0.133357	1.600548
H215	H	0.816120	-0.450737	0.636339
H216	H	1.316120	0.049263	1.136339
H217	H	0.305239	-0.345791	0.320836
H218	H	0.805239	0.154209	0.820836
Br219	Br	0.839922	-0.167551	1.100193
Br220	Br	1.339922	0.332449	1.600193
Br221	Br	0.671435	-0.335939	0.926149
Br222	Br	1.171435	0.164061	1.426149
Br223	Br	-0.059640	-0.173100	0.673630
Br224	Br	0.440360	0.326900	1.173630
H225	H	0.054091	-0.312413	0.389102
H226	H	0.554091	0.187587	0.889102
H227	H	0.305435	-0.157829	0.704751
H228	H	0.805435	0.342171	1.204751
H229	H	-0.044958	-0.312421	0.389137
H230	H	0.455042	0.187579	0.889137
Br231	Br	0.834411	-0.938231	0.673528
Br232	Br	1.334411	-0.438231	1.173528
Br233	Br	0.191352	-0.363920	0.283802
Br234	Br	0.691352	0.136080	0.783802
H235	H	0.816143	-0.549788	0.636407
H236	H	1.316143	-0.049788	1.136407
Br237	Br	0.442537	-0.330560	0.352049
Br238	Br	0.942537	0.169440	0.852049
Br239	Br	0.676747	-0.564877	0.352147
Br240	Br	1.176747	-0.064877	0.852147
H241	H	0.816296	-1.052150	0.636573
H242	H	1.316296	-0.552150	1.136573
H243	H	0.695038	-1.052358	0.389323
H244	H	1.195038	-0.552358	0.889323
H245	H	0.661524	-0.801235	0.321129
H246	H	1.161524	-0.301235	0.821129
Br247	Br	0.643343	-0.687397	0.284113
Br248	Br	1.143343	-0.187397	0.784113
Br249	Br	0.676849	-0.938522	0.352306
Br250	Br	1.176849	-0.438522	0.852306
