data_functionalizedCrystal
_audit_creation_method	'MofGen! by Chris Wilmer'
_symmetry_space_group_name_H-M	'P1'
_symmetry_Int_Tables_number	1
_symmetry_cell_setting	triclinic
loop_
_symmetry_equiv_pos_as_xyz
  x,y,z
_cell_length_a	13.897449
_cell_length_b	13.897448
_cell_length_c	16.959447
_cell_angle_alpha	89.970632
_cell_angle_beta	89.983048
_cell_angle_gamma	90.018519
loop_
_atom_site_label
_atom_site_type_symbol
_atom_site_fract_x
_atom_site_fract_y
_atom_site_fract_z
Zn1	Zn	1.474641	-0.383975	-0.446969
Zn2	Zn	1.474553	-0.545293	-0.314793
Zn3	Zn	1.313349	-0.384016	-0.314801
Zn4	Zn	1.313312	-0.545232	-0.446926
O5	O	1.393964	-0.464629	-0.380872
O6	O	1.609611	-0.405382	-0.429451
O7	O	1.453148	-0.523942	-0.204183
O8	O	1.334796	-0.249029	-0.332355
O9	O	1.609547	-0.523902	-0.332342
O10	O	1.453297	-0.248998	-0.429459
O11	O	1.334711	-0.405452	-0.204189
O12	O	1.178362	-0.405393	-0.332312
O13	O	1.334734	-0.523798	-0.557542
O14	O	1.178335	-0.523838	-0.429384
O15	O	1.453262	-0.405323	-0.557575
O16	O	1.453112	-0.680266	-0.332299
O17	O	1.334649	-0.680221	-0.429376
C18	C	1.143350	-0.464614	-0.380845
C19	C	1.036136	-0.464631	-0.380852
C20	C	0.949066	-0.464634	-0.380865
C21	C	0.839833	-0.464641	-0.380889
C22	C	1.393893	-0.715243	-0.380849
C23	C	1.393952	-0.822457	-0.380866
C24	C	1.394053	-1.018752	-0.380916
C25	C	1.393994	-0.909520	-0.380890
C26	C	1.645557	-0.464644	-0.380900
C27	C	1.752771	-0.464651	-0.380912
C28	C	1.394004	-0.464549	-0.587041
C29	C	1.394021	-0.464515	-0.674897
C30	C	1.394061	-0.213036	-0.380913
C31	C	1.394102	-0.105822	-0.380930
C32	C	1.332424	-0.526097	-1.046359
C33	C	1.455848	-0.402729	-1.046387
C34	C	1.455823	-0.402749	-0.963841
C35	C	1.394098	-0.464446	-0.922550
C36	C	1.332399	-0.526122	-0.963805
C37	C	1.517528	-0.341081	-0.922580
C38	C	1.517505	-0.341100	-0.840029
C39	C	1.455775	-0.402792	-0.798737
C40	C	1.394072	-0.464470	-0.839997
C41	C	1.332348	-0.526167	-0.798706
C42	C	1.270639	-0.587840	-0.839964
C43	C	1.270668	-0.587814	-0.922513
C44	C	1.455746	-0.402818	-0.716188
C45	C	1.332322	-0.526191	-0.716152
C46	C	1.393979	-0.464639	-0.175506
C47	C	1.394149	-0.464401	-0.087650
H48	H	1.282049	-0.576424	-0.682539
O49	O	1.210714	-0.647681	-0.799728
C50	C	1.156037	-0.702431	-0.672535
C51	C	1.223932	-0.634599	-0.718007
H52	H	1.166715	-0.691893	-0.606455
H53	H	1.078246	-0.685481	-0.688698
H54	H	1.172936	-0.780197	-0.688796
H55	H	1.207120	-0.556811	-0.701769
H56	H	1.301703	-0.651633	-0.701840
H57	H	1.282180	-0.576308	-1.079955
H58	H	1.506107	-0.352504	-1.080011
H59	H	1.567751	-0.290881	-0.806444
O60	O	1.210823	-0.647690	-0.962713
C61	C	1.156127	-0.702282	-1.089873
C62	C	1.223964	-0.634442	-1.044442
H63	H	1.166713	-0.691581	-1.155960
H64	H	1.173028	-0.780090	-1.073686
H65	H	1.078359	-0.685352	-1.073600
H66	H	1.301754	-0.651286	-1.060691
H67	H	1.206980	-0.556655	-1.060634
O68	O	1.577401	-0.281193	-0.962811
C69	C	1.632189	-0.226541	-1.090000
C70	C	1.564312	-0.294396	-1.044533
H71	H	1.621645	-0.237206	-1.156081
H72	H	1.615289	-0.148740	-1.073849
H73	H	1.709943	-0.243492	-1.073722
H74	H	1.486535	-0.277531	-1.060787
H75	H	1.581295	-0.372176	-1.060688
O76	O	1.515713	-0.342827	-0.676233
C77	C	1.638188	-0.220509	-0.684977
C78	C	1.570307	-0.288389	-0.730324
H79	H	1.682359	-0.176493	-0.728690
H80	H	1.593959	-0.170011	-0.646363
H81	H	1.688549	-0.264827	-0.646297
H82	H	1.519932	-0.244148	-0.769046
H83	H	1.614595	-0.338890	-0.768888
