data_functionalizedCrystal
_audit_creation_method	'MofGen! by Chris Wilmer'
_symmetry_space_group_name_H-M	'P1'
_symmetry_Int_Tables_number	1
_symmetry_cell_setting	triclinic
loop_
_symmetry_equiv_pos_as_xyz
  x,y,z
_cell_length_a	11.169417
_cell_length_b	25.639239
_cell_length_c	11.169409
_cell_angle_alpha	90.039836
_cell_angle_beta	90.019513
_cell_angle_gamma	90.040534
loop_
_atom_site_label
_atom_site_type_symbol
_atom_site_fract_x
_atom_site_fract_y
_atom_site_fract_z
Zn1	Zn	1.834721	-0.208091	0.678470
Zn2	Zn	1.834509	-0.295541	0.477761
Zn3	Zn	1.634007	-0.208123	0.477806
Zn4	Zn	1.633913	-0.295499	0.678407
O5	O	1.734287	-0.251814	0.578111
O6	O	2.002643	-0.219695	0.651853
O7	O	1.807862	-0.283976	0.309817
O8	O	1.660760	-0.134954	0.504470
O9	O	2.002487	-0.283945	0.504393
O10	O	1.808224	-0.134930	0.651897
O11	O	1.660554	-0.219751	0.309850
O12	O	1.466045	-0.219710	0.504408
O13	O	1.660600	-0.283873	0.846365
O14	O	1.465976	-0.283905	0.651789
O15	O	1.808133	-0.219655	0.846412
O16	O	1.807771	-0.368701	0.504332
O17	O	1.660394	-0.368670	0.651745
C18	C	1.422463	-0.251807	0.578097
C19	C	1.289063	-0.251816	0.578120
C20	C	1.734082	-0.387656	0.578053
C21	C	1.734104	-0.445770	0.578068
C22	C	1.657534	-0.696960	0.654845
C23	C	1.657489	-0.642356	0.654831
O24	O	1.592189	-0.614116	0.720069
N25	N	1.734255	-0.615044	0.578131
C26	C	1.811080	-0.642340	0.501449
O27	O	1.876372	-0.614095	0.436209
C28	C	1.811129	-0.696943	0.501470
C29	C	1.734349	-0.724252	0.578166
C30	C	1.580761	-0.724269	0.731536
C31	C	1.580804	-0.778870	0.731548
C32	C	1.657620	-0.806161	0.654869
C33	C	1.734393	-0.778852	0.578178
C34	C	1.887959	-0.724237	0.424794
C35	C	1.888002	-0.778844	0.424822
C36	C	1.811222	-0.806153	0.501519
C37	C	1.811252	-0.860745	0.501511
N38	N	1.734485	-0.888056	0.578211
C39	C	1.657670	-0.860765	0.654890
C40	C	1.810971	-0.527669	0.501412
C41	C	1.810916	-0.473067	0.501384
C42	C	1.657327	-0.473087	0.654768
C43	C	1.657377	-0.527690	0.654789
C44	C	1.734205	-0.554981	0.578112
C45	C	1.657765	-0.975430	0.654909
C46	C	1.657812	-1.030035	0.654910
C47	C	1.811405	-1.030010	0.501531
C48	C	1.811355	-0.975410	0.501524
C49	C	1.734531	-0.948121	0.578223
O50	O	1.876522	-0.889019	0.436310
O51	O	1.592399	-0.889016	0.720130
C52	C	2.047330	-0.251821	0.578125
C53	C	2.180730	-0.251824	0.578132
C54	C	1.734380	-0.251756	0.891153
C55	C	1.734419	-0.251731	1.024554
C56	C	1.734526	-0.115441	0.578195
C57	C	1.734628	-0.057327	0.578231
C58	C	1.734265	-0.251834	0.266286
C59	C	1.734458	-0.251711	0.132887
H60	H	1.595210	-0.953217	0.717365
N61	N	1.574477	-0.443642	0.737474
H62	H	1.623211	-0.420945	0.793121
H63	H	1.525860	-0.469257	0.785990
N64	N	1.894145	-0.945951	0.418786
H65	H	1.942807	-0.971528	0.370207
H66	H	1.949649	-0.923255	0.467679
H67	H	1.873531	-0.549886	0.438962
H68	H	1.518280	-0.801100	0.794000
H69	H	1.873942	-1.052241	0.439097
H70	H	1.950570	-0.801062	0.362385
H71	H	1.594862	-0.549921	0.717249
H72	H	1.595286	-1.052267	0.717368
H73	H	1.873424	-0.450836	0.438918
N74	N	1.497902	-0.694838	0.814245
H75	H	1.449282	-0.720432	0.862823
H76	H	1.442360	-0.672231	0.765334
N77	N	1.970786	-0.694792	0.342085
H78	H	2.019458	-0.720374	0.293531
H79	H	2.026281	-0.672098	0.390996
