data_functionalizedCrystal
_audit_creation_method	'MofGen! by Chris Wilmer'
_symmetry_space_group_name_H-M	'P1'
_symmetry_Int_Tables_number	1
_symmetry_cell_setting	triclinic
loop_
_symmetry_equiv_pos_as_xyz
  x,y,z
_cell_length_a	16.109301
_cell_length_b	10.654550
_cell_length_c	14.586319
_cell_angle_alpha	89.996358
_cell_angle_beta	89.999213
_cell_angle_gamma	83.973206
loop_
_atom_site_label
_atom_site_type_symbol
_atom_site_fract_x
_atom_site_fract_y
_atom_site_fract_z
O1	O	1.104091	0.161419	-0.076182
O2	O	0.862148	0.181507	-0.076197
O3	O	0.988682	-0.011352	-0.076183
O4	O	0.977557	0.354278	-0.076195
O5	O	0.988673	-0.011354	0.076298
O6	O	0.862139	0.181504	0.076284
O7	O	1.104082	0.161416	0.076299
Cu8	Cu	0.983110	0.171460	0.090214
Cu9	Cu	0.983120	0.171463	-0.090112
O10	O	0.977548	0.354275	0.076285
C11	C	0.831164	0.180692	0.000042
C12	C	0.738854	0.178253	0.000037
C13	C	0.987861	-0.058140	0.000057
C14	C	0.985417	-0.197550	0.000055
C15	C	0.517228	0.287019	0.000044
C16	C	0.430494	0.284717	0.000049
C17	C	0.449008	0.055896	0.000053
C18	C	0.535741	0.058199	0.000054
C19	C	0.569848	0.173764	0.000044
C20	C	0.396382	0.169159	0.000050
C21	C	0.302341	0.166662	0.000056
C22	C	0.663895	0.176262	0.000040
C23	C	1.059918	-0.278046	0.000059
C24	C	1.057616	-0.409036	0.000048
C25	C	0.906306	-0.379020	0.000032
C26	C	0.908608	-0.248033	0.000037
C27	C	1.145364	-0.606070	-0.053373
C28	C	1.219869	-0.686572	-0.053353
C29	C	1.287407	-0.657317	0.000086
C30	C	1.280443	-0.547563	0.053528
C31	C	1.205937	-0.467068	0.053516
C32	C	1.138402	-0.496322	0.000056
C33	C	0.820866	-0.050997	0.053465
C34	C	0.746359	0.029500	0.053460
C35	C	0.678814	0.000249	0.000026
C36	C	0.685770	-0.109507	-0.053402
C37	C	0.760277	-0.190004	-0.053397
C38	C	0.827822	-0.160745	0.000036
C39	C	1.135066	0.162231	0.000058
C40	C	1.227376	0.164671	0.000058
C41	C	0.978369	0.401063	0.000043
C42	C	0.980813	0.540473	0.000039
N43	N	0.983108	0.171457	0.217046
N44	N	0.983128	0.171457	-0.216944
C45	C	1.039156	0.086088	0.452058
C46	C	1.039159	0.086084	0.548040
C47	C	0.927074	0.256830	0.548037
C48	C	0.927068	0.256826	0.452058
C49	C	0.983114	0.171456	0.404071
C50	C	0.983122	0.171457	0.596031
C51	C	0.983124	0.171455	0.700099
C52	C	0.983111	0.171457	0.299997
H53	H	0.544996	0.381119	0.000043
H54	H	0.387654	0.376940	0.000051
C55	C	0.476020	-0.170051	0.000057
C56	C	0.411515	-0.071130	0.000053
H57	H	0.452873	-0.248471	0.000059
H58	H	0.509465	-0.164387	-0.053111
H59	H	0.509462	-0.164390	0.053236
H60	H	0.378076	-0.076785	-0.053130
H61	H	0.378057	-0.076796	0.053226
H62	H	0.578586	-0.034032	0.000057
H63	H	1.122460	-0.236948	0.000072
C64	C	0.751084	0.117774	0.204590
C65	C	0.738707	0.150147	0.112191
H66	H	0.746363	0.192258	0.240844
H67	H	0.710163	0.065099	0.223360
H68	H	0.805127	0.074028	0.212229
H69	H	0.684661	0.193885	0.104551
H70	H	0.779629	0.202843	0.093415
H71	H	0.881428	0.326344	0.412983
H72	H	1.200265	-0.377712	0.097031
H73	H	0.881444	0.326338	0.587118
C74	C	1.375383	-0.612476	0.175585
C75	C	1.354681	-0.515417	0.112282
H76	H	1.421218	-0.592628	0.211853
H77	H	1.328790	-0.621271	0.214078
H78	H	1.390193	-0.689350	0.143751
H79	H	1.339865	-0.438544	0.144116
H80	H	1.401284	-0.506607	0.073784
C81	C	1.215183	-0.774810	-0.204500
C82	C	1.227530	-0.807204	-0.112102
H83	H	1.219919	-0.849286	-0.240764
H84	H	1.161150	-0.731067	-0.212156
H85	H	1.256116	-0.722125	-0.223247
H86	H	1.186593	-0.859881	-0.093353
H87	H	1.281571	-0.850967	-0.104441
C88	C	0.835591	-0.566487	0.000030
C89	C	0.821881	-0.434516	0.000026
H90	H	0.783469	-0.600743	0.000034
H91	H	0.866295	-0.594108	-0.053140
H92	H	0.866298	-0.594112	0.053208
H93	H	0.791180	-0.406891	-0.053156
H94	H	0.791165	-0.406885	0.053200
C95	C	0.755568	-0.278259	-0.204532
C96	C	0.767934	-0.310645	-0.112134
H97	H	0.760302	-0.352737	-0.240792
H98	H	0.701531	-0.234524	-0.212177
H99	H	0.796494	-0.225569	-0.223291
H100	H	0.727004	-0.363328	-0.093373
H101	H	0.821979	-0.354401	-0.104484
H102	H	1.084792	0.016568	0.587108
C103	C	0.587204	-0.258212	-0.084446
C104	C	0.611523	-0.141666	-0.112140
H105	H	0.541362	-0.278058	-0.120704
H106	H	0.632568	-0.321850	-0.092094
H107	H	0.571177	-0.253759	-0.021760
H108	H	0.627556	-0.146122	-0.174825
H109	H	0.566151	-0.078013	-0.104500
C110	C	1.149940	-0.082697	0.461705
C111	C	1.100753	-0.007761	0.399310
H112	H	1.187962	-0.140643	0.429140
H113	H	1.180148	-0.030410	0.499131
H114	H	1.115064	-0.127875	0.499149
H115	H	1.135628	0.037424	0.361870
H116	H	1.070542	-0.060055	0.361869
H117	H	1.090378	-0.629892	-0.096901
H118	H	1.348071	-0.722871	0.000101
H119	H	0.618142	0.065794	0.000039
H120	H	0.875872	-0.027152	0.096959
