data_functionalizedCrystal
_audit_creation_method	'MofGen! by Chris Wilmer'
_symmetry_space_group_name_H-M	'P1'
_symmetry_Int_Tables_number	1
_symmetry_cell_setting	triclinic
loop_
_symmetry_equiv_pos_as_xyz
  x,y,z
_cell_length_a	26.455835
_cell_length_b	26.455273
_cell_length_c	26.451828
_cell_angle_alpha	60.005170
_cell_angle_beta	60.010757
_cell_angle_gamma	59.993435
loop_
_atom_site_label
_atom_site_type_symbol
_atom_site_fract_x
_atom_site_fract_y
_atom_site_fract_z
O1	O	0.069940	-0.738516	0.617604
O2	O	0.026299	-0.574986	0.497618
O3	O	0.129847	-0.678463	0.497546
O4	O	-0.033607	-0.635040	0.617676
O5	O	0.164197	-0.644116	0.531822
O6	O	0.060649	-0.540639	0.531894
O7	O	0.104290	-0.704170	0.651880
Cu8	Cu	0.085606	-0.619268	0.595016
Cu9	Cu	0.044984	-0.659887	0.554481
O10	O	0.000742	-0.600693	0.651952
N11	N	0.114179	-0.590703	0.623530
N12	N	0.016416	-0.688458	0.525968
C13	C	0.157553	-0.547535	0.933368
C14	C	0.424104	-0.547506	0.666656
C15	C	0.157413	-0.547503	0.666729
C16	C	0.157397	-0.280846	0.666749
C17	C	0.200330	-0.409550	0.709625
C18	C	0.200339	-0.504608	0.709615
C19	C	0.224118	-0.480848	0.733375
C20	C	0.327800	-0.462984	0.678792
C21	C	0.392611	-0.484588	0.657175
C22	C	0.392630	-0.589450	0.697162
C23	C	0.327821	-0.567844	0.718781
C24	C	0.215955	-0.377135	0.645910
C25	C	0.194327	-0.312320	0.624323
C26	C	0.141457	-0.312339	0.730169
C27	C	0.163084	-0.377154	0.751756
C28	C	0.136618	-0.488954	0.725292
C29	C	0.115007	-0.510553	0.703686
C30	C	0.220833	-0.563461	0.650740
C31	C	0.242447	-0.541861	0.672339
C32	C	0.136680	-0.488971	0.837094
C33	C	0.115112	-0.510589	0.901907
C34	C	0.220969	-0.563508	0.901868
C35	C	0.242535	-0.541892	0.837053
C36	C	0.200389	-0.504622	0.804668
C37	C	0.295409	-0.504610	0.709593
C38	C	0.132990	-0.570876	1.004655
C39	C	0.495389	-0.570440	0.642547
C40	C	0.132802	-0.570856	0.643399
C41	C	0.133212	-0.209553	0.643833
C42	C	-0.097217	-0.706972	0.506986
C43	C	-0.002040	-0.707108	0.412067
C44	C	-0.002230	-0.802124	0.507163
C45	C	-0.002214	-0.707101	0.507221
C46	C	-0.025925	-0.730827	0.483360
N47	N	0.553723	-0.590712	0.623415
O48	O	0.751638	-0.596429	0.475603
O49	O	0.751819	-0.716773	0.638980
O50	O	0.751753	-0.716500	0.535361
O51	O	0.751705	-0.596703	0.579222
O52	O	0.648791	-0.682239	0.569747
O53	O	0.648858	-0.682512	0.673366
O54	O	0.648676	-0.562169	0.509989
Cu55	Cu	0.639366	-0.619212	0.594817
Cu56	Cu	0.761130	-0.659729	0.554152
O57	O	0.648743	-0.562442	0.613609
N58	N	0.846773	-0.688230	0.525548
N59	N	0.114157	-0.151217	0.623565
O60	O	-0.033591	0.046803	0.617717
O61	O	0.129795	0.046806	0.497390
O62	O	0.026157	0.046789	0.497680
O63	O	0.070046	0.046819	0.617427
O64	O	0.060509	-0.056181	0.532004
O65	O	0.164146	-0.056164	0.531714
O66	O	0.000760	-0.056167	0.652041
Cu67	Cu	0.085590	-0.065568	0.595012
Cu68	Cu	0.044965	0.056206	0.554419
O69	O	0.104397	-0.056151	0.651751
N70	N	0.016390	0.141855	0.525867
N71	N	0.114410	-0.590756	1.062992
O72	O	0.108565	-0.738494	1.260998
O73	O	-0.011747	-0.575059	1.261012
O74	O	-0.011470	-0.678679	1.260970
O75	O	0.108287	-0.634874	1.261040
O76	O	0.022849	-0.644347	1.158004
O77	O	0.022572	-0.540726	1.158046
O78	O	0.142884	-0.704162	1.158033
Cu79	Cu	0.085861	-0.619309	1.148638
Cu80	Cu	0.045275	-0.659911	1.270406
O81	O	0.142606	-0.600541	1.158074
N82	N	0.016726	-0.688471	1.356052
C83	C	0.039385	-0.537207	0.498225
C84	C	0.167616	-0.665350	0.498136
C85	C	0.091204	-0.741950	0.651272
C86	C	-0.037027	-0.613806	0.651361
C87	C	0.700360	-0.716215	0.676756
C88	C	0.700279	-0.715877	0.548436
C89	C	0.700133	-0.562725	0.472214
C90	C	0.700218	-0.563065	0.600533
C91	C	0.167511	-0.004552	0.497940
C92	C	0.039211	-0.004699	0.498341
C93	C	-0.036999	-0.004682	0.651449
C94	C	0.091344	-0.004663	0.651090
C95	C	-0.011156	-0.537302	1.209530
C96	C	-0.010806	-0.665617	1.209458
C97	C	0.142293	-0.741918	1.209514
C98	C	0.141950	-0.613596	1.209563
H99	H	0.102355	-0.458618	0.810728
C100	C	-0.114008	-0.481933	1.262450
C101	C	-0.062152	-0.473938	1.209532
H102	H	-0.145491	-0.442814	1.262447
H103	H	-0.102760	-0.500454	1.298357
H104	H	-0.128946	-0.507945	1.262428
H105	H	-0.047211	-0.447929	1.209557
H106	H	-0.073401	-0.455407	1.173616
H107	H	-0.048413	-0.674973	1.209396
H108	H	0.700298	-0.753510	0.539047
H109	H	0.700073	-0.524942	0.425295
C110	C	-0.138678	-0.540911	0.680150
C111	C	-0.100401	-0.601314	0.702292
H112	H	-0.177801	-0.533199	0.711596
H113	H	-0.144082	-0.536261	0.644977
H114	H	-0.120113	-0.512307	0.668872
H115	H	-0.118964	-0.629919	0.713566
H116	H	-0.094999	-0.605970	0.737476
C117	C	0.244635	-0.607767	1.156653
C118	C	0.192745	-0.600951	1.209581
H119	H	0.275994	-0.599964	1.156667
H120	H	0.233354	-0.579202	1.120752
H121	H	0.259753	-0.648763	1.156651
H122	H	0.177625	-0.559954	1.209580
H123	H	0.204027	-0.629517	1.245490
C124	C	0.061929	0.048276	0.718490
C125	C	0.104028	-0.004657	0.701876
H126	H	0.069765	0.048280	0.749839
H127	H	0.020944	0.048269	0.733623
H128	H	0.066534	0.084180	0.683275
H129	H	0.099419	-0.040561	0.737090
H130	H	0.145023	-0.004655	0.686745
C131	C	0.700249	-0.534568	0.673616
C132	C	0.700196	-0.512258	0.613200
H133	H	0.700231	-0.503199	0.681436
H134	H	0.736177	-0.569758	0.678201
H135	H	0.664367	-0.545866	0.702185
H136	H	0.736081	-0.500964	0.584631
H137	H	0.664264	-0.477057	0.608609
C138	C	0.231142	-0.625013	0.394178
C139	C	0.230990	-0.677841	0.447205
H140	H	0.270266	-0.632727	0.362734
H141	H	0.223619	-0.591270	0.403864
H142	H	0.199650	-0.615221	0.379967
H143	H	0.262479	-0.687630	0.461418
H144	H	0.238520	-0.711594	0.437517
C145	C	0.171248	-0.843612	1.209483
C146	C	0.193288	-0.805282	1.209508
H147	H	0.202731	-0.882730	1.209482
H148	H	0.160005	-0.825081	1.173571
H149	H	0.136067	-0.849026	1.245384
H150	H	0.228467	-0.799865	1.173604
H151	H	0.204540	-0.823817	1.245423
C152	C	0.012644	-0.456091	0.895426
C153	C	0.045077	-0.493371	0.937543
H154	H	-0.030592	-0.445459	0.917429
H155	H	0.023254	-0.478076	0.870147
H156	H	0.023268	-0.419448	0.870146
H157	H	0.034456	-0.530017	0.962820
H158	H	0.034462	-0.471385	0.962832
C159	C	0.277374	-0.056974	0.467508
C160	C	0.230726	-0.004164	0.446816
H161	H	0.316401	-0.056732	0.435949
H162	H	0.270023	-0.092957	0.477133
H163	H	0.277339	-0.057040	0.503471
H164	H	0.230757	-0.004100	0.410856
H165	H	0.238078	0.031828	0.437183
C166	C	0.327772	-0.613631	0.895309
C167	C	0.267298	-0.604464	0.937461
H168	H	0.356374	-0.638919	0.917284
H169	H	0.333974	-0.574782	0.870035
H170	H	0.333982	-0.633418	0.870027
H171	H	0.261086	-0.584672	0.962740
H172	H	0.261093	-0.643319	0.962746
H173	H	0.100526	-0.788925	0.688956
C174	C	-0.033878	-0.004750	0.469876
C175	C	0.026541	-0.004734	0.447562
H176	H	-0.041695	-0.004782	0.438530
H177	H	-0.062437	0.031165	0.481129
H178	H	-0.038473	-0.040651	0.505098
H179	H	0.031135	0.031170	0.412342
H180	H	0.055108	-0.040652	0.436300
C181	C	-0.138699	-0.004670	0.680407
C182	C	-0.100347	-0.004667	0.702444
H183	H	-0.177809	-0.004653	0.711887
H184	H	-0.120185	-0.040584	0.669177
H185	H	-0.144120	0.031232	0.645217
H186	H	-0.094922	-0.040571	0.737632
H187	H	-0.118864	0.031251	0.713683
H188	H	0.102328	-0.458621	0.755642
C189	C	0.328201	-0.505069	0.764145
C190	C	0.312570	-0.559097	0.801410
H191	H	0.371436	-0.515693	0.742140
H192	H	0.317589	-0.483091	0.789433
H193	H	0.306186	-0.479787	0.735584
H194	H	0.334582	-0.584378	0.829975
H195	H	0.323189	-0.581085	0.776121
C196	C	0.012567	-0.456104	0.758209
C197	C	0.044964	-0.493357	0.720922
H198	H	-0.030674	-0.445494	0.768853
H199	H	0.023170	-0.419455	0.736224
H200	H	0.023226	-0.478106	0.794842
H201	H	0.034308	-0.471354	0.684286
H202	H	0.034356	-0.530013	0.742906
C203	C	0.327612	-0.613588	0.600578
C204	C	0.267121	-0.604412	0.609769
H205	H	0.356189	-0.638866	0.575279
H206	H	0.333856	-0.633383	0.639416
H207	H	0.333820	-0.574735	0.580794
H208	H	0.260912	-0.643264	0.629557
H209	H	0.260875	-0.584618	0.570924
H210	H	0.294333	-0.554601	0.659567
H211	H	0.419022	-0.640939	0.704632
C212	C	0.307860	-0.643792	0.713312
C213	C	0.292214	-0.613603	0.752635
H214	H	0.285874	-0.672039	0.734213
H215	H	0.351092	-0.665706	0.701756
H216	H	0.297214	-0.614104	0.677303
H217	H	0.302863	-0.643291	0.788643
H218	H	0.248972	-0.591688	0.764200
C219	C	0.386081	-0.378765	0.619812
C220	C	0.428218	-0.438831	0.623314
H221	H	0.408066	-0.350516	0.598903
H222	H	0.360820	-0.377111	0.660412
H223	H	0.360787	-0.367928	0.597735
H224	H	0.453510	-0.449669	0.645395
H225	H	0.453490	-0.440486	0.582706
H226	H	0.246280	-0.403511	0.611604
C227	C	0.254930	-0.384625	0.726102
C228	C	0.292173	-0.393477	0.668694
H229	H	0.232932	-0.341713	0.719866
H230	H	0.280230	-0.399825	0.749833
H231	H	0.226363	-0.406325	0.747536
H232	H	0.320744	-0.371780	0.647263
H233	H	0.266871	-0.378268	0.644954
H234	H	0.030065	-0.490230	0.460543
H235	H	0.111138	-0.285961	0.764475
C236	C	0.248760	-0.318808	0.521862
C237	C	0.211499	-0.276685	0.554282
H238	H	0.259363	-0.296808	0.478623
H239	H	0.226776	-0.344087	0.532490
H240	H	0.285416	-0.344090	0.532481
H241	H	0.174841	-0.251406	0.543667
H242	H	0.233483	-0.251395	0.543650
C243	C	0.700438	-0.745173	0.778438
C244	C	0.700428	-0.767222	0.740098
H245	H	0.700484	-0.776664	0.817540
H246	H	0.664517	-0.710008	0.783880
H247	H	0.736327	-0.733902	0.759898
H248	H	0.664536	-0.778488	0.758636
H249	H	0.736353	-0.802397	0.734657
H250	H	0.150353	-0.403547	0.803641
