data_functionalizedCrystal
_audit_creation_method	'MofGen! by Chris Wilmer'
_symmetry_space_group_name_H-M	'P1'
_symmetry_Int_Tables_number	1
_symmetry_cell_setting	triclinic
loop_
_symmetry_equiv_pos_as_xyz
  x,y,z
_cell_length_a	14.908782
_cell_length_b	12.645330
_cell_length_c	14.908308
_cell_angle_alpha	93.270481
_cell_angle_beta	96.759680
_cell_angle_gamma	86.724421
loop_
_atom_site_label
_atom_site_type_symbol
_atom_site_fract_x
_atom_site_fract_y
_atom_site_fract_z
Zn1	Zn	1.354240	-0.543065	-0.431822
Zn2	Zn	1.362884	-0.710679	-0.280476
Zn3	Zn	1.211615	-0.523774	-0.289226
Zn4	Zn	1.202857	-0.710621	-0.440537
O5	O	1.282899	-0.622035	-0.360515
O6	O	1.482047	-0.573398	-0.404436
O7	O	1.350100	-0.677837	-0.154974
O8	O	1.230582	-0.377990	-0.308156
O9	O	1.488398	-0.696543	-0.293243
O10	O	1.335368	-0.392163	-0.412921
O11	O	1.238963	-0.540518	-0.161402
O12	O	1.083792	-0.540461	-0.316606
O13	O	1.215656	-0.696443	-0.566043
O14	O	1.077358	-0.677737	-0.427774
O15	O	1.326876	-0.573341	-0.559641
O16	O	1.341608	-0.859014	-0.301694
O17	O	1.224037	-0.858971	-0.419290
C18	C	1.047733	-0.607000	-0.374086
C19	C	0.947127	-0.600595	-0.379913
C20	C	0.764698	-0.716593	-0.274901
C21	C	0.670170	-0.710578	-0.280373
C22	C	0.663540	-0.582557	-0.396334
C23	C	0.758068	-0.588572	-0.390861
C24	C	0.808644	-0.655591	-0.330142
C25	C	0.903175	-0.661599	-0.324666
C26	C	0.896542	-0.533584	-0.440630
C27	C	0.802014	-0.527569	-0.446103
C28	C	1.282833	-0.897459	-0.360506
C29	C	1.282887	-1.015294	-0.360528
C30	C	1.209199	-1.182908	-0.434706
C31	C	1.208855	-1.060311	-0.434501
C32	C	1.262574	-1.052147	-0.266628
C33	C	1.262124	-1.174745	-0.267079
C34	C	1.377358	-1.190068	-0.379451
C35	C	1.376650	-1.067557	-0.381571
C36	C	1.518983	-0.637129	-0.346892
C37	C	1.619588	-0.643561	-0.341086
C38	C	1.269325	-0.637037	-0.596603
C39	C	1.263540	-0.643431	-0.697209
C40	C	1.282988	-0.345537	-0.360542
C41	C	1.283026	-0.227711	-0.360554
C42	C	1.368482	-0.527233	-0.879594
C43	C	1.363050	-0.533237	-0.974122
C44	C	1.247240	-0.661435	-0.980797
C45	C	1.252672	-0.655431	-0.886268
C46	C	1.313296	-0.588329	-0.835670
C47	C	1.318732	-0.582332	-0.741139
C48	C	1.202918	-0.710524	-0.747815
C49	C	1.197486	-0.716528	-0.842344
C50	C	1.296472	-0.607017	-0.125343
C51	C	1.302432	-0.600337	-0.024727
H52	H	0.932333	-0.483906	-0.485608
C53	C	1.225129	-1.027065	-0.528800
H54	H	1.232008	-1.088536	-0.567579
H55	H	1.278421	-0.988394	-0.523882
H56	H	1.174971	-0.983768	-0.553128
C57	C	1.454275	-1.026806	-0.313320
H58	H	1.430409	-0.977169	-0.270906
H59	H	1.495971	-0.993383	-0.344544
H60	H	1.484323	-1.084738	-0.282380
C61	C	0.621832	-0.777676	-0.219604
H62	H	0.665496	-0.818443	-0.182656
H63	H	0.582969	-0.823776	-0.256297
H64	H	0.587222	-0.732198	-0.182353
H65	H	0.622344	-0.528003	-0.445776
C66	C	1.451576	-1.229303	-0.306408
H67	H	1.508417	-1.206303	-0.318183
H68	H	1.453673	-1.304573	-0.307306
H69	H	1.438425	-1.201219	-0.248665
H70	H	0.760822	-0.473008	-0.495541
C71	C	1.170650	-1.003022	-0.243574
H72	H	1.144533	-0.960050	-0.291045
H73	H	1.179199	-0.960762	-0.188790
H74	H	1.131496	-1.057960	-0.236686
C75	C	1.225198	-1.230267	-0.529310
H76	H	1.277051	-1.277779	-0.524438
H77	H	1.234492	-1.174835	-0.567095
H78	H	1.173900	-1.267464	-0.554752
H79	H	1.139585	-1.208285	-0.422805
H80	H	1.148126	-0.771158	-0.883554
C81	C	1.114237	-1.013291	-0.418166
H82	H	1.075862	-1.069128	-0.411621
H83	H	1.089675	-0.973287	-0.468126
H84	H	1.118801	-0.968460	-0.364653
C85	C	1.180557	-0.735236	-1.036460
H86	H	1.148461	-0.770761	-0.996764
H87	H	1.213047	-0.785974	-1.071339
H88	H	1.139009	-0.694495	-1.075610
C89	C	0.958807	-0.735325	-0.257885
H90	H	0.919091	-0.770803	-0.225778
H91	H	0.997948	-0.694558	-0.216365
H92	H	0.993691	-0.786119	-0.290323
C93	C	1.142202	-0.777726	-0.699502
H94	H	1.105323	-0.818550	-0.743178
H95	H	1.104898	-0.732311	-0.664906
H96	H	1.178934	-0.823792	-0.660625
C97	C	1.169191	-1.205690	-0.244594
H98	H	1.132065	-1.143364	-0.235276
H99	H	1.176893	-1.244471	-0.191264
H100	H	1.141269	-1.248309	-0.293387
C101	C	1.331999	-1.214345	-0.190289
H102	H	1.360530	-1.155502	-0.158953
H103	H	1.376201	-1.260689	-0.215045
H104	H	1.302361	-1.251256	-0.149480
H105	H	1.368097	-0.527696	-0.699943
H106	H	0.805879	-0.771156	-0.225455
C107	C	1.333233	-1.012365	-0.190275
H108	H	1.375848	-0.972829	-0.215044
H109	H	1.363612	-1.071290	-0.161037
H110	H	1.303826	-0.968411	-0.147645
C111	C	1.403844	-1.239658	-0.469985
H112	H	1.357613	-1.283786	-0.497108
H113	H	1.459033	-1.280813	-0.459492
H114	H	1.411202	-1.184959	-0.509218
C115	C	1.435162	-0.453425	-0.823934
H116	H	1.467249	-0.417893	-0.863633
H117	H	1.476705	-0.494150	-0.784774
H118	H	1.402661	-0.402678	-0.789066
C119	C	1.397492	-1.035902	-0.474880
H120	H	1.349261	-0.991019	-0.500909
H121	H	1.404092	-1.097824	-0.513187
H122	H	1.451977	-0.999307	-0.468102
C123	C	1.423759	-0.466037	-1.022436
H124	H	1.460644	-0.425222	-0.978760
H125	H	1.387032	-0.419979	-1.061316
H126	H	1.461070	-0.511458	-1.057028
