data_functionalizedCrystal
_audit_creation_method	'MofGen! by Chris Wilmer'
_symmetry_space_group_name_H-M	'P1'
_symmetry_Int_Tables_number	1
_symmetry_cell_setting	triclinic
loop_
_symmetry_equiv_pos_as_xyz
  x,y,z
_cell_length_a	19.288867
_cell_length_b	14.044220
_cell_length_c	17.766277
_cell_angle_alpha	90.005715
_cell_angle_beta	90.007910
_cell_angle_gamma	88.162973
loop_
_atom_site_label
_atom_site_type_symbol
_atom_site_fract_x
_atom_site_fract_y
_atom_site_fract_z
O1	O	0.928948	0.118222	0.062570
O2	O	1.262282	0.451555	0.395903
O3	O	1.595615	0.784889	0.729236
O4	O	0.727712	0.134167	0.062577
O5	O	1.061046	0.467500	0.395911
O6	O	1.394379	0.800834	0.729244
O7	O	0.825310	-0.011777	0.062566
O8	O	1.158643	0.321556	0.395900
O9	O	1.491976	0.654889	0.729233
O10	O	0.831351	0.264166	0.062581
O11	O	1.164684	0.597500	0.395914
O12	O	1.498017	0.930833	0.729247
O13	O	0.825290	-0.011781	-0.062622
O14	O	1.158624	0.321552	0.270711
O15	O	1.491957	0.654885	0.604044
O16	O	0.727693	0.134163	-0.062611
O17	O	1.061026	0.467496	0.270722
O18	O	1.394360	0.800830	0.604055
O19	O	0.928929	0.118218	-0.062619
O20	O	1.262262	0.451551	0.270715
O21	O	1.595596	0.784885	0.604048
Cu22	Cu	0.828309	0.126190	-0.074046
Cu23	Cu	1.161642	0.459523	0.259288
Cu24	Cu	1.494976	0.792857	0.592621
Cu25	Cu	0.828332	0.126195	0.074004
Cu26	Cu	1.161665	0.459528	0.407338
Cu27	Cu	1.494999	0.792862	0.740671
O28	O	0.831331	0.264162	-0.062608
O29	O	1.164665	0.597495	0.270726
O30	O	1.497998	0.930829	0.604059
C31	C	0.701793	0.133652	-0.000016
C32	C	1.035127	0.466985	0.333317
C33	C	1.368460	0.800318	0.666651
C34	C	0.624591	0.132110	-0.000013
C35	C	0.957924	0.465444	0.333320
C36	C	1.291257	0.798777	0.666653
C37	C	0.068323	0.121012	0.068218
C38	C	0.401656	0.454346	0.401551
C39	C	0.734989	0.787679	0.734884
C40	C	0.140863	0.122455	0.068220
C41	C	0.474196	0.455788	0.401554
C42	C	0.807530	0.789121	0.734887
C43	C	0.177128	0.123178	-0.000020
C44	C	0.510461	0.456511	0.333314
C45	C	0.843794	0.789845	0.666647
C46	C	0.140847	0.122435	-0.068268
C47	C	0.474180	0.455768	0.265066
C48	C	0.807513	0.789101	0.598399
C49	C	0.068308	0.120983	-0.068269
C50	C	0.401642	0.454316	0.265065
C51	C	0.734975	0.787649	0.598398
C52	C	0.290161	0.180978	-0.052297
C53	C	0.623494	0.514312	0.281036
C54	C	0.956827	0.847645	0.614369
C55	C	0.362698	0.182436	-0.052294
C56	C	0.696031	0.515769	0.281040
C57	C	1.029364	0.849103	0.614373
C58	C	0.400861	0.127652	-0.000020
C59	C	0.734194	0.460985	0.333314
C60	C	1.067527	0.794318	0.666647
C61	C	0.366477	0.071422	0.052263
C62	C	0.699811	0.404755	0.385597
C63	C	1.033144	0.738089	0.718930
C64	C	0.293939	0.069970	0.052262
C65	C	0.627272	0.403303	0.385596
C66	C	0.960605	0.736637	0.718929
C67	C	0.255783	0.124752	-0.000026
C68	C	0.589117	0.458085	0.333307
C69	C	0.922450	0.791418	0.666640
C70	C	0.515789	0.129952	0.068227
C71	C	0.849123	0.463286	0.401561
C72	C	1.182456	0.796619	0.734894
C73	C	0.588331	0.131389	0.068227
C74	C	0.921664	0.464722	0.401561
C75	C	1.254998	0.798055	0.734894
C76	C	0.588313	0.131378	-0.068263
C77	C	0.921647	0.464712	0.265071
C78	C	1.254980	0.798045	0.598404
C79	C	0.515773	0.129932	-0.068261
C80	C	0.849106	0.463266	0.265073
C81	C	1.182440	0.796599	0.598406
C82	C	0.479515	0.129224	-0.000014
C83	C	0.812849	0.462557	0.333320
C84	C	1.146182	0.795891	0.666653
C85	C	0.822656	-0.047082	-0.000028
C86	C	1.155989	0.286251	0.333305
C87	C	1.489322	0.619584	0.666638
C88	C	0.814768	-0.152275	-0.000029
C89	C	1.148101	0.181059	0.333304
C90	C	1.481435	0.514392	0.666638
C91	C	0.800347	-0.344875	-0.000018
C92	C	1.133681	-0.011541	0.333316
C93	C	1.467014	0.321792	0.666649
C94	C	0.856291	-0.402746	-0.000017
C95	C	1.189624	-0.069413	0.333316
C96	C	1.522957	0.263921	0.666649
C97	C	0.848267	-0.509915	-0.000011
C98	C	1.181600	-0.176582	0.333322
C99	C	1.514934	0.156751	0.666656
C100	C	0.808370	-0.237695	-0.000024
C101	C	1.141703	0.095638	0.333309
C102	C	1.475037	0.428971	0.666643
C103	C	0.954848	0.118733	-0.000024
C104	C	1.288181	0.452067	0.333310
C105	C	1.621515	0.785400	0.666643
C106	C	1.032050	0.120274	-0.000021
C107	C	1.365384	0.453608	0.333312
C108	C	1.698717	0.786941	0.666645
C109	C	0.833986	0.299467	-0.000012
C110	C	1.167319	0.632801	0.333322
C111	C	1.500652	0.966134	0.666655
C112	C	0.841873	0.404660	-0.000006
C113	C	1.175207	0.737993	0.333327
C114	C	1.508540	1.071326	0.666661
N115	N	0.828298	0.126186	-0.178176
N116	N	1.161631	0.459519	0.155157
N117	N	1.494965	0.792853	0.488491
C118	C	0.873969	0.183519	-0.217555
C119	C	1.207303	0.516853	0.115778
C120	C	1.540636	0.850186	0.449112
C121	C	0.873980	0.183517	-0.296357
C122	C	1.207313	0.516850	0.036976
C123	C	1.540647	0.850183	0.370310
C124	C	0.828307	0.126191	-0.335777
C125	C	1.161641	0.459525	-0.002443
C126	C	1.494974	0.792858	0.330890
C127	C	0.782633	0.068846	-0.296388
C128	C	1.115966	0.402180	0.036945
C129	C	1.449300	0.735513	0.370279
C130	C	0.782628	0.068844	-0.217588
C131	C	1.115962	0.402177	0.115746
C132	C	1.449295	0.735510	0.449079
C133	C	0.765541	0.123794	-0.460634
C134	C	1.098874	0.457127	-0.127301
C135	C	1.432208	0.790461	0.206033
C136	C	0.765545	0.123804	-0.539433
C137	C	1.098878	0.457137	-0.206099
C138	C	1.432211	0.790470	0.127234
C139	C	0.828322	0.126194	-0.578823
C140	C	1.161655	0.459528	-0.245490
C141	C	1.494989	0.792861	0.087844
C142	C	0.891098	0.128596	-0.539405
C143	C	1.224431	0.461929	-0.206071
C144	C	1.557765	0.795262	0.127262
C145	C	0.891093	0.128593	-0.460604
C146	C	1.224427	0.461926	-0.127271
C147	C	1.557760	0.795260	0.206062
C148	C	0.828308	0.126188	-0.421222
C149	C	1.161641	0.459521	-0.087889
C150	C	1.494974	0.792854	0.245444
C151	C	0.874009	0.183528	-0.703648
C152	C	1.207342	0.516861	-0.370315
C153	C	1.540675	0.850195	-0.036981
C154	C	0.874020	0.183518	-0.782451
C155	C	1.207354	0.516852	-0.449118
C156	C	1.540687	0.850185	-0.115785
C157	C	0.782667	0.068854	-0.782481
C158	C	1.116001	0.402187	-0.449147
C159	C	1.449334	0.735520	-0.115814
C160	C	0.782662	0.068858	-0.703679
C161	C	1.115995	0.402191	-0.370346
C162	C	1.449328	0.735524	-0.037012
C163	C	0.828331	0.126200	-0.664267
C164	C	1.161665	0.459533	-0.330934
C165	C	1.494998	0.792867	0.002399
N166	N	0.828348	0.126191	0.178135
N167	N	1.161681	0.459525	0.511468
N168	N	1.495015	0.792858	0.844801
H169	H	0.038806	0.120432	0.123790
H170	H	0.372139	0.453765	0.457123
H171	H	0.705473	0.787098	0.790456
C172	C	0.696490	0.121168	-0.582785
C173	C	1.029823	0.454501	-0.249452
C174	C	1.363157	0.787834	0.083881
N175	N	0.644476	0.119182	-0.615437
N176	N	0.977809	0.452515	-0.282103
N177	N	1.311143	0.785849	0.051230
H178	H	0.714416	0.121854	-0.428569
H179	H	1.047750	0.455187	-0.095236
H180	H	1.381083	0.788520	0.238098
H181	H	0.942217	0.130547	-0.571474
H182	H	1.275551	0.463881	-0.238141
H183	H	1.608884	0.797214	0.095192
H184	H	0.910211	-0.371805	0.000031
H185	H	1.243545	-0.038471	0.333364
H186	H	1.576878	0.294862	0.666698
H187	H	0.746431	-0.375814	-0.000014
H188	H	1.079764	-0.042481	0.333320
H189	H	1.413098	0.290853	0.666653
H190	H	0.390686	0.228245	-0.094850
H191	H	0.724019	0.561578	0.238484
H192	H	1.057353	0.894912	0.571817
C193	C	0.180770	0.123277	0.143292
C194	C	0.514103	0.456611	0.476625
C195	C	0.847437	0.789944	0.809958
N196	N	0.210826	0.123901	0.199835
N197	N	0.544159	0.457235	0.533169
N198	N	0.877492	0.790568	0.866502
C199	C	0.256120	0.008106	0.109764
C200	C	0.589454	0.341439	0.443097
C201	C	0.922787	0.674773	0.776430
N202	N	0.227636	-0.038496	0.153071
N203	N	0.560969	0.294837	0.486404
N204	N	0.894302	0.628170	0.819738
H205	H	0.911160	0.230208	-0.185471
H206	H	1.244493	0.563541	0.147862
H207	H	1.577826	0.896875	0.481196
H208	H	0.259094	0.225586	-0.094873
H209	H	0.592428	0.558919	0.238460
H210	H	0.925761	0.892253	0.571793
H211	H	0.911171	0.230207	-0.328426
H212	H	1.244505	0.563540	0.004908
H213	H	1.577838	0.896874	0.338241
H214	H	0.397548	0.026814	0.094832
H215	H	0.730881	0.360148	0.428165
H216	H	1.064215	0.693481	0.761499
H217	H	0.038776	0.120385	-0.123839
H218	H	0.372109	0.453719	0.209495
H219	H	0.705442	0.787052	0.542828
H220	H	0.486267	0.129373	0.123798
H221	H	0.819600	0.462706	0.457131
H222	H	1.152933	0.796039	0.790465
C223	C	0.960146	0.131221	-0.417247
C224	C	1.293479	0.464554	-0.083914
C225	C	1.626813	0.797888	0.249419
N226	N	1.012158	0.133195	-0.384591
N227	N	1.345491	0.466528	-0.051257
N228	N	1.678824	0.799861	0.282076
H229	H	0.745447	0.022171	-0.328489
H230	H	1.078780	0.355504	0.004845
H231	H	1.412113	0.688838	0.338178
H232	H	0.617839	0.131964	-0.123825
H233	H	0.951173	0.465297	0.209508
H234	H	1.284506	0.798630	0.542842
C235	C	0.628231	0.132189	0.143300
C236	C	0.961564	0.465523	0.476633
C237	C	1.294897	0.798856	0.809966
N238	N	0.658284	0.132790	0.199846
N239	N	0.991617	0.466124	0.533179
N240	N	1.324950	0.799457	0.866513
H241	H	0.911196	0.230219	-0.671557
H242	H	1.244530	0.563552	-0.338224
H243	H	1.577863	0.896885	-0.004891
C244	C	0.924252	0.246613	-0.825768
C245	C	1.257585	0.579946	-0.492435
C246	C	1.590919	0.913279	-0.159101
N247	N	0.962082	0.294145	-0.858395
N248	N	1.295415	0.627478	-0.525061
N249	N	1.628748	0.960812	-0.191728
H250	H	0.745480	0.022177	-0.814576
H251	H	1.078814	0.355511	-0.481242
H252	H	1.412147	0.688844	-0.147909
C253	C	0.732412	0.005796	-0.660360
C254	C	1.065745	0.339129	-0.327027
C255	C	1.399079	0.672463	0.006306
N256	N	0.694562	-0.041706	-0.627733
N257	N	1.027895	0.291627	-0.294400
N258	N	1.361229	0.624961	0.038934
H259	H	0.486240	0.129335	-0.123828
H260	H	0.819573	0.462668	0.209505
H261	H	1.152907	0.796001	0.542838
H262	H	0.745436	0.022155	-0.185526
H263	H	1.078769	0.355488	0.147808
H264	H	1.412103	0.688822	0.481141
H265	H	0.170378	0.123022	-0.123829
H266	H	0.503712	0.456355	0.209504
H267	H	0.837045	0.789688	0.542838
