data_functionalizedCrystal
_audit_creation_method	'MofGen! by Chris Wilmer'
_symmetry_space_group_name_H-M	'P1'
_symmetry_Int_Tables_number	1
_symmetry_cell_setting	triclinic
loop_
_symmetry_equiv_pos_as_xyz
  x,y,z
_cell_length_a	10.654547
_cell_length_b	17.699083
_cell_length_c	16.176319
_cell_angle_alpha	90.007696
_cell_angle_beta	89.991887
_cell_angle_gamma	96.115465
loop_
_atom_site_label
_atom_site_type_symbol
_atom_site_fract_x
_atom_site_fract_y
_atom_site_fract_z
O1	O	1.665984	-0.106315	-0.068763
O2	O	1.300329	-0.116440	-0.068761
O3	O	1.493487	-0.001254	-0.068755
O4	O	1.472826	-0.221501	-0.068769
O5	O	1.493461	-0.001246	0.068738
O6	O	1.300302	-0.116433	0.068732
O7	O	1.665958	-0.106307	0.068731
Cu8	Cu	1.483127	-0.111369	0.081285
Cu9	Cu	1.483159	-0.111378	-0.081316
O10	O	1.472799	-0.221493	0.068724
C11	C	1.253530	-0.115693	-0.000014
C12	C	1.114126	-0.113467	-0.000014
C13	C	0.852209	-0.109280	-0.149924
C14	C	0.917723	-0.110330	-0.224871
C15	C	1.048704	-0.112428	-0.224869
C16	C	1.114174	-0.113471	-0.149911
C17	C	1.048660	-0.112421	-0.074964
C18	C	0.917675	-0.110326	-0.074974
C19	C	1.048612	-0.112416	0.074934
C20	C	0.917630	-0.110324	0.074934
C21	C	1.114082	-0.113460	0.149892
C22	C	1.048567	-0.112415	0.224841
C23	C	0.917578	-0.110318	0.224836
C24	C	0.852116	-0.109274	0.149881
C25	C	1.712756	-0.107055	-0.000018
C26	C	1.852160	-0.109280	-0.000024
C27	C	1.492733	0.026952	-0.000008
C28	C	1.490512	0.110984	-0.000008
C29	C	1.473553	-0.249699	-0.000025
C30	C	1.475774	-0.333731	-0.000030
N31	N	1.483115	-0.111362	0.195651
C32	C	1.603892	0.158883	-0.000007
C33	C	1.601798	0.237840	-0.000014
C34	C	1.486322	0.268896	-0.000016
C35	C	1.372934	0.220990	-0.000020
C36	C	1.375029	0.142035	-0.000018
C37	C	1.364480	0.539407	-0.000026
C38	C	1.362393	0.618368	-0.000025
C39	C	1.591248	0.635212	-0.000022
C40	C	1.593344	0.556257	-0.000021
C41	C	1.479956	0.508358	-0.000028
C42	C	1.482228	0.422744	-0.000022
C43	C	1.484049	0.354508	-0.000017
N44	N	1.483182	-0.111379	-0.195681
C45	C	1.568671	-0.060379	0.238918
C46	C	1.568677	-0.060378	0.325465
C47	C	1.483132	-0.111365	0.368743
C48	C	1.397567	-0.162351	0.325470
C49	C	1.397556	-0.162347	0.238925
C50	C	1.397610	-0.162365	0.674498
C51	C	1.397630	-0.162366	0.761050
C52	C	1.568731	-0.060396	0.761039
C53	C	1.568720	-0.060393	0.674493
C54	C	1.483151	-0.111375	0.631228
C55	C	1.483144	-0.111375	0.537383
C56	C	1.483145	-0.111370	0.462586
H57	H	1.220827	-0.115170	-0.149916
C58	C	0.708125	-0.106979	-0.149933
N59	N	0.599600	-0.105245	-0.149942
C60	C	1.303447	-0.218439	0.191331
N61	N	1.232562	-0.260690	0.155485
C62	C	1.662778	-0.004288	0.191320
N63	N	1.733658	0.037964	0.155471
C64	C	1.730927	0.124730	-0.000004
N65	N	1.826613	0.099008	-0.000006
C66	C	1.303455	-0.218430	0.373079
N67	N	1.232567	-0.260669	0.408938
H68	H	1.638383	-0.018877	0.639259
H69	H	1.694123	0.276837	-0.000012
H70	H	1.101884	-0.113260	0.285866
H71	H	1.683574	0.674221	-0.000020
H72	H	1.638403	-0.018881	0.796275
H73	H	1.268353	0.643650	-0.000025
H74	H	1.102046	-0.113282	-0.285898
C75	C	0.845522	-0.109164	0.307287
N76	N	0.791254	-0.108297	0.369390
C77	C	1.303512	-0.218454	0.808654
N78	N	1.232624	-0.260696	0.844510
C79	C	0.708033	-0.106968	0.149869
N80	N	0.599509	-0.105228	0.149856
H81	H	1.327939	-0.203878	0.639278
C82	C	1.258170	-0.115743	0.149892
N83	N	1.366700	-0.117457	0.149894
H84	H	1.687376	0.530976	-0.000015
C85	C	1.239749	0.486728	-0.000039
N86	N	1.145796	0.447048	-0.000051
C87	C	1.245909	0.255154	-0.000015
N88	N	1.150231	0.280885	-0.000005
H89	H	1.282704	0.103035	-0.000019
C90	C	1.662766	-0.004274	0.373055
N91	N	1.733626	0.037993	0.408899
H92	H	0.864404	-0.109477	-0.285900
