data_functionalizedCrystal
_audit_creation_method	'MofGen! by Chris Wilmer'
_symmetry_space_group_name_H-M	'P1'
_symmetry_Int_Tables_number	1
_symmetry_cell_setting	triclinic
loop_
_symmetry_equiv_pos_as_xyz
  x,y,z
_cell_length_a	16.109301
_cell_length_b	16.109301
_cell_length_c	15.186229
_cell_angle_alpha	89.994833
_cell_angle_beta	89.999362
_cell_angle_gamma	83.461481
loop_
_atom_site_label
_atom_site_type_symbol
_atom_site_fract_x
_atom_site_fract_y
_atom_site_fract_z
O1	O	1.103131	0.106866	-0.073176
O2	O	1.603131	0.606866	0.426824
O3	O	0.861069	0.120165	-0.073190
O4	O	1.361069	0.620165	0.426810
O5	O	0.988749	-0.007515	-0.073174
O6	O	1.488749	0.492485	0.426826
O7	O	0.975450	0.234547	-0.073192
O8	O	1.475450	0.734547	0.426808
O9	O	0.988741	-0.007517	0.073284
O10	O	1.488741	0.492483	0.573284
O11	O	0.861060	0.120164	0.073267
O12	O	1.361060	0.620164	0.573267
O13	O	1.103122	0.106864	0.073282
O14	O	1.603122	0.606864	0.573282
Zn15	Zn	0.982090	0.113514	0.096528
Zn16	Zn	1.482090	0.613514	0.596528
Zn17	Zn	0.982101	0.113516	-0.096436
Zn18	Zn	1.482101	0.613516	0.403564
O19	O	0.975441	0.234545	0.073265
O20	O	1.475441	0.734545	0.573265
C21	C	0.830090	0.119626	0.000037
C22	C	1.330090	0.619626	0.500037
C23	C	0.737794	0.118011	0.000032
C24	C	1.237794	0.618011	0.500032
C25	C	0.988206	-0.038491	0.000056
C26	C	1.488206	0.461509	0.500056
C27	C	0.986591	-0.130786	0.000057
C28	C	1.486591	0.369214	0.500057
C29	C	0.515522	0.190018	0.000036
C30	C	1.015522	0.690018	0.500036
C31	C	0.428801	0.188494	0.000042
C32	C	0.928801	0.688494	0.500042
C33	C	0.448676	0.037006	0.000050
C34	C	0.948676	0.537006	0.500050
C35	C	0.535394	0.038530	0.000051
C36	C	1.035394	0.538530	0.500051
C37	C	0.568815	0.115039	0.000039
C38	C	1.068815	0.615039	0.500039
C39	C	0.395376	0.111990	0.000045
C40	C	0.895376	0.611990	0.500045
C41	C	0.301350	0.110337	0.000051
C42	C	0.801350	0.610337	0.500051
C43	C	0.662847	0.116693	0.000035
C44	C	1.162847	0.616693	0.500035
C45	C	1.058599	-0.353059	0.000047
C46	C	1.558599	0.146941	0.500047
C47	C	1.057075	-0.439779	0.000040
C48	C	1.557075	0.060221	0.500040
C49	C	0.905586	-0.419905	0.000034
C50	C	1.405586	0.080095	0.500034
C51	C	0.907111	-0.333186	0.000035
C52	C	1.407111	0.166814	0.500035
C53	C	0.983620	-0.299766	0.000046
C54	C	1.483620	0.200234	0.500046
C55	C	0.980571	-0.473205	0.000038
C56	C	1.480571	0.026795	0.500038
C57	C	0.978918	-0.567231	0.000030
C58	C	1.478918	-0.067231	0.500030
C59	C	0.985273	-0.205734	0.000052
C60	C	1.485273	0.294266	0.500052
C61	C	1.134101	0.107404	0.000053
C62	C	1.634101	0.607404	0.500053
C63	C	1.226397	0.109019	0.000052
C64	C	1.726397	0.609019	0.500052
C65	C	0.975984	0.265521	0.000034
C66	C	1.475984	0.765521	0.500034
C67	C	0.977600	0.357816	0.000027
C68	C	1.477600	0.857816	0.500027
N69	N	0.982088	0.113511	0.228220
N70	N	1.482088	0.613511	0.728220
N71	N	0.982109	0.113512	-0.228129
N72	N	1.482109	0.613512	0.271871
C73	C	1.038644	0.056994	0.453950
C74	C	1.538644	0.556994	0.953950
C75	C	1.038647	0.056992	0.546140
C76	C	1.538647	0.556992	1.046140
C77	C	0.925547	0.170032	0.546135
C78	C	1.425547	0.670032	1.046135
C79	C	0.925541	0.170030	0.453947
C80	C	1.425541	0.670030	0.953947
C81	C	0.982094	0.113511	0.407857
C82	C	1.482094	0.613511	0.907857
C83	C	0.982103	0.113512	0.592235
C84	C	1.482103	0.613512	1.092235
C85	C	0.982105	0.113510	0.692191
C86	C	1.482105	0.613510	1.192191
C87	C	0.982091	0.113512	0.307894
C88	C	1.482091	0.613512	0.807894
H89	H	0.385413	0.249550	0.000041
H90	H	0.885413	0.749550	0.500041
C91	C	0.756000	-0.391549	0.000019
C92	C	1.256000	0.108451	0.500019
C93	C	0.821490	-0.456643	0.000026
C94	C	1.321490	0.043357	0.500026
H95	H	0.704082	-0.414230	0.000009
H96	H	1.204082	0.085770	0.500009
H97	H	0.759742	-0.358146	0.051089
H98	H	1.259742	0.141854	0.551089
H99	H	0.759755	-0.358133	-0.051057
H100	H	1.259755	0.141867	0.448943
H101	H	0.817738	-0.490055	0.051105
H102	H	1.317738	0.009945	0.551105
H103	H	0.817746	-0.490060	-0.051050
H104	H	1.317746	0.009940	0.448950
H105	H	1.118130	-0.483168	0.000039
H106	H	1.618130	0.016832	0.500039
H107	H	1.084692	0.010972	0.416426
H108	H	1.584692	0.510972	0.916426
C109	C	0.820941	-0.224129	0.075317
C110	C	1.320941	0.275871	0.575317
C111	C	0.824689	-0.274596	0.000033
C112	C	1.324689	0.225404	0.500033
H113	H	0.770063	-0.187955	0.075307
H114	H	1.270063	0.312045	0.575307
H115	H	0.823484	-0.258375	0.126381
H116	H	1.323484	0.241625	0.626381
H117	H	0.866730	-0.191821	0.075309
H118	H	1.366730	0.308179	0.575309
H119	H	0.778904	-0.306908	0.000044
H120	H	1.278904	0.193092	0.500044
H121	H	0.822138	-0.240346	-0.051045
H122	H	1.322138	0.259654	0.448955
H123	H	1.084694	0.010969	0.583667
H124	H	1.584694	0.510969	1.083667
C125	C	0.362688	-0.052588	-0.075241
C126	C	0.862688	0.447412	0.424759
C127	C	0.411937	-0.047091	0.000051
C128	C	0.911937	0.452909	0.500051
H129	H	0.340014	-0.104509	-0.075244
H130	H	0.840014	0.395491	0.424756
H131	H	0.318541	-0.008157	-0.075237
H132	H	0.818541	0.491843	0.424763
H133	H	0.396117	-0.048840	-0.126306
H134	H	0.896117	0.451160	0.373694
H135	H	0.378507	-0.050833	0.051116
H136	H	0.878507	0.449167	0.551116
H137	H	0.456091	-0.091534	0.000054
H138	H	0.956091	0.408466	0.500054
C139	C	0.546337	-0.111369	0.000048
C140	C	1.046337	0.388631	0.500048
C141	C	0.593982	-0.043893	0.000050
C142	C	1.093982	0.456107	0.500050
H143	H	0.582508	-0.162250	0.000045
H144	H	1.082508	0.337750	0.500045
H145	H	0.512101	-0.108819	0.051118
H146	H	1.012101	0.391181	0.551118
H147	H	0.512098	-0.108807	-0.051029
H148	H	1.012098	0.391193	0.448971
H149	H	0.628216	-0.046453	0.051131
H150	H	1.128216	0.453547	0.551131
H151	H	0.628232	-0.046445	-0.051024
H152	H	1.128232	0.453555	0.448976
C153	C	1.148206	-0.267080	0.075339
C154	C	1.648206	0.232920	0.575339
C155	C	1.142697	-0.316324	0.000050
C156	C	1.642697	0.183676	0.500050
H157	H	1.200129	-0.244409	0.075339
H158	H	1.700129	0.255591	0.575339
H159	H	1.103777	-0.222930	0.075334
H160	H	1.603777	0.277070	0.575334
H161	H	1.144461	-0.300510	0.126405
H162	H	1.644461	0.199490	0.626405
H163	H	1.146436	-0.282892	-0.051017
H164	H	1.646436	0.217108	0.448983
H165	H	1.187138	-0.360480	0.000046
H166	H	1.687138	0.139520	0.500046
C167	C	0.812411	0.188045	0.649825
C168	C	1.312411	0.688045	1.149825
C169	C	0.863393	0.232159	0.596804
C170	C	1.363393	0.732159	1.096804
H171	H	0.774044	0.226403	0.681109
H172	H	1.274044	0.726403	1.181109
H173	H	0.782513	0.153437	0.613870
H174	H	1.282513	0.653437	1.113870
H175	H	0.846102	0.154388	0.690466
H176	H	1.346102	0.654388	1.190466
H177	H	0.829702	0.265812	0.556158
H178	H	1.329702	0.765812	1.056158
H179	H	0.893294	0.266782	0.632763
H180	H	1.393294	0.766782	1.132763
C181	C	0.487163	0.339604	0.000040
C182	C	0.987163	0.839604	0.500040
C183	C	0.552259	0.274115	0.000036
C184	C	1.052259	0.774115	0.500036
H185	H	0.509843	0.391522	0.000047
H186	H	1.009843	0.891522	0.500047
H187	H	0.453756	0.335863	-0.051031
H188	H	0.953756	0.835863	0.448969
H189	H	0.453752	0.335846	0.051116
H190	H	0.953752	0.835846	0.551116
H191	H	0.585666	0.277870	-0.051044
H192	H	1.085666	0.777870	0.448956
H193	H	0.585680	0.277858	0.051111
H194	H	1.085680	0.777858	0.551111
C195	C	0.813748	0.281777	0.463194
C196	C	1.313748	0.781777	0.963194
C197	C	0.863378	0.232161	0.403274
C198	C	1.363378	0.732161	0.903274
H199	H	0.775377	0.320133	0.431908
H200	H	1.275377	0.820133	0.931908
H201	H	0.783856	0.247163	0.499156
H202	H	1.283856	0.747163	0.999156
H203	H	0.848356	0.311694	0.499145
H204	H	1.348356	0.811694	0.999145
H205	H	0.828771	0.202239	0.367326
H206	H	1.328771	0.702239	0.867326
H207	H	0.893273	0.266779	0.367296
H208	H	1.393273	0.766779	0.867296
