data_functionalizedCrystal
_audit_creation_method	'MofGen! by Chris Wilmer'
_symmetry_space_group_name_H-M	'P1'
_symmetry_Int_Tables_number	1
_symmetry_cell_setting	triclinic
loop_
_symmetry_equiv_pos_as_xyz
  x,y,z
_cell_length_a	15.995350
_cell_length_b	23.532407
_cell_length_c	14.472310
_cell_angle_alpha	89.994233
_cell_angle_beta	89.990621
_cell_angle_gamma	83.170526
loop_
_atom_site_label
_atom_site_type_symbol
_atom_site_fract_x
_atom_site_fract_y
_atom_site_fract_z
O1	O	1.110386	0.073404	-0.076772
O2	O	1.443719	0.406737	0.256561
O3	O	1.777053	0.740070	0.589894
O4	O	0.866535	0.082469	-0.076793
O5	O	1.199869	0.415802	0.256541
O6	O	1.533202	0.749135	0.589874
O7	O	0.995814	-0.004967	-0.076765
O8	O	1.329147	0.328366	0.256568
O9	O	1.662481	0.661699	0.589902
O10	O	0.981107	0.160840	-0.076800
O11	O	1.314441	0.494173	0.256533
O12	O	1.647774	0.827506	0.589867
O13	O	0.995781	-0.004962	0.076917
O14	O	1.329114	0.328371	0.410250
O15	O	1.662448	0.661705	0.743584
O16	O	0.866502	0.082474	0.076889
O17	O	1.199836	0.415807	0.410223
O18	O	1.533169	0.749140	0.743556
O19	O	1.110353	0.073409	0.076910
O20	O	1.443686	0.406742	0.410243
O21	O	1.777020	0.740075	0.743576
Cu22	Cu	0.988424	0.077942	0.090932
Cu23	Cu	1.321758	0.411275	0.424265
Cu24	Cu	1.655091	0.744608	0.757599
Cu25	Cu	0.988464	0.077936	-0.090815
Cu26	Cu	1.321797	0.411269	0.242518
Cu27	Cu	1.655130	0.744602	0.575852
O28	O	0.981074	0.160845	0.076882
O29	O	1.314408	0.494178	0.410215
O30	O	1.647741	0.827511	0.743549
C31	C	0.835327	0.082096	0.000046
C32	C	1.168660	0.415430	0.333379
C33	C	1.501994	0.748763	0.666713
C34	C	0.742386	0.080973	0.000039
C35	C	1.075719	0.414306	0.333372
C36	C	1.409053	0.747640	0.666706
C37	C	0.404672	0.076938	0.000059
C38	C	0.738005	0.410271	0.333393
C39	C	1.071339	0.743605	0.666726
C40	C	0.452624	0.014668	0.000415
C41	C	0.785957	0.348001	0.333749
C42	C	1.119291	0.681334	0.667082
C43	C	0.549305	0.015792	0.000062
C44	C	0.882638	0.349125	0.333395
C45	C	1.215972	0.682458	0.666729
C46	C	0.572216	0.078939	0.000050
C47	C	0.905549	0.412273	0.333383
C48	C	1.238883	0.745606	0.666716
C49	C	0.530892	0.109650	-0.087713
C50	C	0.864226	0.442984	0.245620
C51	C	1.197559	0.776317	0.578954
C52	C	0.434270	0.108086	-0.087780
C53	C	0.767603	0.441419	0.245554
C54	C	1.100936	0.774753	0.578887
C55	C	0.433882	0.109378	0.086985
C56	C	0.767216	0.442712	0.420319
C57	C	1.100549	0.776045	0.753652
C58	C	0.530828	0.109364	0.088139
C59	C	0.864161	0.442697	0.421472
C60	C	1.197494	0.776030	0.754805
C61	C	0.666904	0.080074	0.000041
C62	C	1.000237	0.413407	0.333375
C63	C	1.333571	0.746740	0.666708
C64	C	0.309984	0.075805	0.000061
C65	C	0.643317	0.409139	0.333395
C66	C	0.976650	0.742472	0.666728
C67	C	0.995423	-0.026182	0.000078
C68	C	1.328756	0.307151	0.333412
C69	C	1.662090	0.640484	0.666745
C70	C	0.994297	-0.089404	0.000085
C71	C	1.327630	0.243930	0.333419
C72	C	1.660964	0.577263	0.666752
C73	C	1.063739	-0.488239	0.000041
C74	C	1.397072	-0.154906	0.333374
C75	C	1.730406	0.178427	0.666707
C76	C	1.062693	-0.547644	0.000033
C77	C	1.396026	-0.214310	0.333367
C78	C	1.729360	0.119023	0.666700
O79	O	1.127067	-0.584141	0.000005
O80	O	1.460400	-0.250807	0.333338
O81	O	1.793733	0.082526	0.666671
N82	N	0.985837	-0.570566	0.000028
N83	N	1.319170	-0.237232	0.333361
N84	N	1.652504	0.096101	0.666694
C85	C	0.910022	-0.534080	0.000020
C86	C	1.243355	-0.200746	0.333353
C87	C	1.576689	0.132587	0.666686
O88	O	0.844554	-0.559031	0.000013
O89	O	1.177887	-0.225698	0.333347
O90	O	1.511220	0.107635	0.666680
C91	C	0.911069	-0.474677	0.000020
C92	C	1.244402	-0.141343	0.333354
C93	C	1.577735	0.191990	0.666687
C94	C	0.987930	-0.451758	0.000035
C95	C	1.321263	-0.118425	0.333369
C96	C	1.654597	0.214908	0.666702
C97	C	1.140594	-0.465320	0.000055
C98	C	1.473927	-0.131987	0.333388
C99	C	1.807261	0.201346	0.666721
C100	C	1.141640	-0.405920	0.000063
C101	C	1.474973	-0.072587	0.333397
C102	C	1.808306	0.260746	0.666730
C103	C	1.065830	-0.369439	0.000058
C104	C	1.399164	-0.036106	0.333392
C105	C	1.732497	0.297228	0.666725
C106	C	0.988975	-0.392358	0.000044
C107	C	1.322309	-0.059025	0.333377
C108	C	1.655642	0.274309	0.666711
C109	C	0.835255	-0.438192	0.000006
C110	C	1.168588	-0.104859	0.333339
C111	C	1.501921	0.228475	0.666672
C112	C	0.836308	-0.378785	0.000005
C113	C	1.169641	-0.045452	0.333339
C114	C	1.502975	0.287881	0.666672
C115	C	0.913169	-0.355867	0.000020
C116	C	1.246502	-0.022534	0.333354
C117	C	1.579836	0.310800	0.666687
C118	C	0.914212	-0.296477	0.000048
C119	C	1.247545	0.036857	0.333381
C120	C	1.580878	0.370190	0.666714
N121	N	0.991068	-0.273555	0.000053
N122	N	1.324401	0.059779	0.333387
N123	N	1.657735	0.393112	0.666720
C124	C	1.066877	-0.310036	0.000059
C125	C	1.400211	0.023297	0.333392
C126	C	1.733544	0.356631	0.666725
C127	C	0.907829	-0.658831	0.000017
C128	C	1.241163	-0.325497	0.333350
C129	C	1.574496	0.007836	0.666684
C130	C	0.906781	-0.718233	0.000023
C131	C	1.240115	-0.384899	0.333357
C132	C	1.573448	-0.051566	0.666690
C133	C	1.059453	-0.731793	0.000035
C134	C	1.392786	-0.398459	0.333369
C135	C	1.726120	-0.065126	0.666702
C136	C	1.060500	-0.672389	0.000036
C137	C	1.393833	-0.339056	0.333369
C138	C	1.727167	-0.005723	0.666702
C139	C	0.984685	-0.635909	0.000023
C140	C	1.318019	-0.302575	0.333356
C141	C	1.651352	0.030758	0.666689
C142	C	1.069067	-0.185291	0.000078
C143	C	1.402401	0.148043	0.333411
C144	C	1.735734	0.481376	0.666745
C145	C	1.070106	-0.125885	0.000091
C146	C	1.403440	0.207449	0.333424
C147	C	1.736773	0.540782	0.666757
C148	C	0.917435	-0.112330	0.000074
C149	C	1.250768	0.221003	0.333407
C150	C	1.584102	0.554337	0.666740
C151	C	0.916396	-0.171731	0.000066
C152	C	1.249729	0.161602	0.333399
C153	C	1.583062	0.494936	0.666733
C154	C	0.992219	-0.208210	0.000065
C155	C	1.325552	0.125123	0.333398
C156	C	1.658885	0.458456	0.666732
O157	O	0.849872	-0.259945	0.000073
O158	O	1.183205	0.073388	0.333406
O159	O	1.516539	0.406722	0.666739
O160	O	1.132335	-0.285076	0.000053
O161	O	1.465668	0.048257	0.333386
O162	O	1.799001	0.381591	0.666720
C163	C	1.141561	0.073781	0.000069
C164	C	1.474894	0.407114	0.333402
C165	C	1.808228	0.740448	0.666736
C166	C	1.234502	0.074905	0.000070
C167	C	1.567835	0.408238	0.333403
C168	C	1.901169	0.741571	0.666737
C169	C	0.981465	0.182060	0.000037
C170	C	1.314799	0.515393	0.333370
C171	C	1.648132	0.848726	0.666703
C172	C	0.982591	0.245281	0.000024
C173	C	1.315925	0.578614	0.333357
C174	C	1.649258	0.911948	0.666690
N175	N	0.988403	0.077946	0.218763
N176	N	1.321736	0.411279	0.552096
N177	N	1.655070	0.744612	0.885429
N178	N	0.988492	0.077927	-0.218646
N179	N	1.321825	0.411261	0.114688
N180	N	1.655158	0.744594	0.448021
C181	C	0.988463	0.077933	0.592854
C182	C	1.321796	0.411267	0.926187
C183	C	1.655129	0.744600	1.259521
C184	C	0.919059	0.124562	0.553673
C185	C	1.252392	0.457895	0.887007
C186	C	1.585725	0.791228	1.220340
C187	C	0.919217	0.124732	0.446585
C188	C	1.252550	0.458065	0.779919
C189	C	1.585883	0.791398	1.113252
C190	C	0.988432	0.077939	0.407263
C191	C	1.321766	0.411273	0.740596
C192	C	1.655099	0.744606	1.073930
C193	C	1.075689	0.090918	0.446104
C194	C	1.409022	0.424251	0.779437
C195	C	1.742356	0.757585	1.112771
C196	C	1.075298	0.091250	0.553226
C197	C	1.408632	0.424583	0.886559
C198	C	1.741965	0.757916	1.219892
C199	C	0.971390	0.018188	0.553394
C200	C	1.304724	0.351522	0.886728
C201	C	1.638057	0.684855	1.220061
C202	C	0.969383	0.018587	0.446267
C203	C	1.302717	0.351920	0.779600
C204	C	1.636050	0.685253	1.112933
C205	C	0.988421	0.077942	0.302375
C206	C	1.321754	0.411275	0.635708
C207	C	1.655087	0.744608	0.969042
C208	C	0.988480	0.077932	0.697742
C209	C	1.321813	0.411266	1.031076
C210	C	1.655147	0.744599	1.364409
H211	H	0.401739	0.155290	0.087570
H212	H	0.735072	0.488623	0.420903
H213	H	1.068406	0.821956	0.754236
Cl214	Cl	1.042427	-0.037497	0.404962
Cl215	Cl	1.375761	0.295836	0.738295
Cl216	Cl	1.709094	0.629170	1.071628
H217	H	0.559458	0.088316	-0.153019
H218	H	0.892791	0.421649	0.180314
H219	H	1.226125	0.754982	0.513648
H220	H	0.855713	-0.082617	0.000073
H221	H	1.189047	0.250717	0.333406
H222	H	1.522380	0.584050	0.666739
Cl223	Cl	1.099614	0.157423	0.404661
Cl224	Cl	1.432947	0.490756	0.737994
Cl225	Cl	1.766281	0.824089	1.071328
Cl226	Cl	1.098640	0.158521	0.591778
Cl227	Cl	1.431974	0.491854	0.925111
Cl228	Cl	1.765307	0.825188	1.258445
H229	H	0.929756	0.168648	0.580575
H230	H	1.263090	0.501981	0.913908
H231	H	1.596423	0.835315	1.247241
H232	H	0.930067	0.169068	0.420943
H233	H	1.263401	0.502401	0.754276
H234	H	1.596734	0.835734	1.087610
H235	H	1.123087	-0.653734	0.000047
H236	H	1.456420	-0.320400	0.333381
H237	H	1.789754	0.012933	0.666714
H238	H	0.909171	0.005708	0.580460
H239	H	1.242505	0.339042	0.913793
H240	H	1.575838	0.672375	1.247126
H241	H	0.433250	-0.010111	-0.062166
H242	H	0.766583	0.323223	0.271167
H243	H	1.099917	0.656556	0.604501
Cl244	Cl	0.592621	-0.021574	-0.097391
Cl245	Cl	0.925955	0.311760	0.235943
Cl246	Cl	1.259288	0.645093	0.569276
Cl247	Cl	0.406309	0.073501	-0.189053
Cl248	Cl	0.739642	0.406835	0.144280
Cl249	Cl	1.072975	0.740168	0.477614
Cl250	Cl	1.238270	-0.377118	0.000056
Cl251	Cl	1.571604	-0.043785	0.333389
Cl252	Cl	1.904937	0.289549	0.666723
Cl253	Cl	0.402423	0.077949	0.189691
Cl254	Cl	0.735756	0.411282	0.523024
Cl255	Cl	1.069090	0.744615	0.856357
H256	H	0.854341	0.116999	0.420326
H257	H	1.187675	0.450332	0.753659
H258	H	1.521008	0.783666	1.086993
H259	H	1.132698	-0.107228	0.000105
H260	H	1.466032	0.226105	0.333439
H261	H	1.799365	0.559438	0.666772
Cl262	Cl	1.049539	-0.035385	0.592513
Cl263	Cl	1.382873	0.297948	0.925847
Cl264	Cl	1.716206	0.631282	1.259180
Cl265	Cl	1.154757	-0.777666	0.000035
Cl266	Cl	1.488090	-0.444332	0.333369
Cl267	Cl	1.821424	-0.110999	0.666702
H268	H	0.844194	-0.736887	0.000027
H269	H	1.177527	-0.403554	0.333360
H270	H	1.510860	-0.070220	0.666694
H271	H	1.202331	-0.495018	0.000055
H272	H	1.535664	-0.161685	0.333389
H273	H	1.868997	0.171648	0.666722
H274	H	0.774569	-0.349085	-0.000006
H275	H	1.107902	-0.015752	0.333327
H276	H	1.441236	0.317582	0.666660
H277	H	0.401642	0.153804	-0.091771
H278	H	0.734975	0.487137	0.241562
H279	H	1.068308	0.820470	0.574895
Cl280	Cl	1.164389	-0.231142	0.000078
Cl281	Cl	1.497722	0.102192	0.333412
Cl282	Cl	1.831056	0.435525	0.666745
H283	H	0.846088	-0.629131	0.000015
H284	H	1.179421	-0.295797	0.333348
H285	H	1.512755	0.037536	0.666681
H286	H	0.853972	0.116956	0.579458
H287	H	1.187305	0.450289	0.912791
H288	H	1.520639	0.783623	1.246125
H289	H	0.544632	0.156043	-0.090985
H290	H	0.877965	0.489377	0.242348
H291	H	1.211299	0.822710	0.575681
Cl292	Cl	1.157315	0.040755	0.593244
Cl293	Cl	1.490648	0.374088	0.926577
Cl294	Cl	1.823981	0.707421	1.259911
H295	H	1.128548	0.057860	0.420631
H296	H	1.461881	0.391193	0.753965
H297	H	1.795215	0.724527	1.087298
H298	H	0.772666	-0.456841	-0.000012
H299	H	1.106000	-0.123508	0.333321
H300	H	1.439333	0.209826	0.666654
Cl301	Cl	0.573165	0.074694	0.188380
Cl302	Cl	0.906498	0.408027	0.521714
Cl303	Cl	1.239832	0.741360	0.855047
H304	H	0.905199	0.008737	0.420881
H305	H	1.238532	0.342070	0.754215
H306	H	1.571866	0.675404	1.087548
Cl307	Cl	0.819769	-0.200543	0.000064
Cl308	Cl	1.153103	0.132790	0.333398
Cl309	Cl	1.486436	0.466123	0.666731
Cl310	Cl	0.593490	-0.021482	0.097193
Cl311	Cl	0.926824	0.311852	0.430526
Cl312	Cl	1.260157	0.645185	0.763859
H313	H	0.545809	0.155413	0.093430
H314	H	0.879142	0.488746	0.426764
H315	H	1.212475	0.822080	0.760097
H316	H	0.434295	-0.010221	0.063354
H317	H	0.767629	0.323112	0.396687
H318	H	1.100962	0.656446	0.730021
