data_functionalizedCrystal
_audit_creation_method	'MofGen! by Chris Wilmer'
_symmetry_space_group_name_H-M	'P1'
_symmetry_Int_Tables_number	1
_symmetry_cell_setting	triclinic
loop_
_symmetry_equiv_pos_as_xyz
  x,y,z
_cell_length_a	25.639233
_cell_length_b	18.101398
_cell_length_c	18.101395
_cell_angle_alpha	90.026371
_cell_angle_beta	90.015138
_cell_angle_gamma	90.018723
loop_
_atom_site_label
_atom_site_type_symbol
_atom_site_fract_x
_atom_site_fract_y
_atom_site_fract_z
Zn1	Zn	-0.295707	-1.132080	0.295013
Zn2	Zn	0.037626	-0.798747	0.628347
Zn3	Zn	0.370959	-0.465413	0.961680
Zn4	Zn	-0.208277	-1.131988	0.418835
Zn5	Zn	0.125056	-0.798655	0.752169
Zn6	Zn	0.458389	-0.465321	1.085502
Zn7	Zn	-0.208277	-1.008251	0.295002
Zn8	Zn	0.125057	-0.674918	0.628335
Zn9	Zn	0.458390	-0.341584	0.961669
Zn10	Zn	-0.295672	-1.008190	0.418807
Zn11	Zn	0.037661	-0.674856	0.752141
Zn12	Zn	0.370994	-0.341523	1.085474
O13	O	-0.251983	-1.070127	0.356914
O14	O	0.081350	-0.736794	0.690248
O15	O	0.414683	-0.403461	1.023581
O16	O	-0.284124	-1.235701	0.311455
O17	O	0.049209	-0.902367	0.644788
O18	O	0.382542	-0.569034	0.978122
O19	O	-0.135112	-1.115561	0.402415
O20	O	0.198221	-0.782228	0.735749
O21	O	0.531555	-0.448895	1.069082
O22	O	-0.219889	-1.024741	0.191370
O23	O	0.113444	-0.691408	0.524704
O24	O	0.446778	-0.358075	0.858037
O25	O	-0.219890	-1.235633	0.402426
O26	O	0.113443	-0.902300	0.735760
O27	O	0.446777	-0.568966	1.069093
O28	O	-0.284124	-1.115718	0.191379
O29	O	0.049209	-0.782385	0.524712
O30	O	0.382543	-0.449051	0.858045
O31	O	-0.135112	-1.024652	0.311436
O32	O	0.198222	-0.691319	0.644769
O33	O	0.531555	-0.357986	0.978102
O34	O	-0.219855	-0.904610	0.311408
O35	O	0.113478	-0.571277	0.644742
O36	O	0.446812	-0.237943	0.978075
O37	O	-0.368842	-1.024637	0.402379
O38	O	-0.035509	-0.691304	0.735712
O39	O	0.297824	-0.357970	1.069045
O40	O	-0.284064	-0.904565	0.402368
O41	O	0.049269	-0.571232	0.735701
O42	O	0.382602	-0.237898	1.069034
O43	O	-0.368868	-1.115659	0.311428
O44	O	-0.035535	-0.782325	0.644761
O45	O	0.297799	-0.448992	0.978094
O46	O	-0.219856	-1.115502	0.522464
O47	O	0.113477	-0.782168	0.855798
O48	O	0.446811	-0.448835	1.189131
O49	O	-0.284065	-1.024548	0.522444
O50	O	0.049269	-0.691214	0.855777
O51	O	0.382602	-0.357881	1.189111
C52	C	-0.251956	-0.877717	0.356884
C53	C	0.081377	-0.544383	0.690218
C54	C	0.414711	-0.211050	1.023551
C55	C	-0.251957	-0.795403	0.356889
C56	C	0.081376	-0.462069	0.690223
C57	C	0.414710	-0.128736	1.023556
C58	C	-0.251968	-1.070028	0.549325
C59	C	0.081365	-0.736695	0.882658
C60	C	0.414699	-0.403361	1.215992
C61	C	-0.251979	-1.070053	0.631639
C62	C	0.081354	-0.736720	0.964972
C63	C	0.414688	-0.403387	1.298306
C64	C	-0.388356	-1.070151	0.356901
C65	C	-0.055023	-0.736818	0.690235
C66	C	0.278310	-0.403484	1.023568
C67	C	-0.446470	-1.070161	0.356896
C68	C	-0.113137	-0.736828	0.690229
C69	C	0.220196	-0.403495	1.023563
C70	C	-0.806853	-1.117616	0.309397
C71	C	-0.473519	-0.784283	0.642730
C72	C	-0.140186	-0.450950	0.976064
C73	C	-0.861457	-1.117625	0.309377
C74	C	-0.528124	-0.784292	0.642710
C75	C	-0.194790	-0.450959	0.976043
O76	O	-0.889710	-1.157914	0.269079
O77	O	-0.556377	-0.824580	0.602412
O78	O	-0.223043	-0.491247	0.935745
N79	N	-0.888753	-1.070243	0.356722
N80	N	-0.555420	-0.736910	0.690056
N81	N	-0.222087	-0.403576	1.023389
C82	C	-0.861442	-1.022843	0.404086
C83	C	-0.528109	-0.689509	0.737420
C84	C	-0.194775	-0.356176	1.070753
O85	O	-0.889674	-0.982541	0.444355
O86	O	-0.556340	-0.649207	0.777688
O87	O	-0.223007	-0.315874	1.111022
C88	C	-0.806839	-1.022830	0.404102
C89	C	-0.473505	-0.689497	0.737436
C90	C	-0.140172	-0.356164	1.070769
C91	C	-0.779545	-1.070221	0.356759
C92	C	-0.446212	-0.736888	0.690092
C93	C	-0.112879	-0.403555	1.023426
C94	C	-0.779559	-1.165003	0.262057
C95	C	-0.446226	-0.831670	0.595390
C96	C	-0.112893	-0.498336	0.928723
C97	C	-0.724959	-1.164995	0.262078
C98	C	-0.391626	-0.831661	0.595412
C99	C	-0.058292	-0.498328	0.928745
C100	C	-0.697652	-1.117600	0.309440
C101	C	-0.364318	-0.784266	0.642774
C102	C	-0.030985	-0.450933	0.976107
C103	C	-0.724945	-1.070213	0.356781
C104	C	-0.391612	-0.736880	0.690114
C105	C	-0.058278	-0.403546	1.023447
C106	C	-0.779529	-0.975427	0.451462
C107	C	-0.446195	-0.642094	0.784795
C108	C	-0.112862	-0.308760	1.118129
C109	C	-0.724922	-0.975418	0.451474
C110	C	-0.391588	-0.642085	0.784807
C111	C	-0.058255	-0.308752	1.118140
C112	C	-0.697628	-1.022809	0.404130
C113	C	-0.364295	-0.689476	0.737464
C114	C	-0.030962	-0.356143	1.070797
C115	C	-0.643037	-1.022810	0.404164
C116	C	-0.309704	-0.689476	0.737497
C117	C	0.023630	-0.356143	1.070831
N118	N	-0.615741	-1.070192	0.356818
N119	N	-0.282408	-0.736859	0.690152
N120	N	0.050926	-0.403526	1.023485
C121	C	-0.643048	-1.117587	0.309456
C122	C	-0.309715	-0.784254	0.642790
C123	C	0.023618	-0.450921	0.976123
C124	C	-0.976113	-1.022871	0.404048
C125	C	-0.642779	-0.689538	0.737381
C126	C	-0.309446	-0.356205	1.070714
C127	C	-1.030715	-1.022887	0.404036
C128	C	-0.697382	-0.689554	0.737369
C129	C	-0.364048	-0.356220	1.070702
C130	C	-1.030726	-1.117669	0.309325
C131	C	-0.697393	-0.784335	0.642658
C132	C	-0.364060	-0.451002	0.975992
C133	C	-0.976123	-1.117656	0.309341
C134	C	-0.642790	-0.784323	0.642674
C135	C	-0.309456	-0.450990	0.976008
C136	C	-0.948817	-1.070254	0.356702
C137	C	-0.615483	-0.736921	0.690035
C138	C	-0.282150	-0.403587	1.023369
C139	C	-0.528383	-1.117567	0.309506
C140	C	-0.195050	-0.784233	0.642839
C141	C	0.138284	-0.450900	0.976173
C142	C	-0.473778	-1.117556	0.309534
C143	C	-0.140444	-0.784223	0.642867
C144	C	0.192889	-0.450890	0.976201
C145	C	-0.473771	-1.022772	0.404242
C146	C	-0.140438	-0.689439	0.737575
C147	C	0.192895	-0.356105	1.070908
C148	C	-0.528372	-1.022785	0.404217
C149	C	-0.195039	-0.689451	0.737550
C150	C	0.138295	-0.356118	1.070883
C151	C	-0.555677	-1.070185	0.356843
C152	C	-0.222343	-0.736851	0.690176
C153	C	0.110990	-0.403518	1.023510
O154	O	-0.614750	-0.982540	0.444439
O155	O	-0.281416	-0.649207	0.777773
O156	O	0.051917	-0.315873	1.111106
O157	O	-0.614810	-1.157876	0.269188
O158	O	-0.281477	-0.824543	0.602521
O159	O	0.051857	-0.491209	0.935854
C160	C	-0.116141	-1.070146	0.356874
C161	C	0.217192	-0.736813	0.690207
C162	C	0.550526	-0.403479	1.023541
C163	C	-0.058027	-1.070279	0.356671
C164	C	0.275306	-0.736946	0.690004
C165	C	0.608640	-0.403613	1.023337
C166	C	-0.252011	-1.263289	0.356945
C167	C	0.081322	-0.929956	0.690278
C168	C	0.414656	-0.596622	1.023612
C169	C	-0.252023	-1.345603	0.356958
C170	C	0.081310	-1.012270	0.690292
C171	C	0.414644	-0.678936	1.023625
C172	C	-0.252001	-0.496312	0.356936
C173	C	0.081333	-0.162978	0.690269
C174	C	0.414666	0.170355	1.023602
C175	C	-0.211799	-0.527640	0.299420
C176	C	0.121534	-0.194307	0.632754
C177	C	0.454868	0.139026	0.966087
C178	C	-0.211628	-0.613259	0.299575
C179	C	0.121706	-0.279925	0.632908
C180	C	0.455039	0.053408	0.966241
C181	C	-0.251979	-0.644694	0.356912
C182	C	0.081354	-0.311361	0.690245
C183	C	0.414688	0.021973	1.023579
C184	C	-0.236925	-0.613578	0.434919
C185	C	0.096408	-0.280245	0.768253
C186	C	0.429741	0.053089	1.101586
C187	C	-0.236646	-0.527933	0.434600
C188	C	0.096688	-0.194600	0.767933
C189	C	0.430021	0.138734	1.101266
C190	C	-0.307351	-0.527919	0.337121
C191	C	0.025983	-0.194585	0.670455
C192	C	0.359316	0.138748	1.003788
C193	C	-0.307049	-0.613569	0.335384
C194	C	0.026285	-0.280236	0.668718
C195	C	0.359618	0.053097	1.002051
C196	C	-0.251968	-0.728554	0.356903
C197	C	0.081366	-0.395220	0.690237
C198	C	0.414699	-0.061887	1.023570
C199	C	-0.252011	-0.412452	0.356949
C200	C	0.081322	-0.079119	0.690283
C201	C	0.414656	0.254215	1.023616
C202	C	-0.252010	-1.070247	0.163752
C203	C	0.081323	-0.736914	0.497086
C204	C	0.414656	-0.403580	0.830419
C205	C	-0.252022	-1.070298	0.081438
C206	C	0.081312	-0.736964	0.414772
C207	C	0.414645	-0.403631	0.748105
C208	C	-0.252007	-1.070216	0.930730
C209	C	0.081326	-0.736883	1.264063
C210	C	0.414660	-0.403549	1.597397
C211	C	-0.292506	-1.013123	0.899423
C212	C	0.040827	-0.679789	1.232756
C213	C	0.374161	-0.346456	1.566089
C214	C	-0.292379	-1.012852	0.813805
C215	C	0.040954	-0.679518	1.147138
C216	C	0.374288	-0.346185	1.480471
C217	C	-0.251994	-1.070135	0.782347
C218	C	0.081340	-0.736802	1.115681
C219	C	0.414673	-0.403469	1.449014
C220	C	-0.196889	-1.049014	0.813480
C221	C	0.136444	-0.715680	1.146814
C222	C	0.469778	-0.382347	1.480147
C223	C	-0.197131	-1.048646	0.899126
C224	C	0.136202	-0.715312	1.232459
C225	C	0.469535	-0.381979	1.565792
C226	C	-0.266128	-1.148556	0.899084
C227	C	0.067205	-0.815222	1.232418
C228	C	0.400539	-0.481889	1.565751
C229	C	-0.267336	-1.148095	0.813434
C230	C	0.065997	-0.814762	1.146767
C231	C	0.399330	-0.481428	1.480100
C232	C	-0.251983	-1.070091	0.698488
C233	C	0.081351	-0.736758	1.031821
C234	C	0.414684	-0.403424	1.365155
C235	C	-0.252014	-1.070258	1.014589
C236	C	0.081319	-0.736925	1.347923
C237	C	0.414652	-0.403592	1.681256
H238	H	-0.451558	-1.156150	0.270981
H239	H	-0.118225	-0.822817	0.604314
H240	H	0.215109	-0.489484	0.937647
H241	H	-0.196182	-0.507927	0.451405
H242	H	0.137151	-0.174593	0.784738
H243	H	0.470484	0.158740	1.118072
H244	H	-0.283025	-0.954784	0.793374
H245	H	0.050308	-0.621451	1.126707
H246	H	0.383642	-0.288117	1.460041
H247	H	-0.264650	-0.507207	0.478903
H248	H	0.068683	-0.173874	0.812236
H249	H	0.402017	0.159460	1.145570
H250	H	-0.265290	-0.633939	0.478920
H251	H	0.068043	-0.300605	0.812253
H252	H	0.401377	0.032728	1.145586
H253	H	-0.333238	-1.026065	0.792754
H254	H	0.000095	-0.692732	1.126087
H255	H	0.333428	-0.359399	1.459421
H256	H	-1.052933	-0.984304	0.442596
H257	H	-0.719599	-0.650971	0.775929
H258	H	-0.386266	-0.317638	1.109262
H259	H	-0.702741	-1.203584	0.223525
H260	H	-0.369408	-0.870251	0.556858
H261	H	-0.036075	-0.536917	0.890192
H262	H	-0.196899	-0.634998	0.452016
H263	H	0.136434	-0.301665	0.785350
H264	H	0.469768	0.031668	1.118683
H265	H	-0.550608	-1.156162	0.270927
H266	H	-0.217275	-0.822828	0.604261
H267	H	0.116059	-0.489495	0.937594
H268	H	-0.185170	-0.991380	0.919160
H269	H	0.148163	-0.658047	1.252494
H270	H	0.481496	-0.324713	1.585827
H271	H	-0.321038	-0.506345	0.281230
H272	H	0.012296	-0.173011	0.614563
H273	H	0.345629	0.160322	0.947896
H274	H	-0.165927	-1.088426	0.919837
H275	H	0.167406	-0.755093	1.253170
H276	H	0.500739	-0.421760	1.586504
H277	H	-0.953883	-0.984270	0.442619
H278	H	-0.620550	-0.650936	0.775952
H279	H	-0.287217	-0.317603	1.109285
H280	H	-0.550595	-0.984202	0.442775
H281	H	-0.217262	-0.650869	0.776108
H282	H	0.116071	-0.317535	1.109441
H283	H	-0.184714	-0.992355	0.792087
H284	H	0.148620	-0.659021	1.125421
H285	H	0.481953	-0.325688	1.458754
H286	H	-0.305626	-1.167814	0.920646
H287	H	0.027708	-0.834481	1.253979
H288	H	0.361041	-0.501147	1.587312
H289	H	-0.307890	-1.164023	0.793084
H290	H	0.025443	-0.830689	1.126417
H291	H	0.358776	-0.497356	1.459751
H292	H	-0.170614	-0.633718	0.312672
H293	H	0.162719	-0.300385	0.646005
H294	H	0.496053	0.032949	0.979339
H295	H	-0.318400	-0.633912	0.277980
H296	H	0.014934	-0.300579	0.611313
H297	H	0.348267	0.032755	0.944646
H298	H	-0.165891	-1.089290	0.793104
H299	H	0.167442	-0.755957	1.126438
H300	H	0.500775	-0.422623	1.459771
H301	H	-0.337305	-0.507658	0.379013
H302	H	-0.003971	-0.174325	0.712347
H303	H	0.329362	0.159009	1.045680
H304	H	-0.338607	-0.634970	0.374224
H305	H	-0.005273	-0.301637	0.707557
H306	H	0.328060	0.031697	1.040890
H307	H	-0.239990	-1.192882	0.792017
H308	H	0.093344	-0.859549	1.125350
H309	H	0.426677	-0.526215	1.458683
H310	H	-0.801742	-0.936836	0.490014
H311	H	-0.468408	-0.603503	0.823348
H312	H	-0.135075	-0.270169	1.156681
H313	H	-0.702692	-0.936809	0.490034
H314	H	-0.369358	-0.603475	0.823367
H315	H	-0.036025	-0.270142	1.156700
H316	H	-0.333497	-1.026205	0.919984
H317	H	-0.000164	-0.692872	1.253317
H318	H	0.333169	-0.359539	1.586650
H319	H	-0.283270	-0.955408	0.921002
H320	H	0.050064	-0.622075	1.254335
H321	H	0.383397	-0.288742	1.587668
H322	H	-0.236631	-1.191092	0.919329
H323	H	0.096702	-0.857759	1.252662
H324	H	0.430035	-0.524425	1.585996
H325	H	-0.801787	-1.203598	0.223485
H326	H	-0.468454	-0.870264	0.556818
H327	H	-0.135121	-0.536931	0.890152
H328	H	-0.953904	-1.156245	0.270789
H329	H	-0.620571	-0.822912	0.604122
H330	H	-0.287238	-0.489579	0.937455
H331	H	-0.451528	-0.984186	0.442805
H332	H	-0.118195	-0.650853	0.776138
H333	H	0.215139	-0.317520	1.109472
H334	H	-1.052970	-1.156259	0.270758
H335	H	-0.719636	-0.822925	0.604092
H336	H	-0.386303	-0.489592	0.937425
H337	H	-0.221063	-0.634298	0.241728
H338	H	0.112270	-0.300965	0.575062
H339	H	0.445603	0.032369	0.908395
H340	H	-0.221131	-0.507069	0.241398
H341	H	0.112202	-0.173735	0.574731
H342	H	0.445536	0.159598	0.908064
H343	H	-0.171024	-0.506097	0.312370
H344	H	0.162309	-0.172763	0.645703
H345	H	0.495643	0.160570	0.979036
