data_functionalizedCrystal
_audit_creation_method	'MofGen! by Chris Wilmer'
_symmetry_space_group_name_H-M	'P1'
_symmetry_Int_Tables_number	1
_symmetry_cell_setting	triclinic
loop_
_symmetry_equiv_pos_as_xyz
  x,y,z
_cell_length_a	14.853558
_cell_length_b	14.853567
_cell_length_c	9.730217
_cell_angle_alpha	90.000542
_cell_angle_beta	89.999116
_cell_angle_gamma	83.633032
loop_
_atom_site_label
_atom_site_type_symbol
_atom_site_fract_x
_atom_site_fract_y
_atom_site_fract_z
O1	O	1.196366	0.117663	-0.114261
O2	O	0.933905	0.131693	-0.114266
O3	O	1.072146	-0.006552	-0.114268
O4	O	1.058125	0.255908	-0.114260
O5	O	1.072142	-0.006553	0.114312
O6	O	0.933901	0.131692	0.114314
O7	O	1.196362	0.117662	0.114319
Zn8	Zn	1.065131	0.124676	0.150608
Zn9	Zn	1.065136	0.124678	-0.150556
O10	O	1.058121	0.255907	0.114320
C11	C	0.900314	0.131058	0.000023
C12	C	0.800230	0.129158	0.000020
C13	C	1.071509	-0.040141	0.000018
C14	C	1.069605	-0.140225	0.000006
C15	C	0.753212	0.128267	-0.124584
C16	C	0.753206	0.128255	0.124623
C17	C	0.659173	0.126465	0.124625
C18	C	0.612155	0.125574	0.000021
C19	C	0.659170	0.126474	-0.124585
C20	C	0.612151	0.125555	0.249229
C21	C	0.518112	0.123764	0.249237
C22	C	0.471091	0.122880	0.124631
C23	C	0.518113	0.123781	0.000019
C24	C	0.471095	0.122890	-0.124585
C25	C	0.518114	0.123797	-0.249198
C26	C	0.612150	0.125589	-0.249191
C27	C	0.377055	0.121087	0.124624
C28	C	0.377053	0.121097	-0.124586
C29	C	0.979439	-0.552756	0.000031
C30	C	1.143673	-0.574042	0.000034
C31	C	1.145463	-0.480009	0.000026
C32	C	1.064240	-0.422344	0.000022
C33	C	0.981227	-0.458713	0.000027
C34	C	1.228474	-0.443632	0.000035
C35	C	1.230268	-0.349593	0.000029
C36	C	1.149044	-0.291927	0.000015
C37	C	1.066027	-0.328301	0.000018
C38	C	0.984805	-0.270637	0.000015
C39	C	0.901787	-0.307009	0.000008
C40	C	0.900003	-0.401047	0.000013
C41	C	1.150828	-0.197890	0.000010
C42	C	0.986592	-0.176594	0.000011
C43	C	1.229953	0.118296	0.000027
C44	C	1.330037	0.120197	0.000020
C45	C	1.058758	0.289496	0.000031
C46	C	1.060662	0.389580	0.000034
N47	N	1.065134	0.124675	0.356145
N48	N	1.065141	0.124673	-0.356092
C49	C	1.187596	0.002294	0.356134
C50	C	1.248833	-0.058894	0.428069
C51	C	1.248842	-0.058894	0.571948
C52	C	1.187606	0.002298	0.643897
C53	C	1.126369	0.063485	0.571962
C54	C	1.126368	0.063481	0.428079
C55	C	1.003904	0.185860	0.571973
C56	C	1.003897	0.185867	0.428093
C57	C	0.942667	0.247052	0.643922
C58	C	0.881433	0.308246	0.571987
C59	C	0.881427	0.308245	0.428099
C60	C	0.942660	0.247054	0.356159
H61	H	0.479820	0.123067	-0.350650
N62	N	1.187616	0.002297	0.799080
H63	H	1.139536	0.050345	0.833744
H64	H	1.174463	-0.059016	0.833628
N65	N	0.898991	-0.114393	0.000007
H66	H	0.862780	-0.126101	-0.084729
H67	H	0.862848	-0.126131	0.084797
N68	N	0.662862	0.126563	-0.383585
H69	H	0.729568	0.127827	-0.364673
H70	H	0.653665	0.070406	-0.437999
H71	H	1.187602	0.002296	0.238980
N72	N	0.326341	0.120128	-0.258981
H73	H	0.280079	0.175224	-0.264530
H74	H	0.370457	0.120941	-0.337837
H75	H	0.835656	-0.260047	0.000015
N76	N	1.231268	-0.636240	0.000054
H77	H	1.234187	-0.675737	-0.084675
H78	H	1.284080	-0.598871	0.000103
H79	H	1.298690	-0.108718	0.369476
N80	N	1.240357	-0.158660	0.000033
H81	H	1.244770	-0.120118	-0.084699
H82	H	1.244690	-0.120161	0.084827
H83	H	0.791495	0.128973	0.226070
N84	N	1.314887	-0.124888	0.649545
H85	H	1.353679	-0.163653	0.582141
H86	H	1.354778	-0.090289	0.709232
N87	N	0.942640	0.247050	0.200975
H88	H	0.955816	0.308329	0.166304
H89	H	0.990714	0.198962	0.166421
H90	H	0.942674	0.247045	0.761076
N91	N	0.326345	0.120099	0.259012
H92	H	0.370481	0.120316	0.337941
H93	H	0.280506	0.175513	0.264864
N94	N	0.803915	0.129237	-0.258986
H95	H	0.780305	0.184768	-0.313453
H96	H	0.870611	0.130474	-0.239974
H97	H	0.831557	0.358068	0.369537
N98	N	0.662859	0.126516	0.383616
H99	H	0.729565	0.127796	0.364706
H100	H	0.639175	0.182044	0.438032
N101	N	0.467401	0.122786	0.383631
H102	H	0.511536	0.122995	0.462563
H103	H	0.421572	0.178208	0.389478
N104	N	0.815385	0.374232	0.649584
H105	H	0.824678	0.364942	0.751645
H106	H	0.825867	0.438212	0.624445
N107	N	1.319804	-0.310369	0.000008
H108	H	1.308614	-0.242047	-0.000002
H109	H	1.355353	-0.331448	0.084745
N110	N	0.810470	-0.440276	0.000012
H111	H	0.821664	-0.508598	0.000023
H112	H	0.774923	-0.419186	0.084749
H113	H	0.911848	-0.582375	0.000020
H114	H	1.294601	-0.490589	0.000051
