data_functionalizedCrystal
_audit_creation_method	'MofGen! by Chris Wilmer'
_symmetry_space_group_name_H-M	'P1'
_symmetry_Int_Tables_number	1
_symmetry_cell_setting	triclinic
loop_
_symmetry_equiv_pos_as_xyz
  x,y,z
_cell_length_a	19.077105
_cell_length_b	21.295417
_cell_length_c	19.076919
_cell_angle_alpha	92.266620
_cell_angle_beta	90.076224
_cell_angle_gamma	87.726672
loop_
_atom_site_label
_atom_site_type_symbol
_atom_site_fract_x
_atom_site_fract_y
_atom_site_fract_z
Zn1	Zn	1.058236	-0.304534	-0.440387
Zn2	Zn	1.558236	0.195466	0.059613
Zn3	Zn	1.062864	-0.405747	-0.322870
Zn4	Zn	1.562864	0.094253	0.177130
Zn5	Zn	0.945454	-0.296102	-0.318181
Zn6	Zn	1.445454	0.203898	0.181819
Zn7	Zn	0.940686	-0.405368	-0.435623
Zn8	Zn	1.440686	0.094632	0.064377
O9	O	1.001810	-0.352938	-0.379265
O10	O	1.501810	0.147062	0.120735
O11	O	1.157181	-0.321649	-0.428754
O12	O	1.657181	0.178351	0.071246
O13	O	1.051222	-0.387832	-0.223917
O14	O	1.551222	0.112168	0.276083
O15	O	0.960474	-0.209134	-0.334424
O16	O	1.460474	0.290866	0.165576
O17	O	1.160581	-0.396009	-0.342415
O18	O	1.660581	0.103991	0.157585
O19	O	1.043334	-0.215330	-0.424208
O20	O	1.543334	0.284670	0.075792
O21	O	0.964962	-0.307276	-0.220472
O22	O	1.464962	0.192724	0.279528
O23	O	0.846490	-0.306908	-0.329804
O24	O	1.346490	0.193092	0.170196
O25	O	0.952346	-0.395362	-0.534586
O26	O	1.452346	0.104638	-0.034586
O27	O	0.842987	-0.387185	-0.416088
O28	O	1.342987	0.112815	0.083912
O29	O	1.038710	-0.321280	-0.538086
O30	O	1.538710	0.178720	-0.038086
O31	O	1.046598	-0.493783	-0.337795
O32	O	1.546598	0.006217	0.162205
O33	O	0.956834	-0.493504	-0.420634
O34	O	1.456834	0.006496	0.079366
C35	C	0.819242	-0.346091	-0.371921
C36	C	1.319242	0.153909	0.128079
C37	C	0.741139	-0.343178	-0.368795
C38	C	1.241139	0.156822	0.131205
C39	C	0.702642	-0.383663	-0.412179
C40	C	1.202642	0.116337	0.087821
C41	C	0.629255	-0.380918	-0.409246
C42	C	1.129255	0.119082	0.090754
C43	C	0.594366	-0.337689	-0.362924
C44	C	1.094366	0.162311	0.137076
C45	C	0.632868	-0.297199	-0.319538
C46	C	1.132868	0.202801	0.180462
C47	C	0.706253	-0.299942	-0.322476
C48	C	1.206253	0.200058	0.177524
C49	C	0.375080	-0.324994	-0.349333
C50	C	0.875080	0.175006	0.150667
C51	C	0.301690	-0.322256	-0.346397
C52	C	0.801690	0.177744	0.153603
C53	C	0.298082	-0.405974	-0.436106
C54	C	0.798082	0.094026	0.063894
C55	C	0.371470	-0.408715	-0.439037
C56	C	0.871470	0.091285	0.060963
C57	C	0.409965	-0.368223	-0.395653
C58	C	0.909965	0.131777	0.104347
N59	N	0.519353	-0.334883	-0.359923
N60	N	1.019353	0.165117	0.140077
N61	N	0.484976	-0.371027	-0.398658
N62	N	0.984976	0.128973	0.101342
C63	C	1.001719	-0.516485	-0.379223
C64	C	1.501719	-0.016485	0.120777
C65	C	1.001744	-0.586454	-0.379231
C66	C	1.501744	-0.086454	0.120769
C67	C	1.048522	-0.619448	-0.336144
C68	C	1.548522	-0.119448	0.163856
C69	C	1.048554	-0.685192	-0.336161
C70	C	1.548554	-0.185192	0.163839
C71	C	1.001796	-0.717939	-0.379257
C72	C	1.501796	-0.217939	0.120743
C73	C	0.955015	-0.684937	-0.422352
C74	C	1.455015	-0.184937	0.077648
C75	C	0.954989	-0.619195	-0.422339
C76	C	1.454989	-0.119195	0.077661
N77	N	0.940111	-0.819089	-0.382141
N78	N	1.440111	-0.319089	0.117859
N79	N	0.940138	-0.881541	-0.382149
N80	N	1.440138	-0.381541	0.117851
C81	C	1.001873	-0.916018	-0.379300
C82	C	1.501873	-0.416018	0.120700
N83	N	1.063583	-0.885683	-0.376429
N84	N	1.563583	-0.385683	0.123571
N85	N	1.063555	-0.823224	-0.376417
N86	N	1.563555	-0.323224	0.123583
C87	C	1.001820	-0.789226	-0.379276
C88	C	1.501820	-0.289226	0.120724
C89	C	1.048690	-1.020300	-0.336230
C90	C	1.548690	-0.520300	0.163770
C91	C	1.048724	-1.086046	-0.336252
C92	C	1.548724	-0.586046	0.163748
C93	C	0.955178	-1.085789	-0.422439
C94	C	1.455178	-0.585789	0.077561
C95	C	0.955151	-1.020045	-0.422421
C96	C	1.455151	-0.520045	0.077579
C97	C	1.001906	-0.987304	-0.379313
C98	C	1.501906	-0.487304	0.120687
C99	C	1.185090	-0.359812	-0.386639
C100	C	1.685090	0.140188	0.113361
C101	C	1.263193	-0.362741	-0.389782
C102	C	1.763193	0.137259	0.110218
C103	C	0.994480	-0.359220	-0.562545
C104	C	1.494480	0.140780	-0.062545
C105	C	0.991356	-0.361897	-0.640648
C106	C	1.491356	0.138103	-0.140648
C107	C	1.001919	-0.188754	-0.379324
C108	C	1.501919	0.311246	0.120676
C109	C	1.001966	-0.118788	-0.379349
C110	C	1.501966	0.381212	0.120651
C111	C	1.034851	-0.324586	-0.679164
C112	C	1.534851	0.175414	-0.179164
C113	C	1.031907	-0.327098	-0.752550
C114	C	1.531907	0.172902	-0.252550
C115	C	0.985472	-0.366925	-0.787418
C116	C	1.485472	0.133075	-0.287418
C117	C	0.941972	-0.404238	-0.748896
C118	C	1.441972	0.095762	-0.248896
C119	C	0.944913	-0.401722	-0.675512
C120	C	1.444913	0.098278	-0.175512
C121	C	0.971853	-0.378584	-1.006698
C122	C	1.471853	0.121416	-0.506698
C123	C	0.968917	-0.381099	-1.080087
C124	C	1.468917	0.118901	-0.580087
C125	C	1.058852	-0.303958	-1.083736
C126	C	1.558852	0.196042	-0.583736
C127	C	1.061791	-0.301448	-1.010350
C128	C	1.561791	0.198552	-0.510350
C129	C	1.018289	-0.338758	-0.971835
C130	C	1.518289	0.161242	-0.471835
N131	N	0.982464	-0.369496	-0.862429
N132	N	1.482464	0.130504	-0.362429
N133	N	1.021294	-0.336183	-0.896824
N134	N	1.521294	0.163817	-0.396824
C135	C	1.009152	-0.346637	-0.196700
C136	C	1.509152	0.153363	0.303300
C137	C	1.012412	-0.343787	-0.118604
C138	C	1.512412	0.156213	0.381396
H139	H	0.597915	-0.413886	-0.444573
H140	H	1.097915	0.086114	0.055427
Br141	Br	0.418815	-0.467388	-0.501900
Br142	Br	0.918815	0.032612	-0.001900
H143	H	0.731044	-0.418867	-0.449897
H144	H	1.231044	0.081133	0.050103
H145	H	1.086595	-0.592792	-0.301045
H146	H	1.586595	-0.092792	0.198955
H147	H	0.266732	-0.438939	-0.471428
H148	H	0.766732	0.061061	0.028572
Br149	Br	1.112221	-1.130825	-0.277780
Br150	Br	1.612221	-0.630825	0.222220
Br151	Br	0.254340	-0.263591	-0.283520
Br152	Br	0.754340	0.236409	0.216480
Br153	Br	1.112044	-0.729980	-0.277683
Br154	Br	1.612044	-0.229980	0.222317
H155	H	0.406414	-0.292027	-0.314002
H156	H	0.906414	0.207973	0.185998
H157	H	0.604455	-0.261999	-0.281825
H158	H	1.104455	0.238001	0.218175
H159	H	0.737596	-0.266971	-0.287151
H160	H	1.237596	0.233029	0.212849
H161	H	0.916945	-0.711604	-0.457442
H162	H	1.416945	-0.211604	0.042558
Br163	Br	0.891500	-0.574414	-0.480819
Br164	Br	1.391500	-0.074414	0.019181
H165	H	0.936440	-0.408974	-0.975347
H166	H	1.436440	0.091026	-0.475347
H167	H	1.086764	-0.993641	-0.301131
H168	H	1.586764	-0.493641	0.198869
Br169	Br	1.097879	-0.270536	-0.631851
Br170	Br	1.597879	0.229464	-0.131851
H171	H	0.917110	-1.112451	-0.457532
H172	H	1.417110	-0.612451	0.042468
H173	H	1.099606	-0.269018	-0.981966
H174	H	1.599606	0.230982	-0.481966
Br175	Br	0.891661	-0.975264	-0.480897
Br176	Br	1.391661	-0.475264	0.019103
H177	H	1.067327	-0.296717	-0.783907
H178	H	1.567327	0.203283	-0.283907
Br179	Br	1.117886	-0.253324	-1.136010
Br180	Br	1.617886	0.246676	-0.636010
H181	H	0.931101	-0.413532	-1.108474
H182	H	1.431101	0.086468	-0.608474
Br183	Br	0.878947	-0.458286	-0.796216
Br184	Br	1.378947	0.041714	-0.296216
H185	H	0.909487	-0.432098	-0.644152
H186	H	1.409487	0.067902	-0.144152
