data_functionalizedCrystal
_audit_creation_method	'MofGen! by Chris Wilmer'
_symmetry_space_group_name_H-M	'P1'
_symmetry_Int_Tables_number	1
_symmetry_cell_setting	triclinic
loop_
_symmetry_equiv_pos_as_xyz
  x,y,z
_cell_length_a	18.050589
_cell_length_b	16.120542
_cell_length_c	16.120256
_cell_angle_alpha	89.872789
_cell_angle_beta	92.877403
_cell_angle_gamma	92.880229
loop_
_atom_site_label
_atom_site_type_symbol
_atom_site_fract_x
_atom_site_fract_y
_atom_site_fract_z
Zn1	Zn	-0.376345	-1.247408	-0.534617
Zn2	Zn	0.123655	-0.747408	-0.034617
Zn3	Zn	-0.494566	-1.254347	-0.395566
Zn4	Zn	0.005434	-0.754347	0.104434
Zn5	Zn	-0.363783	-1.115399	-0.388531
Zn6	Zn	0.136217	-0.615399	0.111469
Zn7	Zn	-0.493876	-1.108303	-0.527532
Zn8	Zn	0.006124	-0.608303	-0.027532
O9	O	-0.432142	-1.181364	-0.461561
O10	O	0.067858	-0.681364	0.038439
O11	O	-0.397573	-1.364694	-0.522081
O12	O	0.102427	-0.864694	-0.022081
O13	O	-0.472249	-1.241789	-0.278267
O14	O	0.027751	-0.741789	0.221733
O15	O	-0.261528	-1.132976	-0.407930
O16	O	0.238472	-0.632976	0.092070
O17	O	-0.484430	-1.369793	-0.419920
O18	O	0.015570	-0.869793	0.080080
O19	O	-0.270758	-1.229962	-0.515259
O20	O	0.229242	-0.729962	-0.015259
O21	O	-0.376163	-1.139705	-0.273098
O22	O	0.123837	-0.639705	0.226902
O23	O	-0.375494	-0.998092	-0.401060
O24	O	0.124506	-0.498092	0.098940
O25	O	-0.483254	-1.120882	-0.644838
O26	O	0.016746	-0.620882	-0.144838
O27	O	-0.471073	-0.992878	-0.503184
O28	O	0.028927	-0.492878	-0.003184
O29	O	-0.396904	-1.223081	-0.650043
O30	O	0.103096	-0.723081	-0.150043
O31	O	-0.598395	-1.234909	-0.413051
O32	O	-0.098395	-0.734909	0.086949
O33	O	-0.597888	-1.127611	-0.510006
O34	O	-0.097888	-0.627611	-0.010006
C35	C	-0.421846	-0.965313	-0.450591
C36	C	0.078154	-0.465313	0.049409
C37	C	-0.417460	-0.872884	-0.445917
C38	C	0.082540	-0.372884	0.054083
C39	C	-0.454871	-0.659919	-0.485759
C40	C	0.045129	-0.159919	0.014241
C41	C	-0.409458	-0.703660	-0.437383
C42	C	0.090542	-0.203660	0.062617
C43	C	-0.413912	-0.797825	-0.442133
C44	C	0.086088	-0.297825	0.057867
C45	C	-0.450419	-0.565745	-0.481011
C46	C	0.049581	-0.065745	0.018989
C47	C	-0.625089	-1.181265	-0.461543
C48	C	-0.125089	-0.681265	0.038457
C49	C	-0.707637	-1.181297	-0.461566
C50	C	-0.207637	-0.681297	0.038434
C51	C	-0.906841	-1.123004	-0.514274
C52	C	-0.406841	-0.623004	-0.014274
C53	C	-0.952060	-1.106581	-0.437367
C54	C	-0.452060	-0.606581	0.062633
C55	C	-0.858772	-1.181378	-0.461581
C56	C	-0.358772	-0.681378	0.038419
C57	C	-0.960637	-1.197841	-0.538498
C58	C	-0.460637	-0.697841	-0.038498
C59	C	-1.004762	-1.181454	-0.461602
C60	C	-0.504762	-0.681454	0.038398
C61	C	-0.902900	-1.164917	-0.384633
C62	C	-0.402900	-0.664917	0.115367
C63	C	-0.911477	-1.256210	-0.485816
C64	C	-0.411477	-0.756210	0.014184
C65	C	-0.956673	-1.239819	-0.408859
C66	C	-0.456673	-0.739819	0.091141
C67	C	-0.774671	-1.181332	-0.461570
C68	C	-0.274671	-0.681332	0.038430
C69	C	-1.088860	-1.181501	-0.461605
C70	C	-0.588860	-0.681501	0.038395
C71	C	-0.238444	-1.181486	-0.461600
C72	C	0.261556	-0.681486	0.038400
C73	C	-0.155901	-1.181538	-0.461616
C74	C	0.344099	-0.681538	0.038384
C75	C	-0.441403	-1.170416	-0.678457
C76	C	0.058597	-0.670416	-0.178457
C77	C	-0.445350	-1.165751	-0.770885
C78	C	0.054650	-0.665751	-0.270885
C79	C	-0.442475	-0.398260	-0.472564
C80	C	0.057525	0.101740	0.027436
C81	C	-0.446867	-0.490690	-0.477223
C82	C	0.053133	0.009310	0.022777
C83	C	-0.411543	-1.205693	-0.983868
C84	C	0.088457	-0.705693	-0.483868
C85	C	-0.452523	-1.157205	-0.940105
C86	C	0.047477	-0.657205	-0.440105
C87	C	-0.448530	-1.161961	-0.845942
C88	C	0.051470	-0.661961	-0.345942
C89	C	-0.415534	-1.200937	-1.078039
C90	C	0.084466	-0.700937	-0.578039
C91	C	-0.422866	-1.192318	-0.245512
C92	C	0.077134	-0.692318	0.254488
C93	C	-0.418718	-1.197144	-0.153093
C94	C	0.081282	-0.697144	0.346907
H95	H	-0.497091	-0.693188	-0.530738
H96	H	0.002909	-0.193188	-0.030738
C97	C	-0.897614	-0.978004	-0.548760
C98	C	-0.397614	-0.478004	-0.048760
C99	C	-0.877298	-1.056279	-0.574333
C100	C	-0.377298	-0.556279	-0.074333
H101	H	-0.879369	-0.936811	-0.585833
H102	H	-0.379369	-0.436811	-0.085833
H103	H	-0.950198	-0.977244	-0.548816
H104	H	-0.450198	-0.477244	-0.048816
H105	H	-0.877041	-0.966866	-0.494291
H106	H	-0.377041	-0.466866	0.005709
H107	H	-0.897875	-1.067420	-0.628801
H108	H	-0.397875	-0.567420	-0.128801
H109	H	-0.824703	-1.057040	-0.574286
H110	H	-0.324703	-0.557040	-0.074286
H111	H	-0.373464	-1.250774	-0.950617
H112	H	0.126536	-0.750774	-0.450617
H113	H	-0.893489	-1.319442	-0.506332
H114	H	-0.393489	-0.819442	-0.006332
H115	H	-0.978407	-1.289219	-0.364254
H116	H	-0.478407	-0.789219	0.135746
H117	H	-0.490601	-1.112116	-0.973357
H118	H	0.009399	-0.612116	-0.473357
C119	C	-0.359064	-0.572811	-0.383594
C120	C	0.140936	-0.072811	0.116406
C121	C	-0.352486	-0.658753	-0.376621
C122	C	0.147514	-0.158753	0.123379
H123	H	-0.323904	-0.545087	-0.346070
H124	H	0.176096	-0.045087	0.153930
H125	H	-0.349970	-0.555810	-0.438767
H126	H	0.150030	-0.055810	0.061233
H127	H	-0.407779	-0.559250	-0.370659
H128	H	0.092221	-0.059250	0.129341
H129	H	-0.303773	-0.672314	-0.389561
H130	H	0.196227	-0.172314	0.110439
H131	H	-0.361574	-0.675760	-0.321435
H132	H	0.138426	-0.175760	0.178565
C133	C	-1.053929	-1.022390	-0.409284
C134	C	-0.553929	-0.522390	0.090716
C135	C	-0.976329	-1.021199	-0.409699
C136	C	-0.476329	-0.521199	0.090301
H137	H	-1.068907	-0.969678	-0.392202
H138	H	-0.568907	-0.469678	0.107798
H139	H	-1.074524	-1.034455	-0.463551
H140	H	-0.574524	-0.534455	0.036449
H141	H	-1.070980	-1.063837	-0.371804
H142	H	-0.570980	-0.563837	0.128196
H143	H	-0.959278	-0.979755	-0.447183
H144	H	-0.459278	-0.479755	0.052817
H145	H	-0.955726	-1.009123	-0.355423
H146	H	-0.455726	-0.509123	0.144577
C147	C	-0.791444	-1.146146	-0.297595
C148	C	-0.291444	-0.646146	0.202405
C149	C	-0.868974	-1.146053	-0.296802
C150	C	-0.368974	-0.646053	0.203198
H151	H	-0.770501	-1.134493	-0.243375
H152	H	-0.270501	-0.634493	0.256625
H153	H	-0.777251	-1.199100	-0.314877
H154	H	-0.277251	-0.699100	0.185123
H155	H	-0.774002	-1.104897	-0.335065
H156	H	-0.274002	-0.604897	0.164935
H157	H	-0.886417	-1.187306	-0.259337
H158	H	-0.386417	-0.687306	0.240663
H159	H	-0.883174	-1.093092	-0.279510
H160	H	-0.383174	-0.593092	0.220490
C161	C	-0.969504	-1.155355	-0.681351
C162	C	-0.469504	-0.655355	-0.181351
C163	C	-0.994683	-1.216606	-0.626298
C164	C	-0.494683	-0.716606	-0.126298
H165	H	-0.990518	-1.166939	-0.735556
H166	H	-0.490518	-0.666939	-0.235556
H167	H	-0.984020	-1.102631	-0.663783
H168	H	-0.484020	-0.602631	-0.163783
H169	H	-0.916896	-1.154965	-0.682061
H170	H	-0.416896	-0.654965	-0.182061
H171	H	-1.047291	-1.216992	-0.625584
H172	H	-0.547291	-0.716992	-0.125584
H173	H	-0.980172	-1.269344	-0.643871
H174	H	-0.480172	-0.769344	-0.143871
