data_functionalizedCrystal
_audit_creation_method	'MofGen! by Chris Wilmer'
_symmetry_space_group_name_H-M	'P1'
_symmetry_Int_Tables_number	1
_symmetry_cell_setting	triclinic
loop_
_symmetry_equiv_pos_as_xyz
  x,y,z
_cell_length_a	10.723024
_cell_length_b	14.519731
_cell_length_c	9.198806
_cell_angle_alpha	89.995832
_cell_angle_beta	89.996352
_cell_angle_gamma	84.078361
loop_
_atom_site_label
_atom_site_type_symbol
_atom_site_fract_x
_atom_site_fract_y
_atom_site_fract_z
O1	O	1.655992	0.129346	-0.120887
O2	O	1.292725	0.141727	-0.120892
O3	O	1.483976	0.001349	-0.120876
O4	O	1.464740	0.269725	-0.120903
O5	O	1.483961	0.001348	0.120909
O6	O	1.292710	0.141727	0.120893
O7	O	1.655976	0.129346	0.120898
Cu8	Cu	1.474342	0.135536	0.142973
Cu9	Cu	1.474360	0.135537	-0.142966
O10	O	1.464725	0.269724	0.120882
C11	C	1.246226	0.140826	0.000000
C12	C	1.107697	0.138130	-0.000002
C13	C	0.916714	0.054394	0.000004
C14	C	1.059891	0.057179	0.000006
C15	C	1.483067	-0.033016	0.000017
C16	C	1.480366	-0.135410	0.000018
C17	C	1.478172	-0.218565	0.000014
C18	C	1.475429	-0.322888	0.000003
C19	C	1.473253	-0.406038	-0.000006
C20	C	1.470511	-0.510367	-0.000015
C21	C	1.702475	0.130247	0.000003
C22	C	1.841005	0.132943	-0.000005
C23	C	1.465634	0.304089	-0.000014
C24	C	1.468335	0.406483	-0.000024
N25	N	1.474338	0.135535	0.344087
N26	N	1.474373	0.135530	-0.344080
C27	C	1.554641	0.076335	0.416290
C28	C	1.554661	0.076331	0.583703
H29	H	1.124946	-0.010065	0.000004
H30	H	1.042649	0.205378	-0.000015
O31	O	0.867805	-0.028375	0.000071
C32	C	0.965998	-0.100869	0.000037
H33	H	1.054534	-0.074552	0.045813
H34	H	0.938543	-0.160263	0.070234
H35	H	0.984318	-0.126413	-0.115959
H36	H	0.882186	0.202252	-0.000003
O37	O	1.636855	0.015951	0.657700
C38	C	1.760531	0.031475	0.620555
H39	H	1.761624	0.105270	0.578615
H40	H	1.823038	0.021218	0.720704
H41	H	1.796938	-0.019507	0.532313
H42	H	1.623374	0.025649	0.354170
O43	O	1.392518	0.196043	0.581706
C44	C	1.459771	0.253200	0.493673
H45	H	1.557234	0.216924	0.471000
H46	H	1.407839	0.267482	0.386590
H47	H	1.468623	0.321413	0.552240
H48	H	1.405597	0.186214	0.406209
