data_functionalizedCrystal
_audit_creation_method	'MofGen! by Chris Wilmer'
_symmetry_space_group_name_H-M	'P1'
_symmetry_Int_Tables_number	1
_symmetry_cell_setting	triclinic
loop_
_symmetry_equiv_pos_as_xyz
  x,y,z
_cell_length_a	10.540514
_cell_length_b	10.540535
_cell_length_c	14.586319
_cell_angle_alpha	89.994854
_cell_angle_beta	89.995975
_cell_angle_gamma	84.519401
loop_
_atom_site_label
_atom_site_type_symbol
_atom_site_fract_x
_atom_site_fract_y
_atom_site_fract_z
O1	O	1.685901	0.178747	-0.076255
O2	O	2.185901	0.678747	0.423745
O3	O	1.316484	0.195636	-0.076255
O4	O	1.816484	0.695636	0.423745
O5	O	1.509624	0.002484	-0.076246
O6	O	2.009624	0.502484	0.423754
O7	O	1.492762	0.371899	-0.076264
O8	O	1.992762	0.871899	0.423736
O9	O	1.509610	0.002481	0.076235
O10	O	2.009610	0.502481	0.576235
O11	O	1.316470	0.195633	0.076226
O12	O	1.816470	0.695633	0.576226
O13	O	1.685888	0.178744	0.076226
O14	O	2.185888	0.678744	0.576226
Cu15	Cu	1.501178	0.187188	0.090149
Cu16	Cu	2.001178	0.687188	0.590149
Cu17	Cu	1.501194	0.187191	-0.090178
Cu18	Cu	2.001194	0.687191	0.409822
O19	O	1.492748	0.371896	0.076217
O20	O	1.992748	0.871896	0.576217
C21	C	1.269174	0.194375	-0.000014
C22	C	1.769174	0.694375	0.499986
C23	C	1.128224	0.190605	-0.000014
C24	C	1.628224	0.690605	0.499986
C25	C	1.057516	0.328746	-0.000022
C26	C	1.557516	0.828746	0.499978
C27	C	0.910903	0.324871	-0.000373
C28	C	1.410903	0.824871	0.499627
C29	C	0.935895	0.115480	-0.086920
C30	C	1.435895	0.615480	0.413080
C31	C	1.082435	0.120334	-0.086988
C32	C	1.582435	0.620334	0.413012
C33	C	1.082822	0.118286	0.086417
C34	C	1.582822	0.618286	0.586417
C35	C	0.935843	0.116953	0.087555
C36	C	1.435843	0.616953	0.587555
C37	C	1.508354	-0.044821	-0.000005
C38	C	2.008354	0.455179	0.499995
C39	C	1.504574	-0.185769	-0.000003
C40	C	2.004574	0.314231	0.499997
C41	C	1.363558	-0.222427	-0.000010
C42	C	1.863558	0.277573	0.499990
C43	C	1.359581	-0.369027	-0.000372
C44	C	1.859581	0.130973	0.499628
C45	C	1.568953	-0.395098	-0.086929
C46	C	2.068953	0.104902	0.413071
C47	C	1.571954	-0.248333	-0.086986
C48	C	2.071954	0.251667	0.413014
C49	C	1.573989	-0.248474	0.086420
C50	C	2.073989	0.251526	0.586420
C51	C	1.567467	-0.394820	0.087546
C52	C	2.067467	0.105180	0.587546
C53	C	1.733198	0.180005	-0.000017
C54	C	2.233198	0.680005	0.499983
C55	C	1.874148	0.183774	-0.000023
C56	C	2.374148	0.683774	0.499977
C57	C	1.494018	0.419200	-0.000026
C58	C	1.994018	0.919200	0.499974
C59	C	1.497798	0.560148	-0.000033
C60	C	1.997798	1.060148	0.499967
N61	N	1.501176	0.187185	0.216980
N62	N	2.001176	0.687185	0.716980
N63	N	1.501206	0.187185	-0.217009
N64	N	2.001206	0.687185	0.282991
C65	C	1.586727	0.101686	0.451991
C66	C	2.086727	0.601686	0.951991
C67	C	1.586731	0.101683	0.547972
C68	C	2.086731	0.601683	1.047972
C69	C	1.415646	0.272687	0.547974
C70	C	1.915646	0.772687	1.047974
C71	C	1.415637	0.272683	0.451994
C72	C	1.915637	0.772683	0.951994
C73	C	1.501185	0.187184	0.404005
C74	C	2.001185	0.687184	0.904005
C75	C	1.501197	0.187185	0.595966
C76	C	2.001197	0.687185	1.095966
C77	C	1.501200	0.187183	0.700033
C78	C	2.001200	0.687183	1.200033
C79	C	1.501180	0.187185	0.299931
C80	C	2.001180	0.687185	0.799931
H81	H	0.894841	0.166863	0.151842
H82	H	1.394841	0.666863	0.651842
F83	F	1.324607	0.363681	0.599053
F84	F	1.824607	0.863681	1.099053
F85	F	1.286841	-0.407382	0.081027
F86	F	1.786841	0.092618	0.581027
F87	F	1.677771	0.010687	0.400921
F88	F	2.177771	0.510687	0.900921
F89	F	1.324582	0.363682	0.400920
F90	F	1.824582	0.863682	0.900920
H91	H	1.110664	0.170216	-0.152198
H92	H	1.610664	0.670216	0.347802
F93	F	1.516466	-0.192988	0.172544
F94	F	2.016466	0.307012	0.672544
F95	F	0.904227	-0.017473	0.094765
F96	F	1.404227	0.482527	0.594765
F97	F	1.709599	-0.219487	0.087524
F98	F	2.209599	0.280513	0.587524
H99	H	0.868233	0.378587	0.061903
H100	H	1.368233	0.878587	0.561903
H101	H	1.515688	-0.423431	0.151832
H102	H	2.015688	0.076569	0.651832
F103	F	1.677773	0.010682	0.599039
F104	F	2.177773	0.510682	1.099039
H105	H	1.086050	0.384783	0.062282
H106	H	1.586050	0.884783	0.562282
F107	F	1.287223	-0.406205	-0.082279
F108	F	1.787223	0.093795	0.417721
H109	H	1.087748	0.383965	-0.062250
H110	H	1.587748	0.883965	0.437750
F111	F	0.856357	0.394782	-0.082279
F112	F	1.356357	0.894782	0.417721
H113	H	1.130080	0.016393	0.087261
H114	H	1.630080	0.516393	0.587261
H115	H	1.309401	-0.180461	0.062299
H116	H	1.809401	0.319539	0.562299
H117	H	1.130443	0.018860	-0.090693
H118	H	1.630443	0.518860	0.409307
H119	H	1.310320	-0.178955	-0.062233
H120	H	1.810320	0.321045	0.437767
H121	H	0.893293	0.162296	-0.151840
H122	H	1.393293	0.662296	0.348160
H123	H	0.913583	0.011848	-0.089901
H124	H	1.413583	0.511848	0.410099
H125	H	1.675330	-0.225311	-0.090686
H126	H	2.175330	0.274689	0.409314
F127	F	1.123978	0.178387	0.172535
F128	F	1.623978	0.678387	0.672535
H129	H	1.523911	-0.208147	-0.152191
H130	H	2.023911	0.291853	0.347809
F131	F	1.701971	-0.457004	-0.090838
F132	F	2.201971	0.042996	0.409162
F133	F	1.505162	-0.435469	-0.171787
F134	F	2.005162	0.064531	0.328213
H135	H	1.668348	-0.443865	0.093054
H136	H	2.168348	0.056135	0.593054
