data_functionalizedCrystal
_audit_creation_method	'MofGen! by Chris Wilmer'
_symmetry_space_group_name_H-M	'P1'
_symmetry_Int_Tables_number	1
_symmetry_cell_setting	triclinic
loop_
_symmetry_equiv_pos_as_xyz
  x,y,z
_cell_length_a	23.532407
_cell_length_b	22.010155
_cell_length_c	23.532407
_cell_angle_alpha	89.999577
_cell_angle_beta	82.848678
_cell_angle_gamma	89.996931
loop_
_atom_site_label
_atom_site_type_symbol
_atom_site_fract_x
_atom_site_fract_y
_atom_site_fract_z
O1	O	0.755264	-0.050455	0.069127
O2	O	0.589400	-0.050474	0.079130
O3	O	0.677334	-0.050453	-0.008803
O4	O	0.667330	-0.050476	0.157060
O5	O	0.677318	0.050597	-0.008790
O6	O	0.589384	0.050576	0.079143
O7	O	0.755248	0.050595	0.069140
Cu8	Cu	0.672315	0.059812	0.074143
Cu9	Cu	0.672333	-0.059691	0.074127
O10	O	0.667314	0.050574	0.157073
C11	C	0.568176	0.000049	0.078882
C12	C	0.504959	0.000042	0.078116
C13	C	0.105856	0.000063	0.125350
C14	C	0.046456	0.000067	0.124638
O15	O	0.009711	0.000083	0.168424
N16	N	0.023830	0.000073	0.072362
C17	C	0.060607	0.000082	0.020794
O18	O	0.035908	0.000088	-0.023737
C19	C	0.120006	0.000082	0.021506
C20	C	0.142629	0.000070	0.073785
C21	C	0.128479	0.000051	0.177625
C22	C	0.187876	0.000046	0.178336
C23	C	0.224649	0.000053	0.126772
C24	C	0.202025	0.000065	0.074497
C25	C	0.156783	0.000096	-0.030062
C26	C	0.216185	0.000097	-0.029345
C27	C	0.238808	0.000084	0.022934
C28	C	0.298194	0.000067	0.023643
N29	N	0.320820	0.000061	0.075920
C30	C	0.284048	0.000054	0.127484
C31	C	-0.064135	0.000082	0.019302
C32	C	-0.123533	0.000077	0.018589
C33	C	-0.137680	0.000063	0.122434
C34	C	-0.078281	0.000064	0.123146
C35	C	-0.041509	0.000076	0.071578
C36	C	0.408784	0.000043	0.128974
C37	C	0.468186	0.000035	0.129680
C38	C	0.482329	0.000052	0.025836
C39	C	0.422932	0.000057	0.025129
C40	C	0.386160	0.000054	0.076702
O41	O	0.334974	0.000054	-0.020119
O42	O	0.308755	0.000055	0.172007
C43	C	0.677071	0.000074	-0.030013
C44	C	0.676305	0.000078	-0.093230
C45	C	0.776472	0.000071	0.069388
C46	C	0.839689	0.000073	0.070154
N47	N	0.672305	0.143865	0.074153
N48	N	0.672347	-0.143744	0.074112
C49	C	0.711273	0.563653	0.035196
C50	C	0.711275	0.627261	0.035192
O51	O	0.744384	0.660160	0.002076
N52	N	0.672333	0.659072	0.074115
C53	C	0.633382	0.627272	0.113041
O54	O	0.600259	0.660170	0.146148
C55	C	0.633377	0.563665	0.113042
C56	C	0.672326	0.531858	0.074120
C57	C	0.750217	0.531846	-0.003723
C58	C	0.750215	0.468243	-0.003719
C59	C	0.711268	0.436447	0.035205
C60	C	0.672324	0.468255	0.074125
C61	C	0.594424	0.531866	0.151965
C62	C	0.594422	0.468256	0.151962
C63	C	0.633370	0.436448	0.113040
C64	C	0.633374	0.372856	0.113054
N65	N	0.672317	0.341045	0.074130
C66	C	0.711263	0.372841	0.035206
C67	C	0.633395	0.760850	0.113036
C68	C	0.633402	0.824455	0.113039
C69	C	0.711294	0.824440	0.035188
C70	C	0.711290	0.760833	0.035189
C71	C	0.672337	0.729039	0.074113
C72	C	0.711256	0.239269	0.035220
C73	C	0.711252	0.175660	0.035229
C74	C	0.633358	0.175681	0.113077
C75	C	0.633364	0.239284	0.113070
C76	C	0.672315	0.271077	0.074136
O77	O	0.600282	0.339916	0.146151
O78	O	0.744376	0.339935	0.002100
C79	C	0.723539	0.000050	-0.492333
C80	C	0.722827	0.000046	-0.551733
O81	O	0.766613	0.000028	-0.588478
N82	N	0.670551	0.000040	-0.574359
C83	C	0.618983	0.000033	-0.537582
O84	O	0.574452	0.000027	-0.562281
C85	C	0.619695	0.000033	-0.478182
C86	C	0.671974	0.000045	-0.455560
C87	C	0.775814	0.000061	-0.469710
C88	C	0.776525	0.000067	-0.410313
C89	C	0.724961	0.000062	-0.373540
C90	C	0.672685	0.000051	-0.396164
C91	C	0.568127	0.000022	-0.441406
C92	C	0.568844	0.000022	-0.382004
C93	C	0.621123	0.000034	-0.359381
C94	C	0.621832	0.000052	-0.299995
N95	N	0.674109	0.000057	-0.277368
C96	C	0.725673	0.000062	-0.314141
C97	C	0.617491	0.000031	-0.662324
C98	C	0.616778	0.000035	-0.721722
C99	C	0.720623	0.000047	-0.735869
C100	C	0.721335	0.000047	-0.676470
C101	C	0.669767	0.000037	-0.639698
C102	C	0.727163	0.000075	-0.189405
C103	C	0.727869	0.000083	-0.130003
C104	C	0.624025	0.000069	-0.115860
C105	C	0.623318	0.000064	-0.175257
C106	C	0.674891	0.000065	-0.212029
O107	O	0.578070	0.000067	-0.263215
O108	O	0.770196	0.000060	-0.289433
C109	C	0.667577	0.000046	0.178283
C110	C	0.668343	0.000037	0.241500
H111	H	0.098544	0.000048	0.219617
H112	H	0.378851	0.000042	0.170970
O113	O	0.749103	0.855265	-0.002705
C114	C	0.740155	0.839736	-0.059037
H115	H	0.718205	0.793554	-0.058855
H116	H	0.783121	0.837561	-0.087304
H117	H	0.711905	0.875536	-0.076502
O118	O	0.788032	0.562659	-0.041614
C119	C	0.779089	0.547125	-0.097945
H120	H	0.757125	0.500950	-0.097760
H121	H	0.822058	0.544930	-0.126206
H122	H	0.750855	0.582931	-0.115422
H123	H	0.575496	0.000028	-0.632386
H124	H	0.138375	0.000106	-0.072634
H125	H	0.574207	0.000036	-0.740136
H126	H	0.742971	0.149765	0.003534
O127	O	0.787961	0.437238	-0.041526
C128	C	0.822932	0.400306	-0.011343
H129	H	0.823871	0.419467	0.033537
H130	H	0.868257	0.399427	-0.034974
H131	H	0.804946	0.352163	-0.008185
O132	O	0.490066	0.000052	0.180518
C133	C	0.444867	0.000034	0.225875
H134	H	0.404601	0.019170	0.210146
H135	H	0.457079	0.029365	0.262399
H136	H	0.436373	-0.048447	0.241757
O137	O	0.400887	0.000145	-0.025619
C138	C	0.366968	0.052494	-0.029139
H139	H	0.351924	0.069936	0.015836
H140	H	0.328194	0.040736	-0.051619
H141	H	0.393357	0.089142	-0.054479
H142	H	0.562708	0.557755	0.183658
H143	H	0.206289	0.000036	0.220908
H144	H	0.743004	0.734939	0.003495
H145	H	0.562700	0.442372	0.183658
H146	H	0.525555	0.000009	-0.459814
O147	O	-0.173384	-0.000046	0.172541
C148	C	-0.163167	-0.052377	0.204306
H149	H	-0.142695	-0.088955	0.174122
H150	H	-0.205442	-0.069943	0.227384
H151	H	-0.133104	-0.040549	0.237099
H152	H	0.601654	0.265183	0.144769
O153	O	-0.056239	0.000135	0.173894
C154	C	-0.022321	0.052477	0.177432
H155	H	-0.007277	0.069935	0.132463
H156	H	0.016452	0.040703	0.199909
H157	H	-0.048710	0.089118	0.202785
H158	H	0.601692	0.850348	0.144738
O159	O	-0.145573	0.000162	-0.032159
C160	C	-0.179497	0.052507	-0.035683
H161	H	-0.194543	0.069951	0.009291
H162	H	-0.218269	0.040741	-0.058164
H163	H	-0.153111	0.089155	-0.061025
O164	O	0.749148	0.270052	-0.002622
C165	C	0.783506	0.228328	-0.036978
H166	H	0.784009	0.182992	-0.013622
H167	H	0.829038	0.246695	-0.045902
H168	H	0.765255	0.221559	-0.079191
O169	O	0.573901	-0.000021	-0.080190
C170	C	0.542160	-0.052372	-0.090387
H171	H	0.556405	-0.069816	-0.135528
H172	H	0.494633	-0.040615	-0.085938
H173	H	0.549776	-0.089017	-0.057940
H174	H	0.762610	0.000048	-0.765821
H175	H	0.526850	0.000013	-0.352066
O176	O	0.251824	0.000078	-0.079493
C177	C	0.219114	0.000104	-0.125783
H178	H	0.174698	-0.019025	-0.111068
H179	H	0.241221	-0.029229	-0.161896
H180	H	0.214972	0.048586	-0.141816
O181	O	0.595537	0.730061	0.150910
C182	C	0.561162	0.771783	0.185252
H183	H	0.584515	0.817119	0.185769
H184	H	0.552215	0.753414	0.230782
H185	H	0.518962	0.778555	0.166976
H186	H	-0.034198	0.000086	-0.022693
O187	O	0.595603	0.144721	0.150908
C188	C	0.625897	0.107934	0.185900
H189	H	0.670592	0.098407	0.162996
H190	H	0.602076	0.063206	0.195022
H191	H	0.629518	0.132443	0.227977
H192	H	0.769159	0.000073	-0.219337
H193	H	0.512280	0.000056	-0.016146
H194	H	0.770443	0.000094	-0.111587
O195	O	0.827360	0.000046	-0.388437
C196	C	0.872713	0.000064	-0.433640
H197	H	0.856979	-0.019069	-0.473904
H198	H	0.909239	-0.029271	-0.421433
H199	H	0.888595	0.048544	-0.442136
H200	H	0.817806	0.000063	-0.499645
H201	H	0.763906	0.000056	-0.658056
O202	O	0.572571	-0.000023	-0.197306
C203	C	0.569056	-0.052372	-0.231222
H204	H	0.614033	-0.069816	-0.246260
H205	H	0.546580	-0.040613	-0.269999
H206	H	0.543714	-0.089018	-0.204833
