data_functionalizedCrystal
_audit_creation_method	'MofGen! by Chris Wilmer'
_symmetry_space_group_name_H-M	'P1'
_symmetry_Int_Tables_number	1
_symmetry_cell_setting	triclinic
loop_
_symmetry_equiv_pos_as_xyz
  x,y,z
_cell_length_a	15.995350
_cell_length_b	14.519709
_cell_length_c	13.596369
_cell_angle_alpha	89.999709
_cell_angle_beta	89.996243
_cell_angle_gamma	96.413740
loop_
_atom_site_label
_atom_site_type_symbol
_atom_site_fract_x
_atom_site_fract_y
_atom_site_fract_z
O1	O	0.109760	-1.223669	-0.081658
O2	O	0.122685	-0.955169	-0.081688
O3	O	-0.005654	-1.096759	-0.081671
O4	O	0.238099	-1.082079	-0.081675
O5	O	-0.005661	-1.096744	0.081912
O6	O	0.122679	-0.955155	0.081895
O7	O	0.109753	-1.223655	0.081925
Zn8	Zn	0.116215	-1.089403	0.107882
Zn9	Zn	0.116224	-1.089421	-0.107645
O10	O	0.238093	-1.082065	0.081908
C11	C	0.122080	-0.920803	0.000100
C12	C	0.120275	-0.818425	0.000088
C13	C	-0.036853	-1.096145	0.000118
C14	C	-0.129806	-1.094325	0.000112
N15	N	0.116208	-1.089397	0.254974
C16	C	-0.467563	-1.087791	0.000115
C17	C	-0.420280	-0.986954	-0.000263
C18	C	-0.323587	-0.988773	0.000106
C19	C	-0.299998	-1.091032	0.000113
C20	C	-0.341005	-1.140761	0.093531
C21	C	-0.437644	-1.138228	0.093609
C22	C	-0.437992	-1.140327	-0.092415
C23	C	-0.341046	-1.140303	-0.093650
C24	C	-0.205298	-1.092869	0.000115
C25	C	-0.562264	-1.085957	0.000119
C26	C	0.269292	-1.082679	0.000116
C27	C	0.362245	-1.084498	0.000116
C28	C	0.110359	-1.258021	0.000135
C29	C	0.112164	-1.360399	0.000140
C30	C	0.113629	-0.443541	0.000133
C31	C	0.115475	-0.547846	0.000120
C32	C	0.116952	-0.630980	0.000110
C33	C	0.118797	-0.735291	0.000099
N34	N	0.116224	-1.089434	-0.254737
C35	C	0.116225	-1.089420	0.656265
C36	C	0.116223	-1.089411	0.544614
C37	C	0.116217	-1.089409	0.455623
C38	C	0.116214	-1.089399	0.343965
H39	H	-0.295221	-0.949683	-0.066860
H40	H	-0.469641	-1.214674	-0.093038
Cl41	Cl	-0.280655	-0.927994	0.103657
H42	H	-0.469782	-1.212261	0.097852
H43	H	-0.458578	-1.107364	-0.163220
Cl44	Cl	-0.448978	-0.924731	-0.103694
Cl45	Cl	-0.297276	-1.087419	0.200857
H46	H	-0.439937	-0.946823	0.066347
Cl47	Cl	-0.298566	-1.084630	-0.200365
Cl48	Cl	-0.465992	-1.082218	0.201410
H49	H	-0.326767	-1.215888	0.097010
Cl50	Cl	-0.317153	-1.255437	-0.102357
