data_functionalizedCrystal
_audit_creation_method	'MofGen! by Chris Wilmer'
_symmetry_space_group_name_H-M	'P1'
_symmetry_Int_Tables_number	1
_symmetry_cell_setting	triclinic
loop_
_symmetry_equiv_pos_as_xyz
  x,y,z
_cell_length_a	19.121102
_cell_length_b	19.805405
_cell_length_c	19.805399
_cell_angle_alpha	90.028055
_cell_angle_beta	87.542719
_cell_angle_gamma	92.412596
loop_
_atom_site_label
_atom_site_type_symbol
_atom_site_fract_x
_atom_site_fract_y
_atom_site_fract_z
Zn1	Zn	1.073672	0.313691	-0.426785
Zn2	Zn	1.407006	0.647025	-0.093452
Zn3	Zn	1.740339	0.980358	0.239882
Zn4	Zn	1.073570	0.426876	-0.313592
Zn5	Zn	1.406904	0.760209	0.019742
Zn6	Zn	1.740237	1.093542	0.353075
Zn7	Zn	0.956224	0.308874	-0.308789
Zn8	Zn	1.289558	0.642207	0.024544
Zn9	Zn	1.622891	0.975540	0.357878
Zn10	Zn	0.956173	0.422005	-0.421920
Zn11	Zn	1.289506	0.755339	-0.088587
Zn12	Zn	1.622839	1.088672	0.244747
O13	O	1.014910	0.367861	-0.367771
O14	O	1.348243	0.701195	-0.034438
O15	O	1.681577	1.034528	0.298895
O16	O	1.171943	0.332760	-0.415816
O17	O	1.505276	0.666093	-0.082482
O18	O	1.838609	0.999427	0.250851
O19	O	1.057983	0.411244	-0.218237
O20	O	1.391316	0.744578	0.115096
O21	O	1.724650	1.077911	0.448430
O22	O	0.971869	0.214799	-0.324468
O23	O	1.305202	0.548132	0.008866
O24	O	1.638535	0.881465	0.342199
O25	O	1.171868	0.415916	-0.332653
O26	O	1.505201	0.749249	0.000680
O27	O	1.838534	1.082583	0.334014
O28	O	1.058157	0.218338	-0.411159
O29	O	1.391490	0.551672	-0.077825
O30	O	1.724824	0.885005	0.255508
O31	O	0.971769	0.324549	-0.214709
O32	O	1.305103	0.657882	0.118625
O33	O	1.638436	0.991216	0.451958
O34	O	0.857934	0.319826	-0.319750
O35	O	1.191267	0.653160	0.013583
O36	O	1.524600	0.986493	0.346917
O37	O	0.971780	0.407615	-0.517283
O38	O	1.305114	0.740949	-0.183949
O39	O	1.638447	1.074282	0.149384
O40	O	0.857896	0.402944	-0.402867
O41	O	1.191229	0.736277	-0.069534
O42	O	1.524562	1.069610	0.263800
O43	O	1.058107	0.328037	-0.520857
O44	O	1.391440	0.661371	-0.187524
O45	O	1.724774	0.994704	0.145810
O46	O	1.057933	0.520943	-0.327935
O47	O	1.391266	0.854277	0.005398
O48	O	1.724599	1.187610	0.338731
O49	O	0.971681	0.517365	-0.407524
O50	O	1.305015	0.850699	-0.074190
O51	O	1.638348	1.184032	0.259143
C52	C	0.832431	0.360334	-0.360260
C53	C	1.165764	0.693668	-0.026927
C54	C	1.499098	1.027001	0.306407
C55	C	0.754366	0.357130	-0.357062
C56	C	1.087699	0.690464	-0.023729
C57	C	1.421032	1.023797	0.309604
C58	C	0.717689	0.398965	-0.398767
C59	C	1.051022	0.732299	-0.065433
C60	C	1.384356	1.065632	0.267900
C61	C	0.644338	0.395946	-0.395766
C62	C	0.977672	0.729279	-0.062432
C63	C	1.311005	1.062613	0.270901
C64	C	0.607666	0.351095	-0.351056
C65	C	0.940999	0.684428	-0.017723
C66	C	1.274332	1.017761	0.315610
C67	C	0.644347	0.309255	-0.309351
C68	C	0.977681	0.642589	0.023983
C69	C	1.311014	0.975922	0.357316
C70	C	0.717697	0.312272	-0.312355
C71	C	1.051030	0.645605	0.020978
C72	C	1.384363	0.978938	0.354311
C73	C	0.386198	0.339816	-0.339825
C74	C	0.719531	0.673149	-0.006492
C75	C	1.052865	1.006483	0.326842
C76	C	0.312844	0.336804	-0.336822
C77	C	0.646177	0.670137	-0.003489
C78	C	0.979510	1.003471	0.329845
C79	C	0.312839	0.423494	-0.423238
C80	C	0.646173	0.756828	-0.089905
C81	C	0.979506	1.090161	0.243428
C82	C	0.386190	0.426509	-0.426236
C83	C	0.719523	0.759843	-0.092903
C84	C	1.052857	1.093176	0.240430
C85	C	0.422866	0.384668	-0.384533
C86	C	0.756199	0.718001	-0.051200
C87	C	1.089532	1.051334	0.282134
C88	C	0.532689	0.348009	-0.347986
C89	C	0.866023	0.681342	-0.014653
C90	C	1.199356	1.014676	0.318680
C91	C	0.497840	0.387750	-0.387607
C92	C	0.831174	0.721084	-0.054274
C93	C	1.164507	1.054417	0.279060
C94	C	1.014809	0.543713	-0.367738
C95	C	1.348143	0.877047	-0.034405
C96	C	1.681476	1.210380	0.298928
C97	C	1.014831	0.618946	-0.367749
C98	C	1.348164	0.952280	-0.034416
C99	C	1.681497	1.285613	0.298917
C100	C	1.059730	0.656074	-0.412921
C101	C	1.393064	0.989407	-0.079588
C102	C	1.726397	1.322741	0.253745
C103	C	1.059747	0.726763	-0.412933
C104	C	1.393081	1.060096	-0.079599
C105	C	1.726414	1.393430	0.253734
C106	C	1.014868	0.760323	-0.367769
C107	C	1.348201	1.093657	-0.034435
C108	C	1.681534	1.426990	0.298898
C109	C	0.969963	0.723190	-0.322595
C110	C	1.303296	1.056524	0.010739
C111	C	1.636630	1.389857	0.344072
C112	C	0.969943	0.652502	-0.322587
C113	C	1.303276	0.985836	0.010746
C114	C	1.636610	1.319169	0.344080
C115	C	0.970043	1.008267	-0.322625
C116	C	1.303376	1.341600	0.010708
C117	C	1.636709	1.674934	0.344041
C118	C	0.970068	1.078960	-0.322635
C119	C	1.303401	1.412293	0.010698
C120	C	1.636734	1.745627	0.344031
C121	C	1.059847	1.082528	-0.412971
C122	C	1.393180	1.415861	-0.079638
C123	C	1.726514	1.749194	0.253695
C124	C	1.059827	1.011840	-0.412964
C125	C	1.393160	1.345173	-0.079630
C126	C	1.726494	1.678506	0.253703
C127	C	1.014920	0.974713	-0.367792
C128	C	1.348253	1.308046	-0.034459
C129	C	1.681587	1.641379	0.298874
C130	C	1.014901	0.898064	-0.367781
C131	C	1.348234	1.231397	-0.034448
C132	C	1.681568	1.564730	0.298885
C133	C	1.014890	0.836971	-0.367776
C134	C	1.348223	1.170305	-0.034443
C135	C	1.681556	1.503638	0.298891
C136	C	1.198101	0.375419	-0.375313
C137	C	1.531435	0.708752	-0.041979
C138	C	1.864768	1.042085	0.291354
C139	C	1.276167	0.378639	-0.378526
C140	C	1.609500	0.711972	-0.045193
C141	C	1.942833	1.045306	0.288140
C142	C	1.014949	0.367820	-0.544316
C143	C	1.348283	0.701154	-0.210982
C144	C	1.681616	1.034487	0.122351
C145	C	1.014966	0.367803	-0.619548
C146	C	1.348299	0.701136	-0.286215
C147	C	1.681633	1.034470	0.047118
C148	C	1.015001	1.191322	-0.367813
C149	C	1.348334	1.524656	-0.034479
C150	C	1.681667	1.857989	0.298854
C151	C	1.014964	1.116089	-0.367811
C152	C	1.348298	1.449422	-0.034478
C153	C	1.681631	1.782756	0.298856
C154	C	1.059917	0.326365	-0.656755
C155	C	1.393251	0.659698	-0.323422
C156	C	1.726584	0.993031	0.009912
C157	C	1.059925	0.326345	-0.727444
C158	C	1.393258	0.659679	-0.394110
C159	C	1.726591	0.993012	-0.060777
C160	C	1.014984	0.367768	-0.760925
C161	C	1.348317	0.701102	-0.427592
C162	C	1.681650	1.034435	-0.094258
C163	C	0.970027	0.409208	-0.723713
C164	C	1.303361	0.742542	-0.390380
C165	C	1.636694	1.075875	-0.057047
C166	C	0.970017	0.409224	-0.653026
C167	C	1.303350	0.742557	-0.319692
C168	C	1.636684	1.075890	0.013641
C169	C	0.970067	0.409147	-1.008788
C170	C	1.303400	0.742480	-0.675455
C171	C	1.636734	1.075813	-0.342122
C172	C	0.970082	0.409130	-1.079481
C173	C	1.303416	0.742463	-0.746148
C174	C	1.636749	1.075796	-0.412814
C175	C	1.059974	0.326269	-1.083206
C176	C	1.393308	0.659602	-0.749873
C177	C	1.726641	0.992935	-0.416540
C178	C	1.059964	0.326284	-1.012519
C179	C	1.393298	0.659617	-0.679185
C180	C	1.726631	0.992951	-0.345852
C181	C	1.015006	0.367721	-0.975313
C182	C	1.348339	0.701054	-0.641980
C183	C	1.681672	1.034388	-0.308647
C184	C	1.014998	0.367740	-0.898664
C185	C	1.348331	0.701074	-0.565331
C186	C	1.681664	1.034407	-0.231998
C187	C	1.014995	0.367753	-0.837572
C188	C	1.348328	0.701086	-0.504239
C189	C	1.681661	1.034420	-0.170906
C190	C	1.014911	0.367855	-0.191915
C191	C	1.348244	0.701188	0.141418
C192	C	1.681578	1.034522	0.474751
C193	C	1.015030	0.367688	-0.116689
C194	C	1.348364	0.701021	0.216645
C195	C	1.681697	1.034354	0.549978
H196	H	0.614479	0.430013	-0.429725
H197	H	0.947813	0.763346	-0.096392
H198	H	1.281146	1.096680	0.236942
C199	C	1.109104	0.619164	-0.462605
C200	C	1.442437	0.952498	-0.129272
C201	C	1.775770	1.285831	0.204061
N202	N	1.146291	0.591366	-0.500030
N203	N	1.479625	0.924699	-0.166697
N204	N	1.812958	1.258033	0.166636
H205	H	1.096562	0.292555	-0.985262
H206	H	1.429896	0.625889	-0.651929
H207	H	1.763229	0.959222	-0.318596
C208	C	0.920568	0.454810	-0.612099
C209	C	1.253902	0.788143	-0.278766
C210	C	1.587235	1.121477	0.054568
N211	N	0.883321	0.489146	-0.581274
N212	N	1.216654	0.822479	-0.247940
N213	N	1.549987	1.155813	0.085393
H214	H	0.933433	0.442933	-0.750979
H215	H	1.266766	0.776266	-0.417646
H216	H	1.600100	1.109600	-0.084312
C217	C	1.109376	0.280761	-0.768368
C218	C	1.442709	0.614094	-0.435034
C219	C	1.776043	0.947428	-0.101701
N220	N	1.146625	0.246425	-0.799191
N221	N	1.479958	0.579758	-0.465858
N222	N	1.813291	0.913092	-0.132525
C223	C	0.758022	0.448306	-0.447951
C224	C	1.091355	0.781639	-0.114617
C225	C	1.424689	1.114972	0.218716
N226	N	0.788399	0.485469	-0.484999
N227	N	1.121732	0.818802	-0.151666
N228	N	1.455066	1.152135	0.181667
H229	H	1.096315	0.756990	-0.449711
H230	H	1.429648	1.090323	-0.116378
H231	H	1.762981	1.423656	0.216955
C232	C	0.920627	0.967436	-0.272950
C233	C	1.253961	1.300769	0.060383
C234	C	1.587294	1.634103	0.393716
N235	N	0.883399	0.936679	-0.235538
N236	N	1.216733	1.270013	0.097795
N237	N	1.550066	1.603346	0.431128
H238	H	0.933469	0.442898	-0.978504
H239	H	1.266803	0.776231	-0.645171
H240	H	1.600136	1.109564	-0.311838
H241	H	0.282987	0.300273	-0.300418
H242	H	0.616320	0.633606	0.032915
H243	H	0.949653	0.966940	0.366248
C244	C	0.920550	0.611662	-0.272894
C245	C	1.253884	0.944996	0.060439
C246	C	1.587217	1.278329	0.393773
N247	N	0.883345	0.580902	-0.235465
N248	N	1.216678	0.914236	0.097869
N249	N	1.550011	1.247569	0.431202
H250	H	0.416044	0.463034	-0.462642
H251	H	0.749377	0.796367	-0.129309
H252	H	1.082711	1.129700	0.204025
H253	H	0.933518	1.106283	-0.285856
H254	H	1.266851	1.439616	0.047477
H255	H	1.600185	1.772949	0.380811
C256	C	1.109202	0.974928	-0.462643
C257	C	1.442536	1.308261	-0.129310
C258	C	1.775869	1.641594	0.204023
N259	N	1.146392	0.947126	-0.500064
N260	N	1.479726	1.280460	-0.166731
N261	N	1.813059	1.613793	0.166603
C262	C	0.272491	0.469512	-0.469114
C263	C	0.605824	0.802845	-0.135781
C264	C	0.939157	1.136179	0.197553
N265	N	0.242100	0.504172	-0.503672
N266	N	0.575433	0.837506	-0.170338
N267	N	0.908766	1.170839	0.162995
C268	C	0.426531	0.293792	-0.293945
C269	C	0.759865	0.627126	0.039388
C270	C	1.093198	0.960459	0.372721
N271	N	0.456913	0.259126	-0.259385
N272	N	0.790246	0.592460	0.073948
N273	N	1.123580	0.925793	0.407281
H274	H	0.614483	0.272734	-0.272950
H275	H	0.947816	0.606067	0.060383
H276	H	1.281149	0.939400	0.393716
C277	C	1.109422	0.280678	-1.124138
C278	C	1.442755	0.614011	-0.790805
C279	C	1.776088	0.947344	-0.457472
N280	N	1.146664	0.246339	-1.154967
N281	N	1.479997	0.579673	-0.821634
N282	N	1.813331	0.913006	-0.488301
C283	C	0.758041	0.266251	-0.266476
C284	C	1.091374	0.599585	0.066858
C285	C	1.424707	0.932918	0.400191
N286	N	0.788427	0.231586	-0.231919
N287	N	1.121760	0.564920	0.101414
N288	N	1.455093	0.898253	0.434748
H289	H	0.933483	0.442863	-1.106739
H290	H	1.266816	0.776196	-0.773406
H291	H	1.600149	1.109529	-0.440072
H292	H	1.096410	1.112765	-0.449754
H293	H	1.429744	1.446098	-0.116421
H294	H	1.763077	1.779431	0.216913
C295	C	0.920637	0.760111	-0.272874
C296	C	1.253971	1.093444	0.060459
C297	C	1.587304	1.426778	0.393792
N298	N	0.883502	0.787920	-0.235408
N299	N	1.216835	1.121253	0.097926
N300	N	1.550169	1.454586	0.431259
C301	C	0.538183	0.437087	-0.436784
C302	C	0.871516	0.770420	-0.103451
C303	C	1.204849	1.103754	0.229883
N304	N	0.568575	0.474251	-0.473821
N305	N	0.901908	0.807584	-0.140488
N306	N	1.235241	1.140917	0.192845
H307	H	0.502822	0.311492	-0.311583
H308	H	0.836156	0.644826	0.021751
H309	H	1.169489	0.978159	0.355084
C310	C	1.109356	0.280795	-0.619932
C311	C	1.442690	0.614128	-0.286599
C312	C	1.776023	0.947461	0.046734
N313	N	1.146593	0.246467	-0.592199
N314	N	1.479926	0.579801	-0.258866
N315	N	1.813259	0.913134	0.074467
