data_functionalizedCrystal
_audit_creation_method	'MofGen! by Chris Wilmer'
_symmetry_space_group_name_H-M	'P1'
_symmetry_Int_Tables_number	1
_symmetry_cell_setting	triclinic
loop_
_symmetry_equiv_pos_as_xyz
  x,y,z
_cell_length_a	6.817900
_cell_length_b	10.943867
_cell_length_c	10.943624
_cell_angle_alpha	91.774148
_cell_angle_beta	108.838799
_cell_angle_gamma	108.843261
loop_
_atom_site_label
_atom_site_type_symbol
_atom_site_fract_x
_atom_site_fract_y
_atom_site_fract_z
V1	V	-4.115528	-0.178599	-0.402537
O2	O	-4.073202	0.008617	-0.394889
O3	O	-4.093511	-0.354166	-0.399769
O4	O	-4.093490	-0.175837	-0.578103
O5	O	-4.073223	-0.170946	-0.215320
V6	V	-4.592321	-0.156208	-0.380146
O7	O	-4.391548	-0.227717	-0.451653
O8	O	-4.766498	-0.107090	-0.331030
O9	O	-4.391132	0.019359	-0.382913
O10	O	-4.752044	-0.343425	-0.387794
O11	O	-4.752023	-0.163861	-0.567362
O12	O	-4.391153	-0.158970	-0.204579
C13	C	-3.944077	-0.396966	-0.393415
C14	C	-4.007537	-0.540494	-0.392323
C15	C	-4.236980	-0.631377	-0.398403
C16	C	-4.234083	-0.730484	-0.501327
C17	C	-4.123503	-0.697130	-0.287478
C18	C	-4.003849	-0.637725	-0.495350
C19	C	-3.893244	-0.604349	-0.281406
C20	C	-3.890203	-0.703417	-0.384352
C21	C	-3.944049	-0.169488	-0.620897
C22	C	-4.007489	-0.168391	-0.764423
C23	C	-3.852317	-0.161004	-0.841571
C24	C	-4.041696	-0.270650	-0.947552
C25	C	-3.931175	-0.056802	-0.914183
C26	C	-4.196078	-0.278140	-0.868528
C27	C	-4.085477	-0.064195	-0.835135
C28	C	-4.274992	-0.173873	-0.941086
C29	C	-4.203909	0.062152	-0.389264
C30	C	-4.119688	0.205678	-0.390364
C31	C	-4.203936	-0.165324	-0.161779
C32	C	-4.119733	-0.166414	-0.018251
H33	H	-3.744035	-0.735038	-0.378430
H34	H	-4.174768	-0.723670	-0.199626
H35	H	-3.673115	-0.155709	-0.798123
C36	C	-3.934908	-0.602128	-0.614181
C37	C	-3.861859	-0.458852	-0.637225
C38	C	-3.792925	-0.423253	-0.756056
C39	C	-3.797041	-0.530929	-0.851842
C40	C	-3.870094	-0.674214	-0.828801
C41	C	-3.939027	-0.709814	-0.709970
H42	H	-3.858809	-0.379135	-0.566316
H43	H	-3.738847	-0.317183	-0.773112
H44	H	-3.746012	-0.504577	-0.939807
H45	H	-3.873143	-0.753931	-0.899710
H46	H	-3.993106	-0.815884	-0.692914
C47	C	-4.017601	-0.388557	-1.013685
C48	C	-3.790076	-0.404451	-0.975493
C49	C	-3.765963	-0.522352	-1.041618
C50	C	-3.969375	-0.624359	-1.145936
C51	C	-4.196916	-0.608468	-1.184134
C52	C	-4.221030	-0.490567	-1.118008
H53	H	-3.639483	-0.328936	-0.898266
H54	H	-3.597521	-0.534115	-1.013341
H55	H	-3.951525	-0.711637	-1.194886
H56	H	-4.347509	-0.683983	-1.261361
H57	H	-4.389472	-0.478804	-1.146285
C58	C	-4.346578	-0.404656	-0.840779
C59	C	-4.490689	-0.397594	-0.759514
C60	C	-4.641178	-0.524110	-0.731763
C61	C	-4.647556	-0.657688	-0.785279
C62	C	-4.503439	-0.664755	-0.866550
C63	C	-4.352950	-0.538239	-0.894300
H64	H	-4.485972	-0.298707	-0.719894
H65	H	-4.747862	-0.518878	-0.671601
H66	H	-4.758956	-0.751342	-0.764736
H67	H	-4.508156	-0.763642	-0.906169
H68	H	-4.246266	-0.543471	-0.954462
H69	H	-4.382996	-0.599540	-0.404487
H70	H	-4.378774	-0.785226	-0.594298
H71	H	-3.748608	-0.549581	-0.188434
H72	H	-4.454307	-0.179340	-0.984330
H73	H	-4.103238	0.023090	-0.786158
H74	H	-3.819809	0.036718	-0.934953
