data_functionalizedCrystal
_audit_creation_method	'MofGen! by Chris Wilmer'
_symmetry_space_group_name_H-M	'P1'
_symmetry_Int_Tables_number	1
_symmetry_cell_setting	triclinic
loop_
_symmetry_equiv_pos_as_xyz
  x,y,z
_cell_length_a	17.019282
_cell_length_b	17.019294
_cell_length_c	14.421503
_cell_angle_alpha	86.125318
_cell_angle_beta	93.873603
_cell_angle_gamma	83.655696
loop_
_atom_site_label
_atom_site_type_symbol
_atom_site_fract_x
_atom_site_fract_y
_atom_site_fract_z
O1	O	1.046568	0.100443	-0.001529
O2	O	0.816889	0.113268	-0.020902
O3	O	0.938135	-0.007984	-0.001530
O4	O	0.925322	0.221695	-0.020902
O5	O	0.938115	-0.007965	0.152691
O6	O	0.816869	0.113286	0.133318
O7	O	1.046548	0.100461	0.152691
Cu8	Cu	0.931707	0.106875	0.157086
Cu9	Cu	0.931730	0.106854	-0.025297
O10	O	0.925302	0.221713	0.133319
C11	C	0.787491	0.112792	0.053899
C12	C	0.699923	0.111338	0.047020
C13	C	0.658777	0.110663	0.127855
C14	C	0.576499	0.109285	0.121395
C15	C	0.535367	0.108587	0.034097
C16	C	0.576519	0.109260	-0.046744
C17	C	0.658796	0.110633	-0.040283
C18	C	0.286944	0.104436	0.010382
C19	C	0.204661	0.103066	0.003926
C20	C	0.204646	0.103089	0.172066
C21	C	0.286924	0.104467	0.178520
C22	C	0.328069	0.105135	0.097678
C23	C	0.451265	0.107180	0.027491
C24	C	0.412170	0.106536	0.104286
C25	C	0.937639	-0.037363	0.077888
C26	C	0.936181	-0.124931	0.084761
C27	C	0.935509	-0.166075	0.003925
C28	C	0.934134	-0.248354	0.010386
C29	C	0.933436	-0.289487	0.097683
C30	C	0.934106	-0.248336	0.178525
C31	C	0.935476	-0.166058	0.172063
C32	C	0.929296	-0.537912	0.121400
C33	C	0.927928	-0.620196	0.127856
C34	C	0.927954	-0.620208	-0.040284
C35	C	0.929329	-0.537929	-0.046738
C36	C	0.929994	-0.496785	0.034103
C37	C	0.932033	-0.373589	0.104290
C38	C	0.931392	-0.412683	0.027496
C39	C	1.075946	0.100937	0.077888
C40	C	1.163515	0.102391	0.084762
C41	C	0.925798	0.251092	0.053900
C42	C	0.927256	0.338660	0.047020
N43	N	0.931696	0.106890	0.285366
N44	N	0.931748	0.106833	-0.153575
C45	C	0.875622	0.162931	0.526063
C46	C	0.946884	0.178158	0.592342
C47	C	0.931715	0.106871	0.474530
C48	C	0.860471	0.091662	0.592345
C49	C	0.931727	0.106854	0.657254
C50	C	1.003013	0.122133	0.539448
C51	C	0.916554	0.035606	0.539445
C52	C	0.987867	0.050803	0.605702
C53	C	0.931707	0.106882	0.369267
C54	C	0.931743	0.106842	0.762515
H55	H	0.543024	0.108686	-0.117823
H56	H	0.692259	0.111238	0.198942
H57	H	0.320408	0.105031	0.249607
N58	N	0.532117	0.108554	0.208580
H59	H	0.570727	0.108649	0.264913
H60	H	0.491904	0.157146	0.205429
N61	N	0.963878	0.257977	0.623324
H62	H	0.964268	0.257218	0.693443
H63	H	1.017272	0.269853	0.603110
H64	H	0.927411	-0.653716	-0.106101
H65	H	0.929897	-0.504444	-0.117825
N66	N	0.933364	-0.292698	0.272684
H67	H	0.883924	-0.320392	0.274699
H68	H	0.981710	-0.333239	0.283467
H69	H	0.931954	-0.379189	-0.043582
H70	H	0.936012	-0.132558	0.237887
N71	N	0.160306	0.102305	-0.090241
H72	H	0.132620	0.052859	-0.092242
H73	H	0.119760	0.150645	-0.101042
H74	H	0.320435	0.104978	-0.055445
H75	H	0.445664	0.107101	0.175363
H76	H	0.417767	0.106612	-0.043587
N77	N	0.812844	0.225770	0.480135
H78	H	0.824407	0.279577	0.499268
H79	H	0.812968	0.224932	0.410187
N80	N	1.082848	0.139255	0.508635
H81	H	1.082344	0.139178	0.438569
H82	H	1.094388	0.192884	0.528389
H83	H	0.931468	-0.407089	0.175368
H84	H	1.035360	0.003385	0.640212
N85	N	0.703172	0.111363	-0.127474
H86	H	0.730859	0.160807	-0.132964
H87	H	0.743719	0.063021	-0.124066
N88	N	0.899531	-0.044191	0.508437
H89	H	0.845668	-0.055626	0.527506
H90	H	0.900215	-0.043692	0.438428
H91	H	0.929853	-0.504424	0.187228
N92	N	0.936268	-0.121714	-0.090232
H93	H	0.935632	-0.160268	-0.140460
H94	H	0.887959	-0.081125	-0.100997
N95	N	0.160268	0.102367	0.259254
H96	H	0.101770	0.102480	0.241826
H97	H	0.180356	0.053184	0.300945
N98	N	0.933522	-0.292748	-0.076790
H99	H	0.934215	-0.254211	-0.133069
H100	H	0.981870	-0.333297	-0.073253
H101	H	0.800217	0.078806	0.615728
H102	H	0.927357	-0.653683	0.198947
