data_functionalizedCrystal
_audit_creation_method	'MofGen! by Chris Wilmer'
_symmetry_space_group_name_H-M	'P1'
_symmetry_Int_Tables_number	1
_symmetry_cell_setting	triclinic
loop_
_symmetry_equiv_pos_as_xyz
  x,y,z
_cell_length_a	19.077105
_cell_length_b	18.050589
_cell_length_c	19.076919
_cell_angle_alpha	92.275255
_cell_angle_beta	90.076224
_cell_angle_gamma	87.724731
loop_
_atom_site_label
_atom_site_type_symbol
_atom_site_fract_x
_atom_site_fract_y
_atom_site_fract_z
Zn1	Zn	1.058247	-0.359281	-0.440438
Zn2	Zn	1.062879	-0.478689	-0.322938
Zn3	Zn	0.945466	-0.349333	-0.318231
Zn4	Zn	0.940701	-0.478241	-0.435691
O5	O	1.001823	-0.416386	-0.379325
O6	O	1.157193	-0.379472	-0.428809
O7	O	1.051237	-0.457554	-0.223983
O8	O	0.960482	-0.246731	-0.334459
O9	O	1.160596	-0.467201	-0.342482
O10	O	1.043342	-0.254040	-0.424244
O11	O	0.964973	-0.362516	-0.220524
O12	O	0.846502	-0.362082	-0.329856
O13	O	0.952361	-0.466437	-0.534652
O14	O	0.843002	-0.456790	-0.416153
O15	O	1.038722	-0.379038	-0.538140
O16	O	1.046617	-0.582551	-0.337879
O17	O	0.956853	-0.582222	-0.420717
C18	C	0.819256	-0.408308	-0.371979
C19	C	0.741152	-0.404871	-0.368853
C20	C	1.001739	-0.609334	-0.379310
C21	C	1.001766	-0.691882	-0.379329
C22	C	0.702657	-0.452635	-0.412244
C23	C	0.629270	-0.449396	-0.409310
C24	C	0.594379	-0.398396	-0.362981
C25	C	0.632879	-0.350627	-0.319588
C26	C	0.706264	-0.353863	-0.322526
C27	C	0.375093	-0.383419	-0.349388
C28	C	0.301702	-0.380188	-0.346452
C29	C	0.298098	-0.478956	-0.436175
C30	C	0.371485	-0.482191	-0.439105
C31	C	0.409979	-0.434419	-0.395715
N32	N	0.519366	-0.395085	-0.359980
N33	N	0.484990	-0.437727	-0.398721
C34	C	0.952999	-0.891182	-0.424363
C35	C	0.938449	-0.937256	-0.359556
C36	C	1.001835	-0.843016	-0.379341
C37	C	1.016419	-0.944025	-0.444157
C38	C	1.001900	-0.989004	-0.379358
C39	C	0.987253	-0.887999	-0.314499
C40	C	1.065250	-0.894768	-0.399145
C41	C	1.050726	-0.940818	-0.334295
C42	C	1.001796	-0.758915	-0.379332
C43	C	1.001939	-1.073102	-0.379360
C44	C	1.185104	-0.424496	-0.386700
C45	C	1.263207	-0.427952	-0.389843
C46	C	0.994493	-0.423797	-0.562605
C47	C	0.991370	-0.426955	-0.640709
C48	C	1.001926	-0.222686	-0.379356
C49	C	1.001970	-0.140143	-0.379369
C50	C	1.034863	-0.382937	-0.679219
C51	C	1.031920	-0.385901	-0.752605
C52	C	0.985486	-0.432888	-0.787479
C53	C	0.941988	-0.476908	-0.748964
C54	C	0.944928	-0.473940	-0.675579
C55	C	0.971867	-0.446642	-1.006761
C56	C	0.968931	-0.449609	-1.080151
C57	C	1.058863	-0.358601	-1.083787
C58	C	1.061802	-0.355639	-1.010401
C59	C	1.018301	-0.399657	-0.971892
N60	N	0.982478	-0.435921	-0.862492
N61	N	1.021307	-0.396619	-0.896881
C62	C	1.009165	-0.408952	-0.196759
C63	C	1.012425	-0.405591	-0.118661
H64	H	0.597931	-0.488291	-0.444643
N65	N	0.738305	-0.504732	-0.459559
N66	N	0.780222	-0.552817	-0.436397
H67	H	0.805399	-0.589611	-0.469815
N68	N	0.921483	-0.497582	-1.115789
N69	N	0.875095	-0.471102	-1.154940
H70	H	0.841586	-0.504977	-1.180115
N71	N	0.900512	-0.518906	-0.636229
N72	N	0.903143	-0.516250	-0.570708
H73	H	0.871772	-0.548007	-0.542916
N74	N	0.894553	-0.524907	-0.784578
N75	N	0.899493	-0.593308	-0.776556
H76	H	0.865988	-0.627208	-0.801704
N77	N	0.871213	-0.960830	-0.338551
N78	N	0.860644	-1.028447	-0.334699
H79	H	0.813158	-1.045096	-0.319869
H80	H	0.911645	-0.869387	-0.462377
N81	N	1.076342	-0.340929	-0.791939
N82	N	1.072051	-0.271866	-0.783564
H83	H	1.103427	-0.240101	-0.811343
N84	N	1.031874	-0.974749	-0.512911
N85	N	1.088510	-0.961591	-0.541919
H86	H	1.099421	-0.983288	-0.590478
H87	H	0.974881	-0.863588	-0.259675
H88	H	0.399888	-0.523722	-0.476830
H89	H	0.266749	-0.517848	-0.471502
N90	N	1.132462	-0.871169	-0.420183
N91	N	1.143316	-0.803517	-0.423033
H92	H	1.190783	-0.786847	-0.437900
N93	N	0.266071	-0.328086	-0.299121
N94	N	0.300447	-0.285436	-0.260384
H95	H	0.275284	-0.248641	-0.226958
H96	H	1.092055	-0.962470	-0.296183
N97	N	0.414396	-0.334622	-0.305058
N98	N	0.383232	-0.289096	-0.263693
H99	H	0.410992	-0.254632	-0.232381
H100	H	0.604465	-0.309099	-0.281869
H101	H	1.099616	-0.317380	-0.982011
H102	H	0.737606	-0.314965	-0.287196
N103	N	1.082304	-0.334941	-0.643610
N104	N	1.121132	-0.295641	-0.678006
H105	H	1.154638	-0.261741	-0.652860
H106	H	1.094278	-0.322763	-1.115149
N107	N	0.927429	-0.491608	-0.967442
N108	N	0.885976	-0.533559	-0.998592
H109	H	0.854590	-0.565319	-0.970821
