data_functionalizedCrystal
_audit_creation_method	'MofGen! by Chris Wilmer'
_symmetry_space_group_name_H-M	'P1'
_symmetry_Int_Tables_number	1
_symmetry_cell_setting	triclinic
loop_
_symmetry_equiv_pos_as_xyz
  x,y,z
_cell_length_a	18.050590
_cell_length_b	18.050590
_cell_length_c	16.625539
_cell_angle_alpha	90.029956
_cell_angle_beta	90.004910
_cell_angle_gamma	90.007719
loop_
_atom_site_label
_atom_site_type_symbol
_atom_site_fract_x
_atom_site_fract_y
_atom_site_fract_z
Zn1	Zn	1.135384	-0.295873	0.455563
Zn2	Zn	1.135303	-0.420071	0.320726
Zn3	Zn	1.011191	-0.295875	0.320780
Zn4	Zn	1.011172	-0.420002	0.455553
O5	O	1.073263	-0.357955	0.388156
O6	O	1.239298	-0.312376	0.437658
O7	O	1.118814	-0.403625	0.207901
O8	O	1.027707	-0.191950	0.338686
O9	O	1.239239	-0.403623	0.338594
O10	O	1.118951	-0.191949	0.437711
O11	O	1.027629	-0.312380	0.207941
O12	O	0.907264	-0.312313	0.338677
O13	O	1.027675	-0.403506	0.568387
O14	O	0.907250	-0.403509	0.437694
O15	O	1.118933	-0.312309	0.568394
O16	O	1.118795	-0.523986	0.338585
O17	O	1.027597	-0.523936	0.437641
C18	C	0.880310	-0.357905	0.388191
C19	C	0.797765	-0.357901	0.388225
C20	C	0.598328	-0.407635	0.441942
C21	C	0.548925	-0.339918	0.461785
C22	C	0.646634	-0.357942	0.388185
C23	C	0.548955	-0.425698	0.368342
C24	C	0.500649	-0.357988	0.388149
C25	C	0.598319	-0.290189	0.408066
C26	C	0.598353	-0.376015	0.314589
C27	C	0.548973	-0.308251	0.334404
C28	C	0.730733	-0.357917	0.388208
C29	C	0.416553	-0.358006	0.388125
C30	C	1.073205	-0.550907	0.388124
C31	C	1.073249	-0.633453	0.388137
C32	C	1.122946	-0.832904	0.334345
C33	C	1.141088	-0.882238	0.407930
C34	C	1.073291	-0.784583	0.388169
C35	C	1.055225	-0.882331	0.314618
C36	C	1.073333	-0.930569	0.388194
C37	C	1.091468	-0.832830	0.461792
C38	C	1.005573	-0.832919	0.368431
C39	C	1.023689	-0.882231	0.442066
C40	C	1.073269	-0.700485	0.388154
C41	C	1.073356	-1.014665	0.388217
C42	C	1.266968	-0.358007	0.388121
C43	C	1.349514	-0.358029	0.388107
C44	C	1.073311	-0.357900	0.598465
C45	C	1.073331	-0.357876	0.688086
C46	C	1.073340	-0.164250	0.388206
C47	C	1.073373	-0.081704	0.388227
C48	C	1.073257	-0.357957	0.178665
C49	C	1.073380	-0.357771	0.089044
C50	C	1.073366	-0.357793	1.016262
C51	C	1.073354	-0.357819	0.924953
C52	C	1.073349	-0.357835	0.852177
C53	C	1.073337	-0.357860	0.760862
H54	H	0.620081	-0.391307	0.252384
O55	O	0.520250	-0.501573	0.346105
H56	H	0.540033	-0.542698	0.390827
H57	H	0.948304	-0.811237	0.351698
H58	H	0.527438	-0.266199	0.288928
H59	H	0.619912	-0.232891	0.424905
O60	O	1.178580	-0.804202	0.274114
H61	H	1.234767	-0.823953	0.290707
O62	O	0.627036	-0.463211	0.502216
H63	H	0.688520	-0.463075	0.501296
H64	H	1.198374	-0.903904	0.424640
O65	O	1.111830	-0.804162	0.544223
H66	H	1.111682	-0.742675	0.543557
O67	O	0.520100	-0.319794	0.544208
H68	H	0.567479	-0.310247	0.585494
H69	H	0.981716	-0.903753	0.487646
H70	H	1.039926	-0.904074	0.252406
