data_functionalizedCrystal
_audit_creation_method	'MofGen! by Chris Wilmer'
_symmetry_space_group_name_H-M	'P1'
_symmetry_Int_Tables_number	1
_symmetry_cell_setting	triclinic
loop_
_symmetry_equiv_pos_as_xyz
  x,y,z
_cell_length_a	27.780848
_cell_length_b	27.780884
_cell_length_c	27.780936
_cell_angle_alpha	90.002261
_cell_angle_beta	59.997758
_cell_angle_gamma	119.999668
loop_
_atom_site_label
_atom_site_type_symbol
_atom_site_fract_x
_atom_site_fract_y
_atom_site_fract_z
O1	O	0.424592	-0.330214	-0.014321
O2	O	0.326022	-0.260215	0.014251
O3	O	0.424588	-0.260215	-0.084318
O4	O	0.326026	-0.330214	0.084247
O5	O	0.344528	-0.340275	-0.084318
O6	O	0.245962	-0.340275	0.014251
O7	O	0.344532	-0.410274	-0.014321
Cu8	Cu	0.287937	-0.382584	-0.000035
Cu9	Cu	0.382617	-0.287905	-0.000035
O10	O	0.245966	-0.410273	0.084248
C11	C	0.177734	-0.120430	0.029862
C12	C	0.211527	-0.056935	0.025772
C13	C	0.119397	-0.149664	0.030267
C14	C	0.177730	-0.207598	0.029867
C15	C	0.211519	-0.237304	0.025783
C16	C	0.119393	-0.236700	0.030273
C17	C	0.090568	-0.207596	0.029862
C18	C	0.031162	-0.237299	0.025772
C19	C	0.206427	-0.149667	0.030273
C20	C	-0.016831	-0.261295	0.022466
C21	C	0.238829	-0.005637	0.022467
C22	C	0.238818	-0.261302	0.022482
C23	C	-0.077040	-0.291400	0.018321
C24	C	0.273079	0.058719	0.018322
C25	C	0.273065	-0.291410	0.018343
O26	O	-0.234712	-0.330201	0.084223
O27	O	-0.094702	-0.260210	-0.084343
O28	O	-0.094709	-0.260204	0.014225
O29	O	-0.234705	-0.330207	-0.014344
O30	O	-0.094710	-0.340265	0.014230
O31	O	-0.094703	-0.340271	-0.084338
O32	O	-0.234713	-0.410262	0.084228
Cu33	Cu	-0.164708	-0.382576	-0.000054
Cu34	Cu	-0.164707	-0.287895	-0.000060
O35	O	-0.234706	-0.410267	-0.014339
C36	C	0.492828	-0.207605	-0.372394
C37	C	0.459037	-0.237308	-0.402098
C38	C	0.551166	-0.149674	-0.401496
C39	C	0.492828	-0.207605	-0.285228
C40	C	0.459036	-0.237308	-0.221733
C41	C	0.551166	-0.149674	-0.314463
C42	C	0.579994	-0.120439	-0.372393
C43	C	0.639400	-0.056945	-0.402096
C44	C	0.464132	-0.236707	-0.314464
C45	C	0.687394	-0.005648	-0.426092
C46	C	0.431736	-0.261305	-0.426095
C47	C	0.431736	-0.261305	-0.170435
C48	C	0.747605	0.058707	-0.456197
C49	C	0.397486	-0.291410	-0.456201
C50	C	0.397486	-0.291411	-0.106080
C51	C	0.580008	-0.462880	-0.029964
C52	C	0.639417	-0.433176	-0.025878
C53	C	0.551182	-0.520811	-0.030373
C54	C	0.492839	-0.462882	-0.029960
C55	C	0.459045	-0.433179	-0.025869
C56	C	0.464144	-0.520812	-0.030368
C57	C	0.492842	-0.550046	-0.029964
C58	C	0.459052	-0.613541	-0.025878
C59	C	0.551178	-0.433778	-0.030369
C60	C	0.431752	-0.664838	-0.022575
C61	C	0.687412	-0.409178	-0.022576
C62	C	0.431742	-0.409183	-0.022562
C63	C	0.397504	-0.729193	-0.018433
C64	C	0.747625	-0.379072	-0.018434
C65	C	0.397490	-0.379078	-0.018415
O66	O	0.344549	0.249047	-0.014343
O67	O	0.245980	0.080482	0.014226
O68	O	0.344550	0.179041	-0.084342
O69	O	0.245978	0.150488	0.084224
O70	O	0.424607	0.179039	-0.084336
O71	O	0.326036	0.080480	0.014231
O72	O	0.424605	0.249044	-0.014338
Cu73	Cu	0.382630	0.164762	-0.000053
Cu74	Cu	0.287954	0.164765	-0.000059
O75	O	0.326034	0.150485	0.084230
O76	O	0.905273	0.249031	-0.494995
O77	O	0.765273	0.080468	-0.425001
O78	O	0.765270	0.179030	-0.424994
O79	O	0.905276	0.150468	-0.495003
O80	O	0.765272	0.179033	-0.505055
O81	O	0.765275	0.080470	-0.505062
O82	O	0.905275	0.249033	-0.575056
Cu83	Cu	0.835275	0.164752	-0.547369
Cu84	Cu	0.835273	0.164749	-0.452688
O85	O	0.905278	0.150471	-0.575063
O86	O	0.326020	-0.330219	-0.575063
O87	O	0.424588	-0.260216	-0.505065
O88	O	0.326020	-0.260218	-0.505059
O89	O	0.424589	-0.330217	-0.575069
O90	O	0.245961	-0.340276	-0.425000
O91	O	0.344530	-0.340274	-0.425006
O92	O	0.245962	-0.410277	-0.495003
Cu93	Cu	0.287936	-0.382585	-0.452694
Cu94	Cu	0.382614	-0.287907	-0.547374
O95	O	0.344531	-0.410275	-0.495009
C96	C	0.090559	-0.550052	0.372323
C97	C	0.031152	-0.613546	0.402025
C98	C	0.119386	-0.520817	0.401426
C99	C	0.177725	-0.462886	0.285158
C100	C	0.211517	-0.433182	0.221663
C101	C	0.206420	-0.433784	0.314394
C102	C	0.177724	-0.462887	0.372324
C103	C	0.211515	-0.433184	0.402029
C104	C	0.119387	-0.520816	0.314392
C105	C	0.238815	-0.409187	0.426026
C106	C	-0.016842	-0.664843	0.426021
C107	C	0.238818	-0.409185	0.170365
C108	C	0.273064	-0.379082	0.456133
C109	C	-0.077053	-0.729198	0.456125
C110	C	0.273068	-0.379079	0.106010
C111	C	0.177760	-0.120446	-0.372420
C112	C	0.211553	-0.056952	-0.402126
C113	C	0.206457	-0.149683	-0.401521
C114	C	0.090590	-0.207608	-0.285252
C115	C	0.031179	-0.237309	-0.221756
C116	C	0.119419	-0.236713	-0.314485
C117	C	0.177760	-0.207612	-0.372416
C118	C	0.211552	-0.237317	-0.402117
C119	C	0.119419	-0.149679	-0.314489
C120	C	0.238854	-0.261316	-0.426112
C121	C	0.238854	-0.005655	-0.426124
C122	C	-0.016817	-0.261304	-0.170458
C123	C	0.273105	-0.291423	-0.456216
C124	C	0.273105	0.058699	-0.456232
C125	C	-0.077032	-0.291407	-0.106103
C126	C	-0.507175	-0.462862	0.372301
C127	C	-0.540968	-0.433157	0.402003
C128	C	-0.535872	-0.520791	0.401406
C129	C	-0.420004	-0.462865	0.285137
C130	C	-0.360594	-0.433164	0.221642
C131	C	-0.448833	-0.520794	0.314374
C132	C	-0.507174	-0.550028	0.372305
C133	C	-0.540966	-0.613521	0.402010
C134	C	-0.448834	-0.433761	0.314370
C135	C	-0.568268	-0.664818	0.426008
C136	C	-0.568270	-0.409159	0.425999
C137	C	-0.312597	-0.409168	0.170343
C138	C	-0.602518	-0.729172	0.456115
C139	C	-0.602521	-0.379052	0.456103
C140	C	-0.252383	-0.379065	0.105988
C141	C	0.580005	0.194618	-0.372405
C142	C	0.639409	0.190524	-0.402104
C143	C	0.551178	0.195021	-0.401510
C144	C	0.492843	0.194634	-0.285245
C145	C	0.459054	0.190557	-0.221751
C146	C	0.464149	0.195038	-0.314482
C147	C	0.492843	0.194620	-0.372410
C148	C	0.459052	0.190528	-0.402115
C149	C	0.551179	0.195035	-0.314476
C150	C	0.431752	0.187221	-0.426113
C151	C	0.687401	0.187214	-0.426097
C152	C	0.431754	0.187262	-0.170455
C153	C	0.397503	0.183074	-0.456220
C154	C	0.747609	0.183064	-0.456199
C155	C	0.397506	0.183129	-0.106101
O156	O	0.424643	0.249024	-0.575094
O157	O	0.326066	0.080459	-0.505096
O158	O	0.424626	0.179016	-0.505086
O159	O	0.326083	0.150467	-0.575104
O160	O	0.344561	0.179019	-0.425029
O161	O	0.246001	0.080462	-0.425039
O162	O	0.344578	0.249027	-0.495037
Cu163	Cu	0.287979	0.164745	-0.452728
Cu164	Cu	0.382665	0.164741	-0.547405
O165	O	0.246018	0.150470	-0.495047
C166	C	0.177742	0.134905	0.372298
C167	C	0.211532	0.138997	0.402003
C168	C	0.119406	0.134505	0.401398
C169	C	0.177741	0.134892	0.285133
C170	C	0.211531	0.138969	0.221639
C171	C	0.119406	0.134492	0.314364
C172	C	0.090580	0.134909	0.372293
C173	C	0.031176	0.139004	0.401992
C174	C	0.206435	0.134488	0.314370
C175	C	-0.016815	0.142313	0.425985
C176	C	0.238832	0.142303	0.426002
C177	C	0.238831	0.142264	0.170343
C178	C	-0.077023	0.146464	0.456086
C179	C	0.273081	0.146451	0.456109
C180	C	0.273079	0.146397	0.105989
H181	H	0.095271	-0.126191	0.030925
H182	H	-0.582816	-0.544258	0.449005
C183	C	0.400720	-0.301007	-0.282753
H184	H	0.387685	-0.314225	-0.243993
H185	H	0.410890	-0.325206	-0.303961
H186	H	0.364457	-0.303253	-0.280734
C187	C	0.583764	0.195895	-0.465807
H188	H	0.558227	0.196083	-0.479028
H189	H	0.583994	0.161883	-0.468049
H190	H	0.629173	0.230267	-0.490012
H191	H	0.095280	0.133853	0.448996
C192	C	0.583761	0.195914	-0.282762
H193	H	0.622701	0.196086	-0.308478
H194	H	0.551751	0.161909	-0.248512
H195	H	0.596942	0.230294	-0.271738
H196	H	0.575312	-0.544279	-0.031030
C197	C	0.269846	0.133595	0.282663
H198	H	0.282880	0.133406	0.243903
H199	H	0.259674	0.099227	0.303873
H200	H	0.306109	0.167611	0.280641
C201	C	0.400736	0.195928	-0.282782
H202	H	0.387701	0.196106	-0.308508
H203	H	0.410906	0.230299	-0.271749
H204	H	0.364474	0.161915	-0.248536
H205	H	-0.424703	-0.544265	0.290901
H206	H	0.253368	-0.126194	0.030932
C207	C	0.086797	-0.301001	0.031161
H208	H	0.112334	-0.314225	0.031345
H209	H	0.086554	-0.303251	-0.002844
H210	H	0.041392	-0.325197	0.065541
C211	C	0.583765	-0.117969	-0.282760
H212	H	0.558228	-0.143690	-0.243999
H213	H	0.584013	-0.083718	-0.280753
H214	H	0.629169	-0.106948	-0.303970
H215	H	0.253408	-0.126208	-0.449117
C216	C	0.269821	-0.369479	0.282699
H217	H	0.282852	-0.356259	0.308427
H218	H	0.259635	-0.345289	0.271672
H219	H	0.306092	-0.367218	0.248450
H220	H	0.095249	-0.544287	0.449028
H221	H	0.095257	-0.544289	0.290923
C222	C	0.583759	-0.117965	-0.465795
H223	H	0.558215	-0.143682	-0.479016
H224	H	0.629163	-0.106935	-0.489997
H225	H	0.583994	-0.083718	-0.468035
H226	H	0.417198	-0.544283	-0.031019
H227	H	0.575304	-0.386181	-0.031019
H228	H	0.095283	-0.284313	-0.291012
H229	H	0.095294	-0.126203	-0.291021
H230	H	-0.424739	-0.386178	0.290884
C231	C	0.086814	0.133604	0.282656
H232	H	0.112352	0.133416	0.243896
H233	H	0.086575	0.167611	0.280648
H234	H	0.041408	0.099227	0.303863
