data_functionalizedCrystal
_audit_creation_method	'MofGen! by Chris Wilmer'
_symmetry_space_group_name_H-M	'P1'
_symmetry_Int_Tables_number	1
_symmetry_cell_setting	triclinic
loop_
_symmetry_equiv_pos_as_xyz
  x,y,z
_cell_length_a	10.540539
_cell_length_b	16.992695
_cell_length_c	15.455313
_cell_angle_alpha	87.138508
_cell_angle_beta	92.694186
_cell_angle_gamma	87.596857
loop_
_atom_site_label
_atom_site_type_symbol
_atom_site_fract_x
_atom_site_fract_y
_atom_site_fract_z
O1	O	0.264106	1.045305	-0.072090
O2	O	0.261151	0.817004	-0.072099
O3	O	0.078374	0.936363	-0.072093
O4	O	0.446883	0.925946	-0.072096
O5	O	0.088780	0.929537	0.072169
O6	O	0.271557	0.810178	0.072163
O7	O	0.274512	1.038479	0.072172
Cu8	Cu	0.273984	0.923705	0.085340
Cu9	Cu	0.261678	0.931778	-0.085267
O10	O	0.457289	0.919120	0.072166
C11	C	0.036206	0.932169	0.000036
C12	C	-0.104945	0.929832	0.000031
C13	C	0.273110	1.071126	0.000041
C14	C	0.284450	1.158234	0.000039
C15	C	0.262553	0.784357	0.000031
C16	C	0.251212	0.697250	0.000027
C17	C	-0.296167	0.840287	-0.000296
C18	C	-0.149320	0.842641	0.000029
C19	C	-0.157019	0.967894	0.082414
C20	C	-0.303817	0.964915	0.082483
C21	C	-0.316015	0.974451	-0.081570
C22	C	-0.169042	0.975305	-0.082659
C23	C	0.499456	0.923314	0.000035
C24	C	0.640607	0.925652	0.000034
N25	N	0.282640	0.918034	0.205335
C26	C	0.175030	1.207862	0.000036
C27	C	0.185693	1.289708	0.000039
C28	C	0.305777	1.321925	0.000038
C29	C	0.415206	1.272291	0.000043
C30	C	0.404542	1.190446	0.000046
C31	C	0.349976	1.565770	0.000035
C32	C	0.360632	1.647622	0.000029
C33	C	0.131118	1.665033	0.000027
C34	C	0.120464	1.583186	0.000025
C35	C	0.229893	1.533559	0.000034
N36	N	0.316680	1.405585	0.000039
N37	N	0.218990	1.449900	0.000040
N38	N	0.253013	0.937456	-0.205262
C39	C	0.205022	0.968759	0.250732
C40	C	0.211580	0.964477	0.341539
C41	C	0.295764	0.909473	0.386949
C42	C	0.373384	0.858741	0.341546
C43	C	0.366819	0.863020	0.250740
C44	C	0.324068	0.891003	0.658529
C45	C	0.330631	0.886730	0.749341
C46	C	0.168824	0.992465	0.749329
C47	C	0.162272	0.996743	0.658521
C48	C	0.239888	0.946008	0.613126
N49	N	0.302472	0.905096	0.479769
N50	N	0.233172	0.950382	0.520308
H51	H	-0.113842	0.812418	-0.059026
Br52	Br	0.037188	1.357057	0.000045
H53	H	0.512982	1.298528	0.000048
H54	H	0.493644	1.150039	0.000051
Br55	Br	-0.374256	1.069131	0.088727
Br56	Br	-0.110140	1.074376	0.087529
Br57	Br	-0.082868	0.914481	0.184594
Br58	Br	-0.380175	0.932334	-0.185642
Br59	Br	-0.355913	0.787534	-0.098766
Br60	Br	0.048028	1.071395	0.596893
Br61	Br	-0.042516	1.539471	-0.000012
H62	H	0.441924	0.813951	0.378523
Br63	Br	-0.077409	0.782555	0.098614
Br64	Br	0.090777	1.043419	0.189114
Br65	Br	0.472153	0.794169	0.189130
H66	H	0.439081	1.525373	0.000038
Br67	Br	0.429404	0.822153	0.596926
H68	H	0.148377	1.005782	0.378501
Br69	Br	0.063491	1.061314	0.810939
Br70	Br	0.444896	0.812077	0.810963
H71	H	-0.330266	0.930991	0.144063
Br72	Br	-0.345056	0.778326	0.097315
H73	H	-0.135244	0.947487	-0.143603
Br74	Br	-0.017383	1.732388	0.000019
Br75	Br	-0.120069	1.081651	-0.090955
H76	H	0.077244	1.181638	0.000032
H77	H	-0.357816	1.037455	-0.082121
H78	H	0.458425	1.673848	0.000041
