data_functionalizedCrystal
_audit_creation_method	'MofGen! by Chris Wilmer'
_symmetry_space_group_name_H-M	'P1'
_symmetry_Int_Tables_number	1
_symmetry_cell_setting	triclinic
loop_
_symmetry_equiv_pos_as_xyz
  x,y,z
_cell_length_a	6.817900
_cell_length_b	10.992421
_cell_length_c	10.992410
_cell_angle_alpha	91.831025
_cell_angle_beta	108.764651
_cell_angle_gamma	108.764763
loop_
_atom_site_label
_atom_site_type_symbol
_atom_site_fract_x
_atom_site_fract_y
_atom_site_fract_z
V1	V	-4.114248	-0.177761	-0.400575
O2	O	-4.072376	0.008542	-0.392968
O3	O	-4.091827	-0.352470	-0.397818
O4	O	-4.091840	-0.175026	-0.575288
O5	O	-4.072363	-0.170129	-0.214270
V6	V	-4.591142	-0.155477	-0.378294
O7	O	-4.390048	-0.226642	-0.449452
O8	O	-4.765539	-0.106595	-0.329417
O9	O	-4.390356	0.019232	-0.381051
O10	O	-4.750411	-0.341780	-0.385901
O11	O	-4.750424	-0.163108	-0.564599
O12	O	-4.390343	-0.158211	-0.203581
C13	C	-3.942307	-0.395060	-0.391494
C14	C	-4.005435	-0.537887	-0.390404
C15	C	-3.873099	-0.733174	-0.381618
C16	C	-3.807017	-0.584530	-0.382242
C17	C	-4.076044	-0.576522	-0.270588
C18	C	-4.140279	-0.725065	-0.269320
C19	C	-4.271785	-0.763647	-0.514935
C20	C	-4.202731	-0.615133	-0.517535
C21	C	-3.942322	-0.168712	-0.617873
C22	C	-4.005457	-0.167632	-0.760702
C23	C	-3.872580	-0.157795	-0.955826
C24	C	-3.807029	-0.159451	-0.807343
C25	C	-4.203473	-0.294312	-0.837793
C26	C	-4.267786	-0.293192	-0.986360
C27	C	-4.145552	-0.047893	-0.948352
C28	C	-4.074843	-0.047293	-0.799340
C29	C	-4.203219	0.061816	-0.387371
C30	C	-4.119331	0.204641	-0.388470
C31	C	-4.203203	-0.164530	-0.160989
C32	C	-4.119306	-0.165603	-0.018159
H33	H	-3.658574	-0.068362	-0.754011
N34	N	-3.889822	-0.504692	-0.145913
H35	H	-3.936853	-0.530208	-0.069377
H36	H	-3.852694	-0.407992	-0.145579
N37	N	-4.268948	-0.536479	-0.272405
H38	H	-4.312527	-0.492801	-0.351102
H39	H	-4.224997	-0.473964	-0.190909
H40	H	-4.324536	-0.052498	-0.989193
H41	H	-3.847642	-0.242371	-1.003810
H42	H	-3.755376	-0.066081	-0.974664
N43	N	-4.137850	-0.583473	-0.634962
H44	H	-4.265402	-0.633435	-0.716428
H45	H	-4.005247	-0.608560	-0.628763
H46	H	-3.749893	-0.558765	-0.467855
N47	N	-3.838932	-0.794545	-0.494401
H48	H	-3.982721	-0.863272	-0.551021
H49	H	-3.722982	-0.835687	-0.460359
N50	N	-4.508863	-0.307784	-1.042837
H51	H	-4.552480	-0.307173	-1.139694
H52	H	-4.533064	-0.233300	-1.001070
N53	N	-4.401134	-0.575121	-0.535255
H54	H	-4.451466	-0.592976	-0.458575
H55	H	-4.524978	-0.626332	-0.617669
H56	H	-4.157711	-0.383659	-0.812179
N57	N	-4.510013	-0.818088	-0.523254
H58	H	-4.519252	-0.863082	-0.445532
H59	H	-4.600309	-0.882544	-0.605586
H60	H	-4.353848	-0.304874	-0.808989
H61	H	-3.749849	-0.245200	-0.782519
H62	H	-4.252224	-0.382320	-1.032621
N63	N	-4.009246	0.079537	-0.975330
H64	H	-3.929096	0.062249	-1.033085
H65	H	-3.897913	0.134202	-0.890644
H66	H	-3.931589	0.046420	-0.746991
H67	H	-4.316491	-0.765948	-0.269130
H68	H	-4.216956	-0.045805	-0.766828
H69	H	-3.757306	-0.753734	-0.290415
H70	H	-4.029479	-0.742580	-0.174188
N71	N	-3.610023	-0.515050	-0.261360
H72	H	-3.565838	-0.580976	-0.207454
H73	H	-3.650097	-0.455997	-0.208908
H74	H	-4.265447	-0.813163	-0.605597
