data_functionalizedCrystal
_audit_creation_method	'MofGen! by Chris Wilmer'
_symmetry_space_group_name_H-M	'P1'
_symmetry_Int_Tables_number	1
_symmetry_cell_setting	triclinic
loop_
_symmetry_equiv_pos_as_xyz
  x,y,z
_cell_length_a	6.817900
_cell_length_b	11.102289
_cell_length_c	17.110486
_cell_angle_alpha	95.184084
_cell_angle_beta	99.060439
_cell_angle_gamma	108.605707
loop_
_atom_site_label
_atom_site_type_symbol
_atom_site_fract_x
_atom_site_fract_y
_atom_site_fract_z
V1	V	-4.002964	-0.175461	-0.246720
O2	O	-3.964063	0.008821	-0.242024
O3	O	-3.980483	-0.348283	-0.245032
O4	O	-3.932395	-0.172591	-0.354323
O5	O	-4.012484	-0.168088	-0.131976
V6	V	-4.486106	-0.153439	-0.232996
O7	O	-4.265058	-0.223768	-0.276825
O8	O	-4.674209	-0.105131	-0.202890
O9	O	-4.285380	0.019384	-0.234683
O10	O	-4.642403	-0.337720	-0.237692
O11	O	-4.593982	-0.160811	-0.347739
O12	O	-4.333468	-0.156308	-0.125393
C13	C	-3.832507	-0.390419	-0.241140
C14	C	-3.895266	-0.531703	-0.240478
C15	C	-4.107020	-0.604546	-0.244114
C16	C	-4.165979	-0.737298	-0.243498
C17	C	-3.801407	-0.724352	-0.235607
C18	C	-3.742453	-0.591604	-0.236228
C19	C	-4.317502	-0.612020	-0.248667
C20	C	-4.376461	-0.744773	-0.248051
C21	C	-3.771165	-0.166304	-0.380550
C22	C	-3.794922	-0.165101	-0.468517
C23	C	-3.988322	-0.170879	-0.513874
C24	C	-4.010632	-0.169748	-0.596528
C25	C	-3.839545	-0.162848	-0.633822
C26	C	-3.646128	-0.157066	-0.588458
C27	C	-3.623816	-0.158188	-0.505806
C28	C	-3.897793	-0.159135	-0.883177
C29	C	-3.920123	-0.158018	-0.965836
C30	C	-4.284625	-0.170697	-0.973900
C31	C	-4.262299	-0.171826	-0.891246
C32	C	-4.068882	-0.166037	-0.845889
C33	C	-3.862348	-0.161696	-0.718308
C34	C	-4.046078	-0.167181	-0.761404
C35	C	-4.096699	0.061513	-0.238573
C36	C	-4.013178	0.202796	-0.239241
C37	C	-4.158042	-0.162599	-0.099161
C38	C	-4.113522	-0.163796	-0.011194
H39	H	-4.342122	-0.558879	-0.192874
F40	F	-3.738017	-0.150674	-1.005526
F41	F	-4.170426	-0.178232	-0.474191
F42	F	-4.228152	-0.174521	-0.721710
H43	H	-4.401620	-0.177444	-0.860887
H44	H	-4.442097	-0.175408	-1.010839
F45	F	-3.691957	-0.153001	-0.834917
H46	H	-3.506824	-0.151441	-0.618829
F47	F	-4.514816	-0.820300	-0.324709
F48	F	-3.417970	-0.152029	-0.457532
F49	F	-3.680280	-0.154369	-0.758008
H50	H	-3.570031	-0.532302	-0.233277
H51	H	-4.451554	-0.769825	-0.193998
F52	F	-3.638789	-0.788114	-0.231085
F53	F	-4.216479	-0.175911	-0.644799
F54	F	-4.430604	-0.586775	-0.323887
