data_functionalizedCrystal
_audit_creation_method	'MofGen! by Chris Wilmer'
_symmetry_space_group_name_H-M	'P1'
_symmetry_Int_Tables_number	1
_symmetry_cell_setting	triclinic
loop_
_symmetry_equiv_pos_as_xyz
  x,y,z
_cell_length_a	17.917559
_cell_length_b	21.606444
_cell_length_c	21.606444
_cell_angle_alpha	59.991153
_cell_angle_beta	90.001293
_cell_angle_gamma	57.013646
loop_
_atom_site_label
_atom_site_type_symbol
_atom_site_fract_x
_atom_site_fract_y
_atom_site_fract_z
Zr1	Zr	0.754921	0.620509	-0.052830
O2	O	0.629789	0.759092	-0.156403
O3	O	0.793280	0.488481	-0.021064
O4	O	0.793273	0.617617	-0.150208
O5	O	0.629803	0.629951	0.074596
O6	O	0.922233	0.607879	-0.145338
O7	O	0.629796	0.629956	-0.027259
O8	O	0.922246	0.376878	0.085677
O9	O	0.629790	0.860952	-0.156420
O10	O	0.905882	0.533091	-0.003900
O11	O	0.809646	0.540354	0.068479
O12	O	0.809637	0.692396	-0.083572
O13	O	0.713401	0.699659	-0.011194
Zr14	Zr	0.960608	0.604970	0.117383
Zr15	Zr	0.960597	0.604978	-0.045063
Zr16	Zr	0.754932	0.620501	0.109616
Zr17	Zr	0.754922	0.782964	-0.052857
Zr18	Zr	0.960606	0.442515	0.117410
O19	O	0.922248	0.736998	0.085617
O20	O	0.922234	0.737009	-0.145360
O21	O	0.629804	0.759081	0.074574
O22	O	1.085740	0.466387	0.220957
O23	O	1.085725	0.466398	-0.010021
O24	O	0.793295	0.488470	0.209914
O25	O	1.085726	0.595528	-0.010042
O26	O	0.922256	0.607862	0.214762
O27	O	0.793296	0.617600	0.209892
O28	O	1.085733	0.595523	0.091812
O29	O	0.793274	0.848607	-0.150247
O30	O	0.922254	0.376872	0.214800
O31	O	1.085739	0.364527	0.220974
O32	O	1.085731	0.364533	0.091851
O33	O	0.629798	0.860946	-0.027297
O34	O	0.793283	0.848601	-0.021124
O35	O	0.905892	0.533083	0.148126
O36	O	1.002128	0.525820	0.075747
O37	O	0.905883	0.685125	-0.003925
O38	O	0.809647	0.692388	0.068453
C39	C	0.857763	0.409533	0.032311
C40	C	0.857762	0.340566	0.032322
C41	C	0.786711	0.369669	-0.026489
C42	C	0.786714	0.304879	-0.026505
C43	C	0.857764	0.210988	0.032295
C44	C	0.928823	0.181886	0.091109
C45	C	0.928823	0.246674	0.091121
C46	C	0.928822	-0.079401	0.091061
C47	C	0.928814	-0.144189	0.091046
C48	C	0.786713	-0.021196	-0.026564
C49	C	0.786713	0.043593	-0.026552
C50	C	0.857774	0.014485	0.032260
C51	C	0.857772	0.084737	0.032275
C52	C	0.857764	0.140736	0.032283
C53	C	0.600495	0.632166	0.022562
C54	C	0.513180	0.638759	0.019265
C55	C	0.362189	0.574687	0.051308
C56	C	0.353346	0.650788	0.013248
C57	C	0.442287	0.644093	0.016597
C58	C	0.273242	0.581380	0.047959
C59	C	1.115034	0.593313	0.041991
C60	C	1.202349	0.586720	0.045289
C61	C	0.857751	0.612749	-0.170918
C62	C	0.857747	0.612752	-0.239881
C63	C	0.857766	0.815946	0.032243
C64	C	0.857766	0.884912	0.032231
C65	C	0.807507	0.695907	-0.313868
C66	C	0.807516	0.695904	-0.378662
C67	C	0.857758	0.612746	-0.369469
C68	C	0.908004	0.529584	-0.295474
C69	C	0.908001	0.529588	-0.230681
C70	C	0.908019	0.529568	-0.556776
C71	C	0.908016	0.529571	-0.621577
C72	C	0.807534	0.695884	-0.704758
C73	C	0.807531	0.695888	-0.639965
C74	C	0.857780	0.612727	-0.565976
C75	C	0.857772	0.612731	-0.495719
C76	C	0.857761	0.612741	-0.439724
C77	C	0.857777	0.612730	0.235472
C78	C	0.857782	0.612726	0.304434
C79	C	1.115032	0.390106	0.042025
C80	C	1.202347	0.314547	0.045334
C81	C	0.857776	0.409523	0.235506
C82	C	0.857780	0.340553	0.304480
C83	C	1.115045	0.390097	0.245221
C84	C	1.202364	0.314534	0.317492
C85	C	0.600483	0.835382	-0.180667
C86	C	0.513165	0.910945	-0.252938
C87	C	0.600496	0.835373	0.022528
C88	C	0.513182	0.910932	0.019219
C89	C	0.857753	0.815956	-0.170952
C90	C	0.857749	0.884925	-0.239926
C91	C	1.193111	0.282858	0.005306
C92	C	1.275144	0.211872	0.008399
C93	C	1.366412	0.172570	0.051526
C94	C	1.375646	0.204265	0.091555
C95	C	1.293614	0.275255	0.088456
C96	C	0.908021	0.304369	0.378453
C97	C	0.908021	0.239574	0.443267
C98	C	0.857785	0.210960	0.434107
C99	C	0.807538	0.247151	0.360127
C100	C	0.807532	0.311949	0.295314
C101	C	1.293613	0.275256	0.313650
C102	C	1.375666	0.204265	0.381551
C103	C	1.366468	0.172548	0.453292
C104	C	1.275210	0.211833	0.457131
C105	C	1.193159	0.282827	0.389232
C106	C	0.421916	0.950230	-0.249097
C107	C	0.339863	1.021242	-0.316998
C108	C	0.349060	1.052962	-0.388739
C109	C	0.440319	1.013673	-0.392578
C110	C	0.522370	0.942668	-0.324678
C111	C	0.522418	0.942627	0.059241
C112	C	0.440385	1.013632	0.056129
C113	C	0.349116	1.052936	0.013001
C114	C	0.339883	1.021238	-0.027025
C115	C	0.421915	0.950239	-0.023918
C116	C	0.907995	0.913519	-0.230742
C117	C	0.908010	0.978313	-0.295544
C118	C	0.857773	1.014518	-0.369529
C119	C	0.807525	0.985918	-0.378712
C120	C	0.807516	0.921120	-0.313911
H121	H	0.728853	0.120042	-0.074430
Br122	Br	1.499504	0.150963	0.376322
H123	H	0.766621	0.763598	-0.765009
H124	H	0.436552	0.504512	0.086403
Br125	Br	1.306166	0.318247	0.142791
Br126	Br	1.025246	-0.271618	0.170851
Br127	Br	1.069257	0.336183	-0.053231
Br128	Br	1.025256	-0.118912	0.170882
H129	H	0.447922	1.039428	0.088727
H130	H	0.282328	1.110747	0.010477
Br131	Br	0.739341	1.035071	-0.479127
Br132	Br	0.229399	0.767761	-0.045256
Br133	Br	0.976203	1.017116	-0.283063
Br134	Br	0.739313	0.808772	-0.326355
H135	H	0.948930	0.327659	0.385925
Br136	Br	0.857801	0.123017	0.522078
H137	H	0.766608	0.763617	-0.438904
Br138	Br	0.976221	0.190470	0.543659
H139	H	1.301120	0.301069	0.255242
Br140	Br	1.262743	0.168778	0.554501
H141	H	1.118863	0.314798	0.392370
Br142	Br	1.477834	0.076197	0.545436
Br143	Br	0.216011	1.074587	-0.085551
Br144	Br	0.739365	0.208307	0.347709
H145	H	0.728854	0.002499	-0.074454
Br146	Br	0.409363	0.907229	-0.078234
Br147	Br	0.739325	0.808751	-0.652448
Br148	Br	0.739345	0.361045	0.194925
H149	H	0.857787	1.067280	-0.422288
Br150	Br	0.976182	0.864398	-0.130341
Br151	Br	0.976206	0.416705	-0.609096
H152	H	0.414408	0.924409	-0.190688
Br153	Br	0.690274	0.497091	-0.106288
H154	H	1.449967	0.172255	0.126667
H155	H	0.986677	0.105433	0.138981
Br156	Br	0.237694	1.149328	-0.480882
H157	H	0.596667	0.910682	-0.327815
H158	H	1.267607	0.186075	-0.024197
Br159	Br	0.739309	0.882331	-0.326390
Br160	Br	0.216025	1.074545	-0.311769
Br161	Br	0.452785	1.056731	-0.489947
H162	H	0.596726	0.910631	0.094365
Br163	Br	0.976172	0.416709	-0.456373
H164	H	0.728856	0.328584	-0.074394
H165	H	0.986680	0.222972	0.139011
Br166	Br	0.976196	0.416724	-0.282995
Br167	Br	0.976201	0.416729	-0.130266
Br168	Br	1.477733	0.076226	0.055722
