data_functionalizedCrystal
_audit_creation_method	'MofGen! by Chris Wilmer'
_symmetry_space_group_name_H-M	'P1'
_symmetry_Int_Tables_number	1
_symmetry_cell_setting	triclinic
loop_
_symmetry_equiv_pos_as_xyz
  x,y,z
_cell_length_a	16.959455
_cell_length_b	21.295416
_cell_length_c	16.959447
_cell_angle_alpha	90.032720
_cell_angle_beta	89.979626
_cell_angle_gamma	89.972649
loop_
_atom_site_label
_atom_site_type_symbol
_atom_site_fract_x
_atom_site_fract_y
_atom_site_fract_z
Zn1	Zn	1.208327	0.250647	-0.447023
Zn2	Zn	1.541661	0.583980	-0.113690
Zn3	Zn	1.874994	0.917313	0.219644
Zn4	Zn	1.208226	0.355924	-0.314839
Zn5	Zn	1.541560	0.689257	0.018494
Zn6	Zn	1.874893	1.022590	0.351828
Zn7	Zn	1.076156	0.250667	-0.314847
Zn8	Zn	1.409489	0.584000	0.018487
Zn9	Zn	1.742823	0.917333	0.351820
Zn10	Zn	1.076097	0.355877	-0.446964
Zn11	Zn	1.409430	0.689210	-0.113630
Zn12	Zn	1.742764	1.022543	0.219703
O13	O	1.142202	0.303278	-0.380918
O14	O	1.475535	0.636612	-0.047585
O15	O	1.808868	0.969945	0.285749
O16	O	1.318925	0.264623	-0.429510
O17	O	1.652258	0.597957	-0.096177
O18	O	1.985592	0.931290	0.237156
O19	O	1.190689	0.341989	-0.204229
O20	O	1.524023	0.675322	0.129104
O21	O	1.857356	1.008656	0.462438
O22	O	1.093756	0.162575	-0.332408
O23	O	1.427089	0.495908	0.000925
O24	O	1.760422	0.829241	0.334258
O25	O	1.318851	0.341970	-0.332395
O26	O	1.652184	0.675303	0.000938
O27	O	1.985517	1.008636	0.334271
O28	O	1.190862	0.162560	-0.429518
O29	O	1.524195	0.495893	-0.096184
O30	O	1.857528	0.829227	0.237149
O31	O	1.093658	0.264657	-0.204235
O32	O	1.426991	0.597991	0.129099
O33	O	1.760324	0.931324	0.462432
O34	O	0.965537	0.264612	-0.332351
O35	O	1.298871	0.597945	0.000983
O36	O	1.632204	0.931278	0.334316
O37	O	1.093655	0.341890	-0.557582
O38	O	1.426989	0.675223	-0.224249
O39	O	1.760322	1.008556	0.109084
O40	O	0.965494	0.341909	-0.429416
O41	O	1.298827	0.675242	-0.096083
O42	O	1.632161	1.008576	0.237250
O43	O	1.190804	0.264578	-0.557626
O44	O	1.524138	0.597911	-0.224293
O45	O	1.857471	0.931244	0.109040
O46	O	1.190632	0.444007	-0.332338
O47	O	1.523965	0.777340	0.000996
O48	O	1.857299	1.110673	0.334329
O49	O	1.093557	0.443972	-0.429409
O50	O	1.426890	0.777306	-0.096076
O51	O	1.760224	1.110639	0.237258
C52	C	0.936835	0.303258	-0.380878
C53	C	1.270169	0.636591	-0.047545
C54	C	1.603502	0.969925	0.285788
C55	C	0.848979	0.303264	-0.380880
C56	C	1.182312	0.636598	-0.047547
C57	C	1.515645	0.969931	0.285787
C58	C	0.477454	0.343513	-0.330325
C59	C	0.810787	0.676846	0.003009
C60	C	1.144121	1.010179	0.336342
C61	C	0.477553	0.263096	-0.431608
C62	C	0.810886	0.596430	-0.098275
C63	C	1.144219	0.929763	0.235059
C64	C	0.560098	0.263086	-0.431589
C65	C	0.893432	0.596419	-0.098255
C66	C	1.226765	0.929753	0.235078
C67	C	0.601326	0.303290	-0.380937
C68	C	0.934659	0.636624	-0.047604
C69	C	1.267993	0.969957	0.285729
C70	C	0.560007	0.343505	-0.330305
C71	C	0.893341	0.676838	0.003028
C72	C	1.226674	1.010172	0.336361
C73	C	0.601423	0.222877	-0.482225
C74	C	0.934756	0.556210	-0.148892
C75	C	1.268090	0.889543	0.184441
C76	C	0.683974	0.222865	-0.482209
C77	C	1.017307	0.556198	-0.148876
C78	C	1.350641	0.889532	0.184458
C79	C	0.725203	0.263067	-0.431553
C80	C	1.058536	0.596400	-0.098220
C81	C	1.391870	0.929733	0.235114
C82	C	0.683879	0.303282	-0.380918
C83	C	1.017213	0.636616	-0.047585
C84	C	1.350546	0.969949	0.285748
C85	C	0.725107	0.343487	-0.330267
C86	C	1.058440	0.676820	0.003066
C87	C	1.391773	1.010153	0.336400
C88	C	0.683785	0.383700	-0.279628
C89	C	1.017118	0.717033	0.053706
C90	C	1.350451	1.050367	0.387039
C91	C	0.601236	0.383707	-0.279650
C92	C	0.934570	0.717040	0.053684
C93	C	1.267903	1.050373	0.387017
C94	C	0.807751	0.263060	-0.431531
C95	C	1.141085	0.596393	-0.098198
C96	C	1.474418	0.929727	0.235135
C97	C	0.807660	0.343479	-0.330248
C98	C	1.140994	0.676812	0.003085
C99	C	1.474327	1.010146	0.336419
C100	C	1.142099	0.466830	-0.380883
C101	C	1.475432	0.800163	-0.047550
C102	C	1.808765	1.133497	0.285783
C103	C	1.142127	0.536798	-0.380895
C104	C	1.475460	0.870131	-0.047561
C105	C	1.808794	1.203465	0.285772
C106	C	1.192719	0.569662	-0.330403
C107	C	1.526052	0.902995	0.002930
C108	C	1.859386	1.236328	0.336263
C109	C	1.192756	0.635404	-0.330425
C110	C	1.526089	0.968738	0.002909
C111	C	1.859423	1.302071	0.336242
C112	C	1.142187	0.668281	-0.380929
C113	C	1.475521	1.001614	-0.047596
C114	C	1.808854	1.334947	0.285738
C115	C	1.091592	0.635409	-0.431430
C116	C	1.424925	0.968742	-0.098097
C117	C	1.758259	1.302076	0.235236
C118	C	1.091562	0.569668	-0.431413
C119	C	1.424895	0.903001	-0.098080
C120	C	1.758228	1.236334	0.235253
N121	N	1.073041	0.771543	-0.386947
N122	N	1.406374	1.104877	-0.053614
N123	N	1.739708	1.438210	0.279720
N124	N	1.073072	0.833995	-0.386959
N125	N	1.406405	1.167328	-0.053626
N126	N	1.739739	1.500661	0.279708
C127	C	1.142277	0.866355	-0.380985
C128	C	1.475610	1.199689	-0.047652
C129	C	1.808943	1.533022	0.285682
N130	N	1.211451	0.833905	-0.374984
N131	N	1.544784	1.167239	-0.041651
N132	N	1.878117	1.500572	0.291683
N133	N	1.211419	0.771448	-0.374968
N134	N	1.544752	1.104781	-0.041635
N135	N	1.878086	1.438115	0.291699
C136	C	1.142215	0.739566	-0.380954
C137	C	1.475548	1.072899	-0.047620
C138	C	1.808882	1.406233	0.285713
C139	C	1.192913	0.970505	-0.330514
C140	C	1.526247	1.303838	0.002819
C141	C	1.859580	1.637171	0.336153
C142	C	1.192952	1.036248	-0.330541
C143	C	1.526285	1.369582	0.002792
C144	C	1.859619	1.702915	0.336126
C145	C	1.091781	1.036252	-0.431543
C146	C	1.425114	1.369585	-0.098209
C147	C	1.758447	1.702918	0.235124
C148	C	1.091749	0.970509	-0.431520
C149	C	1.425082	1.303843	-0.098187
C150	C	1.758416	1.637176	0.235147
C151	C	1.142314	0.937640	-0.381001
C152	C	1.475648	1.270973	-0.047668
C153	C	1.808981	1.604306	0.285665
C154	C	1.348370	0.303299	-0.380959
C155	C	1.681703	0.636633	-0.047625
C156	C	2.015037	0.969966	0.285708
C157	C	1.436226	0.303308	-0.380976
C158	C	1.769560	0.636642	-0.047642
C159	C	2.102893	0.969975	0.285691
C160	C	1.142235	0.303226	-0.587086
C161	C	1.475568	0.636560	-0.253753
C162	C	1.808901	0.969893	0.079580
C163	C	1.142249	0.303204	-0.674943
C164	C	1.475582	0.636537	-0.341610
C165	C	1.808915	0.969871	-0.008276
C166	C	1.142328	1.139088	-0.380984
C167	C	1.475661	1.472421	-0.047651
C168	C	1.808994	1.805755	0.285683
C169	C	1.142384	1.069120	-0.381047
C170	C	1.475717	1.402453	-0.047714
C171	C	1.809050	1.735787	0.285620
C172	C	1.091762	0.343390	-1.046399
C173	C	1.425095	0.676724	-0.713065
C174	C	1.758429	1.010057	-0.379732
C175	C	1.192924	0.262885	-1.046439
C176	C	1.526258	0.596218	-0.713106
C177	C	1.859591	0.929552	-0.379773
C178	C	1.192903	0.262898	-0.963893
C179	C	1.526237	0.596232	-0.630560
C180	C	1.859570	0.929565	-0.297227
C181	C	1.142312	0.303159	-0.922596
C182	C	1.475645	0.636492	-0.589263
C183	C	1.808978	0.969826	-0.255930
C184	C	1.091741	0.343406	-0.963845
C185	C	1.425074	0.676740	-0.630512
C186	C	1.758408	1.010073	-0.297178
C187	C	1.243479	0.222656	-0.922638
C188	C	1.576812	0.555990	-0.589305
C189	C	1.910145	0.889323	-0.255972
C190	C	1.243460	0.222668	-0.840087
C191	C	1.576793	0.556002	-0.506754
C192	C	1.910127	0.889335	-0.173421
C193	C	1.192864	0.262926	-0.798789
C194	C	1.526197	0.596260	-0.465455
C195	C	1.859531	0.929593	-0.132122
C196	C	1.142291	0.303175	-0.840043
C197	C	1.475624	0.636508	-0.506709
C198	C	1.808957	0.969842	-0.173376
C199	C	1.091699	0.343436	-0.798746
C200	C	1.425032	0.676769	-0.465412
C201	C	1.758366	1.010102	-0.132079
C202	C	1.041121	0.383681	-0.839998
C203	C	1.374454	0.717015	-0.506665
C204	C	1.707788	1.050348	-0.173331
C205	C	1.041145	0.383664	-0.922546
C206	C	1.374478	0.716998	-0.589213
C207	C	1.707811	1.050331	-0.255880
C208	C	1.192840	0.262943	-0.716240
C209	C	1.526174	0.596277	-0.382907
C210	C	1.859507	0.929610	-0.049574
C211	C	1.091678	0.343451	-0.716192
C212	C	1.425011	0.676785	-0.382859
C213	C	1.758345	1.010118	-0.049525
C214	C	1.142214	0.303285	-0.175552
C215	C	1.475548	0.636618	0.157781
C216	C	1.808881	0.969952	0.491115
C217	C	1.142354	0.303130	-0.087696
C218	C	1.475687	0.636463	0.245638
C219	C	1.809020	0.969796	0.578971
H220	H	0.841222	0.376217	-0.288998
H221	H	1.174555	0.709550	0.044335
H222	H	1.507889	1.042883	0.377668
H223	H	1.284672	0.189882	-0.956268
H224	H	1.618006	0.523215	-0.622935
H225	H	1.951339	0.856549	-0.289602
Cl226	Cl	0.425723	0.212563	-0.495288
Cl227	Cl	0.759056	0.545897	-0.161955
Cl228	Cl	1.092390	0.879230	0.171378
H229	H	0.841392	0.230320	-0.472763
H230	H	1.174725	0.563654	-0.139429
H231	H	1.508059	0.896987	0.193904
H232	H	1.234118	0.230110	-1.080068
H233	H	1.567451	0.563443	-0.746735
H234	H	1.900785	0.896777	-0.413402
Cl235	Cl	0.425509	0.394061	-0.266664
Cl236	Cl	0.758842	0.727394	0.066670
Cl237	Cl	1.092176	1.060728	0.400003
H238	H	0.567850	0.190148	-0.523468
H239	H	0.901183	0.523482	-0.190135
H240	H	1.234516	0.856815	0.143199
H241	H	0.717611	0.190121	-0.523442
H242	H	1.050945	0.523454	-0.190109
H243	H	1.384278	0.856787	0.143225
H244	H	1.050580	0.376156	-1.079990
H245	H	1.383914	0.709489	-0.746657
H246	H	1.717247	1.042822	-0.413323
Cl247	Cl	1.027954	0.528351	-0.494893
Cl248	Cl	1.361288	0.861685	-0.161560
Cl249	Cl	1.694621	1.195018	0.171774
Cl250	Cl	1.307039	0.172073	-0.788235
Cl251	Cl	1.640373	0.505406	-0.454901
Cl252	Cl	1.973706	0.838739	-0.121568
H253	H	1.233894	0.542901	-0.289270
H254	H	1.567227	0.876235	0.044063
H255	H	1.900561	1.209568	0.377397
H256	H	1.234022	0.230178	-0.682656
H257	H	1.567355	0.563511	-0.349323
H258	H	1.900689	0.896844	-0.015989
Cl259	Cl	1.256361	0.676727	-0.266943
Cl260	Cl	1.589694	1.010061	0.066390
Cl261	Cl	1.923028	1.343394	0.399724
Cl262	Cl	1.028023	0.676738	-0.494926
Cl263	Cl	1.361357	1.010072	-0.161592
Cl264	Cl	1.694690	1.343405	0.171741
Cl265	Cl	0.549284	0.434257	-0.215997
Cl266	Cl	0.882618	0.767590	0.117336
Cl267	Cl	1.215951	1.100924	0.450669
Cl268	Cl	0.735623	0.434245	-0.215960
Cl269	Cl	1.068957	0.767578	0.117373
Cl270	Cl	1.402290	1.100911	0.450707
Cl271	Cl	1.256479	0.929180	-0.267006
Cl272	Cl	1.589812	1.262513	0.066327
Cl273	Cl	1.923146	1.595846	0.399660
H274	H	1.234155	1.063005	-0.289426
H275	H	1.567488	1.396338	0.043907
H276	H	1.900822	1.729671	0.377240
Cl277	Cl	1.028213	1.077576	-0.495041
Cl278	Cl	1.361547	1.410909	-0.161707
Cl279	Cl	1.694880	1.744242	0.171626
Cl280	Cl	1.028140	0.929192	-0.494995
Cl281	Cl	1.361474	1.262526	-0.161662
Cl282	Cl	1.694807	1.595859	0.171672
Cl283	Cl	0.977527	0.434296	-0.788072
Cl284	Cl	1.310860	0.767629	-0.454739
Cl285	Cl	1.644194	1.100963	-0.121405
H286	H	1.050472	0.376231	-0.682574
H287	H	1.383806	0.709565	-0.349240
H288	H	1.717139	1.042898	-0.015907
Cl289	Cl	0.977572	0.434257	-0.974411
Cl290	Cl	1.310905	0.767591	-0.641078
Cl291	Cl	1.644238	1.100924	-0.307744
