data_functionalizedCrystal
_audit_creation_method	'MofGen! by Chris Wilmer'
_symmetry_space_group_name_H-M	'P1'
_symmetry_Int_Tables_number	1
_symmetry_cell_setting	triclinic
loop_
_symmetry_equiv_pos_as_xyz
  x,y,z
_cell_length_a	21.295420
_cell_length_b	21.295417
_cell_length_c	19.120904
_cell_angle_alpha	92.408338
_cell_angle_beta	92.422904
_cell_angle_gamma	90.026289
loop_
_atom_site_label
_atom_site_type_symbol
_atom_site_fract_x
_atom_site_fract_y
_atom_site_fract_z
Zn1	Zn	0.947123	-0.265876	-0.397094
Zn2	Zn	0.951531	-0.366654	-0.279638
Zn3	Zn	0.846351	-0.261396	-0.279660
Zn4	Zn	0.841817	-0.371101	-0.397046
O5	O	0.896705	-0.316257	-0.338360
O6	O	1.035796	-0.279258	-0.381524
O7	O	0.941320	-0.348955	-0.181359
O8	O	0.859771	-0.173902	-0.295267
O9	O	1.039035	-0.353299	-0.295230
O10	O	0.933808	-0.177193	-0.381545
O11	O	0.864045	-0.271622	-0.181375
O12	O	0.757660	-0.275935	-0.295221
O13	O	0.852044	-0.360879	-0.495335
O14	O	0.754330	-0.356535	-0.381464
O15	O	0.929411	-0.283570	-0.495370
O16	O	0.936924	-0.455332	-0.295183
O17	O	0.856318	-0.458600	-0.381442
C18	C	0.733154	-0.316232	-0.338340
C19	C	0.663186	-0.316237	-0.338348
C20	C	0.162037	-0.277801	-0.383377
C21	C	0.227780	-0.277797	-0.383376
C22	C	0.262345	-0.316276	-0.338376
C23	C	0.231163	-0.354776	-0.293385
C24	C	0.165421	-0.354784	-0.293391
N25	N	0.367894	-0.318670	-0.276878
N26	N	0.430346	-0.318658	-0.276874
C27	C	0.460421	-0.316255	-0.338355
N28	N	0.425685	-0.313851	-0.399842
N29	N	0.363228	-0.313859	-0.399845
C30	C	0.333631	-0.316272	-0.338364
C31	C	0.562881	-0.277756	-0.383347
C32	C	0.628625	-0.277756	-0.383348
C33	C	0.632007	-0.354731	-0.293350
C34	C	0.566264	-0.354735	-0.293355
C35	C	0.531705	-0.316244	-0.338353
C36	C	0.896624	-0.479807	-0.338321
C37	C	0.896646	-0.549775	-0.338328
C38	C	0.938652	-0.580921	-0.293458
C39	C	0.938681	-0.646664	-0.293474
C40	C	0.896693	-0.681259	-0.338352
C41	C	0.854684	-0.650105	-0.383230
C42	C	0.854661	-0.584363	-0.383217
N43	N	0.841421	-0.784725	-0.343699
N44	N	0.841445	-0.847177	-0.343707
C45	C	0.896762	-0.879335	-0.338392
N46	N	0.952056	-0.846682	-0.333056
N47	N	0.952031	-0.784224	-0.333045
C48	C	0.896714	-0.752545	-0.338370
C49	C	0.938802	-0.981767	-0.293538
C50	C	0.938832	-1.047512	-0.293558
C51	C	0.854830	-1.050951	-0.383310
C52	C	0.854806	-0.985207	-0.383293
C53	C	0.896791	-0.950620	-0.338403
C54	C	1.060895	-0.316282	-0.338380
C55	C	1.130862	-0.316293	-0.338389
C56	C	0.889730	-0.323220	-0.521548
C57	C	0.886758	-0.326188	-0.599612
C58	C	0.896803	-0.152068	-0.338414
C59	C	0.896845	-0.082101	-0.338437
C60	C	0.925641	-0.287333	-0.636306
C61	C	0.922840	-0.290119	-0.709656
C62	C	0.881160	-0.331763	-0.746310
C63	C	0.842273	-0.370619	-0.709610
C64	C	0.845071	-0.367830	-0.636262
C65	C	0.870694	-0.342197	-0.967773
C66	C	0.867901	-0.344984	-1.041126
C67	C	0.948468	-0.264483	-1.041166
C68	C	0.951264	-0.261700	-0.967817
C69	C	0.912375	-0.300554	-0.931124
C70	C	0.878298	-0.334613	-0.821285
C71	C	0.915235	-0.297700	-0.856150
C72	C	0.903689	-0.309275	-0.155884
C73	C	0.906784	-0.306130	-0.077820
H74	H	0.534742	-0.246415	-0.419986
H75	H	0.954504	-0.258481	-0.739529
H76	H	0.808334	-0.404525	-0.739460
Cl77	Cl	0.825904	-0.386967	-0.867370
Cl78	Cl	0.991442	-0.537443	-0.237036
H79	H	0.813402	-0.399463	-0.606387
H80	H	0.253168	-0.246449	-0.420010
H81	H	0.973042	-1.072870	-0.257022
Cl82	Cl	0.274615	-0.403153	-0.236816
Cl83	Cl	0.821805	-0.391042	-0.921654
Cl84	Cl	0.802049	-1.094434	-0.439733
H85	H	0.820599	-0.959847	-0.419827
H86	H	0.654006	-0.246414	-0.419988
H87	H	0.820454	-0.559004	-0.419756
H88	H	0.660149	-0.386068	-0.256715
Cl89	Cl	0.978045	-0.234981	-0.590234
H90	H	0.972889	-0.672029	-0.256937
H91	H	0.540881	-0.386076	-0.256718
H92	H	0.972992	-0.953604	-0.256988
Cl93	Cl	0.801903	-0.693594	-0.439650
Cl94	Cl	0.126228	-0.403174	-0.236827
Cl95	Cl	1.003665	-0.209345	-0.921743
H96	H	0.949168	-0.263791	-0.826303
Cl97	Cl	0.997351	-0.215639	-1.087298
H98	H	0.133903	-0.246462	-0.420020
Cl99	Cl	0.815495	-0.397338	-1.087205
