data_functionalizedCrystal
_audit_creation_method	'MofGen! by Chris Wilmer'
_symmetry_space_group_name_H-M	'P1'
_symmetry_Int_Tables_number	1
_symmetry_cell_setting	triclinic
loop_
_symmetry_equiv_pos_as_xyz
  x,y,z
_cell_length_a	17.038272
_cell_length_b	10.489741
_cell_length_c	9.565339
_cell_angle_alpha	90.000516
_cell_angle_beta	90.001814
_cell_angle_gamma	87.825365
loop_
_atom_site_label
_atom_site_type_symbol
_atom_site_fract_x
_atom_site_fract_y
_atom_site_fract_z
O1	O	1.038971	0.277138	-0.116084
O2	O	0.811315	0.272737	-0.116125
O3	O	0.930323	0.089824	-0.116095
O4	O	0.919963	0.460051	-0.116114
O5	O	0.930314	0.089835	0.116425
O6	O	0.811306	0.272748	0.116395
O7	O	1.038962	0.277149	0.116436
Zn8	Zn	0.925132	0.274950	0.153333
Zn9	Zn	0.925145	0.274936	-0.153022
O10	O	0.919954	0.460062	0.116406
C11	C	0.929536	0.042225	0.000164
C12	C	0.927195	-0.099624	0.000161
C13	C	0.782159	0.268740	0.000130
C14	C	0.695297	0.256798	0.000114
C15	C	0.851474	-0.174846	0.000137
C16	C	0.887239	-0.263618	0.114788
C17	C	0.887266	-0.263602	-0.114459
C18	C	0.962992	-0.186527	0.114906
C19	C	0.963008	-0.186502	-0.114443
C20	C	0.998829	-0.275241	0.000236
C21	C	0.645818	0.366437	0.000110
C22	C	0.564202	0.355208	0.000130
C23	C	0.532067	0.234341	0.000144
C24	C	0.581553	0.124695	0.000153
C25	C	0.663167	0.135924	0.000143
C26	C	0.286080	0.194670	0.000183
C27	C	0.204459	0.183449	0.000189
C28	C	0.187114	0.413964	0.000169
C29	C	0.268730	0.425183	0.000150
C30	C	0.318209	0.315536	0.000166
C31	C	0.448643	0.222861	0.000160
C32	C	0.401631	0.327017	0.000161
C33	C	1.068118	0.281146	0.000178
C34	C	1.154980	0.293088	0.000185
C35	C	0.920741	0.507661	0.000144
C36	C	0.923082	0.649510	0.000138
N37	N	0.925129	0.274960	0.362413
N38	N	0.925154	0.274916	-0.362101
C39	C	0.870075	0.359520	0.453602
C40	C	0.940910	0.391955	0.546792
C41	C	0.854325	0.242537	0.546777
C42	C	0.996000	0.307457	0.453551
C43	C	0.909369	0.157984	0.453528
C44	C	0.980254	0.190377	0.546677
H45	H	0.789216	-0.131018	0.000241
Br46	Br	0.887087	-0.006821	0.385191
Br47	Br	0.497054	0.504011	0.000119
Br48	Br	1.095844	0.353322	0.385596
Br49	Br	1.102688	-0.347908	0.000351
H50	H	1.026874	0.118850	0.587287
Br51	Br	0.353219	0.045863	0.000208
Br52	Br	0.833835	-0.320291	0.276328
Br53	Br	1.016345	-0.130150	0.276640
Br54	Br	0.160849	0.019404	0.000238
H55	H	0.794437	0.215134	0.587732
H56	H	0.703453	0.046645	0.000145
Br57	Br	1.016374	-0.129772	-0.275989
H58	H	0.855221	-0.297568	-0.211397
H59	H	0.671975	0.464860	0.000097
Br60	Br	0.537943	-0.039342	0.000186
Br61	Br	0.312336	0.589223	0.000115
Br62	Br	0.792547	0.478822	0.385479
H63	H	0.427799	0.425427	0.000157
Br64	Br	0.963160	0.556802	0.615070
H65	H	0.146820	0.503232	0.000159
H66	H	0.422470	0.124451	0.000211
