data_functionalizedCrystal
_audit_creation_method	'MofGen! by Chris Wilmer'
_symmetry_space_group_name_H-M	'P1'
_symmetry_Int_Tables_number	1
_symmetry_cell_setting	triclinic
loop_
_symmetry_equiv_pos_as_xyz
  x,y,z
_cell_length_a	19.188931
_cell_length_b	19.188929
_cell_length_c	17.666332
_cell_angle_alpha	89.971817
_cell_angle_beta	89.991846
_cell_angle_gamma	83.144782
loop_
_atom_site_label
_atom_site_type_symbol
_atom_site_fract_x
_atom_site_fract_y
_atom_site_fract_z
O1	O	0.926150	0.087169	-0.062957
O2	O	0.722839	0.098903	-0.062969
O3	O	0.830361	-0.008620	-0.062916
O4	O	0.818627	0.194691	-0.063010
O5	O	0.830342	-0.008625	0.062981
O6	O	0.722819	0.098898	0.062927
O7	O	0.926130	0.087163	0.062940
Cu8	Cu	0.824473	0.093030	0.074429
Cu9	Cu	0.824496	0.093036	-0.074459
O10	O	0.818608	0.194686	0.062886
C11	C	0.696818	0.098520	-0.000022
C12	C	0.619313	0.097380	-0.000024
C13	C	0.952151	0.087546	-0.000010
C14	C	1.029656	0.088687	-0.000012
C15	C	0.829972	-0.034634	0.000043
C16	C	0.828831	-0.112138	0.000074
C17	C	0.818997	0.220700	-0.000074
C18	C	0.820138	0.298204	-0.000110
C19	C	1.074580	0.025596	0.000010
C20	C	1.147403	0.026667	0.000014
C21	C	1.175300	0.090834	-0.000019
C22	C	1.130366	0.153933	-0.000038
C23	C	1.057544	0.152859	-0.000034
N24	N	1.283301	0.139883	-0.042900
N25	N	1.352480	0.140898	-0.042905
C26	C	1.394709	0.094072	-0.000028
N27	N	1.365147	0.046181	0.042844
N28	N	1.295962	0.045163	0.042845
C29	C	1.254263	0.092005	-0.000023
C30	C	1.518597	0.032139	-0.000000
C31	C	1.591422	0.033213	0.000009
C32	C	1.574383	0.160480	-0.000051
C33	C	1.501560	0.159404	-0.000053
C34	C	1.473671	0.095231	-0.000031
N35	N	0.824462	0.093025	0.179148
C36	C	0.757047	0.343128	-0.000099
C37	C	0.758119	0.415952	-0.000081
C38	C	0.822285	0.443849	-0.000060
C39	C	0.885384	0.398915	-0.000076
C40	C	0.884311	0.326093	-0.000101
N41	N	0.871325	0.551815	0.042836
N42	N	0.872341	0.620994	0.042861
C43	C	0.825523	0.663257	0.000012
N44	N	0.777641	0.633730	-0.042852
N45	N	0.776624	0.564545	-0.042874
C46	C	0.823456	0.522811	-0.000034
C47	C	0.763590	0.787146	0.000041
C48	C	0.764664	0.859970	0.000054
C49	C	0.891931	0.842932	0.000067
C50	C	0.890855	0.770108	0.000047
C51	C	0.826683	0.742220	0.000038
C52	C	0.872088	0.045437	0.218782
C53	C	0.872092	0.045434	0.298029
C54	C	0.824476	0.093031	0.337640
C55	C	0.776841	0.140622	0.297998
C56	C	0.776834	0.140619	0.218751
N57	N	0.815399	0.154838	0.462030
N58	N	0.815410	0.154839	0.537311
C59	C	0.824493	0.093041	0.576404
N60	N	0.833579	0.031240	0.537374
N61	N	0.833571	0.031241	0.462086
C62	C	0.824478	0.093039	0.423570
C63	C	0.872126	0.045446	0.701967
C64	C	0.872124	0.045441	0.781216
C65	C	0.776877	0.140636	0.781183
C66	C	0.776875	0.140634	0.701935
C67	C	0.824503	0.093039	0.662332
N68	N	0.824507	0.093038	0.820822
H69	H	1.051878	-0.026658	0.000031
O70	O	0.918410	-0.000858	0.663608
C71	C	0.960455	-0.042856	0.715588
H72	H	0.931837	-0.043573	0.772084
H73	H	0.971277	-0.098642	0.692719
H74	H	1.012250	-0.020314	0.723992
O75	O	0.730544	0.186919	0.180365
C76	C	0.688501	0.228916	0.232316
H77	H	0.717124	0.229635	0.288799
H78	H	0.677675	0.284702	0.209390
H79	H	0.636708	0.206372	0.240766
O80	O	0.918277	-0.000988	0.180461
C81	C	0.907033	-0.070003	0.200052
H82	H	0.851099	-0.070077	0.221779
H83	H	0.915195	-0.105197	0.148059
H84	H	0.945712	-0.090543	0.246158
O85	O	1.157494	0.216247	-0.000208
C86	C	1.199124	0.220671	-0.065408
H87	H	1.182015	0.184240	-0.110962
H88	H	1.192417	0.276962	-0.087321
H89	H	1.256603	0.204390	-0.050665
H90	H	0.738070	0.179375	0.330253
H91	H	0.944177	0.865644	0.000029
O92	O	1.601444	0.222827	0.000047
C93	C	1.578451	0.261285	0.065222
H94	H	1.563407	0.223760	0.110815
H95	H	1.622479	0.290849	0.087091
H96	H	1.530874	0.300342	0.050461
H97	H	0.910876	0.006681	0.330305
O98	O	1.190953	-0.034686	-0.000005
C99	C	1.150723	-0.091555	0.000034
H100	H	1.096314	-0.073664	-0.023798
H101	H	1.177723	-0.135739	-0.036509
H102	H	1.145599	-0.111249	0.060440
H103	H	0.910905	0.006686	0.813486
O104	O	0.730592	0.186775	0.819734
C105	C	0.687627	0.149489	0.865589
H106	H	0.715606	0.094786	0.877487
H107	H	0.676494	0.178661	0.921301
H108	H	0.636042	0.144871	0.835062
H109	H	0.942231	0.733530	0.000042
O110	O	1.457817	0.220627	-0.000054
C111	C	1.387561	0.205921	-0.000066
H112	H	1.384933	0.151089	0.023799
H113	H	1.354439	0.246152	0.036462
H114	H	1.366501	0.208630	-0.060468
H115	H	0.937629	0.421633	-0.000073
H116	H	0.738096	0.179387	0.669664
H117	H	1.020966	0.204237	-0.000052
H118	H	1.627999	-0.018166	0.000032
O119	O	1.491582	-0.030238	-0.000072
C120	C	1.514554	-0.068678	-0.065265
H121	H	1.565010	-0.049806	-0.087011
H122	H	1.524833	-0.126853	-0.050572
H123	H	1.472395	-0.060458	-0.110928
O124	O	0.694651	0.316155	-0.000147
C125	C	0.639195	0.371428	-0.000114
H126	H	0.658619	0.420858	-0.023929
H127	H	0.594385	0.356374	-0.036674
H128	H	0.619736	0.381748	0.060287
H129	H	0.706741	0.452536	-0.000070
H130	H	0.711337	0.764438	0.000038
O131	O	0.945664	0.282549	-0.000074
C132	C	1.002532	0.322782	-0.000076
H133	H	0.984641	0.377174	0.023772
H134	H	1.046719	0.295759	0.036473
H135	H	1.022220	0.327948	-0.060471
O136	O	0.703310	0.903513	0.000098
C137	C	0.646444	0.863278	0.000067
H138	H	0.664331	0.808854	0.023887
H139	H	0.602248	0.890251	0.036625
H140	H	0.626768	0.858193	-0.060334
