data_functionalizedCrystal
_audit_creation_method	'MofGen! by Chris Wilmer'
_symmetry_space_group_name_H-M	'P1'
_symmetry_Int_Tables_number	1
_symmetry_cell_setting	triclinic
loop_
_symmetry_equiv_pos_as_xyz
  x,y,z
_cell_length_a	29.839125
_cell_length_b	29.839134
_cell_length_c	17.077402
_cell_angle_alpha	90.015628
_cell_angle_beta	89.984422
_cell_angle_gamma	89.975687
loop_
_atom_site_label
_atom_site_type_symbol
_atom_site_fract_x
_atom_site_fract_y
_atom_site_fract_z
Zn1	Zn	-0.254160	0.686778	-0.312770
Zn2	Zn	0.245840	1.186778	0.187230
Zn3	Zn	-0.179032	0.686734	-0.444012
Zn4	Zn	0.320968	1.186734	0.055988
Zn5	Zn	-0.179026	0.611660	-0.312748
Zn6	Zn	0.320974	1.111660	0.187252
Zn7	Zn	-0.254118	0.611632	-0.443981
Zn8	Zn	0.245882	1.111632	0.056019
O9	O	-0.216584	0.649201	-0.378378
O10	O	0.283416	1.149201	0.121622
O11	O	-0.244214	0.749639	-0.330202
O12	O	0.255786	1.249639	0.169798
O13	O	-0.116164	0.676769	-0.426604
O14	O	0.383836	1.176769	0.073396
O15	O	-0.189008	0.621655	-0.202904
O16	O	0.310992	1.121655	0.297096
O17	O	-0.189018	0.749607	-0.426625
O18	O	0.310982	1.249607	0.073375
O19	O	-0.244208	0.676843	-0.202920
O20	O	0.255792	1.176843	0.297080
O21	O	-0.116160	0.621612	-0.330164
O22	O	0.383840	1.121612	0.169836
O23	O	-0.188967	0.548789	-0.330134
O24	O	0.311033	1.048789	0.169866
O25	O	-0.316990	0.621607	-0.426572
O26	O	0.183010	1.121607	0.073428
O27	O	-0.244137	0.548769	-0.426551
O28	O	0.255863	1.048769	0.073449
O29	O	-0.317021	0.676816	-0.330172
O30	O	0.182979	1.176816	0.169828
O31	O	-0.188978	0.676742	-0.553855
O32	O	0.311022	1.176742	-0.053855
O33	O	-0.244143	0.621565	-0.553832
O34	O	0.255857	1.121565	-0.053832
C35	C	-0.216547	0.532478	-0.378337
C36	C	0.283453	1.032478	0.121663
C37	C	-0.216542	0.482544	-0.378339
C38	C	0.283458	0.982544	0.121661
C39	C	-0.187916	0.125955	-0.328100
C40	C	0.312084	0.625955	0.171900
C41	C	-0.187889	0.313628	-0.328078
C42	C	0.312111	0.813628	0.171922
O43	O	-0.163508	0.337891	-0.285296
O44	O	0.336492	0.837891	0.214704
N45	N	-0.216564	0.337099	-0.378351
N46	N	0.283436	0.837099	0.121649
C47	C	-0.245251	0.313649	-0.428630
C48	C	0.254749	0.813649	0.071370
O49	O	-0.269644	0.337918	-0.471385
O50	O	0.230356	0.837918	0.028615
C51	C	-0.245280	0.125976	-0.428648
C52	C	0.254720	0.625976	0.071352
C53	C	-0.216599	0.102508	-0.378377
C54	C	0.283401	0.602508	0.121623
C55	C	-0.159238	0.102487	-0.277832
C56	C	0.340762	0.602487	0.222168
C57	C	-0.159243	0.055571	-0.277841
C58	C	0.340757	0.555571	0.222159
C59	C	-0.187927	0.032124	-0.328118
C60	C	0.312073	0.532124	0.171882
C61	C	-0.216605	0.055593	-0.378386
C62	C	0.283395	0.555593	0.121614
C63	C	-0.273968	0.102527	-0.478923
C64	C	0.226032	0.602527	0.021077
C65	C	-0.273974	0.055606	-0.478921
C66	C	0.226026	0.555606	0.021079
C67	C	-0.245293	0.032137	-0.428650
C68	C	0.254707	0.532137	0.071350
C69	C	-0.245293	-0.014770	-0.428672
C70	C	0.254707	0.485230	0.071328
N71	N	-0.216618	-0.038241	-0.378398
N72	N	0.283382	0.461759	0.121602
C73	C	-0.187934	-0.014794	-0.328121
C74	C	0.312066	0.485206	0.171879
C75	C	-0.245233	0.412179	-0.428619
C76	C	0.254767	0.912179	0.071381
C77	C	-0.245225	0.459097	-0.428616
C78	C	0.254775	0.959097	0.071384
C79	C	-0.187863	0.459073	-0.328061
C80	C	0.312137	0.959073	0.171939
C81	C	-0.187869	0.412155	-0.328069
C82	C	0.312131	0.912155	0.171931
C83	C	-0.216557	0.388708	-0.378345
C84	C	0.283443	0.888708	0.121655
C85	C	-0.187948	-0.113320	-0.328144
C86	C	0.312052	0.386680	0.171856
C87	C	-0.187954	-0.160239	-0.328160
C88	C	0.312046	0.339761	0.171840
C89	C	-0.245317	-0.160211	-0.428711
C90	C	0.254683	0.339789	0.071289
C91	C	-0.245309	-0.113296	-0.428699
C92	C	0.254691	0.386704	0.071301
C93	C	-0.216623	-0.089851	-0.378409
C94	C	0.283377	0.410149	0.121591
O95	O	-0.269665	-0.039062	-0.471425
O96	O	0.230335	0.460938	0.028575
O97	O	-0.163552	-0.039071	-0.285360
O98	O	0.336448	0.460929	0.214640
C99	C	-0.187911	0.172871	-0.328091
C100	C	0.312089	0.672871	0.171909
C101	C	-0.216588	0.196339	-0.378359
C102	C	0.283412	0.696339	0.121641
C103	C	-0.245272	0.172892	-0.428636
C104	C	0.254728	0.672892	0.071364
C105	C	-0.216581	0.243257	-0.378355
C106	C	0.283419	0.743257	0.121645
C107	C	-0.187897	0.266704	-0.328078
C108	C	0.312103	0.766704	0.171922
C109	C	-0.159222	0.243233	-0.277805
C110	C	0.340778	0.743233	0.222195
C111	C	-0.159227	0.196318	-0.277814
C112	C	0.340773	0.696318	0.222186
C113	C	-0.273947	0.196363	-0.478909
C114	C	0.226053	0.696363	0.021091
C115	C	-0.273939	0.243278	-0.478897
C116	C	0.226061	0.743278	0.021103
C117	C	-0.245256	0.266725	-0.428620
C118	C	0.254744	0.766725	0.071380
C119	C	-0.333762	0.649213	-0.378371
C120	C	0.166238	1.149213	0.121629
C121	C	-0.383697	0.649218	-0.378368
C122	C	0.116303	1.149218	0.121632
C123	C	-0.693359	0.677996	-0.328041
C124	C	-0.193359	1.177996	0.171959
C125	C	-0.881033	0.678018	-0.327974
C126	C	-0.381033	1.178018	0.172026
O127	O	-0.905314	0.702452	-0.285258
O128	O	-0.405314	1.202452	0.214742
N129	N	-0.904482	0.649278	-0.378158
N130	N	-0.404482	1.149278	0.121842
C131	C	-0.881011	0.620528	-0.428358
C132	C	-0.381011	1.120528	0.071642
O133	O	-0.905262	0.596080	-0.471035
O134	O	-0.405262	1.096080	0.028965
C135	C	-0.693338	0.620504	-0.428420
C136	C	-0.193338	1.120504	0.071580
C137	C	-0.669891	0.649249	-0.378239
C138	C	-0.169891	1.149249	0.121761
C139	C	-0.669912	0.706738	-0.277863
C140	C	-0.169912	1.206738	0.222137
C141	C	-0.622997	0.706734	-0.277883
C142	C	-0.122997	1.206734	0.222117
C143	C	-0.599528	0.677988	-0.328081
C144	C	-0.099528	1.177988	0.171919
C145	C	-0.622976	0.649245	-0.378259
C146	C	-0.122976	1.149245	0.121741
C147	C	-0.669868	0.591752	-0.478616
C148	C	-0.169868	1.091752	0.021384
C149	C	-0.622947	0.591748	-0.478626
C150	C	-0.122947	1.091748	0.021374
C151	C	-0.599499	0.620493	-0.428445
C152	C	-0.099499	1.120493	0.071555
C153	C	-0.552592	0.620494	-0.428478
C154	C	-0.052592	1.120494	0.071522
N155	N	-0.529142	0.649234	-0.378294
N156	N	-0.029142	1.149234	0.121706
C157	C	-0.552611	0.677981	-0.328096
C158	C	-0.052611	1.177981	0.171904
C159	C	-0.979541	0.620543	-0.428323
C160	C	-0.479541	1.120543	0.071677
C161	C	-1.026459	0.620550	-0.428308
C162	C	-0.526459	1.120550	0.071692
C163	C	-1.026478	0.678040	-0.327923
C164	C	-0.526478	1.178040	0.172077
C165	C	-0.979559	0.678035	-0.327942
C166	C	-0.479559	1.178035	0.172058
C167	C	-0.956092	0.649284	-0.378139
C168	C	-0.456092	1.149284	0.121861
C169	C	-0.454085	0.677970	-0.328143
C170	C	0.045915	1.177970	0.171857
C171	C	-0.407165	0.677965	-0.328170
C172	C	0.092835	1.177965	0.171830
C173	C	-0.407150	0.620474	-0.428552
C174	C	0.092850	1.120474	0.071448
C175	C	-0.454066	0.620481	-0.428528
C176	C	0.045934	1.120481	0.071472
C177	C	-0.477532	0.649231	-0.378317
C178	C	0.022468	1.149231	0.121683
O179	O	-0.528282	0.596069	-0.471165
O180	O	-0.028282	1.096069	0.028835
O181	O	-0.528351	0.702418	-0.285413
O182	O	-0.028351	1.202418	0.214587
C183	C	-0.740275	0.678000	-0.328021
C184	C	-0.240275	1.178000	0.171979
C185	C	-0.763722	0.649257	-0.378199
C186	C	-0.263722	1.149257	0.121801
C187	C	-0.740254	0.620511	-0.428397
C188	C	-0.240254	1.120511	0.071603
C189	C	-0.810640	0.649264	-0.378184
C190	C	-0.310640	1.149264	0.121816
C191	C	-0.834108	0.678011	-0.327986
C192	C	-0.334108	1.178011	0.172014
C193	C	-0.810659	0.706751	-0.277802
C194	C	-0.310659	1.206751	0.222198
C195	C	-0.763743	0.706747	-0.277822
C196	C	-0.263743	1.206747	0.222178
C197	C	-0.763703	0.591770	-0.478581
C198	C	-0.263703	1.091770	0.021419
C199	C	-0.810619	0.591777	-0.478557
C200	C	-0.310619	1.091777	0.021443
C201	C	-0.834087	0.620524	-0.428359
C202	C	-0.334087	1.120524	0.071641
C203	C	-0.099861	0.649215	-0.378328
C204	C	0.400139	1.149215	0.121672
C205	C	-0.049927	0.649297	-0.378110
C206	C	0.450073	1.149297	0.121890
C207	C	-0.216566	0.649158	-0.582326
C208	C	0.283434	1.149158	-0.082326
C209	C	-0.216573	0.649180	-0.669576
C210	C	0.283427	1.149180	-0.169576
C211	C	-0.216622	0.766379	-0.378419
C212	C	0.283378	1.266379	0.121581
C213	C	-0.216638	0.816314	-0.378437
C214	C	0.283362	1.316314	0.121563
C215	C	-0.187880	0.677940	-0.710552
C216	C	0.312120	1.177940	-0.210552
C217	C	-0.187891	0.677962	-0.792532
C218	C	0.312109	1.177962	-0.292532
C219	C	-0.216594	0.649222	-0.833535
C220	C	0.283406	1.149222	-0.333535
C221	C	-0.245291	0.620460	-0.792553
C222	C	0.254709	1.120460	-0.292553
C223	C	-0.245282	0.620441	-0.710574
C224	C	0.254718	1.120441	-0.210574
C225	C	-0.245308	0.620502	-0.963423
C226	C	0.254692	1.120502	-0.463423
C227	C	-0.245317	0.620521	-1.045408
C228	C	0.254683	1.120521	-0.545408
C229	C	-0.187918	0.678023	-1.045381
C230	C	0.312082	1.178023	-0.545381
C231	C	-0.187908	0.678004	-0.963402
C232	C	0.312092	1.178004	-0.463402
C233	C	-0.216605	0.649242	-0.922426
C234	C	0.283395	1.149242	-0.422426
C235	C	-0.216612	0.649257	-0.173634
C236	C	0.283388	1.149257	0.326366
C237	C	-0.216624	0.649281	-0.086384
C238	C	0.283376	1.149281	0.413616
H239	H	-0.164598	-0.179345	-0.287222
H240	H	0.335402	0.320655	0.212778
F241	F	-0.275745	0.484069	-0.482132
F242	F	0.224255	0.984069	0.017868
F243	F	-0.275842	0.589875	-0.836194
F244	F	0.224158	1.089875	-0.336194
F245	F	-0.275838	-0.185174	-0.482226
F246	F	0.224162	0.314826	0.017774
F247	F	-0.598048	0.737327	-0.224469
F248	F	-0.098048	1.237327	0.275531
H249	H	-0.135873	0.177214	-0.236877
H250	H	0.364127	0.677214	0.263123
H251	H	-0.164534	0.701404	-0.930018
H252	H	0.335466	1.201404	-0.430018
H253	H	-0.135881	0.121572	-0.236886
H254	H	0.364119	0.621572	0.263114
H255	H	-0.744600	0.568361	-0.519460
H256	H	-0.244600	1.068361	-0.019460
H257	H	-1.045594	0.701447	-0.287050
H258	H	-0.545594	1.201447	0.212950
F259	F	-0.275822	0.589832	-0.666965
F260	F	0.224178	1.089832	-0.166965
F261	F	-0.128693	0.268195	-0.224298
F262	F	0.371307	0.768195	0.275702
F263	F	-1.051408	0.589962	-0.481729
F264	F	-0.551408	1.089962	0.018271
H265	H	-0.268698	0.597126	-1.078790
H266	H	0.231302	1.097126	-0.578790
H267	H	-0.297306	0.177277	-0.519851
H268	H	0.202694	0.677277	-0.019851
F269	F	-0.157416	-0.088374	-0.274621
F270	F	0.342584	0.411626	0.225379
H271	H	-0.960438	0.597131	-0.469205
H272	H	-0.460438	1.097131	0.030795
H273	H	-0.829775	0.730159	-0.236931
H274	H	-0.329775	1.230159	0.263069
H275	H	-0.135889	0.036467	-0.236904
H276	H	0.364111	0.536467	0.263096
H277	H	-0.164505	0.701342	-0.677172
H278	H	0.335495	1.201342	-0.177172
F279	F	-0.275851	0.589891	-0.919815
F280	F	0.224149	1.089891	-0.419815
F281	F	-0.157353	0.708574	-0.836138
F282	F	0.342647	1.208574	-0.336138
H283	H	-0.164516	0.393050	-0.287131
H284	H	0.335484	0.893050	0.212869
H285	H	-0.164554	0.701444	-1.078748
H286	H	0.335446	1.201444	-0.578748
F287	F	-0.835568	0.561183	-0.531976
F288	F	-0.335568	1.061183	-0.031976
H289	H	-0.297294	0.262382	-0.519841
H290	H	0.202706	0.762382	-0.019841
F291	F	-0.157336	0.484035	-0.274553
F292	F	0.342664	0.984035	0.225447
H293	H	-0.473185	0.701380	-0.287253
H294	H	0.026815	1.201380	0.212747
F295	F	-0.694882	0.737341	-0.224437
F296	F	-0.194882	1.237341	0.275563
F297	F	-0.275767	0.387232	-0.482135
F298	F	0.224233	0.887232	0.017865
H299	H	-0.268660	-0.094187	-0.469640
H300	H	0.231340	0.405813	0.030360
H301	H	-0.388076	0.701375	-0.287305
H302	H	0.111924	1.201375	0.212695
H303	H	-0.744657	0.730154	-0.236959
H304	H	-0.244657	1.230154	0.263041
F305	F	-0.304495	0.127494	-0.532429
F306	F	0.195505	0.627494	-0.032429
F307	F	-0.382166	0.589881	-0.481973
F308	F	0.117834	1.089881	0.018027
F309	F	-0.954609	0.708629	-0.274532
F310	F	-0.454609	1.208629	0.225468
F311	F	-0.694812	0.561158	-0.532030
F312	F	-0.194812	1.061158	-0.032030
F313	F	-0.479021	0.589890	-0.481941
F314	F	0.020979	1.089890	0.018059
H315	H	-0.297337	0.036518	-0.519860
H316	H	0.202663	0.536518	-0.019860
F317	F	-0.597974	0.561145	-0.532053
F318	F	-0.097974	1.061145	-0.032053
