data_functionalizedCrystal
_audit_creation_method	'MofGen! by Chris Wilmer'
_symmetry_space_group_name_H-M	'P1'
_symmetry_Int_Tables_number	1
_symmetry_cell_setting	triclinic
loop_
_symmetry_equiv_pos_as_xyz
  x,y,z
_cell_length_a	9.065215
_cell_length_b	22.010155
_cell_length_c	9.065215
_cell_angle_alpha	89.994713
_cell_angle_beta	85.014697
_cell_angle_gamma	90.008042
loop_
_atom_site_label
_atom_site_type_symbol
_atom_site_fract_x
_atom_site_fract_y
_atom_site_fract_z
O1	O	1.960412	0.050517	0.216316
O2	O	1.531127	0.050519	0.234067
O3	O	1.754645	0.050515	0.010549
O4	O	1.736894	0.050521	0.439835
O5	O	1.754604	-0.050535	0.010582
O6	O	1.531086	-0.050531	0.234101
O7	O	1.960372	-0.050534	0.216350
Cu8	Cu	1.745725	-0.059759	0.225228
Cu9	Cu	1.745773	0.059745	0.225189
O10	O	1.736853	-0.050530	0.439868
C11	C	1.476120	-0.000005	0.232379
C12	C	1.312277	-0.000004	0.227281
N13	N	1.745702	-0.143811	0.225255
C14	C	1.844753	-0.563593	0.126229
C15	C	1.844760	-0.627200	0.126219
O16	O	1.928918	-0.660093	0.042042
N17	N	1.745772	-0.659019	0.225158
C18	C	1.646761	-0.627226	0.324103
O19	O	1.562563	-0.660131	0.408256
C20	C	1.646748	-0.563620	0.324105
C21	C	1.745753	-0.531805	0.225170
C22	C	1.943748	-0.531777	0.027301
C23	C	1.943743	-0.468174	0.027313
C24	C	1.844743	-0.436386	0.126254
C25	C	1.745747	-0.468201	0.225182
C26	C	1.547731	-0.531828	0.423041
C27	C	1.547726	-0.468217	0.423034
C28	C	1.646730	-0.436402	0.324099
C29	C	1.646741	-0.372810	0.324135
N30	N	1.745729	-0.340992	0.225196
C31	C	1.844730	-0.372780	0.126256
C32	C	1.646793	-0.760804	0.324090
C33	C	1.646812	-0.824409	0.324097
C34	C	1.844809	-0.824379	0.126211
C35	C	1.844797	-0.760772	0.126212
C36	C	1.745781	-0.728985	0.225151
C37	C	1.844712	-0.239208	0.126290
C38	C	1.844703	-0.175600	0.126315
C39	C	1.646700	-0.175635	0.324195
C40	C	1.646715	-0.239239	0.324176
C41	C	1.745726	-0.271024	0.225211
O42	O	1.562623	-0.339877	0.408265
O43	O	1.928900	-0.339867	0.042103
C44	C	2.015379	-0.000007	0.218038
C45	C	2.179222	-0.000004	0.223136
C46	C	1.752920	-0.000009	-0.044421
C47	C	1.747822	-0.000007	-0.208264
N48	N	1.745808	0.143797	0.225150
C49	C	1.738579	-0.000004	0.494838
C50	C	1.743677	-0.000002	0.658681
H51	H	1.925329	-0.149698	0.045750
H52	H	1.566209	-0.850309	0.404674
H53	H	1.925414	-0.734872	0.045650
N54	N	1.545682	-0.728338	0.425201
N55	N	1.593712	-0.692850	0.517459
H56	H	1.522304	-0.669924	0.588871
N57	N	1.446606	-0.435749	0.524127
N58	N	1.494631	-0.400262	0.616388
H59	H	1.423220	-0.377332	0.687789
H60	H	1.925419	-0.850272	0.045646
H61	H	1.925335	-0.265081	0.045702
N62	N	1.446598	-0.564306	0.524123
N63	N	1.358219	-0.535904	0.612443
H64	H	1.286789	-0.558841	0.683840
H65	H	2.024357	-0.442274	-0.053252
H66	H	1.566111	-0.265143	0.404752
N67	N	2.044888	-0.564232	-0.073790
N68	N	2.133256	-0.535806	-0.162105
H69	H	2.204699	-0.558723	-0.233502
H70	H	1.566099	-0.149744	0.404756
