data_functionalizedCrystal
_audit_creation_method	'MofGen! by Chris Wilmer'
_symmetry_space_group_name_H-M	'P1'
_symmetry_Int_Tables_number	1
_symmetry_cell_setting	triclinic
loop_
_symmetry_equiv_pos_as_xyz
  x,y,z
_cell_length_a	14.908571
_cell_length_b	16.120484
_cell_length_c	14.908308
_cell_angle_alpha	95.986071
_cell_angle_beta	90.175053
_cell_angle_gamma	89.787312
loop_
_atom_site_label
_atom_site_type_symbol
_atom_site_fract_x
_atom_site_fract_y
_atom_site_fract_z
Zn1	Zn	1.320097	-0.434923	-0.609960
Zn2	Zn	1.321040	-0.566744	-0.466383
Zn3	Zn	1.179340	-0.418915	-0.450134
Zn4	Zn	1.162126	-0.565754	-0.607984
O5	O	1.245651	-0.496584	-0.533615
O6	O	1.445636	-0.459523	-0.598542
O7	O	1.309843	-0.540849	-0.338080
O8	O	1.204822	-0.304418	-0.465363
O9	O	1.446329	-0.556371	-0.493056
O10	O	1.308235	-0.316179	-0.582786
O11	O	1.205736	-0.432240	-0.326142
O12	O	1.051643	-0.431280	-0.463446
O13	O	1.175482	-0.554684	-0.734394
O14	O	1.038995	-0.539162	-0.579418
O15	O	1.291543	-0.458562	-0.735846
O16	O	1.293150	-0.683233	-0.491140
O17	O	1.176396	-0.682506	-0.595173
C18	C	1.012801	-0.483377	-0.519455
C19	C	0.913184	-0.477748	-0.513419
C20	C	1.233031	-0.713110	-0.544726
C21	C	1.227712	-0.805747	-0.549515
C22	C	0.712871	-0.579666	-0.622692
C23	C	0.619272	-0.574380	-0.617025
C24	C	0.632384	-0.461887	-0.496421
C25	C	0.725983	-0.467173	-0.502089
C26	C	0.766223	-0.526065	-0.565226
C27	C	0.859824	-0.531355	-0.570888
C28	C	0.872935	-0.418858	-0.450290
C29	C	0.779335	-0.413572	-0.444622
C30	C	1.218005	-0.975358	-0.558276
C31	C	1.273456	-1.016980	-0.508979
C32	C	1.268055	-1.111356	-0.513854
C33	C	1.223405	-0.880972	-0.553403
C34	C	1.479410	-0.509843	-0.547832
C35	C	1.579025	-0.515493	-0.553890
C36	C	1.231487	-0.508298	-0.768743
C37	C	1.225451	-0.513290	-0.868941
C38	C	1.258344	-0.279214	-0.522482
C39	C	1.263752	-0.186584	-0.517738
C40	C	1.334963	-0.422560	-1.058735
C41	C	1.329294	-0.427248	-1.152880
C42	C	1.208443	-0.527348	-1.151376
C43	C	1.214111	-0.522661	-1.057231
C44	C	1.277374	-0.470266	-1.010914
C45	C	1.283046	-0.465583	-0.916769
C46	C	1.162191	-0.565679	-0.915266
C47	C	1.156523	-0.570366	-1.009410
C48	C	1.259815	-0.484858	-0.299402
C49	C	1.266038	-0.479641	-0.199204
H50	H	0.892586	-0.579309	-0.622296
C51	C	1.341909	-0.321119	-1.253754
C52	C	1.392597	-0.374806	-1.205443
H53	H	1.380992	-0.288739	-1.286198
H54	H	1.303435	-0.352994	-1.294814
H55	H	1.306933	-0.285206	-1.213009
H56	H	1.427569	-0.410724	-1.246188
H57	H	1.431086	-0.342929	-1.164379
C58	C	1.360338	-0.305902	-0.947863
C59	C	1.404502	-0.364977	-1.007814
H60	H	1.403273	-0.270357	-0.916424
H61	H	1.320954	-0.273636	-0.980583
H62	H	1.326849	-0.333650	-0.905915
H63	H	1.437986	-0.337229	-1.049767
H64	H	1.443902	-0.397247	-0.975092
H65	H	0.745635	-0.627623	-0.674096
H66	H	0.599604	-0.413934	-0.445024
H67	H	1.115300	-0.604527	-0.876320
C68	C	1.393244	-1.026196	-0.402414
C69	C	1.343017	-0.969406	-0.447055
H70	H	1.436188	-0.996822	-0.364190
H71	H	1.354393	-1.056267	-0.367255
H72	H	1.423226	-1.064004	-0.445526
H73	H	1.313030	-0.931602	-0.403943
H74	H	1.381873	-0.939321	-0.482217
C75	C	1.163508	-1.007462	-0.709589
C76	C	1.148443	-1.022933	-0.620187
H77	H	1.120565	-1.036846	-0.747806
H78	H	1.158048	-0.949369	-0.714394
H79	H	1.222124	-1.025694	-0.727202
H80	H	1.089829	-1.004695	-0.602571
H81	H	1.153895	-1.081038	-0.615378
H82	H	0.575836	-0.618026	-0.663822
C83	C	1.131161	-0.687033	-1.120273
C84	C	1.086989	-0.627959	-1.060327
H85	H	1.088232	-0.722592	-1.151700
H86	H	1.164636	-0.659289	-1.162224
H87	H	1.170560	-0.719290	-1.087545
H88	H	1.047594	-0.595698	-1.093056
H89	H	1.053498	-0.655706	-1.018370
H90	H	0.746559	-0.365621	-0.393220
H91	H	1.156937	-0.570005	-1.189103
C92	C	1.022236	-0.377009	-0.405420
C93	C	0.931582	-0.359934	-0.387117
H94	H	1.058441	-0.340631	-0.366421
H95	H	1.035111	-0.433184	-0.395932
H96	H	1.034639	-0.368778	-0.466318
H97	H	0.919177	-0.368171	-0.326220
H98	H	0.918702	-0.303746	-0.396597
C99	C	1.308403	-0.348916	-0.805906
C100	C	1.352578	-0.407987	-0.865853
H101	H	1.351330	-0.313360	-0.774472
H102	H	1.269008	-0.316662	-0.838628
H103	H	1.274923	-0.376668	-0.763953
H104	H	1.386052	-0.380236	-0.907811
H105	H	1.391988	-0.440245	-0.833129
