data_functionalizedCrystal
_audit_creation_method	'MofGen! by Chris Wilmer'
_symmetry_space_group_name_H-M	'P1'
_symmetry_Int_Tables_number	1
_symmetry_cell_setting	triclinic
loop_
_symmetry_equiv_pos_as_xyz
  x,y,z
_cell_length_a	6.817900
_cell_length_b	13.168018
_cell_length_c	11.102193
_cell_angle_alpha	97.925724
_cell_angle_beta	108.604059
_cell_angle_gamma	105.756000
loop_
_atom_site_label
_atom_site_type_symbol
_atom_site_fract_x
_atom_site_fract_y
_atom_site_fract_z
V1	V	-4.107367	-0.148902	-0.413817
O2	O	-4.070747	0.007147	-0.387871
O3	O	-4.080068	-0.295240	-0.428364
O4	O	-4.084205	-0.146615	-0.586369
O5	O	-4.066581	-0.142507	-0.228773
V6	V	-4.584991	-0.130236	-0.389573
O7	O	-4.381567	-0.189847	-0.466997
O8	O	-4.760988	-0.089292	-0.336393
O9	O	-4.389083	0.016102	-0.375026
O10	O	-4.739008	-0.286286	-0.415519
O11	O	-4.743174	-0.136632	-0.574617
O12	O	-4.384946	-0.132523	-0.217021
C13	C	-3.929386	-0.330914	-0.426320
C14	C	-3.988521	-0.450548	-0.439364
C15	C	-4.131598	-0.634533	-0.575941
C16	C	-4.076042	-0.522128	-0.563690
C17	C	-3.956560	-0.491380	-0.327280
C18	C	-4.012116	-0.603785	-0.339531
C19	C	-4.099632	-0.675359	-0.463866
C20	C	-4.155173	-0.787765	-0.476115
C21	C	-4.035705	-0.757016	-0.239707
C22	C	-3.980149	-0.644611	-0.227456
C23	C	-3.934661	-0.141327	-0.627869
C24	C	-3.997147	-0.140425	-0.769045
C25	C	-4.111986	-0.337534	-0.828616
C26	C	-4.198752	-0.435660	-0.924724
C27	C	-4.257462	-0.434807	-1.057369
C28	C	-4.229406	-0.335817	-1.093907
C29	C	-4.142640	-0.237691	-0.997799
C30	C	-4.083929	-0.238554	-0.865154
C31	C	-4.027817	-0.040585	-0.938229
C32	C	-3.969091	-0.041435	-0.805583
C33	C	-3.999762	0.058405	-0.974767
C34	C	-3.912980	0.156534	-0.878658
C35	C	-3.854266	0.155677	-0.746006
C36	C	-3.882325	0.056691	-0.709475
C37	C	-4.203108	0.051770	-0.377068
C38	C	-4.123212	0.171402	-0.364032
C39	C	-4.197832	-0.137815	-0.175515
C40	C	-4.114584	-0.138711	-0.034337
H41	H	-4.221593	-0.516256	-0.894960
H42	H	-3.890160	0.237123	-0.908421
H43	H	-4.047587	0.059092	-1.082777
C44	C	-3.883873	-0.565876	-0.090699
H45	H	-3.855349	-0.493083	-0.099452
H46	H	-3.986041	-0.581487	-0.048602
H47	H	-3.750790	-0.574474	-0.039678
C48	C	-4.000571	-0.801926	-0.116420
H49	H	-4.046208	-0.879122	-0.141521
H50	H	-3.849303	-0.773681	-0.061363
H51	H	-4.084574	-0.780695	-0.070331
H52	H	-3.885322	-0.433087	-0.226054
H53	H	-4.277243	-0.335132	-1.201917
H54	H	-4.064155	-0.338238	-0.720611
C55	C	-4.352915	-0.542742	-1.163089
H56	H	-4.361212	-0.601819	-1.122337
H57	H	-4.495828	-0.549940	-1.220617
H58	H	-4.260561	-0.543061	-1.211524
C59	C	-3.758824	0.263618	-0.640297
H60	H	-3.750516	0.322688	-0.681060
H61	H	-3.851152	0.263941	-0.591853
H62	H	-3.615888	0.270826	-0.582773
C63	C	-4.251446	-0.866494	-0.612876
H64	H	-4.262546	-0.826077	-0.677869
H65	H	-4.157986	-0.907478	-0.618106
H66	H	-4.393238	-0.914487	-0.627035
C67	C	-4.111131	-0.477215	-0.686966
H68	H	-4.065507	-0.400020	-0.661866
H69	H	-4.027136	-0.498456	-0.733046
H70	H	-4.262408	-0.505451	-0.742033
H71	H	-3.834511	0.055984	-0.601472
H72	H	-4.202834	-0.692809	-0.677179
