data_functionalizedCrystal
_audit_creation_method	'MofGen! by Chris Wilmer'
_symmetry_space_group_name_H-M	'P1'
_symmetry_Int_Tables_number	1
_symmetry_cell_setting	triclinic
loop_
_symmetry_equiv_pos_as_xyz
  x,y,z
_cell_length_a	15.625950
_cell_length_b	11.792241
_cell_length_c	14.749905
_cell_angle_alpha	75.869547
_cell_angle_beta	93.440624
_cell_angle_gamma	84.220291
loop_
_atom_site_label
_atom_site_type_symbol
_atom_site_fract_x
_atom_site_fract_y
_atom_site_fract_z
O1	O	1.127978	0.061998	0.312729
O2	O	1.627978	0.561998	0.812729
O3	O	0.884283	0.103029	0.227914
O4	O	1.384283	0.603029	0.727914
O5	O	1.012043	-0.083265	0.272386
O6	O	1.512043	0.416735	0.772386
O7	O	1.000218	0.248292	0.268257
O8	O	1.500218	0.748292	0.768257
O9	O	0.979397	-0.124189	0.420698
O10	O	1.479397	0.375811	0.920698
O11	O	0.851637	0.062105	0.376227
O12	O	1.351637	0.562105	0.876227
O13	O	1.095332	0.021075	0.461041
O14	O	1.595332	0.521075	0.961041
Zn15	Zn	0.968301	0.035093	0.442182
Zn16	Zn	1.468301	0.535093	0.942182
Zn17	Zn	1.011314	0.089011	0.246774
Zn18	Zn	1.511314	0.589011	0.746774
O19	O	0.967572	0.207369	0.416569
O20	O	1.467572	0.707369	0.916569
C21	C	0.836762	0.084760	0.291212
C22	C	1.336762	0.584760	0.791212
C23	C	0.743800	0.091282	0.258859
C24	C	1.243800	0.591282	0.758859
C25	C	0.349015	0.001285	0.556569
C26	C	0.849015	0.501285	1.056569
C27	C	0.261671	0.007446	0.526126
C28	C	0.761671	0.507446	1.026126
C29	C	0.297304	0.052056	0.364456
C30	C	0.797304	0.552056	0.864456
C31	C	0.384653	0.045904	0.394886
C32	C	0.884653	0.545904	0.894886
C33	C	0.410501	0.020517	0.490943
C34	C	0.910501	0.520517	0.990943
C35	C	0.446138	0.065136	0.329260
C36	C	0.946138	0.565136	0.829260
C37	C	0.533480	0.058978	0.359687
C38	C	1.033480	0.558978	0.859687
C39	C	0.559336	0.033588	0.455740
C40	C	1.059336	0.533588	0.955740
C41	C	0.497842	0.014359	0.521370
C42	C	0.997842	0.514359	1.021370
C43	C	0.420289	0.090515	0.233203
C44	C	0.920289	0.590515	0.733203
C45	C	0.481775	0.109747	0.167577
C46	C	0.981775	0.609747	0.667577
C47	C	0.569117	0.103598	0.198004
C48	C	1.069117	0.603598	0.698004
C49	C	0.594973	0.078208	0.294057
C50	C	1.094973	0.578208	0.794057
C51	C	0.630611	0.122827	0.132374
C52	C	1.130611	0.622827	0.632374
C53	C	0.717952	0.116669	0.162802
C54	C	1.217952	0.616669	0.662802
C55	C	0.682315	0.072050	0.324485
C56	C	1.182315	0.572050	0.824485
C57	C	0.994977	-0.145942	0.346283
C58	C	1.494977	0.354058	0.846283
C59	C	0.992754	-0.271727	0.345508
C60	C	1.492754	0.228273	0.845508
C61	C	0.988668	-0.502016	0.344070
C62	C	1.488668	-0.002016	0.844070
C63	C	0.990938	-0.373866	0.344869
C64	C	1.490938	0.126134	0.844869
C65	C	1.142854	0.039344	0.397741
C66	C	1.642854	0.539344	0.897741
C67	C	1.235817	0.032824	0.430089
C68	C	1.735817	0.532824	0.930089
C69	C	0.984639	0.270046	0.342670
C70	C	1.484639	0.770046	0.842670
C71	C	0.986863	0.395833	0.343439
C72	C	1.486863	0.895833	0.843439
N73	N	0.938952	-0.001707	0.575545
N74	N	1.438952	0.498293	1.075545
N75	N	1.040670	0.125801	0.113413
N76	N	1.540670	0.625801	0.613413
C77	C	0.857063	-0.104414	0.697830
C78	C	1.357063	0.395586	1.197830
C79	C	0.877603	-0.078642	0.604464
C80	C	1.377603	0.421358	1.104464
C81	C	0.979783	0.049492	0.639987
C82	C	1.479783	0.549492	1.139987
C83	C	0.959248	0.023736	0.733357
C84	C	1.459248	0.523736	1.233357
C85	C	0.897889	-0.053219	0.762270
C86	C	1.397889	0.446781	1.262270
C87	C	1.000074	0.074930	0.797798
C88	C	1.500074	0.574930	1.297798
C89	C	0.979544	0.049171	0.891160
C90	C	1.479544	0.549171	1.391160
C91	C	0.918189	-0.027784	0.920082
C92	C	1.418189	0.472216	1.420082
C93	C	0.877359	-0.078979	0.855633
C94	C	1.377359	0.421021	1.355633
C95	C	1.061438	0.151878	0.768884
C96	C	1.561438	0.651878	1.268884
C97	C	1.102263	0.203073	0.833324
C98	C	1.602263	0.703073	1.333324
C99	C	1.081729	0.177320	0.926687
C100	C	1.581729	0.677320	1.426687
C101	C	1.020374	0.100366	0.955609
C102	C	1.520374	0.600366	1.455609
C103	C	1.122559	0.228515	0.991137
C104	C	1.622559	0.728515	1.491137
C105	C	1.102029	0.202755	1.084499
C106	C	1.602029	0.702755	1.584499
C107	C	0.999844	0.074606	1.048972
C108	C	1.499844	0.574606	1.548972
H109	H	0.370060	-0.019371	0.634787
H110	H	0.870060	0.480629	1.134787
H111	H	0.609552	0.143486	0.054165
H112	H	1.109552	0.643486	0.554165
F113	F	1.083288	0.179290	0.669518
F114	F	1.583288	0.679290	1.169518
H115	H	0.949871	0.011953	1.072512
H116	H	1.449871	0.511953	1.572512
H117	H	0.211607	-0.008190	0.579573
H118	H	0.711607	0.491810	1.079573
H119	H	0.349168	0.095534	0.208432
H120	H	0.849168	0.595534	0.708432
F121	F	0.525355	-0.012649	0.623605
F122	F	1.025355	0.487351	1.123605
F123	F	0.783393	0.137135	0.092956
F124	F	1.283393	0.637135	0.592956
H125	H	0.807090	-0.167066	0.721369
H126	H	1.307090	0.332934	1.221369
H127	H	0.276246	0.072722	0.286246
H128	H	0.776246	0.572722	0.786246
F129	F	1.167567	0.284968	0.802543
F130	F	1.667567	0.784968	1.302543
F131	F	0.709827	0.045043	0.426720
F132	F	1.209827	0.545043	0.926720
F133	F	1.045086	0.131388	0.609205
F134	F	1.545086	0.631388	1.109205
H135	H	0.460717	0.130412	0.089367
H136	H	0.960717	0.630412	0.589367
H137	H	1.172525	0.291163	0.967583
H138	H	1.672525	0.791163	1.467583
H139	H	0.901479	-0.048762	0.996106
H140	H	1.401479	0.451238	1.496106
F141	F	0.812045	-0.160873	0.886407
F142	F	1.312045	0.339127	1.386407
H143	H	1.135274	0.244444	1.136969
H144	H	1.635274	0.744444	1.636969
H145	H	0.630456	0.028574	0.480513
H146	H	1.130456	0.528574	0.980513
F147	F	0.834163	-0.133163	0.535888
F148	F	1.334163	0.366837	1.035888
