data_functionalizedCrystal
_audit_creation_method	'MofGen! by Chris Wilmer'
_symmetry_space_group_name_H-M	'P1'
_symmetry_Int_Tables_number	1
_symmetry_cell_setting	triclinic
loop_
_symmetry_equiv_pos_as_xyz
  x,y,z
_cell_length_a	10.686285
_cell_length_b	11.169417
_cell_length_c	11.169417
_cell_angle_alpha	89.997314
_cell_angle_beta	94.374231
_cell_angle_gamma	94.370078
loop_
_atom_site_label
_atom_site_type_symbol
_atom_site_fract_x
_atom_site_fract_y
_atom_site_fract_z
Zn1	Zn	-0.502602	-1.871448	0.641990
Zn2	Zn	-0.169269	-1.538115	0.975323
Zn3	Zn	0.164064	-1.204782	1.308657
Zn4	Zn	-0.713557	-1.886813	0.425941
Zn5	Zn	-0.380224	-1.553479	0.759274
Zn6	Zn	-0.046891	-1.220146	1.092607
Zn7	Zn	-0.502578	-1.670799	0.441320
Zn8	Zn	-0.169245	-1.337466	0.774653
Zn9	Zn	0.164088	-1.004132	1.107987
Zn10	Zn	-0.713536	-1.686149	0.626581
Zn11	Zn	-0.380203	-1.352815	0.959914
Zn12	Zn	-0.046869	-1.019482	1.293247
O13	O	-0.608069	-1.778802	0.533958
O14	O	-0.274735	-1.445469	0.867291
O15	O	0.058598	-1.112135	1.200625
O16	O	-0.530605	-2.041437	0.613343
O17	O	-0.197272	-1.708104	0.946677
O18	O	0.136062	-1.374771	1.280010
O19	O	-0.685570	-1.858164	0.260031
O20	O	-0.352236	-1.524831	0.593365
O21	O	-0.018903	-1.191497	0.926698
O22	O	-0.326010	-1.684562	0.480824
O23	O	0.007324	-1.351228	0.814158
O24	O	0.340657	-1.017895	1.147491
O25	O	-0.685593	-2.052725	0.454613
O26	O	-0.352259	-1.719392	0.787946
O27	O	-0.018926	-1.386059	1.121279
O28	O	-0.326027	-1.831978	0.628256
O29	O	0.007306	-1.498645	0.961589
O30	O	0.340639	-1.165311	1.294922
O31	O	-0.530564	-1.699460	0.271330
O32	O	-0.197231	-1.366126	0.604664
O33	O	0.136102	-1.032793	0.937997
O34	O	-0.530543	-1.504884	0.465883
O35	O	-0.197210	-1.171551	0.799216
O36	O	0.136123	-0.838217	1.132549
O37	O	-0.685556	-1.710723	0.796574
O38	O	-0.352223	-1.377390	1.129908
O39	O	-0.018890	-1.044056	1.463241
O40	O	-0.685533	-1.516161	0.601993
O41	O	-0.352200	-1.182828	0.935326
O42	O	-0.018866	-0.849495	1.268659
O43	O	-0.530584	-1.846862	0.807896
O44	O	-0.197251	-1.513528	1.141229
O45	O	0.136082	-1.180195	1.474562
O46	O	-0.890126	-1.873048	0.439671
O47	O	-0.556793	-1.539715	0.773004
O48	O	-0.223460	-1.206381	1.106338
O49	O	-0.890111	-1.725621	0.587080
O50	O	-0.556777	-1.392288	0.920414
O51	O	-0.223444	-1.058954	1.253747
C52	C	-0.608034	-1.466975	0.533935
C53	C	-0.274701	-1.133642	0.867268
C54	C	0.058632	-0.800308	1.200602
C55	C	-0.608050	-1.333576	0.533951
C56	C	-0.274717	-1.000243	0.867285
C57	C	0.058617	-0.666909	1.200618
C58	C	-0.935902	-1.802700	0.510061
C59	C	-0.602568	-1.469366	0.843394
C60	C	-0.269235	-1.136033	1.176727
C61	C	-1.076150	-1.813033	0.499878
C62	C	-0.742817	-1.479700	0.833211
C63	C	-0.409483	-1.146366	1.166544
C64	C	-0.278955	-1.754844	0.557974
C65	C	0.054378	-1.421510	0.891308
C66	C	0.387711	-1.088177	1.224641
C67	C	-0.138707	-1.744634	0.568209
C68	C	0.194627	-1.411301	0.901542
C69	C	0.527960	-1.077967	1.234876
C70	C	-0.608071	-1.778791	0.847000
C71	C	-0.274737	-1.445457	1.180333
C72	C	0.058596	-1.112124	1.513667
C73	C	-0.608071	-1.778786	0.980400
C74	C	-0.274738	-1.445453	1.313733
C75	C	0.058595	-1.112119	1.647067
C76	C	-0.608092	-1.091846	0.533974
C77	C	-0.274758	-0.758513	0.867308
C78	C	0.058575	-0.425179	1.200641
C79	C	-0.608070	-1.225244	0.533963
C80	C	-0.274737	-0.891911	0.867297
C81	C	0.058596	-0.558578	1.200630
C82	C	-0.608090	-1.778801	1.222132
C83	C	-0.274756	-1.445468	1.555465
C84	C	0.058577	-1.112134	1.888798
C85	C	-0.608073	-1.778789	1.088733
C86	C	-0.274740	-1.445456	1.422066
C87	C	0.058594	-1.112123	1.755400
H88	H	-1.129893	-1.879493	0.433572
H89	H	-0.796560	-1.546160	0.766905
H90	H	-0.463227	-1.212826	1.100239
H91	H	-1.084971	-1.678170	0.634503
H92	H	-0.751638	-1.344837	0.967836
H93	H	-0.418305	-1.011504	1.301169
