data_functionalizedCrystal
_audit_creation_method	'MofGen! by Chris Wilmer'
_symmetry_space_group_name_H-M	'P1'
_symmetry_Int_Tables_number	1
_symmetry_cell_setting	triclinic
loop_
_symmetry_equiv_pos_as_xyz
  x,y,z
_cell_length_a	11.026607
_cell_length_b	12.837942
_cell_length_c	9.482900
_cell_angle_alpha	100.328050
_cell_angle_beta	78.636152
_cell_angle_gamma	101.707478
loop_
_atom_site_label
_atom_site_type_symbol
_atom_site_fract_x
_atom_site_fract_y
_atom_site_fract_z
O1	O	1.678880	0.430677	-0.120903
O2	O	2.178880	0.930677	0.379097
O3	O	1.319732	0.380157	-0.120904
O4	O	1.819732	0.880157	0.379096
O5	O	1.491341	0.253029	-0.120894
O6	O	1.991341	0.753029	0.379106
O7	O	1.507271	0.557805	-0.120912
O8	O	2.007271	1.057805	0.379088
O9	O	1.456499	0.278984	0.120896
O10	O	1.956499	0.778984	0.620896
O11	O	1.284890	0.406113	0.120887
O12	O	1.784890	0.906113	0.620887
O13	O	1.644038	0.456632	0.120888
O14	O	2.144038	0.956632	0.620888
Cu15	Cu	1.461282	0.433742	0.142965
Cu16	Cu	1.961282	0.933742	0.642965
Cu17	Cu	1.502487	0.403047	-0.142981
Cu18	Cu	2.002487	0.903047	0.357019
O19	O	1.472429	0.583760	0.120878
O20	O	1.972429	1.083760	0.620878
C21	C	1.256022	0.383815	-0.000009
C22	C	1.756022	0.883815	0.499991
C23	C	1.118096	0.356032	-0.000009
C24	C	1.618096	0.856032	0.499991
C25	C	1.468539	0.226382	0.000000
C26	C	1.968539	0.726382	0.500000
C27	C	1.452492	0.108310	-0.000002
C28	C	1.952492	0.608310	0.499998
C29	C	1.053162	0.432745	-0.000014
C30	C	1.553162	0.932745	0.499986
C31	C	0.910607	0.404032	-0.000015
C32	C	1.410607	0.904032	0.499985
C33	C	1.645414	-0.096652	-0.000032
C34	C	2.145414	0.403348	0.499968
C35	C	1.630343	-0.207590	-0.000035
C36	C	2.130343	0.292410	0.499965
C37	C	1.407280	-0.224509	-0.000020
C38	C	1.907280	0.275491	0.499980
C39	C	1.422352	-0.113570	-0.000018
C40	C	1.922352	0.386430	0.499982
C41	C	1.541422	-0.049645	-0.000021
C42	C	2.041422	0.450355	0.499979
C43	C	1.556492	0.061297	-0.000009
C44	C	2.056492	0.561297	0.499991
C45	C	1.333431	0.044375	-0.000005
C46	C	1.833431	0.544375	0.499995
C47	C	1.318360	-0.066563	-0.000007
C48	C	1.818360	0.433437	0.499993
C49	C	1.707748	0.452974	-0.000011
C50	C	2.207748	0.952974	0.499989
C51	C	1.845676	0.480756	-0.000020
C52	C	2.345676	0.980756	0.499980
C53	C	1.495231	0.610407	-0.000019
C54	C	1.995231	1.110407	0.499981
C55	C	1.511279	0.728478	-0.000026
C56	C	2.011279	1.228478	0.499974
N57	N	1.432310	0.455332	0.344083
N58	N	1.932310	0.955332	0.844083
N59	N	1.531469	0.381450	-0.344099
N60	N	2.031469	0.881450	0.155901
C61	C	1.493932	0.409408	0.416286
C62	C	1.993932	0.909408	0.916286
C63	C	1.469837	0.427381	0.583702
C64	C	1.969837	0.927381	1.083702
H65	H	1.103105	0.519680	-0.000011
H66	H	1.603105	1.019680	0.499989
H67	H	1.742364	-0.044601	-0.000021
H68	H	2.242364	0.455399	0.499979
H69	H	0.860673	0.317088	-0.000047
H70	H	1.360673	0.817088	0.499953
H71	H	1.715025	-0.245859	-0.000048
H72	H	2.215025	0.254141	0.499952
H73	H	1.564524	0.356779	0.354162
H74	H	2.064524	0.856779	0.854162
H75	H	1.248752	0.082660	0.000016
H76	H	1.748752	0.582660	0.500016
H77	H	1.068156	0.269094	-0.000041
H78	H	1.568156	0.769094	0.499959
H79	H	1.602065	0.328818	0.593780
H80	H	2.102065	0.828818	1.093780
H81	H	1.221416	-0.118627	-0.000010
H82	H	1.721416	0.381373	0.499990
H83	H	0.895613	0.567697	-0.000015
H84	H	1.395613	1.067697	0.499985
H85	H	1.399231	0.480004	0.645822
H86	H	1.899231	0.980004	1.145822
H87	H	1.310340	-0.276577	-0.000033
H88	H	1.810340	0.223423	0.499967
H89	H	1.361709	0.507952	0.406209
H90	H	1.861709	1.007952	0.906209
H91	H	1.653444	0.113344	-0.000006
H92	H	2.153444	0.613344	0.499994
