data_functionalizedCrystal
_audit_creation_method	'MofGen! by Chris Wilmer'
_symmetry_space_group_name_H-M	'P1'
_symmetry_Int_Tables_number	1
_symmetry_cell_setting	triclinic
loop_
_symmetry_equiv_pos_as_xyz
  x,y,z
_cell_length_a	15.698487
_cell_length_b	23.196402
_cell_length_c	23.196402
_cell_angle_alpha	90.003332
_cell_angle_beta	59.997579
_cell_angle_gamma	60.004720
loop_
_atom_site_label
_atom_site_type_symbol
_atom_site_fract_x
_atom_site_fract_y
_atom_site_fract_z
Zr1	Zr	0.932375	-0.075651	0.555366
O2	O	1.110087	-0.167696	0.463306
O3	O	0.754664	-0.047436	0.583587
O4	O	0.932372	-0.167702	0.583577
O5	O	0.932381	0.047439	0.463324
O6	O	0.932368	-0.167704	0.678449
O7	O	0.932379	-0.047431	0.463316
O8	O	0.614481	0.047430	0.678468
O9	O	1.250268	-0.167694	0.463306
O10	O	0.827756	-0.035402	0.666425
O11	O	0.827760	0.035400	0.595629
O12	O	1.036989	-0.106197	0.595617
O13	O	1.036993	-0.035395	0.524821
Zr14	Zr	0.932373	0.075653	0.706689
Zr15	Zr	0.932369	-0.075654	0.706676
Zr16	Zr	0.932379	0.075656	0.555379
Zr17	Zr	1.155948	-0.075647	0.555366
Zr18	Zr	0.708800	0.075649	0.706689
O19	O	1.110084	0.047438	0.678467
O20	O	1.110079	-0.167701	0.678449
O21	O	1.110092	0.047442	0.463324
O22	O	0.754661	0.167698	0.798749
O23	O	0.754656	-0.047440	0.798730
O24	O	0.754669	0.167703	0.583606
O25	O	0.932367	-0.047438	0.798730
O26	O	0.932376	0.167703	0.678477
O27	O	0.932380	0.167705	0.583606
O28	O	0.932369	0.047432	0.798738
O29	O	1.250264	-0.167697	0.583577
O30	O	0.614484	0.167698	0.678478
O31	O	0.614479	0.167696	0.798749
O32	O	0.614477	0.047427	0.798739
O33	O	1.250271	-0.047426	0.463316
O34	O	1.250267	-0.047428	0.583587
O35	O	0.827759	0.106199	0.666437
O36	O	0.827755	0.035397	0.737233
O37	O	1.036988	-0.035398	0.666425
O38	O	1.036992	0.035403	0.595629
C39	C	0.652718	-0.000003	0.631028
C40	C	0.557806	-0.000005	0.631028
C41	C	0.932381	0.000005	0.441762
C42	C	0.932384	0.000006	0.377527
C43	C	0.932378	0.189262	0.631043
C44	C	0.932380	0.253496	0.631049
C45	C	0.384023	0.000008	0.631026
C46	C	0.480728	0.000002	0.631025
C47	C	1.212030	0.000005	0.631027
C48	C	1.306942	0.000007	0.631027
C49	C	0.932370	-0.189261	0.631011
C50	C	0.932368	-0.253494	0.631006
C51	C	1.041594	0.246717	0.594091
C52	C	1.041595	0.307071	0.594080
C53	C	0.932377	0.374204	0.631042
C54	C	0.823148	0.380981	0.668001
C55	C	0.823150	0.320627	0.668005
C56	C	0.848699	0.498139	0.692945
C57	C	0.848702	0.558490	0.692943
C58	C	0.932368	0.560358	0.631030
C59	C	1.016050	0.501860	0.569119
C60	C	1.016052	0.441506	0.569122
C61	C	0.932363	0.439652	0.631042
C62	C	1.041591	0.619019	0.594057
C63	C	1.041588	0.679376	0.594045
C64	C	0.823138	0.753286	0.667973
C65	C	0.823144	0.692930	0.667978
C66	C	0.932374	0.625798	0.631022
C67	C	0.932391	-0.052262	0.347350
C68	C	0.932380	-0.052262	0.286999
C69	C	0.932386	0.000001	0.256819
C70	C	0.932372	0.052278	0.287005
C71	C	0.932370	0.052281	0.347359
C72	C	1.002584	0.016288	0.137445
C73	C	1.002592	0.016281	0.077090
C74	C	0.932385	-0.000003	0.070669
C75	C	0.862184	-0.016294	0.124605
C76	C	0.862183	-0.016291	0.184959
C77	C	0.932387	0.000005	0.191375
C78	C	0.932379	-0.052273	-0.024947
C79	C	0.932361	-0.052269	-0.085297
C80	C	0.932364	0.052269	-0.085294
C81	C	0.932370	0.052267	-0.024941
C82	C	0.932383	-0.000008	0.005227
C83	C	0.932367	-0.000003	0.820293
C84	C	0.932364	-0.000005	0.884528
C85	C	0.652711	-0.000008	0.820293
C86	C	0.557796	-0.000010	0.884528
C87	C	0.652723	0.189258	0.631044
C88	C	0.557811	0.253490	0.631049
C89	C	0.652715	0.189254	0.820309
C90	C	0.557802	0.253485	0.884549
C91	C	1.212033	-0.189252	0.441746
C92	C	1.306946	-0.253483	0.377505
C93	C	1.212037	0.000009	0.441762
C94	C	1.306952	0.000012	0.377527
C95	C	1.212025	-0.189256	0.631011
C96	C	1.306936	-0.253488	0.631006
C97	C	0.513223	-0.036974	0.877732
C98	C	0.424053	-0.036991	0.938082
C99	C	0.379451	-0.000039	1.005227
C100	C	0.424032	0.036926	1.012021
C101	C	0.513207	0.036938	0.951672
C102	C	0.513240	0.320617	0.668013
C103	C	0.424073	0.380976	0.668015
C104	C	0.379474	0.374206	0.631058
C105	C	0.424054	0.307072	0.594090
C106	C	0.513225	0.246715	0.594084
C107	C	0.513227	0.246690	0.951678
C108	C	0.424058	0.307036	1.012045
C109	C	0.379460	0.374176	1.005281
C110	C	0.424043	0.380969	0.938145
C111	C	0.513216	0.320624	0.877780
C112	C	1.351532	-0.246689	0.310376
C113	C	1.440728	-0.307034	0.250010
C114	C	1.485332	-0.374174	0.256774
C115	C	1.440742	-0.380967	0.323910
C116	C	1.351554	-0.320622	0.384275
C117	C	1.351534	0.036970	0.384322
C118	C	1.440729	0.036970	0.323972
C119	C	1.485334	0.000016	0.256828
C120	C	1.440749	-0.036946	0.250034
C121	C	1.351561	-0.036950	0.310383
C122	C	1.351507	-0.246696	0.667970
C123	C	1.440675	-0.307043	0.667979
C124	C	1.485275	-0.374182	0.631018
C125	C	1.440696	-0.380973	0.594053
C126	C	1.351524	-0.320626	0.594048
H127	H	1.130537	0.192059	0.563997
Br128	Br	0.363504	0.472092	0.928977
H129	H	0.932364	0.094845	0.371930
H130	H	0.306849	0.423307	1.054440
Br131	Br	0.766911	-0.038396	0.258157
H132	H	0.306838	-0.000055	1.054361
Br133	Br	0.932391	-0.123215	0.015998
H134	H	1.084179	0.503377	0.518703
Br135	Br	0.573742	0.329824	0.718179
H136	H	0.734210	0.807947	0.698063
H137	H	0.549498	0.326166	0.823123
H138	H	0.549487	0.067042	0.957215
Br139	Br	0.363588	0.472076	0.718191
Br140	Br	0.258455	0.456128	0.631073
H141	H	1.130527	0.673850	0.563945
H142	H	1.477015	0.067072	0.329518
Br143	Br	0.735131	0.637875	0.776963
H144	H	1.477018	-0.301490	0.195351
Br145	Br	1.501286	-0.472091	0.333078
H146	H	0.387728	0.301571	0.564000
Br147	Br	1.291049	-0.329856	0.475376
Br148	Br	1.606376	0.000029	0.174931
Br149	Br	0.363566	-0.087160	0.928845
H150	H	0.387704	0.067010	1.066698
Br151	Br	0.932355	-0.123204	-0.126249
H152	H	1.477080	-0.067033	0.195356
H153	H	1.315265	-0.067043	0.304840
H154	H	1.315223	0.067067	0.438989
Br155	Br	0.573700	0.155617	0.543916
H156	H	0.780557	0.496630	0.743364
Br157	Br	0.674916	0.702130	0.718140
Br158	Br	1.290998	-0.155587	0.718136
Br159	Br	0.573741	0.155580	0.960878
Br160	Br	0.363568	0.297800	1.103149
H161	H	1.476962	-0.301500	0.698079
Br162	Br	1.606297	-0.456075	0.631030
Br163	Br	1.291015	-0.155578	0.301177
Br164	Br	1.606376	-0.456065	0.174842
Br165	Br	1.501248	-0.472095	0.543888
H166	H	0.932362	0.094825	-0.109864
Br167	Br	1.291055	-0.329857	0.543871
Br168	Br	0.932365	0.123203	0.016016
Br169	Br	1.097871	0.038384	0.003894
H170	H	1.130533	0.301550	0.563982
H171	H	0.549538	-0.067073	0.823065
H172	H	1.130532	0.564358	0.563962
Br173	Br	1.129610	0.362121	0.485104
H174	H	0.734212	0.326152	0.698101
Br175	Br	0.674922	0.472090	0.718157
H176	H	0.932398	-0.094825	0.371913
H177	H	0.805019	-0.029557	0.119379
Br178	Br	0.932388	-0.123202	0.246038
H179	H	1.059681	0.029606	0.142691
H180	H	0.932373	0.094833	0.262430
