data_functionalizedCrystal
_audit_creation_method	'MofGen! by Chris Wilmer'
_symmetry_space_group_name_H-M	'P1'
_symmetry_Int_Tables_number	1
_symmetry_cell_setting	triclinic
loop_
_symmetry_equiv_pos_as_xyz
  x,y,z
_cell_length_a	14.853558
_cell_length_b	15.995292
_cell_length_c	13.930277
_cell_angle_alpha	89.998637
_cell_angle_beta	89.993309
_cell_angle_gamma	83.549875
loop_
_atom_site_label
_atom_site_type_symbol
_atom_site_fract_x
_atom_site_fract_y
_atom_site_fract_z
O1	O	1.196202	0.109283	-0.079812
O2	O	0.933721	0.122314	-0.079816
O3	O	1.072164	-0.006085	-0.079815
O4	O	1.057759	0.237681	-0.079813
O5	O	1.072144	-0.006087	0.079847
O6	O	0.933701	0.122311	0.079846
O7	O	1.196182	0.109280	0.079850
Zn8	Zn	1.064939	0.115795	0.105198
Zn9	Zn	1.064964	0.115799	-0.105164
O10	O	1.057740	0.237678	0.079849
C11	C	0.900123	0.121723	0.000015
C12	C	0.800042	0.119958	0.000013
C13	C	0.753033	0.119132	-0.087022
C14	C	0.753011	0.119119	0.087047
C15	C	0.658980	0.117456	0.087049
C16	C	0.611971	0.116630	0.000013
C17	C	0.658994	0.117466	-0.087024
C18	C	0.611951	0.116611	0.174084
C19	C	0.517915	0.114947	0.174089
C20	C	0.470904	0.114126	0.087053
C21	C	0.517932	0.114964	0.000012
C22	C	0.470923	0.114138	-0.087023
C23	C	0.517949	0.114981	-0.174065
C24	C	0.611983	0.116646	-0.174060
C25	C	0.376870	0.112462	0.087048
C26	C	0.376884	0.112472	-0.087024
C27	C	1.071568	-0.037282	0.000013
C28	C	1.069810	-0.130237	0.000006
C29	C	1.063348	-0.467983	0.000015
C30	C	1.163273	-0.444558	0.000373
C31	C	1.165172	-0.347880	0.000009
C32	C	1.066555	-0.300423	0.000011
C33	C	1.016608	-0.329579	-0.091162
C34	C	1.015405	-0.426371	-0.091235
C35	C	1.013343	-0.426234	0.090331
C36	C	1.017046	-0.329737	0.091532
C37	C	1.068361	-0.205725	0.000006
C38	C	1.061539	-0.562681	0.000013
C39	C	1.229780	0.109870	0.000017
C40	C	1.329861	0.111636	0.000013
C41	C	1.058335	0.268876	0.000019
C42	C	1.060093	0.361831	0.000020
N43	N	1.064928	0.115792	0.248764
N44	N	1.064982	0.115795	-0.248730
C45	C	1.003659	0.172631	0.701033
C46	C	1.126294	0.058960	0.701003
C47	C	1.126283	0.058957	0.600507
C48	C	1.064961	0.115793	0.550269
C49	C	1.003648	0.172632	0.600528
C50	C	1.187600	0.002125	0.550241
C51	C	1.187593	0.002121	0.449739
C52	C	1.126265	0.058954	0.399500
C53	C	1.064950	0.115794	0.449764
C54	C	1.003627	0.172630	0.399527
C55	C	0.942307	0.229467	0.449790
C56	C	0.942321	0.229464	0.550289
C57	C	1.126251	0.058956	0.299001
C58	C	1.003616	0.172631	0.299022
H59	H	0.650280	0.117331	-0.244924
C60	C	1.193745	-0.003556	0.756267
N61	N	1.244550	-0.050647	0.797896
H62	H	1.053414	-0.311132	0.158981
H63	H	0.791325	0.119822	-0.157889
C64	C	1.218347	-0.322950	-0.088440
N65	N	1.258398	-0.304174	-0.155066
C66	C	0.804717	0.120072	0.182780
N67	N	0.843663	0.120809	0.254891
C68	C	0.325146	0.111532	0.182787
N69	N	0.286189	0.110834	0.254904
H70	H	0.953731	0.218905	0.741959
H71	H	0.939791	-0.440308	0.090946
H72	H	0.479634	0.114259	0.244963
C73	C	1.255050	-0.060390	0.605508
N74	N	1.305854	-0.107481	0.647140
C75	C	1.218019	-0.322117	0.088301
N76	N	1.257828	-0.302718	0.154803
C77	C	0.663656	0.117587	0.269816
N78	N	0.702601	0.118349	0.341925
C79	C	1.055624	-0.464357	0.183689
N80	N	1.087481	-0.493072	0.254002
H81	H	0.479663	0.114304	-0.244929
H82	H	0.944039	-0.297794	-0.094550
C83	C	1.215301	-0.482328	0.088700
N84	N	1.254489	-0.510784	0.155231
C85	C	1.215029	-0.483695	-0.087462
N86	N	1.254009	-0.513175	-0.153622
C87	C	1.255038	-0.060407	0.394460
N88	N	1.305836	-0.107507	0.352822
H89	H	0.945064	-0.296849	0.097040
H90	H	1.050012	-0.453147	-0.159389
H91	H	0.942140	-0.441004	-0.095364
H92	H	1.051308	-0.309478	-0.159012
C93	C	0.936178	0.235177	0.243769
N94	N	0.885392	0.282297	0.202153
H95	H	0.892381	0.275747	0.408875
C96	C	0.874870	0.291975	0.605585
N97	N	0.824066	0.339057	0.647238
H98	H	1.176181	0.012684	0.258082
H99	H	0.338616	0.111804	-0.157900
