data_functionalizedCrystal
_audit_creation_method	'MofGen! by Chris Wilmer'
_symmetry_space_group_name_H-M	'P1'
_symmetry_Int_Tables_number	1
_symmetry_cell_setting	triclinic
loop_
_symmetry_equiv_pos_as_xyz
  x,y,z
_cell_length_a	16.109302
_cell_length_b	16.109295
_cell_length_c	15.186229
_cell_angle_alpha	90.000628
_cell_angle_beta	89.994701
_cell_angle_gamma	96.539516
loop_
_atom_site_label
_atom_site_type_symbol
_atom_site_fract_x
_atom_site_fract_y
_atom_site_fract_z
O1	O	1.103128	-0.106869	-0.073262
O2	O	1.436461	0.226464	0.260071
O3	O	1.769795	0.559797	0.593405
O4	O	0.861066	-0.120168	-0.073254
O5	O	1.194399	0.213165	0.260079
O6	O	1.527733	0.546499	0.593412
O7	O	0.988749	0.007513	-0.073259
O8	O	1.322082	0.340846	0.260074
O9	O	1.655416	0.674179	0.593407
O10	O	0.975445	-0.234550	-0.073257
O11	O	1.308778	0.098783	0.260077
O12	O	1.642112	0.432117	0.593410
O13	O	0.988741	0.007514	0.073198
O14	O	1.322074	0.340848	0.406531
O15	O	1.655407	0.674181	0.739864
O16	O	0.861057	-0.120166	0.073203
O17	O	1.194391	0.213167	0.406536
O18	O	1.527724	0.546500	0.739870
O19	O	1.103120	-0.106867	0.073195
O20	O	1.436453	0.226466	0.406529
O21	O	1.769786	0.559799	0.739862
Zn22	Zn	0.982087	-0.113517	0.096452
Zn23	Zn	1.315420	0.219817	0.429786
Zn24	Zn	1.648754	0.553150	0.763119
Zn25	Zn	0.982098	-0.113519	-0.096511
Zn26	Zn	1.315432	0.219814	0.236822
Zn27	Zn	1.648765	0.553148	0.570155
O28	O	0.975436	-0.234548	0.073201
O29	O	1.308770	0.098785	0.406534
O30	O	1.642103	0.432119	0.739867
C31	C	0.830087	-0.119628	-0.000025
C32	C	1.163420	0.213705	0.333309
C33	C	1.496753	0.547038	0.666642
C34	C	0.737792	-0.118013	-0.000022
C35	C	1.071125	0.215320	0.333311
C36	C	1.404458	0.548654	0.666645
C37	C	0.525446	-0.114277	0.079803
C38	C	0.858779	0.219057	0.413136
C39	C	1.192113	0.552390	0.746470
C40	C	0.438726	-0.112750	0.079800
C41	C	0.772059	0.220583	0.413133
C42	C	1.105393	0.553917	0.746467
C43	C	0.438746	-0.112756	-0.079876
C44	C	0.772079	0.220577	0.253457
C45	C	1.105412	0.553910	0.586791
C46	C	0.525465	-0.114277	-0.079872
C47	C	0.858798	0.219056	0.253462
C48	C	1.192132	0.552390	0.586795
C49	C	0.568812	-0.115041	-0.000030
C50	C	0.902146	0.218292	0.333304
C51	C	1.235479	0.551625	0.666637
C52	C	0.395373	-0.111994	-0.000037
C53	C	0.728706	0.221339	0.333296
C54	C	1.062040	0.554673	0.666630
C55	C	0.301347	-0.110339	-0.000041
C56	C	0.634681	0.222995	0.333293
C57	C	0.968014	0.556328	0.666626
C58	C	0.662844	-0.116695	-0.000026
C59	C	0.996178	0.216638	0.333308
C60	C	1.329511	0.549971	0.666641
C61	C	1.134099	-0.107407	-0.000036
C62	C	1.467432	0.225926	0.333297
C63	C	1.800765	0.559260	0.666631
C64	C	1.226394	-0.109023	-0.000045
C65	C	1.559727	0.224311	0.333289
C66	C	1.893061	0.557644	0.666622
C67	C	0.988207	0.038489	-0.000033
C68	C	1.321540	0.371822	0.333300
C69	C	1.654873	0.705155	0.666634
C70	C	0.986593	0.130784	-0.000039
C71	C	1.319927	0.464117	0.333294
C72	C	1.653260	0.797451	0.666627
N73	N	0.982086	-0.113514	0.228145
N74	N	1.315419	0.219819	0.561478
N75	N	1.648752	0.553152	0.894812
C76	C	1.058606	0.353057	-0.000074
C77	C	1.391939	0.686390	0.333259
C78	C	1.725272	1.019724	0.666593
C79	C	1.057083	0.439778	-0.000089
C80	C	1.390417	0.773111	0.333245
C81	C	1.723750	1.106444	0.666578
C82	C	0.905594	0.419904	-0.000079
C83	C	1.238928	0.753237	0.333254
C84	C	1.572261	1.086570	0.666587
C85	C	0.907117	0.333185	-0.000071
C86	C	1.240451	0.666518	0.333262
C87	C	1.573784	0.999851	0.666596
C88	C	0.983626	0.299764	-0.000064
C89	C	1.316959	0.633097	0.333269
C90	C	1.650292	0.966431	0.666603
C91	C	0.980580	0.473203	-0.000087
C92	C	1.313913	0.806537	0.333247
C93	C	1.647247	1.139870	0.666580
C94	C	0.978929	0.567230	-0.000102
C95	C	1.312262	0.900563	0.333231
C96	C	1.645596	1.233896	0.666564
C97	C	0.985277	0.205732	-0.000050
C98	C	1.318610	0.539065	0.333283
C99	C	1.651944	0.872398	0.666617
C100	C	0.975984	0.734477	-0.000049
C101	C	1.309317	1.067810	0.333284
C102	C	1.642650	1.401143	0.666618
C103	C	0.977612	0.642183	-0.000111
C104	C	1.310945	0.975516	0.333222
C105	C	1.644279	1.308850	0.666555
N106	N	0.982107	-0.113514	-0.228204
N107	N	1.315440	0.219819	0.105129
N108	N	1.648773	0.553152	0.438463
C109	C	1.038643	-0.056996	0.453866
C110	C	1.371976	0.276337	0.787199
C111	C	1.705310	0.609670	1.120532
C112	C	1.038646	-0.056994	0.546055
C113	C	1.371979	0.276339	0.879389
C114	C	1.705312	0.609672	1.212722
C115	C	0.925543	-0.170035	0.546069
C116	C	1.258876	0.163298	0.879402
C117	C	1.592210	0.496632	1.212736
C118	C	0.925537	-0.170032	0.453881
C119	C	1.258871	0.163301	0.787214
C120	C	1.592204	0.496634	1.120548
C121	C	0.982092	-0.113514	0.407782
C122	C	1.315425	0.219819	0.741115
C123	C	1.648758	0.553153	1.074448
C124	C	0.982100	-0.113515	0.592159
C125	C	1.315434	0.219819	0.925493
C126	C	1.648767	0.553152	1.258826
C127	C	0.982103	-0.113513	0.692115
C128	C	1.315436	0.219820	1.025449
C129	C	1.648769	0.553154	1.358782
C130	C	0.982089	-0.113514	0.307819
C131	C	1.315422	0.219819	0.641153
C132	C	1.648755	0.553152	0.974486
H133	H	0.403442	-0.112135	-0.144880
H134	H	0.736775	0.221199	0.188453
H135	H	1.070108	0.554532	0.521786
H136	H	0.560737	-0.114899	0.144816
H137	H	0.894070	0.218434	0.478149
H138	H	1.227404	0.551767	0.811482
N139	N	1.099636	0.003961	0.404142
N140	N	1.432970	0.337294	0.737475
N141	N	1.766303	0.670627	1.070809
H142	H	1.135460	0.039765	0.447329
H143	H	1.468794	0.373098	0.780662
H144	H	1.802127	0.706432	1.113995
H145	H	1.067818	0.040726	0.365899
H146	H	1.401151	0.374059	0.699233
H147	H	1.734484	0.707393	1.032566
N148	N	1.141122	0.317011	-0.000067
N149	N	1.474456	0.650344	0.333266
N150	N	1.807789	0.983677	0.666599
H151	H	1.173973	0.336439	-0.054364
H152	H	1.507306	0.669772	0.278970
H153	H	1.840639	1.003105	0.612303
H154	H	1.130642	0.253994	-0.000024
H155	H	1.463975	0.587327	0.333309
H156	H	1.797309	0.920660	0.666643
N157	N	0.572248	-0.115092	-0.165981
N158	N	0.905581	0.218242	0.167352
N159	N	1.238914	0.551575	0.500686
H160	H	0.531629	-0.114381	-0.216561
H161	H	0.864963	0.218952	0.116772
H162	H	1.198296	0.552286	0.450105
H163	H	0.601476	-0.167230	-0.169457
H164	H	0.934810	0.166103	0.163876
H165	H	1.268143	0.499437	0.497209
N166	N	1.137954	0.497259	-0.000100
N167	N	1.471288	0.830592	0.333234
N168	N	1.804621	1.163926	0.666567
H169	H	1.186649	0.462925	-0.000094
H170	H	1.519983	0.796258	0.333240
H171	H	1.853316	1.129592	0.666573
H172	H	1.140618	0.533678	0.054189
H173	H	1.473952	0.867012	0.387522
H174	H	1.807285	1.200345	0.720856
N175	N	0.823078	0.455951	-0.000083
N176	N	1.156411	0.789284	0.333250
N177	N	1.489745	1.122617	0.666584
H178	H	0.833489	0.518974	-0.000087
H179	H	1.166822	0.852307	0.333247
H180	H	1.500156	1.185640	0.666580
H181	H	0.790268	0.436456	0.054214
H182	H	1.123602	0.769790	0.387548
H183	H	1.456935	1.103123	0.720881
H184	H	0.846056	0.289791	-0.000066
H185	H	1.179389	0.623124	0.333268
H186	H	1.512722	0.956457	0.666601
H187	H	1.084693	-0.010972	0.583574
H188	H	1.418027	0.322362	0.916908
H189	H	1.751360	0.655695	1.250241
N190	N	0.864548	-0.230992	0.595790
N191	N	1.197881	0.102341	0.929124
N192	N	1.531215	0.435675	1.262457
H193	H	0.873133	-0.222420	0.661184
H194	H	1.206466	0.110913	0.994518
H195	H	1.539799	0.444247	1.327851
H196	H	0.874131	-0.289976	0.579671
H197	H	1.207465	0.043358	0.913004
H198	H	1.540798	0.376691	1.246337
H199	H	0.879482	-0.216056	0.416357
H200	H	1.212816	0.117277	0.749690
H201	H	1.546149	0.450610	1.083024
H202	H	0.403421	-0.112128	0.144808
H203	H	0.736754	0.221206	0.478141
H204	H	1.070088	0.554539	0.811474
