data_functionalizedCrystal
_audit_creation_method	'MofGen! by Chris Wilmer'
_symmetry_space_group_name_H-M	'P1'
_symmetry_Int_Tables_number	1
_symmetry_cell_setting	triclinic
loop_
_symmetry_equiv_pos_as_xyz
  x,y,z
_cell_length_a	10.723024
_cell_length_b	15.995292
_cell_length_c	9.198806
_cell_angle_alpha	90.000241
_cell_angle_beta	90.003396
_cell_angle_gamma	83.968243
loop_
_atom_site_label
_atom_site_type_symbol
_atom_site_fract_x
_atom_site_fract_y
_atom_site_fract_z
O1	O	1.655653	0.117438	0.120872
O2	O	1.292353	0.128679	0.120876
O3	O	1.483972	0.001225	0.120876
O4	O	1.464034	0.244892	0.120872
O5	O	1.483958	0.001224	-0.120909
O6	O	1.292339	0.128678	-0.120909
O7	O	1.655638	0.117437	-0.120913
Cu8	Cu	1.473988	0.123057	-0.142988
Cu9	Cu	1.474004	0.123059	0.142951
O10	O	1.464020	0.244891	-0.120913
C11	C	1.245857	0.127861	-0.000016
C12	C	1.107335	0.125413	-0.000014
C13	C	1.483153	-0.029976	-0.000013
C14	C	1.480720	-0.122943	-0.000002
C15	C	1.031420	0.196730	-0.000015
C16	C	0.888250	0.194202	-0.000013
C17	C	1.471777	-0.460733	-0.000015
C18	C	1.610082	-0.436626	-0.000557
C19	C	1.612711	-0.339935	-0.000007
C20	C	1.476215	-0.293151	-0.000010
C21	C	1.407077	-0.322649	0.138058
C22	C	1.405412	-0.419449	0.138168
C23	C	1.402572	-0.419323	-0.136787
C24	C	1.407697	-0.322801	-0.138606
C25	C	1.478716	-0.198441	-0.000002
C26	C	1.469272	-0.555443	-0.000014
C27	C	1.702134	0.118256	-0.000018
C28	C	1.840657	0.120703	-0.000011
C29	C	1.464838	0.276092	-0.000021
C30	C	1.467271	0.369059	-0.000023
N31	N	1.473985	0.123056	-0.344102
C32	C	1.554638	0.069426	-0.583703
C33	C	1.554622	0.069427	-0.416291
N34	N	1.474017	0.123053	0.344065
H35	H	1.072420	0.259658	-0.000024
F36	F	1.277472	-0.280458	-0.149510
H37	H	1.623679	0.023514	-0.645799
F38	F	1.459123	-0.455983	-0.273571
H39	H	0.905880	0.059647	-0.000001
F40	F	1.269509	-0.438375	-0.138009
H41	H	1.404953	0.168969	-0.406210
F42	F	1.644838	0.009409	-0.335103
F43	F	1.473490	-0.298152	-0.272116
H44	H	1.663385	-0.464317	-0.099571
F45	F	0.802993	0.274005	-0.000003
H46	H	1.066335	0.062485	0.000024
F47	F	1.383785	0.183072	-0.574775
F48	F	1.683460	-0.314657	-0.129386
F49	F	1.679385	-0.474154	0.128133
H50	H	1.667189	-0.321217	0.099137
F51	F	1.468019	-0.454143	0.273065
H52	H	1.304006	-0.434582	0.144422
F53	F	1.469846	-0.296072	0.272363
F54	F	1.275792	-0.281747	0.144774
