data_functionalizedCrystal
_audit_creation_method	'MofGen! by Chris Wilmer'
_symmetry_space_group_name_H-M	'P1'
_symmetry_Int_Tables_number	1
_symmetry_cell_setting	triclinic
loop_
_symmetry_equiv_pos_as_xyz
  x,y,z
_cell_length_a	18.050591
_cell_length_b	18.050589
_cell_length_c	15.296720
_cell_angle_alpha	80.353020
_cell_angle_beta	80.342895
_cell_angle_gamma	90.024669
loop_
_atom_site_label
_atom_site_type_symbol
_atom_site_fract_x
_atom_site_fract_y
_atom_site_fract_z
Zn1	Zn	1.062586	-0.368396	0.510205
Zn2	Zn	1.562586	0.131604	1.010205
Zn3	Zn	1.083992	-0.471110	0.359365
Zn4	Zn	1.583992	0.028890	0.859365
Zn5	Zn	0.959902	-0.346930	0.359358
Zn6	Zn	1.459902	0.153070	0.859358
Zn7	Zn	0.938361	-0.492534	0.510154
Zn8	Zn	1.438361	0.007466	1.010154
O9	O	1.011210	-0.419743	0.434770
O10	O	1.511210	0.080257	0.934770
O11	O	1.169347	-0.382040	0.490221
O12	O	1.669347	0.117960	0.990221
O13	O	1.085505	-0.436687	0.233128
O14	O	1.585505	0.063313	0.733128
O15	O	0.973580	-0.245855	0.379387
O16	O	1.473580	0.254145	0.879387
O17	O	1.185074	-0.457503	0.379399
O18	O	1.685074	0.042497	0.879399
O19	O	1.049022	-0.261627	0.490214
O20	O	1.549022	0.238373	0.990214
O21	O	0.994336	-0.345453	0.233123
O22	O	1.494336	0.154547	0.733123
O23	O	0.853123	-0.366227	0.379337
O24	O	1.353123	0.133773	0.879337
O25	O	0.936866	-0.494017	0.636396
O26	O	1.436866	0.005983	1.136396
O27	O	0.837297	-0.473201	0.490126
O28	O	1.337297	0.026799	0.990126
O29	O	1.028134	-0.402814	0.636434
O30	O	1.528134	0.097186	1.136434
O31	O	1.064618	-0.577874	0.379349
O32	O	1.564618	-0.077874	0.879349
O33	O	0.957623	-0.593614	0.490132
O34	O	1.457623	-0.093614	0.990132
C35	C	0.818265	-0.419710	0.434725
C36	C	1.318265	0.080290	0.934725
C37	C	0.735719	-0.419717	0.434727
C38	C	1.235719	0.080283	0.934727
C39	C	0.495457	-0.361513	0.374623
C40	C	0.995457	0.138487	0.874623
C41	C	0.533158	-0.355150	0.456948
C42	C	1.033158	0.144850	0.956948
C43	C	0.438588	-0.419765	0.434801
C44	C	0.938588	0.080235	0.934801
C45	C	0.547974	-0.426071	0.352445
C46	C	1.047974	0.073929	0.852445
C47	C	0.584579	-0.419739	0.434761
C48	C	1.084579	0.080261	0.934761
C49	C	0.475195	-0.413373	0.517170
C50	C	0.975195	0.086627	1.017170
C51	C	0.490014	-0.484318	0.412611
C52	C	0.990014	0.015682	0.912611
C53	C	0.527684	-0.477988	0.494993
C54	C	1.027684	0.022012	0.994993
C55	C	0.354486	-0.419779	0.434823
C56	C	0.854486	0.080221	0.934823
C57	C	0.668677	-0.419728	0.434748
C58	C	1.168677	0.080272	0.934748
C59	C	1.011123	-0.612693	0.434755
C60	C	1.511123	-0.112693	0.934755
C61	C	1.011149	-0.695242	0.434779
C62	C	1.511149	-0.195242	0.934779
C63	C	0.953017	-0.903276	0.495002
C64	C	1.453017	-0.403276	0.995002
C65	C	0.946650	-0.940992	0.412685
C66	C	1.446650	-0.440992	0.912685
C67	C	1.011220	-0.846374	0.434791
C68	C	1.511220	-0.346374	0.934791
C69	C	1.017623	-0.955741	0.517118
C70	C	1.517623	-0.455741	1.017118
C71	C	1.011287	-0.992362	0.434810
C72	C	1.511287	-0.492362	0.934810
C73	C	1.004824	-0.882997	0.352430
C74	C	1.504824	-0.382997	0.852430
C75	C	1.075820	-0.897749	0.456919
C76	C	1.575820	-0.397749	0.956919
C77	C	1.069487	-0.935434	0.374544
C78	C	1.569487	-0.435434	0.874544
C79	C	1.011180	-0.762274	0.434781
C80	C	1.511180	-0.262274	0.934781
C81	C	1.011329	-1.076458	0.434810
C82	C	1.511329	-0.576458	0.934810
C83	C	1.204909	-0.419776	0.434816
C84	C	1.704909	0.080224	0.934816
C85	C	1.287452	-0.419790	0.434836
C86	C	1.787452	0.080210	0.934836
C87	C	0.977710	-0.453200	0.670062
C88	C	1.477710	0.046800	1.170062
C89	C	0.963434	-0.467457	0.770329
C90	C	1.463434	0.032543	1.270329
C91	C	1.011316	-0.226042	0.434805
C92	C	1.511316	0.273958	0.934805
C93	C	1.011361	-0.143498	0.434820
C94	C	1.511361	0.356502	0.934820
C95	C	1.044624	-0.386362	0.200394
C96	C	1.544624	0.113638	0.700394
C97	C	1.059043	-0.371896	0.100128
C98	C	1.559043	0.128104	0.600128
C99	C	1.113271	-0.317713	1.053045
C100	C	1.613271	0.182287	1.553045
C101	C	1.126689	-0.304319	0.958839
C102	C	1.626689	0.195681	1.458839
C103	C	1.085876	-0.345102	0.911707
C104	C	1.585876	0.154898	1.411707
C105	C	1.031644	-0.399282	0.958790
C106	C	1.531644	0.100718	1.458790
C107	C	1.018229	-0.412682	1.053005
C108	C	1.518229	0.087318	1.553005
C109	C	0.990833	-0.440071	0.911667
C110	C	1.490833	0.059929	1.411667
C111	C	0.936601	-0.494251	0.958750
C112	C	1.436601	0.005749	1.458750
C113	C	0.923188	-0.507648	1.052956
C114	C	1.423188	-0.007648	1.552956
C115	C	0.964001	-0.466865	1.100088
C116	C	1.464001	0.033135	1.600088
C117	C	1.004248	-0.426671	0.817452
C118	C	1.504248	0.073329	1.317452
C119	C	0.909206	-0.521640	0.817412
C120	C	1.409206	-0.021640	1.317412
C121	C	0.895788	-0.535034	0.911618
C122	C	1.395788	-0.035034	1.411618
H123	H	0.470949	-0.538899	0.393830
H124	H	0.970949	-0.038899	0.893830
O125	O	0.585531	-0.432491	0.269334
O126	O	1.085531	0.067509	0.769334
C127	C	0.533534	-0.436274	0.210854
C128	C	1.033534	0.063726	0.710854
H129	H	0.476426	-0.456906	0.251892
H130	H	0.976426	0.043094	0.751892
H131	H	0.553996	-0.476922	0.163021
H132	H	1.053996	0.023078	0.663021
H133	H	0.528134	-0.378056	0.170360
H134	H	1.028134	0.121944	0.670360
O135	O	1.141007	-0.875023	0.479166
O136	O	1.641007	-0.375023	0.979166
C137	C	1.202376	-0.892300	0.416482
C138	C	1.702376	-0.392300	0.916482
H139	H	1.185174	-0.939948	0.382982
H140	H	1.685174	-0.439948	0.882982
H141	H	1.251385	-0.910420	0.452656
H142	H	1.751385	-0.410420	0.952656
H143	H	1.220192	-0.840505	0.363121
H144	H	1.720192	-0.340505	0.863121
H145	H	0.552196	-0.300548	0.475716
H146	H	1.052196	0.199452	0.975716
H147	H	0.903745	-0.888864	0.545849
H148	H	1.403745	-0.388864	1.045849
H149	H	0.953079	-0.477767	1.176798
H150	H	1.453079	0.022233	1.676798
H151	H	0.892050	-0.960107	0.393986
H152	H	1.392050	-0.460107	0.893986
O153	O	0.998446	-0.845477	0.269298
O154	O	1.498446	-0.345477	0.769298
C155	C	1.059565	-0.862176	0.205894
C156	C	1.559565	-0.362176	0.705894
H157	H	1.108544	-0.881360	0.241643
H158	H	1.608544	-0.381360	0.741643
H159	H	1.077613	-0.809786	0.153570
H160	H	1.577613	-0.309786	0.653570
H161	H	1.041962	-0.908882	0.171200
H162	H	1.541962	-0.408882	0.671200
H163	H	1.118744	-0.949692	0.323575
H164	H	1.618744	-0.449692	0.823575
O165	O	1.056831	-0.373987	0.771625
O166	O	1.556831	0.126013	1.271625
C167	C	1.022331	-0.318252	0.717153
C168	C	1.522331	0.181748	1.217153
H169	H	0.968051	-0.342427	0.703013
H170	H	1.468051	0.157573	1.203013
H171	H	1.062019	-0.298875	0.650917
H172	H	1.562019	0.201125	1.150917
H173	H	1.009026	-0.268386	0.753479
H174	H	1.509026	0.231614	1.253479
H175	H	0.541970	-0.527248	0.545925
H176	H	1.041970	-0.027248	1.045925
O177	O	0.870563	-0.560373	1.098589
O178	O	1.370563	-0.060373	1.598589
C179	C	0.890043	-0.631118	1.075565
C180	C	1.390043	-0.131118	1.575565
H181	H	0.928332	-0.622928	1.007171
H182	H	1.428332	-0.122928	1.507171
H183	H	0.836889	-0.663949	1.072315
H184	H	1.336889	-0.163949	1.572315
H185	H	0.920658	-0.663682	1.128591
H186	H	1.420658	-0.163682	1.628591
H187	H	1.023013	-0.987306	0.586734
H188	H	1.523013	-0.487306	1.086734
H189	H	0.481018	-0.312239	0.323812
H190	H	0.981018	0.187761	0.823812
O191	O	1.179368	-0.251640	0.913245
O192	O	1.679368	0.248360	1.413245
C193	C	1.212526	-0.218529	0.975042
C194	C	1.712526	0.281471	1.475042
H195	H	1.172547	-0.225501	1.042191
H196	H	1.672547	0.274499	1.542191
H197	H	1.224358	-0.156148	0.947836
H198	H	1.724358	0.343852	1.447836
H199	H	1.267484	-0.247161	0.985071
H200	H	1.767484	0.252839	1.485071
O201	O	1.098975	-0.331972	0.820196
O202	O	1.598975	0.168028	1.320196
C203	C	1.155605	-0.275419	0.788745
C204	C	1.655605	0.224581	1.288745
H205	H	1.158304	-0.239757	0.843050
H206	H	1.658304	0.260243	1.343050
H207	H	1.142186	-0.238267	0.725721
H208	H	1.642186	0.261733	1.225721
H209	H	1.212117	-0.302501	0.772032
H210	H	1.712117	0.197499	1.272032
H211	H	1.146499	-0.284517	1.091428
H212	H	1.646499	0.215483	1.591428
O213	O	0.843163	-0.587756	0.957260
O214	O	1.343163	-0.087756	1.457260
C215	C	0.862637	-0.658506	0.934249
C216	C	1.362637	-0.158506	1.434249
H217	H	0.900921	-0.650326	0.865852
H218	H	1.400921	-0.150326	1.365852
H219	H	0.809480	-0.691338	0.931012
H220	H	1.309480	-0.191338	1.431012
H221	H	0.893256	-0.691064	0.987276
H222	H	1.393256	-0.191064	1.487276
H223	H	0.443701	-0.407964	0.586821
H224	H	0.943701	0.092036	1.086821
H225	H	0.875974	-0.554850	0.779037
H226	H	1.375974	-0.054850	1.279037
