data_functionalizedCrystal
_audit_creation_method	'MofGen! by Chris Wilmer'
_symmetry_space_group_name_H-M	'P1'
_symmetry_Int_Tables_number	1
_symmetry_cell_setting	triclinic
loop_
_symmetry_equiv_pos_as_xyz
  x,y,z
_cell_length_a	11.026607
_cell_length_b	9.482900
_cell_length_c	10.654550
_cell_angle_alpha	99.426343
_cell_angle_beta	83.464540
_cell_angle_gamma	101.363848
loop_
_atom_site_label
_atom_site_type_symbol
_atom_site_fract_x
_atom_site_fract_y
_atom_site_fract_z
O1	O	1.633381	0.120893	-0.511463
O2	O	1.279571	0.120895	-0.451467
O3	O	1.464610	0.120889	-0.300492
O4	O	1.448342	0.120899	-0.662438
O5	O	1.427025	-0.120903	-0.331316
O6	O	1.241986	-0.120896	-0.482291
O7	O	1.595797	-0.120898	-0.542287
Cu8	Cu	1.415460	-0.142975	-0.515103
Cu9	Cu	1.459908	0.142971	-0.478650
O10	O	1.410758	-0.120892	-0.693262
C11	C	1.215474	-0.000000	-0.455811
C12	C	1.080483	0.000001	-0.422816
C13	C	1.007444	0.000004	-0.513919
C14	C	0.867923	0.000005	-0.479820
N15	N	1.384206	-0.344094	-0.540743
C16	C	1.450681	-0.416295	-0.486205
C17	C	1.424686	-0.583712	-0.507549
C18	C	1.659894	0.000000	-0.537943
C19	C	1.794887	0.000009	-0.570936
C20	C	1.444623	-0.000005	-0.268847
C21	C	1.441050	-0.000000	-0.128627
N22	N	1.491171	0.344091	-0.453003
C23	C	1.430745	0.000005	-0.724907
C24	C	1.434319	0.000010	-0.865125
C25	C	1.549998	-0.000005	-0.072791
C26	C	1.546634	0.000005	0.058961
C27	C	1.325364	0.000019	0.079031
C28	C	1.328730	0.000019	-0.052718
C29	C	1.677746	-0.000020	-0.084378
C30	C	1.674382	-0.000010	0.047374
H31	H	1.048204	-0.000001	-0.617161
H32	H	1.348521	-0.645833	-0.570043
H33	H	0.827174	0.000039	-0.376567
H34	H	1.526832	-0.354170	-0.423704
H35	H	1.308046	-0.406221	-0.603233
H36	H	1.567327	-0.593788	-0.390498
H37	H	1.039728	0.000035	-0.319570
H38	H	1.706788	-0.101197	0.065786
H39	H	1.240017	0.000044	-0.098171
H40	H	0.835639	0.000002	-0.674185
H41	H	1.233917	0.000036	0.140852
H42	H	1.743441	0.101162	-0.111684
H43	H	1.702198	-0.104421	-0.142145
H44	H	1.729218	0.104389	0.097946
