data_functionalizedCrystal
_audit_creation_method	'MofGen! by Chris Wilmer'
_symmetry_space_group_name_H-M	'P1'
_symmetry_Int_Tables_number	1
_symmetry_cell_setting	triclinic
loop_
_symmetry_equiv_pos_as_xyz
  x,y,z
_cell_length_a	12.759395
_cell_length_b	25.639239
_cell_length_c	12.759387
_cell_angle_alpha	89.962425
_cell_angle_beta	89.981185
_cell_angle_gamma	90.040223
loop_
_atom_site_label
_atom_site_type_symbol
_atom_site_fract_x
_atom_site_fract_y
_atom_site_fract_z
Zn1	Zn	1.606076	-0.208096	-0.593964
Zn2	Zn	1.605898	-0.295543	-0.418267
Zn3	Zn	1.430379	-0.208126	-0.418301
Zn4	Zn	1.430293	-0.295504	-0.593906
O5	O	1.518162	-0.251817	-0.506110
O6	O	1.753074	-0.219700	-0.570668
O7	O	1.582577	-0.283976	-0.271250
O8	O	1.453796	-0.134957	-0.441641
O9	O	1.752943	-0.283947	-0.441584
O10	O	1.582880	-0.134935	-0.570700
O11	O	1.453624	-0.219751	-0.271275
O12	O	1.283347	-0.219713	-0.441585
O13	O	1.453649	-0.283881	-0.740935
O14	O	1.283283	-0.283910	-0.570602
O15	O	1.582796	-0.219662	-0.740978
O16	O	1.582493	-0.368703	-0.441528
O17	O	1.453477	-0.368675	-0.570569
C18	C	1.245194	-0.251811	-0.506092
C19	C	1.128418	-0.251821	-0.506109
C20	C	1.517985	-0.387660	-0.506062
C21	C	1.518006	-0.445774	-0.506076
C22	C	1.128390	-0.318777	-0.640236
C23	C	1.073515	-0.352259	-0.707303
C24	C	0.963794	-0.352265	-0.707316
C25	C	0.908944	-0.318785	-0.640257
C26	C	0.963819	-0.285303	-0.573190
C27	C	1.073543	-0.285301	-0.573182
C28	C	0.963846	-0.218345	-0.439070
C29	C	1.073568	-0.218340	-0.439050
C30	C	0.908997	-0.184865	-0.372011
C31	C	0.963871	-0.151384	-0.304937
C32	C	1.073600	-0.151380	-0.304926
C33	C	1.128443	-0.184858	-0.371983
C34	C	1.585516	-0.806139	-0.439032
C35	C	1.585557	-0.860744	-0.439046
O36	O	1.642773	-0.888982	-0.381991
N37	N	1.518346	-0.888056	-0.506179
C38	C	1.451099	-0.860762	-0.573310
O39	O	1.393935	-0.889008	-0.630414
C40	C	1.451064	-0.806159	-0.573300
C41	C	1.518271	-0.778849	-0.506156
C42	C	1.652718	-0.778829	-0.371894
C43	C	1.652676	-0.724229	-0.371879
C44	C	1.585431	-0.696938	-0.439002
C45	C	1.518229	-0.724248	-0.506140
C46	C	1.383822	-0.778865	-0.640436
C47	C	1.383794	-0.724258	-0.640421
C48	C	1.451001	-0.696948	-0.573276
C49	C	1.450941	-0.642357	-0.573249
N50	N	1.518152	-0.615044	-0.506116
C51	C	1.585397	-0.642335	-0.438992
C52	C	1.451178	-0.975433	-0.573326
C53	C	1.451206	-1.030035	-0.573331
C54	C	1.585666	-1.030013	-0.439069
C55	C	1.585631	-0.975410	-0.439059
C56	C	1.518388	-0.948120	-0.506193
C57	C	1.585302	-0.527670	-0.438965
C58	C	1.585250	-0.473065	-0.438953
C59	C	1.450795	-0.473092	-0.573219
C60	C	1.450842	-0.527692	-0.573228
C61	C	1.518104	-0.554980	-0.506097
O62	O	1.393757	-0.614084	-0.630278
O63	O	1.642560	-0.614083	-0.381908
C64	C	1.792195	-0.251824	-0.506128
C65	C	1.908972	-0.251827	-0.506136
C66	C	1.518233	-0.251763	-0.780143
C67	C	1.518263	-0.251740	-0.896920
C68	C	1.518368	-0.115444	-0.506181
C69	C	1.518456	-0.057330	-0.506211
C70	C	1.383993	-0.184858	-0.896965
C71	C	1.316878	-0.151407	-0.951848
C72	C	1.316909	-0.151388	-1.061570
C73	C	1.384061	-0.184825	-1.116411
C74	C	1.451177	-0.218277	-1.061527
C75	C	1.451141	-0.218291	-0.951803
C76	C	1.585440	-0.285161	-1.061483
C77	C	1.585416	-0.285178	-0.951761
C78	C	1.652593	-0.318598	-1.116324
C79	C	1.719715	-0.352047	-1.061441
C80	C	1.719682	-0.352065	-0.951712
C81	C	1.652531	-0.318629	-0.896878
C82	C	1.518151	-0.251833	-0.233142
C83	C	1.518324	-0.251709	-0.116366
H84	H	1.217731	-0.318779	-0.640225
N85	N	1.248369	-0.117218	-1.117653
N86	N	1.248418	-0.117208	-1.215618
H87	H	1.200013	-0.093075	-1.255230
N88	N	1.384066	-0.184807	-1.228488
N89	N	1.324128	-0.154942	-1.277478
H90	H	1.324129	-0.154930	-1.356634
H91	H	1.640075	-0.549881	-0.384303
N92	N	1.652596	-0.318524	-1.228401
N93	N	1.674626	-0.277701	-1.277302
H94	H	1.674622	-0.277630	-1.356459
H95	H	0.819603	-0.318789	-0.640283
H96	H	1.118186	-0.379517	-0.761903
N97	N	1.240520	-0.184858	-0.371999
N98	N	1.289529	-0.173982	-0.454000
H99	H	1.368686	-0.173983	-0.454019
H100	H	0.919115	-0.379527	-0.761933
H101	H	1.396470	-1.052266	-0.627997
N102	N	1.653905	-0.445177	-0.370350
N103	N	1.713939	-0.469554	-0.310426
H104	H	1.762426	-0.449861	-0.261976
H105	H	1.329090	-0.801092	-0.695107
H106	H	1.396042	-0.450863	-0.627867
H107	H	0.919204	-0.124125	-0.250348
H108	H	1.774381	-0.379271	-1.106101
H109	H	1.652501	-0.318638	-0.807537
H110	H	1.383969	-0.184866	-0.807623
H111	H	1.118272	-0.124111	-0.250319
H112	H	1.396120	-0.549929	-0.627905
H113	H	1.262201	-0.124184	-0.907184
H114	H	1.396411	-0.953216	-0.627992
N115	N	1.315118	-0.696383	-0.709013
N116	N	1.322048	-0.702442	-0.805965
H117	H	1.273546	-0.682756	-0.854408
N118	N	0.796920	-0.184872	-0.372043
N119	N	0.747935	-0.214769	-0.431927
H120	H	0.668778	-0.214774	-0.431948
H121	H	1.774339	-0.379303	-0.907033
H122	H	1.707405	-0.701996	-0.317207
H123	H	1.707483	-0.801044	-0.317234
H124	H	1.640358	-0.953177	-0.384385
H125	H	1.640424	-1.052243	-0.384417
