data_functionalizedCrystal
_audit_creation_method	'MofGen! by Chris Wilmer'
_symmetry_space_group_name_H-M	'P1'
_symmetry_Int_Tables_number	1
_symmetry_cell_setting	triclinic
loop_
_symmetry_equiv_pos_as_xyz
  x,y,z
_cell_length_a	10.723024
_cell_length_b	10.723024
_cell_length_c	8.140239
_cell_angle_alpha	89.997644
_cell_angle_beta	89.997577
_cell_angle_gamma	84.467869
loop_
_atom_site_label
_atom_site_type_symbol
_atom_site_fract_x
_atom_site_fract_y
_atom_site_fract_z
O1	O	1.657185	0.175025	-0.136598
O2	O	1.294033	0.191779	-0.136603
O3	O	1.483986	0.001826	-0.136595
O4	O	1.467233	0.364978	-0.136607
O5	O	1.483975	0.001824	0.136632
O6	O	1.294023	0.191776	0.136624
O7	O	1.657175	0.175023	0.136629
Zn8	Zn	1.475597	0.183399	0.180007
Zn9	Zn	1.475611	0.183402	-0.179982
O10	O	1.467222	0.364976	0.136620
C11	C	1.247528	0.190558	0.000009
C12	C	1.108974	0.186911	0.000007
C13	C	1.033991	0.293198	0.000003
C14	C	0.890788	0.289431	0.000001
C15	C	1.482762	-0.044675	0.000017
C16	C	1.479114	-0.183229	0.000011
C17	C	1.585401	-0.258212	0.000010
C18	C	1.581634	-0.401415	0.000004
C19	C	1.703680	0.176243	0.000012
C20	C	1.842234	0.179891	0.000004
C21	C	1.468447	0.411477	0.000005
C22	C	1.472094	0.550031	-0.000000
N23	N	1.475597	0.183397	0.425689
N24	N	1.475621	0.183395	-0.425664
H25	H	0.826355	0.380421	-0.000010
H26	H	1.075814	0.386984	0.000009
H27	H	0.906659	0.088896	-0.000003
H28	H	1.067152	0.093125	-0.000031
C29	C	1.691241	-0.070830	0.000029
C30	C	1.712017	-0.201767	0.000021
H31	H	1.769413	-0.035989	0.000046
H32	H	1.645130	-0.043844	-0.095248
H33	H	1.645107	-0.043857	0.095314
H34	H	1.758144	-0.228741	-0.095271
H35	H	1.758148	-0.228764	0.095307
H36	H	1.672624	-0.465848	0.000011
C37	C	1.344382	-0.287304	-0.140460
C38	C	1.349245	-0.363007	-0.000005
H39	H	1.268536	-0.233618	-0.140466
H40	H	1.413584	-0.238283	-0.140440
H41	H	1.347709	-0.338675	-0.235731
H42	H	1.345928	-0.311636	0.095266
H43	H	1.280025	-0.412033	-0.000010
H44	H	1.385328	-0.225051	-0.000001
