data_functionalizedCrystal
_audit_creation_method	'MofGen! by Chris Wilmer'
_symmetry_space_group_name_H-M	'P1'
_symmetry_Int_Tables_number	1
_symmetry_cell_setting	triclinic
loop_
_symmetry_equiv_pos_as_xyz
  x,y,z
_cell_length_a	10.723024
_cell_length_b	10.723023
_cell_length_c	9.198806
_cell_angle_alpha	90.002799
_cell_angle_beta	89.996352
_cell_angle_gamma	95.532291
loop_
_atom_site_label
_atom_site_type_symbol
_atom_site_fract_x
_atom_site_fract_y
_atom_site_fract_z
O1	O	1.657187	-0.175025	-0.120882
O2	O	1.294035	-0.191778	-0.120887
O3	O	1.483988	-0.001825	-0.120876
O4	O	1.467234	-0.364977	-0.120893
O5	O	1.483973	-0.001824	0.120909
O6	O	1.294020	-0.191777	0.120898
O7	O	1.657172	-0.175024	0.120903
Cu8	Cu	1.475595	-0.183401	0.142978
Cu9	Cu	1.475612	-0.183401	-0.142961
O10	O	1.467219	-0.364977	0.120892
C11	C	1.247528	-0.190558	0.000005
C12	C	1.108973	-0.186911	0.000004
C13	C	1.033991	-0.293198	-0.000002
C14	C	0.890787	-0.289431	-0.000004
C15	C	1.482762	0.044675	0.000016
C16	C	1.479114	0.183229	0.000013
C17	C	1.703679	-0.176243	0.000008
C18	C	1.842234	-0.179891	0.000000
C19	C	1.477496	0.244995	-0.125240
C20	C	1.473727	0.388198	-0.125246
C21	C	1.468445	0.588523	0.000001
C22	C	1.472093	0.449969	0.000004
N23	N	1.475591	-0.183399	0.344092
N24	N	1.475626	-0.183393	-0.344075
C25	C	1.555347	-0.103292	0.416293
C26	C	1.555366	-0.103288	0.583705
H27	H	0.826354	-0.380421	-0.000015
H28	H	1.473491	0.396861	0.107243
C29	C	1.647572	-0.010641	0.332381
H30	H	1.635465	-0.022804	0.230869
H31	H	1.633100	0.072727	0.357262
H32	H	1.731059	-0.024706	0.357231
H33	H	0.906659	-0.088896	-0.000004
C34	C	1.383375	-0.276054	0.572072
H35	H	1.333356	-0.326316	0.639100
H36	H	1.330950	-0.230803	0.512703
H37	H	1.428916	-0.328230	0.512689
C38	C	1.090476	-0.419900	-0.000010
H39	H	1.179315	-0.405810	-0.000018
H40	H	1.063479	-0.466030	0.084300
H41	H	1.063492	-0.466021	-0.084342
H42	H	1.477701	0.236366	0.107242
H43	H	1.067152	-0.093125	-0.000029
H44	H	1.623653	-0.034709	0.645796
H45	H	1.478896	0.191856	-0.232470
H46	H	1.472341	0.441315	-0.232480
H47	H	1.407318	-0.251975	0.406216
