data_functionalizedCrystal
_audit_creation_method	'MofGen! by Chris Wilmer'
_symmetry_space_group_name_H-M	'P1'
_symmetry_Int_Tables_number	1
_symmetry_cell_setting	triclinic
loop_
_symmetry_equiv_pos_as_xyz
  x,y,z
_cell_length_a	10.654550
_cell_length_b	23.532407
_cell_length_c	9.730223
_cell_angle_alpha	89.994043
_cell_angle_beta	89.996251
_cell_angle_gamma	83.666790
loop_
_atom_site_label
_atom_site_type_symbol
_atom_site_fract_x
_atom_site_fract_y
_atom_site_fract_z
O1	O	1.665300	0.079982	-0.114418
O2	O	1.299580	0.087603	-0.114398
O3	O	1.493468	0.000933	-0.114384
O4	O	1.471412	0.166652	-0.114433
O5	O	1.493466	0.000935	0.114196
O6	O	1.299578	0.087605	0.114182
O7	O	1.665298	0.079985	0.114161
Zn8	Zn	1.482437	0.083795	0.150464
Zn9	Zn	1.482440	0.083792	-0.150700
O10	O	1.471409	0.166655	0.114147
C11	C	1.252799	0.087044	-0.000105
C12	C	1.113408	0.085370	-0.000096
C13	C	1.032306	0.136400	-0.000131
C14	C	0.901335	0.134824	-0.000154
C15	C	0.932582	0.031183	-0.000113
C16	C	1.063550	0.032760	-0.000080
C17	C	1.014265	0.196236	-0.000161
C18	C	0.883294	0.194660	-0.000184
C19	C	1.492905	-0.020286	-0.000090
C20	C	1.491217	-0.083514	-0.000079
C21	C	1.595364	-0.481938	-0.000161
C22	C	1.593795	-0.541349	-0.000171
O23	O	1.690341	-0.577464	-0.000227
N24	N	1.478529	-0.564726	-0.000164
C25	C	1.364824	-0.528689	-0.000160
O26	O	1.266636	-0.554029	-0.000156
C27	C	1.366394	-0.469280	-0.000159
C28	C	1.481668	-0.445906	-0.000153
C29	C	1.710629	-0.458564	-0.000156
C30	C	1.712197	-0.399158	-0.000143
C31	C	1.598500	-0.363126	-0.000135
C32	C	1.483236	-0.386500	-0.000140
C33	C	1.252690	-0.433244	-0.000165
C34	C	1.254270	-0.373832	-0.000166
C35	C	1.369544	-0.350458	-0.000159
C36	C	1.371107	-0.291061	-0.000119
N37	N	1.486374	-0.267684	-0.000126
C38	C	1.600070	-0.303716	-0.000134
C39	C	1.361535	-0.653453	-0.000163
C40	C	1.359964	-0.712861	-0.000154
C41	C	1.588936	-0.725517	-0.000168
C42	C	1.590506	-0.666108	-0.000167
C43	C	1.476802	-0.630076	-0.000171
C44	C	1.603355	-0.178958	-0.000106
C45	C	1.604913	-0.119546	-0.000087
C46	C	1.375942	-0.106896	-0.000081
C47	C	1.374383	-0.166303	-0.000092
C48	C	1.488100	-0.202333	-0.000109
O49	O	1.274613	-0.254911	-0.000068
O50	O	1.698241	-0.278369	-0.000157
C51	C	1.712079	0.080543	-0.000135
C52	C	1.851469	0.082217	-0.000152
C53	C	1.471972	0.187873	-0.000149
C54	C	1.473661	0.251101	-0.000169
N55	N	1.482444	0.083797	0.356000
N56	N	1.482443	0.083786	-0.356237
C57	C	1.568320	0.045432	0.427932
C58	C	1.568317	0.045425	0.571815
C59	C	1.396559	0.122152	0.571821
C60	C	1.396557	0.122156	0.427941
C61	C	1.667486	0.001136	0.427930
C62	C	1.667483	0.001129	0.571813
H63	H	1.042853	0.219639	0.095498
H64	H	0.840848	0.217205	-0.095859
O65	O	1.265537	-0.071864	-0.000321
C66	C	1.259635	-0.037105	-0.118686
H67	H	1.324132	-0.058602	-0.201425
H68	H	1.158404	-0.030824	-0.158432
H69	H	1.291596	0.006215	-0.091916
O70	O	1.313081	0.159474	0.358278
C71	C	1.237259	0.193318	0.452632
H72	H	1.288735	0.194180	0.555189
H73	H	1.217512	0.238717	0.411057
H74	H	1.144221	0.174426	0.467946
O75	O	1.313258	0.159393	0.641920
C76	C	1.331646	0.151153	0.784338
H77	H	1.431747	0.130290	0.803987
H78	H	1.317127	0.194219	0.839021
H79	H	1.260934	0.122287	0.825171
H80	H	1.647430	-0.042635	0.388891
H81	H	1.280517	-0.185334	-0.000059
H82	H	1.758231	0.015006	0.383294
H83	H	1.268937	-0.624119	-0.000154
O84	O	1.143698	-0.338913	-0.000108
C85	C	1.041630	-0.372289	-0.000152
H86	H	1.074077	-0.416495	0.043118
H87	H	0.962005	-0.350703	0.066210
H88	H	1.006273	-0.376655	-0.109816
O89	O	0.884295	-0.019954	-0.000290
C90	C	0.925805	-0.051090	-0.118674
H91	H	1.016464	-0.035211	-0.158127
H92	H	0.944572	-0.098441	-0.092032
H93	H	0.849948	-0.044795	-0.201588
O94	O	1.247876	-0.735469	-0.000206
C95	C	1.147871	-0.690919	-0.000158
H96	H	1.182564	-0.650425	-0.043426
H97	H	1.067344	-0.703648	-0.066521
H98	H	1.112837	-0.682662	0.109506
O99	O	1.713736	-0.214011	0.000067
C100	C	1.719699	-0.248752	0.118463
H101	H	1.620066	-0.252167	0.157927
H102	H	1.767068	-0.293203	0.091834
H103	H	1.776785	-0.228979	0.201364
H104	H	1.806065	-0.380133	-0.000143
H105	H	1.158822	-0.452264	-0.000179
O106	O	1.142388	-0.016794	0.000207
C107	C	1.219068	-0.018969	0.118593
H108	H	1.170709	0.009965	0.201311
H109	H	1.234364	-0.064781	0.158356
H110	H	1.314136	-0.003852	0.091845
O111	O	1.056002	0.219064	-0.117817
C112	C	0.997964	0.275505	-0.133298
H113	H	0.965581	0.293253	-0.028600
H114	H	1.068461	0.303255	-0.179363
H115	H	0.912923	0.275647	-0.204449
O116	O	0.828286	0.216176	0.117674
C117	C	0.878978	0.183886	0.230699
H118	H	0.976008	0.161625	0.202395
H119	H	0.888287	0.213450	0.322068
H120	H	0.813630	0.150474	0.259032
O121	O	1.632500	-0.048218	0.624890
C122	C	1.509504	-0.055584	0.580049
H123	H	1.488002	-0.030367	0.481203
H124	H	1.502645	-0.102874	0.560066
H125	H	1.438409	-0.039466	0.662616
H126	H	1.763686	0.010886	0.610855
H127	H	1.681514	-0.754865	-0.000180
O128	O	1.716817	-0.096775	-0.000271
C129	C	1.724593	-0.062792	-0.118666
H130	H	1.625430	-0.048390	-0.158124
H131	H	1.774157	-0.023698	-0.092037
H132	H	1.780480	-0.088807	-0.201571
H133	H	1.803219	-0.487896	-0.000167
H134	H	1.684372	-0.647081	-0.000163
