data_functionalizedCrystal
_audit_creation_method	'MofGen! by Chris Wilmer'
_symmetry_space_group_name_H-M	'P1'
_symmetry_Int_Tables_number	1
_symmetry_cell_setting	triclinic
loop_
_symmetry_equiv_pos_as_xyz
  x,y,z
_cell_length_a	21.295417
_cell_length_b	18.215407
_cell_length_c	18.215399
_cell_angle_alpha	90.017777
_cell_angle_beta	89.967848
_cell_angle_gamma	89.973873
loop_
_atom_site_label
_atom_site_type_symbol
_atom_site_fract_x
_atom_site_fract_y
_atom_site_fract_z
Zn1	Zn	-0.250689	-1.125043	-0.416054
Zn2	Zn	0.249311	-0.625043	0.083946
Zn3	Zn	-0.355960	-1.124939	-0.292979
Zn4	Zn	0.144040	-0.624939	0.207021
Zn5	Zn	-0.250701	-1.001976	-0.293006
Zn6	Zn	0.249299	-0.501976	0.206994
Zn7	Zn	-0.355916	-1.001930	-0.416008
Zn8	Zn	0.144084	-0.501930	0.083992
O9	O	-0.303317	-1.063472	-0.354512
O10	O	0.196683	-0.563472	0.145488
O11	O	-0.264667	-1.228014	-0.399736
O12	O	0.235333	-0.728014	0.100264
O13	O	-0.342021	-1.108604	-0.189998
O14	O	0.157979	-0.608604	0.310002
O15	O	-0.162610	-1.018364	-0.309359
O16	O	0.337390	-0.518364	0.190641
O17	O	-0.342009	-1.227937	-0.309313
O18	O	0.157991	-0.727937	0.190687
O19	O	-0.162601	-1.108781	-0.399762
O20	O	0.337399	-0.608781	0.100238
O21	O	-0.264687	-1.018263	-0.190018
O22	O	0.235313	-0.518263	0.309982
O23	O	-0.264645	-0.898985	-0.309314
O24	O	0.235355	-0.398985	0.190686
O25	O	-0.341935	-1.018285	-0.518998
O26	O	0.158065	-0.518285	-0.018998
O27	O	-0.341946	-0.898951	-0.399684
O28	O	0.158054	-0.398951	0.100316
O29	O	-0.264625	-1.108736	-0.519032
O30	O	0.235375	-0.608736	-0.019032
O31	O	-0.444044	-1.108559	-0.309268
O32	O	0.055956	-0.608559	0.190732
O33	O	-0.444012	-1.018184	-0.399657
O34	O	0.055988	-0.518184	0.100343
C35	C	-0.303292	-0.872266	-0.354497
C36	C	0.196708	-0.372266	0.145503
C37	C	-0.303297	-0.790467	-0.354509
C38	C	0.196703	-0.290467	0.145491
C39	C	-0.263103	-0.602312	-0.401665
C40	C	0.236897	-0.102312	0.098335
C41	C	-0.263106	-0.525453	-0.401667
C42	C	0.236894	-0.025453	0.098333
C43	C	-0.343521	-0.525384	-0.307364
C44	C	0.156479	-0.025384	0.192636
C45	C	-0.343515	-0.602242	-0.307359
C46	C	0.156485	-0.102242	0.192641
C47	C	-0.303306	-0.640703	-0.354514
C48	C	0.196694	-0.140703	0.145486
C49	C	-0.303316	-0.486987	-0.354521
C50	C	0.196684	0.013013	0.145479
C51	C	-0.303320	-0.403654	-0.354522
C52	C	0.196680	0.096346	0.145478
C53	C	-0.303301	-0.724042	-0.354511
C54	C	0.196699	-0.224042	0.145489
C55	C	-0.466868	-1.063375	-0.354471
C56	C	0.033132	-0.563375	0.145529
C57	C	-0.536836	-1.063402	-0.354478
C58	C	-0.036836	-0.563402	0.145522
C59	C	-0.569699	-1.110502	-0.307461
C60	C	-0.069699	-0.610502	0.192539
C61	C	-0.635442	-1.110536	-0.307477
C62	C	-0.135442	-0.610536	0.192523
C63	C	-0.668319	-1.063457	-0.354503
C64	C	-0.168319	-0.563457	0.145497
C65	C	-0.635449	-1.016354	-0.401530
C66	C	-0.135449	-0.516354	0.098470
C67	C	-0.569707	-1.016326	-0.401517
C68	C	-0.069707	-0.516326	0.098483
N69	N	-0.771581	-0.999079	-0.360109
N70	N	-0.271581	-0.499079	0.139891
N71	N	-0.834032	-0.999107	-0.360117
N72	N	-0.334032	-0.499107	0.139883
C73	C	-0.866394	-1.063540	-0.354546
C74	C	-0.366394	-0.563540	0.145454
N75	N	-0.833945	-1.127944	-0.348952
N76	N	-0.333945	-0.627944	0.151048
N77	N	-0.771488	-1.127915	-0.348940
N78	N	-0.271488	-0.627915	0.151060
C79	C	-0.739604	-1.063483	-0.354523
C80	C	-0.239604	-0.563483	0.145477
C81	C	-0.970542	-1.110681	-0.307544
C82	C	-0.470542	-0.610681	0.192456
C83	C	-1.036285	-1.110717	-0.307565
C84	C	-0.536285	-0.610717	0.192435
C85	C	-1.036291	-1.016528	-0.401614
C86	C	-0.536291	-0.516528	0.098386
C87	C	-0.970549	-1.016499	-0.401596
C88	C	-0.470549	-0.516499	0.098404
C89	C	-0.937678	-1.063575	-0.354557
C90	C	-0.437678	-0.563575	0.145443
C91	C	-0.139126	-1.063589	-0.354569
C92	C	0.360874	-0.563589	0.145431
C93	C	-0.069158	-1.063639	-0.354593
C94	C	0.430842	-0.563639	0.145407
C95	C	-0.303273	-1.063517	-0.546465
C96	C	0.196727	-0.563517	-0.046465
C97	C	-0.303255	-1.063536	-0.628264
C98	C	0.196745	-0.563536	-0.128264
C99	C	-0.303335	-0.255425	-0.354525
C100	C	0.196665	0.244575	0.145475
C101	C	-0.303325	-0.337224	-0.354525
C102	C	0.196675	0.162776	0.145475
C103	C	-0.262962	-1.110651	-0.816476
C104	C	0.237038	-0.610651	-0.316476
C105	C	-0.262944	-1.110659	-0.893335
C106	C	0.237056	-0.610659	-0.393335
C107	C	-0.343450	-1.016473	-0.893289
C108	C	0.156550	-0.516473	-0.393289
C109	C	-0.343465	-1.016461	-0.816431
C110	C	0.156535	-0.516461	-0.316431
C111	C	-0.303222	-1.063554	-0.778027
C112	C	0.196778	-0.563554	-0.278027
C113	C	-0.303189	-1.063575	-0.931743
C114	C	0.196811	-0.563575	-0.431743
C115	C	-0.303169	-1.063584	-1.015077
C116	C	0.196831	-0.563584	-0.515077
C117	C	-0.303240	-1.063544	-0.694688
C118	C	0.196760	-0.563544	-0.194688
C119	C	-0.303315	-1.063470	-0.163305
C120	C	0.196685	-0.563470	0.336695
C121	C	-0.303156	-1.063593	-0.081507
C122	C	0.196844	-0.563593	0.418493
H123	H	-0.376258	-0.494060	-0.268973
H124	H	0.123742	0.005940	0.231027
C125	C	-0.387744	-0.644475	-0.255486
C126	C	0.112256	-0.144475	0.244514
N127	N	-0.421054	-0.676286	-0.216415
N128	N	0.078946	-0.176286	0.283585
H129	H	-0.542938	-1.148835	-0.269160
H130	H	-0.042938	-0.648835	0.230840
H131	H	-0.230159	-1.149009	-0.924637
H132	H	0.269841	-0.649009	-0.424637
H133	H	-0.943777	-1.149015	-0.269244
H134	H	-0.443777	-0.649015	0.230756
H135	H	-0.662203	-1.148893	-0.269190
H136	H	-0.162203	-0.648893	0.230810
C137	C	-1.072453	-0.964742	-0.453345
C138	C	-0.572453	-0.464742	0.046655
N139	N	-1.099693	-0.925737	-0.492312
N140	N	-0.599693	-0.425737	0.007688
C141	C	-0.934398	-0.964700	-0.453335
C142	C	-0.434398	-0.464700	0.046665
N143	N	-0.907170	-0.925690	-0.492315
N144	N	-0.407170	-0.425690	0.007685
C145	C	-0.218688	-1.162448	-0.774234
C146	C	0.281312	-0.662448	-0.274234
N147	N	-0.185337	-1.201460	-0.742420
N148	N	0.314663	-0.701460	-0.242420
C149	C	-0.387715	-0.964672	-0.935540
C150	C	0.112285	-0.464672	-0.435540
N151	N	-0.421055	-0.925655	-0.967364
N152	N	0.078945	-0.425655	-0.467364
H153	H	-0.230360	-0.633625	-0.440059
H154	H	0.269640	-0.133625	0.059941
C155	C	-0.218881	-0.483225	-0.453539
C156	C	0.281119	0.016775	0.046461
N157	N	-0.185568	-0.451420	-0.492612
N158	N	0.314432	0.048580	0.007388
H159	H	-0.662222	-0.978024	-0.439820
H160	H	-0.162222	-0.478024	0.060180
H161	H	-0.542950	-0.977971	-0.439805
H162	H	-0.042950	-0.477971	0.060195
H163	H	-1.063041	-1.149076	-0.269280
H164	H	-0.563041	-0.649076	0.230720
C165	C	-0.387755	-0.964646	-0.774135
C166	C	0.112245	-0.464646	-0.274135
N167	N	-0.421110	-0.925619	-0.742277
N168	N	0.078890	-0.425619	-0.242277
