data_functionalizedCrystal
_audit_creation_method	'MofGen! by Chris Wilmer'
_symmetry_space_group_name_H-M	'P1'
_symmetry_Int_Tables_number	1
_symmetry_cell_setting	triclinic
loop_
_symmetry_equiv_pos_as_xyz
  x,y,z
_cell_length_a	11.026607
_cell_length_b	15.944551
_cell_length_c	10.065875
_cell_angle_alpha	98.788968
_cell_angle_beta	79.302338
_cell_angle_gamma	96.042377
loop_
_atom_site_label
_atom_site_type_symbol
_atom_site_fract_x
_atom_site_fract_y
_atom_site_fract_z
O1	O	1.627949	0.342077	-0.113512
O2	O	1.274640	0.302024	-0.113511
O3	O	1.460941	0.201235	-0.113499
O4	O	1.441648	0.442866	-0.113524
O5	O	1.425416	0.220553	0.113487
O6	O	1.239115	0.321342	0.113475
O7	O	1.592424	0.361394	0.113475
Zn8	Zn	1.410129	0.344435	0.149514
Zn9	Zn	1.456935	0.318983	-0.149550
O10	O	1.406123	0.462183	0.113463
C11	C	1.211666	0.304294	-0.000018
C12	C	1.076950	0.282267	-0.000017
C13	C	1.003150	0.343086	-0.000024
C14	C	0.863914	0.320322	-0.000024
C15	C	1.442377	0.179479	-0.000006
C16	C	1.439975	0.085870	-0.000005
C17	C	1.318759	-0.147313	-0.000024
C18	C	1.357533	-0.190296	0.111894
C19	C	1.435632	-0.085514	-0.000015
C20	C	1.392586	-0.209321	-0.111896
C21	C	1.431429	-0.251063	-0.000031
C22	C	1.474424	-0.127256	0.111995
C23	C	1.509476	-0.146286	-0.111896
C24	C	1.548331	-0.189236	0.000049
C25	C	1.438050	0.009855	-0.000005
C26	C	1.429019	-0.346429	-0.000032
C27	C	1.655399	0.359124	-0.000022
C28	C	1.790116	0.381150	-0.000031
C29	C	1.424687	0.483939	-0.000034
C30	C	1.427090	0.577548	-0.000043
N31	N	1.378194	0.361806	0.353617
N32	N	1.488879	0.301607	-0.353654
C33	C	1.445816	0.325021	0.421401
C34	C	1.421248	0.338398	0.578566
H35	H	0.830005	0.450078	-0.000029
O36	O	0.816355	0.238099	0.000223
C37	C	0.837629	0.207889	0.117766
H38	H	0.851196	0.264046	0.199930
H39	H	0.924200	0.171212	0.091189
C40	C	0.708933	0.079603	0.070158
C41	C	0.725586	0.148576	0.171078
H42	H	0.639823	0.043013	0.103042
H43	H	0.694603	0.099954	-0.009036
H44	H	0.781083	0.049049	0.048020
H45	H	0.653443	0.179135	0.193203
H46	H	0.739901	0.128229	0.250277
H47	H	1.037057	0.213342	-0.000045
H48	H	1.043047	0.412009	-0.000024
H49	H	1.221730	-0.128661	0.000088
O50	O	1.280720	-0.213580	0.224671
C51	C	1.159792	-0.192481	0.224295
H52	H	1.148673	-0.187761	0.115385
H53	H	1.143053	-0.128721	0.290623
C54	C	1.078983	-0.267739	0.415170
C55	C	1.065324	-0.261948	0.281403
H56	H	1.020709	-0.310586	0.450403
H57	H	1.160455	-0.281951	0.415428
H58	H	1.065037	-0.214600	0.470426
H59	H	1.079285	-0.315082	0.226146
H60	H	0.983851	-0.247746	0.281138
O61	O	1.515872	-0.084928	0.224902
C62	C	1.636462	-0.106729	0.225179
H63	H	1.681829	-0.130280	0.116461
H64	H	1.631482	-0.159173	0.291782
C65	C	1.657914	0.001042	0.415901
C66	C	1.713638	-0.027877	0.282370
H67	H	1.705519	0.049679	0.451185
H68	H	1.576669	0.015728	0.415719
H69	H	1.653767	-0.042669	0.471387
H70	H	1.717770	0.015829	0.226883
H71	H	1.794886	-0.042554	0.282544
O72	O	1.664223	-0.211122	0.000192
C73	C	1.747218	-0.137538	0.001334
H74	H	1.693916	-0.079130	0.044840
H75	H	1.796002	-0.131048	-0.107270
C76	C	1.909445	-0.216565	0.037087
C77	C	1.843980	-0.144827	0.090532
H78	H	1.969136	-0.221062	0.092102
H79	H	1.853532	-0.266141	0.036312
H80	H	1.950087	-0.211147	-0.053416
H81	H	1.803326	-0.150251	0.181026
H82	H	1.899889	-0.095252	0.091324
O83	O	1.586222	-0.122898	-0.224633
C84	C	1.682388	-0.064614	-0.184517
H85	H	1.694660	-0.072851	-0.077388
H86	H	1.658073	0.003083	-0.184921
C87	C	1.788632	-0.071155	-0.416438
C88	C	1.803711	-0.081276	-0.284866
H89	H	1.863469	-0.081428	-0.478340
H90	H	1.723841	-0.110419	-0.443467
H91	H	1.768366	-0.014740	-0.416756
H92	H	1.823962	-0.137693	-0.284546
H93	H	1.868509	-0.042021	-0.257839
O94	O	1.351292	-0.251676	-0.224877
C95	C	1.323455	-0.192518	-0.303421
H96	H	1.377530	-0.128828	-0.278584
H97	H	1.220006	-0.183823	-0.278694
C98	C	1.293327	-0.303902	-0.486674
C99	C	1.359752	-0.225679	-0.456178
H100	H	1.315711	-0.324358	-0.580902
H101	H	1.312077	-0.343759	-0.433757
H102	H	1.207125	-0.296646	-0.466058
H103	H	1.445952	-0.232939	-0.476777
H104	H	1.341018	-0.185824	-0.509102
H105	H	1.302107	0.403200	0.411939
H106	H	1.521895	0.283620	0.363081
O107	O	1.330400	0.387678	0.648277
C108	C	1.242461	0.338463	0.730926
H109	H	1.287234	0.281750	0.752185
H110	H	1.161272	0.314676	0.675960
C111	C	1.140603	0.463104	0.840629
C112	C	1.195598	0.393451	0.866749
H113	H	1.111690	0.497023	0.924408
H114	H	1.199846	0.496260	0.784944
H115	H	1.072953	0.443270	0.794821
H116	H	1.263255	0.413285	0.912540
H117	H	1.136365	0.360299	0.922445
O118	O	1.579709	0.252259	0.576799
C119	C	1.694635	0.286755	0.611359
H120	H	1.678677	0.327873	0.715181
H121	H	1.744780	0.327401	0.530941
C122	C	1.793594	0.163487	0.489981
C123	C	1.773994	0.213982	0.617503
H124	H	1.842549	0.118598	0.493765
H125	H	1.716167	0.140247	0.466693
H126	H	1.835376	0.197367	0.422980
H127	H	1.732199	0.180104	0.684498
H128	H	1.851416	0.237215	0.640803
