data_functionalizedCrystal
_audit_creation_method	'MofGen! by Chris Wilmer'
_symmetry_space_group_name_H-M	'P1'
_symmetry_Int_Tables_number	1
_symmetry_cell_setting	triclinic
loop_
_symmetry_equiv_pos_as_xyz
  x,y,z
_cell_length_a	10.654556
_cell_length_b	14.519709
_cell_length_c	9.130313
_cell_angle_alpha	89.994534
_cell_angle_beta	89.998135
_cell_angle_gamma	84.083841
loop_
_atom_site_label
_atom_site_type_symbol
_atom_site_fract_x
_atom_site_fract_y
_atom_site_fract_z
O1	O	1.666589	0.129560	-0.121747
O2	O	2.166589	0.629560	0.378253
O3	O	1.300993	0.141895	-0.121763
O4	O	1.800993	0.641895	0.378237
O5	O	1.493484	0.001540	-0.121742
O6	O	1.993484	0.501540	0.378258
O7	O	1.474098	0.269916	-0.121769
O8	O	1.974098	0.769916	0.378231
O9	O	1.493471	0.001536	0.121857
O10	O	1.993471	0.501536	0.621857
O11	O	1.300980	0.141891	0.121836
O12	O	1.800980	0.641891	0.621836
O13	O	1.666576	0.129556	0.121851
O14	O	2.166576	0.629556	0.621851
Cu15	Cu	1.483777	0.135723	0.144086
Cu16	Cu	1.983777	0.635723	0.644086
Cu17	Cu	1.483792	0.135728	-0.143998
Cu18	Cu	1.983792	0.635728	0.356002
O19	O	1.474085	0.269912	0.121830
O20	O	1.974085	0.769912	0.621830
C21	C	1.254197	0.140986	0.000035
C22	C	1.754197	0.640986	0.500035
C23	C	1.114781	0.138273	0.000029
C24	C	1.614781	0.638273	0.500029
C25	C	0.918279	0.134455	-0.132745
C26	C	1.418279	0.634455	0.367255
C27	C	1.049277	0.136998	-0.132754
C28	C	1.549277	0.636998	0.367246
C29	C	1.049281	0.136994	0.132831
C30	C	1.549281	0.636994	0.632831
C31	C	0.918287	0.134443	0.132838
C32	C	1.418287	0.634443	0.632838
C33	C	1.492574	-0.032827	0.000058
C34	C	1.992574	0.467173	0.500058
C35	C	1.489867	-0.135222	0.000059
C36	C	1.989867	0.364778	0.500059
C37	C	1.479900	-0.510170	0.000020
C38	C	1.979900	-0.010170	0.500020
C39	C	1.482667	-0.405848	0.000031
C40	C	1.982667	0.094152	0.500031
C41	C	1.484883	-0.322699	0.000041
C42	C	1.984883	0.177301	0.500041
C43	C	1.487651	-0.218370	0.000049
C44	C	1.987651	0.281630	0.500049
C45	C	1.713372	0.130465	0.000051
C46	C	2.213372	0.630465	0.500051
C47	C	1.852788	0.133179	0.000046
C48	C	2.352788	0.633179	0.500046
C49	C	1.474995	0.304278	0.000027
C50	C	1.974995	0.804278	0.500027
C51	C	1.477702	0.406673	0.000017
C52	C	1.977702	0.906673	0.500017
N53	N	1.483775	0.135719	0.346709
N54	N	1.983775	0.635719	0.846709
N55	N	1.483804	0.135725	-0.346620
N56	N	1.983804	0.635725	0.153380
C57	C	1.569039	0.073596	0.423370
C58	C	2.069039	0.573596	0.923370
C59	C	1.569051	0.073596	0.576707
C60	C	2.069051	0.573596	1.076707
C61	C	1.398531	0.197851	0.576708
C62	C	1.898531	0.697851	1.076708
C63	C	1.398514	0.197845	0.423374
C64	C	1.898514	0.697845	0.923374
H65	H	0.864954	0.133424	-0.240873
H66	H	1.364954	0.633424	0.259127
H67	H	1.102594	0.138036	-0.240886
H68	H	1.602594	0.638036	0.259114
H69	H	1.102626	0.138026	0.240945
H70	H	1.602626	0.638026	0.740945
H71	H	0.864963	0.133403	0.240980
H72	H	1.364963	0.633403	0.740980
H73	H	1.638461	0.023008	0.360953
H74	H	2.138461	0.523008	0.860953
H75	H	1.329115	0.248434	0.639143
H76	H	1.829115	0.748434	1.139143
H77	H	1.638478	0.023009	0.639120
H78	H	2.138478	0.523009	1.139120
H79	H	1.329076	0.248434	0.360952
H80	H	1.829076	0.748434	0.860952
