data_functionalizedCrystal
_audit_creation_method	'MofGen! by Chris Wilmer'
_symmetry_space_group_name_H-M	'P1'
_symmetry_Int_Tables_number	1
_symmetry_cell_setting	triclinic
loop_
_symmetry_equiv_pos_as_xyz
  x,y,z
_cell_length_a	6.817900
_cell_length_b	7.190339
_cell_length_c	12.908943
_cell_angle_alpha	88.323418
_cell_angle_beta	79.139369
_cell_angle_gamma	119.388276
loop_
_atom_site_label
_atom_site_type_symbol
_atom_site_fract_x
_atom_site_fract_y
_atom_site_fract_z
V1	V	4.082639	0.292438	-0.327943
O2	O	3.979347	-0.016792	-0.322468
O3	O	4.120084	0.582491	-0.324963
O4	O	4.019231	0.286738	-0.471307
O5	O	4.080898	0.281008	-0.175110
V6	V	4.557088	0.255593	-0.309753
O7	O	4.363802	0.373262	-0.367846
O8	O	4.726123	0.174769	-0.269851
O9	O	4.296436	-0.034460	-0.312733
O10	O	4.777777	0.564824	-0.315229
O11	O	4.676226	0.267023	-0.462586
O12	O	4.397289	0.261293	-0.166389
C13	C	3.857805	0.275972	-0.506275
C14	C	3.887813	0.273231	-0.623471
C15	C	3.986471	0.653240	-0.319604
C16	C	4.100375	0.894811	-0.318098
C17	C	4.313718	0.289245	-0.854377
C18	C	4.341924	0.286670	-0.964493
C19	C	3.972426	0.265491	-0.953821
C20	C	3.944220	0.268066	-0.843704
C21	C	4.114876	0.279946	-0.793987
C22	C	4.086675	0.282537	-0.683869
C23	C	3.717172	0.261342	-0.673198
C24	C	3.745378	0.258767	-0.783314
C25	C	4.222061	0.272066	-0.131416
C26	C	4.171287	0.274797	-0.014219
H27	H	4.225638	0.292219	-0.643392
F28	F	4.495352	0.301917	-0.801463
H29	H	4.503838	0.294243	-1.013659
H30	H	3.833488	0.255804	-0.994319
H31	H	3.606438	0.249087	-0.823809
F32	F	3.505540	0.251458	-0.608919
