data_functionalizedCrystal
_audit_creation_method	'MofGen! by Chris Wilmer'
_symmetry_space_group_name_H-M	'P1'
_symmetry_Int_Tables_number	1
_symmetry_cell_setting	triclinic
loop_
_symmetry_equiv_pos_as_xyz
  x,y,z
_cell_length_a	19.077236
_cell_length_b	29.839131
_cell_length_c	19.077174
_cell_angle_alpha	92.262165
_cell_angle_beta	85.294282
_cell_angle_gamma	92.327558
loop_
_atom_site_label
_atom_site_type_symbol
_atom_site_fract_x
_atom_site_fract_y
_atom_site_fract_z
Zn1	Zn	1.093689	-0.162206	-0.441922
Zn2	Zn	1.593689	0.337794	0.058078
Zn3	Zn	1.088852	-0.234434	-0.324010
Zn4	Zn	1.588852	0.265566	0.175990
Zn5	Zn	0.971070	-0.162212	-0.319305
Zn6	Zn	1.471070	0.337788	0.180695
Zn7	Zn	0.975741	-0.240204	-0.437113
Zn8	Zn	1.475741	0.259796	0.062887
O9	O	1.032338	-0.199764	-0.380587
O10	O	1.532338	0.300236	0.119413
O11	O	1.191701	-0.169369	-0.430262
O12	O	1.691701	0.330631	0.069738
O13	O	1.069249	-0.222442	-0.224737
O14	O	1.569249	0.277558	0.275263
O15	O	0.987406	-0.099344	-0.335613
O16	O	1.487406	0.400656	0.164387
O17	O	1.188147	-0.222435	-0.343633
O18	O	1.688147	0.277565	0.156367
O19	O	1.077493	-0.099339	-0.425699
O20	O	1.577493	0.400661	0.074301
O21	O	0.982715	-0.169381	-0.221279
O22	O	1.482715	0.330619	0.278721
O23	O	0.873036	-0.174976	-0.330950
O24	O	1.373036	0.325024	0.169050
O25	O	0.995365	-0.232269	-0.536400
O26	O	1.495365	0.267731	-0.036400
O27	O	0.876467	-0.232276	-0.417504
O28	O	1.376467	0.267724	0.082496
O29	O	1.082022	-0.174964	-0.539933
O30	O	1.582022	0.325036	-0.039933
O31	O	1.073777	-0.298068	-0.338971
O32	O	1.573777	0.201932	0.161029
O33	O	0.990675	-0.302307	-0.422067
O34	O	1.490675	0.197693	0.077933
C35	C	0.849172	-0.204253	-0.373195
C36	C	1.349172	0.295747	0.126805
C37	C	0.770813	-0.206185	-0.370049
C38	C	1.270813	0.293815	0.129951
C39	C	0.735854	-0.179511	-0.413743
C40	C	1.235854	0.320489	0.086257
C41	C	0.662227	-0.181324	-0.410781
C42	C	1.162227	0.318676	0.089219
C43	C	0.623562	-0.209813	-0.364128
C44	C	1.123562	0.290187	0.135872
C45	C	0.658526	-0.236488	-0.320430
C46	C	1.158526	0.263512	0.179570
C47	C	0.732151	-0.234672	-0.323389
C48	C	1.232151	0.265328	0.176611
C49	C	0.403168	-0.218197	-0.350432
C50	C	0.903168	0.281803	0.149568
C51	C	0.329538	-0.220012	-0.347478
C52	C	0.829538	0.279988	0.152522
C53	C	0.333244	-0.164847	-0.437829
C54	C	0.833244	0.335153	0.062171
C55	C	0.406870	-0.163036	-0.440787
C56	C	0.906870	0.336964	0.059213
C57	C	0.441828	-0.189709	-0.397085
C58	C	0.941828	0.310291	0.102915
N59	N	0.548304	-0.211667	-0.361101
N60	N	1.048304	0.288333	0.138899
N61	N	0.517085	-0.187852	-0.400109
N62	N	1.017085	0.312148	0.099891
C63	C	1.032228	-0.316488	-0.380524
C64	C	1.532228	0.183512	0.119476
C65	C	1.032246	-0.366422	-0.380523
C66	C	1.532246	0.133578	0.119477
C67	C	1.079239	-0.676029	-0.427559
C68	C	1.579239	-0.176029	0.072441
C69	C	1.079317	-0.863701	-0.427605
C70	C	1.579317	-0.363701	0.072395
O71	O	1.119165	-0.887936	-0.467548
O72	O	1.619165	-0.387936	0.032452
N73	N	1.032461	-0.887205	-0.380671
N74	N	1.532461	-0.387205	0.119329
C75	C	0.985578	-0.863789	-0.333725
C76	C	1.485578	-0.363789	0.166275
O77	O	0.945721	-0.888087	-0.293810
O78	O	1.445721	-0.388087	0.206190
C79	C	0.985497	-0.676117	-0.333683
C80	C	1.485497	-0.176117	0.166317
C81	C	1.032362	-0.652615	-0.380616
C82	C	1.532362	-0.152615	0.119384
C83	C	1.126099	-0.652527	-0.474488
C84	C	1.626099	-0.152527	0.025512
C85	C	1.126082	-0.605612	-0.474474
C86	C	1.626082	-0.105612	0.025526
C87	C	1.079204	-0.582198	-0.427530
C88	C	1.579204	-0.082198	0.072470
C89	C	1.032344	-0.605700	-0.380601
C90	C	1.532344	-0.105700	0.119399
C91	C	0.938612	-0.652702	-0.286742
C92	C	1.438612	-0.152702	0.213258
C93	C	0.938594	-0.605781	-0.286737
C94	C	1.438594	-0.105781	0.213263
C95	C	0.985459	-0.582279	-0.333669
C96	C	1.485459	-0.082279	0.166331
C97	C	0.985449	-0.535371	-0.333643
C98	C	1.485449	-0.035371	0.166357
N99	N	1.032306	-0.511867	-0.380577
N100	N	1.532306	-0.011867	0.119423
C101	C	1.079183	-0.535281	-0.427521
C102	C	1.579183	-0.035281	0.072479
C103	C	0.985625	-0.962319	-0.333749
C104	C	1.485625	-0.462319	0.166251
C105	C	0.985646	-1.009236	-0.333758
C106	C	1.485646	-0.509236	0.166242
C107	C	1.079384	-1.009145	-0.427639
C108	C	1.579384	-0.509145	0.072361
C109	C	1.079366	-0.962227	-0.427626
C110	C	1.579366	-0.462227	0.072374
C111	C	1.032481	-0.938814	-0.380683
C112	C	1.532481	-0.438814	0.119317
C113	C	1.079144	-0.436755	-0.427487
C114	C	1.579144	0.063245	0.072513
C115	C	1.079124	-0.389835	-0.427466
C116	C	1.579124	0.110165	0.072534
C117	C	0.985383	-0.389930	-0.333588
C118	C	1.485383	0.110070	0.166412
C119	C	0.985405	-0.436846	-0.333606
C120	C	1.485405	0.063154	0.166394
C121	C	1.032288	-0.460257	-0.380561
C122	C	1.532288	0.039743	0.119439
O123	O	0.945617	-0.511107	-0.293726
O124	O	1.445617	-0.011107	0.206274
O125	O	1.119024	-0.510975	-0.467440
O126	O	1.619024	-0.010975	0.032560
C127	C	1.079256	-0.722944	-0.427574
C128	C	1.579256	-0.222944	0.072426
C129	C	1.032396	-0.746446	-0.380645
C130	C	1.532396	-0.246446	0.119355
C131	C	0.985519	-0.723033	-0.333701
C132	C	1.485519	-0.223033	0.166299
C133	C	1.032417	-0.793364	-0.380654
C134	C	1.532417	-0.293364	0.119346
C135	C	1.079295	-0.816777	-0.427597
C136	C	1.579295	-0.316777	0.072403
C137	C	1.126151	-0.793273	-0.474532
C138	C	1.626151	-0.293273	0.025468
C139	C	1.126134	-0.746358	-0.474517
C140	C	1.626134	-0.246358	0.025483
C141	C	0.938662	-0.746537	-0.286767
C142	C	1.438662	-0.246537	0.213233
C143	C	0.938684	-0.793452	-0.286785
C144	C	1.438684	-0.293452	0.213215
C145	C	0.985562	-0.816866	-0.333728
C146	C	1.485562	-0.316866	0.166272
C147	C	1.216219	-0.195258	-0.388009
C148	C	1.716219	0.304742	0.111991
C149	C	1.294578	-0.193338	-0.391172
C150	C	1.794578	0.306662	0.108828
C151	C	1.039754	-0.204260	-0.564461
C152	C	1.539754	0.295740	-0.064461
C153	C	1.042914	-0.206175	-0.642817
C154	C	1.542914	0.293825	-0.142817
C155	C	1.032468	-0.082585	-0.380668
C156	C	1.532468	0.417415	0.119332
C157	C	1.032523	-0.032650	-0.380702
C158	C	1.532523	0.467350	0.119298
C159	C	0.999348	-0.179450	-0.677828
C160	C	1.499348	0.320550	-0.177828
C161	C	1.002315	-0.181254	-0.751451
C162	C	1.502315	0.318746	-0.251451
C163	C	1.048852	-0.209781	-0.790062
C164	C	1.548852	0.290219	-0.290062
C165	C	1.092421	-0.236509	-0.755046
C166	C	1.592421	0.263491	-0.255046
C167	C	1.089450	-0.234708	-0.681424
C168	C	1.589450	0.265292	-0.181424
C169	C	1.062565	-0.218134	-1.010443
C170	C	1.562565	0.281866	-0.510443
C171	C	1.065534	-0.219933	-1.084070
C172	C	1.565534	0.280067	-0.584070
C173	C	0.975427	-0.164677	-1.080470
C174	C	1.475427	0.335323	-0.580470
C175	C	0.972463	-0.162876	-1.006847
C176	C	1.472463	0.337124	-0.506847
C177	C	1.016029	-0.189606	-0.971837
C178	C	1.516029	0.310394	-0.471837
N179	N	1.051887	-0.211624	-0.865318
N180	N	1.551887	0.288376	-0.365318
N181	N	1.012989	-0.187765	-0.896583
N182	N	1.512989	0.312235	-0.396583
C183	C	1.024991	-0.195253	-0.197431
C184	C	1.524991	0.304747	0.302569
C185	C	1.021967	-0.193207	-0.119081
C186	C	1.521967	0.306793	0.380919
H187	H	0.633767	-0.159604	-0.446363
H188	H	1.133767	0.340396	0.053637
H189	H	0.961456	-0.156217	-0.646396
H190	H	1.461456	0.343783	-0.146396
H191	H	1.098032	-0.239905	-0.981946
H192	H	1.598032	0.260095	-0.481946
O193	O	0.766085	-0.260652	-0.281021
O194	O	1.266085	0.239348	0.218979
C195	C	0.748668	-0.306260	-0.295553
C196	C	1.248668	0.193740	0.204447
H197	H	0.730708	-0.310460	-0.351050
H198	H	1.230708	0.189540	0.148950
H199	H	0.796823	-0.327105	-0.291358
H200	H	1.296823	0.172895	0.208642
H201	H	0.704392	-0.318096	-0.256003
H202	H	1.204392	0.181904	0.243997
O203	O	1.171611	-0.675220	-0.520188
O204	O	1.671611	-0.175220	-0.020188
C205	C	1.158967	-0.665843	-0.589809
C206	C	1.658967	-0.165843	-0.089809
H207	H	1.131897	-0.632497	-0.590143
H208	H	1.631897	-0.132497	-0.090143
H209	H	1.211100	-0.663714	-0.623507
H210	H	1.711100	-0.163714	-0.123507
H211	H	1.123683	-0.693735	-0.612075
H212	H	1.623683	-0.193735	-0.112075
H213	H	1.164323	-0.812344	-0.512752
H214	H	1.664323	-0.312344	-0.012752
O215	O	1.124910	-0.939470	-0.473288
O216	O	1.624910	-0.439470	0.026712
C217	C	1.166299	-0.970201	-0.514707
C218	C	1.666299	-0.470201	-0.014707
H219	H	1.137532	-1.004429	-0.515957
H220	H	1.637532	-0.504429	-0.015957
H221	H	1.176007	-0.957802	-0.570558
H222	H	1.676007	-0.457802	-0.070558
H223	H	1.218826	-0.973222	-0.491099
H224	H	1.718826	-0.473222	0.008901
H225	H	0.304773	-0.143130	-0.473407
H226	H	0.804773	0.356870	0.026593
H227	H	0.627039	-0.259682	-0.282441
H228	H	1.127039	0.240318	0.217559
H229	H	0.900522	-0.812583	-0.248560
H230	H	1.400522	-0.312583	0.251440
H231	H	0.431621	-0.239917	-0.314848
H232	H	0.931621	0.260083	0.185152
O233	O	0.940060	-1.031995	-0.288138
O234	O	1.440060	-0.531995	0.211862
C235	C	0.898695	-1.001262	-0.246695
C236	C	1.398695	-0.501262	0.253305
H237	H	0.897386	-0.968577	-0.275465
H238	H	1.397386	-0.468577	0.224535
H239	H	0.842854	-1.016027	-0.236890
H240	H	1.342854	-0.516027	0.263110
H241	H	0.922394	-0.994331	-0.194219
H242	H	1.422394	-0.494331	0.305781
O243	O	0.444320	-0.135318	-0.486117
O244	O	0.944320	0.364682	0.013883
C245	C	0.397675	-0.112169	-0.524059
C246	C	0.897675	0.387831	-0.024059
H247	H	0.344023	-0.111176	-0.493083
H248	H	0.844023	0.388824	0.006917
H249	H	0.419282	-0.076441	-0.532537
H250	H	0.919282	0.423559	-0.032537
H251	H	0.392004	-0.130171	-0.577237
H252	H	0.892004	0.369829	-0.077237
H253	H	1.124932	-0.256467	-0.652919
H254	H	1.624932	0.243533	-0.152919
O255	O	0.292083	-0.247698	-0.302095
O256	O	0.792083	0.252302	0.197905
C257	C	0.338725	-0.270860	-0.264170
C258	C	0.838725	0.229140	0.235830
H259	H	0.391123	-0.251104	-0.263889
H260	H	0.891123	0.248896	0.236111
H261	H	0.315191	-0.274764	-0.207759
H262	H	0.815191	0.225236	0.292241
H263	H	0.347575	-0.305442	-0.290193
H264	H	0.847575	0.194558	0.209807
O265	O	1.124821	-1.031918	-0.473315
O266	O	1.624821	-0.531918	0.026685
C267	C	1.086481	-1.061170	-0.517176
C268	C	1.586481	-0.561170	-0.017176
H269	H	1.031122	-1.048525	-0.519234
H270	H	1.531122	-0.548525	-0.019234
H271	H	1.114115	-1.062377	-0.572480
H272	H	1.614115	-0.562377	-0.072480
H273	H	1.083202	-1.096262	-0.495282
H274	H	1.583202	-0.596262	0.004718
H275	H	0.934565	-0.139647	-0.975414
H276	H	1.434565	0.360353	-0.475414
H277	H	1.117289	-0.370701	-0.465684
H278	H	1.617289	0.129299	0.034316
O279	O	1.124749	-0.459422	-0.473126
O280	O	1.624749	0.040578	0.026874
C281	C	1.166086	-0.428611	-0.514552
C282	C	1.666086	0.071389	-0.014552
H283	H	1.167370	-0.394412	-0.485761
H284	H	1.667370	0.105588	0.014239
H285	H	1.221937	-0.440951	-0.524370
H286	H	1.721937	0.059049	-0.024370
H287	H	1.142378	-0.425554	-0.567023
H288	H	1.642378	0.074446	-0.067023
H289	H	0.900488	-0.727477	-0.248541
H290	H	1.400488	-0.227477	0.251459
O291	O	1.171504	-0.582740	-0.520102
O292	O	1.671504	-0.082740	-0.020102
C293	C	1.133154	-0.557718	-0.563988
C294	C	1.633154	-0.057718	-0.063988
H295	H	1.078745	-0.551423	-0.536921
H296	H	1.578745	-0.051423	-0.036921
H297	H	1.162236	-0.524236	-0.574623
H298	H	1.662236	-0.024236	-0.074623
H299	H	1.127471	-0.577260	-0.615907
H300	H	1.627471	-0.077260	-0.115907
O301	O	0.940178	-0.939526	-0.288112
O302	O	1.440178	-0.439526	0.211888
C303	C	0.978504	-0.910289	-0.244214
C304	C	1.478504	-0.410289	0.255786
H305	H	1.032909	-0.902514	-0.271277
H306	H	1.532909	-0.402514	0.228723
H307	H	0.949395	-0.877792	-0.233570
H308	H	1.449395	-0.377792	0.266430
H309	H	0.984200	-0.926919	-0.192301
H310	H	1.484200	-0.426919	0.307699
H311	H	0.900450	-0.671829	-0.248524
H312	H	1.400450	-0.171829	0.251476
H313	H	0.900413	-0.586721	-0.248511
H314	H	1.400413	-0.086721	0.251489
O315	O	0.959970	-0.155246	-0.785351
O316	O	1.459970	0.344754	-0.285351
C317	C	0.918250	-0.129687	-0.735485
C318	C	1.418250	0.370313	-0.235485
H319	H	0.945012	-0.126141	-0.684171
H320	H	1.445012	0.373859	-0.184171
H321	H	0.911631	-0.094994	-0.756479
H322	H	1.411631	0.405006	-0.256479
H323	H	0.864371	-0.147256	-0.725480
H324	H	1.364371	0.352744	-0.225480
H325	H	0.947250	-0.455982	-0.295384
H326	H	1.447250	0.044018	0.204616
H327	H	1.130309	-0.259739	-0.786489
H328	H	1.630309	0.240261	-0.286489
O329	O	0.939873	-0.367113	-0.288058
O330	O	1.439873	0.132887	0.211942
C331	C	0.949922	-0.320664	-0.298105
C332	C	1.449922	0.179336	0.201895
H333	H	0.975166	-0.314993	-0.353455
H334	H	1.475166	0.185007	0.146545
H335	H	0.896919	-0.304039	-0.291154
H336	H	1.396919	0.195961	0.208846
H337	H	0.985804	-0.305398	-0.257833
H338	H	1.485804	0.194602	0.242167
O339	O	0.773338	-0.151864	-0.459158
O340	O	1.273338	0.348136	0.040842
C341	C	0.758197	-0.163919	-0.528666
C342	C	1.258197	0.336081	-0.028666
H343	H	0.704784	-0.182543	-0.527925
H344	H	1.204784	0.317457	-0.027925
H345	H	0.756985	-0.132364	-0.560277
H346	H	1.256985	0.367636	-0.060277
H347	H	0.800575	-0.186597	-0.554004
H348	H	1.300575	0.313403	-0.054004
H349	H	0.939957	-0.142915	-1.108983
H350	H	1.439957	0.357085	-0.608983
H351	H	1.164295	-0.727226	-0.512734
H352	H	1.664295	-0.227226	-0.012734
O353	O	1.110760	-0.247686	-1.121470
O354	O	1.610760	0.252314	-0.621470
C355	C	1.148588	-0.270885	-1.074784
C356	C	1.648588	0.229115	-0.574784
H357	H	1.117593	-0.271866	-1.021137
H358	H	1.617593	0.228134	-0.521137
H359	H	1.156925	-0.306616	-1.096339
H360	H	1.656925	0.193384	-0.596339
H361	H	1.201834	-0.252931	-1.069124
H362	H	1.701834	0.247069	-0.569124
