data_functionalizedCrystal
_audit_creation_method	'MofGen! by Chris Wilmer'
_symmetry_space_group_name_H-M	'P1'
_symmetry_Int_Tables_number	1
_symmetry_cell_setting	triclinic
loop_
_symmetry_equiv_pos_as_xyz
  x,y,z
_cell_length_a	10.654562
_cell_length_b	11.026607
_cell_length_c	9.130313
_cell_angle_alpha	89.999963
_cell_angle_beta	90.003070
_cell_angle_gamma	96.538060
loop_
_atom_site_label
_atom_site_type_symbol
_atom_site_fract_x
_atom_site_fract_y
_atom_site_fract_z
O1	O	1.704908	0.170837	0.121893
O2	O	1.342960	0.187091	0.121875
O3	O	1.493936	0.002057	0.121877
O4	O	1.553932	0.355871	0.121891
O5	O	1.493935	0.002062	-0.121721
O6	O	1.342959	0.187096	-0.121724
O7	O	1.704907	0.170842	-0.121705
Cu8	Cu	1.523933	0.178969	-0.143957
Cu9	Cu	1.523934	0.178964	0.144127
O10	O	1.553931	0.355876	-0.121708
C11	C	1.295902	0.185897	0.000073
C12	C	1.155682	0.182316	0.000066
C13	C	1.089788	0.180649	-0.132708
C14	C	0.958038	0.177295	-0.132684
C15	C	0.958087	0.177280	0.132901
C16	C	1.089835	0.180626	0.132875
C17	C	1.089759	0.180663	-0.286042
C18	C	0.958009	0.177309	-0.286017
C19	C	1.482867	-0.043245	0.000079
C20	C	1.449873	-0.178238	0.000083
C21	C	1.540976	-0.251273	0.000089
C22	C	1.506877	-0.390796	0.000093
C23	C	1.751965	0.172036	0.000100
C24	C	1.892185	0.175617	0.000116
C25	C	1.564999	0.401178	0.000094
C26	C	1.597994	0.536171	0.000100
N27	N	1.523941	0.178973	-0.346580
C28	C	1.590821	0.097068	-0.423231
C29	C	1.590814	0.097053	-0.576567
C30	C	1.457045	0.260859	-0.576589
C31	C	1.457045	0.260867	-0.423255
C32	C	1.668056	0.002500	-0.423219
C33	C	1.668049	0.002485	-0.576556
N34	N	1.523934	0.178951	0.346749
H35	H	1.117780	0.096640	-0.344928
H36	H	1.644218	-0.210508	0.000086
H37	H	1.143479	0.181965	0.240993
H38	H	1.626327	-0.090953	-0.381604
C39	C	1.737481	-0.408784	0.000104
C40	C	1.789316	-0.325258	-0.126391
C41	C	1.928801	-0.270214	-0.126386
C42	C	2.016450	-0.298697	0.000113
C43	C	1.964616	-0.382228	0.126617
C44	C	1.825132	-0.437271	0.126613
H45	H	1.724432	-0.304170	-0.220041
H46	H	1.967171	-0.208380	-0.220034
H47	H	2.119705	-0.257951	0.000116
H48	H	2.029500	-0.403316	0.220268
H49	H	1.786761	-0.499106	0.220260
C50	C	1.367392	-0.445846	0.000089
C51	C	1.279740	-0.417370	-0.126410
C52	C	1.140258	-0.472422	-0.126414
C53	C	1.088428	-0.555950	0.000081
C54	C	1.176082	-0.584431	0.126589
C55	C	1.315564	-0.529379	0.126593
H56	H	1.318106	-0.355533	-0.220058
H57	H	1.075372	-0.451338	-0.220065
H58	H	0.985176	-0.596703	0.000078
H59	H	1.137715	-0.646268	0.220237
H60	H	1.380450	-0.550463	0.220244
C61	C	1.600943	-0.116825	-0.640794
C62	C	1.649985	-0.239598	-0.605371
C63	C	1.582879	-0.358906	-0.669603
C64	C	1.466731	-0.355442	-0.769256
C65	C	1.417683	-0.232664	-0.804684
C66	C	1.484789	-0.113355	-0.740452
H67	H	1.735971	-0.242166	-0.531597
H68	H	1.619189	-0.449794	-0.643377
H69	H	1.417055	-0.443761	-0.816804
H70	H	1.331697	-0.230095	-0.878458
H71	H	1.448479	-0.022467	-0.766678
C72	C	0.920107	0.290839	-0.365489
C73	C	1.022665	0.385755	-0.429573
C74	C	0.984763	0.499288	-0.509025
C75	C	0.844303	0.517904	-0.524392
C76	C	0.741736	0.422985	-0.460306
C77	C	0.779638	0.309452	-0.380854
H78	H	1.126650	0.371977	-0.418199
H79	H	1.060691	0.569553	-0.556466
H80	H	0.816246	0.601947	-0.583207
H81	H	0.637751	0.436763	-0.471680
H82	H	0.703710	0.239187	-0.333413
H83	H	1.346631	-0.219003	0.000087
C84	C	1.155724	0.300444	-0.350327
C85	C	1.240833	0.297250	-0.486266
C86	C	1.306797	0.417032	-0.550550
C87	C	1.287652	0.540009	-0.478897
C88	C	1.202540	0.543208	-0.342951
C89	C	1.136575	0.423426	-0.278666
H90	H	1.255008	0.206211	-0.539315
H91	H	1.369803	0.414664	-0.651187
H92	H	1.336483	0.628679	-0.526484
H93	H	1.188364	0.634247	-0.289902
H94	H	1.073569	0.425794	-0.178030
H95	H	0.904458	0.175904	0.241029
H96	H	0.909173	0.088638	-0.333600
H97	H	1.402573	0.327550	-0.360847
H98	H	1.402580	0.327534	-0.639034
H99	H	1.765668	0.032116	-0.375655
H100	H	1.769083	0.023321	-0.618167
