data_functionalizedCrystal
_audit_creation_method	'MofGen! by Chris Wilmer'
_symmetry_space_group_name_H-M	'P1'
_symmetry_Int_Tables_number	1
_symmetry_cell_setting	triclinic
loop_
_symmetry_equiv_pos_as_xyz
  x,y,z
_cell_length_a	12.759401
_cell_length_b	12.759399
_cell_length_c	12.759393
_cell_angle_alpha	90.030906
_cell_angle_beta	90.019596
_cell_angle_gamma	90.015393
loop_
_atom_site_label
_atom_site_type_symbol
_atom_site_fract_x
_atom_site_fract_y
_atom_site_fract_z
Zn1	Zn	1.606263	-0.418208	0.593979
Zn2	Zn	1.606153	-0.593923	0.418298
Zn3	Zn	1.430562	-0.418260	0.418319
Zn4	Zn	1.430553	-0.593846	0.593940
O5	O	1.518383	-0.506059	0.506134
O6	O	1.753270	-0.441527	0.570683
O7	O	1.582818	-0.570675	0.271280
O8	O	1.453919	-0.271232	0.441646
O9	O	1.753189	-0.570625	0.441611
O10	O	1.583006	-0.271194	0.570703
O11	O	1.453812	-0.441616	0.271295
O12	O	1.283540	-0.441541	0.441607
O13	O	1.453903	-0.570493	0.740966
O14	O	1.283533	-0.570544	0.570635
O15	O	1.582997	-0.441452	0.740995
O16	O	1.582809	-0.740934	0.441572
O17	O	1.453796	-0.740877	0.570615
C18	C	1.245415	-0.506040	0.506120
C19	C	1.128639	-0.506058	0.506138
C20	C	0.964070	-0.573347	0.573225
C21	C	1.073794	-0.573336	0.573214
C22	C	1.073754	-0.438795	0.439062
C23	C	0.964032	-0.438812	0.439068
C24	C	1.518318	-0.779027	0.506110
C25	C	1.518387	-0.895803	0.506135
C26	C	1.585641	-0.950660	0.439019
C27	C	1.585708	-1.060384	0.439054
C28	C	1.451259	-1.060385	0.573325
C29	C	1.451198	-0.950663	0.573294
C30	C	1.792416	-0.506079	0.506149
C31	C	1.909193	-0.506087	0.506156
C32	C	1.518461	-0.505958	0.780168
C33	C	1.518495	-0.505915	0.896944
C34	C	1.518476	-0.232026	0.506181
C35	C	1.518516	-0.115249	0.506201
C36	C	1.518365	-0.506084	0.233167
C37	C	1.518535	-0.505831	0.116391
C38	C	1.585719	-0.438713	0.951823
C39	C	1.585737	-0.438668	1.061547
C40	C	1.451303	-0.573036	1.061504
C41	C	1.451281	-0.573075	0.951782
H42	H	1.118470	-0.628107	0.627827
H43	H	1.640476	-0.383943	1.106225
O44	O	1.385865	-0.638212	0.898419
C45	C	1.318036	-0.578410	0.834934
H46	H	1.311582	-0.495653	0.868018
H47	H	1.350507	-0.574821	0.751784
C48	C	1.216724	-0.731372	0.792585
C49	C	1.208791	-0.629730	0.833224
H50	H	1.149338	-0.763030	0.791524
H51	H	1.262424	-0.771663	0.835352
H52	H	1.243787	-0.728367	0.723296
H53	H	1.181741	-0.632738	0.902514
H54	H	1.163084	-0.589441	0.790467
H55	H	1.640446	-0.384024	0.907178
H56	H	1.640352	-0.905996	0.384335
O57	O	1.386119	-0.638243	1.114938
C58	C	1.400535	-0.623783	1.223550
H59	H	1.481631	-0.589378	1.238554
H60	H	1.338245	-0.567817	1.254690
C61	C	1.291275	-0.772321	1.261433
C62	C	1.390882	-0.730073	1.279861
H63	H	1.285317	-0.837884	1.296171
H64	H	1.281559	-0.782062	1.188260
H65	H	1.239378	-0.725673	1.287383
H66	H	1.442777	-0.776715	1.253900
H67	H	1.400607	-0.720342	1.353033
O68	O	0.910685	-0.638753	0.638240
C69	C	0.847204	-0.706569	0.578312
H70	H	0.830732	-0.669422	0.498760
H71	H	0.889480	-0.784404	0.566628
C72	C	0.763236	-0.771307	0.733805
C73	C	0.742998	-0.725678	0.636101
H74	H	0.698958	-0.783099	0.769453
H75	H	0.806006	-0.725622	0.774181
H76	H	0.798468	-0.836165	0.724055
H77	H	0.707778	-0.660816	0.645853
H78	H	0.700219	-0.771353	0.595728
H79	H	1.396432	-0.905996	0.627953
H80	H	1.640474	-1.105043	0.384403
H81	H	1.396555	-1.105065	0.628002
O82	O	1.127146	-0.373589	0.373852
C83	C	1.190563	-0.433315	0.305874
H84	H	1.207003	-0.512977	0.342790
H85	H	1.148248	-0.444772	0.227996
C86	C	1.274597	-0.277631	0.241609
C87	C	1.294796	-0.375469	0.286955
H88	H	1.338891	-0.241948	0.229934
H89	H	1.231869	-0.237391	0.287404
H90	H	1.239332	-0.287192	0.176716
H91	H	1.330048	-0.365907	0.351852
H92	H	1.337532	-0.415707	0.241169
O93	O	0.910880	-0.373372	0.373881
C94	C	0.982808	-0.314002	0.314654
H95	H	1.061041	-0.310396	0.357687
H96	H	0.994441	-0.352380	0.234795
C97	C	0.843898	-0.206604	0.246853
C98	C	0.939982	-0.202169	0.299710
H99	H	0.817480	-0.137622	0.237629
H100	H	0.795438	-0.246605	0.286751
H101	H	0.853606	-0.238590	0.180309
H102	H	0.930271	-0.170195	0.366257
H103	H	0.988440	-0.162160	0.259822
