data_functionalizedCrystal
_audit_creation_method	'MofGen! by Chris Wilmer'
_symmetry_space_group_name_H-M	'P1'
_symmetry_Int_Tables_number	1
_symmetry_cell_setting	triclinic
loop_
_symmetry_equiv_pos_as_xyz
  x,y,z
_cell_length_a	23.096457
_cell_length_b	19.902436
_cell_length_c	19.902436
_cell_angle_alpha	90.006484
_cell_angle_beta	60.007109
_cell_angle_gamma	59.997612
loop_
_atom_site_label
_atom_site_type_symbol
_atom_site_fract_x
_atom_site_fract_y
_atom_site_fract_z
Zr1	Zr	0.633694	0.647295	-0.088093
O2	O	0.754481	0.540002	-0.195380
O3	O	0.512905	0.680188	-0.055205
O4	O	0.633681	0.680185	-0.195369
O5	O	0.633717	0.540004	0.055350
O6	O	0.633673	0.790762	-0.195358
O7	O	0.633706	0.540004	-0.055216
O8	O	0.417627	0.790767	0.055369
O9	O	0.849763	0.539999	-0.195378
O10	O	0.562582	0.776737	-0.041169
O11	O	0.562597	0.694214	0.041337
O12	O	0.704794	0.694211	-0.123688
O13	O	0.704809	0.611688	-0.041182
Zr14	Zr	0.633699	0.823652	0.088264
Zr15	Zr	0.633681	0.823653	-0.088075
Zr16	Zr	0.633712	0.647295	0.088247
Zr17	Zr	0.785657	0.647291	-0.088089
Zr18	Zr	0.481736	0.823656	0.088261
O19	O	0.754488	0.790759	0.055377
O20	O	0.754463	0.790759	-0.195356
O21	O	0.754507	0.540001	0.055352
O22	O	0.512912	0.930946	0.195552
O23	O	0.512886	0.930946	-0.055181
O24	O	0.512931	0.680188	0.195527
O25	O	0.633677	0.930943	-0.055178
O26	O	0.633712	0.790762	0.195541
O27	O	0.633721	0.680185	0.195530
O28	O	0.633688	0.930943	0.055388
O29	O	0.849752	0.680180	-0.195364
O30	O	0.417641	0.790767	0.195536
O31	O	0.417631	0.930948	0.195550
O32	O	0.417616	0.930948	0.055383
O33	O	0.849777	0.539999	-0.055211
O34	O	0.849766	0.680180	-0.055198
O35	O	0.562599	0.776737	0.123859
O36	O	0.562584	0.859259	0.041353
O37	O	0.704797	0.776733	-0.041166
O38	O	0.704811	0.694211	0.041340
C39	C	0.443615	0.735478	0.000082
C40	C	0.379102	0.735480	0.000080
C41	C	0.633713	0.514877	0.000064
C42	C	0.633719	0.440009	0.000057
C43	C	-0.081423	0.778551	-0.042968
C44	C	-0.020803	0.778549	-0.042975
C45	C	0.009517	0.735474	0.000092
C46	C	-0.020773	0.692381	0.043153
C47	C	-0.081386	0.692378	0.043153
N48	N	0.071917	0.741454	0.070188
N49	N	0.129496	0.741462	0.070187
C50	C	0.192143	0.735481	0.000095
N51	N	0.195028	0.729507	-0.069995
N52	N	0.137441	0.729504	-0.069992
C53	C	0.075242	0.735473	0.000097
C54	C	0.288161	0.778564	-0.042977
C55	C	0.348785	0.778556	-0.042986
C56	C	0.348809	0.692394	0.043150
C57	C	0.288191	0.692396	0.043152
C58	C	0.257868	0.735486	0.000090
C59	C	0.633704	0.302947	0.000077
C60	C	0.723407	0.222376	-0.051974
C61	C	0.723443	0.144485	-0.051736
C62	C	0.633690	0.168000	0.000095
C63	C	0.588890	0.222283	0.089779
C64	C	0.589483	0.299834	0.089483
C65	C	0.588149	0.300673	-0.036830
C66	C	0.589819	0.221804	-0.038631
C67	C	0.633677	0.091737	0.000110
C68	C	0.633713	0.379212	0.000068
C69	C	0.823779	0.735469	0.000090
C70	C	0.888291	0.735468	0.000091
C71	C	0.633674	0.735474	-0.220488
C72	C	0.633667	0.735474	-0.295349
C73	C	0.633680	0.956070	0.000107
C74	C	0.633675	1.030939	0.000115
C75	C	0.633707	0.735473	-0.567398
C76	C	0.543997	0.787780	-0.486853
C77	C	0.543940	0.787554	-0.408950
C78	C	0.633686	0.735474	-0.432431
C79	C	0.678243	0.645806	-0.486558
C80	C	0.677670	0.646093	-0.564120
C81	C	0.679503	0.772112	-0.565247
C82	C	0.677817	0.773926	-0.486369
C83	C	0.633680	0.735470	-0.356156
C84	C	0.633716	0.735472	-0.643674
C85	C	0.633719	0.735474	0.220660
C86	C	0.633727	0.735474	0.295521
C87	C	0.443598	0.956075	0.000103
C88	C	0.379080	1.030945	0.000109
C89	C	0.443637	0.735478	0.220656
C90	C	0.379132	0.735480	0.295515
C91	C	0.443621	0.956075	0.220677
C92	C	0.379110	1.030945	0.295544
C93	C	0.823773	0.514873	-0.220506
C94	C	0.888283	0.440003	-0.295372
C95	C	0.823795	0.514873	0.000068
C96	C	0.888313	0.440003	0.000062
C97	C	0.823756	0.735469	-0.220484
C98	C	0.888261	0.735468	-0.295343
C99	C	0.348781	1.023029	-0.042971
C100	C	0.288168	1.093370	-0.042982
C101	C	0.257852	1.171627	0.000093
C102	C	0.288157	1.179542	0.043174
C103	C	0.348773	1.109201	0.043180
C104	C	0.348842	0.778556	0.373753
C105	C	0.288241	0.778555	0.444098
C106	C	0.257929	0.735481	0.436203
C107	C	0.288225	0.692399	0.357957
C108	C	0.348829	0.692396	0.287614
C109	C	0.348808	1.109188	0.287635
C110	C	0.288203	1.179543	0.357973
C111	C	0.257896	1.171653	0.436220
C112	C	0.288204	1.093402	0.444128
C113	C	0.348813	1.023048	0.373790
C114	C	0.918592	0.361760	-0.287463
C115	C	0.979217	0.291405	-0.357802
C116	C	1.009527	0.299294	-0.436049
C117	C	0.979214	0.377546	-0.443956
C118	C	0.918595	0.447899	-0.373618
C119	C	0.918619	0.447919	0.043135
C120	C	0.979248	0.377577	0.043127
C121	C	1.009567	0.299320	0.000050
C122	C	0.979258	0.291406	-0.043029
C123	C	0.918634	0.361747	-0.043024
C124	C	0.918554	0.778550	-0.287423
C125	C	0.979155	0.778565	-0.357754
C126	C	1.009466	0.735492	-0.436006
C127	C	0.979166	0.692408	-0.443925
C128	C	0.918562	0.692399	-0.373594
H129	H	0.003860	0.813634	-0.078040
C130	C	0.885217	0.825939	-0.201351
C131	C	0.818555	0.825942	-0.123978
C132	C	0.785219	0.873338	-0.037909
C133	C	0.818546	0.920732	-0.029214
C134	C	0.885212	0.920731	-0.106590
C135	C	0.918548	0.873334	-0.192658
H136	H	0.793881	0.790857	-0.130412
H137	H	0.735867	0.873339	0.019369
H138	H	0.793868	0.955817	0.034499
H139	H	0.909886	0.955816	-0.100155
H140	H	0.967899	0.873333	-0.249937
C141	C	0.191221	1.249047	0.513588
C142	C	0.157889	1.335111	0.504879
C143	C	0.091212	1.412508	0.582244
C144	C	0.057866	1.403841	0.668317
C145	C	0.091197	1.317774	0.677030
C146	C	0.157875	1.240377	0.599666
H147	H	0.182574	1.341530	0.441159
H148	H	0.066538	1.476220	0.575793
H149	H	0.008507	1.461135	0.725587
H150	H	0.066512	1.311355	0.740750
H151	H	0.182549	1.176664	0.606116
C152	C	0.382138	0.645016	0.201553
C153	C	0.348786	0.597643	0.192880
C154	C	0.382093	0.550259	0.106820
C155	C	0.448752	0.550247	0.029434
C156	C	0.482109	0.597621	0.038105
C157	C	0.448802	0.645006	0.124165
H158	H	0.299437	0.597650	0.250168
H159	H	0.357400	0.515189	0.100402
H160	H	0.473408	0.515170	-0.034272
H161	H	0.531457	0.597614	-0.019183
H162	H	0.473495	0.680075	0.130583
C163	C	0.633941	0.171210	-0.127887
C164	C	0.587285	0.155827	-0.152957
C165	C	0.631407	0.105222	-0.242210
C166	C	0.722186	0.070000	-0.306392
C167	C	0.768848	0.085382	-0.281323
C168	C	0.724725	0.135987	-0.192070
H169	H	0.520080	0.181901	-0.105445
H170	H	0.596865	0.093836	-0.260767
H171	H	0.754848	0.032540	-0.372463
H172	H	0.836052	0.059308	-0.328836
H173	H	0.759268	0.147374	-0.173513
C174	C	0.254872	0.645024	0.349285
C175	C	0.163190	0.691227	0.385818
C176	C	0.129830	0.643857	0.377149
C177	C	0.188152	0.550283	0.331947
C178	C	0.279840	0.504075	0.295411
C179	C	0.313200	0.551445	0.304080
H180	H	0.120011	0.760501	0.419282
H181	H	0.061956	0.678064	0.404196
H182	H	0.163457	0.515217	0.325530
H183	H	0.323018	0.434801	0.261947
H184	H	0.381073	0.517237	0.277033
H185	H	0.743290	0.739789	-0.504891
C186	C	0.254848	1.084736	0.530205
C187	C	0.263167	1.121263	0.590420
C188	C	0.229800	1.112602	0.676500
C189	C	0.188114	1.067414	0.702365
C190	C	0.179793	1.030883	0.642148
C191	C	0.213160	1.039544	0.556068
H192	H	0.294028	1.154717	0.571275
H193	H	0.235961	1.139645	0.721076
H194	H	0.163414	1.061002	0.766087
H195	H	0.148933	0.997429	0.661294
H196	H	0.207000	1.012502	0.511492
H197	H	0.373477	0.959342	0.380241
H198	H	0.617059	0.303532	-0.101895
C199	C	0.885250	0.533966	-0.382326
C200	C	0.818568	0.611362	-0.304969
C201	C	0.785226	0.697428	-0.313684
C202	C	0.818566	0.706096	-0.399757
C203	C	0.885252	0.628696	-0.477121
C204	C	0.918594	0.542631	-0.468406
H205	H	0.793884	0.604948	-0.241247
H206	H	0.735860	0.754724	-0.256414
H207	H	0.793885	0.769806	-0.406209
H208	H	0.909936	0.635111	-0.540843
H209	H	0.967960	0.485335	-0.525676
C210	C	0.885265	0.353067	-0.201397
C211	C	0.918623	0.266992	-0.192715
C212	C	0.885305	0.258290	-0.106652
C213	C	0.818627	0.335664	-0.029271
C214	C	0.785265	0.421745	-0.037951
C215	C	0.818584	0.430446	-0.124014
H216	H	0.967985	0.209710	-0.249999
H217	H	0.910002	0.194567	-0.100227
H218	H	0.793963	0.329223	0.034438
H219	H	0.735903	0.479027	0.019333
H220	H	0.793886	0.494170	-0.130439
C221	C	0.885281	0.533996	0.090519
C222	C	0.918636	0.542686	0.137886
C223	C	0.885307	0.628760	0.185268
C224	C	0.818625	0.706144	0.185283
C225	C	0.785267	0.697457	0.137914
C226	C	0.818595	0.611382	0.090532
H227	H	0.968002	0.485399	0.137877
H228	H	0.910002	0.635191	0.220333
H229	H	0.793953	0.769862	0.220357
H230	H	0.735901	0.754743	0.137923
H231	H	0.793900	0.604952	0.055467
C232	C	0.382140	1.117881	0.201569
C233	C	0.348804	1.203956	0.192887
C234	C	0.382135	1.212657	0.106824
C235	C	0.448803	1.135283	0.029443
C236	C	0.482143	1.049202	0.038123
C237	C	0.448812	1.040501	0.124186
H238	H	0.299449	1.261238	0.250171
H239	H	0.357453	1.276380	0.100399
H240	H	0.473476	1.141725	-0.034266
H241	H	0.531498	0.991920	-0.019162
H242	H	0.473493	0.976778	0.130611
H243	H	0.758808	0.220553	-0.118182
H244	H	-0.106109	0.813635	-0.078033
C245	C	1.012544	0.205336	-0.349090
C246	C	1.054194	0.179484	-0.303860
C247	C	1.087518	0.093418	-0.295145
C248	C	1.079191	0.033205	-0.331662
C249	C	1.037539	0.059055	-0.376896
C250	C	1.004215	0.145121	-0.385610
H251	H	1.060360	0.224059	-0.276825
H252	H	1.118351	0.074282	-0.261660
H253	H	1.103859	-0.030506	-0.325211
H254	H	1.031373	0.014480	-0.403930
H255	H	0.973381	0.164257	-0.419095
H256	H	1.058886	0.242002	-0.493315
C257	C	0.496665	0.753769	-0.485836
C258	C	0.539114	0.678780	-0.557776
C259	C	0.491786	0.644765	-0.556761
C260	C	0.402008	0.685740	-0.483807
C261	C	0.359554	0.760733	-0.411861
C262	C	0.406883	0.794748	-0.412876
H263	H	0.605577	0.648444	-0.611786
H264	H	0.523213	0.589250	-0.610020
H265	H	0.366973	0.660560	-0.483055
H266	H	0.293091	0.791069	-0.357851
H267	H	0.375455	0.850263	-0.359617
H268	H	0.373515	0.813632	0.380197
C269	C	1.012557	0.386214	-0.530032
C270	C	1.004225	0.349679	-0.590229
C271	C	1.037566	0.358343	-0.676307
C272	C	1.079240	0.403543	-0.702189
C273	C	1.087575	0.440082	-0.641991
C274	C	1.054233	0.431417	-0.555913
H275	H	0.973374	0.316216	-0.571071
H276	H	1.031397	0.331295	-0.720870
H277	H	1.103922	0.409957	-0.765910
H278	H	1.118426	0.473544	-0.661150
H279	H	1.060403	0.458466	-0.511351
C280	C	0.496417	0.877213	-0.484551
C281	C	0.417831	0.913436	-0.480670
C282	C	0.370253	1.002871	-0.478376
C283	C	0.401262	1.056082	-0.479962
C284	C	0.479853	1.019858	-0.483842
C285	C	0.527430	0.930424	-0.486137
H286	H	0.394873	0.874046	-0.479496
H287	H	0.312075	1.029685	-0.475503
H288	H	0.366042	1.122286	-0.478263
H289	H	0.502811	1.059249	-0.485017
H290	H	0.585608	0.903610	-0.489010
H291	H	0.647305	0.616267	-0.449107
C292	C	0.770502	0.221478	-0.017691
C293	C	0.727867	0.293538	0.057288
C294	C	0.774959	0.292641	0.091575
C295	C	0.864686	0.219684	0.050883
C296	C	0.907326	0.147618	-0.024101
C297	C	0.860234	0.148515	-0.058388
H298	H	0.661441	0.347550	0.087414
H299	H	0.743393	0.345989	0.147083
H300	H	0.899546	0.219020	0.076264
H301	H	0.973752	0.093606	-0.054227
H302	H	0.891800	0.095167	-0.113896
H303	H	0.208494	1.228896	0.000082
H304	H	0.373499	0.657317	0.078212
C305	C	0.496435	0.753211	-0.356216
C306	C	0.458434	0.725902	-0.384946
C307	C	0.410930	0.691554	-0.332214
C308	C	0.401425	0.684516	-0.250752
C309	C	0.439426	0.711825	-0.222017
C310	C	0.486931	0.746173	-0.274750
H311	H	0.465469	0.731112	-0.445253
H312	H	0.382799	0.671338	-0.353485
H313	H	0.366259	0.659089	-0.211716
H314	H	0.432391	0.706616	-0.161711
H315	H	0.515062	0.766390	-0.253478
H316	H	0.208582	0.735489	0.493488
C317	C	1.076248	0.221949	0.000057
C318	C	1.109573	0.230667	0.047446
C319	C	1.176252	0.153299	0.047460
C320	C	1.209606	0.067214	0.000084
C321	C	1.176281	0.058493	-0.047309
C322	C	1.109602	0.135860	-0.047323
H323	H	1.084883	0.294395	0.082520
H324	H	1.200921	0.159756	0.082544
H325	H	1.258965	0.009942	0.000094
H326	H	1.200971	-0.005236	-0.082382
H327	H	1.084933	0.129404	-0.082406
C328	C	0.254793	1.265629	0.090563
C329	C	0.263103	1.325844	0.044393
C330	C	0.229730	1.411934	0.091788
C331	C	0.188048	1.437810	0.185355
C332	C	0.179736	1.377594	0.231531
C333	C	0.213109	1.291504	0.184135
H334	H	0.293961	1.306691	-0.024875
H335	H	0.235884	1.456510	0.057605
H336	H	0.163343	1.501539	0.220440
H337	H	0.148878	1.396747	0.300799
H338	H	0.206955	1.246928	0.218318
H339	H	0.745596	0.734181	-0.622009
H340	H	0.003919	0.657308	0.078217
H341	H	0.893904	0.657312	-0.380055
H342	H	1.003854	0.657339	-0.507647
H343	H	-0.106044	0.657293	0.078217
H344	H	1.003818	0.813647	-0.351290
H345	H	0.263473	0.813647	-0.078043
H346	H	0.373448	0.813636	-0.078055
H347	H	0.263581	0.813640	0.507802
H348	H	0.619634	0.184933	0.119517
H349	H	1.003915	0.384037	0.078209
H350	H	0.263528	0.657317	0.078219
H351	H	0.758578	0.104970	-0.117768
H352	H	1.003953	0.227680	-0.078101
H353	H	0.893961	0.355290	-0.078097
H354	H	0.758429	0.105547	-0.026114
C355	C	0.632011	0.299708	0.129360
C356	C	0.585053	0.371316	0.206952
C357	C	0.627585	0.371183	0.246825
C358	C	0.717076	0.299443	0.209106
C359	C	0.764038	0.227830	0.131509
C360	C	0.721506	0.227962	0.091636
H361	H	0.518802	0.424427	0.234878
H362	H	0.592820	0.424197	0.304268
H363	H	0.748561	0.299346	0.238623
H364	H	0.830289	0.174719	0.103584
H365	H	0.756271	0.174949	0.034194
C366	C	0.499727	0.249027	0.144482
C367	C	0.440001	0.300545	0.121687
C368	C	0.350839	0.327287	0.176389
C369	C	0.321404	0.302510	0.253886
C370	C	0.381132	0.250989	0.276685
C371	C	0.470293	0.224248	0.221984
H372	H	0.461790	0.318889	0.064315
H373	H	0.306625	0.365426	0.159510
H374	H	0.255401	0.322306	0.294379
H375	H	0.359343	0.232646	0.334057
H376	H	0.514508	0.186108	0.238862
C377	C	0.496680	0.876755	-0.355696
C378	C	0.458729	0.948694	-0.383926
C379	C	0.411448	1.037900	-0.330665
C380	C	0.402118	1.055168	-0.249175
C381	C	0.440070	0.983227	-0.220941
C382	C	0.487351	0.894020	-0.274201
H383	H	0.465634	0.935913	-0.444254
H384	H	0.383353	1.091155	-0.351566
H385	H	0.367118	1.121203	-0.209748
H386	H	0.433165	0.996007	-0.160613
H387	H	0.515446	0.840765	-0.253300
H388	H	0.523662	0.356895	0.130476
H389	H	0.263532	1.243252	0.351520
H390	H	0.524353	0.240348	-0.004680
H391	H	0.522068	0.357463	0.000899
C392	C	0.766580	0.590575	-0.641184
C393	C	0.828236	0.610218	-0.658109
C394	C	0.917143	0.554695	-0.735170
C395	C	0.944395	0.479529	-0.795306
C396	C	0.882737	0.459882	-0.778383
C397	C	0.793830	0.515405	-0.701321
H398	H	0.808064	0.665864	-0.613591
H399	H	0.962786	0.569239	-0.747698
H400	H	1.010209	0.438428	-0.852351
H401	H	0.902909	0.404236	-0.822900
H402	H	0.748188	0.500861	-0.688794
H403	H	0.646013	0.616761	-0.563929
H404	H	1.058813	0.735506	-0.493267
H405	H	0.650788	0.837144	-0.568228
H406	H	0.744231	0.605141	-0.506326
H407	H	0.373464	0.959314	-0.078058
H408	H	0.263501	1.086910	-0.078064
H409	H	0.645322	0.839990	-0.449042
H410	H	0.373435	1.115658	0.078266
