data_functionalizedCrystal
_audit_creation_method	'MofGen! by Chris Wilmer'
_symmetry_space_group_name_H-M	'P1'
_symmetry_Int_Tables_number	1
_symmetry_cell_setting	triclinic
loop_
_symmetry_equiv_pos_as_xyz
  x,y,z
_cell_length_a	13.339070
_cell_length_b	14.044220
_cell_length_c	11.804365
_cell_angle_alpha	102.927057
_cell_angle_beta	74.875130
_cell_angle_gamma	104.409086
loop_
_atom_site_label
_atom_site_type_symbol
_atom_site_fract_x
_atom_site_fract_y
_atom_site_fract_z
O1	O	1.405383	0.472644	-0.099085
O2	O	1.105089	0.408756	-0.099076
O3	O	1.250726	0.301532	-0.099069
O4	O	1.259745	0.579868	-0.099093
O5	O	1.212382	0.329720	0.098985
O6	O	1.066744	0.436945	0.098978
O7	O	1.367038	0.500832	0.098969
Cu8	Cu	1.213390	0.471462	0.117057
Cu9	Cu	1.258737	0.438126	-0.117165
O10	O	1.221401	0.608057	0.098961
C11	C	1.047253	0.412058	-0.000048
C12	C	0.932048	0.379890	-0.000044
C13	C	0.589834	0.630011	-0.000084
C14	C	0.698075	0.660237	-0.000092
C15	C	0.756574	0.590153	-0.000079
C16	C	0.706820	0.489838	-0.000060
C17	C	0.598569	0.459607	-0.000062
C18	C	0.765309	0.419749	-0.000057
C19	C	0.715555	0.319434	-0.000038
C20	C	0.607315	0.289209	-0.000040
C21	C	0.548817	0.359293	-0.000052
C22	C	0.873560	0.449980	-0.000055
C23	C	0.882295	0.279576	-0.000034
C24	C	0.774054	0.249350	-0.000026
C25	C	1.227608	0.279274	-0.000041
C26	C	1.215837	0.170953	-0.000039
C27	C	1.194321	-0.027371	-0.000056
C28	C	1.277803	-0.063049	-0.000062
C29	C	1.265832	-0.173403	-0.000071
C30	C	1.206291	0.082993	-0.000047
C31	C	1.424874	0.497530	-0.000062
C32	C	1.540081	0.529697	-0.000074
C33	C	1.244520	0.630314	-0.000069
C34	C	1.256292	0.738634	-0.000078
N35	N	1.181503	0.494911	0.281796
N36	N	1.290631	0.414672	-0.281904
C37	C	1.367201	0.358346	0.655754
C38	C	1.391322	0.340602	0.531094
C39	C	1.338869	0.379178	0.468763
C40	C	1.262292	0.435500	0.531106
C41	C	1.238175	0.453251	0.655778
C42	C	1.209842	0.474083	0.468787
C43	C	1.133265	0.530405	0.531129
C44	C	1.109151	0.548153	0.655790
C45	C	1.161604	0.509578	0.718120
C46	C	1.233960	0.456332	0.344115
C47	C	1.104933	0.551237	0.344138
C48	C	1.080812	0.568980	0.468799
H49	H	0.914058	0.531657	-0.000066
H50	H	0.844709	0.614769	-0.000088
C51	C	0.719319	0.139008	-0.000018
H52	H	0.646478	0.131046	-0.000030
H53	H	0.725478	0.118779	0.069049
H54	H	0.752228	0.099124	-0.069091
C55	C	1.085628	-0.098057	-0.000043
H56	H	1.091738	-0.164024	-0.000036
H57	H	1.062407	-0.096714	-0.069100
H58	H	1.035683	-0.077058	0.069041
H59	H	0.738579	0.741912	-0.000116
C60	C	0.525486	0.707090	-0.000098
H61	H	0.453894	0.674718	-0.000090
H62	H	0.554803	0.737222	-0.069167
H63	H	0.528050	0.756881	0.068974
H64	H	1.358282	-0.010728	-0.000144
C65	C	0.429750	0.326046	-0.000044
H66	H	0.402041	0.382155	-0.000055
H67	H	0.393505	0.297570	0.069024
H68	H	0.420248	0.277913	-0.069116
H69	H	0.566811	0.207524	-0.000038
C70	C	1.365393	0.359652	0.331640
H71	H	1.418504	0.320577	0.303438
H72	H	1.390620	0.421425	0.303419
H73	H	1.303413	0.324884	0.303464
C74	C	1.047236	0.593678	0.275588
H75	H	1.072560	0.575034	0.192414
H76	H	1.060385	0.664350	0.296009
H77	H	0.973168	0.567816	0.296033
H78	H	0.929926	0.222507	-0.000029
C79	C	1.475543	0.278647	0.462526
H80	H	1.503320	0.258206	0.517499
H81	H	1.531237	0.318013	0.413877
H82	H	1.444020	0.221479	0.413911
H83	H	1.296309	0.410475	0.293367
H84	H	1.409908	0.326949	0.706512
H85	H	1.141963	0.524020	0.819629
C86	C	1.024937	0.610124	0.724364
H87	H	0.997148	0.630553	0.669391
H88	H	1.056461	0.667284	0.772976
H89	H	0.969235	0.570756	0.773015
H90	H	1.018462	0.614840	0.519573
