data_functionalizedCrystal
_audit_creation_method	'MofGen! by Chris Wilmer'
_symmetry_space_group_name_H-M	'P1'
_symmetry_Int_Tables_number	1
_symmetry_cell_setting	triclinic
loop_
_symmetry_equiv_pos_as_xyz
  x,y,z
_cell_length_a	18.215407
_cell_length_b	12.759394
_cell_length_c	18.215399
_cell_angle_alpha	90.023582
_cell_angle_beta	90.017368
_cell_angle_gamma	90.011299
loop_
_atom_site_label
_atom_site_type_symbol
_atom_site_fract_x
_atom_site_fract_y
_atom_site_fract_z
Zn1	Zn	1.125128	-0.418349	0.416090
Zn2	Zn	1.125060	-0.594046	0.293033
Zn3	Zn	1.002061	-0.418374	0.293042
Zn4	Zn	1.002050	-0.593979	0.416063
O5	O	1.063575	-0.506187	0.354557
O6	O	1.228104	-0.441673	0.399773
O7	O	1.108720	-0.570782	0.190050
O8	O	1.018419	-0.271350	0.309380
O9	O	1.228054	-0.570758	0.309364
O10	O	1.108836	-0.271331	0.399782
O11	O	1.018353	-0.441716	0.190057
O12	O	0.899075	-0.441651	0.309354
O13	O	1.018401	-0.570642	0.519051
O14	O	0.899068	-0.570667	0.399737
O15	O	1.108826	-0.441608	0.519071
O16	O	1.108710	-0.741058	0.309338
O17	O	1.018335	-0.741009	0.399728
C18	C	0.872369	-0.506155	0.354544
C19	C	0.790570	-0.506166	0.354556
C20	C	0.602401	-0.439090	0.401707
C21	C	0.525542	-0.439099	0.401709
C22	C	0.525501	-0.573313	0.307420
C23	C	0.602358	-0.573298	0.307415
C24	C	0.640806	-0.506188	0.354562
C25	C	0.487090	-0.506212	0.354570
C26	C	0.403757	-0.506223	0.354573
C27	C	0.724145	-0.506176	0.354559
C28	C	1.063534	-0.779155	0.354545
C29	C	1.063584	-0.895931	0.354564
C30	C	1.157665	-0.895754	0.448771
C31	C	1.204728	-0.950526	0.495880
C32	C	1.204772	-1.060247	0.495896
C33	C	1.157746	-1.115199	0.448799
C34	C	1.110682	-1.060427	0.401690
C35	C	1.110645	-0.950703	0.401678
C36	C	1.016599	-1.060605	0.307489
C37	C	1.016557	-0.950883	0.307468
C38	C	0.969572	-1.115557	0.260392
C39	C	0.922511	-1.060785	0.213278
C40	C	0.922470	-0.951057	0.213264
C41	C	0.969494	-0.896111	0.260359
C42	C	1.255528	-0.506220	0.354570
C43	C	1.337327	-0.506234	0.354576
C44	C	1.063620	-0.506115	0.546510
C45	C	1.063639	-0.506084	0.628309
C46	C	1.063636	-0.232154	0.354585
C47	C	1.063662	-0.115377	0.354597
C48	C	1.063573	-0.506183	0.163351
C49	C	1.063696	-0.505918	0.081552
C50	C	1.110740	-0.438833	0.816514
C51	C	1.110749	-0.438802	0.893373
C52	C	1.016590	-0.573172	0.893342
C53	C	1.016578	-0.573197	0.816484
C54	C	1.063657	-0.506029	0.778073
C55	C	1.063678	-0.505973	0.931789
C56	C	1.063687	-0.505941	1.015122
C57	C	1.063647	-0.506060	0.694734
H58	H	0.494276	-0.384460	0.440098
O59	O	0.643789	-0.645665	0.256559
H60	H	0.629049	-0.728151	0.269084
O61	O	1.157620	-0.777411	0.448748
H62	H	1.198223	-0.748401	0.489411
H63	H	1.149073	-0.384137	0.785242
O64	O	0.484033	-0.645695	0.256571
H65	H	0.449031	-0.699222	0.289448
H66	H	0.969608	-1.204898	0.260411
H67	H	0.978232	-0.627915	0.785184
O68	O	1.255454	-0.891260	0.546671
H69	H	1.247526	-0.805762	0.538743
H70	H	0.978261	-0.627861	0.924626
O71	O	0.643874	-0.366698	0.452545
H72	H	0.604252	-0.320033	0.485321
H73	H	1.243088	-1.104843	0.534263
H74	H	1.157779	-1.204541	0.448823
O75	O	1.161535	-0.366333	0.934838
H76	H	1.194272	-0.319641	0.895214
O77	O	0.969454	-0.777768	0.260347
H78	H	0.984348	-0.748867	0.204849
O79	O	0.871804	-1.120059	0.162481
H80	H	0.834367	-1.170065	0.195395
O81	O	0.871713	-0.891980	0.162448
H82	H	0.839028	-0.948629	0.129701
