data_functionalizedCrystal
_audit_creation_method	'MofGen! by Chris Wilmer'
_symmetry_space_group_name_H-M	'P1'
_symmetry_Int_Tables_number	1
_symmetry_cell_setting	triclinic
loop_
_symmetry_equiv_pos_as_xyz
  x,y,z
_cell_length_a	17.699097
_cell_length_b	17.699104
_cell_length_c	16.176319
_cell_angle_alpha	89.992259
_cell_angle_beta	89.988988
_cell_angle_gamma	83.289974
loop_
_atom_site_label
_atom_site_type_symbol
_atom_site_fract_x
_atom_site_fract_y
_atom_site_fract_z
O1	O	1.004080	0.095760	-0.068817
O2	O	0.783704	0.108202	-0.068804
O3	O	0.900110	-0.008207	-0.068803
O4	O	0.887674	0.212169	-0.068817
O5	O	0.900094	-0.008214	0.068690
O6	O	0.783688	0.108194	0.068689
O7	O	1.004064	0.095753	0.068676
Cu8	Cu	0.893874	0.101973	0.081237
Cu9	Cu	0.893893	0.101982	-0.081365
O10	O	0.887658	0.212161	0.068676
C11	C	0.755499	0.107751	-0.000055
C12	C	0.671481	0.106408	-0.000050
C13	C	0.155771	0.098183	-0.075031
C14	C	0.234715	0.099439	-0.075026
C15	C	0.274172	0.100064	-0.000076
C16	C	0.234682	0.099426	0.074876
C17	C	0.155740	0.098164	0.074871
C18	C	0.553047	0.104513	0.074898
C19	C	0.631994	0.105777	0.074897
C20	C	0.632022	0.105788	-0.075000
C21	C	0.553080	0.104526	-0.075005
C22	C	0.513597	0.103884	-0.000054
C23	C	0.427997	0.102520	-0.000059
C24	C	0.359770	0.101433	-0.000069
C25	C	0.899653	-0.036407	-0.000057
C26	C	0.898308	-0.120425	-0.000056
C27	C	1.032268	0.096204	-0.000074
C28	C	1.116286	0.097546	-0.000085
C29	C	0.959052	-0.645293	-0.000083
C30	C	0.960311	-0.566349	-0.000076
C31	C	0.891976	-0.517735	-0.000070
C32	C	0.822378	-0.548068	-0.000063
C33	C	0.821119	-0.627010	-0.000064
C34	C	0.827451	-0.229702	-0.000056
C35	C	0.828715	-0.150754	-0.000057
C36	C	0.966642	-0.169040	-0.000068
C37	C	0.965384	-0.247983	-0.000069
C38	C	0.895786	-0.278309	-0.000058
C39	C	0.894422	-0.363909	-0.000064
C40	C	0.893340	-0.432136	-0.000070
C41	C	0.888114	0.240362	-0.000073
C42	C	0.889459	0.324379	-0.000079
N43	N	0.893866	0.101966	0.195602
N44	N	0.893907	0.101982	-0.195730
C45	C	0.945426	0.050441	0.238867
C46	C	0.945430	0.050441	0.325414
C47	C	0.893877	0.101969	0.368695
C48	C	0.842312	0.153496	0.325424
C49	C	0.842305	0.153493	0.238879
C50	C	0.842337	0.153510	0.674453
C51	C	0.842350	0.153511	0.761004
C52	C	0.945463	0.050458	0.760988
C53	C	0.945456	0.050455	0.674442
C54	C	0.893888	0.101979	0.631179
C55	C	0.893884	0.101978	0.537335
C56	C	0.893885	0.101974	0.462537
H57	H	0.664178	0.106308	-0.136029
N58	N	1.001048	-0.005118	0.372088
H59	H	1.034494	0.023783	0.407978
H60	H	0.972142	-0.038582	0.407967
N61	N	0.746055	-0.659717	-0.000062
H62	H	0.742462	-0.692059	-0.051030
H63	H	0.742498	-0.692030	0.050942
H64	H	1.021029	-0.287561	-0.000078
H65	H	0.800366	0.195473	0.796242
H66	H	0.987450	0.008502	0.796221
H67	H	0.987410	0.008484	0.203633
N68	N	1.041712	-0.136332	-0.000068
H69	H	1.032144	-0.078946	-0.000060
H70	H	1.071598	-0.154135	0.050901
H71	H	0.800351	0.195464	0.639235
N72	N	1.001063	-0.005118	0.627760
H73	H	1.033726	-0.037761	0.668301
H74	H	0.972145	-0.038544	0.591868
H75	H	0.123650	0.097679	-0.136064
H76	H	1.016980	-0.541660	-0.000079
N77	N	0.510465	0.103822	0.155732
H78	H	0.547508	0.103876	0.203212
H79	H	0.471856	0.150470	0.159246
H80	H	0.800332	0.195449	0.360669
H81	H	0.664118	0.106286	0.135934
N82	N	0.277308	0.100135	-0.155856
H83	H	0.316279	0.053758	-0.159196
H84	H	0.240287	0.099581	-0.203295
H85	H	0.770780	-0.254383	-0.000057
N86	N	0.510522	0.103853	-0.155844
H87	H	0.547515	0.104444	-0.203323
H88	H	0.483989	0.056428	-0.159103
N89	N	0.277236	0.100098	0.155718
H90	H	0.333237	0.100997	0.144350
H91	H	0.257209	0.146776	0.188442
H92	H	0.773065	-0.111173	-0.000051
H93	H	0.800318	0.195448	0.203654
H94	H	0.123592	0.097654	0.135900
N95	N	1.032757	-0.697724	-0.000096
H96	H	1.077034	-0.666529	-0.000095
H97	H	1.035233	-0.730883	0.050874
H98	H	0.766739	-0.508480	-0.000053
