data_functionalizedCrystal
_audit_creation_method	'MofGen! by Chris Wilmer'
_symmetry_space_group_name_H-M	'P1'
_symmetry_Int_Tables_number	1
_symmetry_cell_setting	triclinic
loop_
_symmetry_equiv_pos_as_xyz
  x,y,z
_cell_length_a	16.120484
_cell_length_b	12.759401
_cell_length_c	12.759393
_cell_angle_alpha	90.020566
_cell_angle_beta	92.864008
_cell_angle_gamma	87.076339
loop_
_atom_site_label
_atom_site_type_symbol
_atom_site_fract_x
_atom_site_fract_y
_atom_site_fract_z
Zn1	Zn	-0.331905	-1.584980	-0.615177
Zn2	Zn	-0.471340	-1.575928	-0.448390
Zn3	Zn	-0.331941	-1.409276	-0.439516
Zn4	Zn	-0.471274	-1.400332	-0.624024
O5	O	-0.401615	-1.492629	-0.531776
O6	O	-0.350414	-1.730799	-0.593064
O7	O	-0.452891	-1.553777	-0.300194
O8	O	-0.215271	-1.440115	-0.455401
O9	O	-0.452856	-1.724149	-0.470526
O10	O	-0.215245	-1.569204	-0.584459
O11	O	-0.350476	-1.431338	-0.293674
O12	O	-0.350411	-1.261070	-0.463980
O13	O	-0.452743	-1.424871	-0.769869
O14	O	-0.452778	-1.254498	-0.599537
O15	O	-0.350350	-1.560531	-0.763369
O16	O	-0.587996	-1.545104	-0.479104
O17	O	-0.587948	-1.416094	-0.608142
C18	C	-0.401592	-1.219663	-0.531756
C19	C	-0.401603	-1.102886	-0.531773
C20	C	-0.348356	-1.051481	-0.595688
C21	C	-0.348361	-0.941757	-0.595693
C22	C	-0.454867	-0.934851	-0.467868
C23	C	-0.454857	-1.044574	-0.467857
C24	C	-0.618222	-1.478675	-0.545569
C25	C	-0.710887	-1.472801	-0.551504
C26	C	-0.880548	-1.462084	-0.562362
C27	C	-0.921842	-1.523363	-0.501208
C28	C	-1.016247	-1.517400	-0.507249
C29	C	-0.786134	-1.468045	-0.556322
C30	C	-0.184162	-1.506667	-0.517953
C31	C	-0.091497	-1.512649	-0.512063
C32	C	-0.401535	-1.492713	-0.805805
C33	C	-0.401501	-1.492749	-0.922579
C34	C	-0.401631	-0.766661	-0.531793
C35	C	-0.401618	-0.883439	-0.531789
C36	C	-0.348176	-1.563392	-0.974058
C37	C	-0.348140	-1.563412	-1.083780
C38	C	-0.454761	-1.422142	-1.090535
C39	C	-0.454792	-1.422117	-0.980815
C40	C	-0.401635	-1.492610	-0.258810
C41	C	-0.401434	-1.492793	-0.142021
H42	H	-0.304990	-1.098956	-0.647729
H43	H	-0.498215	-1.364583	-0.938900
Cl44	Cl	-0.281107	-1.652234	-1.148492
Cl45	Cl	-0.281417	-0.877139	-0.676045
Cl46	Cl	-0.521815	-0.861537	-0.387525
Cl47	Cl	-0.281178	-1.652181	-0.900851
Cl48	Cl	-0.866962	-1.611273	-0.413363
H49	H	-0.498218	-1.086428	-0.415805
Cl50	Cl	-0.935428	-1.374172	-0.650194
H51	H	-0.498151	-1.364639	-1.137964
