data_functionalizedCrystal
_audit_creation_method	'MofGen! by Chris Wilmer'
_symmetry_space_group_name_H-M	'P1'
_symmetry_Int_Tables_number	1
_symmetry_cell_setting	triclinic
loop_
_symmetry_equiv_pos_as_xyz
  x,y,z
_cell_length_a	26.455835
_cell_length_b	26.455273
_cell_length_c	26.451828
_cell_angle_alpha	60.005170
_cell_angle_beta	60.010757
_cell_angle_gamma	59.993435
loop_
_atom_site_label
_atom_site_type_symbol
_atom_site_fract_x
_atom_site_fract_y
_atom_site_fract_z
O1	O	0.069940	-0.738516	0.617604
O2	O	0.569940	-0.238516	1.117604
O3	O	0.026299	-0.574986	0.497618
O4	O	0.526299	-0.074986	0.997618
O5	O	0.129847	-0.678463	0.497546
O6	O	0.629847	-0.178463	0.997546
O7	O	-0.033607	-0.635040	0.617676
O8	O	0.466393	-0.135040	1.117676
O9	O	0.164197	-0.644116	0.531822
O10	O	0.664197	-0.144116	1.031822
O11	O	0.060649	-0.540639	0.531894
O12	O	0.560649	-0.040639	1.031894
O13	O	0.104290	-0.704170	0.651880
O14	O	0.604290	-0.204170	1.151880
Cu15	Cu	0.085606	-0.619268	0.595016
Cu16	Cu	0.585606	-0.119268	1.095016
Cu17	Cu	0.044984	-0.659887	0.554481
Cu18	Cu	0.544984	-0.159887	1.054481
O19	O	0.000742	-0.600693	0.651952
O20	O	0.500742	-0.100693	1.151952
N21	N	0.114179	-0.590703	0.623530
N22	N	0.614179	-0.090703	1.123530
N23	N	0.016416	-0.688458	0.525968
N24	N	0.516416	-0.188458	1.025968
C25	C	0.157553	-0.547535	0.933368
C26	C	0.657553	-0.047535	1.433368
C27	C	0.424104	-0.547506	0.666656
C28	C	0.924104	-0.047506	1.166656
C29	C	0.157413	-0.547503	0.666729
C30	C	0.657413	-0.047503	1.166729
C31	C	0.157397	-0.280846	0.666749
C32	C	0.657397	0.219154	1.166749
C33	C	0.200330	-0.409550	0.709625
C34	C	0.700330	0.090450	1.209625
C35	C	0.200339	-0.504608	0.709615
C36	C	0.700339	-0.004608	1.209615
C37	C	0.224118	-0.480848	0.733375
C38	C	0.724118	0.019152	1.233375
C39	C	0.327800	-0.462984	0.678792
C40	C	0.827800	0.037016	1.178792
C41	C	0.392611	-0.484588	0.657175
C42	C	0.892611	0.015412	1.157175
C43	C	0.392630	-0.589450	0.697162
C44	C	0.892630	-0.089450	1.197162
C45	C	0.327821	-0.567844	0.718781
C46	C	0.827821	-0.067844	1.218781
C47	C	0.215955	-0.377135	0.645910
C48	C	0.715955	0.122865	1.145910
C49	C	0.194327	-0.312320	0.624323
C50	C	0.694327	0.187680	1.124323
C51	C	0.141457	-0.312339	0.730169
C52	C	0.641457	0.187661	1.230169
C53	C	0.163084	-0.377154	0.751756
C54	C	0.663084	0.122846	1.251756
C55	C	0.136618	-0.488954	0.725292
C56	C	0.636618	0.011046	1.225292
C57	C	0.115007	-0.510553	0.703686
C58	C	0.615007	-0.010553	1.203686
C59	C	0.220833	-0.563461	0.650740
C60	C	0.720833	-0.063461	1.150740
C61	C	0.242447	-0.541861	0.672339
C62	C	0.742447	-0.041861	1.172339
C63	C	0.136680	-0.488971	0.837094
C64	C	0.636680	0.011029	1.337094
C65	C	0.115112	-0.510589	0.901907
C66	C	0.615112	-0.010589	1.401907
C67	C	0.220969	-0.563508	0.901868
C68	C	0.720969	-0.063508	1.401868
C69	C	0.242535	-0.541892	0.837053
C70	C	0.742535	-0.041892	1.337053
C71	C	0.200389	-0.504622	0.804668
C72	C	0.700389	-0.004622	1.304668
C73	C	0.295409	-0.504610	0.709593
C74	C	0.795409	-0.004610	1.209593
C75	C	0.132990	-0.570876	1.004655
C76	C	0.632990	-0.070876	1.504655
C77	C	0.495389	-0.570440	0.642547
C78	C	0.995389	-0.070440	1.142547
C79	C	0.132802	-0.570856	0.643399
C80	C	0.632802	-0.070856	1.143399
C81	C	0.133212	-0.209553	0.643833
C82	C	0.633212	0.290447	1.143833
C83	C	-0.097217	-0.706972	0.506986
C84	C	0.402783	-0.206972	1.006986
C85	C	-0.002040	-0.707108	0.412067
C86	C	0.497960	-0.207108	0.912067
C87	C	-0.002230	-0.802124	0.507163
C88	C	0.497770	-0.302124	1.007163
C89	C	-0.002214	-0.707101	0.507221
C90	C	0.497786	-0.207101	1.007221
C91	C	-0.025925	-0.730827	0.483360
C92	C	0.474075	-0.230827	0.983360
N93	N	0.553723	-0.590712	0.623415
N94	N	1.053723	-0.090712	1.123415
O95	O	0.751638	-0.596429	0.475603
O96	O	1.251638	-0.096429	0.975603
O97	O	0.751819	-0.716773	0.638980
O98	O	1.251819	-0.216773	1.138980
O99	O	0.751753	-0.716500	0.535361
O100	O	1.251753	-0.216500	1.035361
O101	O	0.751705	-0.596703	0.579222
O102	O	1.251705	-0.096703	1.079222
O103	O	0.648791	-0.682239	0.569747
O104	O	1.148791	-0.182239	1.069747
O105	O	0.648858	-0.682512	0.673366
O106	O	1.148858	-0.182512	1.173366
O107	O	0.648676	-0.562169	0.509989
O108	O	1.148676	-0.062169	1.009989
Cu109	Cu	0.639366	-0.619212	0.594817
Cu110	Cu	1.139366	-0.119212	1.094817
Cu111	Cu	0.761130	-0.659729	0.554152
Cu112	Cu	1.261130	-0.159729	1.054152
O113	O	0.648743	-0.562442	0.613609
O114	O	1.148743	-0.062442	1.113609
N115	N	0.846773	-0.688230	0.525548
N116	N	1.346773	-0.188230	1.025548
N117	N	0.114157	-0.151217	0.623565
N118	N	0.614157	0.348783	1.123565
O119	O	-0.033591	0.046803	0.617717
O120	O	0.466409	0.546803	1.117717
O121	O	0.129795	0.046806	0.497390
O122	O	0.629795	0.546806	0.997390
O123	O	0.026157	0.046789	0.497680
O124	O	0.526157	0.546789	0.997680
O125	O	0.070046	0.046819	0.617427
O126	O	0.570046	0.546819	1.117427
O127	O	0.060509	-0.056181	0.532004
O128	O	0.560509	0.443819	1.032004
O129	O	0.164146	-0.056164	0.531714
O130	O	0.664146	0.443836	1.031714
O131	O	0.000760	-0.056167	0.652041
O132	O	0.500760	0.443833	1.152041
Cu133	Cu	0.085590	-0.065568	0.595012
Cu134	Cu	0.585590	0.434432	1.095012
Cu135	Cu	0.044965	0.056206	0.554419
Cu136	Cu	0.544965	0.556206	1.054419
O137	O	0.104397	-0.056151	0.651751
O138	O	0.604397	0.443849	1.151751
N139	N	0.016390	0.141855	0.525867
N140	N	0.516390	0.641855	1.025867
N141	N	0.114410	-0.590756	1.062992
N142	N	0.614410	-0.090756	1.562992
O143	O	0.108565	-0.738494	1.260998
O144	O	0.608565	-0.238494	1.760998
O145	O	-0.011747	-0.575059	1.261012
O146	O	0.488253	-0.075059	1.761012
O147	O	-0.011470	-0.678679	1.260970
O148	O	0.488530	-0.178679	1.760970
O149	O	0.108287	-0.634874	1.261040
O150	O	0.608287	-0.134874	1.761040
O151	O	0.022849	-0.644347	1.158004
O152	O	0.522849	-0.144347	1.658004
O153	O	0.022572	-0.540726	1.158046
O154	O	0.522572	-0.040726	1.658046
O155	O	0.142884	-0.704162	1.158033
O156	O	0.642884	-0.204162	1.658033
Cu157	Cu	0.085861	-0.619309	1.148638
Cu158	Cu	0.585861	-0.119309	1.648638
Cu159	Cu	0.045275	-0.659911	1.270406
Cu160	Cu	0.545275	-0.159911	1.770406
O161	O	0.142606	-0.600541	1.158074
O162	O	0.642606	-0.100541	1.658074
N163	N	0.016726	-0.688471	1.356052
N164	N	0.516726	-0.188471	1.856052
C165	C	0.039385	-0.537207	0.498225
C166	C	0.539385	-0.037207	0.998225
C167	C	0.167616	-0.665350	0.498136
C168	C	0.667616	-0.165350	0.998136
C169	C	0.091204	-0.741950	0.651272
C170	C	0.591204	-0.241950	1.151272
C171	C	-0.037027	-0.613806	0.651361
C172	C	0.462973	-0.113806	1.151361
C173	C	0.700360	-0.716215	0.676756
C174	C	1.200360	-0.216215	1.176756
C175	C	0.700279	-0.715877	0.548436
C176	C	1.200279	-0.215877	1.048436
C177	C	0.700133	-0.562725	0.472214
C178	C	1.200133	-0.062725	0.972214
C179	C	0.700218	-0.563065	0.600533
C180	C	1.200218	-0.063065	1.100533
C181	C	0.167511	-0.004552	0.497940
C182	C	0.667511	0.495448	0.997940
C183	C	0.039211	-0.004699	0.498341
C184	C	0.539211	0.495301	0.998341
C185	C	-0.036999	-0.004682	0.651449
C186	C	0.463001	0.495318	1.151449
C187	C	0.091344	-0.004663	0.651090
C188	C	0.591344	0.495337	1.151090
C189	C	-0.011156	-0.537302	1.209530
C190	C	0.488844	-0.037302	1.709530
C191	C	-0.010806	-0.665617	1.209458
C192	C	0.489194	-0.165617	1.709458
C193	C	0.142293	-0.741918	1.209514
C194	C	0.642293	-0.241918	1.709514
C195	C	0.141950	-0.613596	1.209563
C196	C	0.641950	-0.113596	1.709563
H197	H	0.063231	-0.497836	0.928300
H198	H	0.563231	0.002164	1.428300
C199	C	0.026832	-0.474543	0.448042
C200	C	0.526832	0.025457	0.948042
C201	C	-0.033601	-0.436455	0.470390
C202	C	0.466399	0.063545	0.970390
C203	C	-0.045190	-0.378729	0.424176
C204	C	0.454810	0.121271	0.924176
H205	H	0.055362	-0.455877	0.436725
H206	H	0.555362	0.044123	0.936725
H207	H	0.031424	-0.479888	0.412852
H208	H	0.531424	0.020112	0.912852
H209	H	-0.038188	-0.431109	0.505570
H210	H	0.461812	0.068891	1.005570
H211	H	-0.062144	-0.455102	0.481703
H212	H	0.437856	0.044898	0.981703
H213	H	-0.040597	-0.384074	0.388986
H214	H	0.459403	0.115926	0.888986
H215	H	-0.016657	-0.360068	0.412862
H216	H	0.483343	0.139932	0.912862
H217	H	-0.086196	-0.352881	0.439331
H218	H	0.413804	0.147119	0.939331
C219	C	-0.099620	-0.004544	0.701757
C220	C	0.400380	0.495456	1.201757
C221	C	-0.145931	0.048438	0.680685
C222	C	0.354069	0.548438	1.180685
C223	C	-0.203624	0.048594	0.727014
C224	C	0.296376	0.548594	1.227014
H225	H	-0.107267	-0.040411	0.711546
H226	H	0.392733	0.459589	1.211546
H227	H	-0.099697	-0.004500	0.737690
H228	H	0.400303	0.495500	1.237690
H229	H	-0.145855	0.048389	0.644763
H230	H	0.354145	0.548389	1.144763
H231	H	-0.138305	0.084313	0.670901
H232	H	0.361695	0.584313	1.170901
H233	H	-0.203701	0.048638	0.762948
H234	H	0.296299	0.548638	1.262948
H235	H	-0.211265	0.012725	0.736800
H236	H	0.288735	0.512725	1.236800
H237	H	-0.235053	0.084545	0.712726
H238	H	0.264947	0.584545	1.212726
H239	H	0.100739	-0.004653	0.688708
H240	H	0.600739	0.495347	1.188708
C241	C	0.700104	-0.512794	0.612988
C242	C	1.200104	-0.012794	1.112988
C243	C	0.647105	-0.460993	0.606166
C244	C	1.147105	0.039007	1.106166
C245	C	0.646985	-0.414669	0.617626
C246	C	1.146985	0.085331	1.117626
H247	H	0.700111	-0.527836	0.653970
H248	H	1.200111	-0.027836	1.153970
H249	H	0.735967	-0.501457	0.584397
H250	H	1.235967	-0.001457	1.084397
H251	H	0.611252	-0.472329	0.634757
H252	H	1.111252	0.027671	1.134757
H253	H	0.647088	-0.445933	0.565188
H254	H	1.147088	0.054067	1.065188
H255	H	0.682848	-0.403332	0.589034
H256	H	1.182848	0.096668	1.089034
H257	H	0.646993	-0.429717	0.658607
H258	H	1.146993	0.070283	1.158607
H259	H	0.611030	-0.379515	0.612993
H260	H	1.111030	0.120485	1.112993
C261	C	0.700331	-0.766150	0.536034
C262	C	1.200331	-0.266150	1.036034
C263	C	0.700413	-0.819192	0.588838
C264	C	1.200413	-0.319192	1.088838
C265	C	0.700469	-0.865519	0.577435
C266	C	1.200469	-0.365519	1.077435
H267	H	0.664421	-0.751950	0.526251
H268	H	1.164421	-0.251950	1.026251
H269	H	0.736235	-0.775802	0.502266
H270	H	1.236235	-0.275802	1.002266
H271	H	0.664512	-0.809541	0.622596
H272	H	1.164512	-0.309541	1.122596
H273	H	0.736321	-0.833410	0.598630
H274	H	1.236321	-0.333410	1.098630
H275	H	0.736373	-0.875171	0.543666
H276	H	1.236373	-0.375171	1.043666
H277	H	0.664558	-0.851313	0.567651
H278	H	1.164558	-0.351313	1.067651
H279	H	0.700530	-0.901515	0.613258
H280	H	1.200530	-0.401515	1.113258
C281	C	-0.061456	-0.474686	1.209565
C282	C	0.438544	0.025314	1.709565
C283	C	-0.039279	-0.436485	1.209605
C284	C	0.460721	0.063515	1.709605
C285	C	-0.085600	-0.378801	1.209646
C286	C	0.414400	0.121199	1.709646
H287	H	-0.072736	-0.456078	1.173662
H288	H	0.427264	0.043922	1.673662
H289	H	-0.096641	-0.480078	1.245479
H290	H	0.403359	0.019922	1.745479
H291	H	-0.004105	-0.431091	1.173695
H292	H	0.495895	0.068909	1.673695
H293	H	-0.028003	-0.455073	1.245506
H294	H	0.471997	0.044927	1.745506
H295	H	-0.120784	-0.384194	1.245560
H296	H	0.379216	0.115806	1.745560
H297	H	-0.096877	-0.360200	1.173742
H298	H	0.403123	0.139800	1.673742
H299	H	-0.070561	-0.352877	1.209679
H300	H	0.429439	0.147123	1.709679
H301	H	-0.048413	-0.674973	1.209396
H302	H	0.451587	-0.174973	1.709396
H303	H	0.180068	-0.788855	1.209502
H304	H	0.680068	-0.288855	1.709502
C305	C	0.192051	-0.600975	1.209550
C306	C	0.692051	-0.100975	1.709550
C307	C	0.169611	-0.540524	1.209547
C308	C	0.669611	-0.040524	1.709547
C309	C	0.215749	-0.528873	1.209526
C310	C	0.715749	-0.028873	1.709526
H311	H	0.203362	-0.629484	1.245447
H312	H	0.703362	-0.129484	1.745447
H313	H	0.227260	-0.605560	1.173630
H314	H	0.727260	-0.105560	1.673630
H315	H	0.134413	-0.535945	1.245463
H316	H	0.634413	-0.035945	1.745463
H317	H	0.158304	-0.512003	1.173652
H318	H	0.658304	-0.012003	1.673652
H319	H	0.250958	-0.533458	1.173606
H320	H	0.750958	-0.033458	1.673606
H321	H	0.227057	-0.557385	1.245424
H322	H	0.727057	-0.057385	1.745424
H323	H	0.200531	-0.487855	1.209518
H324	H	0.700531	0.012145	1.709518
H325	H	0.102355	-0.458618	0.810728
H326	H	0.602355	0.041382	1.310728
C327	C	0.700456	-0.766526	0.739351
C328	C	1.200456	-0.266526	1.239351
C329	C	0.700480	-0.744339	0.777562
C330	C	1.200480	-0.244339	1.277562
C331	C	0.700577	-0.790671	0.835225
C332	C	1.200577	-0.290671	1.335225
H333	H	0.664579	-0.777831	0.757963
H334	H	1.164579	-0.277831	1.257963
H335	H	0.736394	-0.801700	0.733932
H336	H	1.236394	-0.301700	1.233932
H337	H	0.664546	-0.709177	0.782983
H338	H	1.164546	-0.209177	1.282983
H339	H	0.736354	-0.733039	0.758969
H340	H	1.236354	-0.233039	1.258969
H341	H	0.736515	-0.825844	0.829807
H342	H	1.236515	-0.325844	1.329807
H343	H	0.664699	-0.801972	0.853832
H344	H	1.164699	-0.301972	1.353832
H345	H	0.700599	-0.775626	0.861157
H346	H	1.200599	-0.275626	1.361157
C347	C	0.103734	-0.804636	0.701432
C348	C	0.603734	-0.304636	1.201432
C349	C	0.164156	-0.842735	0.679073
C350	C	0.664156	-0.342735	1.179073
C351	C	0.175718	-0.900488	0.725260
C352	C	0.675718	-0.400488	1.225260
H353	H	0.099154	-0.799357	0.736649
H354	H	0.599154	-0.299357	1.236649
H355	H	0.075174	-0.823255	0.712705
H356	H	0.575174	-0.323255	1.212705
H357	H	0.192709	-0.824120	0.667809
H358	H	0.692709	-0.324120	1.167809
H359	H	0.168751	-0.848032	0.643863
H360	H	0.668751	-0.348032	1.143863
H361	H	0.147157	-0.919107	0.736533
H362	H	0.647157	-0.419107	1.236533
H363	H	0.171135	-0.895203	0.760474
H364	H	0.671135	-0.395203	1.260474
H365	H	0.216713	-0.926347	0.710095
H366	H	0.716713	-0.426347	1.210095
C367	C	0.266827	-0.603978	0.936912
C368	C	0.766827	-0.103978	1.436912
C369	C	0.327236	-0.613063	0.894639
C370	C	0.827236	-0.113063	1.394639
C371	C	0.369499	-0.650349	0.926900
C372	C	0.869499	-0.150349	1.426900
H373	H	0.260691	-0.584241	0.962199
H374	H	0.760691	-0.084241	1.462199
H375	H	0.260658	-0.642853	0.962179
H376	H	0.760658	-0.142853	1.462179
H377	H	0.333403	-0.574196	0.869383
H378	H	0.833403	-0.074196	1.369383
H379	H	0.333392	-0.632808	0.869351
H380	H	0.833392	-0.132808	1.369351
H381	H	0.363330	-0.689223	0.952166
H382	H	0.863330	-0.189223	1.452166
H383	H	0.363358	-0.630607	0.952185
H384	H	0.863358	-0.130607	1.452185
H385	H	0.410491	-0.656522	0.898222
H386	H	0.910491	-0.156522	1.398222
C387	C	-0.099595	-0.601600	0.701734
C388	C	0.400405	-0.101600	1.201734
C389	C	-0.099599	-0.654508	0.754673
C390	C	0.400401	-0.154508	1.254673
C391	C	-0.157228	-0.643290	0.801086
C392	C	0.342772	-0.143290	1.301086
H393	H	-0.107185	-0.567878	0.711498
H394	H	0.392815	-0.067878	1.211498
H395	H	-0.131098	-0.591834	0.687544
H396	H	0.368902	-0.091834	1.187544
H397	H	-0.068106	-0.664267	0.768861
H398	H	0.431894	-0.164267	1.268861
H399	H	-0.092020	-0.688237	0.744929
H400	H	0.407980	-0.188237	1.244929
H401	H	-0.188731	-0.633523	0.786896
H402	H	0.311269	-0.133523	1.286896
H403	H	-0.164813	-0.609567	0.810844
H404	H	0.335187	-0.109567	1.310844
H405	H	-0.157240	-0.679187	0.837009
H406	H	0.342760	-0.179187	1.337009
C407	C	0.045801	-0.493525	0.720802
C408	C	0.545801	0.006475	1.220802
C409	C	0.013548	-0.456295	0.758088
C410	C	0.513548	0.043705	1.258088
C411	C	-0.050205	-0.440606	0.773876
C412	C	0.449795	0.059394	1.273876
H413	H	0.035063	-0.471497	0.684215
H414	H	0.535063	0.028503	1.184215
H415	H	0.035169	-0.530170	0.742818
H416	H	0.535169	-0.030170	1.242818
H417	H	0.024176	-0.419656	0.736072
H418	H	0.524176	0.080344	1.236072
H419	H	0.024267	-0.478311	0.794683
H420	H	0.524267	0.021689	1.294683
H421	H	-0.060837	-0.477251	0.795892
H422	H	0.439163	0.022749	1.295892
H423	H	-0.060936	-0.418580	0.737286
H424	H	0.439064	0.081420	1.237286
H425	H	-0.072096	-0.415348	0.799181
H426	H	0.427904	0.084652	1.299181
C427	C	0.230263	-0.677797	0.447921
C428	C	0.730263	-0.177797	0.947921
C429	C	0.268422	-0.738213	0.470210
C430	C	0.768422	-0.238213	0.970210
C431	C	0.326139	-0.749698	0.423972
C432	C	0.826139	-0.249698	0.923972
H433	H	0.224945	-0.673190	0.412714
H434	H	0.724945	-0.173190	0.912714
H435	H	0.248855	-0.649214	0.436650
H436	H	0.748855	-0.149214	0.936650
H437	H	0.249834	-0.766788	0.481472
H438	H	0.749834	-0.266788	0.981472
H439	H	0.273758	-0.742834	0.505411
H440	H	0.773758	-0.242834	1.005411
H441	H	0.344731	-0.721115	0.412701
H442	H	0.844731	-0.221115	0.912701
H443	H	0.320815	-0.745089	0.388768
H444	H	0.820815	-0.245089	0.888768
H445	H	0.352038	-0.790689	0.439090
H446	H	0.852038	-0.290689	0.939090
H447	H	0.700073	-0.524942	0.425295
H448	H	1.200073	-0.024942	0.925295
H449	H	0.214338	-0.004265	0.460069
H450	H	0.714338	0.495735	0.960069
C451	C	0.026588	-0.004763	0.448274
C452	C	0.526588	0.495237	0.948274
C453	C	-0.033845	-0.004793	0.470736
C454	C	0.466155	0.495207	0.970736
C455	C	-0.045490	-0.004869	0.424638
C456	C	0.454510	0.495131	0.924638
H457	H	0.031140	0.031127	0.413027
H458	H	0.531140	0.531127	0.913027
H459	H	0.055126	-0.040694	0.437023
H460	H	0.555126	0.459306	0.937023
H461	H	-0.062376	0.031135	0.481978
H462	H	0.437624	0.531135	0.981978
H463	H	-0.038412	-0.040679	0.505977
H464	H	0.461588	0.459321	1.005977
H465	H	-0.016951	-0.040801	0.413387
H466	H	0.483049	0.459199	0.913387
H467	H	-0.040934	0.031020	0.389393
H468	H	0.459066	0.531020	0.889393
H469	H	-0.086492	-0.004895	0.439873
H470	H	0.413508	0.495105	0.939873
H471	H	0.294416	-0.554643	0.810656
H472	H	0.794416	-0.054643	1.310656
H473	H	0.294333	-0.554601	0.659567
H474	H	0.794333	-0.054601	1.159567
C475	C	0.266591	-0.603797	0.610166
C476	C	0.766591	-0.103797	1.110166
C477	C	0.303730	-0.571226	0.556206
C478	C	0.803730	-0.071226	1.056206
C479	C	0.345890	-0.608357	0.518806
C480	C	0.845890	-0.108357	1.018806
H481	H	0.291954	-0.640456	0.632063
H482	H	0.791954	-0.140456	1.132063
H483	H	0.244629	-0.614413	0.599493
H484	H	0.744629	-0.114413	1.099493
H485	H	0.325690	-0.560619	0.566879
H486	H	0.825690	-0.060619	1.066879
H487	H	0.278384	-0.534570	0.534292
H488	H	0.778384	-0.034570	1.034292
H489	H	0.323928	-0.618973	0.508133
H490	H	0.823928	-0.118973	1.008133
H491	H	0.371248	-0.645014	0.540709
H492	H	0.871248	-0.145014	1.040709
H493	H	0.371090	-0.586261	0.482188
H494	H	0.871090	-0.086261	0.982188
C495	C	0.292763	-0.613136	0.752180
C496	C	0.792763	-0.113136	1.252180
C497	C	0.335023	-0.673134	0.755578
C498	C	0.835023	-0.173134	1.255578
C499	C	0.302751	-0.714871	0.786334
C500	C	0.802751	-0.214871	1.286334
H501	H	0.267495	-0.611565	0.792809
H502	H	0.767495	-0.111565	1.292809
H503	H	0.267478	-0.602323	0.730098
H504	H	0.767478	-0.102323	1.230098
H505	H	0.360297	-0.683943	0.777660
H506	H	0.860297	-0.183943	1.277660
H507	H	0.360293	-0.674724	0.714958
H508	H	0.860293	-0.174724	1.214958
H509	H	0.277466	-0.704059	0.764253
H510	H	0.777466	-0.204059	1.264253
H511	H	0.277484	-0.713295	0.826961
H512	H	0.777484	-0.213295	1.326961
H513	H	0.331420	-0.755584	0.788639
H514	H	0.831420	-0.255584	1.288639
H515	H	0.102328	-0.458621	0.755642
H516	H	0.602328	0.041379	1.255642
H517	H	0.419022	-0.640939	0.704632
H518	H	0.919022	-0.140939	1.204632
H519	H	0.418982	-0.450689	0.632093
H520	H	0.918982	0.049311	1.132093
H521	H	0.246280	-0.403511	0.611604
H522	H	0.746280	0.096489	1.111604
C523	C	0.292690	-0.394301	0.668691
C524	C	0.792690	0.105699	1.168691
C525	C	0.308439	-0.361145	0.605133
C526	C	0.808439	0.138855	1.105133
C527	C	0.276113	-0.297872	0.595804
C528	C	0.776113	0.202128	1.095804
H529	H	0.249443	-0.387304	0.685921
H530	H	0.749443	0.112696	1.185921
H531	H	0.303337	-0.380866	0.688240
H532	H	0.803337	0.119134	1.188240
H533	H	0.297788	-0.374576	0.585591
H534	H	0.797788	0.125424	1.085591
H535	H	0.351681	-0.368123	0.587889
H536	H	0.851681	0.131877	1.087889
H537	H	0.286760	-0.284436	0.615353
H538	H	0.786760	0.215564	1.115353
H539	H	0.232867	-0.290881	0.613037
H540	H	0.732867	0.209119	1.113037
H541	H	0.286798	-0.275367	0.552680
H542	H	0.786798	0.224633	1.052680
C543	C	0.211256	-0.277200	0.555126
C544	C	0.711256	0.222800	1.055126
C545	C	0.189220	-0.292971	0.528455
C546	C	0.689220	0.207029	1.028455
C547	C	0.204811	-0.260638	0.464712
C548	C	0.704811	0.239362	0.964712
H549	H	0.193054	-0.233950	0.548218
H550	H	0.693054	0.266050	1.048218
H551	H	0.254987	-0.287830	0.536883
H552	H	0.754987	0.212170	1.036883
H553	H	0.145498	-0.282337	0.546692
H554	H	0.645498	0.217663	1.046692
H555	H	0.207419	-0.336216	0.535346
H556	H	0.707419	0.163784	1.035346
H557	H	0.248542	-0.271268	0.446470
H558	H	0.748542	0.228732	0.946470
H559	H	0.186608	-0.217389	0.457811
H560	H	0.686608	0.282611	0.957811
H561	H	0.189867	-0.271338	0.446607
H562	H	0.689867	0.228662	0.946607
C563	C	0.101105	-0.277235	0.775973
C564	C	0.601105	0.222765	1.275973
C565	C	0.133671	-0.293007	0.813145
C566	C	0.633671	0.206993	1.313145
C567	C	0.096514	-0.260688	0.855351
C568	C	0.596514	0.239312	1.355351
H569	H	0.090443	-0.233983	0.754065
H570	H	0.590443	0.266017	1.254065
H571	H	0.064472	-0.287877	0.801306
H572	H	0.564472	0.212123	1.301306
H573	H	0.170293	-0.282361	0.787815
H574	H	0.670293	0.217639	1.287815
H575	H	0.144333	-0.336253	0.835067
H576	H	0.644333	0.163747	1.335067
H577	H	0.059881	-0.271329	0.880683
H578	H	0.559881	0.228671	1.380683
H579	H	0.085855	-0.217437	0.833437
H580	H	0.585855	0.282563	1.333437
H581	H	0.118603	-0.271388	0.880580
H582	H	0.618603	0.228612	1.380580
H583	H	0.150353	-0.403547	0.803641
H584	H	0.650353	0.096453	1.303641
