data_functionalizedCrystal
_audit_creation_method	'MofGen! by Chris Wilmer'
_symmetry_space_group_name_H-M	'P1'
_symmetry_Int_Tables_number	1
_symmetry_cell_setting	triclinic
loop_
_symmetry_equiv_pos_as_xyz
  x,y,z
_cell_length_a	10.723024
_cell_length_b	23.532407
_cell_length_c	9.198806
_cell_angle_alpha	89.992171
_cell_angle_beta	89.996352
_cell_angle_gamma	83.658273
loop_
_atom_site_label
_atom_site_type_symbol
_atom_site_fract_x
_atom_site_fract_y
_atom_site_fract_z
O1	O	1.654700	0.079871	-0.120900
O2	O	1.291309	0.087516	-0.120906
O3	O	1.483962	0.000833	-0.120876
O4	O	1.462046	0.166554	-0.120930
O5	O	1.483947	0.000833	0.120909
O6	O	1.291294	0.087516	0.120879
O7	O	1.654684	0.079871	0.120885
Cu8	Cu	1.472988	0.083693	0.142959
Cu9	Cu	1.473006	0.083693	-0.142980
O10	O	1.462031	0.166554	0.120855
C11	C	1.244819	0.086960	-0.000014
C12	C	1.106317	0.085295	-0.000015
C13	C	1.029823	0.133798	-0.000032
C14	C	0.886673	0.132079	-0.000033
C15	C	1.483397	-0.020387	0.000020
C16	C	1.481719	-0.083615	0.000031
C17	C	1.585203	-0.482046	-0.000046
C18	C	1.583644	-0.541457	-0.000058
O19	O	1.679575	-0.577579	-0.000109
N20	N	1.469112	-0.564826	-0.000059
C21	C	1.356131	-0.528782	-0.000063
O22	O	1.258569	-0.554114	-0.000067
C23	C	1.357691	-0.469373	-0.000063
C24	C	1.472230	-0.446007	-0.000047
C25	C	1.699733	-0.458680	-0.000032
C26	C	1.701291	-0.399274	-0.000019
C27	C	1.588319	-0.363234	-0.000019
C28	C	1.473789	-0.386600	-0.000033
C29	C	1.244711	-0.433329	-0.000078
C30	C	1.246281	-0.373917	-0.000078
C31	C	1.360821	-0.350551	-0.000062
C32	C	1.362374	-0.291154	-0.000020
N33	N	1.476907	-0.267785	-0.000019
C34	C	1.589879	-0.303825	-0.000018
C35	C	1.352863	-0.653545	-0.000067
C36	C	1.351302	-0.712953	-0.000057
C37	C	1.578816	-0.725625	-0.000054
C38	C	1.580376	-0.666215	-0.000054
C39	C	1.467395	-0.630176	-0.000066
C40	C	1.593143	-0.179067	0.000012
C41	C	1.594691	-0.119655	0.000032
C42	C	1.367178	-0.106989	0.000021
C43	C	1.365629	-0.166396	0.000009
C44	C	1.478622	-0.202434	-0.000001
O45	O	1.266494	-0.254997	0.000026
O46	O	1.687425	-0.278484	-0.000034
C47	C	1.701174	0.080427	-0.000010
C48	C	1.839677	0.082092	-0.000018
C49	C	1.462597	0.187774	-0.000044
C50	C	1.464275	0.251001	-0.000065
N51	N	1.472984	0.083693	0.344073
N52	N	1.473019	0.083689	-0.344094
C53	C	1.553879	0.047136	0.416283
C54	C	1.553898	0.047134	0.583695
H55	H	1.687967	-0.100634	0.000048
C56	C	1.647421	0.004856	0.332380
H57	H	1.635141	0.010406	0.230867
H58	H	1.634134	-0.033188	0.357270
H59	H	1.730708	0.011274	0.357229
H60	H	1.623160	0.015839	0.645792
H61	H	0.820947	0.173602	-0.000054
H62	H	1.403763	0.114991	0.593818
C63	C	1.242915	-0.067341	0.000011
H64	H	1.174472	-0.089762	0.000009
H65	H	1.238816	-0.043897	-0.084304
H66	H	1.238787	-0.043907	0.084338
H67	H	1.403737	0.114986	0.406190
C68	C	1.824011	-0.498318	-0.000035
H69	H	1.806700	-0.537050	-0.000048
H70	H	1.870997	-0.491185	0.084281
H71	H	1.871004	-0.491176	-0.084361
H72	H	0.905395	0.040567	-0.000013
C73	C	1.827286	-0.373579	-0.000029
H74	H	1.894335	-0.403558	-0.000047
H75	H	1.832639	-0.350670	0.084283
H76	H	1.832625	-0.350665	-0.084360
C77	C	1.084507	0.191617	-0.000052
H78	H	1.173546	0.185188	-0.000059
H79	H	1.056855	0.212668	0.084253
H80	H	1.056868	0.212664	-0.084389
C81	C	1.706367	-0.640518	-0.000050
H82	H	1.773420	-0.670496	-0.000057
H83	H	1.711707	-0.617609	0.084262
H84	H	1.711715	-0.617605	-0.084380
C85	C	1.717431	-0.218700	0.000014
H86	H	1.785856	-0.196268	0.000038
H87	H	1.721575	-0.242135	-0.084302
H88	H	1.721548	-0.242143	0.084340
H89	H	1.065828	0.042497	-0.000039
C90	C	1.703084	-0.765276	-0.000081
H91	H	1.685742	-0.804003	-0.000104
H92	H	1.750091	-0.758156	0.084229
H93	H	1.750072	-0.758137	-0.084414
H94	H	1.260855	-0.624205	-0.000065
C95	C	1.225309	-0.738650	-0.000063
H96	H	1.158256	-0.708672	-0.000072
H97	H	1.219956	-0.761569	0.084245
H98	H	1.219974	-0.761552	-0.084397
C99	C	1.118715	-0.459019	-0.000108
H100	H	1.051668	-0.429039	-0.000127
H101	H	1.113349	-0.481937	0.084200
H102	H	1.113385	-0.481922	-0.084442
H103	H	1.154276	-0.344576	-0.000090
H104	H	1.272361	-0.185421	0.000036
