data_functionalizedCrystal
_audit_creation_method	'MofGen! by Chris Wilmer'
_symmetry_space_group_name_H-M	'P1'
_symmetry_Int_Tables_number	1
_symmetry_cell_setting	triclinic
loop_
_symmetry_equiv_pos_as_xyz
  x,y,z
_cell_length_a	27.732064
_cell_length_b	15.944551
_cell_length_c	15.021413
_cell_angle_alpha	90.009487
_cell_angle_beta	90.002651
_cell_angle_gamma	96.925919
loop_
_atom_site_label
_atom_site_type_symbol
_atom_site_fract_x
_atom_site_fract_y
_atom_site_fract_z
O1	O	0.641355	-0.100016	-0.073875
O2	O	0.500628	-0.115198	-0.073912
O3	O	0.574835	0.014718	-0.073885
O4	O	0.567149	-0.229931	-0.073903
O5	O	0.574828	0.014731	0.074180
O6	O	0.500622	-0.115184	0.074152
O7	O	0.641349	-0.100002	0.074189
Zn8	Zn	0.570984	-0.107591	0.097679
Zn9	Zn	0.570993	-0.107609	-0.097402
O10	O	0.567142	-0.229918	0.074162
C11	C	0.482617	-0.114870	0.000115
C12	C	0.428958	-0.113904	0.000102
C13	C	0.051525	-0.030554	0.000158
C14	C	0.253200	-0.034109	0.000135
O15	O	0.284173	0.030568	0.000173
N16	N	0.272662	-0.111147	0.000125
C17	C	0.241700	-0.187301	0.000127
O18	O	0.262881	-0.252908	0.000128
C19	C	0.040026	-0.183745	0.000157
C20	C	0.020567	-0.106702	0.000158
C21	C	0.032066	0.046483	0.000160
C22	C	-0.018350	0.047371	0.000161
C23	C	-0.049307	-0.028778	0.000160
C24	C	-0.029849	-0.105814	0.000159
C25	C	0.009065	-0.259898	0.000166
C26	C	-0.041356	-0.259002	0.000175
C27	C	-0.060814	-0.181959	0.000176
C28	C	-0.111222	-0.181074	0.000159
N29	N	-0.130683	-0.104037	0.000169
C30	C	-0.099726	-0.027888	0.000169
C31	C	0.347583	-0.189163	0.000110
C32	C	0.398001	-0.190052	0.000101
C33	C	0.409498	-0.036860	0.000110
C34	C	0.359078	-0.035972	0.000113
C35	C	0.328122	-0.112125	0.000120
C36	C	-0.205603	-0.026029	0.000171
C37	C	-0.256024	-0.025148	0.000168
C38	C	-0.267516	-0.178339	0.000164
C39	C	-0.217100	-0.179221	0.000162
C40	C	-0.186144	-0.103059	0.000168
O41	O	-0.142223	-0.245717	0.000131
O42	O	-0.120915	0.037709	0.000189
C43	C	0.101941	-0.031442	0.000157
C44	C	0.121399	-0.108478	0.000156
C45	C	0.090442	-0.184626	0.000155
C46	C	0.171818	-0.109368	0.000147
C47	C	0.202775	-0.033219	0.000147
C48	C	0.183314	0.043818	0.000157
C49	C	0.132898	0.044706	0.000158
C50	C	0.109903	-0.261664	0.000146
C51	C	0.160320	-0.262546	0.000144
C52	C	0.191277	-0.186398	0.000144
C53	C	0.574512	0.046015	0.000148
C54	C	0.573556	0.139248	0.000148
C55	C	0.659360	-0.100330	0.000160
C56	C	0.713019	-0.101296	0.000167
C57	C	0.567465	-0.261214	0.000127
C58	C	0.568421	-0.354448	0.000121
N59	N	0.570982	-0.107579	0.230817
C60	C	0.525273	0.353478	0.000123
C61	C	0.547691	0.414793	0.073133
C62	C	0.571825	0.309952	0.000140
C63	C	0.547708	0.414764	-0.072846
C64	C	0.570150	0.474843	0.000130
C65	C	0.594256	0.370038	0.073211
C66	C	0.594267	0.370002	-0.072834
C67	C	0.616718	0.431300	0.000194
C68	C	0.572789	0.214962	0.000148
C69	C	0.569190	0.569831	0.000129
C70	C	0.605038	-0.047036	0.529820
C71	C	0.614813	-0.122579	0.470451
C72	C	0.570994	-0.107604	0.587853
C73	C	0.561235	-0.032050	0.470481
C74	C	0.570989	-0.107588	0.412429
C75	C	0.580791	-0.183186	0.529791
C76	C	0.527194	-0.092607	0.529826
C77	C	0.536951	-0.168206	0.470483
C78	C	0.570997	-0.107613	0.688911
C79	C	0.570985	-0.107588	0.311374
N80	N	0.570999	-0.107614	0.769460
H81	H	0.343239	0.026763	0.000114
H82	H	-0.034188	0.110107	0.000165
H83	H	0.613942	0.350122	-0.134552
H84	H	0.486632	0.319669	0.000186
C85	C	0.664848	-0.139709	0.435205
C86	C	0.705864	-0.152940	0.500948
C87	C	0.755900	-0.170059	0.465703
C88	C	0.764920	-0.173946	0.364716
C89	C	0.723904	-0.160714	0.298966
C90	C	0.673868	-0.143596	0.334211
H91	H	0.699187	-0.150063	0.575711
H92	H	0.786263	-0.179854	0.514376
H93	H	0.801960	-0.186618	0.338625
H94	H	0.730580	-0.163592	0.224203
H95	H	0.643504	-0.133801	0.285538
H96	H	-0.180404	0.035990	0.000176
H97	H	0.655393	0.464960	0.000246
C98	C	0.521105	0.441549	-0.156232
C99	C	0.467584	0.406642	-0.172262
C100	C	0.440977	0.433423	-0.255642
C101	C	0.467890	0.495112	-0.322992
C102	C	0.521414	0.530023	-0.306964
C103	C	0.548021	0.503242	-0.223584
H104	H	0.447659	0.360972	-0.122404
H105	H	0.401356	0.407579	-0.267507
H106	H	0.448194	0.514937	-0.384715
H107	H	0.541339	0.575692	-0.356822
H108	H	0.587642	0.529086	-0.211719
C109	C	0.066114	0.130256	0.000155
C110	C	0.063925	0.193584	0.077037
C111	C	0.097969	0.277363	0.077022
C112	C	0.134201	0.297815	0.000126
C113	C	0.136391	0.234485	-0.076762
C114	C	0.102347	0.150705	-0.076747
H115	H	0.037103	0.178445	0.133965
H116	H	0.096347	0.324244	0.133940
H117	H	0.159402	0.359833	0.000116
H118	H	0.163213	0.249623	-0.133690
H119	H	0.103969	0.103825	-0.133665
H120	H	0.552984	0.031838	0.444427
C121	C	0.443557	0.046904	0.000117
C122	C	0.441372	0.110219	-0.076756
C123	C	0.475434	0.193979	-0.076741
C124	C	0.511681	0.214422	0.000147
C125	C	0.513868	0.151106	0.077025
C126	C	0.479806	0.067347	0.077011
H127	H	0.414538	0.095087	-0.133678
H128	H	0.473815	0.240850	-0.133652
H129	H	0.536896	0.276426	0.000157
H130	H	0.540702	0.166238	0.133947
H131	H	0.481425	0.020476	0.133922
C132	C	0.217373	0.127583	0.000160
C133	C	0.253620	0.148033	0.077048
C134	C	0.287682	0.231792	0.077057
C135	C	0.285497	0.295101	0.000177
C136	C	0.249250	0.274652	-0.076717
C137	C	0.215188	0.190893	-0.076725
H138	H	0.255238	0.101167	0.133964
H139	H	0.314514	0.246930	0.133979
H140	H	0.310712	0.357104	0.000184
H141	H	0.247632	0.321518	-0.133633
H142	H	0.188355	0.175756	-0.133648
H143	H	0.633850	0.004121	0.555873
H144	H	0.589082	-0.247089	0.555734
C145	C	-0.075409	-0.342774	0.000178
C146	C	-0.073221	-0.406097	-0.076710
C147	C	-0.107273	-0.489868	-0.076710
C148	C	-0.143511	-0.510316	0.000177
C149	C	-0.145700	-0.446992	0.077071
C150	C	-0.111648	-0.363221	0.077071
H151	H	-0.046394	-0.390961	-0.133631
H152	H	-0.105652	-0.536744	-0.133632
H153	H	-0.168718	-0.572328	0.000177
H154	H	-0.172527	-0.462128	0.133992
H155	H	-0.113269	-0.316345	0.133993
C156	C	0.498052	-0.237461	0.435499
C157	C	0.500947	-0.330698	0.459124
C158	C	0.462051	-0.399954	0.424138
C159	C	0.420260	-0.375973	0.365527
C160	C	0.417363	-0.282732	0.341899
C161	C	0.456259	-0.213475	0.376885
H162	H	0.531885	-0.348454	0.502513
H163	H	0.464195	-0.468978	0.441629
H164	H	0.391467	-0.427241	0.339628
H165	H	0.386425	-0.264976	0.298510
H166	H	0.454115	-0.144452	0.359394
H167	H	-0.271864	0.037592	0.000166
C168	C	0.477173	-0.075441	0.565095
C169	C	0.472957	0.001651	0.625102
C170	C	0.422937	0.018828	0.660373
C171	C	0.377133	-0.041085	0.635636
C172	C	0.381347	-0.118182	0.575625
C173	C	0.431367	-0.135360	0.540355
H174	H	0.506866	0.046007	0.643417
H175	H	0.419818	0.075900	0.704797
H176	H	0.340105	-0.028369	0.661745
H177	H	0.347438	-0.162538	0.557311
H178	H	0.434487	-0.192432	0.495931
C179	C	0.419401	-0.274801	0.000091
C180	C	0.407726	-0.337854	0.076978
C181	C	0.429123	-0.422607	0.076974
C182	C	0.462195	-0.444306	0.000083
C183	C	0.473871	-0.381251	-0.076810
C184	C	0.452474	-0.296499	-0.076806
H185	H	0.383244	-0.321792	0.133902
H186	H	0.420480	-0.469284	0.133896
H187	H	0.478034	-0.507045	0.000080
H188	H	0.498354	-0.397313	-0.133734
H189	H	0.461117	-0.249822	-0.133728
H190	H	0.322381	-0.251180	0.000114
H191	H	0.024899	-0.322634	0.000161
H192	H	0.117060	0.107442	0.000159
H193	H	0.527998	0.434651	0.134848
C194	C	0.620828	0.343394	0.156694
C195	C	0.594024	0.281183	0.223675
C196	C	0.620594	0.254537	0.307158
C197	C	0.673968	0.290102	0.323658
C198	C	0.700775	0.352317	0.256675
C199	C	0.674205	0.378963	0.173192
H200	H	0.554511	0.254852	0.211462
H201	H	0.600750	0.208482	0.356743
H202	H	0.693637	0.270377	0.385457
H203	H	0.740288	0.378647	0.268887
H204	H	0.694050	0.425018	0.123607
C205	C	-0.301576	-0.262098	0.000167
C206	C	-0.337828	-0.282561	-0.076710
C207	C	-0.371890	-0.366320	-0.076698
C208	C	-0.369701	-0.429616	0.000191
C209	C	-0.333447	-0.409155	0.077074
C210	C	-0.299385	-0.325396	0.077062
H211	H	-0.339451	-0.235703	-0.133633
H212	H	-0.398727	-0.381466	-0.133612
H213	H	-0.394915	-0.491619	0.000200
H214	H	-0.331825	-0.456013	0.133997
H215	H	-0.272548	-0.310250	0.133976
H216	H	0.176157	-0.325288	0.000137
C217	C	0.075855	-0.345435	0.000141
C218	C	0.078049	-0.408749	-0.076753
C219	C	0.044003	-0.492526	-0.076763
C220	C	0.007765	-0.512990	0.000121
C221	C	0.005570	-0.449674	0.077020
C222	C	0.039615	-0.365897	0.077030
H223	H	0.104876	-0.393602	-0.133672
H224	H	0.045628	-0.539396	-0.133689
H225	H	-0.017438	-0.575007	0.000113
H226	H	-0.021258	-0.464821	0.133939
H227	H	0.037990	-0.319027	0.133957
H228	H	-0.201257	-0.241955	0.000160
