data_functionalizedCrystal
_audit_creation_method	'MofGen! by Chris Wilmer'
_symmetry_space_group_name_H-M	'P1'
_symmetry_Int_Tables_number	1
_symmetry_cell_setting	triclinic
loop_
_symmetry_equiv_pos_as_xyz
  x,y,z
_cell_length_a	12.837943
_cell_length_b	12.837942
_cell_length_c	11.892095
_cell_angle_alpha	85.697431
_cell_angle_beta	85.689438
_cell_angle_gamma	85.171060
loop_
_atom_site_label
_atom_site_type_symbol
_atom_site_fract_x
_atom_site_fract_y
_atom_site_fract_z
O1	O	1.408367	-0.266110	-0.093982
O2	O	1.105234	-0.252667	-0.093989
O3	O	1.250078	-0.107822	-0.093979
O4	O	1.263522	-0.410955	-0.093992
O5	O	1.237999	-0.119879	0.094028
O6	O	1.093155	-0.264723	0.094018
O7	O	1.396288	-0.278167	0.094025
Zn8	Zn	1.242803	-0.273359	0.123871
Zn9	Zn	1.258718	-0.257474	-0.123836
O10	O	1.251443	-0.423011	0.094014
C11	C	1.239497	-0.074781	0.000024
C12	C	1.225953	0.041634	0.000022
C13	C	1.060125	-0.254153	0.000014
C14	C	0.943710	-0.240609	0.000011
N15	N	1.231950	-0.284200	0.292925
C16	C	0.718835	-0.403439	0.000020
C17	C	0.609453	-0.390717	0.000019
C18	C	0.615561	-0.202446	0.000015
C19	C	0.724943	-0.215167	0.000017
C20	C	0.776577	-0.315667	0.000017
C21	C	0.885961	-0.328387	0.000011
C22	C	0.892066	-0.140117	0.000015
C23	C	0.782684	-0.127395	0.000014
C24	C	1.441397	-0.276680	0.000020
C25	C	1.557812	-0.290224	0.000015
C26	C	1.262024	-0.456052	0.000009
C27	C	1.275569	-0.572467	0.000004
C28	C	1.388784	0.266509	0.000002
C29	C	1.376062	0.375892	-0.000000
C30	C	1.187791	0.369784	0.000007
C31	C	1.200512	0.260402	0.000009
C32	C	1.301011	0.208768	0.000008
C33	C	1.313731	0.099383	0.000019
C34	C	1.125461	0.093278	0.000018
C35	C	1.112740	0.202660	0.000016
N36	N	1.269579	-0.246626	-0.292889
C37	C	1.345098	-0.171130	0.529580
C38	C	1.337519	-0.178716	0.647922
C39	C	1.209210	-0.306952	0.647951
C40	C	1.216788	-0.299366	0.529610
C41	C	1.284736	-0.231454	0.470428
C42	C	1.292319	-0.223874	0.352085
C43	C	1.164005	-0.352104	0.352116
C44	C	1.156426	-0.359690	0.470458
H45	H	0.760876	-0.485269	0.000019
O46	O	1.090363	-0.425517	0.528078
C47	C	0.941001	-0.442165	0.661670
C48	C	1.015755	-0.367500	0.596508
H49	H	0.880649	-0.395285	0.716993
H50	H	0.987756	-0.502481	0.717142
H51	H	0.899211	-0.484005	0.599042
H52	H	1.057563	-0.325586	0.659054
H53	H	0.968944	-0.307249	0.541019
H54	H	0.562444	-0.462191	0.000024
H55	H	1.347647	-0.168579	0.303901
H56	H	0.573495	-0.120630	0.000108
O57	O	1.090110	0.419820	0.000147
C58	C	0.919061	0.441889	0.097564
C59	C	1.029638	0.385133	0.097539
H60	H	0.870145	0.413883	0.176309
H61	H	0.880128	0.423883	0.018937
H62	H	0.925075	0.529986	0.097498
H63	H	1.023717	0.297023	0.097645
H64	H	1.068529	0.403226	0.176159
H65	H	1.400430	-0.115841	0.481394
H66	H	0.740628	-0.045572	0.000026
O67	O	1.105211	-0.410657	0.294776
C68	C	0.931568	-0.451570	0.258538
C69	C	0.998016	-0.385209	0.323568
H70	H	0.844887	-0.431004	0.281774
H71	H	0.951918	-0.538277	0.281827
H72	H	0.948714	-0.434506	0.163797
H73	H	0.980906	-0.402183	0.418324
H74	H	0.977655	-0.298523	0.300185
O75	O	1.015112	0.252788	-0.000183
C76	C	0.856532	0.287226	-0.097538
C77	C	0.967084	0.230421	-0.097470
H78	H	0.817660	0.269145	-0.176174
H79	H	0.862459	0.375338	-0.097616
H80	H	0.807602	0.259187	-0.018817
H81	H	1.016074	0.258373	-0.176178
H82	H	0.961078	0.142317	-0.097333
H83	H	0.939091	-0.068646	0.000005
H84	H	1.395563	0.057344	0.000022
O85	O	1.396263	-0.120076	0.705207
C86	C	1.524273	0.007972	0.692685
C87	C	1.457825	-0.058402	0.627669
H88	H	1.574046	0.057869	0.630024
H89	H	1.577558	-0.045915	0.748048
H90	H	1.470340	0.061156	0.748130
H91	H	1.511678	-0.111593	0.572163
H92	H	1.404530	-0.004454	0.572378
H93	H	1.153882	-0.362237	0.696151
O94	O	1.040148	0.037218	0.000224
C95	C	0.876846	-0.007660	0.097605
C96	C	0.973414	0.055864	0.097519
H97	H	0.822854	0.007410	0.176248
H98	H	0.903136	-0.094728	0.097684
H99	H	0.833020	0.017367	0.018891
H100	H	1.017283	0.030927	0.176220
H101	H	0.947057	0.142918	0.097382
O102	O	1.486435	0.216404	-0.000197
C103	C	1.657517	0.194435	-0.097563
C104	C	1.546958	0.251235	-0.097490
H105	H	1.706487	0.222589	-0.176203
H106	H	1.651596	0.106332	-0.097635
H107	H	1.696340	0.212385	-0.018846
H108	H	1.508072	0.233370	-0.176193
H109	H	1.552950	0.339321	-0.097359
O110	O	0.936012	-0.426051	-0.000137
C111	C	0.970559	-0.584598	-0.097562
C112	C	0.913806	-0.474021	-0.097526
H113	H	0.952644	-0.623406	-0.176303
H114	H	0.942471	-0.633620	-0.018932
H115	H	1.058649	-0.578597	-0.097509
H116	H	0.825708	-0.479924	-0.097618
H117	H	0.941979	-0.425041	-0.176149
H118	H	1.447536	0.422901	-0.000009
