data_functionalizedCrystal
_audit_creation_method	'MofGen! by Chris Wilmer'
_symmetry_space_group_name_H-M	'P1'
_symmetry_Int_Tables_number	1
_symmetry_cell_setting	triclinic
loop_
_symmetry_equiv_pos_as_xyz
  x,y,z
_cell_length_a	19.188922
_cell_length_b	14.853567
_cell_length_c	13.330367
_cell_angle_alpha	90.004582
_cell_angle_beta	90.007148
_cell_angle_gamma	83.388013
loop_
_atom_site_label
_atom_site_type_symbol
_atom_site_fract_x
_atom_site_fract_y
_atom_site_fract_z
O1	O	-0.091155	-1.195858	-0.083360
O2	O	-0.102014	-0.933338	-0.083378
O3	O	0.005046	-1.072178	-0.083356
O4	O	-0.198216	-1.057018	-0.083382
O5	O	0.005048	-1.072158	0.083492
O6	O	-0.102012	-0.933318	0.083469
O7	O	-0.091153	-1.195838	0.083487
Cu8	Cu	-0.096582	-1.064576	0.098713
Cu9	Cu	-0.096585	-1.064600	-0.098603
O10	O	-0.198213	-1.056998	0.083465
C11	C	-0.101521	-0.899742	0.000044
C12	C	-0.100047	-0.799666	0.000037
C13	C	0.031060	-1.071678	0.000069
C14	C	0.108570	-1.070209	0.000073
C15	C	0.144970	-1.069534	-0.090876
C16	C	0.217797	-1.068140	-0.090883
C17	C	0.254224	-1.067440	0.000064
C18	C	0.217814	-1.068110	0.091024
C19	C	0.144987	-1.069494	0.091029
N20	N	0.373724	-1.116561	0.067758
N21	N	0.442907	-1.115247	0.067747
C22	C	0.473647	-1.063266	0.000056
N23	N	0.432592	-1.012659	-0.067639
N24	N	0.363403	-1.013976	-0.067632
C25	C	0.333192	-1.065938	0.000069
C26	C	0.589014	-1.061078	-0.090906
C27	C	0.661843	-1.059679	-0.090909
C28	C	0.661859	-1.059658	0.091001
C29	C	0.589032	-1.061048	0.091001
C30	C	0.552614	-1.061762	0.000045
C31	C	-0.091646	-1.229434	0.000063
C32	C	-0.093121	-1.329510	0.000063
C33	C	0.775773	-1.057500	0.000040
C34	C	0.698264	-1.058977	0.000039
N35	N	-0.096580	-1.064566	0.237494
C36	C	-0.030218	-0.387524	0.000069
C37	C	-0.157408	-0.365530	0.000051
C38	C	-0.158794	-0.459556	0.000048
C39	C	-0.095891	-0.517570	0.000053
C40	C	-0.031602	-0.481559	0.000062
C41	C	-0.223082	-0.495575	0.000028
C42	C	-0.224471	-0.589606	0.000024
C43	C	-0.161568	-0.647623	0.000037
C44	C	-0.097276	-0.611605	0.000047
C45	C	-0.034373	-0.669620	0.000053
C46	C	0.029919	-0.633604	0.000070
C47	C	0.031301	-0.539575	0.000075
C48	C	-0.162949	-0.741652	0.000031
C49	C	-0.035758	-0.763655	0.000046
N50	N	-0.096582	-1.064617	-0.237385
C51	C	-0.143973	-1.003119	0.710107
C52	C	-0.049192	-1.126105	0.710095
C53	C	-0.049190	-1.126095	0.605077
C54	C	-0.096581	-1.064597	0.552569
C55	C	-0.143973	-1.003109	0.605079
C56	C	-0.001803	-1.187588	0.552558
C57	C	-0.001799	-1.187581	0.447533
C58	C	-0.049187	-1.126078	0.395024
C59	C	-0.096581	-1.064586	0.447541
C60	C	-0.143972	-1.003088	0.395033
C61	C	-0.191363	-0.941592	0.447548
C62	C	-0.191361	-0.941605	0.552569
C63	C	-0.049189	-1.126064	0.290002
C64	C	-0.143973	-1.003078	0.290004
H65	H	0.115322	-1.070113	-0.164939
Cl66	Cl	0.263567	-1.067291	-0.205226
H67	H	0.247477	-1.067536	0.165073
Cl68	Cl	0.043325	-0.836580	0.000061
Cl69	Cl	-0.250943	-0.864288	0.381526
H70	H	0.559361	-1.061655	-0.164967
H71	H	0.691478	-1.059125	-0.164973
H72	H	-0.229946	-0.891538	0.595333
H73	H	0.083645	-0.510242	0.000113
H74	H	-0.182556	-0.953047	0.752867
H75	H	-0.010611	-1.176180	0.752850
H76	H	0.691517	-1.059080	0.165051
Cl77	Cl	-0.236481	-0.292598	0.000030
Cl78	Cl	0.099225	-1.070342	0.205373
Cl79	Cl	0.057767	-1.264903	0.618565
Cl80	Cl	0.057779	-1.264885	0.381522
Cl81	Cl	0.010380	-1.203373	0.223990
Cl82	Cl	0.050603	-0.342250	0.000096
Cl83	Cl	0.543269	-1.061896	0.205343
H84	H	-0.274294	-0.448334	0.000013
Cl85	Cl	0.108994	-0.706547	0.000070
Cl86	Cl	-0.305294	-0.634874	0.000005
Cl87	Cl	-0.243767	-0.786926	0.000002
H88	H	-0.182562	-0.952995	0.247259
