data_functionalizedCrystal
_audit_creation_method	'MofGen! by Chris Wilmer'
_symmetry_space_group_name_H-M	'P1'
_symmetry_Int_Tables_number	1
_symmetry_cell_setting	triclinic
loop_
_symmetry_equiv_pos_as_xyz
  x,y,z
_cell_length_a	10.868271
_cell_length_b	11.792241
_cell_length_c	11.792241
_cell_angle_alpha	84.193416
_cell_angle_beta	89.994719
_cell_angle_gamma	89.999893
loop_
_atom_site_label
_atom_site_type_symbol
_atom_site_fract_x
_atom_site_fract_y
_atom_site_fract_z
O1	O	0.102203	-1.506908	-0.155568
O2	O	0.102232	-1.176567	-0.171601
O3	O	0.102208	-1.349754	0.001586
O4	O	0.102227	-1.333721	-0.328755
O5	O	-0.102436	-1.349740	0.001592
O6	O	-0.102413	-1.176553	-0.171595
O7	O	-0.102441	-1.506894	-0.155562
Zn8	Zn	-0.134919	-1.341721	-0.163577
Zn9	Zn	0.134709	-1.341740	-0.163586
O10	O	-0.102418	-1.333707	-0.328749
C11	C	-0.000087	-1.134269	-0.170591
C12	C	-0.000076	-1.008255	-0.167576
N13	N	-0.318933	-1.341717	-0.163570
C14	C	-0.000120	-1.549192	-0.156572
C15	C	-0.000123	-1.675206	-0.159587
C16	C	-0.569939	-1.341734	-0.163584
C17	C	-0.430261	-1.341721	-0.163580
N18	N	0.318723	-1.341754	-0.163584
C19	C	-0.000114	-1.348740	0.043880
C20	C	-0.000112	-1.345726	0.169894
C21	C	-0.000112	-0.777543	-0.162034
C22	C	-0.000092	-0.905928	-0.165113
C23	C	-0.000093	-1.334721	-0.371043
C24	C	-0.000087	-1.337736	-0.497057
C25	C	-0.000091	-1.340183	0.400606
C26	C	-0.000102	-1.343262	0.272221
