data_functionalizedCrystal
_audit_creation_method	'MofGen! by Chris Wilmer'
_symmetry_space_group_name_H-M	'P1'
_symmetry_Int_Tables_number	1
_symmetry_cell_setting	triclinic
loop_
_symmetry_equiv_pos_as_xyz
  x,y,z
_cell_length_a	15.944564
_cell_length_b	14.421503
_cell_length_c	16.992695
_cell_angle_alpha	89.995710
_cell_angle_beta	92.913921
_cell_angle_gamma	89.996857
loop_
_atom_site_label
_atom_site_type_symbol
_atom_site_fract_x
_atom_site_fract_y
_atom_site_fract_z
O1	O	-1.121307	0.077015	0.101164
O2	O	-0.621307	0.577015	0.601164
O3	O	-0.877595	0.077039	0.113622
O4	O	-0.377595	0.577039	0.613622
O5	O	-0.998474	0.077020	-0.006750
O6	O	-0.498474	0.577020	0.493250
O7	O	-1.000428	0.077034	0.221536
O8	O	-0.500428	0.577034	0.721536
O9	O	-0.998454	-0.077204	-0.006732
O10	O	-0.498454	0.422796	0.493268
O11	O	-0.877574	-0.077185	0.113640
O12	O	-0.377574	0.422815	0.613640
O13	O	-1.121287	-0.077208	0.101182
O14	O	-0.621287	0.422792	0.601182
Cu15	Cu	-0.999429	-0.091278	0.107413
Cu16	Cu	-0.499429	0.408722	0.607413
Cu17	Cu	-0.999453	0.091109	0.107391
Cu18	Cu	-0.499453	0.591109	0.607391
O19	O	-1.000408	-0.077189	0.221554
O20	O	-0.500408	0.422811	0.721554
C21	C	-0.846256	-0.000070	0.113112
C22	C	-0.346256	0.499930	0.613112
C23	C	-0.752906	-0.000062	0.111556
C24	C	-0.252906	0.499938	0.611556
C25	C	-0.532797	-0.000085	0.033223
C26	C	-0.032797	0.499915	0.533223
C27	C	-0.474226	0.075958	0.069582
C28	C	0.025774	0.575958	0.569582
C29	C	-0.581992	-0.000073	0.108742
C30	C	-0.081992	0.499927	0.608742
C31	C	-0.474230	-0.076094	0.069618
C32	C	0.025770	0.423906	0.569618
C33	C	-0.416898	-0.000088	0.106017
C34	C	0.083102	0.499912	0.606017
C35	C	-0.524651	0.076033	0.145122
C36	C	-0.024651	0.576033	0.645122
C37	C	-0.524661	-0.076088	0.145147
C38	C	-0.024661	0.423912	0.645147
C39	C	-0.466111	-0.000027	0.181562
C40	C	0.033889	0.499973	0.681562
C41	C	-0.677099	-0.000063	0.110309
C42	C	-0.177099	0.499937	0.610309
C43	C	-0.321793	-0.000090	0.104456
C44	C	0.178207	0.499910	0.604456
N45	N	-0.999418	-0.219559	0.107427
N46	N	-0.499418	0.280441	0.607427
C47	C	-0.943511	-0.469204	0.163062
C48	C	-0.443511	0.030796	0.663062
C49	C	-1.020432	-0.531013	0.178288
C50	C	-0.520432	-0.031013	0.678288
C51	C	-0.999437	-0.408721	0.107408
C52	C	-0.499437	0.091279	0.607408
C53	C	-0.922537	-0.531006	0.092200
C54	C	-0.422537	-0.031006	0.592200
C55	C	-0.999449	-0.591442	0.107392
C56	C	-0.499449	-0.091442	0.607392
C57	C	-1.076399	-0.469169	0.122670
C58	C	-0.576399	0.030831	0.622670
C59	C	-0.978452	-0.469156	0.036552
C60	C	-0.478452	0.030844	0.536552
C61	C	-1.055426	-0.530937	0.051747
C62	C	-0.555426	-0.030937	0.551747
C63	C	-0.999430	-0.303460	0.107420
C64	C	-0.499430	0.196540	0.607420
C65	C	-0.999466	-0.696701	0.107380
C66	C	-0.499466	-0.196701	0.607380
C67	C	-0.152627	-0.000097	0.101681
C68	C	0.347373	0.499903	0.601681
C69	C	-0.245979	-0.000100	0.103205
C70	C	0.254021	0.499900	0.603205
C71	C	-0.995950	-0.000092	-0.035954
C72	C	-0.495950	0.499908	0.464046
C73	C	-0.988450	-0.000091	-0.122998
C74	C	-0.488450	0.499909	0.377002
N75	N	-0.999470	0.219390	0.107371
N76	N	-0.499470	0.719390	0.607371
C77	C	-1.060815	-0.000098	-0.173232
C78	C	-0.560815	0.499902	0.326768
C79	C	-1.053763	-0.000089	-0.255019
C80	C	-0.553763	0.499911	0.244981
C81	C	-0.974345	-0.000078	-0.286571
C82	C	-0.474345	0.499922	0.213429
C83	C	-0.901975	-0.000068	-0.236331
C84	C	-0.401975	0.499932	0.263669
C85	C	-0.909028	-0.000071	-0.154546
C86	C	-0.409028	0.499929	0.345454
C87	C	-0.945114	-0.000063	-0.530172
C88	C	-0.445114	0.499937	-0.030172
C89	C	-0.938067	-0.000063	-0.611964
C90	C	-0.438067	0.499937	-0.111964
C91	C	-1.089855	-0.000082	-0.630646
C92	C	-0.589855	0.499918	-0.130646
C93	C	-1.096901	-0.000091	-0.548858
C94	C	-0.596901	0.499909	-0.048858
C95	C	-1.024531	-0.000075	-0.498625
C96	C	-0.524531	0.499925	0.001375
N97	N	-0.967135	-0.000072	-0.370171
N98	N	-0.467135	0.499928	0.129829
N99	N	-1.031742	-0.000075	-0.415028
N100	N	-0.531742	0.499925	0.084972
C101	C	-1.002932	-0.000076	0.250757
C102	C	-0.502932	0.499924	0.750757
C103	C	-1.010432	-0.000071	0.337802
C104	C	-0.510432	0.499929	0.837802
H105	H	-0.896271	-0.442099	0.210164
H106	H	-0.396271	0.057901	0.710164
H107	H	-1.141456	-0.442121	0.135597
H108	H	-0.641456	0.057879	0.635597
Cl109	Cl	-0.950996	-0.427170	-0.055923
Cl110	Cl	-0.450996	0.072830	0.444077
H111	H	-0.561927	0.000006	-0.029449
H112	H	-0.061927	0.500006	0.470551
Cl113	Cl	-0.822125	-0.572945	0.072350
Cl114	Cl	-0.322125	-0.072945	0.572350
H115	H	-0.850101	-0.000064	-0.113646
H116	H	-0.350101	0.499936	0.386354
Cl117	Cl	-0.439885	0.175211	0.020259
Cl118	Cl	0.060115	0.675211	0.520259
H119	H	-0.451992	-0.140380	0.037670
H120	H	0.048008	0.359620	0.537670
Cl121	Cl	-1.128534	-0.572531	-0.020930
Cl122	Cl	-0.628534	-0.072531	0.479070
Cl123	Cl	-1.160659	-0.000121	-0.133575
Cl124	Cl	-0.660659	0.499879	0.366425
Cl125	Cl	-0.854133	-0.000041	-0.467033
Cl126	Cl	-0.354133	0.499959	0.032967
Cl127	Cl	-0.421408	0.000042	0.278419
Cl128	Cl	0.078592	0.500042	0.778419
Cl129	Cl	-0.558823	0.175399	0.194388
Cl130	Cl	-0.058823	0.675399	0.694388
Cl131	Cl	-1.047855	-0.572964	0.270790
Cl132	Cl	-0.547855	-0.072964	0.770790
Cl133	Cl	-1.144741	-0.000102	-0.318167
Cl134	Cl	-0.644741	0.499898	0.181833
Cl135	Cl	-1.196744	-0.000074	-0.509199
Cl136	Cl	-0.696744	0.499926	-0.009199
H137	H	-1.148775	-0.000093	-0.671554
H138	H	-0.648775	0.499907	-0.171554
Cl139	Cl	-0.838220	-0.000055	-0.651628
Cl140	Cl	-0.338220	0.499945	-0.151628
Cl141	Cl	-0.559038	-0.175344	0.194433
Cl142	Cl	-0.059038	0.324656	0.694433
H143	H	-0.837312	-0.000053	-0.262027
H144	H	-0.337312	0.499947	0.237973
