data_functionalizedCrystal
_audit_creation_method	'MofGen! by Chris Wilmer'
_symmetry_space_group_name_H-M	'P1'
_symmetry_Int_Tables_number	1
_symmetry_cell_setting	triclinic
loop_
_symmetry_equiv_pos_as_xyz
  x,y,z
_cell_length_a	17.077404
_cell_length_b	16.625546
_cell_length_c	17.077396
_cell_angle_alpha	89.969785
_cell_angle_beta	89.980499
_cell_angle_gamma	90.022693
loop_
_atom_site_label
_atom_site_type_symbol
_atom_site_fract_x
_atom_site_fract_y
_atom_site_fract_z
Zn1	Zn	1.200057	-0.320997	-0.443833
Zn2	Zn	1.199965	-0.455839	-0.312563
Zn3	Zn	1.068789	-0.321025	-0.312581
Zn4	Zn	1.068758	-0.455792	-0.443787
O5	O	1.134392	-0.388413	-0.378191
O6	O	1.309892	-0.338892	-0.426432
O7	O	1.182539	-0.437988	-0.202719
O8	O	1.086253	-0.208189	-0.330019
O9	O	1.309824	-0.437960	-0.329988
O10	O	1.182695	-0.208168	-0.426449
O11	O	1.086164	-0.338940	-0.202732
O12	O	0.958938	-0.338894	-0.329974
O13	O	1.086200	-0.437879	-0.553640
O14	O	0.958915	-0.437906	-0.426370
O15	O	1.182665	-0.338846	-0.553674
O16	O	1.182509	-0.568666	-0.329943
O17	O	1.086111	-0.568630	-0.426353
C18	C	0.930444	-0.388399	-0.378169
C19	C	0.843194	-0.388412	-0.378179
C20	C	0.802213	-0.440045	-0.428292
C21	C	0.720232	-0.440047	-0.428304
C22	C	0.679235	-0.388419	-0.378199
C23	C	0.720222	-0.336780	-0.328084
C24	C	0.802201	-0.336774	-0.328076
C25	C	0.549352	-0.336795	-0.328103
C26	C	0.467368	-0.336801	-0.328110
C27	C	0.467383	-0.440068	-0.428331
C28	C	0.549362	-0.440063	-0.428323
C29	C	0.590344	-0.388425	-0.378207
C30	C	1.134318	-0.597904	-0.378158
C31	C	1.134358	-0.687525	-0.378170
C32	C	1.134495	-1.015701	-0.378252
C33	C	1.134454	-0.924392	-0.378232
C34	C	1.134426	-0.851616	-0.378211
C35	C	1.134386	-0.760302	-0.378191
C36	C	1.339136	-0.388428	-0.378213
C37	C	1.426386	-0.388435	-0.378223
C38	C	1.134440	-0.388354	-0.582936
C39	C	1.134460	-0.388329	-0.670185
C40	C	1.134488	-0.178104	-0.378241
C41	C	1.134529	-0.088483	-0.378263
C42	C	1.184691	-0.336758	-0.711195
C43	C	1.184700	-0.336731	-0.793175
C44	C	1.134482	-0.388280	-0.834145
C45	C	1.084245	-0.439853	-0.793130
C46	C	1.084233	-0.439875	-0.711151
C47	C	1.084277	-0.439804	-0.964000
C48	C	1.084291	-0.439783	-1.045985
C49	C	1.184745	-0.336660	-1.046024
C50	C	1.184732	-0.336682	-0.964045
C51	C	1.134496	-0.388257	-0.923036
C52	C	1.134390	-0.388414	-0.174243
C53	C	1.134522	-0.388212	-0.086994
H54	H	0.686869	-0.482093	-0.469111
H55	H	1.225647	-0.294665	-1.079418
H56	H	0.582740	-0.482108	-0.469119
C57	C	1.290274	-0.325582	-0.619025
C58	C	1.239891	-0.280091	-0.666163
H59	H	1.324354	-0.290594	-0.591231
H60	H	1.260358	-0.356292	-0.582871
H61	H	1.320290	-0.360701	-0.651010
H62	H	1.209872	-0.244976	-0.634178
H63	H	1.269811	-0.249367	-0.702322
H64	H	1.225629	-0.294711	-0.930690
H65	H	0.582717	-0.294739	-0.287300
H66	H	0.686836	-0.294739	-0.287291
C67	C	1.290294	-0.325503	-0.885407
C68	C	1.239906	-0.280040	-0.838262
H69	H	1.324369	-0.290499	-0.913246
H70	H	1.320306	-0.360634	-0.853428
H71	H	1.260375	-0.356200	-0.921530
H72	H	1.269825	-0.249347	-0.802134
H73	H	1.209891	-0.244895	-0.870243
C74	C	0.984981	-0.541706	-1.037716
C75	C	1.029085	-0.496440	-1.091021
H76	H	0.950896	-0.576679	-1.065521
H77	H	1.019156	-0.572564	-1.005740
H78	H	0.954970	-0.506570	-1.005744
H79	H	1.059101	-0.531575	-1.122989
H80	H	0.994905	-0.465579	-1.123010
C81	C	1.073324	-0.548278	-0.871770
C82	C	1.029066	-0.496496	-0.918911
H83	H	1.039242	-0.583274	-0.843929
H84	H	1.107506	-0.579111	-0.903753
H85	H	1.103229	-0.517564	-0.835650
H86	H	0.999166	-0.527210	-0.955035
H87	H	0.994871	-0.465660	-0.886925
H88	H	1.043354	-0.481822	-0.826494
C89	C	0.984962	-0.541827	-0.719341
C90	C	1.029030	-0.496577	-0.666071
H91	H	0.950887	-0.576838	-0.691509
H92	H	0.954949	-0.506690	-0.751312
H93	H	1.019166	-0.572652	-0.751321
H94	H	0.994827	-0.465747	-0.634094
H95	H	1.059046	-0.531719	-0.634086
C96	C	0.375098	-0.325422	-0.222578
C97	C	0.422286	-0.280031	-0.273067
H98	H	0.347266	-0.290367	-0.188603
H99	H	0.338976	-0.356186	-0.252424
H100	H	0.407054	-0.360487	-0.192457
H101	H	0.390330	-0.244970	-0.303192
H102	H	0.458412	-0.249253	-0.243218
H103	H	0.835587	-0.482090	-0.469091
C104	C	0.793956	-0.234714	-0.229001
C105	C	0.847251	-0.280024	-0.272983
H106	H	0.821770	-0.199681	-0.194986
H107	H	0.762010	-0.203916	-0.263257
H108	H	0.761954	-0.269817	-0.198921
H109	H	0.879250	-0.244921	-0.303068
H110	H	0.879211	-0.310824	-0.238723
C111	C	0.442113	-0.576657	-0.466321
C112	C	0.422336	-0.496831	-0.483418
H113	H	0.414295	-0.611699	-0.500323
H114	H	0.496797	-0.584039	-0.473491
H115	H	0.428647	-0.588371	-0.413557
H116	H	0.435807	-0.485114	-0.536182
H117	H	0.367641	-0.489444	-0.476256
