data_functionalizedCrystal
_audit_creation_method	'MofGen! by Chris Wilmer'
_symmetry_space_group_name_H-M	'P1'
_symmetry_Int_Tables_number	1
_symmetry_cell_setting	triclinic
loop_
_symmetry_equiv_pos_as_xyz
  x,y,z
_cell_length_a	11.169417
_cell_length_b	18.050589
_cell_length_c	18.050582
_cell_angle_alpha	89.981795
_cell_angle_beta	89.988436
_cell_angle_gamma	90.029099
loop_
_atom_site_label
_atom_site_type_symbol
_atom_site_fract_x
_atom_site_fract_y
_atom_site_fract_z
Zn1	Zn	1.834715	-0.295689	-0.419869
Zn2	Zn	1.834571	-0.419873	-0.295688
Zn3	Zn	1.634030	-0.295703	-0.295700
Zn4	Zn	1.633946	-0.419844	-0.419844
O5	O	1.734316	-0.357777	-0.357775
O6	O	2.002646	-0.312169	-0.403401
O7	O	1.807944	-0.403419	-0.191765
O8	O	1.660747	-0.191776	-0.312187
O9	O	2.002540	-0.403406	-0.312166
O10	O	1.808190	-0.191766	-0.403413
O11	O	1.660607	-0.312192	-0.191774
O12	O	1.466069	-0.312164	-0.312163
O13	O	1.660604	-0.403357	-0.523772
O14	O	1.466008	-0.403370	-0.403370
O15	O	1.808108	-0.312141	-0.523790
O16	O	1.807862	-0.523793	-0.312142
O17	O	1.660464	-0.523772	-0.403359
C18	C	1.422491	-0.357766	-0.357766
C19	C	1.289091	-0.357779	-0.357779
C20	C	1.734171	-0.550729	-0.357763
C21	C	1.734219	-0.633275	-0.357782
C22	C	1.654142	-0.832741	-0.407369
C23	C	1.624895	-0.882175	-0.339602
C24	C	1.734336	-0.784405	-0.357792
C25	C	1.763643	-0.882053	-0.425566
C26	C	1.734448	-0.930390	-0.357807
C27	C	1.705031	-0.832752	-0.289990
C28	C	1.843831	-0.832625	-0.375999
C29	C	1.814625	-0.882037	-0.308186
C30	C	1.734269	-0.700307	-0.357784
C31	C	1.734516	-1.014487	-0.357808
C32	C	2.047358	-0.357789	-0.357785
C33	C	2.180758	-0.357794	-0.357789
C34	C	1.734363	-0.357744	-0.551481
C35	C	1.734383	-0.357730	-0.634027
C36	C	1.734494	-0.164071	-0.357804
C37	C	1.734570	-0.081526	-0.357816
C38	C	1.654231	-0.407266	-0.833467
C39	C	1.763729	-0.425418	-0.882856
C40	C	1.734442	-0.357673	-0.785157
C41	C	1.625005	-0.339500	-0.882850
C42	C	1.734489	-0.357620	-0.931142
C43	C	1.843997	-0.375861	-0.833459
C44	C	1.705199	-0.289912	-0.833448
C45	C	1.814772	-0.308039	-0.882814
C46	C	1.734413	-0.357706	-0.701059
C47	C	1.734531	-0.357587	-1.015239
C48	C	1.734338	-0.357756	-0.164823
C49	C	1.734550	-0.357561	-0.082278
H50	H	1.532351	-0.903956	-0.324217
H51	H	1.680404	-0.232647	-0.811729
C52	C	1.501471	-0.319132	-0.911678
C53	C	1.417843	-0.371256	-0.886659
C54	C	1.304028	-0.352518	-0.913191
H55	H	1.502392	-0.318829	-0.964298
H56	H	1.480062	-0.271365	-0.894014
H57	H	1.439246	-0.419009	-0.904328
H58	H	1.416883	-0.371566	-0.834042
H59	H	1.282620	-0.304752	-0.895526
H60	H	1.304963	-0.352216	-0.965810
H61	H	1.247272	-0.387877	-0.896213
C62	C	1.796479	-0.910827	-0.502046
C63	C	1.712179	-0.885833	-0.553711
C64	C	1.742387	-0.912313	-0.624173
H65	H	1.796979	-0.963447	-0.501494
H66	H	1.873654	-0.893110	-0.515354
H67	H	1.635024	-0.903554	-0.540406
H68	H	1.711666	-0.833216	-0.554285
H69	H	1.819562	-0.894597	-0.637482
H70	H	1.742887	-0.964933	-0.623614
H71	H	1.685201	-0.895354	-0.659238
C72	C	1.967156	-0.803618	-0.396707
C73	C	1.997320	-0.828537	-0.467744
C74	C	2.110910	-0.801820	-0.486857
H75	H	2.024485	-0.821213	-0.362059
H76	H	1.966410	-0.750990	-0.396146
H77	H	1.998075	-0.881153	-0.468299
H78	H	1.940021	-0.810944	-0.502408
H79	H	2.110164	-0.749193	-0.486297
H80	H	2.168230	-0.819417	-0.452205
H81	H	2.131386	-0.818718	-0.535059
C82	C	1.671657	-0.803962	-0.213606
C83	C	1.567775	-0.760895	-0.218802
C84	C	1.536983	-0.734368	-0.148454
H85	H	1.735228	-0.774556	-0.194694
H86	H	1.657643	-0.844595	-0.181274
H87	H	1.581796	-0.720268	-0.251122
H88	H	1.504182	-0.790285	-0.237701
H89	H	1.522969	-0.775001	-0.116122
H90	H	1.600560	-0.704965	-0.129547
H91	H	1.466490	-0.705150	-0.151968
C92	C	1.563399	-0.803912	-0.463095
C93	C	1.448979	-0.829008	-0.443689
C94	C	1.365354	-0.802456	-0.494996
H95	H	1.583254	-0.821500	-0.511141
H96	H	1.564419	-0.751282	-0.463006
H97	H	1.447961	-0.881626	-0.443785
H98	H	1.429086	-0.811422	-0.395651
H99	H	1.366374	-0.749827	-0.494907
H100	H	1.385220	-0.820046	-0.543040
H101	H	1.287709	-0.819474	-0.481833
H102	H	1.586463	-0.449259	-0.811801
H103	H	1.882490	-0.903546	-0.266219
C104	C	1.905451	-0.252080	-0.911382
C105	C	1.962292	-0.217855	-0.851321
C106	C	2.045849	-0.166313	-0.877608
H107	H	1.865654	-0.215695	-0.940338
H108	H	1.963389	-0.276723	-0.940991
H109	H	1.904364	-0.193212	-0.821725
H110	H	2.002113	-0.254221	-0.822359
H111	H	2.103786	-0.190957	-0.907217
H112	H	2.006042	-0.129933	-0.906564
H113	H	2.084433	-0.143090	-0.836862
C114	C	1.796549	-0.501787	-0.911905
C115	C	1.702857	-0.529007	-0.955658
C116	C	1.733043	-0.599353	-0.982435
H117	H	1.809781	-0.534388	-0.871410
H118	H	1.867345	-0.498435	-0.940899
H119	H	1.632081	-0.532363	-0.926666
H120	H	1.689611	-0.496427	-0.996164
H121	H	1.803839	-0.596001	-1.011429
H122	H	1.746276	-0.631947	-0.941936
H123	H	1.669483	-0.617828	-1.012130
C124	C	1.967365	-0.396445	-0.804513
C125	C	1.965878	-0.396283	-0.726952
C126	C	2.079494	-0.415253	-0.700261
H127	H	2.024508	-0.361450	-0.821725
H128	H	1.988293	-0.444431	-0.821801
H129	H	1.944965	-0.348304	-0.709672
H130	H	1.908760	-0.431279	-0.709721
H131	H	2.100422	-0.463239	-0.717548
H132	H	2.136628	-0.380256	-0.717477
H133	H	2.078498	-0.415152	-0.647633
