data_functionalizedCrystal
_audit_creation_method	'MofGen! by Chris Wilmer'
_symmetry_space_group_name_H-M	'P1'
_symmetry_Int_Tables_number	1
_symmetry_cell_setting	triclinic
loop_
_symmetry_equiv_pos_as_xyz
  x,y,z
_cell_length_a	11.026607
_cell_length_b	11.026607
_cell_length_c	10.065875
_cell_angle_alpha	79.268236
_cell_angle_beta	79.303208
_cell_angle_gamma	71.413983
loop_
_atom_site_label
_atom_site_type_symbol
_atom_site_fract_x
_atom_site_fract_y
_atom_site_fract_z
O1	O	1.741282	-0.518969	-0.113460
O2	O	1.374703	-0.458205	-0.113469
O3	O	1.527611	-0.305298	-0.113460
O4	O	1.588375	-0.671877	-0.113469
O5	O	1.498486	-0.334605	0.113527
O6	O	1.345579	-0.487512	0.113518
O7	O	1.712158	-0.548277	0.113527
Zn8	Zn	1.524244	-0.522547	0.149562
Zn9	Zn	1.562617	-0.483934	-0.149504
O10	O	1.559251	-0.701184	0.113518
C11	C	1.312482	-0.461648	0.000024
C12	C	1.170468	-0.428231	0.000020
C13	C	1.501839	-0.272291	0.000031
C14	C	1.468423	-0.130277	0.000026
C15	C	1.774380	-0.544833	0.000031
C16	C	1.916395	-0.578249	0.000026
C17	C	1.970044	-0.485979	0.000026
C18	C	2.116823	-0.520514	0.000020
C19	C	1.585023	-0.734190	0.000024
C20	C	1.618440	-0.876203	0.000020
N21	N	1.498065	-0.548901	0.353666
C22	C	1.560692	-0.076627	0.000026
C23	C	1.526157	0.070152	0.000020
N24	N	1.588804	-0.457572	-0.353608
C25	C	1.553499	-0.493094	0.421448
C26	C	1.533362	-0.513388	0.578614
H27	H	1.907307	-0.381420	0.000051
N28	N	1.636103	-0.409901	0.344181
H29	H	1.726620	-0.447316	0.368945
H30	H	1.598164	-0.319460	0.369004
N31	N	1.671423	-0.374379	0.569149
H32	H	1.761934	-0.411804	0.593927
H33	H	1.633486	-0.283941	0.593979
N34	N	1.999490	-0.716753	0.000012
H35	H	1.991576	-0.749767	-0.084135
H36	H	1.969952	-0.771409	0.084209
N37	N	1.699200	-0.159711	0.000045
H38	H	1.704236	-0.252790	0.000056
H39	H	1.732186	-0.151749	0.084201
H40	H	2.179552	-0.625084	0.000023
H41	H	2.107752	-0.323650	-0.000065
H42	H	1.421589	0.132883	0.000009
N43	N	1.756959	0.040723	0.000013
H44	H	1.761999	-0.052355	0.000015
H45	H	1.789965	0.048676	0.084160
H46	H	1.363861	-0.067542	0.000014
N47	N	1.450743	-0.596586	0.655846
H48	H	1.360234	-0.559157	0.631066
H49	H	1.448172	-0.599263	0.757147
H50	H	1.435692	-0.611699	0.411988
