data_functionalizedCrystal
_audit_creation_method	'MofGen! by Chris Wilmer'
_symmetry_space_group_name_H-M	'P1'
_symmetry_Int_Tables_number	1
_symmetry_cell_setting	triclinic
loop_
_symmetry_equiv_pos_as_xyz
  x,y,z
_cell_length_a	17.077404
_cell_length_b	13.897448
_cell_length_c	17.077396
_cell_angle_alpha	90.027368
_cell_angle_beta	90.019501
_cell_angle_gamma	90.017917
loop_
_atom_site_label
_atom_site_type_symbol
_atom_site_fract_x
_atom_site_fract_y
_atom_site_fract_z
Zn1	Zn	1.200083	-0.384009	0.443849
Zn2	Zn	1.533416	-0.050676	0.777182
Zn3	Zn	1.866750	0.282658	1.110515
Zn4	Zn	1.200002	-0.545322	0.312585
Zn5	Zn	1.533335	-0.211988	0.645919
Zn6	Zn	1.866669	0.121345	0.979252
Zn7	Zn	1.068815	-0.384043	0.312597
Zn8	Zn	1.402148	-0.050710	0.645930
Zn9	Zn	1.735481	0.282624	0.979263
Zn10	Zn	1.068795	-0.545264	0.443809
Zn11	Zn	1.402128	-0.211931	0.777142
Zn12	Zn	1.735461	0.121402	1.110476
O13	O	1.134424	-0.464660	0.378210
O14	O	1.467757	-0.131326	0.711543
O15	O	1.801090	0.202007	1.044877
O16	O	1.309919	-0.405417	0.426448
O17	O	1.643252	-0.072084	0.759782
O18	O	1.976586	0.261249	1.093115
O19	O	1.182574	-0.523966	0.202740
O20	O	1.515908	-0.190633	0.536073
O21	O	1.849241	0.142701	0.869407
O22	O	1.086270	-0.249057	0.330029
O23	O	1.419603	0.084277	0.663362
O24	O	1.752937	0.417610	0.996696
O25	O	1.309860	-0.523933	0.330010
O26	O	1.643193	-0.190600	0.663343
O27	O	1.976526	0.142734	0.996676
O28	O	1.182712	-0.249032	0.426459
O29	O	1.516046	0.084301	0.759793
O30	O	1.849379	0.417635	1.093126
O31	O	1.086192	-0.405475	0.202748
O32	O	1.419525	-0.072142	0.536082
O33	O	1.752858	0.261192	0.869415
O34	O	0.958965	-0.405420	0.329990
O35	O	1.292299	-0.072086	0.663324
O36	O	1.625632	0.261247	0.996657
O37	O	1.086236	-0.523835	0.553661
O38	O	1.419569	-0.190502	0.886995
O39	O	1.752902	0.142831	1.220328
O40	O	0.958950	-0.523868	0.426391
O41	O	1.292284	-0.190535	0.759725
O42	O	1.625617	0.142798	1.093058
O43	O	1.182693	-0.405362	0.553690
O44	O	1.516026	-0.072029	0.887024
O45	O	1.849359	0.261305	1.220357
O46	O	1.182555	-0.680296	0.329971
O47	O	1.515888	-0.346962	0.663304
O48	O	1.849221	-0.013629	0.996638
O49	O	1.086157	-0.680254	0.426380
O50	O	1.419491	-0.346920	0.759714
O51	O	1.752824	-0.013587	1.093047
C52	C	0.930476	-0.464642	0.378188
C53	C	1.263809	-0.131309	0.711522
C54	C	1.597142	0.202025	1.044855
C55	C	0.843226	-0.464658	0.378198
C56	C	1.176559	-0.131324	0.711531
C57	C	1.509893	0.202009	1.044864
C58	C	0.802249	-0.526427	0.428313
C59	C	1.135582	-0.193094	0.761646
C60	C	1.468915	0.140240	1.094980
C61	C	0.720268	-0.526429	0.428326
C62	C	1.053601	-0.193096	0.761659
C63	C	1.386935	0.140237	1.094992
C64	C	0.679267	-0.464666	0.378218
C65	C	1.012600	-0.131333	0.711552
C66	C	1.345933	0.202001	1.044885
C67	C	0.720250	-0.402890	0.328100
C68	C	1.053583	-0.069557	0.661434
C69	C	1.386916	0.263777	0.994767
C70	C	0.802229	-0.402884	0.328092
C71	C	1.135562	-0.069550	0.661426
C72	C	1.468895	0.263783	0.994759
C73	C	0.549380	-0.402909	0.328119
C74	C	0.882713	-0.069576	0.661453
C75	C	1.216046	0.263758	0.994786
C76	C	0.467395	-0.402916	0.328126
C77	C	0.800728	-0.069583	0.661459
C78	C	1.134062	0.263750	0.994793
C79	C	0.467419	-0.526454	0.428353
C80	C	0.800753	-0.193121	0.761686
C81	C	1.134086	0.140212	1.095019
C82	C	0.549398	-0.526448	0.428345
C83	C	0.882731	-0.193115	0.761678
C84	C	1.216065	0.140218	1.095011
C85	C	0.590376	-0.464673	0.378226
C86	C	0.923709	-0.131340	0.711559
C87	C	1.257042	0.201994	1.044892
C88	C	1.134366	-0.715274	0.378187
C89	C	1.467700	-0.381941	0.711521
C90	C	1.801033	-0.048607	1.044854
C91	C	1.134414	-0.822488	0.378204
C92	C	1.467747	-0.489154	0.711537
C93	C	1.801080	-0.155821	1.044870
C94	C	1.134496	-1.018783	0.378253
C95	C	1.467829	-0.685450	0.711586
C96	C	1.801163	-0.352116	1.044920
C97	C	1.134448	-0.909550	0.378228
C98	C	1.467781	-0.576217	0.711561
C99	C	1.801115	-0.242884	1.044895
C100	C	1.339168	-0.464678	0.378232
C101	C	1.672501	-0.131344	0.711565
C102	C	2.005834	0.201989	1.044899
C103	C	1.426418	-0.464686	0.378242
C104	C	1.759751	-0.131352	0.711575
C105	C	2.093084	0.201981	1.044908
C106	C	1.134471	-0.464588	0.582954
C107	C	1.467804	-0.131255	0.916288
C108	C	1.801138	0.202078	1.249621
C109	C	1.134491	-0.464558	0.670204
C110	C	1.467825	-0.131225	1.003538
C111	C	1.801158	0.202108	1.336871
C112	C	1.134502	-0.213067	0.378250
C113	C	1.467836	0.120267	0.711583
C114	C	1.801169	0.453600	1.044917
C115	C	1.134536	-0.105853	0.378267
C116	C	1.467869	0.227481	0.711600
C117	C	1.801203	0.560814	1.044934
C118	C	1.134421	-0.464661	0.174262
C119	C	1.467755	-0.131327	0.507595
C120	C	1.801088	0.202006	0.840929
C121	C	1.134553	-0.464419	0.087013
C122	C	1.467887	-0.131086	0.420346
C123	C	1.801220	0.202247	0.753679
C124	C	1.184718	-0.402864	0.711211
C125	C	1.518052	-0.069531	1.044544
C126	C	1.851385	0.263803	1.377878
C127	C	1.184728	-0.402832	0.793191
C128	C	1.518061	-0.069498	1.126525
C129	C	1.851394	0.263835	1.459858
C130	C	1.134514	-0.464500	0.834164
C131	C	1.467847	-0.131166	1.167497
C132	C	1.801180	0.202167	1.500830
C133	C	1.084281	-0.526197	0.793151
C134	C	1.417614	-0.192863	1.126485
C135	C	1.750948	0.140470	1.459818
C136	C	1.084268	-0.526223	0.711172
C137	C	1.417602	-0.192890	1.044506
C138	C	1.750935	0.140444	1.377839
C139	C	1.084313	-0.526139	0.964021
C140	C	1.417646	-0.192805	1.297355
C141	C	1.750979	0.140528	1.630688
C142	C	1.084326	-0.526114	1.046006
C143	C	1.417660	-0.192780	1.379339
C144	C	1.750993	0.140553	1.712673
C145	C	1.184772	-0.402747	1.046040
C146	C	1.518105	-0.069414	1.379374
C147	C	1.851439	0.263919	1.712707
C148	C	1.184759	-0.402774	0.964061
C149	C	1.518093	-0.069440	1.297395
C150	C	1.851426	0.263893	1.630728
C151	C	1.134528	-0.464472	0.923055
C152	C	1.467861	-0.131139	1.256388
C153	C	1.801194	0.202194	1.589721
H154	H	0.434014	-0.352612	0.287334
H155	H	0.767347	-0.019278	0.620667
H156	H	1.100680	0.314055	0.954000
H157	H	0.835626	-0.576725	0.469114
H158	H	1.168960	-0.243392	0.802447
H159	H	1.502293	0.089942	1.135781
H160	H	1.043393	-0.576404	0.826517
H161	H	1.376726	-0.243071	1.159851
H162	H	1.710060	0.090263	1.493184
H163	H	0.686908	-0.576729	0.469134
H164	H	1.020241	-0.243396	0.802467
H165	H	1.353575	0.089938	1.135801
H166	H	0.434051	-0.576751	0.469164
H167	H	0.767385	-0.243418	0.802497
H168	H	1.100718	0.089915	1.135830
H169	H	0.582779	-0.576746	0.469142
H170	H	0.916113	-0.243413	0.802476
H171	H	1.249446	0.089920	1.135809
H172	H	1.043396	-0.576365	0.930636
H173	H	1.376730	-0.243032	1.263970
H174	H	1.710063	0.090302	1.597303
H175	H	1.043360	-0.576451	0.677786
H176	H	1.376694	-0.243118	1.011119
H177	H	1.710027	0.090215	1.344452
H178	H	1.225611	-0.352650	0.677857
H179	H	1.558944	-0.019316	1.011190
H180	H	1.892278	0.314017	1.344524
H181	H	0.582741	-0.352597	0.287314
H182	H	0.916074	-0.019263	0.620647
H183	H	1.249407	0.314070	0.953981
H184	H	0.686860	-0.352597	0.287305
H185	H	1.020193	-0.019264	0.620639
H186	H	1.353526	0.314069	0.953972
H187	H	0.835591	-0.352580	0.287287
H188	H	1.168925	-0.019246	0.620621
H189	H	1.502258	0.314087	0.953954
H190	H	1.225629	-0.352596	0.826575
H191	H	1.558963	-0.019263	1.159909
H192	H	1.892296	0.314070	1.493242
H193	H	1.225653	-0.352564	0.930704
H194	H	1.558986	-0.019230	1.264037
H195	H	1.892319	0.314103	1.597371
H196	H	1.225671	-0.352508	1.079432
H197	H	1.559005	-0.019175	1.412765
H198	H	1.892338	0.314158	1.746099
H199	H	1.043436	-0.576327	1.079364
H200	H	1.376769	-0.242994	1.412697
H201	H	1.710102	0.090340	1.746030
