data_functionalizedCrystal
_audit_creation_method	'MofGen! by Chris Wilmer'
_symmetry_space_group_name_H-M	'P1'
_symmetry_Int_Tables_number	1
_symmetry_cell_setting	triclinic
loop_
_symmetry_equiv_pos_as_xyz
  x,y,z
_cell_length_a	10.654550
_cell_length_b	10.489741
_cell_length_c	9.730223
_cell_angle_alpha	89.998920
_cell_angle_beta	89.996251
_cell_angle_gamma	84.512038
loop_
_atom_site_label
_atom_site_type_symbol
_atom_site_fract_x
_atom_site_fract_y
_atom_site_fract_z
O1	O	1.667918	0.179156	-0.114402
O2	O	1.302447	0.196226	-0.114380
O3	O	1.493499	0.002089	-0.114383
O4	O	1.476867	0.373293	-0.114399
O5	O	1.493497	0.002094	0.114196
O6	O	1.302445	0.196231	0.114200
O7	O	1.667916	0.179161	0.114178
Zn8	Zn	1.485180	0.187697	0.150481
Zn9	Zn	1.485183	0.187690	-0.150683
O10	O	1.476864	0.373298	0.114181
C11	C	1.255648	0.194975	-0.000087
C12	C	1.116203	0.191225	-0.000079
C13	C	1.492241	-0.045439	-0.000094
C14	C	1.488483	-0.187067	-0.000096
C15	C	1.036771	0.305530	-0.000103
C16	C	0.905748	0.301999	-0.000127
C17	C	0.933603	0.069849	-0.000107
C18	C	1.064623	0.073381	-0.000073
C19	C	1.020688	0.439560	-0.000121
C20	C	0.889665	0.436029	-0.000145
C21	C	1.366923	-0.255148	-0.000099
C22	C	1.424346	-0.347296	0.112599
C23	C	1.424377	-0.347276	-0.112763
C24	C	1.545956	-0.277350	0.112695
C25	C	1.545970	-0.277319	-0.112768
C26	C	1.603481	-0.369440	-0.000043
C27	C	1.714715	0.180412	-0.000118
C28	C	1.854160	0.184162	-0.000136
C29	C	1.478122	0.420826	-0.000111
C30	C	1.481880	0.562454	-0.000118
N31	N	1.485187	0.187700	0.356017
N32	N	1.485186	0.187677	-0.356220
C33	C	1.569807	0.101766	0.427942
C34	C	1.569803	0.101751	0.571825
C35	C	1.400557	0.273615	0.571846
C36	C	1.400555	0.273623	0.427966
C37	C	1.667524	0.002545	0.427931
C38	C	1.667520	0.002530	0.571814
H39	H	1.129293	-0.019697	-0.000034
H40	H	1.636964	-0.090122	0.616435
C41	C	1.738823	-0.294972	0.241907
C42	C	1.615329	-0.235768	0.241464
H43	H	1.781648	-0.269291	0.321400
H44	H	1.736876	-0.385306	0.242664
H45	H	1.781704	-0.270450	0.161964
H46	H	1.572445	-0.260298	0.321402
H47	H	1.617270	-0.145414	0.240719
H48	H	1.372910	-0.378281	0.207883
C49	C	1.738514	-0.295464	-0.242581
C50	C	1.615348	-0.235433	-0.241402
H51	H	1.781332	-0.269605	-0.322007
H52	H	1.781795	-0.271774	-0.162591
H53	H	1.735940	-0.385727	-0.243968
H54	H	1.617922	-0.145170	-0.240005
H55	H	1.572057	-0.259114	-0.321413
C56	C	1.231067	-0.330807	-0.241148
C57	C	1.354925	-0.389062	-0.241390
H58	H	1.188190	-0.356594	-0.320558
H59	H	1.188705	-0.355937	-0.161128
H60	H	1.232311	-0.240378	-0.241619
H61	H	1.353682	-0.479491	-0.240909
H62	H	1.397298	-0.363940	-0.321432
C63	C	1.153750	0.406529	-0.198585
C64	C	1.068864	0.497177	-0.133337
H65	H	1.183486	0.442098	-0.280831
H66	H	1.222923	0.383310	-0.139195
H67	H	1.112399	0.332710	-0.219997
H68	H	1.110217	0.570993	-0.111915
H69	H	0.999679	0.520414	-0.192739
H70	H	1.758722	0.033613	0.383297
H71	H	1.266977	-0.205449	0.000020
H72	H	0.844012	0.476536	0.098538
C73	C	1.233256	0.443492	0.442445
C74	C	1.307532	0.368077	0.348905
H75	H	1.175831	0.501809	0.393633
H76	H	1.187616	0.389956	0.498562
H77	H	1.285953	0.489871	0.498564
H78	H	1.254835	0.321690	0.292792
H79	H	1.353175	0.421619	0.292764
H80	H	1.703518	-0.418912	0.000014
C81	C	1.528742	-0.116482	0.295272
C82	C	1.638491	-0.129800	0.375208
H83	H	1.510820	-0.198183	0.262721
H84	H	1.460282	-0.080235	0.349521
H85	H	1.540705	-0.062010	0.219348
H86	H	1.626525	-0.184264	0.451138
H87	H	1.706967	-0.166065	0.320956
C88	C	0.974297	-0.159266	-0.000080
C89	C	0.876903	-0.059682	-0.000109
H90	H	0.939292	-0.239233	-0.000075
H91	H	1.024835	-0.153064	-0.079776
H92	H	1.024803	-0.153046	0.079646
H93	H	0.826402	-0.065897	-0.079841
H94	H	0.826343	-0.065888	0.079595
H95	H	1.764042	0.024385	0.610857
H96	H	1.050043	0.491981	0.095543
H97	H	1.331651	0.343570	0.630442
H98	H	0.847957	0.486527	-0.095814
