data_functionalizedCrystal
_audit_creation_method	'MofGen! by Chris Wilmer'
_symmetry_space_group_name_H-M	'P1'
_symmetry_Int_Tables_number	1
_symmetry_cell_setting	triclinic
loop_
_symmetry_equiv_pos_as_xyz
  x,y,z
_cell_length_a	9.065218
_cell_length_b	10.540539
_cell_length_c	7.540329
_cell_angle_alpha	89.998539
_cell_angle_beta	89.996962
_cell_angle_gamma	84.770688
loop_
_atom_site_label
_atom_site_type_symbol
_atom_site_fract_x
_atom_site_fract_y
_atom_site_fract_z
O1	O	1.959469	0.186143	-0.147478
O2	O	1.530108	0.201412	-0.147479
O3	O	1.754584	0.009107	-0.147476
O4	O	1.734993	0.378448	-0.147481
O5	O	1.754570	0.009105	0.147489
O6	O	1.530094	0.201409	0.147486
O7	O	1.959455	0.186141	0.147487
Cu8	Cu	1.744773	0.193775	0.174419
Cu9	Cu	1.744789	0.193778	-0.174411
O10	O	1.734979	0.378445	0.147484
C11	C	1.475122	0.199943	0.000003
C12	C	1.311301	0.195556	0.000002
C13	C	1.753108	-0.038202	0.000003
C14	C	1.748712	-0.179167	-0.000007
C15	C	1.580278	-0.363216	-0.000669
C16	C	1.584734	-0.216582	-0.000005
C17	C	1.827618	-0.240534	0.168433
C18	C	1.822022	-0.387099	0.168575
C19	C	1.825372	-0.387602	-0.166855
C20	C	1.826883	-0.240615	-0.169082
C21	C	2.014441	0.187610	0.000001
C22	C	2.178262	0.191997	-0.000009
C23	C	1.736455	0.425755	0.000001
C24	C	1.740851	0.566719	-0.000001
N25	N	1.744773	0.193772	0.419768
N26	N	1.744801	0.193771	-0.419760
H27	H	1.515508	-0.392055	-0.121460
H28	H	1.763695	-0.415515	0.294487
C29	C	1.493103	-0.404345	0.161576
H30	H	1.396214	-0.361582	0.160145
H31	H	1.542559	-0.383077	0.267069
H32	H	1.486732	-0.493764	0.157585
C33	C	1.500263	-0.160471	0.163377
H34	H	1.502686	-0.070556	0.164331
H35	H	1.545632	-0.195547	0.268157
H36	H	1.400337	-0.180678	0.158420
C37	C	1.981326	-0.451318	0.178933
H38	H	2.049172	-0.387799	0.183051
H39	H	2.001136	-0.503420	0.077369
H40	H	1.991951	-0.502336	0.282810
C41	C	1.990291	-0.209730	0.176915
H42	H	2.011580	-0.159043	0.077572
H43	H	2.053449	-0.286756	0.175356
H44	H	2.006194	-0.164360	0.283046
H45	H	1.772795	-0.198138	0.293780
H46	H	1.772306	-0.419350	-0.294522
C47	C	1.500865	-0.159324	-0.163115
H48	H	1.503490	-0.069426	-0.162932
H49	H	1.400878	-0.179410	-0.158957
H50	H	1.546510	-0.193804	-0.268097
H51	H	1.769148	-0.199969	-0.293689
C52	C	1.988404	-0.207340	-0.182809
H53	H	2.032856	-0.245695	-0.286087
H54	H	2.041847	-0.238292	-0.080942
H55	H	1.990161	-0.117504	-0.189883
H56	H	1.943813	-0.434390	-0.167987
