data_functionalizedCrystal
_audit_creation_method	'MofGen! by Chris Wilmer'
_symmetry_space_group_name_H-M	'P1'
_symmetry_Int_Tables_number	1
_symmetry_cell_setting	triclinic
loop_
_symmetry_equiv_pos_as_xyz
  x,y,z
_cell_length_a	19.288862
_cell_length_b	19.288865
_cell_length_c	18.366186
_cell_angle_alpha	90.011479
_cell_angle_beta	90.025700
_cell_angle_gamma	83.135763
loop_
_atom_site_label
_atom_site_type_symbol
_atom_site_fract_x
_atom_site_fract_y
_atom_site_fract_z
O1	O	-0.921354	-0.086641	-0.060839
O2	O	-0.719093	-0.098331	-0.060780
O3	O	-0.826068	0.008644	-0.060797
O4	O	-0.814379	-0.193616	-0.060822
O5	O	-0.826050	0.008650	0.060303
O6	O	-0.719075	-0.098326	0.060320
O7	O	-0.921336	-0.086636	0.060261
Zn8	Zn	-0.820202	-0.092480	0.079517
Zn9	Zn	-0.820226	-0.092487	-0.080036
O10	O	-0.814361	-0.193611	0.060277
C11	C	-0.693207	-0.097953	-0.000222
C12	C	-0.616104	-0.096824	-0.000199
C13	C	-0.571407	-0.159593	-0.000216
C14	C	-0.498960	-0.158533	-0.000221
C15	C	-0.471213	-0.094701	-0.000222
C16	C	-0.515919	-0.031924	-0.000201
C17	C	-0.588364	-0.032986	-0.000189
C18	C	-0.362957	-0.044524	-0.042661
C19	C	-0.290512	-0.043465	-0.042677
C20	C	-0.247767	-0.091423	-0.000254
C21	C	-0.277473	-0.140452	0.042175
C22	C	-0.349919	-0.141514	0.042187
C23	C	-0.392659	-0.093542	-0.000234
C24	C	-0.124514	-0.153046	-0.000275
C25	C	-0.052066	-0.151983	-0.000275
C26	C	-0.069027	-0.025373	-0.000262
C27	C	-0.141473	-0.026438	-0.000255
C28	C	-0.169212	-0.090276	-0.000265
N29	N	-0.820191	-0.092475	0.188408
C30	C	-0.825683	0.034523	-0.000245
C31	C	-0.824554	0.111627	-0.000238
C32	C	0.052779	-0.087016	-0.000286
C33	C	-0.024324	-0.088151	-0.000275
C34	C	-0.814746	-0.219490	-0.000276
C35	C	-0.815875	-0.296594	-0.000288
C36	C	-0.887322	0.156324	-0.000253
C37	C	-0.886261	0.228771	-0.000264
C38	C	-0.822429	0.256518	-0.000246
C39	C	-0.759652	0.211811	-0.000235
C40	C	-0.760715	0.139366	-0.000231
C41	C	-0.772243	0.364807	0.042188
C42	C	-0.771183	0.437251	0.042188
C43	C	-0.819149	0.479963	-0.000261
C44	C	-0.868187	0.450224	-0.042701
C45	C	-0.869249	0.377778	-0.042697
C46	C	-0.821270	0.335072	-0.000250
C47	C	-0.880771	0.603216	-0.000289
C48	C	-0.879708	0.675664	-0.000305
C49	C	-0.753098	0.658703	-0.000268
C50	C	-0.754163	0.586257	-0.000260
C51	C	-0.818001	0.558518	-0.000267
N52	N	-0.820243	-0.092487	-0.188928
C53	C	-0.867575	-0.045129	0.226501
C54	C	-0.867579	-0.045126	0.302729
C55	C	-0.820207	-0.092481	0.340861
C56	C	-0.772814	-0.139830	0.302759
C57	C	-0.772806	-0.139827	0.226533
C58	C	-0.810908	-0.155769	0.461615
C59	C	-0.810921	-0.155772	0.537840
C60	C	-0.820226	-0.092489	0.575969
C61	C	-0.829534	-0.029200	0.537863
C62	C	-0.829526	-0.029197	0.461636
C63	C	-0.820209	-0.092489	0.423516
C64	C	-0.867618	-0.045136	0.696717
C65	C	-0.867617	-0.045132	0.772946
C66	C	-0.772855	-0.139842	0.772974
C67	C	-0.772852	-0.139840	0.696746
C68	C	-0.820237	-0.092488	0.658622
H69	H	-0.374103	-0.181433	0.076736
H70	H	-0.462562	-0.209648	-0.000233
C71	C	-0.950987	0.572697	-0.000306
H72	H	-0.942631	0.523149	-0.000291
H73	H	-0.976830	0.588041	-0.042544
H74	H	-0.976816	0.588065	0.041921
C75	C	-0.190641	0.042608	-0.000248
H76	H	-0.163742	0.080777	-0.000255
H77	H	-0.219233	0.044830	0.041986
H78	H	-0.219276	0.044821	-0.042480
H79	H	-0.242671	-0.179504	0.076720
C80	C	-0.601917	-0.229812	-0.000214
H81	H	-0.564917	-0.267043	-0.000217
H82	H	-0.629853	-0.232864	-0.042436
H83	H	-0.629798	-0.232853	0.042029
H84	H	-0.147101	-0.205027	-0.000272
H85	H	-0.906157	-0.006571	0.195463
H86	H	-0.906201	-0.006574	0.803962
C87	C	-0.002897	-0.221030	-0.000294
H88	H	0.044223	-0.211257	-0.000292
H89	H	-0.011308	-0.247212	-0.042528
H90	H	-0.011263	-0.247216	0.041937
H91	H	-0.930823	0.712056	-0.000321
C92	C	-0.720737	-0.191928	0.654842
H93	H	-0.692527	-0.220135	0.688467
H94	H	-0.691901	-0.167017	0.625127
H95	H	-0.745633	-0.220780	0.625087
H96	H	-0.939304	0.133744	-0.000261
C97	C	-0.920949	0.497197	-0.089402
H98	H	-0.913289	0.544601	-0.083336
H99	H	-0.967077	0.491487	-0.074501
H100	H	-0.915019	0.484489	-0.139187
H101	H	-0.906166	-0.006570	0.333750
C102	C	-0.637532	0.036062	-0.000179
H103	H	-0.610634	0.074232	-0.000184
H104	H	-0.666127	0.038283	0.042052
H105	H	-0.666164	0.038274	-0.042413
C106	C	-0.720687	-0.191914	0.184629
H107	H	-0.692475	-0.220120	0.218253
H108	H	-0.691853	-0.167002	0.154912
H109	H	-0.745584	-0.220767	0.154875
C110	C	-0.682883	0.689216	-0.000251
H111	H	-0.691239	0.738764	-0.000252
H112	H	-0.657054	0.673848	-0.042472
H113	H	-0.657042	0.673870	0.041993
C114	C	-0.720707	-0.191920	0.344701
H115	H	-0.727503	-0.185146	0.395555
H116	H	-0.674375	-0.184495	0.332240
H117	H	-0.728106	-0.238260	0.332190
H118	H	-0.733181	0.330035	0.076759
C119	C	-0.720745	-0.191931	0.814910
H120	H	-0.727538	-0.185155	0.865764
H121	H	-0.674414	-0.184507	0.802446
H122	H	-0.728145	-0.238271	0.802402
H123	H	-0.803347	-0.207306	0.568860
H124	H	-0.046435	0.026600	-0.000309
H125	H	-0.837111	0.022331	0.568905
C126	C	-0.257838	0.010458	-0.089350
H127	H	-0.208569	0.004216	-0.083290
H128	H	-0.275854	0.056240	-0.074426
H129	H	-0.268924	0.004174	-0.139136
C130	C	-0.955306	0.277949	-0.000275
H131	H	-0.945529	0.325067	-0.000280
H132	H	-0.981480	0.269569	0.041951
H133	H	-0.981501	0.269555	-0.042515
H134	H	-0.493322	0.020048	-0.000212
C135	C	-0.800677	-0.225384	0.419681
H136	H	-0.795147	-0.263076	0.453291
H137	H	-0.760228	-0.226897	0.389965
H138	H	-0.840356	-0.229131	0.389924
H139	H	-0.397755	-0.005470	-0.077211
C140	C	-0.923179	0.345066	-0.089385
H141	H	-0.951593	0.380874	-0.114673
H142	H	-0.951634	0.320565	-0.058808
H143	H	-0.899575	0.313582	-0.123493
C144	C	-0.685119	0.537085	-0.000239
H145	H	-0.694894	0.489966	-0.000246
H146	H	-0.658925	0.545481	0.041996
H147	H	-0.658946	0.545466	-0.042470
C148	C	-0.717245	0.469958	0.088870
H149	H	-0.688822	0.434145	0.114141
H150	H	-0.740835	0.501443	0.122980
H151	H	-0.688791	0.494456	0.058282
H152	H	-0.707680	0.234407	-0.000222
H153	H	-0.709600	0.102973	-0.000219
H154	H	-0.837103	0.022336	0.430614
C155	C	-0.919731	0.006954	0.654777
H156	H	-0.947945	0.035161	0.688384
H157	H	-0.948562	-0.017956	0.625018
H158	H	-0.894829	0.035807	0.625063
