data_functionalizedCrystal
_audit_creation_method	'MofGen! by Chris Wilmer'
_symmetry_space_group_name_H-M	'P1'
_symmetry_Int_Tables_number	1
_symmetry_cell_setting	triclinic
loop_
_symmetry_equiv_pos_as_xyz
  x,y,z
_cell_length_a	15.538191
_cell_length_b	14.044220
_cell_length_c	14.185569
_cell_angle_alpha	75.620253
_cell_angle_beta	97.875798
_cell_angle_gamma	70.230486
loop_
_atom_site_label
_atom_site_type_symbol
_atom_site_fract_x
_atom_site_fract_y
_atom_site_fract_z
O1	O	1.205756	-0.271175	-0.083422
O2	O	0.940435	-0.164802	-0.083425
O3	O	1.069115	-0.354606	-0.083414
O4	O	1.077076	-0.081371	-0.083433
O5	O	1.107129	-0.410672	0.083424
O6	O	0.978449	-0.220867	0.083413
O7	O	1.243770	-0.327240	0.083415
Cu8	Cu	1.114580	-0.279173	0.098648
Cu9	Cu	1.069625	-0.212869	-0.098657
O10	O	1.115089	-0.137436	0.083404
C11	C	0.925281	-0.181705	-0.000006
C12	C	0.823493	-0.148554	-0.000006
C13	C	1.084636	-0.416754	0.000006
C14	C	1.074236	-0.518402	0.000007
C15	C	0.508030	-0.477901	0.000002
C16	C	0.412383	-0.446726	-0.000001
C17	C	0.404671	-0.271379	-0.000014
C18	C	0.500321	-0.302540	-0.000006
C19	C	0.551993	-0.405802	0.000001
C20	C	0.544283	-0.230442	-0.000007
C21	C	0.639923	-0.261599	-0.000004
C22	C	0.691600	-0.364855	-0.000001
C23	C	0.647632	-0.436960	0.000003
C24	C	0.492608	-0.127178	-0.000020
C25	C	0.536570	-0.055080	-0.000021
C26	C	0.632213	-0.086239	-0.000012
C27	C	0.683891	-0.189495	-0.000008
C28	C	0.676181	-0.014135	-0.000016
C29	C	0.771821	-0.045293	-0.000013
C30	C	0.779531	-0.220653	-0.000005
C31	C	1.055220	-0.704517	-0.000008
C32	C	1.128978	-0.787527	-0.000010
C33	C	1.118398	-0.891087	-0.000018
C34	C	1.065800	-0.600946	0.000000
C35	C	1.258923	-0.310336	-0.000005
C36	C	1.360709	-0.343485	-0.000012
C37	C	1.099568	-0.075288	-0.000017
C38	C	1.109966	0.026363	-0.000025
N39	N	1.146206	-0.325810	0.237422
N40	N	1.038005	-0.166242	-0.237431
C41	C	0.945085	-0.029261	0.605054
C42	C	0.969048	-0.064584	0.710078
C43	C	1.083023	-0.232618	0.710049
C44	C	1.059066	-0.197311	0.605023
C45	C	0.990097	-0.095631	0.552534
C46	C	1.104079	-0.263681	0.552503
C47	C	1.080128	-0.228374	0.447486
C48	C	1.011163	-0.126697	0.394990
C49	C	0.966146	-0.060324	0.447518
C50	C	1.173053	-0.365358	0.604994
C51	C	1.218065	-0.431728	0.552473
C52	C	1.194109	-0.396424	0.447455
C53	C	1.125145	-0.294747	0.394959
C54	C	1.239127	-0.462797	0.394927
C55	C	1.215175	-0.427490	0.289911
C56	C	1.101193	-0.259440	0.289942
H57	H	0.821607	-0.304741	0.000006
C58	C	0.479722	0.058503	-0.000023
N59	N	0.436905	0.144054	-0.000020
C60	C	0.959187	-0.713589	0.000005
N61	N	0.886857	-0.720435	0.000022
C62	C	0.796808	-0.399130	0.000004
N63	N	0.876052	-0.424946	0.000009
H64	H	0.414731	-0.101812	-0.000026
H65	H	0.909977	0.022469	0.404779
H66	H	0.991666	-0.097950	0.309479
C67	C	0.869175	0.082568	0.547311
N68	N	0.811990	0.166787	0.503818
H69	H	1.045025	-0.176647	0.247203
C70	C	0.919522	0.008436	0.767847
N71	N	0.882220	0.063433	0.811358
C72	C	1.158885	-0.344466	0.767798
N73	N	1.216022	-0.428713	0.811295
H74	H	1.192555	-0.394098	0.690505
C75	C	1.293927	-0.543575	0.610223
N76	N	1.351064	-0.627823	0.653719
H77	H	1.295289	-0.545582	0.437677
H78	H	0.689708	-0.521047	0.000015
C79	C	0.564876	-0.591496	0.000014
N80	N	0.607691	-0.677051	0.000020
C81	C	1.264689	-0.500502	0.232135
N82	N	1.301986	-0.555496	0.188618
H83	H	1.200055	-0.780793	-0.000077
H84	H	0.376593	-0.505445	-0.000002
C85	C	0.347823	-0.157796	-0.000016
N86	N	0.305007	-0.072245	-0.000012
H87	H	0.634094	0.069944	-0.000031
C88	C	0.820183	0.034019	-0.000012
N89	N	0.856609	0.093759	-0.000013
