data_functionalizedCrystal
_audit_creation_method	'MofGen! by Chris Wilmer'
_symmetry_space_group_name_H-M	'P1'
_symmetry_Int_Tables_number	1
_symmetry_cell_setting	triclinic
loop_
_symmetry_equiv_pos_as_xyz
  x,y,z
_cell_length_a	13.033293
_cell_length_b	15.299816
_cell_length_c	13.033109
_cell_angle_alpha	105.397713
_cell_angle_beta	74.800007
_cell_angle_gamma	88.701182
loop_
_atom_site_label
_atom_site_type_symbol
_atom_site_fract_x
_atom_site_fract_y
_atom_site_fract_z
Zn1	Zn	1.760275	-0.261340	-0.867254
Zn2	Zn	1.768333	-0.395198	-0.720397
Zn3	Zn	1.560083	-0.261357	-0.667061
Zn4	Zn	1.621114	-0.429097	-0.883163
O5	O	1.677451	-0.336748	-0.784469
O6	O	1.906737	-0.264903	-0.863437
O7	O	1.718538	-0.363263	-0.561422
O8	O	1.557726	-0.135135	-0.664637
O9	O	1.912657	-0.363247	-0.755542
O10	O	1.704806	-0.135123	-0.811719
O11	O	1.565539	-0.264931	-0.522236
O12	O	1.422787	-0.297802	-0.680064
O13	O	1.661743	-0.421024	-1.032953
O14	O	1.467625	-0.421040	-0.838833
O15	O	1.763985	-0.297774	-1.021265
O16	O	1.777717	-0.525914	-0.770968
O17	O	1.669556	-0.550820	-0.890552
C18	C	1.407507	-0.363102	-0.755388
C19	C	1.292033	-0.374401	-0.742978
C20	C	1.237656	-0.330874	-0.790951
C21	C	1.118307	-0.342550	-0.778126
C22	C	1.731165	-0.571094	-0.838301
C23	C	1.754244	-0.671342	-0.861376
C24	C	1.513235	-0.954209	-0.619984
C25	C	1.491546	-0.860021	-0.598305
C26	C	1.557219	-0.812847	-0.664070
C27	C	1.644584	-0.859869	-0.751520
C28	C	1.666271	-0.954067	-0.773206
C29	C	1.710254	-0.812705	-0.817293
C30	C	1.797620	-0.859727	-0.904742
C31	C	1.819303	-0.953916	-0.926424
C32	C	1.753630	-1.001090	-0.860658
C33	C	1.688568	-0.718507	-0.795606
C34	C	1.841604	-0.718365	-0.948829
C35	C	1.863293	-0.812553	-0.970507
C36	C	1.948450	-0.310292	-0.813664
C37	C	2.063933	-0.299017	-0.826106
C38	C	1.718773	-0.363179	-1.067596
C39	C	1.736382	-0.374442	-1.188248
C40	C	1.623560	-0.101487	-0.730454
C41	C	1.600594	-0.001232	-0.707436
C42	C	1.668531	-0.330810	-1.222650
C43	C	1.686729	-0.342450	-1.347350
C44	C	1.636335	-0.310349	-0.502435
C45	C	1.618869	-0.298813	-0.381746
H46	H	1.250229	-0.420308	-0.692408
Cl47	Cl	1.846868	-0.445427	-1.285301
H48	H	1.596966	-0.284843	-1.159784
Cl49	Cl	1.797220	-0.413438	-1.444400
H50	H	1.539555	-0.736155	-0.646413
Cl51	Cl	1.973119	-0.871678	-1.080441
Cl52	Cl	1.302187	-0.259988	-0.869021
H53	H	1.771287	-1.077785	-0.878301
H54	H	1.459769	-0.992628	-0.566451
Cl55	Cl	1.924168	-0.659068	-1.031512
Cl56	Cl	1.508352	-0.227854	-1.284702
Cl57	Cl	1.929117	-1.013032	-1.036379
Cl58	Cl	1.128455	-0.228122	-0.904173
H59	H	1.617434	-0.680230	-0.724405
Cl60	Cl	1.053777	-0.413432	-0.700041
Cl61	Cl	1.381711	-0.800917	-0.488384
