data_functionalizedCrystal
_audit_creation_method	'MofGen! by Chris Wilmer'
_symmetry_space_group_name_H-M	'P1'
_symmetry_Int_Tables_number	1
_symmetry_cell_setting	triclinic
loop_
_symmetry_equiv_pos_as_xyz
  x,y,z
_cell_length_a	14.971486
_cell_length_b	14.044220
_cell_length_c	14.048226
_cell_angle_alpha	89.992807
_cell_angle_beta	89.998499
_cell_angle_gamma	88.401503
loop_
_atom_site_label
_atom_site_type_symbol
_atom_site_fract_x
_atom_site_fract_y
_atom_site_fract_z
O1	O	1.196679	0.123538	-0.079053
O2	O	0.937444	0.138332	-0.079079
O3	O	1.063171	-0.007054	-0.079057
O4	O	1.070953	0.268924	-0.079075
O5	O	1.063153	-0.007063	0.079264
O6	O	0.937427	0.138323	0.079242
O7	O	1.196662	0.123529	0.079268
Zn8	Zn	1.067042	0.130925	0.104392
Zn9	Zn	1.067064	0.130936	-0.104203
O10	O	1.070936	0.268915	0.079246
C11	C	0.904059	0.137666	0.000078
C12	C	0.804606	0.135683	0.000069
C13	C	0.754109	0.221093	0.000064
C14	C	0.660662	0.219225	0.000079
C15	C	0.617714	0.131945	0.000090
C16	C	0.668218	0.046528	0.000097
C17	C	0.761663	0.048398	0.000090
C18	C	0.473449	0.042638	0.000111
C19	C	0.379997	0.040767	0.000117
C20	C	0.372448	0.213465	0.000100
C21	C	0.465893	0.215334	0.000092
C22	C	0.516390	0.129917	0.000097
C23	C	1.059755	-0.042377	0.000104
C24	C	1.049594	-0.147614	0.000104
C25	C	1.031018	-0.340297	0.000088
C26	C	1.103085	-0.397848	0.000093
C27	C	1.092748	-0.505063	0.000084
C28	C	1.041353	-0.233071	0.000097
C29	C	1.230047	0.124195	0.000109
C30	C	1.329501	0.126178	0.000112
C31	C	1.074351	0.304238	0.000083
C32	C	1.084512	0.409475	0.000077
N33	N	1.067033	0.130916	0.246753
N34	N	1.067080	0.130937	-0.246564
C35	C	1.122726	0.066566	0.296581
C36	C	1.122732	0.066566	0.396238
C37	C	1.067049	0.130921	0.446066
C38	C	1.011350	0.195274	0.396232
C39	C	1.011340	0.195269	0.296576
C40	C	1.011376	0.195281	0.603946
C41	C	1.011387	0.195287	0.703609
C42	C	1.122768	0.066577	0.703608
C43	C	1.122758	0.066573	0.603953
C44	C	1.067060	0.130927	0.554125
H45	H	0.633242	-0.024537	0.000121
H46	H	0.619551	0.288775	0.000074
O47	O	1.176882	0.004192	0.444751
C48	C	1.236128	0.055069	0.502362
H49	H	1.206409	0.129185	0.517279
H50	H	1.247131	0.015533	0.572448
H51	H	1.302751	0.061630	0.463949
O52	O	0.948136	-0.377525	-0.000086
C53	C	0.901389	-0.346593	-0.082069
H54	H	0.951134	-0.325868	-0.139379
H55	H	0.858652	-0.406612	-0.109595
H56	H	0.856581	-0.282290	-0.063528
O57	O	1.176844	0.003959	0.248330
C58	C	1.226015	-0.052822	0.313684
H59	H	1.189261	-0.053953	0.384727
H60	H	1.233623	-0.128507	0.284904
H61	H	1.294923	-0.021925	0.324269
H62	H	1.168104	0.014175	0.563383
H63	H	1.168119	0.014178	0.744184
O64	O	0.957373	0.257927	0.555583
C65	C	0.979388	0.351794	0.579934
H66	H	1.051046	0.352381	0.607321
H67	H	0.972890	0.399349	0.514388
H68	H	0.932032	0.379556	0.637780
O69	O	0.957158	0.257693	0.751976
C70	C	0.867379	0.242121	0.727628
H71	H	0.860904	0.166223	0.700235
H72	H	0.823365	0.252926	0.793176
H73	H	0.845272	0.294620	0.669787
O74	O	1.186020	-0.360733	0.000073
C75	C	1.250996	-0.435360	0.000106
H76	H	1.220673	-0.502607	-0.029883
H77	H	1.310098	-0.414519	-0.045839
H78	H	1.274759	-0.449301	0.076066
H79	H	0.966007	0.247670	0.436807
O80	O	0.957216	0.257873	0.248317
C81	C	0.908055	0.314662	0.313664
H82	H	0.944823	0.315803	0.384696
H83	H	0.900440	0.390342	0.284856
H84	H	0.839151	0.283763	0.324279
H85	H	0.789070	0.292167	0.000054
H86	H	0.500859	0.286405	0.000073
O87	O	0.522368	-0.040424	0.000069
C88	C	0.464426	-0.117862	0.000098
H89	H	0.396705	-0.093877	-0.029866
H90	H	0.494063	-0.177705	-0.045872
H91	H	0.455657	-0.144622	0.076054
H92	H	0.331329	0.283015	0.000099
H93	H	0.802776	-0.021152	0.000093
O94	O	0.338231	-0.043989	-0.000030
C95	C	0.284383	-0.050229	-0.082008
H96	H	0.310405	-0.000678	-0.139334
H97	H	0.286652	-0.126622	-0.109512
H98	H	0.212552	-0.028433	-0.063470
