data_functionalizedCrystal
_audit_creation_method	'MofGen! by Chris Wilmer'
_symmetry_space_group_name_H-M	'P1'
_symmetry_Int_Tables_number	1
_symmetry_cell_setting	triclinic
loop_
_symmetry_equiv_pos_as_xyz
  x,y,z
_cell_length_a	17.077404
_cell_length_b	21.395361
_cell_length_c	17.077396
_cell_angle_alpha	89.966749
_cell_angle_beta	89.980499
_cell_angle_gamma	90.030933
loop_
_atom_site_label
_atom_site_type_symbol
_atom_site_fract_x
_atom_site_fract_y
_atom_site_fract_z
Zn1	Zn	1.200012	-0.249435	-0.443817
Zn2	Zn	1.199901	-0.354216	-0.312540
Zn3	Zn	1.068744	-0.249457	-0.312565
Zn4	Zn	1.068694	-0.354179	-0.443763
O5	O	1.134338	-0.301822	-0.378171
O6	O	1.309844	-0.263341	-0.426414
O7	O	1.182477	-0.340344	-0.202696
O8	O	1.086224	-0.161776	-0.330008
O9	O	1.309763	-0.340323	-0.329966
O10	O	1.182666	-0.161760	-0.426439
O11	O	1.086117	-0.263378	-0.202714
O12	O	0.958890	-0.263342	-0.329957
O13	O	1.086139	-0.340260	-0.553617
O14	O	0.958854	-0.340281	-0.426348
O15	O	1.182618	-0.263305	-0.553657
O16	O	1.182429	-0.441889	-0.329914
O17	O	1.086031	-0.441862	-0.426324
C18	C	0.930390	-0.301810	-0.378149
C19	C	0.843140	-0.301821	-0.378159
C20	C	0.802151	-0.341943	-0.428269
C21	C	0.720171	-0.341944	-0.428282
C22	C	0.679181	-0.301826	-0.378179
C23	C	0.720175	-0.261699	-0.328067
C24	C	0.802154	-0.261695	-0.328059
C25	C	0.549305	-0.261711	-0.328086
C26	C	0.467320	-0.261716	-0.328092
C27	C	0.467322	-0.341961	-0.428309
C28	C	0.549301	-0.341957	-0.428301
C29	C	0.590290	-0.301830	-0.378187
C30	C	1.134234	-0.464609	-0.378127
C31	C	1.134262	-0.534251	-0.378135
C32	C	1.184500	-0.566957	-0.327986
C33	C	1.184537	-0.632392	-0.328004
C34	C	1.134321	-0.665119	-0.378162
C35	C	1.084078	-0.632404	-0.428321
C36	C	1.084049	-0.566970	-0.428307
C37	C	1.063641	-0.768833	-0.384313
C38	C	1.063669	-0.834266	-0.384321
C39	C	1.134412	-0.866940	-0.378208
C40	C	1.205129	-0.834172	-0.372070
C41	C	1.205099	-0.768738	-0.372057
C42	C	1.134347	-0.736071	-0.378182
C43	C	1.184694	-0.970599	-0.328075
C44	C	1.184732	-1.036035	-0.328098
C45	C	1.084267	-1.036046	-0.428411
C46	C	1.084236	-0.970611	-0.428392
C47	C	1.134449	-0.937891	-0.378220
C48	C	1.339082	-0.301833	-0.378193
C49	C	1.426332	-0.301839	-0.378203
C50	C	1.134385	-0.301775	-0.582915
C51	C	1.134405	-0.301756	-0.670165
C52	C	1.134463	-0.138398	-0.378232
C53	C	1.134517	-0.068757	-0.378258
C54	C	1.184644	-0.261682	-0.711177
C55	C	1.184653	-0.261661	-0.793158
C56	C	1.134428	-0.301718	-0.834125
C57	C	1.084184	-0.341793	-0.793107
C58	C	1.084171	-0.341811	-0.711128
C59	C	1.084215	-0.341756	-0.963977
C60	C	1.084229	-0.341739	-1.045962
C61	C	1.184698	-0.261606	-1.046007
C62	C	1.184685	-0.261623	-0.964028
C63	C	1.134442	-0.301700	-0.923016
C64	C	1.134336	-0.301822	-0.174223
C65	C	1.134467	-0.301666	-0.086974
H66	H	0.686794	-0.229031	-0.287276
H67	H	0.835526	-0.229020	-0.287258
C68	C	1.239921	-0.217578	-0.838267
N69	N	1.281551	-0.184372	-0.872243
C70	C	1.028985	-0.934632	-0.483577
N71	N	0.987376	-0.907533	-0.525154
H72	H	1.225388	-0.540319	-0.287135
C73	C	1.239965	-0.217521	-1.091121
N74	N	1.281593	-0.184319	-1.125105
C75	C	0.594391	-0.217572	-0.272956
N76	N	0.628349	-0.184329	-0.231429
H77	H	0.582673	-0.374628	-0.469094
H78	H	1.225546	-0.229065	-0.677828
H79	H	0.433948	-0.229041	-0.287304
C80	C	1.028974	-0.385800	-1.091024
N81	N	0.987353	-0.418986	-1.124965
C82	C	1.239801	-0.668377	-0.272829
N83	N	1.281424	-0.695479	-0.231270
H84	H	1.262734	-0.860773	-0.367092
C85	C	0.985812	-0.732899	-0.391020
N86	N	0.927192	-0.705834	-0.396064
H87	H	0.433945	-0.374631	-0.469115
H88	H	1.225587	-0.229009	-0.930675
H89	H	1.043286	-0.374406	-0.826469
C90	C	1.028906	-0.385896	-0.666016
N91	N	0.987278	-0.419101	-0.632038
C92	C	0.847233	-0.386078	-0.483386
N93	N	0.881186	-0.419319	-0.524905
C94	C	0.675087	-0.386094	-0.483392
N95	N	0.641130	-0.419354	-0.524899
C96	C	1.282886	-0.732696	-0.365305
N97	N	1.341476	-0.705549	-0.360220
C98	C	1.239940	-0.934605	-0.272897
N99	N	1.281555	-0.907496	-0.231339
H100	H	1.225647	-1.062664	-0.287263
H101	H	1.043383	-1.062691	-0.469255
C102	C	0.985880	-0.870304	-0.391071
N103	N	0.927287	-0.897447	-0.396156
C104	C	1.028838	-0.668405	-0.483492
N105	N	0.987229	-0.695520	-0.525050
C106	C	1.028790	-0.530992	-0.483487
N107	N	0.987171	-0.503892	-0.525053
H108	H	1.043290	-0.374380	-0.930588
