data_functionalizedCrystal
_audit_creation_method	'MofGen! by Chris Wilmer'
_symmetry_space_group_name_H-M	'P1'
_symmetry_Int_Tables_number	1
_symmetry_cell_setting	triclinic
loop_
_symmetry_equiv_pos_as_xyz
  x,y,z
_cell_length_a	6.394984
_cell_length_b	16.109301
_cell_length_c	15.186229
_cell_angle_alpha	89.999006
_cell_angle_beta	89.997785
_cell_angle_gamma	84.978468
loop_
_atom_site_label
_atom_site_type_symbol
_atom_site_fract_x
_atom_site_fract_y
_atom_site_fract_z
O1	O	0.268483	1.105970	-0.073177
O2	O	0.301895	0.864262	-0.073189
O3	O	-0.018878	0.988549	-0.073180
O4	O	0.589256	0.981683	-0.073186
O5	O	-0.018883	0.988541	0.073277
O6	O	0.301890	0.864253	0.073268
O7	O	0.268479	1.105962	0.073280
Zn8	Zn	0.285184	0.985106	0.096527
Zn9	Zn	0.285190	0.985118	-0.096436
O10	O	0.589252	0.981674	0.073271
C11	C	0.300539	0.833268	0.000038
C12	C	0.296481	0.740930	0.000033
C13	C	0.473556	0.433805	0.000047
C14	C	0.477389	0.520566	0.000042
C15	C	0.096802	0.536413	0.000034
C16	C	0.092972	0.449654	0.000032
C17	C	0.281356	0.398352	0.000044
C18	C	0.289018	0.571872	0.000040
C19	C	0.293171	0.665942	0.000034
C20	C	0.277202	0.304276	0.000047
C21	C	0.903302	0.987180	0.000051
C22	C	0.667067	0.983042	0.000049
C23	C	0.269834	1.136955	0.000051
C24	C	0.273892	1.229294	0.000050
N25	N	0.285178	0.985105	0.228220
N26	N	0.285178	0.985126	-0.228129
C27	C	0.143188	1.040159	0.453947
C28	C	0.143183	1.040161	0.546136
C29	C	0.427176	0.930065	0.546138
C30	C	0.427169	0.930059	0.453950
C31	C	0.285178	0.985111	0.407857
C32	C	0.285179	0.985119	0.592234
C33	C	0.285175	0.985122	0.692190
C34	C	0.285179	0.985108	0.307894
H35	H	0.626951	0.392037	0.000055
H36	H	-0.063550	0.420788	0.000027
F37	F	-0.007945	1.098749	0.595186
H38	H	0.027567	1.084984	0.416420
F39	F	0.578292	0.871480	0.595199
H40	H	0.633898	0.549427	0.000044
H41	H	0.542795	0.885229	0.416421
H42	H	-0.056573	0.578194	0.000026
