data_functionalizedCrystal
_audit_creation_method	'MofGen! by Chris Wilmer'
_symmetry_space_group_name_H-M	'P1'
_symmetry_Int_Tables_number	1
_symmetry_cell_setting	triclinic
loop_
_symmetry_equiv_pos_as_xyz
  x,y,z
_cell_length_a	17.638336
_cell_length_b	17.640280
_cell_length_c	16.959447
_cell_angle_alpha	78.773258
_cell_angle_beta	78.788039
_cell_angle_gamma	65.685103
loop_
_atom_site_label
_atom_site_type_symbol
_atom_site_fract_x
_atom_site_fract_y
_atom_site_fract_z
Zn1	Zn	1.326460	-0.583267	-0.596897
Zn2	Zn	1.354267	-0.721084	-0.442503
Zn3	Zn	1.188641	-0.555389	-0.442543
Zn4	Zn	1.216475	-0.693128	-0.552471
O5	O	1.271461	-0.638217	-0.508603
O6	O	1.445493	-0.624915	-0.594992
O7	O	1.332286	-0.699137	-0.331888
O8	O	1.183637	-0.443766	-0.481628
O9	O	1.465923	-0.726168	-0.481559
O10	O	1.284892	-0.464248	-0.595031
O11	O	1.210601	-0.577402	-0.331918
O12	O	1.076989	-0.550294	-0.438549
O13	O	1.231076	-0.678522	-0.668984
O14	O	1.097438	-0.651490	-0.519313
O15	O	1.311881	-0.597807	-0.701624
O16	O	1.359275	-0.832696	-0.438481
O17	O	1.258039	-0.812157	-0.519274
C18	C	1.057306	-0.594834	-0.474115
C19	C	0.965694	-0.576295	-0.459376
C20	C	1.314717	-0.852333	-0.474073
C21	C	1.333298	-0.943948	-0.459339
C22	C	0.825884	-0.497396	-0.396645
C23	C	0.911969	-0.514823	-0.410499
C24	C	0.933349	-0.620368	-0.494415
C25	C	0.847265	-0.602953	-0.480565
C26	C	0.793539	-0.541466	-0.431679
C27	C	0.814919	-0.647023	-0.515600
C28	C	0.728842	-0.629606	-0.501753
C29	C	0.675110	-0.568120	-0.452872
C30	C	0.707461	-0.524049	-0.417833
C31	C	0.868646	-0.708506	-0.564490
C32	C	0.836301	-0.752575	-0.599524
C33	C	0.750223	-0.735163	-0.585674
C34	C	0.696491	-0.673676	-0.536793
C35	C	0.717872	-0.779233	-0.620713
C36	C	0.631794	-0.761817	-0.606867
C37	C	0.610414	-0.656260	-0.522946
C38	C	1.130643	-1.191882	-0.620875
C39	C	1.148104	-1.277968	-0.607006
C40	C	1.253587	-1.299304	-0.522989
C41	C	1.236137	-1.213218	-0.536854
C42	C	1.174664	-1.159513	-0.585798
C43	C	1.280158	-1.180849	-0.501777
C44	C	1.262707	-1.094770	-0.515638
C45	C	1.201235	-1.041060	-0.564577
C46	C	1.157213	-1.073434	-0.599659
C47	C	1.341627	-1.234554	-0.452829
C48	C	1.385647	-1.202185	-0.417751
C49	C	1.368200	-1.116106	-0.431617
C50	C	1.306729	-1.062396	-0.480556
C51	C	1.412222	-1.083731	-0.396535
C52	C	1.394771	-0.997652	-0.410396
C53	C	1.289277	-0.976317	-0.494417
C54	C	1.486452	-0.681770	-0.543227
C55	C	1.578068	-0.700329	-0.557981
C56	C	1.271481	-0.638156	-0.714788
C57	C	1.271490	-0.638130	-0.802652
C58	C	1.228058	-0.423270	-0.543290
C59	C	1.209562	-0.331672	-0.558071
C60	C	1.229499	-0.680087	-1.157166
C61	C	1.313643	-0.596038	-1.191149
C62	C	1.313624	-0.596051	-1.108597
C63	C	1.271544	-0.638084	-1.050325
C64	C	1.229481	-0.680103	-1.074606
C65	C	1.355693	-0.554040	-1.084310
C66	C	1.355677	-0.554052	-1.001753
C67	C	1.313591	-0.596080	-0.943480
C68	C	1.271526	-0.638100	-0.967765
C69	C	1.229445	-0.680133	-0.909493
C70	C	1.187375	-0.722149	-0.933776
C71	C	1.187395	-0.722131	-1.016332
C72	C	1.313571	-0.596097	-0.860924
C73	C	1.229428	-0.680149	-0.826932
C74	C	1.271476	-0.638228	-0.303238
C75	C	1.271580	-0.638054	-0.215438
H76	H	0.566666	-0.606190	-0.483139
H77	H	0.605020	-0.553936	-0.441604
F78	F	0.768702	-0.431964	-0.344603
F79	F	1.400482	-0.509316	-1.146329
F80	F	0.946390	-0.467914	-0.373205
H81	H	1.303636	-1.343041	-0.483137
H82	H	1.435696	-1.245922	-0.377899
H83	H	1.462268	-1.127469	-0.356679
F84	F	1.184634	-0.724882	-0.764920
H85	H	0.663714	-0.473980	-0.378026
H86	H	1.347826	-0.561891	-0.841156
F87	F	0.775060	-0.844668	-0.672741
H88	H	1.347908	-0.561823	-1.238598
H89	H	1.430617	-0.971298	-0.381831
H90	H	0.977104	-0.670429	-0.534220
H91	H	1.389933	-0.519839	-0.981990
F92	F	1.142596	-0.766886	-0.871750
F93	F	0.960259	-0.727042	-0.579223
H94	H	1.195244	-0.714292	-1.176941
F95	F	0.893489	-0.818016	-0.651546
F96	F	1.142629	-0.766847	-1.042183
F97	F	0.597367	-0.808718	-0.644157
F98	F	1.182810	-0.949476	-0.579496
F99	F	1.091793	-1.016274	-0.651758
F100	F	1.223857	-0.919156	-0.546516
H101	H	1.080592	-1.148154	-0.660737
F102	F	1.101239	-1.312412	-0.644336
F103	F	1.360221	-1.326173	-0.438103
