data_functionalizedCrystal
_audit_creation_method	'MofGen! by Chris Wilmer'
_symmetry_space_group_name_H-M	'P1'
_symmetry_Int_Tables_number	1
_symmetry_cell_setting	triclinic
loop_
_symmetry_equiv_pos_as_xyz
  x,y,z
_cell_length_a	12.811439
_cell_length_b	12.837942
_cell_length_c	11.892277
_cell_angle_alpha	86.044810
_cell_angle_beta	80.240603
_cell_angle_gamma	89.411061
loop_
_atom_site_label
_atom_site_type_symbol
_atom_site_fract_x
_atom_site_fract_y
_atom_site_fract_z
O1	O	-1.410166	-0.142849	0.050544
O2	O	-1.103907	-0.156059	0.019149
O3	O	-1.250246	0.001522	0.034157
O4	O	-1.263827	-0.300429	0.035536
O5	O	-1.263486	-0.010449	0.223516
O6	O	-1.117147	-0.168030	0.208508
O7	O	-1.423405	-0.154819	0.239902
Zn8	Zn	-1.272378	-0.163325	0.254270
Zn9	Zn	-1.254935	-0.147553	0.004782
O10	O	-1.277066	-0.312400	0.224894
C11	C	-1.071055	-0.160938	0.109783
C12	C	-0.953440	-0.157630	0.097726
C13	C	-1.252278	0.034206	0.128366
C14	C	-1.238593	0.149430	0.126961
N15	N	-1.284290	-0.174088	0.424540
C16	C	-0.746862	-0.164445	0.281533
C17	C	-0.636353	-0.161336	0.270210
C18	C	-0.621909	-0.148296	0.063760
C19	C	-0.732419	-0.151405	0.075083
C20	C	-0.794892	-0.159481	0.183972
C21	C	-0.905403	-0.162597	0.195294
C22	C	-0.890958	-0.149550	-0.011155
C23	C	-0.780448	-0.146441	-0.022478
C24	C	-0.456258	-0.149944	0.149270
C25	C	-0.573873	-0.153264	0.161328
C26	C	-1.275035	-0.345084	0.130683
C27	C	-1.288719	-0.460308	0.132081
C28	C	-1.403100	0.388623	0.143801
C29	C	-1.390247	0.496887	0.142481
C30	C	-1.200036	0.474225	0.122995
C31	C	-1.212889	0.365961	0.124314
C32	C	-1.314424	0.323164	0.134719
C33	C	-1.327276	0.214897	0.136047
C34	C	-1.137065	0.192238	0.116552
C35	C	-1.124213	0.300502	0.115233
N36	N	-1.243030	-0.136782	-0.165487
C37	C	-1.160020	-0.061826	0.648504
C38	C	-1.168372	-0.069356	0.767699
C39	C	-1.309339	-0.196684	0.782124
C40	C	-1.300988	-0.189154	0.662930
C41	C	-1.226327	-0.121721	0.596124
C42	C	-1.217981	-0.114186	0.476928
C43	C	-1.358943	-0.241519	0.491355
C44	C	-1.367294	-0.249049	0.610550
H45	H	-0.797728	-0.171034	0.370195
O46	O	-1.014708	0.346674	0.104020
H47	H	-0.966167	0.325344	0.022421
O48	O	-0.584544	-0.166700	0.375434
H49	H	-0.646554	-0.172846	0.453049
O50	O	-1.096871	-0.004725	0.824185
H51	H	-1.013005	-0.024889	0.792885
H52	H	-1.117369	0.509090	0.114511
O53	O	-0.554522	-0.139582	-0.053679
H54	H	-0.469610	-0.138258	-0.045155
H55	H	-0.729568	-0.139861	-0.111133
O56	O	-1.436787	0.168742	0.147259
H57	H	-1.452607	0.115092	0.225511
H58	H	-0.930075	-0.145514	-0.090596
H59	H	-1.157190	-0.059278	0.422536
O60	O	-1.447820	-0.321777	0.682603
H61	H	-1.528471	-0.298699	0.668132
H62	H	-1.099234	-0.006915	0.594110
O63	O	-1.512609	0.342461	0.155023
H64	H	-1.528415	0.288809	0.233274
H65	H	-0.956267	-0.169179	0.283957
H66	H	-1.370121	-0.251588	0.836537
O67	O	-1.430464	-0.306132	0.434863
H68	H	-1.412112	-0.289574	0.340755
H69	H	-1.462457	0.550181	0.149873
H70	H	-1.064859	0.138928	0.109166
