data_functionalizedCrystal
_audit_creation_method	'MofGen! by Chris Wilmer'
_symmetry_space_group_name_H-M	'P1'
_symmetry_Int_Tables_number	1
_symmetry_cell_setting	triclinic
loop_
_symmetry_equiv_pos_as_xyz
  x,y,z
_cell_length_a	19.077105
_cell_length_b	13.031981
_cell_length_c	19.076919
_cell_angle_alpha	84.787276
_cell_angle_beta	90.076224
_cell_angle_gamma	94.612336
loop_
_atom_site_label
_atom_site_type_symbol
_atom_site_fract_x
_atom_site_fract_y
_atom_site_fract_z
Zn1	Zn	1.017314	-0.500549	-0.395930
Zn2	Zn	1.008342	-0.666908	-0.263638
Zn3	Zn	0.905666	-0.486689	-0.274955
Zn4	Zn	0.886215	-0.666284	-0.376446
O5	O	0.954384	-0.580108	-0.327742
O6	O	1.113960	-0.528679	-0.381799
O7	O	0.999107	-0.637462	-0.167300
O8	O	0.932371	-0.343744	-0.303894
O9	O	1.107368	-0.650902	-0.284605
O10	O	1.014399	-0.353927	-0.392773
O11	O	0.923672	-0.505056	-0.175615
O12	O	0.805250	-0.504451	-0.285001
O13	O	0.899220	-0.649839	-0.476870
O14	O	0.790959	-0.636399	-0.359565
O15	O	0.995538	-0.528074	-0.491185
O16	O	0.980246	-0.811608	-0.265711
O17	O	0.890520	-0.811150	-0.348591
C18	C	0.772737	-0.568854	-0.321397
C19	C	0.695024	-0.564065	-0.318697
C20	C	0.932317	-0.848922	-0.303825
C21	C	0.922940	-0.963927	-0.293618
C22	C	0.651088	-0.630609	-0.356171
C23	C	0.578070	-0.626097	-0.353638
C24	C	0.548989	-0.555044	-0.313627
C25	C	0.592932	-0.488492	-0.276152
C26	C	0.665948	-0.493001	-0.278689
C27	C	0.331409	-0.534178	-0.301889
C28	C	0.258387	-0.529677	-0.299353
C29	C	0.243530	-0.667280	-0.376841
C30	C	0.316549	-0.671787	-0.379371
C31	C	0.360485	-0.605232	-0.341899
N32	N	0.474353	-0.550432	-0.311036
N33	N	0.435120	-0.609840	-0.344495
C34	C	0.959315	-1.020156	-0.333085
C35	C	0.949624	-1.139020	-0.322537
C36	C	1.136741	-0.591406	-0.334113
C37	C	1.214450	-0.596221	-0.336828
C38	C	0.946210	-0.590433	-0.510105
C39	C	0.942726	-0.594833	-0.587817
C40	C	0.976556	-0.310246	-0.351769
C41	C	0.986004	-0.195246	-0.362008
C42	C	0.991235	-0.533506	-0.631780
C43	C	0.987954	-0.537636	-0.704799
C44	C	0.936167	-0.603098	-0.733853
C45	C	0.887653	-0.664427	-0.689884
C46	C	0.890932	-0.660291	-0.616867
C47	C	0.920981	-0.622260	-0.951431
C48	C	0.917707	-0.626394	-1.024453
C49	C	1.018007	-0.499601	-1.039363
C50	C	1.021284	-0.495475	-0.966344
C51	C	0.972768	-0.556800	-0.922382
N52	N	0.932813	-0.607323	-0.808489
N53	N	0.976120	-0.552569	-0.847747
C54	C	0.962573	-0.569750	-0.146097
C55	C	0.966216	-0.565067	-0.068416
H56	H	0.674759	-0.688472	-0.388750
O57	O	0.344682	-0.740837	-0.418298
C58	C	0.322235	-0.876891	-0.494850
C59	C	0.290283	-0.798719	-0.450811
H60	H	0.278269	-0.923725	-0.521137
H61	H	0.358654	-0.833713	-0.536910
H62	H	0.353443	-0.931160	-0.459061
H63	H	0.259042	-0.744431	-0.486544
H64	H	0.253903	-0.841965	-0.408745
H65	H	0.207750	-0.721464	-0.407350
O66	O	1.065220	-0.440141	-1.082031
C67	C	1.187270	-0.398497	-1.112977
C68	C	1.133877	-0.465927	-1.064621
H69	H	1.242792	-0.419305	-1.098909
H70	H	1.176094	-0.412701	-1.170166
H71	H	1.182451	-0.313503	-1.105623
H72	H	1.138666	-0.550943	-1.071913
H73	H	1.145069	-0.451634	-1.007451
H74	H	0.367173	-0.479992	-0.271371
H75	H	0.234713	-0.471805	-0.266777
O76	O	1.031638	-1.147760	-0.411732
C77	C	1.062877	-1.123264	-0.534806
C78	C	1.011136	-1.177087	-0.478571
H79	H	1.046329	-1.146971	-0.588856
H80	H	1.062546	-1.035861	-0.534536
H81	H	1.118098	-1.147169	-0.522646
H82	H	0.955890	-1.153266	-0.490692
H83	H	1.011528	-1.264480	-0.478854
O84	O	0.564568	-0.419558	-0.237299
C85	C	0.458672	-0.351578	-0.199088
C86	C	0.490696	-0.429713	-0.243104
H87	H	0.398943	-0.359747	-0.203778
H88	H	0.474012	-0.367300	-0.141566
H89	H	0.479363	-0.269782	-0.219375
H90	H	0.470022	-0.511539	-0.222878
H91	H	0.475361	-0.413902	-0.300618
O92	O	0.873907	-0.681980	-0.908760
C93	C	0.826450	-0.854591	-0.869609
C94	C	0.879813	-0.787083	-0.917954
H95	H	0.831196	-0.939578	-0.877036
H96	H	0.837666	-0.840487	-0.812411
H97	H	0.770941	-0.833669	-0.883625
H98	H	0.935342	-0.807965	-0.904001
H99	H	0.868535	-0.801196	-0.975139
O100	O	0.877276	-1.011633	-0.244003
C101	C	0.825927	-1.173599	-0.188305
C102	C	0.877678	-1.119709	-0.244507
H103	H	0.826224	-1.260986	-0.188704
H104	H	0.842484	-1.150079	-0.134210
H105	H	0.770717	-1.149615	-0.200427
H106	H	0.932904	-1.143665	-0.232452
H107	H	0.861061	-1.143230	-0.298585
O108	O	0.708528	-0.428322	-0.242215
C109	C	0.715564	-0.291330	-0.165118
C110	C	0.667262	-0.364538	-0.206377
H111	H	0.682221	-0.239726	-0.136144
H112	H	0.747477	-0.338734	-0.125433
H113	H	0.752764	-0.241281	-0.203278
H114	H	0.630021	-0.414602	-0.168270
H115	H	0.635399	-0.317072	-0.246070
O116	O	1.005022	-0.972450	-0.382659
C117	C	1.056302	-0.810484	-0.438422
C118	C	1.004526	-0.864374	-0.382241
H119	H	1.055907	-0.723096	-0.438113
H120	H	1.111547	-0.834324	-0.426305
H121	H	1.039742	-0.834148	-0.492480
H122	H	1.021021	-0.840737	-0.328162
H123	H	0.949293	-0.840533	-0.394419
O124	O	0.903958	-1.186722	-0.272919
C125	C	0.852608	-1.348687	-0.217220
C126	C	0.904359	-1.294797	-0.273423
H127	H	0.852905	-1.436075	-0.217619
H128	H	0.869165	-1.325167	-0.163126
H129	H	0.797399	-1.324704	-0.229343
H130	H	0.959585	-1.318753	-0.261367
H131	H	0.887742	-1.318318	-0.327500
H132	H	1.033408	-0.480203	-0.608130
O133	O	1.035151	-0.478033	-0.747401
C134	C	1.134960	-0.351799	-0.754486
C135	C	1.081561	-0.419266	-0.706158
H136	H	1.172487	-0.304253	-0.721162
H137	H	1.166128	-0.403457	-0.785709
H138	H	1.105760	-0.297686	-0.792379
H139	H	1.110706	-0.473388	-0.668224
H140	H	1.050395	-0.367546	-0.674985
H141	H	1.063456	-0.442172	-0.942694
O142	O	0.867483	-0.690094	-1.052706
C143	C	0.842891	-0.833809	-1.122427
C144	C	0.899837	-0.761765	-1.090454
H145	H	0.869028	-0.891759	-1.152966
H146	H	0.808777	-0.877007	-1.078494
H147	H	0.808703	-0.785937	-1.159534
H148	H	0.934074	-0.809559	-1.053355
H149	H	0.933901	-0.718562	-1.134424
O150	O	0.837256	-0.727900	-0.718079
C151	C	0.713203	-0.772062	-0.731748
C152	C	0.770204	-0.700087	-0.699794
H153	H	0.658978	-0.749616	-0.716964
H154	H	0.719130	-0.764482	-0.791493
H155	H	0.719307	-0.855431	-0.710399
H156	H	0.764135	-0.616689	-0.721087
H157	H	0.764259	-0.707756	-0.640050
H158	H	0.851424	-0.710219	-0.581073
O159	O	0.535371	-0.690600	-0.390125
C160	C	0.447539	-0.705015	-0.480359
C161	C	0.495868	-0.631844	-0.439100
H162	H	0.415577	-0.657540	-0.519954
H163	H	0.480838	-0.756557	-0.509437
H164	H	0.410385	-0.755129	-0.442189
H165	H	0.533031	-0.581664	-0.477222
H166	H	0.462526	-0.580371	-0.410012
