data_functionalizedCrystal
_audit_creation_method	'MofGen! by Chris Wilmer'
_symmetry_space_group_name_H-M	'P1'
_symmetry_Int_Tables_number	1
_symmetry_cell_setting	triclinic
loop_
_symmetry_equiv_pos_as_xyz
  x,y,z
_cell_length_a	10.540514
_cell_length_b	14.044220
_cell_length_c	13.101039
_cell_angle_alpha	86.332523
_cell_angle_beta	86.608242
_cell_angle_gamma	91.147981
loop_
_atom_site_label
_atom_site_type_symbol
_atom_site_fract_x
_atom_site_fract_y
_atom_site_fract_z
O1	O	1.705806	-0.128379	-0.085231
O2	O	1.337665	-0.140999	-0.085230
O3	O	1.516209	0.003332	-0.085220
O4	O	1.527262	-0.272710	-0.085241
O5	O	1.503401	-0.007041	0.085209
O6	O	1.324857	-0.151372	0.085199
O7	O	1.692998	-0.138752	0.085198
Zn8	Zn	1.506894	-0.146709	0.112258
Zn9	Zn	1.523769	-0.133042	-0.112290
O10	O	1.514454	-0.283083	0.085188
C11	C	1.283862	-0.145244	-0.000016
C12	C	1.142628	-0.142428	-0.000015
C13	C	1.082359	-0.245652	-0.000025
C14	C	0.935482	-0.242733	-0.000417
C15	C	0.951915	-0.080377	-0.097151
C16	C	1.098826	-0.084000	-0.097227
C17	C	1.084509	-0.094269	0.096589
C18	C	0.937334	-0.093350	0.097861
C19	C	1.504967	0.033492	-0.000005
C20	C	1.490537	0.138815	-0.000004
C21	C	1.746801	-0.134506	-0.000019
C22	C	1.888036	-0.137322	-0.000026
C23	C	1.525696	-0.313243	-0.000029
C24	C	1.540126	-0.418565	-0.000037
N25	N	1.495386	-0.156035	0.265506
C26	C	1.464157	0.331654	-0.000019
C27	C	1.566500	0.388601	-0.000022
C28	C	1.551822	0.495904	-0.000030
C29	C	1.478834	0.224342	-0.000011
N30	N	1.535286	-0.123708	-0.265538
C31	C	1.479730	-0.168733	0.474548
C32	C	1.550939	-0.111013	0.525427
C33	C	1.542227	-0.118078	0.641745
C34	C	1.488439	-0.161669	0.358219
H35	H	1.121985	-0.282680	-0.069577
C36	C	1.000051	0.071247	0.105215
C37	C	0.893567	0.009890	0.106179
H38	H	0.973027	0.134985	0.110349
H39	H	1.050154	0.066883	0.043079
H40	H	1.049177	0.053494	0.161577
H41	H	0.844446	0.027640	0.049812
H42	H	0.843443	0.014259	0.168323
C43	C	1.239200	0.301156	-0.000014
C44	C	1.330998	0.374618	-0.000020
H45	H	1.156996	0.327691	-0.000020
H46	H	1.244700	0.259375	0.059417
H47	H	1.253637	0.266591	-0.059448
H48	H	1.316567	0.409178	0.059419
H49	H	1.325494	0.416415	-0.059457
C50	C	1.632747	-0.044050	0.360853
C51	C	1.641776	-0.036934	0.466309
H52	H	1.688742	0.001739	0.324356
H53	H	1.547973	-0.032421	0.343471
H54	H	1.655425	-0.106294	0.343213
H55	H	1.619089	0.025308	0.483951
H56	H	1.726569	-0.048556	0.483699
C57	C	1.397526	-0.235401	0.639120
C58	C	1.388615	-0.242612	0.533665
H59	H	1.341284	-0.281017	0.675623
H60	H	1.375116	-0.173078	0.656640
H61	H	1.482220	-0.247235	0.656615
H62	H	1.303922	-0.230771	0.516169
H63	H	1.411017	-0.304949	0.516138
C64	C	1.772347	0.381172	-0.087617
C65	C	1.699667	0.345637	-0.000009
H66	H	1.854552	0.354639	-0.087606
H67	H	1.779819	0.448683	-0.087616
H68	H	1.731968	0.364280	-0.147045
H69	H	1.740042	0.362535	0.059420
H70	H	1.692200	0.278112	-0.000000
C71	C	1.118527	0.067773	-0.192814
C72	C	1.153725	0.018695	-0.102826
H73	H	1.152426	0.131168	-0.196279
H74	H	1.028472	0.069287	-0.192716
H75	H	1.150834	0.036154	-0.250478
H76	H	1.121410	0.050310	-0.045162
H77	H	1.243799	0.017186	-0.102916
C78	C	0.973127	-0.341495	0.150700
C79	C	0.876294	-0.302644	0.093544
H80	H	0.936588	-0.378491	0.208703
H81	H	1.024581	-0.291407	0.172801
H82	H	1.023870	-0.380948	0.109361
H83	H	0.825556	-0.263185	0.134882
H84	H	0.824818	-0.352738	0.071445
H85	H	1.109898	-0.291765	0.069614
H86	H	1.136297	-0.116837	-0.170113
C87	C	0.997822	-0.322528	-0.151495
C88	C	0.891696	-0.290918	-0.094974
H89	H	0.970789	-0.352267	-0.209879
H90	H	1.041934	-0.367107	-0.109968
H91	H	1.052708	-0.269641	-0.172984
H92	H	0.836814	-0.343807	-0.073479
H93	H	0.847564	-0.246336	-0.136509
C94	C	0.850081	0.045296	-0.192010
C95	C	0.911555	0.024434	-0.101664
H96	H	0.825169	0.110004	-0.194796
H97	H	0.776997	0.004777	-0.193064
H98	H	0.906399	0.035271	-0.249443
H99	H	0.855234	0.034453	-0.044231
H100	H	0.984649	0.064967	-0.100600
H101	H	0.918297	-0.110943	-0.169713
H102	H	1.113942	-0.133112	0.170230
H103	H	0.894709	-0.135019	0.169715
H104	H	1.123996	-0.018187	0.097532
