data_functionalizedCrystal
_audit_creation_method	'MofGen! by Chris Wilmer'
_symmetry_space_group_name_H-M	'P1'
_symmetry_Int_Tables_number	1
_symmetry_cell_setting	triclinic
loop_
_symmetry_equiv_pos_as_xyz
  x,y,z
_cell_length_a	10.654549
_cell_length_b	9.130307
_cell_length_c	10.654550
_cell_angle_alpha	89.994882
_cell_angle_beta	95.515146
_cell_angle_gamma	90.002958
loop_
_atom_site_label
_atom_site_type_symbol
_atom_site_fract_x
_atom_site_fract_y
_atom_site_fract_z
O1	O	1.667840	0.121765	-0.176398
O2	O	1.302362	0.121776	-0.193204
O3	O	1.493504	0.121761	-0.002062
O4	O	1.476698	0.121780	-0.367540
O5	O	1.493490	-0.121838	-0.002054
O6	O	1.302347	-0.121823	-0.193196
O7	O	1.667826	-0.121834	-0.176390
Cu8	Cu	1.485085	-0.144071	-0.184792
Cu9	Cu	1.485102	0.144013	-0.184802
O10	O	1.476684	-0.121819	-0.367532
C11	C	1.255557	-0.000023	-0.191966
C12	C	1.116113	-0.000019	-0.188275
N13	N	1.485082	-0.346694	-0.184785
C14	C	0.905599	-0.000019	-0.297338
C15	C	1.036619	-0.000010	-0.300816
C16	C	1.064581	-0.000022	-0.072247
C17	C	0.933563	-0.000020	-0.068770
C18	C	1.331438	-0.346757	-0.031009
C19	C	1.254629	-0.423456	0.045882
C20	C	1.254647	-0.576789	0.045882
C21	C	1.331479	-0.653428	-0.031019
C22	C	1.408288	-0.576729	-0.107910
C23	C	1.408265	-0.423392	-0.107899
C24	C	1.561924	-0.576666	-0.261690
C25	C	1.561915	-0.423332	-0.261686
C26	C	1.638757	-0.653304	-0.338591
C27	C	1.715574	-0.576606	-0.415477
C28	C	1.715554	-0.423263	-0.415473
C29	C	1.638724	-0.346634	-0.338576
C30	C	1.714631	-0.000032	-0.177628
C31	C	1.854074	-0.000026	-0.181319
C32	C	1.492263	-0.000038	0.044740
C33	C	1.488571	-0.000035	0.184183
N34	N	1.485115	0.346636	-0.184800
C35	C	1.477925	-0.000017	-0.414334
C36	C	1.481617	-0.000010	-0.553777
C37	C	1.601113	-0.000038	0.263669
C38	C	1.597636	-0.000020	0.394690
C39	C	1.369067	-0.000003	0.366727
C40	C	1.372544	-0.000010	0.235708
H41	H	1.078563	-0.000003	-0.395290
H42	H	1.689279	-0.000019	0.459403
O43	O	1.150312	-0.000045	0.049143
H44	H	1.250075	-0.000066	0.027237
H45	H	1.192071	-0.361040	0.108491
H46	H	1.192096	-0.639237	0.108487
H47	H	1.638760	-0.778156	-0.338592
H48	H	1.778118	-0.639017	-0.478090
H49	H	0.891613	-0.000021	0.025712
H50	H	1.331424	-0.221905	-0.030992
H51	H	1.331476	-0.778280	-0.031023
O52	O	1.251147	-0.000018	0.149974
H53	H	1.247267	0.099273	0.089610
O54	O	0.819859	-0.000008	-0.418723
H55	H	0.877705	0.000013	-0.499982
H56	H	1.778095	-0.360824	-0.478094
O57	O	1.638699	-0.181253	-0.338581
H58	H	1.572361	-0.140853	-0.272201
O59	O	1.726248	-0.000035	0.208089
H60	H	1.803920	-0.000015	0.285377
O61	O	1.243926	-0.000007	0.422298
H62	H	1.260412	-0.000024	0.526757
