data_functionalizedCrystal
_audit_creation_method	'MofGen! by Chris Wilmer'
_symmetry_space_group_name_H-M	'P1'
_symmetry_Int_Tables_number	1
_symmetry_cell_setting	triclinic
loop_
_symmetry_equiv_pos_as_xyz
  x,y,z
_cell_length_a	12.827892
_cell_length_b	10.686154
_cell_length_c	10.686551
_cell_angle_alpha	90.306020
_cell_angle_beta	94.405078
_cell_angle_gamma	85.605784
loop_
_atom_site_label
_atom_site_type_symbol
_atom_site_fract_x
_atom_site_fract_y
_atom_site_fract_z
Zn1	Zn	-0.254846	-1.972290	0.562453
Zn2	Zn	-0.443990	-1.956060	0.352697
Zn3	Zn	-0.281570	-1.746408	0.368764
Zn4	Zn	-0.441865	-1.762489	0.578468
O5	O	-0.355567	-1.859312	0.465595
O6	O	-0.269642	-2.145680	0.521202
O7	O	-0.434518	-1.914726	0.179282
O8	O	-0.131783	-1.776435	0.394479
O9	O	-0.408605	-2.133755	0.367095
O10	O	-0.112149	-1.942389	0.536782
O11	O	-0.315188	-1.760696	0.191087
O12	O	-0.313128	-1.572999	0.410008
O13	O	-0.404983	-1.803843	0.751889
O14	O	-0.430896	-1.584814	0.564077
O15	O	-0.267581	-1.957983	0.740124
O16	O	-0.589949	-1.930319	0.382624
O17	O	-0.588388	-1.788104	0.548497
C18	C	-0.374682	-1.533390	0.490524
C19	C	-0.382882	-1.393962	0.501219
C20	C	-0.627084	-1.859232	0.465579
C21	C	-0.743230	-1.859315	0.465606
C22	C	-0.795741	-1.929785	0.383604
C23	C	-0.915784	-1.929873	0.383629
C24	C	-0.082987	-1.859429	0.465636
C25	C	0.033170	-1.859478	0.465654
C26	C	-0.333064	-1.884517	0.792796
C27	C	-0.323474	-1.895258	0.932230
C28	C	-0.336370	-1.186506	0.440562
C29	C	-0.328164	-1.325935	0.429873
C30	C	-0.377904	-1.834277	0.139662
C31	C	-0.387185	-1.823779	0.000211
H32	H	-0.275045	-1.374360	0.360608
Cl33	Cl	-0.727949	-2.022845	0.275186
H34	H	-0.261592	-1.964680	0.980705
H35	H	-0.436012	-1.345529	0.570480
H36	H	-0.960941	-1.990201	0.313421
H37	H	-0.921682	-1.799138	0.535858
Cl38	Cl	-0.811020	-1.766271	0.574037
H39	H	-0.449070	-1.754370	0.951741
