data_functionalizedCrystal
_audit_creation_method	'MofGen! by Chris Wilmer'
_symmetry_space_group_name_H-M	'P1'
_symmetry_Int_Tables_number	1
_symmetry_cell_setting	triclinic
loop_
_symmetry_equiv_pos_as_xyz
  x,y,z
_cell_length_a	15.625110
_cell_length_b	11.026607
_cell_length_c	10.066291
_cell_angle_alpha	100.716198
_cell_angle_beta	116.561425
_cell_angle_gamma	84.190764
loop_
_atom_site_label
_atom_site_type_symbol
_atom_site_fract_x
_atom_site_fract_y
_atom_site_fract_z
O1	O	1.268768	-0.077901	0.514502
O2	O	0.997115	-0.117838	0.380043
O3	O	1.110428	0.077075	0.436134
O4	O	1.155455	-0.272814	0.458411
O5	O	1.132052	0.114315	0.673812
O6	O	1.018740	-0.080599	0.617721
O7	O	1.290392	-0.040661	0.752180
Zn8	Zn	1.158000	-0.054717	0.722687
Zn9	Zn	1.129508	-0.103782	0.409536
O10	O	1.177080	-0.235575	0.696089
C11	C	0.972610	-0.101101	0.481401
C12	C	0.867371	-0.106696	0.429311
C13	C	0.707254	-0.134881	0.226345
C14	C	0.806143	-0.129621	0.275306
C15	C	0.829727	-0.089029	0.534417
C16	C	0.730838	-0.094291	0.485478
C17	C	0.669609	-0.117217	0.331440
C18	C	0.693193	-0.076627	0.590574
C19	C	0.594313	-0.081883	0.541637
C20	C	0.533077	-0.104803	0.387606
C21	C	0.570728	-0.122473	0.282504
C22	C	0.754424	-0.053693	0.744611
C23	C	0.716778	-0.036029	0.849706
C24	C	0.617897	-0.041293	0.800771
C25	C	0.556661	-0.064214	0.646739
C26	C	0.580246	-0.023624	0.905873
C27	C	0.481365	-0.028880	0.856937
C28	C	0.457781	-0.069470	0.597803
C29	C	1.314898	-0.057399	0.650819
C30	C	1.420136	-0.051805	0.702899
C31	C	1.112933	0.140275	0.550859
C32	C	1.088169	0.273108	0.538597
C33	C	1.174575	-0.298775	0.581360
C34	C	1.199338	-0.431610	0.593613
N35	N	1.177451	-0.021231	0.936408
C36	C	1.156545	0.352104	0.572439
C37	C	1.130952	0.489395	0.559766
C38	C	1.151247	-0.066362	1.148397
C39	C	1.136255	-0.092148	0.983819
N40	N	1.110057	-0.137268	1.195815
H41	H	0.520872	-0.141155	0.157071
H42	H	0.836788	-0.144015	0.189712
O43	O	1.259186	0.307064	0.623244
H44	H	1.286012	0.325745	0.544002
O45	O	1.028304	0.534420	0.508968
H46	H	1.024311	0.635189	0.507001
H47	H	1.276819	0.534372	0.631861
H48	H	1.197616	0.013432	1.229642
H49	H	1.010682	0.307116	0.500235
H50	H	1.223823	0.058567	1.017651
H51	H	1.089891	-0.171954	0.902580
O52	O	0.391735	-0.094209	0.431658
H53	H	0.316655	-0.094903	0.415294
H54	H	1.063697	-0.217069	1.114573
H55	H	0.450716	-0.014518	0.942517
O56	O	0.646290	0.001096	1.072009
H57	H	0.686272	0.086691	1.097720
O58	O	0.426420	-0.110463	0.334769
H59	H	0.411043	-0.185324	0.380539
O60	O	0.641203	-0.159621	0.060202
H61	H	0.589950	-0.080760	0.028928
O62	O	0.895768	-0.064315	0.700555
H63	H	0.970852	-0.063637	0.716931
H64	H	0.834938	-0.049416	0.784450
H65	H	0.766644	-0.017358	0.975125
