data_functionalizedCrystal
_audit_creation_method	'MofGen! by Chris Wilmer'
_symmetry_space_group_name_H-M	'P1'
_symmetry_Int_Tables_number	1
_symmetry_cell_setting	triclinic
loop_
_symmetry_equiv_pos_as_xyz
  x,y,z
_cell_length_a	25.993458
_cell_length_b	25.993459
_cell_length_c	25.993511
_cell_angle_alpha	59.998162
_cell_angle_beta	89.999156
_cell_angle_gamma	60.000225
loop_
_atom_site_label
_atom_site_type_symbol
_atom_site_fract_x
_atom_site_fract_y
_atom_site_fract_z
O1	O	-0.438486	-0.368218	0.015293
O2	O	-0.363675	-0.262871	-0.015241
O3	O	-0.363672	-0.368217	0.090105
O4	O	-0.438489	-0.262872	-0.090053
O5	O	-0.278107	-0.453782	0.090105
O6	O	-0.278110	-0.348435	-0.015242
O7	O	-0.352922	-0.453782	0.015293
Zn8	Zn	-0.301931	-0.414694	0.000025
Zn9	Zn	-0.414666	-0.301959	0.000026
O10	O	-0.352925	-0.348436	-0.090054
C11	C	-0.277316	-0.161982	-0.022175
C12	C	-0.309062	-0.098492	-0.017804
C13	C	-0.215401	-0.192794	-0.022608
C14	C	-0.277319	-0.255138	-0.022182
C15	C	-0.309067	-0.291250	-0.017818
C16	C	-0.215403	-0.285808	-0.022615
C17	C	-0.184156	-0.255142	-0.022175
C18	C	-0.116294	-0.291259	-0.017803
C19	C	-0.308422	-0.192790	-0.022615
C20	C	-0.621955	-0.565869	0.037072
C21	C	-0.590709	-0.628219	0.037508
C22	C	-0.528796	-0.565867	0.037069
C23	C	-0.497692	-0.628217	0.037505
C24	C	-0.528795	-0.659029	0.037072
C25	C	-0.590710	-0.535199	0.037505
C26	C	-0.722642	-0.464940	0.029513
C27	C	-0.786264	-0.430643	0.024742
C28	C	-0.818173	-0.460083	0.022351
C29	C	-0.887157	-0.422897	0.017175
C30	C	-0.786465	-0.523827	0.024735
C31	C	-0.722845	-0.558124	0.029508
C32	C	-0.690936	-0.528678	0.031894
C33	C	-0.529037	-0.752158	0.029515
C34	C	-0.499712	-0.811010	0.024744
C35	C	-0.438364	-0.840525	0.022349
C36	C	-0.406566	-0.904333	0.017173
C37	C	-0.406330	-0.811198	0.024730
C38	C	-0.435652	-0.752352	0.029503
C39	C	-0.497006	-0.722832	0.031893
C40	C	-0.529039	-0.464935	0.029505
C41	C	-0.499717	-0.430630	0.024723
C42	C	-0.438369	-0.460069	0.022328
C43	C	-0.406571	-0.422880	0.017149
C44	C	-0.406337	-0.523807	0.024709
C45	C	-0.435656	-0.558111	0.029489
C46	C	-0.497007	-0.528673	0.031887
C47	C	-0.528800	-0.150795	-0.471170
C48	C	-0.590715	-0.088445	-0.502276
C49	C	-0.528801	-0.150794	-0.378010
C50	C	-0.590716	-0.088444	-0.409257
C51	C	-0.621962	-0.057634	-0.471172
C52	C	-0.497696	-0.181464	-0.409255
C53	C	-0.435430	-0.251726	-0.470926
C54	C	-0.405903	-0.286024	-0.500250
C55	C	-0.437736	-0.256585	-0.561599
C56	C	-0.405725	-0.293773	-0.593395
C57	C	-0.499096	-0.192842	-0.593635
C58	C	-0.528620	-0.158544	-0.564313
C59	C	-0.496787	-0.187988	-0.502959
C60	C	-0.722649	0.035493	-0.564543
C61	C	-0.786272	0.094345	-0.594071
C62	C	-0.818182	0.123861	-0.562238
C63	C	-0.887167	0.187669	-0.594249
C64	C	-0.786474	0.094536	-0.500878
C65	C	-0.722854	0.035690	-0.471354
C66	C	-0.690944	0.006168	-0.503186
C67	C	-0.435431	-0.251724	-0.277321
C68	C	-0.405908	-0.286027	-0.213695
C69	C	-0.437741	-0.256588	-0.181786
C70	C	-0.405731	-0.293774	-0.112801
C71	C	-0.499099	-0.192850	-0.213493
C72	C	-0.528625	-0.158547	-0.277116
C73	C	-0.496788	-0.187987	-0.309028
O74	O	0.090091	-0.453793	0.015309
O75	O	-0.090066	-0.348444	-0.015226
O76	O	0.015273	-0.453795	0.090120
O77	O	-0.015248	-0.348442	-0.090038
O78	O	0.015276	-0.368235	0.090127
O79	O	-0.090063	-0.262884	-0.015220
O80	O	0.090094	-0.368232	0.015315
Zn81	Zn	0.000016	-0.301973	0.000049
Zn82	Zn	0.000012	-0.414703	0.000040
O83	O	-0.015245	-0.262881	-0.090031
O84	O	-0.352917	0.074778	0.015314
O85	O	-0.278103	-0.074844	-0.015220
O86	O	-0.278107	-0.074853	0.090126
O87	O	-0.352914	0.074787	-0.090033
O88	O	-0.363674	-0.074850	0.090119
O89	O	-0.363670	-0.074840	-0.015227
O90	O	-0.438484	0.074782	0.015307
Zn91	Zn	-0.414663	-0.000029	0.000039
Zn92	Zn	-0.301925	-0.000034	0.000048
O93	O	-0.438481	0.074791	-0.090039
O94	O	-1.090075	0.358185	-0.636308
O95	O	-0.909918	0.208556	-0.561490
O96	O	-1.015259	0.208553	-0.561488
O97	O	-0.984734	0.358188	-0.636310
O98	O	-1.015257	0.208552	-0.647052
O99	O	-0.909916	0.208554	-0.647054
O100	O	-1.090073	0.358183	-0.721872
Zn101	Zn	-0.999994	0.283368	-0.698048
Zn102	Zn	-0.999997	0.283371	-0.585314
O103	O	-0.984732	0.358186	-0.721874
O104	O	-0.363672	-0.368217	-0.721856
O105	O	-0.438486	-0.262875	-0.647043
O106	O	-0.438485	-0.368220	-0.647039
O107	O	-0.363673	-0.262872	-0.721860
O108	O	-0.352919	-0.453785	-0.561473
O109	O	-0.352920	-0.348441	-0.561477
O110	O	-0.278106	-0.453783	-0.636290
Zn111	Zn	-0.301928	-0.414697	-0.585298
Zn112	Zn	-0.414664	-0.301961	-0.698035
O113	O	-0.278107	-0.348438	-0.636294
C114	C	-0.184157	-0.554680	0.277358
C115	C	-0.116295	-0.618172	0.309104
C116	C	-0.215402	-0.523869	0.308461
C117	C	-0.277317	-0.461519	0.184196
C118	C	-0.309064	-0.425404	0.116335
C119	C	-0.308422	-0.430850	0.215442
C120	C	-0.277317	-0.461519	0.277356
C121	C	-0.309064	-0.425404	0.309102
C122	C	-0.215403	-0.523869	0.215443
C123	C	0.022216	-0.461546	0.277378
C124	C	0.017847	-0.425434	0.309127
C125	C	0.022649	-0.523895	0.308480
C126	C	0.022218	-0.461539	0.184215
C127	C	0.017852	-0.425421	0.116353
C128	C	0.022651	-0.523888	0.215458
C129	C	0.022213	-0.554702	0.277373
C130	C	0.017842	-0.618193	0.309116
C131	C	0.022654	-0.430874	0.215464
C132	C	-0.277320	-0.255179	0.277365
C133	C	-0.309067	-0.291295	0.309105
C134	C	-0.215404	-0.285854	0.308471
C135	C	-0.277318	-0.162008	0.184211
C136	C	-0.309065	-0.098506	0.116351
C137	C	-0.215403	-0.192825	0.215459
C138	C	-0.184157	-0.255183	0.277372
C139	C	-0.116295	-0.291304	0.309120
C140	C	-0.308424	-0.192820	0.215452
C141	C	-0.036996	-0.057627	-0.471149
C142	C	-0.037431	-0.088434	-0.502256
C143	C	-0.037001	-0.150789	-0.377991
C144	C	-0.037436	-0.181455	-0.409239
C145	C	-0.036998	-0.150783	-0.471154
C146	C	-0.037433	-0.088440	-0.409234
C147	C	-0.029433	0.035497	-0.470902
C148	C	-0.024659	0.094348	-0.500225
C149	C	-0.022263	0.123866	-0.561574
C150	C	-0.017083	0.187673	-0.593369
C151	C	-0.024646	0.094544	-0.593611
C152	C	-0.029422	0.035698	-0.564291
C153	C	-0.031813	0.006175	-0.502936
C154	C	-0.029436	-0.158096	-0.564526
C155	C	-0.024665	-0.192189	-0.594055
C156	C	-0.022273	-0.255931	-0.562224
C157	C	-0.017096	-0.292903	-0.594236
C158	C	-0.024659	-0.285585	-0.500864
C159	C	-0.029433	-0.251492	-0.471338
C160	C	-0.031819	-0.187750	-0.503169
C161	C	-0.029443	-0.158113	-0.277301
C162	C	-0.024666	-0.192218	-0.213674
C163	C	-0.022275	-0.255960	-0.181767
C164	C	-0.017101	-0.292938	-0.112782
C165	C	-0.024655	-0.285608	-0.213475
C166	C	-0.029430	-0.251509	-0.277098
C167	C	-0.031824	-0.187761	-0.309009
O168	O	-0.015283	-0.348468	0.438547
O169	O	0.015263	-0.453813	0.363734
O170	O	-0.090086	-0.348466	0.363721
O171	O	0.090067	-0.453815	0.438560
O172	O	-0.090076	-0.262903	0.278160
O173	O	0.015274	-0.368250	0.278173
O174	O	-0.015273	-0.262904	0.352986
Zn175	Zn	0.000002	-0.301992	0.301995
Zn176	Zn	-0.000011	-0.414726	0.414725
O177	O	0.090077	-0.368251	0.352999
C178	C	-0.621954	0.434195	-0.471145
C179	C	-0.590708	0.464866	-0.502245
C180	C	-0.528793	0.341020	-0.377984
C181	C	-0.497688	0.371833	-0.409225
C182	C	-0.528792	0.434191	-0.471138
C183	C	-0.590709	0.371836	-0.409233
C184	C	-0.722643	0.441515	-0.470910
C185	C	-0.786267	0.475617	-0.500237
C186	C	-0.818176	0.539368	-0.561584
C187	C	-0.887162	0.576348	-0.593384
C188	C	-0.786467	0.569022	-0.593614
C189	C	-0.722846	0.534920	-0.564289
C190	C	-0.690937	0.471170	-0.502938
C191	C	-0.529033	0.535130	-0.564499
C192	C	-0.499707	0.569430	-0.594020
C193	C	-0.438357	0.539984	-0.562184
C194	C	-0.406558	0.577173	-0.594188
C195	C	-0.406323	0.476234	-0.500827
C196	C	-0.435646	0.441934	-0.471308
C197	C	-0.497001	0.471385	-0.503145
C198	C	-0.529036	0.247880	-0.277303
C199	C	-0.499713	0.189024	-0.213679
C200	C	-0.438364	0.159502	-0.181766
C201	C	-0.406566	0.095685	-0.112783
C202	C	-0.406331	0.188830	-0.213467
C203	C	-0.435651	0.247685	-0.277089
C204	C	-0.497003	0.277207	-0.309004
H205	H	-0.446821	-0.653998	0.038201
O206	O	-0.530749	0.160468	-0.182786
C207	C	-0.526954	0.069867	-0.084880
C208	C	-0.491739	0.102147	-0.119791
H209	H	-0.495424	0.022699	-0.033946
H210	H	-0.571813	0.113603	-0.085806
H211	H	-0.539683	0.049371	-0.109063
H212	H	-0.478966	0.122638	-0.095634
H213	H	-0.446907	0.058387	-0.118870
H214	H	-0.190323	-0.336028	0.359344
O215	O	-0.369073	-0.370917	0.185514
C216	C	-0.441280	-0.245665	0.148543
C217	C	-0.372571	-0.313480	0.182424
H218	H	-0.444133	-0.199214	0.146045
H219	H	-0.458277	-0.228852	0.098803
H220	H	-0.472308	-0.258745	0.175740
H221	H	-0.341495	-0.300455	0.155279
H222	H	-0.355625	-0.330275	0.232167
O223	O	0.023397	-0.554676	0.369142
C224	C	-0.029678	-0.589831	0.441348
C225	C	-0.030596	-0.554971	0.372631
H226	H	-0.073333	-0.590067	0.444190
H227	H	0.014379	-0.648089	0.472409
H228	H	-0.029419	-0.557093	0.458314
H229	H	-0.030878	-0.587650	0.355607
H230	H	-0.074649	-0.496706	0.341612
H231	H	0.023354	-0.380702	0.190382
O232	O	-0.346765	0.160155	-0.182379
C233	C	-0.279366	0.133433	-0.096102
C234	C	-0.346851	0.165918	-0.131242
H235	H	-0.279416	0.138095	-0.054759
H236	H	-0.247213	0.073709	-0.077856
H237	H	-0.261514	0.164494	-0.129710
H238	H	-0.364761	0.134914	-0.097673
H239	H	-0.378962	0.225647	-0.149498
H240	H	-0.190318	-0.167005	-0.023309
H241	H	-0.812458	0.620936	-0.643570
O242	O	-0.185540	-0.554695	0.369192
C243	C	-0.185379	-0.610399	0.476264
C244	C	-0.219251	-0.575511	0.407516
H245	H	-0.212628	-0.627225	0.507267
H246	H	-0.135676	-0.660379	0.493265
H247	H	-0.182779	-0.569369	0.479147
H248	H	-0.221898	-0.616486	0.404580
H249	H	-0.268936	-0.525518	0.390545
H250	H	-0.190317	-0.167038	0.190373
H251	H	-0.190308	-0.549645	0.190353
H252	H	-0.697029	0.559063	-0.590371
H253	H	0.023361	-0.549675	0.190371
H254	H	-0.359295	-0.167034	0.190366
O255	O	-0.038399	-0.241222	-0.379340
C256	C	-0.093932	-0.292765	-0.327968
C257	C	-0.092919	-0.225030	-0.361820
H258	H	-0.138000	-0.279702	-0.313781
H259	H	-0.094219	-0.309473	-0.360957
H260	H	-0.050297	-0.339287	-0.284060
H261	H	-0.136546	-0.178463	-0.405726
H262	H	-0.092600	-0.208384	-0.328787
H263	H	-0.409562	0.390028	-0.421351
H264	H	-0.038131	-0.062642	-0.553128
H265	H	-0.697030	-0.610024	0.031449
H266	H	-0.409566	0.271563	-0.302898
H267	H	-0.038084	-0.062687	-0.384132
H268	H	-0.578991	0.271911	-0.303287
O269	O	-0.369149	-0.161928	-0.023570
C270	C	-0.476222	-0.055018	-0.079082
C271	C	-0.407479	-0.089882	-0.078083
H272	H	-0.507229	0.003241	-0.123145
H273	H	-0.493224	-0.087715	-0.079369
H274	H	-0.479093	-0.054759	-0.035440
H275	H	-0.404555	-0.090147	-0.121718
H276	H	-0.390506	-0.057174	-0.077764
H277	H	-0.022734	-0.168068	-0.187865
H278	H	-0.031396	-0.106204	-0.303280
O279	O	-0.031786	0.006932	-0.411314
C280	C	-0.031264	0.012924	-0.321771
C281	C	-0.028614	0.045358	-0.389259
H282	H	-0.028687	0.043967	-0.303914
H283	H	-0.077249	0.017543	-0.321762
H284	H	0.010232	-0.046792	-0.289655
H285	H	-0.070078	0.105083	-0.421414
H286	H	0.017397	0.040682	-0.389218
H287	H	-0.525801	-0.834882	0.022808
H288	H	-0.022720	0.118216	-0.474136
H289	H	-0.022694	0.118587	-0.643568
H290	H	-0.031353	0.011819	-0.590373
O291	O	-0.816979	0.446736	-0.469025
C292	C	-0.810057	0.350473	-0.373324
C293	C	-0.775201	0.383113	-0.408592
H294	H	-0.776291	0.299021	-0.324462
H295	H	-0.851412	0.391729	-0.368596
H296	H	-0.828266	0.336482	-0.400830
H297	H	-0.756951	0.397103	-0.381116
H298	H	-0.733876	0.341839	-0.413327
H299	H	-0.356374	-0.835235	0.022774
O300	O	-0.031783	-0.096158	-0.595550
C301	C	-0.031253	-0.007141	-0.691085
C302	C	-0.028610	-0.077274	-0.656031
H303	H	-0.028675	0.008140	-0.739985
H304	H	-0.077236	0.038857	-0.695715
H305	H	0.010245	-0.016527	-0.663482
H306	H	-0.070075	-0.067959	-0.683604
H307	H	0.017400	-0.123248	-0.651394
O308	O	-0.620726	-0.475285	0.038251
C309	C	-0.708922	-0.349985	-0.014839
C310	C	-0.675005	-0.417787	-0.015751
H311	H	-0.752805	-0.303476	-0.058501
H312	H	-0.723130	-0.362967	0.029214
H313	H	-0.675906	-0.333303	-0.014573
H314	H	-0.707985	-0.434504	-0.016040
H315	H	-0.660785	-0.404768	-0.059799
O316	O	-0.022256	-0.163508	-0.653622
C317	C	0.037300	-0.182046	-0.721120
C318	C	0.034647	-0.214616	-0.653634
H319	H	0.083308	-0.223346	-0.721150
H320	H	-0.004175	-0.168036	-0.753370
H321	H	0.034746	-0.130616	-0.738798
H322	H	0.037219	-0.266065	-0.635898
H323	H	0.076117	-0.228574	-0.621426
H324	H	-0.409504	-0.275702	-0.420969
O325	O	-0.022299	-0.347532	-0.470021
C326	C	-0.014975	-0.441429	-0.474213
C327	C	-0.017625	-0.371291	-0.509212
H328	H	-0.011209	-0.460651	-0.505889
H329	H	0.027842	-0.485458	-0.429360
H330	H	-0.059647	-0.430072	-0.461492
H331	H	0.027016	-0.382579	-0.521976
H332	H	-0.060471	-0.327285	-0.554038
H333	H	-0.031379	-0.275635	-0.421380
O334	O	-0.031648	-0.280428	-0.307814
C335	C	0.021082	-0.384049	-0.312787
C336	C	0.023663	-0.351390	-0.277934
H337	H	0.065801	-0.441421	-0.288652
H338	H	-0.021686	-0.386178	-0.311806
H339	H	0.017235	-0.348696	-0.363742
H340	H	0.027533	-0.386715	-0.226966
H341	H	0.066424	-0.349248	-0.278967
H342	H	-0.022704	-0.337517	-0.187490
H343	H	-0.409570	-0.728473	0.031438
H344	H	-0.446816	0.346041	-0.384134
H345	H	-0.615794	0.515041	-0.553117
H346	H	-0.615803	0.346061	-0.384148
O347	O	-0.404442	-0.620040	0.031826
C348	C	-0.308737	-0.708820	0.031275
C349	C	-0.344010	-0.638691	0.028638
H350	H	-0.259876	-0.723913	0.028686
H351	H	-0.304007	-0.754903	0.077263
H352	H	-0.336238	-0.699531	-0.010219
H353	H	-0.316539	-0.647909	0.070100
H354	H	-0.348746	-0.592632	-0.017376
O355	O	-0.588623	0.563814	-0.595527
C356	C	-0.678167	0.659895	-0.691062
C357	C	-0.610675	0.627474	-0.656004
H358	H	-0.696021	0.711378	-0.739959
H359	H	-0.678185	0.618548	-0.695701
H360	H	-0.710278	0.673785	-0.663457
H361	H	-0.578525	0.613586	-0.683579
H362	H	-0.610708	0.668840	-0.651359
O363	O	-0.588218	-0.096619	-0.307832
C364	C	-0.677550	-0.007840	-0.300908
C365	C	-0.610057	-0.077967	-0.266052
H366	H	-0.695233	0.007254	-0.267140
H367	H	-0.677648	0.038244	-0.342263
H368	H	-0.709755	-0.017132	-0.319117
H369	H	-0.577814	-0.068746	-0.247801
H370	H	-0.610009	-0.124027	-0.224727
O371	O	-0.530791	0.631411	-0.653585
C372	C	-0.571800	0.758466	-0.721070
C373	C	-0.536584	0.688319	-0.653587
H374	H	-0.576506	0.804498	-0.721092
H375	H	-0.544334	0.749245	-0.753320
H376	H	-0.620677	0.773595	-0.738754
H377	H	-0.487707	0.673152	-0.635846
H378	H	-0.564098	0.697578	-0.621379
H379	H	-0.696664	0.389604	-0.420956
O380	O	-0.346766	0.447729	-0.469884
C381	C	-0.279357	0.466620	-0.429242
C382	C	-0.346835	0.498987	-0.464281
H383	H	-0.279389	0.508052	-0.424713
H384	H	-0.261484	0.415187	-0.380299
H385	H	-0.247230	0.452672	-0.456816
H386	H	-0.379010	0.512980	-0.436759
H387	H	-0.364656	0.550393	-0.513227
O388	O	-0.185509	-0.345718	-0.023367
C389	C	-0.148412	-0.471015	0.029709
C390	C	-0.182292	-0.403219	0.030630
H391	H	-0.145789	-0.517526	0.073367
H392	H	-0.175605	-0.458024	-0.014347
H393	H	-0.098716	-0.487697	0.029442
H394	H	-0.231989	-0.386501	0.030920
H395	H	-0.155052	-0.416246	0.074682
H396	H	-0.615797	-0.654004	0.038210
O397	O	-0.530909	-0.368744	0.022451
C398	C	-0.626635	-0.279930	0.022946
C399	C	-0.591376	-0.350033	0.025543
H400	H	-0.675534	-0.264772	0.025432
H401	H	-0.599199	-0.289188	0.064461
H402	H	-0.631287	-0.233900	-0.023026
H403	H	-0.586716	-0.396097	0.071488
H404	H	-0.618828	-0.340715	-0.016003
H405	H	-0.578992	-0.440963	0.031461
H406	H	-0.696663	-0.440962	0.031460
O407	O	-0.816976	-0.368714	0.022403
C408	C	-0.810053	-0.279928	0.022944
C409	C	-0.775198	-0.350056	0.025580
H410	H	-0.776288	-0.264830	0.025525
H411	H	-0.851411	-0.233847	-0.023039
H412	H	-0.828259	-0.289221	0.064444
H413	H	-0.756952	-0.340834	-0.015887
H414	H	-0.733871	-0.396113	0.071590
H415	H	-0.356381	-0.547775	0.022754
O416	O	-0.620646	-0.057554	-0.563005
C417	C	-0.672069	0.049403	-0.670057
C418	C	-0.638161	0.014485	-0.601311
H419	H	-0.686251	0.107657	-0.701045
H420	H	-0.639119	0.016728	-0.687093
H421	H	-0.715983	0.049684	-0.672917
H422	H	-0.594249	0.014198	-0.598397
H423	H	-0.671154	0.047171	-0.584305
O424	O	-0.817566	-0.552312	0.022376
C425	C	-0.915653	-0.540802	0.015057
C426	C	-0.880517	-0.508450	0.017704
H427	H	-0.966551	-0.505363	0.011293
H428	H	-0.914829	-0.542835	-0.027761
H429	H	-0.891572	-0.598197	0.059730
H430	H	-0.904571	-0.451043	-0.026938
H431	H	-0.881336	-0.506473	0.060551
O432	O	-0.436973	-0.241245	-0.379380
C433	C	-0.329890	-0.292842	-0.379183
C434	C	-0.398626	-0.225084	-0.413078
H435	H	-0.298868	-0.279804	-0.406421
H436	H	-0.312897	-0.309556	-0.329481
H437	H	-0.327027	-0.339350	-0.376573
H438	H	-0.401541	-0.178530	-0.415735
H439	H	-0.415588	-0.208432	-0.462760
H440	H	-0.578993	-0.728129	0.031465
H441	H	-0.355949	-0.337923	-0.187885
O442	O	-0.346266	-0.347872	-0.469114
C443	C	-0.237674	-0.403712	-0.418241
C444	C	-0.305193	-0.333629	-0.453470
H445	H	-0.204446	-0.392217	-0.405595
H446	H	-0.236512	-0.447640	-0.373341
H447	H	-0.222073	-0.423152	-0.449752
H448	H	-0.320836	-0.314124	-0.422011
H449	H	-0.306317	-0.289746	-0.498377
H450	H	-0.409504	-0.275698	-0.303301
O451	O	-0.530100	-0.164132	-0.653245
C452	C	-0.625667	-0.068116	-0.742758
C453	C	-0.590618	-0.100545	-0.675259
H454	H	-0.674607	-0.016709	-0.760572
H455	H	-0.598138	-0.054128	-0.774932
H456	H	-0.630214	-0.109539	-0.742723
H457	H	-0.586063	-0.059157	-0.675233
H458	H	-0.618161	-0.114550	-0.643114
H459	H	-0.615800	-0.062661	-0.384169
H460	H	-0.578576	-0.106639	-0.590401
H461	H	-0.696669	0.011463	-0.590469
H462	H	-0.812080	0.118217	-0.644031
O463	O	-0.817576	0.123280	-0.470036
C464	C	-0.915662	0.214050	-0.474230
C465	C	-0.880526	0.181559	-0.509226
H466	H	-0.966560	0.261184	-0.505905
H467	H	-0.914838	0.170409	-0.429375
H468	H	-0.891581	0.234643	-0.461511
H469	H	-0.904581	0.160971	-0.521988
H470	H	-0.881346	0.225224	-0.554054
H471	H	-0.525022	-0.168881	-0.187507
H472	H	-0.697037	0.011820	-0.421397
