data_functionalizedCrystal
_audit_creation_method	'MofGen! by Chris Wilmer'
_symmetry_space_group_name_H-M	'P1'
_symmetry_Int_Tables_number	1
_symmetry_cell_setting	triclinic
loop_
_symmetry_equiv_pos_as_xyz
  x,y,z
_cell_length_a	18.760492
_cell_length_b	21.606444
_cell_length_c	21.606444
_cell_angle_alpha	90.000308
_cell_angle_beta	59.999773
_cell_angle_gamma	60.000838
loop_
_atom_site_label
_atom_site_type_symbol
_atom_site_fract_x
_atom_site_fract_y
_atom_site_fract_z
Zr1	Zr	0.780278	-0.081266	0.596197
O2	O	0.928981	-0.180090	0.497370
O3	O	0.631569	-0.050968	0.626496
O4	O	0.780275	-0.180090	0.626492
O5	O	0.780280	0.050882	0.497374
O6	O	0.780280	-0.180093	0.728341
O7	O	0.780275	-0.050968	0.497374
O8	O	0.514272	0.050882	0.728349
O9	O	1.046288	-0.180094	0.497366
O10	O	0.692741	-0.038053	0.715424
O11	O	0.692741	0.037959	0.639414
O12	O	0.867824	-0.114065	0.639409
O13	O	0.867824	-0.038053	0.563400
Zr14	Zr	0.780294	0.081167	0.758635
Zr15	Zr	0.780286	-0.081272	0.758636
Zr16	Zr	0.780286	0.081173	0.596197
Zr17	Zr	0.967369	-0.081272	0.596191
Zr18	Zr	0.593203	0.081173	0.758641
O19	O	0.929004	0.050869	0.728336
O20	O	0.928992	-0.180098	0.728337
O21	O	0.928992	0.050877	0.497370
O22	O	0.631592	0.179990	0.857462
O23	O	0.631580	-0.050976	0.857463
O24	O	0.631580	0.179999	0.626496
O25	O	0.780293	-0.050981	0.857458
O26	O	0.780298	0.179990	0.728341
O27	O	0.780293	0.179994	0.626491
O28	O	0.780298	0.050869	0.857458
O29	O	1.046294	-0.180098	0.626483
O30	O	0.514278	0.179999	0.728349
O31	O	0.514285	0.179994	0.857466
O32	O	0.514278	0.050877	0.857466
O33	O	1.046294	-0.050977	0.497366
O34	O	1.046301	-0.050981	0.626483
O35	O	0.692749	0.113966	0.715423
O36	O	0.692749	0.037954	0.791433
O37	O	0.867831	-0.038059	0.715418
O38	O	0.867831	0.037954	0.639409
C39	C	0.546264	-0.000042	0.677423
C40	C	0.466839	-0.000040	0.677426
C41	C	0.780276	-0.000042	0.474230
C42	C	0.780273	-0.000040	0.405271
C43	C	0.780296	0.203136	0.677416
C44	C	0.780300	0.272096	0.677416
C45	C	0.131044	0.039621	0.637730
C46	C	0.131049	-0.039737	0.717085
C47	C	0.205664	-0.039732	0.717091
C48	C	0.242974	-0.000052	0.677415
C49	C	0.205669	0.039625	0.637733
C50	C	0.242982	-0.079415	0.756766
C51	C	0.317603	-0.079412	0.756773
C52	C	0.354909	-0.039727	0.717100
C53	C	0.317599	-0.000048	0.677418
C54	C	0.354909	0.039633	0.637741
C55	C	0.317594	0.079317	0.598062
C56	C	0.242975	0.079311	0.598061
C57	C	0.429529	-0.039721	0.717102
C58	C	0.429533	0.039637	0.637744
C59	C	1.014309	-0.000057	0.677409
C60	C	1.093734	-0.000060	0.677406
C61	C	0.780276	-0.203236	0.677416
C62	C	0.780273	-0.272195	0.677417
C63	C	0.871690	0.264817	0.637738
C64	C	0.871687	0.329615	0.637735
C65	C	0.780293	0.401690	0.677414
C66	C	0.688896	0.408966	0.717093
C67	C	0.688899	0.344170	0.717091
C68	C	0.688878	0.670285	0.717099
C69	C	0.688881	0.735083	0.717099
C70	C	0.871666	0.655729	0.637742
C71	C	0.871670	0.590933	0.637741
C72	C	0.780273	0.598215	0.677416
C73	C	0.780277	0.527954	0.677418
C74	C	0.780288	0.471950	0.677417
C75	C	0.688882	0.039635	0.412550
C76	C	0.688885	0.039636	0.347753
C77	C	0.780279	-0.000043	0.275677
C78	C	0.871677	-0.039719	0.268399
C79	C	0.871673	-0.039715	0.333195
C80	C	0.871695	-0.039736	0.007081
C81	C	0.871691	-0.039739	-0.057717
C82	C	0.688907	0.039615	0.021638
C83	C	0.688903	0.039619	0.086435
C84	C	0.780300	-0.000054	0.079151
C85	C	0.780295	-0.000053	0.149413
C86	C	0.780285	-0.000049	0.205417
C87	C	0.780296	-0.000057	0.880602
C88	C	0.780300	-0.000060	0.949561
C89	C	0.546274	-0.000049	0.880609
C90	C	0.466852	-0.000049	0.949571
C91	C	0.546274	0.203144	0.677423
C92	C	0.466852	0.272106	0.677426
C93	C	0.546284	0.203136	0.880609
C94	C	0.466866	0.272096	0.949571
C95	C	1.014289	-0.203236	0.474223
C96	C	1.093707	-0.272195	0.405262
C97	C	1.014299	-0.000050	0.474223
C98	C	1.093721	-0.000050	0.405261
C99	C	1.014299	-0.203243	0.677409
C100	C	1.093721	-0.272205	0.677407
C101	C	0.429551	-0.039731	0.942280
C102	C	0.354936	-0.039746	1.007071
C103	C	0.317619	-0.000075	1.079152
C104	C	0.354927	0.039608	1.086441
C105	C	0.429546	0.039618	1.021651
C106	C	0.429559	0.344172	0.717103
C107	C	0.354944	0.408976	0.717102
C108	C	0.317619	0.401711	0.677428
C109	C	0.354920	0.329636	0.637746
C110	C	0.429538	0.264835	0.637743
C111	C	0.429570	0.264802	1.021639
C112	C	0.354958	0.329591	1.086442
C113	C	0.317639	0.401672	1.079175
C114	C	0.354942	0.408964	1.007100
C115	C	0.429557	0.344176	0.942298
C116	C	1.131012	-0.264902	0.333193
C117	C	1.205646	-0.329690	0.268390
C118	C	1.242970	-0.401772	0.275657
C119	C	1.205662	-0.409064	0.347733
C120	C	1.131034	-0.344276	0.412534
C121	C	1.131030	0.039625	0.412552
C122	C	1.205665	0.039622	0.347761
C123	C	1.242985	-0.000051	0.275680
C124	C	1.205673	-0.039731	0.268391
C125	C	1.131044	-0.039732	0.333181
C126	C	1.131022	-0.264916	0.717088
C127	C	1.205637	-0.329707	0.717101
C128	C	1.242955	-0.401786	0.677427
C129	C	1.205646	-0.409074	0.637744
C130	C	1.131027	-0.344284	0.637737
H131	H	0.459904	0.071952	0.605436
C132	C	1.089990	0.083270	0.491832
H133	H	1.122914	0.106889	0.486884
H134	H	1.019538	0.120821	0.518760
H135	H	1.102223	0.049018	0.518758
H136	H	0.324533	0.071906	1.145138
C137	C	0.588349	0.678297	0.760743
H138	H	0.601434	0.629387	0.755055
H139	H	0.550797	0.705218	0.812943
H140	H	0.550798	0.705220	0.741144
C141	C	0.470572	0.083270	1.029676
H142	H	0.520364	0.077594	0.980771
H143	H	0.416994	0.135467	1.056607
H144	H	0.499688	0.063664	1.056598
C145	C	0.313874	0.488255	0.999116
H146	H	0.264087	0.525790	1.048035
H147	H	0.367433	0.493955	0.972194
H148	H	0.284743	0.493944	0.972205
H149	H	0.614458	0.071950	0.471235
H150	H	1.236006	-0.323758	0.749414
H151	H	0.946114	0.206134	0.605430
C152	C	1.089980	-0.185621	0.325185
H153	H	1.122905	-0.190567	0.272979
H154	H	1.019527	-0.158687	0.348807
H155	H	1.102222	-0.158703	0.348816
C156	C	1.325041	-0.473049	0.677435
H157	H	1.341914	-0.458377	0.706745
H158	H	1.300592	-0.502367	0.698678
H159	H	1.383273	-0.502358	0.626881
C160	C	0.972200	0.511652	0.594092
H161	H	0.959113	0.474104	0.599778
H162	H	1.009748	0.505972	0.541893
H163	H	1.009756	0.505966	0.613687
C164	C	0.972200	-0.083325	0.325192
H165	H	0.959109	-0.077623	0.374105
H166	H	1.009789	-0.135530	0.298269
H167	H	1.009715	-0.063700	0.298272
H168	H	0.614487	0.071920	0.027563
C169	C	0.972227	-0.083382	-0.137004
H170	H	0.959135	-0.077707	-0.174549
H171	H	1.009777	-0.063784	-0.142691
H172	H	1.009783	-0.135585	-0.142688
H173	H	0.614481	0.467656	0.749396
C174	C	0.313906	0.321561	1.165717
H175	H	0.264124	0.370465	1.203275
H176	H	0.284791	0.294644	1.171379
H177	H	0.367476	0.294626	1.171407
H178	H	1.100661	-0.350223	0.471213
C179	C	0.235534	0.472997	0.677443
H180	H	0.218667	0.516955	0.706764
H181	H	0.259982	0.473012	0.626896
H182	H	0.177298	0.473009	0.698697
C183	C	0.972227	-0.083383	-0.000937
H184	H	1.026655	-0.107021	-0.053144
H185	H	0.976034	-0.049139	0.022686
H186	H	0.976021	-0.120931	0.022692
H187	H	0.946086	0.649806	0.605434
H188	H	0.614453	0.793771	0.749411
C189	C	0.470578	-0.083368	0.760739
H190	H	0.520366	-0.077686	0.755056
H191	H	0.417008	-0.063782	0.812939
H192	H	0.499703	-0.135572	0.741133
C193	C	0.470616	0.352179	0.760736
H194	H	0.437721	0.404385	0.784353
H195	H	0.458389	0.328558	0.798288
H196	H	0.541073	0.328548	0.726474
H197	H	0.347979	-0.111724	0.789082
C198	C	1.246698	0.083270	0.355789
H199	H	1.296501	0.077584	0.306882
H200	H	1.193126	0.135469	0.382710
H201	H	1.275802	0.063669	0.382719
H202	H	0.459914	0.350125	0.883620
C203	C	1.325072	-0.000042	0.204418
H204	H	1.341935	0.029277	0.219090
H205	H	1.383300	-0.050590	0.175100
H206	H	1.300609	0.021212	0.175107
H207	H	0.347986	0.111621	0.565754
C208	C	0.470611	0.185522	1.029647
H209	H	0.437713	0.190468	1.081854
H210	H	0.458375	0.158594	1.006026
H211	H	0.541070	0.158597	1.006016
H212	H	0.459893	0.206157	0.605436
C213	C	0.588373	0.352172	0.760735
H214	H	0.601464	0.303259	0.755045
H215	H	0.550817	0.379093	0.812936
H216	H	0.550824	0.379092	0.741135
H217	H	1.236070	-0.072032	0.209694
H218	H	0.324583	0.467655	0.749418
H219	H	0.324519	0.323732	0.605445
H220	H	0.256882	0.454421	1.131947
C221	C	1.246711	-0.488353	0.355720
H222	H	1.213813	-0.483426	0.407922
H223	H	1.234478	-0.515268	0.332083
H224	H	1.317169	-0.515279	0.332091
H225	H	0.946107	0.323682	0.605427
C226	C	1.090015	-0.352311	0.594074
H227	H	1.122940	-0.404520	0.570443
H228	H	1.019561	-0.328688	0.628309
H229	H	1.102266	-0.328692	0.556518
H230	H	0.459934	-0.072045	0.883594
H231	H	1.236010	-0.323738	0.209710
C232	C	1.089983	-0.185637	0.760736
H233	H	1.122885	-0.190586	0.784374
H234	H	1.102215	-0.158707	0.726493
H235	H	1.019525	-0.158713	0.798285
H236	H	0.946092	-0.072022	0.209709
H237	H	1.236041	-0.467770	0.605443
C238	C	0.201897	0.122989	0.554448
H239	H	0.234784	0.146639	0.530834
H240	H	0.214107	0.088765	0.516895
H241	H	0.131441	0.160530	0.588726
H242	H	1.100669	-0.072038	0.327234
H243	H	0.100656	0.071933	0.605427
H244	H	1.303737	-0.454520	0.222885
H245	H	0.324569	-0.072060	1.001121
C246	C	0.201946	-0.123061	0.800406
H247	H	0.234861	-0.146699	0.824031
H248	H	0.131493	-0.088815	0.837953
H249	H	0.214183	-0.160609	0.766151
C250	C	0.588356	0.083271	0.355763
H251	H	0.533925	0.106894	0.407969
H252	H	0.584549	0.120819	0.332137
H253	H	0.584565	0.049014	0.332135
C254	C	0.588370	0.083269	0.165715
H255	H	0.533939	0.106905	0.160770
H256	H	0.584563	0.049027	0.192648
H257	H	0.584577	0.120819	0.192635
H258	H	0.100674	-0.072048	0.749384
C259	C	0.235531	-0.000084	1.150414
H260	H	0.218658	-0.029394	1.135742
H261	H	0.259980	-0.021328	1.179733
H262	H	0.177300	0.050469	1.179725
