data_functionalizedCrystal
_audit_creation_method	'MofGen! by Chris Wilmer'
_symmetry_space_group_name_H-M	'P1'
_symmetry_Int_Tables_number	1
_symmetry_cell_setting	triclinic
loop_
_symmetry_equiv_pos_as_xyz
  x,y,z
_cell_length_a	14.044191
_cell_length_b	23.532407
_cell_length_c	13.101039
_cell_angle_alpha	93.336507
_cell_angle_beta	86.337551
_cell_angle_gamma	88.020227
loop_
_atom_site_label
_atom_site_type_symbol
_atom_site_fract_x
_atom_site_fract_y
_atom_site_fract_z
O1	O	1.261656	0.134377	-0.085184
O2	O	0.985734	0.129420	-0.085197
O3	O	1.132014	0.049419	-0.085171
O4	O	1.115375	0.214379	-0.085210
O5	O	1.121518	0.055169	0.085257
O6	O	0.975238	0.135171	0.085232
O7	O	1.251160	0.140128	0.085244
Zn8	Zn	1.111533	0.138562	0.112297
Zn9	Zn	1.125361	0.130986	-0.112250
O10	O	1.104880	0.220129	0.085218
C11	C	0.945192	0.130127	0.000016
C12	C	0.840027	0.123660	0.000012
C13	C	0.589420	0.157705	0.000015
C14	C	0.647480	0.111845	0.000024
C15	C	0.754623	0.118420	0.000017
C16	C	0.482267	0.151131	0.000021
C17	C	1.126342	0.031055	0.000045
C18	C	1.125068	-0.032231	0.000053
C19	C	1.203646	-0.427075	0.000000
C20	C	1.202463	-0.486540	-0.000007
O21	O	1.275306	-0.519337	-0.000042
N22	N	1.115499	-0.513881	-0.000010
C23	C	1.029713	-0.481755	-0.000016
O24	O	0.955634	-0.510471	-0.000021
C25	C	1.030897	-0.422292	-0.000016
C26	C	1.117867	-0.394953	-0.000002
C27	C	1.290609	-0.399737	0.000013
C28	C	1.291791	-0.340276	0.000023
C29	C	1.206012	-0.308154	0.000020
C30	C	1.119049	-0.335493	0.000008
C31	C	0.945112	-0.390167	-0.000029
C32	C	0.946305	-0.330699	-0.000029
C33	C	1.033274	-0.303361	-0.000015
C34	C	1.034452	-0.243910	0.000015
N35	N	1.121416	-0.216569	0.000018
C36	C	1.207196	-0.248691	0.000020
C37	C	1.027232	-0.606632	-0.000019
C38	C	1.026046	-0.666094	-0.000012
C39	C	1.198797	-0.670875	-0.000005
C40	C	1.199982	-0.611412	-0.000005
C41	C	1.114196	-0.579291	-0.000016
C42	C	1.209673	-0.123819	0.000042
C43	C	1.210848	-0.064353	0.000056
C44	C	1.038097	-0.059577	0.000043
C45	C	1.036922	-0.119038	0.000035
C46	C	1.122717	-0.151158	0.000031
O47	O	0.961648	-0.211077	0.000045
O48	O	1.281263	-0.219968	0.000011
C49	C	1.291702	0.139421	0.000029
C50	C	1.396867	0.145888	0.000026
C51	C	1.110552	0.238493	-0.000000
C52	C	1.111827	0.301778	-0.000015
N53	N	1.102102	0.143733	0.265544
N54	N	1.134799	0.125811	-0.265496
C55	C	1.089271	0.150773	0.474584
C56	C	1.147627	0.118773	0.525470
C57	C	1.140488	0.122690	0.641787
C58	C	1.096409	0.146857	0.358256
H59	H	0.620178	0.201901	0.000001
O60	O	0.943803	-0.575515	0.000030
C61	C	0.866803	-0.612405	0.000002
H62	H	0.889306	-0.654406	0.032265
H63	H	0.803686	-0.591891	0.049483
H64	H	0.845152	-0.620747	-0.081761
H65	H	1.281671	-0.042097	0.000069
O66	O	0.860644	-0.416735	0.000128
C67	C	0.849339	-0.448033	0.088372
H68	H	0.894903	-0.429402	0.150083
H69	H	0.771103	-0.445589	0.117979
H70	H	0.872868	-0.494414	0.068413
O71	O	0.610948	0.059073	0.000075
C72	C	0.686036	0.017724	0.000049
H73	H	0.751090	0.038110	0.032314
H74	H	0.662578	-0.018211	0.049529
H75	H	0.705157	-0.000164	-0.081714
H76	H	1.279536	-0.149964	0.000034
H77	H	0.876446	-0.304549	-0.000040
O78	O	1.376361	-0.313816	-0.000018
C79	C	1.451806	-0.354928	0.000006
H80	H	1.427614	-0.397698	-0.032261
H81	H	1.515608	-0.341093	-0.049473
H82	H	1.473204	-0.359239	0.081769
O83	O	1.373930	-0.430965	-0.000164
C84	C	1.383858	-0.468488	-0.088415
H85	H	1.338997	-0.451296	-0.150116
H86	H	1.462065	-0.472265	-0.118032
H87	H	1.358544	-0.512243	-0.068459
O88	O	1.213675	0.082607	0.473241
C89	C	1.305911	0.097372	0.499189
H90	H	1.301094	0.121850	0.577150
H91	H	1.352607	0.057015	0.502584
H92	H	1.338616	0.125190	0.438818
O93	O	1.282043	-0.702172	-0.000061
C94	C	1.262338	-0.760516	-0.000045
H95	H	1.189926	-0.767660	-0.032306
H96	H	1.320087	-0.786311	-0.049533
H97	H	1.261066	-0.774756	0.081715
O98	O	1.284549	-0.584950	-0.000047
C99	C	1.359998	-0.626059	-0.000016
H100	H	1.335810	-0.668831	-0.032278
H101	H	1.423799	-0.612224	-0.049497
H102	H	1.381396	-0.630365	0.081748
H103	H	0.966103	-0.141297	0.000052
H104	H	0.955226	-0.688347	-0.000005
O105	O	0.954865	-0.028284	-0.000006
C106	C	0.974567	0.030062	0.000026
H107	H	1.050951	0.035036	-0.032227
H108	H	0.922912	0.052528	-0.049462
H109	H	0.965770	0.049802	0.081789
O110	O	1.023364	0.186957	0.526977
C111	C	1.030815	0.182855	0.633131
H112	H	1.105413	0.165833	0.647648
H113	H	1.017532	0.226787	0.673989
H114	H	0.975527	0.152631	0.663595
