data_functionalizedCrystal
_audit_creation_method	'MofGen! by Chris Wilmer'
_symmetry_space_group_name_H-M	'P1'
_symmetry_Int_Tables_number	1
_symmetry_cell_setting	triclinic
loop_
_symmetry_equiv_pos_as_xyz
  x,y,z
_cell_length_a	10.654549
_cell_length_b	19.188924
_cell_length_c	9.130307
_cell_angle_alpha	90.001661
_cell_angle_beta	90.004246
_cell_angle_gamma	83.814441
loop_
_atom_site_label
_atom_site_type_symbol
_atom_site_fract_x
_atom_site_fract_y
_atom_site_fract_z
O1	O	1.665758	0.098073	0.121843
O2	O	1.300082	0.107412	0.121838
O3	O	1.493477	0.001156	0.121823
O4	O	1.472362	0.204330	0.121858
O5	O	1.493463	0.001163	-0.121776
O6	O	1.300068	0.107419	-0.121761
O7	O	1.665744	0.098080	-0.121756
Cu8	Cu	1.482904	0.102750	-0.144001
Cu9	Cu	1.482921	0.102742	0.144083
O10	O	1.472348	0.204337	-0.121741
C11	C	1.253291	0.106729	0.000038
C12	C	1.113892	0.104676	0.000036
C13	C	0.821295	0.227879	0.000098
C14	C	0.871464	0.292375	0.000103
C15	C	1.002441	0.294307	0.000084
C16	C	1.083254	0.231736	0.000064
C17	C	1.033084	0.167240	0.000060
C18	C	0.902102	0.165315	0.000074
C19	C	1.063722	0.040180	0.000031
C20	C	0.932746	0.038246	0.000039
C21	C	1.144535	-0.022391	0.000012
C22	C	1.094366	-0.086889	-0.000004
C23	C	0.963380	-0.088818	0.000014
C24	C	0.882576	-0.026250	0.000035
C25	C	1.492787	-0.024856	0.000022
C26	C	1.490739	-0.102374	0.000019
C27	C	1.489791	-0.138783	0.132805
C28	C	1.487849	-0.211619	0.132816
C29	C	1.486880	-0.248044	0.000033
C30	C	1.487821	-0.211626	-0.132770
C31	C	1.489751	-0.138791	-0.132778
N32	N	1.555307	-0.367256	-0.098793
N33	N	1.553476	-0.436447	-0.098777
C34	C	1.481063	-0.467491	0.000047
N35	N	1.410565	-0.426733	0.098877
N36	N	1.412401	-0.357537	0.098865
C37	C	1.484787	-0.327021	0.000026
C38	C	1.478007	-0.582877	0.132855
C39	C	1.476057	-0.655713	0.132860
C40	C	1.476042	-0.655720	-0.132730
C41	C	1.477980	-0.582884	-0.132732
C42	C	1.478968	-0.546467	0.000065
C43	C	1.712534	0.098763	0.000047
C44	C	1.851933	0.100817	0.000059
C45	C	1.473038	0.230349	0.000063
C46	C	1.475086	0.307867	0.000076
N47	N	1.482902	0.102756	-0.346624
C48	C	1.331102	0.017244	-0.653301
C49	C	1.255172	-0.025491	-0.576637
C50	C	1.255148	-0.025478	-0.423304
C51	C	1.331066	0.017273	-0.346630
C52	C	1.406996	0.060008	-0.423294
C53	C	1.407008	0.059992	-0.576631
C54	C	1.558832	0.145491	-0.423287
C55	C	1.558851	0.145482	-0.576621
C56	C	1.634749	0.188242	-0.346614
C57	C	1.710674	0.230981	-0.423277
C58	C	1.710694	0.230967	-0.576620
C59	C	1.634781	0.188217	-0.653284
N60	N	1.482933	0.102731	0.346706
H61	H	0.922542	-0.141339	0.000018
Br62	Br	0.643538	0.225261	0.000085
H63	H	1.475278	-0.685355	0.240995
Br64	Br	1.331109	0.017235	-0.861398
Br65	Br	1.813760	0.288961	-0.680651
Br66	Br	1.813705	0.288987	-0.319216
H67	H	1.634731	0.188246	-0.221762
Br68	Br	0.704818	-0.028864	0.000043
Br69	Br	1.479341	-0.533449	0.313073
Br70	Br	1.634793	0.188199	-0.861381
Br71	Br	1.474714	-0.705145	-0.312939
H72	H	1.331051	0.017273	-0.221778
H73	H	1.251182	-0.020814	0.000003
H74	H	0.805653	0.343318	0.000123
H75	H	1.478762	-0.553240	-0.240861
Br76	Br	1.491127	-0.089363	0.313027
H77	H	1.043288	0.346825	0.000086
H78	H	1.160172	-0.137829	-0.000010
Br79	Br	1.261009	0.234359	0.000074
H80	H	1.193365	-0.060300	-0.639082
H81	H	1.193322	-0.060278	-0.360885
H82	H	1.487029	-0.241288	-0.240883
Br83	Br	1.486557	-0.261041	0.313038
H84	H	1.490518	-0.109147	-0.240912
