data_functionalizedCrystal
_audit_creation_method	'MofGen! by Chris Wilmer'
_symmetry_space_group_name_H-M	'P1'
_symmetry_Int_Tables_number	1
_symmetry_cell_setting	triclinic
loop_
_symmetry_equiv_pos_as_xyz
  x,y,z
_cell_length_a	19.188930
_cell_length_b	16.992694
_cell_length_c	17.666332
_cell_angle_alpha	90.001099
_cell_angle_beta	90.006765
_cell_angle_gamma	86.906503
loop_
_atom_site_label
_atom_site_type_symbol
_atom_site_fract_x
_atom_site_fract_y
_atom_site_fract_z
O1	O	0.148015	1.039886	0.062868
O2	O	0.146391	0.811607	0.062890
O3	O	0.045933	0.932334	0.062864
O4	O	0.248473	0.919159	0.062895
O5	O	0.045935	0.932318	-0.063033
O6	O	0.146394	0.811591	-0.063007
O7	O	0.148017	1.039870	-0.063029
Cu8	Cu	0.147206	0.925729	-0.074513
Cu9	Cu	0.147203	0.925748	0.074375
O10	O	0.248476	0.919143	-0.063002
C11	C	0.144303	0.782393	-0.000056
C12	C	0.138070	0.695371	-0.000048
C13	C	0.198210	0.644924	-0.000039
C14	C	0.192349	0.563157	-0.000051
C15	C	0.126348	0.531839	-0.000065
C16	C	0.066204	0.582292	-0.000076
C17	C	0.072066	0.664057	-0.000070
C18	C	0.102055	0.288325	-0.000089
C19	C	0.096199	0.206553	-0.000093
C20	C	0.222344	0.187424	-0.000069
C21	C	0.228200	0.269191	-0.000058
C22	C	0.168056	0.319637	-0.000073
N23	N	0.120356	0.448261	-0.000074
N24	N	0.174048	0.403214	-0.000069
C25	C	0.019898	0.931900	-0.000087
C26	C	-0.057681	0.930619	-0.000093
C27	C	-0.098460	1.001458	-0.000104
C28	C	-0.171354	1.000255	-0.000091
C29	C	-0.203467	0.928208	-0.000084
C30	C	-0.162679	0.857360	-0.000069
C31	C	-0.089786	0.858565	-0.000074
N32	N	-0.314693	0.873132	-0.042924
N33	N	-0.383939	0.871992	-0.042921
C34	C	-0.423088	0.924572	-0.000068
N35	N	-0.390377	0.978348	0.042772
N36	N	-0.321126	0.979491	0.042766
C37	C	-0.282506	0.926893	-0.000078
C38	C	-0.542907	0.994112	-0.000064
C39	C	-0.615803	0.992905	-0.000047
C40	C	-0.607126	0.850009	-0.000033
C41	C	-0.534232	0.851217	-0.000042
C42	C	-0.502127	0.923271	-0.000061
C43	C	0.274510	0.919578	-0.000050
C44	C	0.352090	0.920858	-0.000039
C45	C	0.150105	1.069084	-0.000081
C46	C	0.156338	1.156107	-0.000084
N47	N	0.147208	0.925722	-0.179232
C48	C	0.192205	0.973160	-0.781280
C49	C	0.192211	0.973153	-0.702032
C50	C	0.147196	0.925755	-0.662414
C51	C	0.102183	0.878347	-0.702050
C52	C	0.102183	0.878350	-0.781296
N53	N	0.085924	0.923857	-0.537998
N54	N	0.085927	0.923858	-0.462718
C55	C	0.147195	0.925741	-0.423650
N56	N	0.208462	0.927638	-0.462707
N57	N	0.208459	0.927641	-0.537994
C58	C	0.147191	0.925746	-0.576485
C59	C	0.192215	0.973134	-0.298094
C60	C	0.192223	0.973120	-0.218845
C61	C	0.102189	0.878319	-0.218864
C62	C	0.102187	0.878328	-0.298112
C63	C	0.147200	0.925740	-0.337722
N64	N	0.147195	0.925762	0.179094
H65	H	0.271310	0.146343	-0.000058
C66	C	0.241164	1.024626	-0.340969
C67	C	0.280602	1.066114	-0.289300
C68	C	0.325707	1.113548	-0.328766
H69	H	0.214666	1.060869	-0.371884
H70	H	0.271519	0.992408	-0.371868
H71	H	0.250251	1.098329	-0.258414
H72	H	0.307115	1.029890	-0.258383
H73	H	0.356062	1.081331	-0.359664
H74	H	0.299203	1.149787	-0.359679
H75	H	0.352476	1.141699	-0.293714
H76	H	0.251955	0.670416	-0.000027
H77	H	0.053082	0.329389	-0.000102
H78	H	0.012465	0.556787	-0.000098
H79	H	0.241321	0.522086	-0.000043
H80	H	0.023093	0.705131	-0.000076
H81	H	-0.072325	1.060129	-0.000117
C82	C	-0.641942	0.771761	0.000133
C83	C	-0.621595	0.728969	0.064917
C84	C	-0.653664	0.656886	0.065104
H85	H	-0.628246	0.742502	-0.043716
H86	H	-0.691200	0.781153	0.000177
H87	H	-0.572348	0.719575	0.064866
H88	H	-0.635292	0.758204	0.108777
H89	H	-0.702922	0.666278	0.065148
H90	H	-0.639965	0.627634	0.021253
H91	H	-0.639868	0.627846	0.109063
C92	C	-0.215555	1.077228	0.000011
C93	C	-0.200424	1.120653	0.064762
C94	C	-0.241120	1.191569	0.064875
H95	H	-0.263583	1.066300	0.000054
H96	H	-0.205386	1.106814	-0.043877
H97	H	-0.210599	1.091073	0.108638
H98	H	-0.152405	1.131603	0.064732
H99	H	-0.230951	1.221155	0.020988
H100	H	-0.289145	1.180632	0.064916
H101	H	-0.230855	1.221044	0.108804
C102	C	0.053401	0.826714	-0.175906
C103	C	0.068230	0.747657	-0.195181
C104	C	0.023308	0.700088	-0.155615
H105	H	0.006432	0.841339	-0.188867
H106	H	0.059850	0.833438	-0.123026
H107	H	0.061775	0.740936	-0.248050
H108	H	0.115191	0.733008	-0.182219
H109	H	0.029757	0.706813	-0.102734
H110	H	-0.023659	0.714720	-0.168578
H111	H	0.033367	0.646442	-0.168682
C112	C	-0.197503	0.779114	0.000095
C113	C	-0.177161	0.736323	0.064882
C114	C	-0.209233	0.664242	0.065068
H115	H	-0.183805	0.749853	-0.043752
H116	H	-0.246760	0.788509	0.000135
H117	H	-0.127914	0.726926	0.064834
H118	H	-0.190860	0.765561	0.108739
H119	H	-0.258491	0.673637	0.065108
H120	H	-0.195533	0.634988	0.021218
H121	H	-0.195442	0.635203	0.109028
H122	H	0.065530	0.839751	-0.813559
H123	H	0.228879	1.011716	-0.186583
H124	H	-0.056584	0.800878	-0.000066
C125	C	0.053273	0.827004	-0.341238
C126	C	0.008688	0.874699	-0.386751
C127	C	-0.036375	0.827442	-0.426497
H128	H	0.026397	0.798760	-0.306383
H129	H	0.079831	0.790844	-0.372195
H130	H	-0.017867	0.910846	-0.355796
H131	H	0.035545	0.902943	-0.421619
H132	H	-0.009818	0.791281	-0.457453
H133	H	-0.063247	0.799200	-0.391636
H134	H	-0.066628	0.859795	-0.457387
H135	H	0.281944	0.294684	-0.000038
H136	H	-0.516766	1.052782	-0.000077
H137	H	0.065533	0.839754	-0.669787
H138	H	-0.649004	1.050593	-0.000052
C139	C	0.024473	0.172702	-0.000146
C140	C	-0.026945	0.234380	-0.000176
C141	C	-0.093021	0.203225	-0.000232
H142	H	0.019467	0.141216	0.043745
H143	H	0.019533	0.141222	-0.044067
H144	H	-0.022006	0.265845	0.043740
H145	H	-0.021961	0.265870	-0.044064
H146	H	-0.097962	0.171746	-0.044152
H147	H	-0.098021	0.171740	0.043660
H148	H	-0.127916	0.245068	-0.000259
H149	H	0.228858	1.011765	-0.813526
C150	C	-0.489919	0.774328	0.000117
C151	C	-0.447821	0.770844	0.064895
C152	C	-0.406998	0.700017	0.065075
H153	H	-0.461248	0.771745	-0.043736
H154	H	-0.519459	0.731224	0.000164
H155	H	-0.418283	0.813936	0.064841
H156	H	-0.476473	0.773413	0.108759
H157	H	-0.436539	0.656913	0.065123
H158	H	-0.378332	0.697441	0.021220
H159	H	-0.378435	0.697640	0.109030
H160	H	0.228866	1.011749	-0.669762
