data_functionalizedCrystal
_audit_creation_method	'MofGen! by Chris Wilmer'
_symmetry_space_group_name_H-M	'P1'
_symmetry_Int_Tables_number	1
_symmetry_cell_setting	triclinic
loop_
_symmetry_equiv_pos_as_xyz
  x,y,z
_cell_length_a	29.839126
_cell_length_b	17.640112
_cell_length_c	29.839133
_cell_angle_alpha	78.746938
_cell_angle_beta	89.988298
_cell_angle_gamma	78.832058
loop_
_atom_site_label
_atom_site_type_symbol
_atom_site_fract_x
_atom_site_fract_y
_atom_site_fract_z
Zn1	Zn	-0.115399	-1.208346	-0.039882
Zn2	Zn	-0.040297	-1.208222	-0.115014
Zn3	Zn	-0.055449	-1.076157	-0.055092
Zn4	Zn	-0.130555	-1.076125	-0.130197
O5	O	-0.085425	-1.142213	-0.085046
O6	O	-0.092754	-1.318934	-0.037128
O7	O	0.020556	-1.190665	-0.107076
O8	O	-0.063400	-1.093758	0.009800
O9	O	-0.037576	-1.318843	-0.092327
O10	O	-0.107445	-1.190877	0.020975
O11	O	0.009424	-1.093638	-0.063052
O12	O	-0.078095	-0.965548	-0.077775
O13	O	-0.191407	-1.093702	-0.118205
O14	O	-0.133275	-0.965524	-0.132954
O15	O	-0.180273	-1.190845	-0.051851
O16	O	-0.052271	-1.190634	-0.179902
O17	O	-0.118583	-1.093582	-0.191057
C18	C	-0.085435	-1.142112	-0.201780
C19	C	-0.085446	-1.142142	-0.251711
C20	C	-0.108974	-0.936858	-0.108663
C21	C	-0.119059	-0.849006	-0.118777
C22	C	-0.202595	-1.142283	-0.085025
C23	C	-0.252526	-1.142314	-0.085016
C24	C	-0.603321	-1.192825	-0.107881
C25	C	-0.415648	-1.192826	-0.107912
O26	O	-0.386460	-1.235765	-0.127424
N27	N	-0.397972	-1.142310	-0.084995
C28	C	-0.427217	-1.091786	-0.062071
O29	O	-0.407877	-1.048813	-0.042583
C30	C	-0.614890	-1.091781	-0.062043
C31	C	-0.632563	-1.142307	-0.084957
C32	C	-0.620995	-1.243346	-0.130794
C33	C	-0.667910	-1.243348	-0.130784
C34	C	-0.697152	-1.192829	-0.107861
C35	C	-0.679478	-1.142309	-0.084947
C36	C	-0.644135	-1.041254	-0.039122
C37	C	-0.691056	-1.041256	-0.039118
C38	C	-0.708729	-1.091781	-0.062032
C39	C	-0.755635	-1.091793	-0.062014
N40	N	-0.773312	-1.142309	-0.084931
C41	C	-0.744070	-1.192827	-0.107854
C42	C	-0.328686	-1.091793	-0.062086
C43	C	-0.281768	-1.091795	-0.062093
C44	C	-0.270202	-1.192835	-0.107935
C45	C	-0.317120	-1.192836	-0.107925
C46	C	-0.346362	-1.142310	-0.085004
C47	C	-0.842596	-1.192829	-0.107831
C48	C	-0.889515	-1.192829	-0.107817
C49	C	-0.901077	-1.091787	-0.061978
C50	C	-0.854162	-1.091789	-0.061989
C51	C	-0.824922	-1.142313	-0.084919
O52	O	-0.784851	-1.048870	-0.042517
O53	O	-0.763421	-1.235782	-0.127348
C54	C	-0.556406	-1.192823	-0.107891
C55	C	-0.538733	-1.142302	-0.084978
C56	C	-0.567974	-1.091784	-0.062054
C57	C	-0.491815	-1.142304	-0.084984
C58	C	-0.462573	-1.192823	-0.107907
C59	C	-0.480249	-1.243339	-0.130824
C60	C	-0.527164	-1.243341	-0.130814
C61	C	-0.550298	-1.041268	-0.039137
C62	C	-0.503382	-1.041270	-0.039149
C63	C	-0.474141	-1.091789	-0.062072
C64	C	0.031295	-1.142187	-0.085029
C65	C	0.081243	-1.142310	-0.084894
C66	C	-0.061784	-1.348369	-0.061337
C67	C	-0.051710	-1.436221	-0.051234
C68	C	-0.008814	-0.560027	-0.008202
C69	C	-0.018296	-0.477477	-0.017715
C70	C	-0.075656	-0.477506	-0.075252
C71	C	-0.066180	-0.560057	-0.065743
C72	C	-0.032758	-0.601311	-0.032218
C73	C	-0.090124	-0.601342	-0.089758
C74	C	-0.080647	-0.683886	-0.080251
C75	C	-0.047226	-0.725146	-0.046728
C76	C	-0.023281	-0.683856	-0.022710
C77	C	-0.123544	-0.560087	-0.123285
C78	C	-0.147488	-0.601371	-0.147301
C79	C	-0.138013	-0.683917	-0.137791
C80	C	-0.104592	-0.725177	-0.104269
C81	C	-0.161958	-0.725208	-0.161809
C82	C	-0.152481	-0.807752	-0.152302
C83	C	-0.095115	-0.807721	-0.094761
C84	C	-0.108389	-1.192811	-0.602433
C85	C	-0.108397	-1.192736	-0.414769
O86	O	-0.127909	-1.235715	-0.385529
N87	N	-0.085438	-1.142204	-0.397149
C88	C	-0.062473	-1.091690	-0.426449
O89	O	-0.042941	-1.048714	-0.407155
C90	C	-0.062462	-1.091770	-0.614112
C91	C	-0.085427	-1.142300	-0.631729
C92	C	-0.131351	-1.243337	-0.620051
C93	C	-0.131351	-1.243353	-0.666965
C94	C	-0.108389	-1.192841	-0.696260
C95	C	-0.085427	-1.142315	-0.678643
C96	C	-0.039494	-1.041261	-0.643410
C97	C	-0.039493	-1.041287	-0.690328
C98	C	-0.062457	-1.091817	-0.707945
C99	C	-0.062464	-1.091819	-0.754852
N100	N	-0.085423	-1.142351	-0.772472
C101	C	-0.108386	-1.192862	-0.743176
C102	C	-0.062481	-1.091651	-0.327923
C103	C	-0.062484	-1.091630	-0.281007
C104	C	-0.108408	-1.192677	-0.269330
C105	C	-0.108407	-1.192694	-0.316247
C106	C	-0.085440	-1.142184	-0.345542
C107	C	-0.108384	-1.192890	-0.841699
C108	C	-0.108383	-1.192898	-0.888617
C109	C	-0.062458	-1.091855	-0.900290
C110	C	-0.062460	-1.091843	-0.853375
C111	C	-0.085424	-1.142367	-0.824080
O112	O	-0.042958	-1.048869	-0.784118
O113	O	-0.127906	-1.235845	-0.762476
C114	C	-0.108389	-1.192796	-0.555519
C115	C	-0.085427	-1.142270	-0.537902
C116	C	-0.062465	-1.091758	-0.567197
C117	C	-0.085430	-1.142249	-0.490986
C118	C	-0.108393	-1.192760	-0.461690
C119	C	-0.131352	-1.243292	-0.479310
C120	C	-0.131352	-1.243307	-0.526223
C121	C	-0.039506	-1.041226	-0.549578
C122	C	-0.039508	-1.041214	-0.502664
C123	C	-0.062470	-1.091726	-0.473368
C124	C	-0.085422	-1.142335	0.032146
C125	C	-0.085421	-1.142387	0.082087
H126	H	-0.818793	-1.233975	-0.126499
O127	O	-0.908579	-1.247324	-0.132534
H128	H	-0.934010	-1.211924	-0.159454
O129	O	-0.059066	-0.852221	-0.058600
H130	H	-0.074892	-0.889856	-0.031437
H131	H	-0.127087	-1.234044	-0.902959
O132	O	-0.589463	-1.297848	-0.155518
H133	H	-0.572137	-1.262467	-0.182457
O134	O	-0.835100	-1.037298	-0.037270
H135	H	-0.809673	-1.072692	-0.010344
H136	H	0.018395	-0.593618	0.019104
O137	O	-0.111702	-0.433027	-0.111416
H138	H	-0.138913	-0.395454	-0.095677
O139	O	-0.133168	-1.247173	-0.237729
H140	H	-0.160067	-1.211781	-0.220430
H141	H	-0.174699	-0.567771	-0.174598
H142	H	-0.043790	-1.050476	-0.266668
H143	H	-0.127109	-1.233836	-0.330588
H144	H	-0.043763	-1.050728	-0.924151
H145	H	-0.171979	-0.841367	-0.171857
H146	H	-0.714863	-1.000110	-0.020451
H147	H	-0.020809	-1.000060	-0.488324
O148	O	-0.262708	-1.037314	-0.037367
H149	H	-0.278813	-0.975273	-0.052208
H150	H	-0.331506	-1.233978	-0.126585
O151	O	-0.686972	-1.297821	-0.155514
H152	H	-0.658752	-1.332933	-0.171462
H153	H	-0.352491	-1.050646	-0.043420
O154	O	-0.037712	-1.037163	-0.359519
H155	H	-0.021754	-1.002020	-0.339380
H156	H	-0.020806	-1.000094	-0.573427
O157	O	-0.037692	-1.037342	-0.834373
H158	H	-0.062390	-0.997099	-0.817637
O159	O	-0.156117	-1.297812	-0.545222
H160	H	-0.172079	-1.332933	-0.516963
H161	H	-0.020794	-1.000116	-0.629073
O162	O	-0.238655	-1.247327	-0.132656
H163	H	-0.258823	-1.282463	-0.148590
H164	H	-0.150051	-1.284418	-0.455449
H165	H	-0.629755	-1.000109	-0.020463
O166	O	-0.014724	-0.986803	-0.721926
H167	H	0.001239	-0.951662	-0.701791
H168	H	-0.189167	-0.691606	-0.189109
H169	H	-0.039509	-0.792359	-0.038989
H170	H	-0.150047	-1.284505	-0.681303
O171	O	-0.932618	-1.037316	-0.037242
H172	H	-0.968211	-1.045811	-0.041087
H173	H	-0.541549	-1.284484	-0.149474
H174	H	0.001202	-0.443866	0.001847
O175	O	-0.448706	-1.297826	-0.155552
H176	H	-0.413115	-1.289326	-0.151709
O177	O	-0.133153	-1.247381	-0.810107
H178	H	-0.108453	-1.287613	-0.784094
H179	H	-0.488998	-1.000128	-0.020484
H180	H	-0.574103	-1.000127	-0.020471
O181	O	0.012767	-0.728363	0.013449
H182	H	0.027828	-0.685789	0.028552
H183	H	-0.131259	-0.492873	-0.131025
O184	O	-0.156113	-1.297832	-0.588455
H185	H	-0.172076	-1.332965	-0.608595
