data_functionalizedCrystal
_audit_creation_method	'MofGen! by Chris Wilmer'
_symmetry_space_group_name_H-M	'P1'
_symmetry_Int_Tables_number	1
_symmetry_cell_setting	triclinic
loop_
_symmetry_equiv_pos_as_xyz
  x,y,z
_cell_length_a	18.627263
_cell_length_b	18.627226
_cell_length_c	18.627297
_cell_angle_alpha	89.996209
_cell_angle_beta	120.000334
_cell_angle_gamma	119.999686
loop_
_atom_site_label
_atom_site_type_symbol
_atom_site_fract_x
_atom_site_fract_y
_atom_site_fract_z
O1	O	0.513834	-0.611892	0.021362
O2	O	0.366829	-0.507493	-0.021249
O3	O	0.513829	-0.507493	0.125751
O4	O	0.366834	-0.611892	-0.125638
O5	O	0.633223	-0.388096	0.125738
O6	O	0.486222	-0.388096	-0.021261
O7	O	0.633228	-0.492495	0.021349
Zn8	Zn	0.578681	-0.421339	0.000042
Zn9	Zn	0.421375	-0.578649	0.000059
O10	O	0.486227	-0.492495	-0.125651
C11	C	0.356041	-0.256984	-0.030930
C12	C	0.406441	-0.162286	-0.024827
C13	C	0.398834	-0.300588	-0.031543
C14	C	0.226036	-0.386987	-0.030937
C15	C	0.137435	-0.431289	-0.024841
C16	C	0.269027	-0.430393	-0.031550
C17	C	0.356034	-0.386989	-0.030942
C18	C	0.406427	-0.431292	-0.024851
C19	C	0.269034	-0.300586	-0.031538
O20	O	-0.104369	-0.492497	0.021359
O21	O	0.104434	-0.388089	-0.021237
O22	O	0.104424	-0.388113	0.125757
O23	O	-0.104359	-0.492472	-0.125635
O24	O	0.104419	-0.507518	0.125746
O25	O	0.104429	-0.507494	-0.021248
O26	O	-0.104374	-0.611902	0.021349
Zn27	Zn	0.000026	-0.578656	0.000049
Zn28	Zn	0.000034	-0.421335	0.000063
O29	O	-0.104364	-0.611878	-0.125646
C30	C	0.356039	-0.612990	-0.386938
C31	C	0.406434	-0.568691	-0.431241
C32	C	0.269039	-0.699386	-0.430335
C33	C	0.356038	-0.612992	-0.256938
C34	C	0.406431	-0.568694	-0.162245
C35	C	0.269037	-0.699387	-0.300532
C36	C	0.226046	-0.742987	-0.386927
C37	C	0.137452	-0.837681	-0.431219
C38	C	0.398833	-0.569588	-0.300543
C39	C	0.644038	-0.742992	0.031070
C40	C	0.593647	-0.837686	0.024984
C41	C	0.731041	-0.699393	0.031673
C42	C	0.644031	-0.612995	0.031057
C43	C	0.593632	-0.568695	0.024956
C44	C	0.731033	-0.569593	0.031659
C45	C	0.774030	-0.612997	0.031056
C46	C	0.862627	-0.568700	0.024955
C47	C	0.601239	-0.699390	0.031673
O48	O	0.633249	0.125713	0.021386
O49	O	0.486241	-0.125685	-0.021229
O50	O	0.633235	0.021293	0.125773
O51	O	0.486254	-0.021265	-0.125615
O52	O	0.513837	0.021295	0.125778
O53	O	0.366843	-0.125683	-0.021224
O54	O	0.513850	0.125715	0.021391
Zn55	Zn	0.421389	0.000016	0.000084
Zn56	Zn	0.578702	0.000013	0.000078
O57	O	0.366856	-0.021263	-0.125611
O58	O	-0.104335	-1.125673	-0.492399
O59	O	0.104449	-0.874283	-0.388017
O60	O	0.104458	-1.021278	-0.388005
O61	O	-0.104344	-0.978678	-0.492411
O62	O	0.104461	-1.021275	-0.507406
O63	O	0.104452	-0.874279	-0.507418
O64	O	-0.104332	-1.125670	-0.611799
Zn65	Zn	0.000061	-0.999974	-0.578566
Zn66	Zn	0.000057	-0.999978	-0.421251
O67	O	-0.104341	-0.978675	-0.611811
O68	O	0.513828	-0.507494	-0.611849
O69	O	0.366836	-0.611889	-0.507439
O70	O	0.513835	-0.611890	-0.507439
O71	O	0.366830	-0.507492	-0.611849
O72	O	0.633230	-0.492493	-0.388049
O73	O	0.486231	-0.492491	-0.388049
O74	O	0.633223	-0.388096	-0.492459
Zn75	Zn	0.578684	-0.421336	-0.421298
Zn76	Zn	0.421376	-0.578648	-0.578600
O77	O	0.486225	-0.388094	-0.492459
C78	C	0.774012	-0.256999	0.387027
C79	C	0.862606	-0.162306	0.431318
C80	C	0.731020	-0.300600	0.430435
C81	C	0.644019	-0.386995	0.257038
C82	C	0.593625	-0.431294	0.162345
C83	C	0.601225	-0.430398	0.300644
C84	C	0.644019	-0.386995	0.387039
C85	C	0.593625	-0.431294	0.431343
C86	C	0.731020	-0.300600	0.300632
C87	C	0.356026	-0.387047	0.387029
C88	C	0.406419	-0.431355	0.431320
C89	C	0.398827	-0.300652	0.430436
C90	C	0.226027	-0.387029	0.257043
C91	C	0.137425	-0.431318	0.162351
C92	C	0.269025	-0.300634	0.300647
C93	C	0.356032	-0.257043	0.387041
C94	C	0.406433	-0.162349	0.431343
C95	C	0.269019	-0.430441	0.300636
C96	C	-0.355972	-0.742948	-0.386929
C97	C	-0.406372	-0.837641	-0.431232
C98	C	-0.398766	-0.699339	-0.430325
C99	C	-0.225967	-0.612961	-0.256932
C100	C	-0.137365	-0.568672	-0.162240
C101	C	-0.268959	-0.569550	-0.300525
C102	C	-0.355966	-0.612944	-0.386918
C103	C	-0.406360	-0.568636	-0.431208
C104	C	-0.268965	-0.699356	-0.300536
C105	C	0.644011	0.030946	0.387063
C106	C	0.593611	0.024843	0.431362
C107	C	0.731012	0.031545	0.430464
C108	C	0.644021	0.030967	0.257068
C109	C	0.593633	0.024886	0.162376
C110	C	0.731022	0.031566	0.300666
C111	C	0.774009	0.030944	0.387060
C112	C	0.862604	0.024839	0.431356
C113	C	0.601222	0.031568	0.300669
O114	O	0.513872	0.125659	0.492541
O115	O	0.366846	-0.125736	0.388144
O116	O	0.513868	0.021249	0.388153
O117	O	0.366850	-0.021327	0.492532
O118	O	0.633244	0.021224	0.507557
O119	O	0.486222	-0.125762	0.507548
O120	O	0.633248	0.125633	0.611945
Zn121	Zn	0.578689	-0.000069	0.578704
Zn122	Zn	0.421406	-0.000035	0.421385
O123	O	0.486226	-0.021352	0.611935
C124	C	0.226084	-0.030914	-0.386898
C125	C	0.137489	-0.024809	-0.431195
C126	C	0.269082	-0.031515	-0.430301
C127	C	0.356071	-0.030937	-0.256906
C128	C	0.406458	-0.024857	-0.162213
C129	C	0.398871	-0.031538	-0.300506
C130	C	0.356083	-0.030916	-0.386900
C131	C	0.406484	-0.024813	-0.431198
C132	C	0.269070	-0.031536	-0.300504
H133	H	0.233052	-0.265578	-0.032518
Cl134	Cl	0.213520	-0.033042	-0.246455
Cl135	Cl	0.786561	0.033041	0.540059
H136	H	0.531208	-0.501380	0.265637
H137	H	0.468838	-0.498601	-0.265548
Cl138	Cl	0.786581	-0.459998	0.033153
Cl139	Cl	0.213537	-0.033011	-0.539897
H140	H	0.468833	-0.265661	0.501424
Cl141	Cl	0.493136	0.033086	0.246626
Cl142	Cl	0.786580	-0.246563	0.540035
H143	H	0.468879	-0.032522	-0.265499
H144	H	0.233036	-0.501385	-0.032536
Cl145	Cl	0.506923	-0.246545	-0.033055
Cl146	Cl	0.786579	0.033079	0.246622
Cl147	Cl	0.213477	-0.753430	-0.246488
H148	H	0.766987	-0.265582	0.265617
Cl149	Cl	-0.506850	-0.753365	-0.539922
H150	H	0.233051	-0.734381	-0.501326
H151	H	0.233046	-0.265623	0.265643
H152	H	0.531226	-0.734399	0.032648
Cl153	Cl	0.213468	-0.540032	0.246581
Cl154	Cl	-0.213386	-0.459946	-0.246486
Cl155	Cl	-0.213418	-0.753412	-0.246497
H156	H	0.767021	-0.734403	0.032652
