data_functionalizedCrystal
_audit_creation_method	'MofGen! by Chris Wilmer'
_symmetry_space_group_name_H-M	'P1'
_symmetry_Int_Tables_number	1
_symmetry_cell_setting	triclinic
loop_
_symmetry_equiv_pos_as_xyz
  x,y,z
_cell_length_a	13.032831
_cell_length_b	14.908178
_cell_length_c	13.033109
_cell_angle_alpha	94.281195
_cell_angle_beta	76.665514
_cell_angle_gamma	85.691885
loop_
_atom_site_label
_atom_site_type_symbol
_atom_site_fract_x
_atom_site_fract_y
_atom_site_fract_z
Zn1	Zn	1.652345	-0.623780	-0.758611
Zn2	Zn	2.152345	-0.123780	-0.258611
Zn3	Zn	1.619967	-0.750575	-0.571278
Zn4	Zn	2.119967	-0.250575	-0.071278
Zn5	Zn	1.455474	-0.580623	-0.561811
Zn6	Zn	1.955474	-0.080623	-0.061811
Zn7	Zn	1.464988	-0.750497	-0.726328
Zn8	Zn	1.964988	-0.250497	-0.226328
O9	O	1.548193	-0.676369	-0.654507
O10	O	2.048193	-0.176369	-0.154507
O11	O	1.795300	-0.658694	-0.751233
O12	O	2.295300	-0.158694	-0.251233
O13	O	1.580615	-0.710002	-0.422772
O14	O	2.080615	-0.210002	0.077228
O15	O	1.491158	-0.462190	-0.597465
O16	O	1.991158	0.037810	-0.097465
O17	O	1.771512	-0.751850	-0.613601
O18	O	2.271512	-0.251850	-0.113601
O19	O	1.635798	-0.493898	-0.742053
O20	O	2.135798	0.006102	-0.242053
O21	O	1.459762	-0.585138	-0.415817
O22	O	1.959762	-0.085138	0.084183
O23	O	1.309485	-0.585062	-0.566162
O24	O	1.809485	-0.085062	-0.066162
O25	O	1.507373	-0.751717	-0.877861
O26	O	2.007373	-0.251717	-0.377861
O27	O	1.316475	-0.709869	-0.687032
O28	O	1.816475	-0.209869	-0.187032
O29	O	1.645023	-0.658619	-0.901579
O30	O	2.145023	-0.158619	-0.401579
O31	O	1.589840	-0.874722	-0.582297
O32	O	2.089840	-0.374722	-0.082297
O33	O	1.475977	-0.874665	-0.696212
O34	O	1.975977	-0.374665	-0.196212
C35	C	1.274800	-0.642774	-0.622067
C36	C	1.774800	-0.142774	-0.122067
C37	C	1.157842	-0.628427	-0.608213
C38	C	1.657842	-0.128427	-0.108213
C39	C	1.109167	-0.683857	-0.661738
C40	C	1.609167	-0.183857	-0.161738
C41	C	0.988285	-0.669030	-0.647420
C42	C	1.488285	-0.169030	-0.147420
C43	C	1.530459	-0.906892	-0.636805
C44	C	2.030459	-0.406892	-0.136805
C45	C	1.522972	-1.005528	-0.629279
C46	C	2.022972	-0.505528	-0.129279
C47	C	1.659433	-1.223746	-0.765828
C48	C	2.159433	-0.723746	-0.265828
C49	C	1.652403	-1.316423	-0.758760
C50	C	2.152403	-0.816423	-0.258760
C51	C	1.501878	-1.283562	-0.608081
C52	C	2.001878	-0.783562	-0.108081
C53	C	1.508908	-1.190884	-0.615149
C54	C	2.008908	-0.690884	-0.115149
C55	C	1.587689	-1.160980	-0.694024
C56	C	2.087689	-0.660980	-0.194024
C57	C	1.594723	-1.068301	-0.701086
C58	C	2.094723	-0.568301	-0.201086
C59	C	1.444194	-1.035441	-0.550413
C60	C	1.944194	-0.535441	-0.050413
C61	C	1.437164	-1.128118	-0.543345
C62	C	1.937164	-0.628118	-0.043345
C63	C	1.822654	-0.710095	-0.687074
C64	C	2.322654	-0.210095	-0.187074
C65	C	1.939613	-0.724467	-0.700952
C66	C	2.439613	-0.224467	-0.200952
C67	C	1.580871	-0.709973	-0.928968
C68	C	2.080871	-0.209973	-0.428968
C69	C	1.594796	-0.724293	-1.045926
C70	C	2.094796	-0.224293	-0.545926
C71	C	1.566029	-0.444951	-0.672304
C72	C	2.066029	0.055049	-0.172304
C73	C	1.573629	-0.346335	-0.679889
C74	C	2.073629	0.153665	-0.179889
C75	C	1.541209	-0.668898	-1.094629
C76	C	2.041209	-0.168898	-0.594629
C77	C	1.555600	-0.683697	-1.215512
C78	C	2.055600	-0.183697	-0.715512
C79	C	1.515708	-0.642839	-0.381126
C80	C	2.015708	-0.142839	0.118874
C81	C	1.502006	-0.628294	-0.264211
C82	C	2.002006	-0.128294	0.235789
H83	H	0.987428	-0.782900	-0.757388
H84	H	1.487428	-0.282900	-0.257388
F85	F	1.095345	-0.552046	-0.534465
F86	F	1.595345	-0.052046	-0.034465
H87	H	0.940470	-0.610590	-0.590996
H88	H	1.440470	-0.110590	-0.090996
H89	H	1.651327	-0.782677	-1.093723
H90	H	2.151327	-0.282677	-0.593723
F91	F	1.678571	-1.036476	-0.785028
F92	F	2.178571	-0.536476	-0.285028
H93	H	1.156987	-0.742287	-0.718166
H94	H	1.656987	-0.242287	-0.218166
F95	F	1.367840	-0.968634	-0.473983
F96	F	1.867840	-0.468634	0.026017
H97	H	1.612135	-0.742084	-1.263305
H98	H	2.112135	-0.242084	-0.763305
F99	F	1.743286	-1.191918	-0.849761
F100	F	2.243286	-0.691918	-0.349761
F101	F	1.728761	-1.383221	-0.835186
F102	F	2.228761	-0.883221	-0.335186
F103	F	1.418022	-1.315404	-0.524163
F104	F	1.918022	-0.815404	-0.024163
F105	F	1.353318	-1.159955	-0.459412
F106	F	1.853318	-0.659955	0.040588
F107	F	1.467327	-0.592578	-1.032162
F108	F	1.967327	-0.092578	-0.532162
F109	F	1.428085	-0.551992	-1.201744
F110	F	1.928085	-0.051992	-0.701744
