data_functionalizedCrystal
_audit_creation_method	'MofGen! by Chris Wilmer'
_symmetry_space_group_name_H-M	'P1'
_symmetry_Int_Tables_number	1
_symmetry_cell_setting	triclinic
loop_
_symmetry_equiv_pos_as_xyz
  x,y,z
_cell_length_a	19.188900
_cell_length_b	23.532407
_cell_length_c	17.666332
_cell_angle_alpha	89.988854
_cell_angle_beta	90.017738
_cell_angle_gamma	97.009417
loop_
_atom_site_label
_atom_site_type_symbol
_atom_site_fract_x
_atom_site_fract_y
_atom_site_fract_z
O1	O	-0.925936	0.071020	-0.063103
O2	O	-0.722591	0.080610	-0.063073
O3	O	-0.830396	-0.007104	-0.063075
O4	O	-0.818132	0.158734	-0.063101
O5	O	-0.830377	-0.007109	0.062822
O6	O	-0.722573	0.080605	0.062824
O7	O	-0.925918	0.071016	0.062794
Cu8	Cu	-0.824243	0.075810	0.074304
Cu9	Cu	-0.824266	0.075816	-0.074583
O10	O	-0.818113	0.158730	0.062796
C11	C	-0.696572	0.080300	-0.000121
C12	C	-0.619069	0.079376	-0.000109
C13	C	-0.582689	0.078935	-0.068736
C14	C	-0.509868	0.078061	-0.068744
C15	C	-0.473432	0.077616	-0.000120
C16	C	-0.509820	0.078061	0.068516
C17	C	-0.582639	0.078941	0.068522
N18	N	-0.364511	0.043824	0.050957
N19	N	-0.295337	0.042986	0.050947
C20	C	-0.254033	0.074967	-0.000133
N21	N	-0.284518	0.107808	-0.051214
N22	N	-0.353699	0.108643	-0.051206
C23	C	-0.394472	0.076663	-0.000118
C24	C	-0.138692	0.073578	-0.068773
C25	C	-0.065869	0.072708	-0.068778
C26	C	-0.065823	0.072702	0.068485
C27	C	-0.138644	0.073578	0.068487
C28	C	-0.175074	0.074014	-0.000144
C29	C	-0.830074	-0.028323	-0.000125
C30	C	-0.829135	-0.091542	-0.000119
C31	C	-0.887042	-0.490527	-0.000169
C32	C	-0.886170	-0.549929	-0.000174
O33	O	-0.939851	-0.586565	-0.000210
N34	N	-0.822080	-0.572686	-0.000164
C35	C	-0.758859	-0.536037	-0.000156
O36	O	-0.704266	-0.560848	-0.000149
C37	C	-0.759732	-0.476636	-0.000156
C38	C	-0.823826	-0.453883	-0.000159
C39	C	-0.951131	-0.467774	-0.000172
C40	C	-0.952003	-0.408376	-0.000165
C41	C	-0.888786	-0.371731	-0.000155
C42	C	-0.824698	-0.394485	-0.000151
C43	C	-0.696511	-0.439988	-0.000154
C44	C	-0.697390	-0.380584	-0.000154
C45	C	-0.761483	-0.357831	-0.000156
C46	C	-0.762353	-0.298443	-0.000134
N47	N	-0.826443	-0.275686	-0.000144
C48	C	-0.889659	-0.312331	-0.000154
C49	C	-0.757031	-0.660783	-0.000158
C50	C	-0.756157	-0.720183	-0.000153
C51	C	-0.883468	-0.734071	-0.000172
C52	C	-0.884341	-0.674670	-0.000172
C53	C	-0.821120	-0.638027	-0.000168
C54	C	-0.891485	-0.187590	-0.000139
C55	C	-0.892352	-0.128186	-0.000129
C56	C	-0.765041	-0.114303	-0.000114
C57	C	-0.764174	-0.173702	-0.000120
C58	C	-0.827402	-0.210344	-0.000135
O59	O	-0.708701	-0.261773	-0.000102
O60	O	-0.944243	-0.287512	-0.000171
C61	C	0.048063	0.071330	-0.000154
C62	C	-0.029438	0.072264	-0.000153
C63	C	-0.818435	0.179949	-0.000156
C64	C	-0.819374	0.243168	-0.000167
N65	N	-0.824233	0.075806	0.179024
N66	N	-0.824282	0.075815	-0.179303
C67	C	-0.871984	0.036985	0.218633
C68	C	-0.871988	0.036982	0.297880
C69	C	-0.824248	0.075810	0.337516
C70	C	-0.776488	0.114634	0.297897
C71	C	-0.776480	0.114632	0.218651
N72	N	-0.815010	0.126226	0.461927
N73	N	-0.815022	0.126226	0.537208
C74	C	-0.824266	0.075818	0.576280
N75	N	-0.833513	0.025408	0.537227
N76	N	-0.833505	0.025408	0.461940
C77	C	-0.824250	0.075817	0.423445
C78	C	-0.872024	0.036991	0.701818
C79	C	-0.872023	0.036988	0.781067
C80	C	-0.776526	0.114644	0.781083
C81	C	-0.776524	0.114643	0.701835
C82	C	-0.824276	0.075817	0.662208
H83	H	-0.944547	-0.109664	-0.000129
H84	H	-0.480241	0.077703	-0.124630
Cl85	Cl	-0.716446	0.163440	0.168854
H86	H	-0.737643	0.146257	0.669583
H87	H	-0.910865	0.005369	0.186370
Cl88	Cl	-0.932024	-0.011825	0.347683
Cl89	Cl	-0.020024	0.072149	0.154756
H90	H	-0.612259	0.079300	0.124408
H91	H	-0.612346	0.079290	-0.124621
H92	H	-0.910905	0.005375	0.669552
H93	H	-0.703965	-0.738703	-0.000138
H94	H	-0.168266	0.073934	0.124371
H95	H	-0.942972	-0.217418	-0.000154
H96	H	-0.036249	0.072352	-0.124664
Cl97	Cl	-1.032582	-0.379781	-0.000189
H98	H	-0.713572	-0.084457	-0.000103
H99	H	-0.480149	0.077700	0.124390
Cl100	Cl	-0.932054	-0.011823	0.830864
Cl101	Cl	-0.617906	-0.334521	-0.000150
H102	H	-0.168354	0.073939	-0.124656
H103	H	-0.737616	0.146247	0.330173
H104	H	-0.737653	0.146256	0.813353
H105	H	-0.711984	-0.192228	-0.000097
Cl106	Cl	-0.964919	-0.646073	-0.000176
Cl107	Cl	-1.030615	-0.513831	-0.000183
Cl108	Cl	-0.962941	-0.780149	-0.000190
Cl109	Cl	-0.615931	-0.468577	-0.000156
Cl110	Cl	-0.677544	-0.614722	-0.000145
