data_functionalizedCrystal
_audit_creation_method	'MofGen! by Chris Wilmer'
_symmetry_space_group_name_H-M	'P1'
_symmetry_Int_Tables_number	1
_symmetry_cell_setting	triclinic
loop_
_symmetry_equiv_pos_as_xyz
  x,y,z
_cell_length_a	17.699083
_cell_length_b	14.971486
_cell_length_c	13.448316
_cell_angle_alpha	89.998199
_cell_angle_beta	90.000153
_cell_angle_gamma	96.551429
loop_
_atom_site_label
_atom_site_type_symbol
_atom_site_fract_x
_atom_site_fract_y
_atom_site_fract_z
O1	O	-0.098633	1.186608	-0.082563
O2	O	-0.110445	0.926168	-0.082588
O3	O	0.005632	1.063746	-0.082585
O4	O	-0.214710	1.049030	-0.082567
O5	O	0.005639	1.063729	0.082799
O6	O	-0.110438	0.926150	0.082796
O7	O	-0.098626	1.186591	0.082821
Cu8	Cu	-0.104531	1.056369	0.097909
Cu9	Cu	-0.104540	1.056390	-0.097676
O10	O	-0.214703	1.049013	0.082817
C11	C	-0.109913	0.892836	0.000100
C12	C	-0.108330	0.793544	0.000090
C13	C	-0.176522	0.736085	0.000097
C14	C	-0.175030	0.642790	0.000111
C15	C	-0.105346	0.606958	0.000112
C16	C	-0.037148	0.664425	0.000108
C17	C	-0.038641	0.757717	0.000100
C18	C	-0.034042	0.469973	0.000121
C19	C	-0.032549	0.376674	0.000127
C20	C	-0.170431	0.355046	0.000133
C21	C	-0.171924	0.448339	0.000125
C22	C	-0.103726	0.505799	0.000119
C23	C	-0.242905	1.049549	0.000128
C24	C	-0.326927	1.051131	0.000135
C25	C	-0.375349	0.970375	0.000127
C26	C	-0.454296	0.971867	0.000116
C27	C	-0.484819	1.054115	0.000119
C28	C	-0.436391	1.134877	0.000124
C29	C	-0.357445	1.133384	0.000129
C30	C	-0.754769	1.140898	0.000105
C31	C	-0.833720	1.142385	0.000104
C32	C	-0.851619	0.979381	0.000092
C33	C	-0.772674	0.977888	0.000097
C34	C	-0.724252	1.058649	0.000096
C35	C	-0.638649	1.057031	0.000107
C36	C	-0.570421	1.055734	0.000116
C37	C	0.033834	1.063210	0.000103
C38	C	0.117856	1.061628	0.000089
C39	C	-0.099158	1.219923	0.000130
C40	C	-0.100741	1.319214	0.000134
N41	N	-0.104525	1.056361	0.235473
N42	N	-0.104540	1.056404	-0.235241
C43	C	-0.053147	1.117300	0.287515
C44	C	-0.053147	1.117306	0.391619
C45	C	-0.104528	1.056376	0.443678
C46	C	-0.155908	0.995431	0.391629
C47	C	-0.155904	0.995422	0.287527
C48	C	-0.155913	0.995456	0.608609
C49	C	-0.155918	0.995466	0.712717
C50	C	-0.053155	1.117339	0.712700
C51	C	-0.053152	1.117330	0.608599
C52	C	-0.104533	1.056386	0.556557
H53	H	0.021492	0.516756	0.000118
H54	H	-0.715353	1.206659	0.000111
H55	H	0.019590	0.635242	0.000123
H56	H	-0.350504	0.903399	0.000136
H57	H	0.016888	0.804501	0.000094
Br58	Br	-0.291728	1.242985	0.000129
H59	H	-0.493719	0.906107	0.000106
Br60	Br	-0.731254	0.866262	0.000099
H61	H	-0.233267	0.765252	0.000096
H62	H	-0.197741	0.945817	0.434021
Br63	Br	0.016583	1.200001	0.216874
H64	H	-0.225960	0.308257	0.000142
H65	H	-0.461249	1.201845	0.000129
Br66	Br	0.062024	0.328044	0.000161
Br67	Br	-0.917339	0.869774	0.000090
H68	H	-0.858569	1.209365	0.000105
Br69	Br	-0.225629	0.912710	0.216899
Br70	Br	0.016573	1.200027	0.537943
H71	H	-0.197751	0.945826	0.566240
Br72	Br	-0.267581	0.564812	0.000118
H73	H	-0.011311	1.166926	0.433991
H74	H	-0.197757	0.945850	0.755099
H75	H	-0.228667	0.477510	0.000115
H76	H	-0.011319	1.166962	0.755079
