data_functionalizedCrystal
_audit_creation_method	'MofGen! by Chris Wilmer'
_symmetry_space_group_name_H-M	'P1'
_symmetry_Int_Tables_number	1
_symmetry_cell_setting	triclinic
loop_
_symmetry_equiv_pos_as_xyz
  x,y,z
_cell_length_a	21.295418
_cell_length_b	21.295417
_cell_length_c	21.395355
_cell_angle_alpha	89.979596
_cell_angle_beta	89.956257
_cell_angle_gamma	90.045515
loop_
_atom_site_label
_atom_site_type_symbol
_atom_site_fract_x
_atom_site_fract_y
_atom_site_fract_z
Zn1	Zn	0.962359	-0.250416	-0.354574
Zn2	Zn	0.962263	-0.355668	-0.249793
Zn3	Zn	0.857083	-0.250446	-0.249776
Zn4	Zn	0.857053	-0.355681	-0.354498
O5	O	0.909690	-0.303053	-0.302160
O6	O	1.050436	-0.264361	-0.340714
O7	O	0.948283	-0.341717	-0.162113
O8	O	0.871100	-0.162352	-0.263702
O9	O	1.050365	-0.341688	-0.263732
O10	O	0.948447	-0.162331	-0.340697
O11	O	0.871007	-0.264410	-0.162100
O12	O	0.768989	-0.264423	-0.263628
O13	O	0.871050	-0.341710	-0.442186
O14	O	0.768968	-0.341739	-0.340568
O15	O	0.948418	-0.264373	-0.442242
O16	O	0.948254	-0.443759	-0.263658
O17	O	0.870957	-0.443768	-0.340584
C18	C	0.909609	-0.466604	-0.302129
C19	C	0.909633	-0.536572	-0.302136
C20	C	0.746138	-0.303086	-0.302088
C21	C	0.676170	-0.303115	-0.302072
C22	C	0.949884	-0.569371	-0.342256
C23	C	0.949906	-0.635113	-0.342271
C24	C	0.909684	-0.668055	-0.302156
C25	C	0.869425	-0.635249	-0.262033
C26	C	0.869399	-0.569507	-0.262023
N27	N	0.904924	-0.771308	-0.247320
N28	N	0.904952	-0.833760	-0.247332
C29	C	0.909757	-0.866130	-0.302184
N30	N	0.914546	-0.833689	-0.357026
N31	N	0.914521	-0.771231	-0.357014
C32	C	0.909707	-0.739340	-0.302162
C33	C	0.950035	-0.970213	-0.342324
C34	C	0.950053	-1.035957	-0.342341
C35	C	0.869574	-1.036091	-0.262097
C36	C	0.869553	-0.970349	-0.262086
C37	C	0.909787	-0.937414	-0.302199
C38	C	0.643308	-0.343427	-0.342075
C39	C	0.577566	-0.343411	-0.342103
C40	C	0.544687	-0.303091	-0.302117
C41	C	0.577557	-0.262771	-0.262112
C42	C	0.643298	-0.262783	-0.262090
N43	N	0.441411	-0.298163	-0.247317
N44	N	0.378960	-0.298156	-0.247340
C45	C	0.346613	-0.303051	-0.302184
N46	N	0.379076	-0.307966	-0.357005
N47	N	0.441533	-0.307977	-0.356981
C48	C	0.473402	-0.303073	-0.302138
C49	C	0.242466	-0.343348	-0.342220
C50	C	0.176722	-0.343328	-0.342249
C51	C	0.176714	-0.262691	-0.262253
C52	C	0.242456	-0.262708	-0.262229
C53	C	0.275328	-0.303039	-0.302212
C54	C	1.073880	-0.303020	-0.302233
C55	C	1.143848	-0.303006	-0.302264
C56	C	0.909742	-0.303040	-0.465584
C57	C	0.909764	-0.303034	-0.535225
C58	C	0.909787	-0.138862	-0.302206
C59	C	0.909829	-0.068894	-0.302225
C60	C	0.950048	-0.262763	-0.567968
C61	C	0.950047	-0.262736	-0.633404
C62	C	0.909769	-0.302992	-0.666093
C63	C	0.869478	-0.343266	-0.633342
C64	C	0.869475	-0.343287	-0.567908
C65	C	0.904771	-0.359673	-0.769755
C66	C	0.904778	-0.359653	-0.835188
C67	C	0.909773	-0.302925	-0.867914
C68	C	0.914775	-0.246216	-0.835199
C69	C	0.914772	-0.246238	-0.769765
C70	C	0.909767	-0.302973	-0.737046
C71	C	0.950058	-0.262621	-0.971610
C72	C	0.950053	-0.262593	-1.037047
C73	C	0.869486	-0.343128	-1.036984
C74	C	0.869488	-0.343151	-0.971549
C75	C	0.909777	-0.302898	-0.938866
C76	C	0.909674	-0.303020	-0.139373
C77	C	0.909774	-0.302848	-0.069732
H78	H	0.982678	-0.661823	-0.374949
O79	O	0.141323	-0.386849	-0.385396
H80	H	0.111432	-0.358764	-0.417374
H81	H	0.918843	-0.200063	-0.743131
O82	O	0.542110	-0.386916	-0.385225
H83	H	0.576013	-0.414973	-0.413013
O84	O	0.826048	-0.670773	-0.218756
H85	H	0.832835	-0.721998	-0.225496
H86	H	0.982793	-0.943397	-0.374988
H87	H	0.550783	-0.229941	-0.229557
H88	H	0.269212	-0.229884	-0.229652
O89	O	0.920146	-0.185022	-0.870484
H90	H	0.919294	-0.194530	-0.921480
O91	O	0.899376	-0.420864	-0.734465
H92	H	0.941537	-0.427291	-0.704679
H93	H	0.982860	-0.229842	-0.944998
H94	H	0.836685	-0.375898	-1.063599
H95	H	0.982855	-0.229796	-1.063705
H96	H	0.836779	-0.943643	-0.229414
O97	O	0.826023	-0.386569	-0.936226
H98	H	0.798009	-0.414553	-0.969948
O99	O	0.678748	-0.219315	-0.218931
H100	H	0.644843	-0.191278	-0.191125
H101	H	0.269232	-0.376185	-0.374779
H102	H	0.900709	-0.405829	-0.861820
O103	O	0.826009	-0.386716	-0.532595
H104	H	0.836765	-0.436118	-0.545155
H105	H	0.149945	-0.229858	-0.229699
H106	H	0.982854	-0.229986	-0.541362
H107	H	0.836681	-0.376040	-0.659963
O108	O	0.993465	-1.071338	-0.385618
H109	H	1.042871	-1.058675	-0.374925
O110	O	0.993287	-0.533846	-0.385507
H111	H	1.021283	-0.567702	-0.413406
H112	H	0.836820	-1.062912	-0.229438
O113	O	0.825992	-0.534126	-0.218741
H114	H	0.798029	-0.568074	-0.190844
O115	O	0.678765	-0.386916	-0.385205
H116	H	0.644865	-0.414940	-0.413031
H117	H	0.982849	-0.229939	-0.660068
