data_functionalizedCrystal
_audit_creation_method	'MofGen! by Chris Wilmer'
_symmetry_space_group_name_H-M	'P1'
_symmetry_Int_Tables_number	1
_symmetry_cell_setting	triclinic
loop_
_symmetry_equiv_pos_as_xyz
  x,y,z
_cell_length_a	10.654549
_cell_length_b	16.992695
_cell_length_c	9.730217
_cell_angle_alpha	90.000100
_cell_angle_beta	89.995968
_cell_angle_gamma	92.422430
loop_
_atom_site_label
_atom_site_type_symbol
_atom_site_fract_x
_atom_site_fract_y
_atom_site_fract_z
O1	O	1.677360	-0.110203	-0.114325
O2	O	1.312789	-0.120697	-0.114321
O3	O	1.493613	-0.001299	-0.114312
O4	O	1.496536	-0.229601	-0.114334
O5	O	1.493601	-0.001307	0.114268
O6	O	1.312777	-0.120704	0.114259
O7	O	1.677348	-0.110210	0.114255
Zn8	Zn	1.495060	-0.115458	0.150549
Zn9	Zn	1.495077	-0.115449	-0.150615
O10	O	1.496524	-0.229608	0.114246
C11	C	1.265918	-0.119929	-0.000030
C12	C	1.126276	-0.117622	-0.000028
C13	C	0.848255	-0.256062	-0.000080
C14	C	0.906055	-0.328534	-0.000082
C15	C	1.037260	-0.330705	-0.000064
C16	C	1.110670	-0.260396	-0.000049
C17	C	1.052870	-0.187923	-0.000047
C18	C	0.921661	-0.185760	-0.000061
C19	C	1.068476	-0.045149	-0.000027
C20	C	0.937271	-0.042976	-0.000035
C21	C	1.141886	0.025160	-0.000012
C22	C	1.084086	0.097635	-0.000001
C23	C	0.952872	0.099803	-0.000017
C24	C	0.879471	0.029497	-0.000034
C25	C	1.489847	0.027930	-0.000022
C26	C	1.478627	0.115035	-0.000023
C27	C	1.724218	-0.110978	-0.000039
C28	C	1.863861	-0.113286	-0.000050
C29	C	1.500290	-0.258837	-0.000047
C30	C	1.511509	-0.345942	-0.000056
N31	N	1.495058	-0.115464	0.356085
C32	C	1.586878	0.164686	-0.000022
C33	C	1.576329	0.246530	-0.000035
C34	C	1.457528	0.278722	-0.000039
C35	C	1.349269	0.229065	-0.000043
C36	C	1.359819	0.147222	-0.000040
C37	C	1.413801	0.522558	-0.000057
C38	C	1.403259	0.604407	-0.000056
C39	C	1.630320	0.621866	-0.000051
C40	C	1.640860	0.540022	-0.000040
C41	C	1.532601	0.490372	-0.000051
N42	N	1.446742	0.362380	-0.000047
N43	N	1.543388	0.406716	-0.000052
N44	N	1.495088	-0.115437	-0.356152
C45	C	1.333143	-0.019376	0.643850
C46	C	1.252156	0.028644	0.571911
C47	C	1.252134	0.028629	0.428031
C48	C	1.333109	-0.019410	0.356087
C49	C	1.414095	-0.067430	0.428026
C50	C	1.414106	-0.067411	0.571909
C51	C	1.576044	-0.163484	0.428024
C52	C	1.576063	-0.163475	0.571904
C53	C	1.657019	-0.211523	0.356080
C54	C	1.738001	-0.259548	0.428019
C55	C	1.738019	-0.259532	0.571908
C56	C	1.657049	-0.211495	0.643843
H57	H	1.248720	0.023388	-0.000004
H58	H	1.683619	0.138482	-0.000011
N59	N	1.825334	-0.311348	0.350417
H60	H	1.774471	-0.349431	0.290735
H61	H	1.876624	-0.341718	0.417900
H62	H	1.718457	0.662300	-0.000044
N63	N	1.099616	-0.408868	-0.000059
H64	H	1.153722	-0.412941	-0.084787
H65	H	1.033138	-0.453035	-0.000022
N66	N	1.657193	-0.211487	0.799027
H67	H	1.743499	-0.194403	0.833538
H68	H	1.634514	-0.266297	0.833608
H69	H	1.657001	-0.211528	0.238926
N70	N	1.333085	-0.019425	0.200904
H71	H	1.396664	-0.057143	0.166244
H72	H	1.355720	0.035394	0.166337
N73	N	0.737956	0.031826	-0.000054
H74	H	0.709427	0.060377	-0.084791
H75	H	0.709491	0.060354	0.084734
H76	H	1.143866	0.154875	0.000002
H77	H	1.737600	0.513817	-0.000037
H78	H	0.905820	0.158819	-0.000024
N79	N	1.221131	0.263781	-0.000055
H80	H	1.230871	0.323163	-0.000052
H81	H	1.173395	0.245661	0.084682
H82	H	1.217504	-0.262170	-0.000050
N83	N	1.693084	0.300083	-0.000027
H84	H	1.769944	0.267270	-0.000012
H85	H	1.693636	0.334420	0.084710
H86	H	1.306512	0.630614	-0.000036
N87	N	1.297042	0.469013	-0.000064
H88	H	1.220184	0.501828	-0.000059
H89	H	1.296466	0.434676	0.084674
H90	H	1.271670	0.106797	-0.000040
N91	N	1.825391	-0.311312	0.649496
H92	H	1.876685	-0.341738	0.582083
H93	H	1.774477	-0.349344	0.709223
N94	N	1.333175	-0.019343	0.799033
H95	H	1.246923	-0.036417	0.833733
H96	H	1.355907	0.035478	0.833521
H97	H	1.186231	0.067757	0.630504
N98	N	1.164796	0.080425	0.350430
H99	H	1.113505	0.110861	0.417831
H100	H	1.106794	0.046569	0.290757
H101	H	0.741420	-0.254301	-0.000071
H102	H	0.846270	-0.385778	-0.000098
