data_functionalizedCrystal
_audit_creation_method	'MofGen! by Chris Wilmer'
_symmetry_space_group_name_H-M	'P1'
_symmetry_Int_Tables_number	1
_symmetry_cell_setting	triclinic
loop_
_symmetry_equiv_pos_as_xyz
  x,y,z
_cell_length_a	19.288835
_cell_length_b	13.930277
_cell_length_c	14.853567
_cell_angle_alpha	89.999243
_cell_angle_beta	83.379446
_cell_angle_gamma	89.984310
loop_
_atom_site_label
_atom_site_type_symbol
_atom_site_fract_x
_atom_site_fract_y
_atom_site_fract_z
O1	O	-0.921744	0.080011	-0.112333
O2	O	-0.719531	0.079971	-0.127533
O3	O	-0.826039	0.079995	0.011328
O4	O	-0.815236	0.079987	-0.251194
O5	O	-0.826024	-0.079667	0.011331
O6	O	-0.719516	-0.079691	-0.127530
O7	O	-0.921729	-0.079651	-0.112330
Zn8	Zn	-0.820620	-0.105021	-0.119930
Zn9	Zn	-0.820640	0.105341	-0.119933
O10	O	-0.815221	-0.079675	-0.251191
C11	C	-0.693645	0.000135	-0.127047
C12	C	-0.616536	0.000120	-0.125592
C13	C	-0.580338	0.087153	-0.124895
C14	C	-0.507886	0.087162	-0.123518
C15	C	-0.471637	0.000134	-0.122820
C16	C	-0.507843	-0.086910	-0.123523
C17	C	-0.580293	-0.086918	-0.124909
C18	C	-0.362117	-0.066529	-0.067818
C19	C	-0.289670	-0.066519	-0.066427
C20	C	-0.248178	0.000152	-0.118550
C21	C	-0.279145	0.066829	-0.172053
C22	C	-0.351594	0.066822	-0.173439
C23	C	-0.393078	0.000132	-0.121318
C24	C	-0.133420	0.087202	-0.116361
C25	C	-0.060966	0.087208	-0.114990
C26	C	-0.060925	-0.086868	-0.114986
C27	C	-0.133377	-0.086871	-0.116366
C28	C	-0.169620	0.000166	-0.117050
N29	N	-0.820612	-0.248587	-0.119926
C30	C	-0.773476	-0.700867	-0.181397
C31	C	-0.867822	-0.700815	-0.058463
C32	C	-0.867814	-0.600319	-0.058460
C33	C	-0.820637	-0.550092	-0.119927
C34	C	-0.773468	-0.600362	-0.181398
C35	C	-0.914987	-0.550042	0.003003
C36	C	-0.914981	-0.449540	0.003008
C37	C	-0.867800	-0.399312	-0.058456
C38	C	-0.820629	-0.449587	-0.119928
C39	C	-0.773452	-0.399361	-0.181396
C40	C	-0.726276	-0.449634	-0.242865
C41	C	-0.726287	-0.550133	-0.242862
C42	C	-0.867789	-0.298813	-0.058459
C43	C	-0.773443	-0.298856	-0.181397
C44	C	0.052386	0.000180	-0.112822
C45	C	-0.024722	0.000179	-0.114294
C46	C	-0.825542	0.000167	0.044916
C47	C	-0.824075	0.000175	0.144991
N48	N	-0.820654	0.248907	-0.119929
C49	C	-0.815718	0.000156	-0.284778
C50	C	-0.817185	0.000154	-0.384854
C51	C	-0.754607	0.000143	0.557120
C52	C	-0.881140	0.000168	0.579138
C53	C	-0.882519	0.000174	0.485112
C54	C	-0.819941	0.000163	0.427086
C55	C	-0.755984	0.000146	0.463085
C56	C	-0.946476	0.000181	0.449106
C57	C	-0.947857	0.000186	0.355075
C58	C	-0.885278	0.000182	0.297047
C59	C	-0.821319	0.000166	0.333051
C60	C	-0.758741	0.000155	0.275025
C61	C	-0.694780	0.000146	0.311027
C62	C	-0.693405	0.000141	0.405057
C63	C	-0.886653	0.000186	0.203017
C64	C	-0.760118	0.000158	0.180990
H65	H	-0.162850	-0.157743	-0.116928
H66	H	-0.687879	-0.591072	-0.292908
C67	C	-1.015306	0.000187	0.512939
N68	N	-1.067152	0.000192	0.561024
H69	H	-0.264463	-0.120806	-0.022857
C70	C	-0.173288	0.182944	-0.117129
N71	N	-0.203315	0.255058	-0.117711
H72	H	-0.709158	0.000153	0.133750
C73	C	-0.407751	-0.139876	-0.010472
N74	N	-0.442122	-0.195117	0.032721
C75	C	-0.674384	-0.394372	-0.310478
N76	N	-0.635299	-0.352745	-0.361401
H77	H	-0.953400	-0.590940	0.053044
H78	H	-0.953392	-0.408614	0.053059
H79	H	-0.999938	0.000195	0.325770
H80	H	-0.643829	0.000130	0.263770
H81	H	-0.932088	0.000169	0.626388
C82	C	-0.623055	0.000111	0.444668
N83	N	-0.570068	0.000080	0.474507
H84	H	-0.702532	0.000139	0.586438
C85	C	-0.721581	-0.756168	-0.249003
N86	N	-0.682492	-0.797822	-0.299923
C87	C	-0.919714	-0.756067	0.009148
N88	N	-0.958800	-0.797687	0.060076
C89	C	-0.385650	0.140122	-0.232339
N90	N	-0.411298	0.195316	-0.276722
C91	C	-0.721561	-0.243615	-0.249040
N92	N	-0.682490	-0.202008	-0.299999
H93	H	-0.938729	0.000187	0.173708
H94	H	-0.478324	-0.157770	-0.122957
H95	H	-0.609843	0.158026	-0.125451
H96	H	-0.245363	0.121116	-0.214501
C97	C	-0.468061	0.182909	-0.122745
N98	N	-0.438067	0.255026	-0.122160
C99	C	-0.021055	-0.182600	-0.114220
N100	N	0.008978	-0.254709	-0.113644
C101	C	-0.021149	0.182956	-0.114219
N102	N	0.008841	0.255076	-0.113635
H103	H	-0.906202	-0.257885	-0.008416
C104	C	-0.620112	-0.182665	-0.125668
N105	N	-0.650106	-0.254784	-0.126237
