data_functionalizedCrystal
_audit_creation_method	'MofGen! by Chris Wilmer'
_symmetry_space_group_name_H-M	'P1'
_symmetry_Int_Tables_number	1
_symmetry_cell_setting	triclinic
loop_
_symmetry_equiv_pos_as_xyz
  x,y,z
_cell_length_a	18.050590
_cell_length_b	18.050589
_cell_length_c	14.908308
_cell_angle_alpha	86.730698
_cell_angle_beta	86.705717
_cell_angle_gamma	90.017386
loop_
_atom_site_label
_atom_site_type_symbol
_atom_site_fract_x
_atom_site_fract_y
_atom_site_fract_z
Zn1	Zn	1.111098	-0.320072	0.509744
Zn2	Zn	1.611098	0.179928	1.009744
Zn3	Zn	1.118169	-0.437108	0.358894
Zn4	Zn	1.618169	0.062892	0.858894
Zn5	Zn	0.994075	-0.312915	0.358941
Zn6	Zn	1.494075	0.187085	0.858941
Zn7	Zn	0.986865	-0.444201	0.509746
Zn8	Zn	1.486865	0.055799	1.009746
O9	O	1.052552	-0.378574	0.434331
O10	O	1.552552	0.121426	0.934331
O11	O	1.215961	-0.335623	0.489712
O12	O	1.715961	0.164377	0.989712
O13	O	1.107684	-0.414670	0.232656
O14	O	1.607684	0.085330	0.732656
O15	O	1.009656	-0.209941	0.378964
O16	O	1.509656	0.290059	0.878964
O17	O	1.221156	-0.421610	0.378884
O18	O	1.721156	0.078390	0.878884
O19	O	1.095633	-0.215199	0.489758
O20	O	1.595633	0.284801	0.989758
O21	O	1.016513	-0.323426	0.232691
O22	O	1.516513	0.176574	0.732691
O23	O	0.889193	-0.330304	0.378966
O24	O	1.389193	0.169696	0.878966
O25	O	0.997368	-0.433698	0.635989
O26	O	1.497368	0.066302	1.135989
O27	O	0.883896	-0.426759	0.489762
O28	O	1.383896	0.073241	0.989762
O29	O	1.088642	-0.342501	0.635988
O30	O	1.588642	0.157499	1.135988
O31	O	1.100693	-0.541973	0.378886
O32	O	1.600693	-0.041973	0.878886
O33	O	1.004224	-0.547184	0.489716
O34	O	1.504224	-0.047184	0.989716
C35	C	0.859598	-0.378525	0.434370
C36	C	1.359598	0.121475	0.934370
C37	C	0.777050	-0.378523	0.434408
C38	C	1.277050	0.121477	0.934408
C39	C	0.574747	-0.431111	0.494516
C40	C	1.074747	0.068889	0.994516
C41	C	0.524301	-0.364447	0.516709
C42	C	1.024301	0.135553	1.016709
C43	C	0.625922	-0.378563	0.434364
C44	C	1.125922	0.121437	0.934364
C45	C	0.529287	-0.445265	0.412169
C46	C	1.029287	0.054735	0.912169
C47	C	0.479939	-0.378607	0.434323
C48	C	0.979939	0.121393	0.934323
C49	C	0.576560	-0.311865	0.456601
C50	C	1.076560	0.188135	0.956601
C51	C	0.581553	-0.392726	0.352022
C52	C	1.081553	0.107274	0.852022
C53	C	0.531130	-0.326015	0.374185
C54	C	1.031130	0.173985	0.874185
C55	C	0.710019	-0.378538	0.434390
C56	C	1.210019	0.121462	0.934390
C57	C	0.395843	-0.378623	0.434297
C58	C	0.895843	0.121377	0.934297
C59	C	1.052463	-0.571525	0.434316
C60	C	1.552463	-0.071525	0.934316
C61	C	1.052491	-0.654072	0.434340
C62	C	1.552491	-0.154072	0.934340
C63	C	1.000081	-0.856383	0.494588
C64	C	1.500081	-0.356383	0.994588
C65	C	0.985891	-0.901913	0.412273
C66	C	1.485891	-0.401913	0.912273
C67	C	1.052563	-0.805203	0.434352
C68	C	1.552563	-0.305203	0.934352
C69	C	1.066790	-0.906755	0.516676
C70	C	1.566790	-0.406755	1.016676
C71	C	1.052632	-0.951189	0.434370
C72	C	1.552632	-0.451189	0.934370
C73	C	1.038339	-0.849645	0.351993
C74	C	1.538339	-0.349645	0.851993
C75	C	1.119268	-0.854484	0.456451
C76	C	1.619268	-0.354484	0.956451
C77	C	1.105105	-0.899990	0.374079
C78	C	1.605105	-0.399990	0.874079
C79	C	1.052522	-0.721105	0.434342
C80	C	1.552522	-0.221105	0.934342
C81	C	1.052673	-1.035286	0.434370
C82	C	1.552673	-0.535286	0.934370
C83	C	1.246259	-0.378624	0.434292
C84	C	1.746259	0.121376	0.934292
C85	C	1.328805	-0.378645	0.434276
C86	C	1.828805	0.121355	0.934276
C87	C	1.041412	-0.389689	0.669637
C88	C	1.541412	0.110311	1.169637
C89	C	1.036665	-0.394426	0.769911
C90	C	1.536665	0.105574	1.269911
C91	C	1.052660	-0.184870	0.434366
C92	C	1.552660	0.315130	0.934366
C93	C	1.052706	-0.102325	0.434381
C94	C	1.552706	0.397675	0.934381
C95	C	1.063690	-0.367448	0.199940
C96	C	1.563690	0.132552	0.699940
C97	C	1.068581	-0.362503	0.099667
C98	C	1.568581	0.137497	0.599667
C99	C	1.122786	-0.308346	0.958335
C100	C	1.622786	0.191654	1.458335
C101	C	1.118328	-0.312794	1.052551
C102	C	1.618328	0.187206	1.552551
C103	C	1.023288	-0.407766	1.052560
C104	C	1.523288	0.092234	1.552560
C105	C	1.027746	-0.403318	0.958344
C106	C	1.527746	0.096682	1.458344
C107	C	1.077497	-0.353607	0.911235
C108	C	1.577497	0.146393	1.411235
C109	C	1.081958	-0.349163	0.817018
C110	C	1.581958	0.150837	1.317018
C111	C	0.986915	-0.444131	0.817028
C112	C	1.486915	0.055869	1.317028
C113	C	0.982457	-0.448579	0.911244
C114	C	1.482457	0.051421	1.411244
H115	H	0.499282	-0.352481	0.586327
H116	H	0.999282	0.147519	1.086327
Br117	Br	0.606822	-0.505063	0.579388
Br118	Br	1.106822	-0.005063	1.079388
H119	H	1.078797	-0.931712	0.586290
H120	H	1.578797	-0.431712	1.086290
Br121	Br	0.499279	-0.251903	0.289369
Br122	Br	0.999279	0.248097	0.789369
H123	H	0.597267	-0.255461	0.475434
H124	H	1.097267	0.244539	0.975434
Br125	Br	0.494612	-0.539251	0.380908
Br126	Br	0.994612	-0.039251	0.880908
Br127	Br	1.190313	-0.240894	0.894397
Br128	Br	1.690313	0.259106	1.394397
H129	H	1.149520	-0.919092	0.323088
H130	H	1.649520	-0.419092	0.823088
H131	H	0.950040	-0.480988	0.778669
H132	H	1.450040	0.019012	1.278669
Br133	Br	1.179790	-0.251362	1.116471
Br134	Br	1.679790	0.248638	1.616471
H135	H	0.955641	-0.837138	0.545456
H136	H	1.455641	-0.337138	1.045456
Br137	Br	0.914939	-0.516037	0.975186
Br138	Br	1.414939	-0.016037	1.475186
H139	H	1.026267	-0.824776	0.282360
H140	H	1.526267	-0.324776	0.782360
H141	H	0.606587	-0.404714	0.282425
H142	H	1.106587	0.095286	0.782425
Br143	Br	0.955767	-0.475217	1.116509
Br144	Br	1.455767	0.024783	1.616509
Br145	Br	0.891921	-0.936690	0.381117
Br146	Br	1.391921	-0.436690	0.881117
Br147	Br	1.213212	-0.819679	0.487642
Br148	Br	1.713212	-0.319679	0.987642
Br149	Br	1.149480	-0.281703	0.753084
Br150	Br	1.649480	0.218297	1.253084
