data_functionalizedCrystal
_audit_creation_method	'MofGen! by Chris Wilmer'
_symmetry_space_group_name_H-M	'P1'
_symmetry_Int_Tables_number	1
_symmetry_cell_setting	triclinic
loop_
_symmetry_equiv_pos_as_xyz
  x,y,z
_cell_length_a	10.654541
_cell_length_b	14.519709
_cell_length_c	9.730217
_cell_angle_alpha	89.995799
_cell_angle_beta	89.999932
_cell_angle_gamma	84.082037
loop_
_atom_site_label
_atom_site_type_symbol
_atom_site_fract_x
_atom_site_fract_y
_atom_site_fract_z
O1	O	1.666593	0.129520	-0.114251
O2	O	1.300995	0.141863	-0.114263
O3	O	1.493488	0.001504	-0.114245
O4	O	1.474101	0.269880	-0.114270
O5	O	1.493482	0.001502	0.114335
O6	O	1.300990	0.141862	0.114317
O7	O	1.666587	0.129519	0.114329
Zn8	Zn	1.483787	0.135690	0.150615
Zn9	Zn	1.483795	0.135692	-0.150549
O10	O	1.474095	0.269879	0.114310
C11	C	1.254203	0.140957	0.000025
C12	C	1.114786	0.138247	0.000021
C13	C	1.492581	-0.032862	0.000046
C14	C	1.489874	-0.135257	0.000046
C15	C	1.085201	0.306085	-0.000012
C16	C	1.004912	0.388727	-0.000034
C17	C	0.873919	0.386175	-0.000035
C18	C	0.823213	0.300972	-0.000010
C19	C	0.903502	0.218330	0.000012
C20	C	1.034496	0.220891	0.000009
C21	C	0.933086	0.050493	0.000055
C22	C	1.064080	0.053043	0.000046
C23	C	0.882380	-0.034710	0.000080
C24	C	0.962669	-0.117354	0.000092
C25	C	1.093670	-0.114798	0.000091
C26	C	1.144369	-0.029599	0.000068
C27	C	1.479906	-0.510204	0.000010
C28	C	1.482674	-0.405882	0.000021
C29	C	1.484890	-0.322734	0.000030
C30	C	1.487658	-0.218405	0.000037
C31	C	1.713380	0.130425	0.000037
C32	C	1.852797	0.133135	0.000033
C33	C	1.475002	0.304244	0.000017
C34	C	1.477709	0.406639	0.000007
N35	N	1.483791	0.135689	0.356151
N36	N	1.483801	0.135686	-0.356086
C37	C	1.654312	0.011436	0.356159
C38	C	1.739581	-0.050687	0.428102
C39	C	1.739594	-0.050688	0.571982
C40	C	1.654326	0.011440	0.643921
C41	C	1.569057	0.073564	0.571978
C42	C	1.569056	0.073559	0.428095
C43	C	1.398532	0.197810	0.571971
C44	C	1.398523	0.197816	0.428091
C45	C	1.313264	0.259938	0.643910
C46	C	1.227999	0.322067	0.571967
C47	C	1.227991	0.322066	0.428078
C48	C	1.313254	0.259940	0.356147
H49	H	1.046212	0.458098	-0.000051
C50	C	0.786949	0.476000	-0.000132
C51	C	0.859384	0.551164	-0.000185
C52	C	0.779312	0.633924	-0.000293
H53	H	0.735201	0.478626	0.079554
H54	H	0.735257	0.478533	-0.079878
H55	H	0.911054	0.548633	0.079554
H56	H	0.911129	0.548568	-0.079864
H57	H	0.727619	0.636456	-0.080040
H58	H	0.727568	0.636540	0.079394
H59	H	0.828446	0.684932	-0.000342
C60	C	1.180777	-0.204557	-0.000170
C61	C	1.157852	-0.255804	-0.117772
C62	C	1.238078	-0.338490	-0.118070
H63	H	1.165460	-0.239560	0.079457
H64	H	1.266074	-0.190876	-0.000252
H65	H	1.072575	-0.269487	-0.117678
H66	H	1.173177	-0.220829	-0.197419
H67	H	1.323375	-0.324809	-0.118152
H68	H	1.222755	-0.373485	-0.038438
H69	H	1.222543	-0.373267	-0.197867
C70	C	0.907689	-0.209879	0.000401
C71	C	0.948455	-0.259874	0.118023
C72	C	0.897815	-0.345108	0.118360
H73	H	0.935192	-0.244056	-0.079213
H74	H	0.818170	-0.199602	0.000480
H75	H	1.037954	-0.270154	0.117932
H76	H	0.920953	-0.225725	0.197656
H77	H	0.808297	-0.334832	0.118439
H78	H	0.925322	-0.379277	0.038742
H79	H	0.925458	-0.379037	0.198171
H80	H	1.313260	0.259936	0.238993
H81	H	0.716550	0.298901	0.000005
H82	H	1.251028	-0.027510	0.000051
C83	C	1.832302	-0.118181	0.649852
C84	C	1.906988	-0.172579	0.556065
C85	C	1.992411	-0.234758	0.627749
H86	H	1.787190	-0.156965	0.705992
H87	H	1.884718	-0.084669	0.705945
H88	H	1.854580	-0.206089	0.499996
H89	H	1.952128	-0.133821	0.499923
H90	H	2.044826	-0.201246	0.683841
H91	H	1.947288	-0.273535	0.683886
H92	H	2.043103	-0.271669	0.564126
H93	H	0.775717	-0.036782	0.000086
C94	C	1.135370	0.389363	0.650250
C95	C	1.058424	0.339699	0.732879
C96	C	0.973090	0.401662	0.805033
H97	H	1.084464	0.426393	0.586961
H98	H	1.180592	0.428047	0.706457
H99	H	1.013204	0.301031	0.676677
H100	H	1.109294	0.302673	0.796193
H101	H	1.018313	0.440347	0.861241
H102	H	0.922193	0.438689	0.741735
H103	H	0.920880	0.367975	0.861115
C104	C	1.654153	0.011616	0.199946
C105	C	1.561250	0.079332	0.152338
C106	C	1.561079	0.079531	0.008443
H107	H	1.636801	-0.047392	0.167229
H108	H	1.734413	0.024842	0.167345
H109	H	1.481008	0.066100	0.184925
H110	H	1.578581	0.138350	0.185018
H111	H	1.641339	0.092757	-0.024158
H112	H	1.543730	0.020520	-0.024261
H113	H	1.498054	0.125481	-0.023877
C114	C	1.135555	0.389666	0.350046
C115	C	1.156125	0.480434	0.385013
C116	C	1.071008	0.542733	0.313149
H117	H	1.051673	0.379194	0.373574
H118	H	1.147763	0.380836	0.254039
H119	H	1.143907	0.489261	0.480999
H120	H	1.239991	0.490935	0.361481
H121	H	1.083216	0.533903	0.217142
H122	H	0.987131	0.532253	0.336683
H123	H	1.084960	0.604326	0.336855
H124	H	1.191861	0.308172	-0.000042
H125	H	1.809004	-0.101273	0.369517
H126	H	1.313273	0.259931	0.761065
H127	H	1.654332	0.011428	0.761076
