data_functionalizedCrystal
_audit_creation_method	'MofGen! by Chris Wilmer'
_symmetry_space_group_name_H-M	'P1'
_symmetry_Int_Tables_number	1
_symmetry_cell_setting	triclinic
loop_
_symmetry_equiv_pos_as_xyz
  x,y,z
_cell_length_a	16.120530
_cell_length_b	12.645330
_cell_length_c	16.120297
_cell_angle_alpha	92.876762
_cell_angle_beta	90.128140
_cell_angle_gamma	87.113442
loop_
_atom_site_label
_atom_site_type_symbol
_atom_site_fract_x
_atom_site_fract_y
_atom_site_fract_z
Zn1	Zn	1.247482	-0.537081	-0.534595
Zn2	Zn	1.747482	-0.037081	-0.034595
Zn3	Zn	1.254445	-0.705843	-0.395547
Zn4	Zn	1.754445	-0.205843	0.104453
Zn5	Zn	1.115471	-0.519167	-0.388512
Zn6	Zn	1.615471	-0.019167	0.111488
Zn7	Zn	1.108402	-0.704866	-0.527517
Zn8	Zn	1.608402	-0.204866	-0.027517
O9	O	1.181450	-0.616739	-0.461543
O10	O	1.681450	-0.116739	0.038457
O11	O	1.364772	-0.567373	-0.522057
O12	O	1.864772	-0.067373	-0.022057
O13	O	1.241883	-0.673991	-0.278248
O14	O	1.741883	-0.173991	0.221752
O15	O	1.133026	-0.373200	-0.407909
O16	O	1.633026	0.126800	0.092091
O17	O	1.369888	-0.691362	-0.419899
O18	O	1.869888	-0.191362	0.080101
O19	O	1.230014	-0.386361	-0.515235
O20	O	1.730014	0.113639	-0.015235
O21	O	1.139779	-0.536842	-0.273080
O22	O	1.639779	-0.036842	0.226920
O23	O	0.998166	-0.535895	-0.401045
O24	O	1.498166	-0.035895	0.098955
O25	O	1.120978	-0.689698	-0.644821
O26	O	1.620978	-0.189698	-0.144821
O27	O	0.992972	-0.672327	-0.503171
O28	O	1.492972	-0.172327	-0.003171
O29	O	1.223160	-0.566427	-0.650022
O30	O	1.723160	-0.066427	-0.150022
O31	O	1.235028	-0.854056	-0.413035
O32	O	1.735028	-0.354056	0.086965
O33	O	1.127731	-0.853339	-0.509992
O34	O	1.627731	-0.353339	-0.009992
C35	C	0.965397	-0.602062	-0.450577
C36	C	1.465397	-0.102062	0.049423
C37	C	0.872967	-0.595810	-0.445905
C38	C	1.372967	-0.095810	0.054095
C39	C	1.181390	-0.892164	-0.461528
C40	C	1.681390	-0.392164	0.038472
C41	C	1.181439	-1.009999	-0.461554
C42	C	1.681439	-0.509999	0.038446
C43	C	0.703737	-0.584371	-0.437383
C44	C	1.203737	-0.084371	0.062617
C45	C	0.660000	-0.649190	-0.485763
C46	C	1.160000	-0.149190	0.014237
C47	C	0.565835	-0.642825	-0.481022
C48	C	1.065835	-0.142825	0.018978
C49	C	0.797911	-0.590734	-0.442124
C50	C	1.297911	-0.090734	0.057876
C51	C	1.114193	-1.177186	-0.522761
C52	C	1.614193	-0.677186	-0.022761
C53	C	1.113876	-1.054592	-0.522537
C54	C	1.613876	-0.554592	-0.022537
C55	C	1.162161	-1.047614	-0.372717
C56	C	1.662161	-0.547614	0.127283
C57	C	1.161751	-1.170210	-0.373088
C58	C	1.661751	-0.670210	0.126912
C59	C	1.268390	-1.184441	-0.488492
C60	C	1.768390	-0.684441	0.011508
C61	C	1.267753	-1.061915	-0.490381
C62	C	1.767753	-0.561915	0.009619
C63	C	1.398347	-0.631475	-0.472552
C64	C	1.898347	-0.131475	0.027448
C65	C	1.490775	-0.637754	-0.477244
C66	C	1.990775	-0.137754	0.022756
C67	C	1.170504	-0.629952	-0.678438
C68	C	1.670504	-0.129952	-0.178438
C69	C	1.165839	-0.635582	-0.770865
C70	C	1.665839	-0.135582	-0.270865
C71	C	1.181532	-0.340242	-0.461577
C72	C	1.681532	0.159758	0.038423
C73	C	1.181567	-0.222415	-0.461592
C74	C	1.681567	0.277585	0.038408
C75	C	1.157292	-0.645836	-0.940091
C76	C	1.657292	-0.145836	-0.440091
C77	C	1.205771	-0.587337	-0.983855
C78	C	1.705771	-0.087337	-0.483855
C79	C	1.201016	-0.593042	-1.078018
C80	C	1.701016	-0.093042	-0.578018
C81	C	1.162047	-0.640132	-0.845919
C82	C	1.662047	-0.140132	-0.345919
C83	C	1.192401	-0.603505	-0.245494
C84	C	1.692401	-0.103505	0.254506
C85	C	1.197227	-0.597587	-0.153075
C86	C	1.697227	-0.097587	0.346925
H87	H	0.693277	-0.709462	-0.530745
H88	H	1.193277	-0.209462	-0.030745
H89	H	1.125592	-1.211590	-0.588700
H90	H	1.625592	-0.711590	-0.088700
H91	H	1.209874	-1.018501	-0.325700
H92	H	1.709874	-0.518501	0.174300
C93	C	0.658783	-0.502954	-0.376615
C94	C	1.158783	-0.002954	0.123385
N95	N	0.624915	-0.441634	-0.330843
N96	N	1.124915	0.058366	0.169157
C97	C	1.336129	-1.224102	-0.428382
C98	C	1.836129	-0.724102	0.071618
N99	N	1.387144	-1.253982	-0.383105
N100	N	1.887144	-0.753982	0.116895
H101	H	1.282372	-1.037930	-0.555782
H102	H	1.782372	-0.537930	-0.055782
H103	H	1.250846	-0.532968	-0.950605
H104	H	1.750846	-0.032968	-0.450605
H105	H	1.049419	-1.020022	-0.504364
H106	H	1.549419	-0.520022	-0.004364
C107	C	1.076185	-1.201507	-0.343007
C108	C	1.576185	-0.701507	0.156993
N109	N	1.011733	-1.225075	-0.320352
N110	N	1.511733	-0.725075	0.179648
C111	C	1.129471	-1.020592	-0.611340
C112	C	1.629471	-0.520592	-0.111340
N113	N	1.141214	-0.994988	-0.678230
N114	N	1.641214	-0.494988	-0.178230
H115	H	1.050134	-1.202791	-0.504798
H116	H	1.550134	-0.702791	-0.004798
C117	C	1.225484	-1.210262	-0.309086
C118	C	1.725484	-0.710262	0.190914
N119	N	1.273483	-1.240424	-0.260876
N120	N	1.773483	-0.740424	0.239124
C121	C	1.096399	-0.719277	-0.985009
C122	C	1.596399	-0.219277	-0.485009
N123	N	1.050536	-0.774593	-1.018851
N124	N	1.550536	-0.274593	-0.518851
H125	H	1.099513	-1.011500	-0.350136
H126	H	1.599513	-0.511500	0.149864
H127	H	1.286844	-1.220602	-0.552405
H128	H	1.786844	-0.720602	-0.052405
H129	H	1.320237	-1.032010	-0.449427
H130	H	1.820237	-0.532010	0.050573
