data_functionalizedCrystal
_audit_creation_method	'MofGen! by Chris Wilmer'
_symmetry_space_group_name_H-M	'P1'
_symmetry_Int_Tables_number	1
_symmetry_cell_setting	triclinic
loop_
_symmetry_equiv_pos_as_xyz
  x,y,z
_cell_length_a	10.654538
_cell_length_b	10.540539
_cell_length_c	9.730223
_cell_angle_alpha	90.000775
_cell_angle_beta	90.002634
_cell_angle_gamma	95.497207
loop_
_atom_site_label
_atom_site_type_symbol
_atom_site_fract_x
_atom_site_fract_y
_atom_site_fract_z
O1	O	-1.667905	0.178224	-0.114360
O2	O	-1.302431	0.195227	-0.114346
O3	O	-1.493506	0.002016	-0.114352
O4	O	-1.476830	0.371435	-0.114354
O5	O	-1.493504	0.002020	0.114228
O6	O	-1.302429	0.195232	0.114234
O7	O	-1.667903	0.178229	0.114220
Zn8	Zn	-1.485166	0.186731	0.150519
Zn9	Zn	-1.485168	0.186725	-0.150645
O10	O	-1.476828	0.371440	0.114226
C11	C	-1.255631	0.193984	-0.000054
C12	C	-1.116186	0.190258	-0.000048
C13	C	-1.492254	-0.045285	-0.000064
C14	C	-1.488513	-0.186231	-0.000071
C15	C	-1.050691	0.188493	-0.124652
C16	C	-0.919669	0.184982	-0.124659
C17	C	-0.919648	0.184997	0.124552
C18	C	-1.050667	0.188517	0.124557
C19	C	-1.116211	0.190234	-0.249257
C20	C	-1.050716	0.188466	-0.373871
C21	C	-0.919694	0.184955	-0.373878
C22	C	-0.854166	0.183212	-0.249272
C23	C	-1.345141	-0.369600	-0.000578
C24	C	-1.348934	-0.222984	-0.000064
C25	C	-1.555683	-0.247913	0.130456
C26	C	-1.550920	-0.394456	0.130566
C27	C	-1.553761	-0.394980	-0.129372
C28	C	-1.555047	-0.247999	-0.131098
C29	C	-0.714702	0.179479	-0.000068
C30	C	-0.854145	0.183227	-0.000061
C31	C	-1.478080	0.418740	-0.000065
C32	C	-1.481821	0.559687	-0.000067
N33	N	-1.485173	0.186735	0.356055
N34	N	-1.485171	0.186711	-0.356181
C35	C	-1.569803	0.101210	0.427979
C36	C	-1.569800	0.101195	0.571862
C37	C	-1.400532	0.272240	0.571885
C38	C	-1.400530	0.272248	0.428005
C39	C	-1.654445	0.015697	0.356029
C40	C	-1.739083	-0.069834	0.427953
C41	C	-1.739080	-0.069850	0.571836
C42	C	-1.654439	0.015666	0.643795
H43	H	-1.222896	0.193090	-0.249265
H44	H	-1.104077	0.189897	-0.475320
F45	F	-1.279360	-0.168368	0.122442
H46	H	-0.866370	0.183529	-0.475344
H47	H	-0.747477	0.180367	-0.249288
F48	F	-0.849904	0.183138	0.257156
F49	F	-1.310453	0.363272	0.351458
H50	H	-1.103993	0.189962	0.226020
F51	F	-1.688059	-0.216388	-0.141415
F52	F	-1.279851	-0.167269	-0.122363
H53	H	-1.654435	0.015637	0.760954
H54	H	-1.290227	-0.399784	0.092505
F55	F	-1.273069	-0.406952	-0.122926
F56	F	-1.829147	-0.160886	0.648380
F57	F	-1.486027	-0.431289	0.258102
H58	H	-1.654578	-0.442247	-0.130254
F59	F	-1.682124	-0.457210	0.138316
F60	F	-1.689663	-0.218751	0.136799
H61	H	-1.509021	-0.205293	0.227595
F62	F	-1.494707	-0.436187	-0.258684
H63	H	-1.505899	-0.207123	-0.227658
H64	H	-1.654458	0.015704	0.238872
H65	H	-1.331621	0.341864	0.630484
H66	H	-1.807989	-0.139465	0.369356
