data_functionalizedCrystal
_audit_creation_method	'MofGen! by Chris Wilmer'
_symmetry_space_group_name_H-M	'P1'
_symmetry_Int_Tables_number	1
_symmetry_cell_setting	triclinic
loop_
_symmetry_equiv_pos_as_xyz
  x,y,z
_cell_length_a	16.992694
_cell_length_b	16.992695
_cell_length_c	16.053802
_cell_angle_alpha	92.741074
_cell_angle_beta	87.249047
_cell_angle_gamma	90.668223
loop_
_atom_site_label
_atom_site_type_symbol
_atom_site_fract_x
_atom_site_fract_y
_atom_site_fract_z
O1	O	1.053959	0.163815	-0.069325
O2	O	0.825560	0.161983	-0.069350
O3	O	0.938844	0.048699	-0.069331
O4	O	0.940676	0.277099	-0.069344
O5	O	0.932607	0.054907	0.069527
O6	O	0.819323	0.168191	0.069508
O7	O	1.047722	0.170023	0.069533
Zn8	Zn	0.932532	0.170093	0.091567
Zn9	Zn	0.940750	0.161913	-0.091384
O10	O	0.934438	0.283307	0.069514
C11	C	0.793082	0.162731	0.000076
C12	C	0.705597	0.155702	0.000067
C13	C	0.659607	0.223520	0.000064
C14	C	0.577405	0.216911	0.000076
C15	C	0.541197	0.142484	0.000085
C16	C	0.587193	0.074661	0.000091
C17	C	0.669393	0.081270	0.000085
C18	C	0.295881	0.115090	0.000109
C19	C	0.213676	0.108486	0.000112
C20	C	0.203893	0.250737	0.000099
C21	C	0.286095	0.257339	0.000088
C22	C	0.332084	0.189517	0.000098
N23	N	0.457174	0.135727	0.000094
N24	N	0.416105	0.196275	0.000094
C25	C	0.933370	0.022443	0.000098
C26	C	0.926341	-0.065042	0.000097
C27	C	0.994158	-0.111032	0.000105
C28	C	0.987550	-0.193233	0.000096
C29	C	0.913123	-0.229442	0.000086
C30	C	0.845300	-0.183446	0.000075
C31	C	0.851910	-0.101246	0.000078
C32	C	0.885729	-0.474757	0.000071
C33	C	0.879124	-0.556962	0.000071
C34	C	1.021375	-0.566745	0.000091
C35	C	1.027978	-0.484543	0.000099
C36	C	0.960155	-0.438554	0.000083
N37	N	0.906366	-0.313465	0.000079
N38	N	0.966913	-0.354533	0.000084
C39	C	1.080201	0.169275	0.000105
C40	C	1.167685	0.176304	0.000109
C41	C	0.939913	0.309563	0.000084
C42	C	0.946942	0.397047	0.000079
N43	N	0.926930	0.175675	0.216427
N44	N	0.946358	0.156325	-0.216243
C45	C	0.975152	0.127492	0.260129
C46	C	0.971241	0.131404	0.347535
C47	C	0.919110	0.183504	0.391237
C48	C	0.870883	0.231689	0.347529
C49	C	0.874791	0.227772	0.260125
C50	C	0.902039	0.200593	0.652644
C51	C	0.898136	0.204508	0.740055
C52	C	0.998493	0.104222	0.740054
C53	C	1.002400	0.100313	0.652648
C54	C	0.954169	0.148494	0.608948
N55	N	0.915113	0.187507	0.480580
N56	N	0.958163	0.144487	0.519606
H57	H	0.689081	0.284126	0.000056
O58	O	0.820171	0.282315	0.389850
C59	C	0.778459	0.324014	0.332531
H60	H	0.778338	0.288892	0.270232
H61	H	0.715216	0.333175	0.357791
H62	H	0.808091	0.383695	0.323222
H63	H	0.333316	0.059864	0.000118
H64	H	0.539963	0.272136	0.000072
H65	H	0.557705	0.014061	0.000110
H66	H	0.796685	-0.063801	0.000071
O67	O	0.714097	0.015421	0.000232
C68	C	0.758732	0.018214	0.072135
H69	H	0.728933	0.058831	0.122398
H70	H	0.762912	-0.043537	0.096279
H71	H	0.820443	0.041603	0.055871
O72	O	1.045219	0.057333	0.782545
C73	C	0.997757	0.008384	0.833132
H74	H	0.936772	0.001952	0.806799
H75	H	1.025907	-0.052111	0.834132
H76	H	0.992212	0.035728	0.899370
H77	H	0.830503	-0.437322	0.000059
H78	H	1.054765	-0.081557	0.000119
O79	O	0.847560	0.255100	0.782638
C80	C	0.854446	0.248212	0.869154
H81	H	0.914657	0.223287	0.881081
H82	H	0.847935	0.308761	0.902364
H83	H	0.806314	0.207021	0.893976
O84	O	0.806831	-0.592164	0.000204
C85	C	0.795524	-0.636220	0.072110
H86	H	0.835615	-0.611978	0.122382
H87	H	0.731458	-0.631747	0.096237
H88	H	0.810356	-0.700558	0.055856
O89	O	0.773060	-0.218741	0.000101
C90	C	0.781767	-0.301155	0.000082
H91	H	0.840808	-0.315414	0.026378
H92	H	0.732021	-0.327469	0.040392
H93	H	0.779512	-0.327226	-0.066535
O94	O	1.018058	0.084491	0.389890
C95	C	1.001338	0.004797	0.368561
H96	H	0.973832	0.000128	0.305107
H97	H	1.058222	-0.030351	0.365561
H98	H	0.958441	-0.019831	0.417766
O99	O	1.053506	-0.237789	0.000147
C100	C	1.120614	-0.188205	0.000144
H101	H	1.103290	-0.127003	0.026431
H102	H	1.166633	-0.213577	0.040468
H103	H	1.146186	-0.183940	-0.066468
O104	O	0.321137	0.329701	0.000121
C105	C	0.262918	0.388143	0.000100
H106	H	0.204580	0.363758	0.026394
H107	H	0.281442	0.441598	0.040409
H108	H	0.255654	0.406330	-0.066518
O109	O	1.100215	-0.449245	0.000137
C110	C	1.091507	-0.366832	0.000115
H111	H	1.030105	-0.350227	0.026401
H112	H	1.137633	-0.336916	0.040431
H113	H	1.099741	-0.346713	-0.066502
O114	O	0.855163	0.247479	0.610330
C115	C	0.808305	0.294290	0.667649
H116	H	0.837854	0.300011	0.729947
H117	H	0.801359	0.355266	0.642388
H118	H	0.747812	0.265448	0.676962
O119	O	1.053056	0.049631	0.610327
C120	C	1.094795	0.007955	0.667644
H121	H	1.059681	0.007815	0.729954
H122	H	1.103997	-0.055283	0.642398
H123	H	1.154456	0.037631	0.676926
O124	O	0.828064	0.274614	0.217578
C125	C	0.875521	0.323593	0.167019
H126	H	0.935741	0.295551	0.153922
H127	H	0.846191	0.331211	0.105558
H128	H	0.883004	0.383621	0.200691
O129	O	1.087175	-0.611537	0.000061
C130	C	1.065386	-0.691852	0.000077
H131	H	1.004538	-0.700049	-0.026217
H132	H	1.110108	-0.728015	-0.040235
H133	H	1.063892	-0.712438	0.066694
H134	H	0.166440	0.305954	0.000092
H135	H	1.017605	0.085070	0.224552
O136	O	0.178626	0.036124	0.000157
C137	C	0.236844	-0.022323	0.000143
H138	H	0.292827	0.004410	0.026432
H139	H	0.214704	-0.072172	0.040460
H140	H	0.250077	-0.046468	-0.066473
