data_functionalizedCrystal
_audit_creation_method	'MofGen! by Chris Wilmer'
_symmetry_space_group_name_H-M	'P1'
_symmetry_Int_Tables_number	1
_symmetry_cell_setting	triclinic
loop_
_symmetry_equiv_pos_as_xyz
  x,y,z
_cell_length_a	11.792254
_cell_length_b	14.044220
_cell_length_c	12.503572
_cell_angle_alpha	86.156832
_cell_angle_beta	93.542595
_cell_angle_gamma	88.693738
loop_
_atom_site_label
_atom_site_type_symbol
_atom_site_fract_x
_atom_site_fract_y
_atom_site_fract_z
O1	O	1.525101	0.124591	0.089323
O2	O	1.196019	0.137975	0.089326
O3	O	1.355620	-0.006726	0.089314
O4	O	1.365500	0.269293	0.089335
O5	O	1.343619	0.004174	-0.089327
O6	O	1.184018	0.148876	-0.089316
O7	O	1.513100	0.135492	-0.089318
Cu8	Cu	1.347463	0.143179	-0.105628
Cu9	Cu	1.361656	0.130288	0.105636
O10	O	1.353499	0.280193	-0.089306
C11	C	1.147648	0.142582	0.000005
C12	C	1.021398	0.140059	0.000006
C13	C	0.918870	0.138008	0.000010
C14	C	0.790242	0.135444	0.000011
C15	C	1.345295	-0.036613	-0.000007
C16	C	1.332396	-0.141905	-0.000009
C17	C	1.308815	-0.334690	0.000007
C18	C	1.400300	-0.391849	0.000010
C19	C	1.387179	-0.499121	0.000018
C20	C	1.321934	-0.227408	-0.000002
C21	C	1.561471	0.130885	0.000004
C22	C	1.687721	0.133408	0.000011
C23	C	1.363824	0.310080	0.000017
C24	C	1.376724	0.415372	0.000025
N25	N	1.337489	0.152245	-0.254220
C26	C	1.322817	0.165591	-0.473334
C27	C	1.386306	0.107872	-0.526666
C28	C	1.378143	0.115298	-0.648588
C29	C	1.330979	0.158166	-0.351400
N30	N	1.371638	0.121214	0.254227
H31	H	1.488481	-0.360226	0.000081
H32	H	1.220645	-0.366316	0.000010
H33	H	1.446793	0.052882	-0.480757
H34	H	1.262336	0.220578	-0.519237
