data_functionalizedCrystal
_audit_creation_method	'MofGen! by Chris Wilmer'
_symmetry_space_group_name_H-M	'P1'
_symmetry_Int_Tables_number	1
_symmetry_cell_setting	triclinic
loop_
_symmetry_equiv_pos_as_xyz
  x,y,z
_cell_length_a	13.897449
_cell_length_b	18.050590
_cell_length_c	13.897441
_cell_angle_alpha	89.966994
_cell_angle_beta	89.979267
_cell_angle_gamma	90.019832
loop_
_atom_site_label
_atom_site_type_symbol
_atom_site_fract_x
_atom_site_fract_y
_atom_site_fract_z
Zn1	Zn	1.474697	-0.295610	-0.545365
Zn2	Zn	1.724697	-0.045610	-0.295365
Zn3	Zn	1.974697	0.204390	-0.045365
Zn4	Zn	2.224697	0.454390	0.204635
Zn5	Zn	1.474588	-0.419815	-0.384060
Zn6	Zn	1.724588	-0.169815	-0.134060
Zn7	Zn	1.974588	0.080185	0.115940
Zn8	Zn	2.224588	0.330185	0.365940
Zn9	Zn	1.313386	-0.295646	-0.384083
Zn10	Zn	1.563386	-0.045646	-0.134083
Zn11	Zn	1.813386	0.204354	0.115917
Zn12	Zn	2.063386	0.454354	0.365917
Zn13	Zn	1.313365	-0.419766	-0.545312
Zn14	Zn	1.563365	-0.169766	-0.295312
Zn15	Zn	1.813365	0.080234	-0.045312
Zn16	Zn	2.063365	0.330234	0.204688
O17	O	1.394009	-0.357709	-0.464705
O18	O	1.644009	-0.107709	-0.214705
O19	O	1.894009	0.142291	0.035295
O20	O	2.144009	0.392291	0.285295
O21	O	1.609664	-0.312092	-0.523980
O22	O	1.859664	-0.062092	-0.273980
O23	O	2.109664	0.187908	-0.023980
O24	O	2.359664	0.437908	0.226020
O25	O	1.453168	-0.403379	-0.249081
O26	O	1.703168	-0.153379	0.000919
O27	O	1.953168	0.096621	0.250919
O28	O	2.203168	0.346621	0.500919
O29	O	1.334838	-0.191716	-0.405510
O30	O	1.584838	0.058284	-0.155510
O31	O	1.834838	0.308284	0.094490
O32	O	2.084838	0.558284	0.344490
O33	O	1.609584	-0.403344	-0.405469
O34	O	1.859584	-0.153344	-0.155469
O35	O	2.109584	0.096656	0.094531
O36	O	2.359584	0.346656	0.344531
O37	O	1.453353	-0.191690	-0.524003
O38	O	1.703353	0.058310	-0.274003
O39	O	1.953353	0.308310	-0.024003
O40	O	2.203353	0.558310	0.225997
O41	O	1.334733	-0.312152	-0.249099
O42	O	1.584733	-0.062152	0.000901
O43	O	1.834733	0.187848	0.250901
O44	O	2.084733	0.437848	0.500901
O45	O	1.178402	-0.312105	-0.405459
O46	O	1.428402	-0.062105	-0.155459
O47	O	1.678402	0.187895	0.094541
O48	O	1.928402	0.437895	0.344541
O49	O	1.334803	-0.403261	-0.680301
O50	O	1.584803	-0.153261	-0.430301
O51	O	1.834803	0.096739	-0.180301
O52	O	2.084803	0.346739	0.069699
O53	O	1.178386	-0.403295	-0.523913
O54	O	1.428386	-0.153295	-0.273913
O55	O	1.678386	0.096705	-0.023913
O56	O	1.928386	0.346705	0.226087
O57	O	1.453333	-0.312045	-0.680340
O58	O	1.703333	-0.062045	-0.430340
O59	O	1.953333	0.187955	-0.180340
O60	O	2.203333	0.437955	0.069660
O61	O	1.453148	-0.523733	-0.405418
O62	O	1.703148	-0.273733	-0.155418
O63	O	1.953148	-0.023733	0.094582
O64	O	2.203148	0.226267	0.344582
O65	O	1.334698	-0.523697	-0.523890
O66	O	1.584698	-0.273697	-0.273890
O67	O	1.834698	-0.023697	-0.023890
O68	O	2.084698	0.226303	0.226110
C69	C	1.143395	-0.357699	-0.464683
C70	C	1.393395	-0.107699	-0.214683
C71	C	1.643395	0.142301	0.035317
C72	C	1.893395	0.392301	0.285317
C73	C	1.036181	-0.357713	-0.464697
C74	C	1.286181	-0.107713	-0.214697
C75	C	1.536181	0.142287	0.035303
C76	C	1.786181	0.392287	0.285303
C77	C	0.839886	-0.357716	-0.464722
C78	C	1.089886	-0.107716	-0.214722
C79	C	1.339886	0.142284	0.035278
C80	C	1.589886	0.392284	0.285278
C81	C	0.949118	-0.357712	-0.464705
C82	C	1.199118	-0.107712	-0.214705
C83	C	1.449118	0.142288	0.035295
C84	C	1.699118	0.392288	0.285295
C85	C	1.393935	-0.550661	-0.464667
C86	C	1.643935	-0.300661	-0.214667
C87	C	1.893935	-0.050661	0.035333
C88	C	2.143935	0.199339	0.285333
C89	C	1.393991	-0.633207	-0.464682
C90	C	1.643991	-0.383207	-0.214682
C91	C	1.893991	-0.133207	0.035318
C92	C	2.143991	0.116793	0.285318
C93	C	1.458539	-0.832650	-0.400348
C94	C	1.708539	-0.582650	-0.150348
C95	C	1.958539	-0.332650	0.099652
C96	C	2.208539	-0.082650	0.349652
C97	C	1.482104	-0.881977	-0.488383
C98	C	1.732104	-0.631977	-0.238383
C99	C	1.982104	-0.381977	0.011617
C100	C	2.232104	-0.131977	0.261617
C101	C	1.394046	-0.784337	-0.464721
C102	C	1.644046	-0.534337	-0.214721
C103	C	1.894046	-0.284337	0.035279
C104	C	2.144046	-0.034337	0.285279
C105	C	1.370579	-0.882092	-0.376725
C106	C	1.620579	-0.632092	-0.126725
C107	C	1.870579	-0.382092	0.123275
C108	C	2.120579	-0.132092	0.373275
C109	C	1.394101	-0.930322	-0.464750
C110	C	1.644101	-0.680322	-0.214750
C111	C	1.894101	-0.430322	0.035250
C112	C	2.144101	-0.180322	0.285250
C113	C	1.417657	-0.832577	-0.552802
C114	C	1.667657	-0.582577	-0.302802
C115	C	1.917657	-0.332577	-0.052802
C116	C	2.167657	-0.082577	0.197198
C117	C	1.306091	-0.832688	-0.441086
C118	C	1.556091	-0.582688	-0.191086
C119	C	1.806091	-0.332688	0.058914
C120	C	2.056091	-0.082688	0.308914
C121	C	1.329623	-0.881992	-0.529181
C122	C	1.579623	-0.631992	-0.279181
C123	C	1.829623	-0.381992	-0.029181
C124	C	2.079623	-0.131992	0.220819
C125	C	1.394017	-0.700239	-0.464703
C126	C	1.644017	-0.450239	-0.214703
C127	C	1.894017	-0.200239	0.035297
C128	C	2.144017	0.049761	0.285297
C129	C	1.394130	-1.014419	-0.464778
C130	C	1.644130	-0.764419	-0.214778
C131	C	1.894130	-0.514419	0.035222
C132	C	2.144130	-0.264419	0.285222
C133	C	1.645602	-0.357720	-0.464728
C134	C	1.895602	-0.107720	-0.214728
C135	C	2.145602	0.142280	0.035272
C136	C	2.395602	0.392280	0.285272
C137	C	1.752816	-0.357724	-0.464737
C138	C	2.002816	-0.107724	-0.214737
C139	C	2.252816	0.142276	0.035263
C140	C	2.502816	0.392276	0.285263
C141	C	1.394078	-0.357644	-0.716298
C142	C	1.644078	-0.107644	-0.466298
C143	C	1.894078	0.142356	-0.216298
C144	C	2.144078	0.392356	0.033702
C145	C	1.394107	-0.357616	-0.823512
C146	C	1.644107	-0.107616	-0.573512
C147	C	1.894107	0.142384	-0.323512
C148	C	2.144107	0.392384	-0.073512
C149	C	1.394110	-0.164004	-0.464765
C150	C	1.644110	0.085996	-0.214765
C151	C	1.894110	0.335996	0.035235
C152	C	2.144110	0.585996	0.285235
C153	C	1.394153	-0.081458	-0.464790
C154	C	1.644153	0.168542	-0.214790
C155	C	1.894153	0.418542	0.035210
C156	C	2.144153	0.668542	0.285210
C157	C	1.394133	-0.357565	-1.019808
C158	C	1.644133	-0.107565	-0.769808
C159	C	1.894133	0.142435	-0.519808
C160	C	2.144133	0.392435	-0.269808
C161	C	1.394115	-0.357595	-0.910575
C162	C	1.644115	-0.107595	-0.660575
C163	C	1.894115	0.142405	-0.410575
C164	C	2.144115	0.392405	-0.160575
C165	C	1.393996	-0.357721	-0.214091
C166	C	1.643996	-0.107721	0.035909
C167	C	1.893996	0.142279	0.285909
C168	C	2.143996	0.392279	0.535909
C169	C	1.394154	-0.357540	-0.106877
C170	C	1.644154	-0.107540	0.143123
C171	C	1.894154	0.142460	0.393123
C172	C	2.144154	0.392460	0.643123
H173	H	1.513096	-0.810984	-0.345965
H174	H	1.763096	-0.560984	-0.095965
H175	H	2.013096	-0.310984	0.154035
H176	H	2.263096	-0.060984	0.404035
Cl177	Cl	1.596984	-0.915391	-0.519294
Cl178	Cl	1.846984	-0.665391	-0.269294
Cl179	Cl	2.096984	-0.415391	-0.019294
Cl180	Cl	2.346984	-0.165391	0.230706
Cl181	Cl	1.191242	-0.799236	-0.410155
Cl182	Cl	1.441242	-0.549236	-0.160155
Cl183	Cl	1.691242	-0.299236	0.089845
Cl184	Cl	1.941242	-0.049236	0.339845
H185	H	1.437455	-0.810920	-0.627296
H186	H	1.687455	-0.560920	-0.377296
H187	H	1.937455	-0.310920	-0.127296
H188	H	2.187455	-0.060920	0.122704
H189	H	1.275107	-0.903521	-0.583696
H190	H	1.525107	-0.653521	-0.333696
H191	H	1.775107	-0.403521	-0.083696
H192	H	2.025107	-0.153521	0.166304
Cl193	Cl	1.339897	-0.915672	-0.261815
Cl194	Cl	1.589897	-0.665672	-0.011815
Cl195	Cl	1.839897	-0.415672	0.238185
Cl196	Cl	2.089897	-0.165672	0.488185
