data_functionalizedCrystal
_audit_creation_method	'MofGen! by Chris Wilmer'
_symmetry_space_group_name_H-M	'P1'
_symmetry_Int_Tables_number	1
_symmetry_cell_setting	triclinic
loop_
_symmetry_equiv_pos_as_xyz
  x,y,z
_cell_length_a	12.837943
_cell_length_b	14.048226
_cell_length_c	14.971506
_cell_angle_alpha	89.997968
_cell_angle_beta	89.225664
_cell_angle_gamma	89.996231
loop_
_atom_site_label
_atom_site_type_symbol
_atom_site_fract_x
_atom_site_fract_y
_atom_site_fract_z
O1	O	1.375762	-0.079137	0.232550
O2	O	1.073942	-0.079143	0.221062
O3	O	1.232931	-0.079138	0.097288
O4	O	1.216773	-0.079143	0.356323
O5	O	1.232915	0.079184	0.097286
O6	O	1.073926	0.079178	0.221059
O7	O	1.375747	0.079184	0.232547
Zn8	Zn	1.224834	0.104318	0.226803
Zn9	Zn	1.224854	-0.104277	0.226806
O10	O	1.216758	0.079179	0.356321
C11	C	1.035308	0.000017	0.217180
C12	C	0.920216	0.000014	0.205606
C13	C	1.232197	0.000022	0.063901
C14	C	1.230020	0.000018	-0.035579
N15	N	1.224828	0.246679	0.226801
C16	C	0.679442	0.000025	0.344748
C17	C	0.571301	0.000024	0.333877
C18	C	0.595793	0.000017	0.172994
C19	C	0.703933	0.000018	0.183865
C20	C	0.745753	0.000021	0.269745
C21	C	0.853896	0.000016	0.280615
C22	C	0.878385	0.000016	0.119733
C23	C	0.770245	0.000014	0.108862
C24	C	1.414380	0.000022	0.236429
C25	C	1.529473	0.000018	0.248003
N26	N	1.224869	-0.246638	0.226802
C27	C	1.287773	0.296493	0.286448
C28	C	1.287787	0.396150	0.286446
C29	C	1.224849	0.445992	0.226799
C30	C	1.161901	0.396171	0.167145
C31	C	1.161894	0.296515	0.167144
C32	C	1.161918	0.603886	0.167153
C33	C	1.161924	0.703548	0.167154
C34	C	1.287811	0.703521	0.286454
C35	C	1.287804	0.603865	0.286453
C36	C	1.224855	0.554051	0.226800
C37	C	1.315117	0.000020	-0.466687
C38	C	1.317154	0.000026	-0.373215
C39	C	1.223742	0.000021	-0.323870
C40	C	1.128286	0.000019	-0.368003
C41	C	1.126250	0.000020	-0.461473
C42	C	1.132536	0.000015	-0.173181
C43	C	1.134572	0.000013	-0.079704
C44	C	1.323440	0.000022	-0.084923
C45	C	1.321404	0.000022	-0.178393
C46	C	1.225948	0.000019	-0.222519
C47	C	1.217492	0.000017	0.389708
C48	C	1.219669	0.000015	0.489188
H49	H	0.713492	0.000026	0.414674
N50	N	1.029583	0.000018	-0.220777
H51	H	0.970715	0.000012	-0.175336
H52	H	1.024635	-0.058674	-0.259444
N53	N	1.027543	0.000016	-0.314771
H54	H	0.985907	-0.058674	-0.329893
H55	H	0.985978	0.058744	-0.329915
H56	H	1.110673	0.744127	0.118586
N57	N	0.499777	0.000065	0.414772
H58	H	0.542684	0.000079	0.470822
H59	H	0.454362	-0.058616	0.413792
N60	N	1.033836	0.000022	-0.026462
H61	H	0.992186	-0.058662	-0.041574
H62	H	0.992279	0.058757	-0.041601
N63	N	0.550678	0.000041	0.080374
H64	H	0.472109	0.000050	0.084873
H65	H	0.574919	-0.058647	0.047137
N66	N	1.094019	0.449933	0.102816
H67	H	1.018613	0.432596	0.113993
H68	H	1.114472	0.432574	0.039509
N69	N	0.725136	0.000023	0.016239
H70	H	0.646567	0.000027	0.020732
H71	H	0.749386	-0.058669	-0.016986
H72	H	0.932389	0.000006	0.058660
N73	N	1.094008	0.242786	0.102805
H74	H	1.018602	0.260131	0.113980
H75	H	1.103645	0.172109	0.111884
N76	N	1.355652	0.242738	0.350786
H77	H	1.395531	0.289421	0.388570
H78	H	1.406279	0.201386	0.316126
N79	N	1.355668	0.449906	0.350767
H80	H	1.406355	0.491242	0.316154
H81	H	1.395480	0.403172	0.388552
N82	N	1.355686	0.550101	0.350781
H83	H	1.335325	0.567439	0.414117
H84	H	1.431068	0.567456	0.339522
H85	H	1.339062	0.744084	0.335029
N86	N	1.415866	0.000025	-0.519910
H87	H	1.457516	-0.058660	-0.504781
H88	H	1.457411	0.058758	-0.504763
N89	N	1.094030	0.550154	0.102810
H90	H	1.054157	0.596849	0.065026
H91	H	1.043398	0.508810	0.137469
N92	N	1.420101	0.000036	-0.325621
H93	H	1.478967	0.000035	-0.371063
H94	H	1.425068	-0.058653	-0.286948
H95	H	1.397469	0.000021	-0.218567
H96	H	1.401163	-0.000063	-0.048991
N97	N	1.023303	0.000023	-0.509071
H98	H	0.964435	0.000019	-0.463630
H99	H	1.018348	-0.058666	-0.547740
H100	H	0.887943	0.000020	0.350542
