data_functionalizedCrystal
_audit_creation_method	'MofGen! by Chris Wilmer'
_symmetry_space_group_name_H-M	'P1'
_symmetry_Int_Tables_number	1
_symmetry_cell_setting	triclinic
loop_
_symmetry_equiv_pos_as_xyz
  x,y,z
_cell_length_a	9.065215
_cell_length_b	10.654559
_cell_length_c	7.540329
_cell_angle_alpha	89.999002
_cell_angle_beta	89.997574
_cell_angle_gamma	84.751691
loop_
_atom_site_label
_atom_site_type_symbol
_atom_site_fract_x
_atom_site_fract_y
_atom_site_fract_z
O1	O	1.959401	0.184140	-0.147450
O2	O	1.530034	0.199249	-0.147457
O3	O	1.754583	0.008995	-0.147454
O4	O	1.734853	0.374394	-0.147454
O5	O	1.754569	0.008992	0.147511
O6	O	1.530021	0.199246	0.147508
O7	O	1.959388	0.184137	0.147515
Cu8	Cu	1.744703	0.191691	0.174444
Cu9	Cu	1.744719	0.191694	-0.174387
O10	O	1.734839	0.374391	0.147511
C11	C	1.475048	0.197796	0.000024
C12	C	1.311229	0.193457	0.000021
C13	C	1.753124	-0.037810	0.000025
C14	C	1.748782	-0.177270	0.000014
C15	C	1.612489	-0.229348	0.000007
C16	C	1.608418	-0.360387	0.000020
C17	C	1.876943	-0.387258	0.000040
C18	C	1.881013	-0.256222	0.000039
C19	C	1.480258	-0.150397	-0.000018
C20	C	1.343954	-0.202474	-0.000027
C21	C	1.339883	-0.333512	-0.000014
C22	C	1.472115	-0.412473	0.000008
C23	C	2.014373	0.185590	0.000029
C24	C	2.178193	0.189929	0.000021
C25	C	1.736298	0.421196	0.000028
C26	C	1.740640	0.560656	0.000028
N27	N	1.744703	0.191689	0.419792
N28	N	1.744731	0.191687	-0.419735
H29	H	1.483558	-0.043697	-0.000033
H30	H	1.984600	-0.451557	0.000055
C31	C	2.028880	-0.199494	-0.000238
C32	C	2.039045	-0.125022	-0.151967
C33	C	2.175231	-0.072728	-0.152263
H34	H	2.107182	-0.265144	-0.000327
H35	H	2.036050	-0.148864	0.102571
H36	H	2.031890	-0.175649	-0.254749
H37	H	1.960775	-0.059351	-0.151910
H38	H	2.182401	-0.022098	-0.049455
H39	H	2.253522	-0.138387	-0.152348
H40	H	2.182141	-0.022184	-0.255200
H41	H	1.236297	-0.138176	-0.000029
C42	C	1.192051	-0.390298	0.000068
C43	C	1.216780	-0.521953	0.000125
C44	C	1.080629	-0.574303	0.000213
H45	H	1.137453	-0.363445	-0.102773
H46	H	1.137526	-0.363371	0.102962
H47	H	1.271282	-0.548869	-0.102758
H48	H	1.271355	-0.548841	0.102959
H49	H	1.026103	-0.547375	0.103106
H50	H	1.026040	-0.547440	-0.102630
H51	H	1.097388	-0.663635	0.000267
H52	H	1.468788	-0.519172	0.000018
