data_functionalizedCrystal
_audit_creation_method	'MofGen! by Chris Wilmer'
_symmetry_space_group_name_H-M	'P1'
_symmetry_Int_Tables_number	1
_symmetry_cell_setting	triclinic
loop_
_symmetry_equiv_pos_as_xyz
  x,y,z
_cell_length_a	15.298709
_cell_length_b	15.297327
_cell_length_c	12.759393
_cell_angle_alpha	80.357027
_cell_angle_beta	80.355953
_cell_angle_gamma	107.406190
loop_
_atom_site_label
_atom_site_type_symbol
_atom_site_fract_x
_atom_site_fract_y
_atom_site_fract_z
Zn1	Zn	1.357711	-0.123847	0.345808
Zn2	Zn	1.330666	-0.279418	0.206897
Zn3	Zn	1.202174	-0.150843	0.206871
Zn4	Zn	1.175238	-0.306284	0.419214
O5	O	1.266447	-0.215098	0.294698
O6	O	1.484263	-0.121942	0.296671
O7	O	1.313576	-0.262417	0.059893
O8	O	1.245397	-0.017102	0.194570
O9	O	1.464393	-0.236240	0.194614
O10	O	1.359670	0.002732	0.296646
O11	O	1.219173	-0.167953	0.059874
O12	O	1.068461	-0.194004	0.265749
O13	O	1.199489	-0.282029	0.556478
O14	O	1.048672	-0.308206	0.421756
O15	O	1.333551	-0.147993	0.502547
O16	O	1.287457	-0.413142	0.265793
O17	O	1.173265	-0.432880	0.421781
C18	C	1.024823	-0.256951	0.351716
C19	C	0.921451	-0.274878	0.376139
C20	C	1.224529	-0.456756	0.351772
C21	C	1.206681	-0.560123	0.376204
C22	C	0.862595	-0.342849	0.468751
C23	C	0.765473	-0.359688	0.491706
C24	C	0.727196	-0.308562	0.422048
C25	C	0.786050	-0.240594	0.329430
C26	C	0.883183	-0.223749	0.306477
C27	C	0.747784	-0.189462	0.259774
C28	C	0.806638	-0.121494	0.167156
C29	C	0.903761	-0.104652	0.144207
C30	C	0.942039	-0.155777	0.213865
C31	C	0.650651	-0.206307	0.282727
C32	C	0.671239	-0.087207	0.120453
C33	C	0.768361	-0.070368	0.097498
C34	C	1.394392	-0.810231	0.120347
C35	C	1.411160	-0.713112	0.097387
C36	C	1.360042	-0.674860	0.167089
C37	C	1.292152	-0.733737	0.259756
C38	C	1.275377	-0.830866	0.282714
C39	C	1.241027	-0.695495	0.329456
C40	C	1.173137	-0.754371	0.422122
C41	C	1.156366	-0.851491	0.445076
C42	C	1.207484	-0.889743	0.375374
C43	C	1.257803	-0.598366	0.306498
C44	C	1.138788	-0.619000	0.468865
C45	C	1.122019	-0.716119	0.491825
C46	C	1.509015	-0.173083	0.237457
C47	C	1.612383	-0.155178	0.213065
C48	C	1.266532	-0.214997	0.568694
C49	C	1.266569	-0.214953	0.685454
C50	C	1.308555	0.027508	0.237417
C51	C	1.326499	0.130892	0.213007
C52	C	1.266428	-0.215123	0.021739
C53	C	1.266617	-0.214873	-0.095125
C54	C	1.336381	-0.145151	0.712233
C55	C	1.336403	-0.145108	0.821944
C56	C	1.196798	-0.284679	0.878091
C57	C	1.196772	-0.284717	0.768381
H58	H	0.602740	-0.261647	0.358138
C59	C	0.941474	-0.053980	-0.051405
C60	C	0.968457	-0.029935	0.042407
H61	H	0.981418	-0.007854	-0.114250
H62	H	0.878160	-0.056691	-0.047701
H63	H	0.946561	-0.113697	-0.055893
H64	H	0.963364	0.029779	0.046899
H65	H	1.031787	-0.027214	0.038702
H66	H	0.648114	-0.322276	0.440744
H67	H	1.097161	-0.587857	0.525621
H68	H	1.393250	-0.088266	0.843739
H69	H	1.313079	-0.550437	0.231048
H70	H	1.373698	-0.595781	0.148389
C71	C	1.124162	-0.450013	0.959735
C72	C	1.120086	-0.361368	0.969246
H73	H	1.076799	-0.497358	1.016007
H74	H	1.184282	-0.452792	0.966194
H75	H	1.114154	-0.460013	0.890560
H76	H	1.130101	-0.351365	1.038419
H77	H	1.059951	-0.358587	0.962797
C78	C	0.865220	-0.495199	0.549773
C79	C	0.904667	-0.399038	0.545319
H80	H	0.891190	-0.529889	0.597055
H81	H	0.878766	-0.505976	0.478609
H82	H	0.798952	-0.514950	0.576696
H83	H	0.970935	-0.379285	0.518388
H84	H	0.891128	-0.388256	0.616498
H85	H	0.717560	-0.415027	0.567115
C86	C	1.012382	-0.982486	0.514928
C87	C	1.081737	-0.916212	0.546931
H88	H	0.966309	-1.022437	0.577811
H89	H	1.040427	-1.019158	0.476708
H90	H	0.983364	-0.950807	0.468575
H91	H	1.110760	-0.947891	0.593278
H92	H	1.053688	-0.879536	0.585169
H93	H	1.021122	-0.142075	0.195176
C94	C	1.162105	-0.412110	0.677578
C95	C	1.120031	-0.361450	0.738936
H96	H	1.114728	-0.459473	0.659393
H97	H	1.196446	-0.440660	0.719222
H98	H	1.203664	-0.370553	0.612494
H99	H	1.078476	-0.403006	0.804024
H100	H	1.085675	-0.332899	0.697291
H101	H	1.066742	-0.764070	0.567274
C102	C	1.474368	-0.007180	0.667758
C103	C	1.413092	-0.068460	0.621079
H104	H	1.521722	0.040171	0.611483
H105	H	1.502918	-0.041528	0.711722
H106	H	1.440022	0.021388	0.711713
H107	H	1.447437	-0.097034	0.577130
H108	H	1.384541	-0.034107	0.577097
C109	C	0.825558	0.092362	0.002332
C110	C	0.833056	0.004343	-0.004307
H111	H	0.865493	0.138482	-0.060523
H112	H	0.843862	0.108662	0.065971
H113	H	0.762232	0.089638	0.006033
H114	H	0.896381	0.007065	-0.008000
H115	H	0.814757	-0.011961	-0.067963
C116	C	0.531489	-0.060179	0.083547
C117	C	0.629171	-0.031027	0.043855
H118	H	0.505514	-0.025507	0.036253
H119	H	0.517949	-0.049378	0.154700
H120	H	0.504755	-0.125424	0.086588
H121	H	0.655906	0.034216	0.040822
H122	H	0.642718	-0.041821	-0.027317
H123	H	1.435999	-0.841387	0.063600
C124	C	1.527122	-0.702478	-0.060785
C125	C	1.485790	-0.648397	-0.004458
H126	H	1.573203	-0.662521	-0.123658
H127	H	1.480070	-0.747433	-0.082487
H128	H	1.556136	-0.734144	-0.014413
H129	H	1.456769	-0.616736	-0.050828
H130	H	1.532849	-0.603425	0.017242
C131	C	1.207156	-1.024673	0.502622
C132	C	1.189063	-0.996499	0.400612
H133	H	1.195793	-1.090578	0.518196
H134	H	1.166985	-1.010333	0.557385
H135	H	1.270966	-0.992223	0.501461
H136	H	1.125250	-1.028944	0.401776
H137	H	1.229233	-1.010848	0.345835
