data_functionalizedCrystal
_audit_creation_method	'MofGen! by Chris Wilmer'
_symmetry_space_group_name_H-M	'P1'
_symmetry_Int_Tables_number	1
_symmetry_cell_setting	triclinic
loop_
_symmetry_equiv_pos_as_xyz
  x,y,z
_cell_length_a	15.538191
_cell_length_b	15.625253
_cell_length_c	14.750779
_cell_angle_alpha	85.137606
_cell_angle_beta	97.572172
_cell_angle_gamma	113.258747
loop_
_atom_site_label
_atom_site_type_symbol
_atom_site_fract_x
_atom_site_fract_y
_atom_site_fract_z
O1	O	1.207826	0.239073	-0.163060
O2	O	0.942016	0.145708	-0.130559
O3	O	1.071569	0.312302	-0.188545
O4	O	1.078274	0.072480	-0.105073
O5	O	1.108192	0.359392	-0.045286
O6	O	0.978640	0.192798	0.012701
O7	O	1.244449	0.286164	-0.019801
Zn8	Zn	1.117359	0.246958	0.019196
Zn9	Zn	1.069107	0.184914	-0.169555
O10	O	1.114897	0.119570	0.038186
C11	C	0.926116	0.159485	-0.055528
C12	C	0.824176	0.130388	-0.045399
C13	C	1.086551	0.365790	-0.127340
C14	C	1.076618	0.455008	-0.158399
N15	N	1.150297	0.289303	0.148012
C16	C	0.510226	0.419459	-0.146028
C17	C	0.414436	0.392097	-0.136505
C18	C	0.405918	0.238193	-0.082937
C19	C	0.501711	0.265544	-0.092451
C20	C	0.553857	0.356178	-0.123998
C21	C	0.545342	0.202262	-0.070421
C22	C	0.641125	0.229609	-0.079939
C23	C	0.693277	0.320238	-0.111487
C24	C	0.649640	0.383525	-0.133516
C25	C	0.493192	0.111626	-0.038881
C26	C	0.536823	0.048345	-0.016851
C27	C	0.632610	0.075693	-0.026363
C28	C	0.684762	0.166323	-0.057911
C29	C	0.676247	0.012407	-0.004334
C30	C	0.772030	0.039754	-0.013852
C31	C	0.780545	0.193670	-0.067429
C32	C	1.260349	0.272386	-0.094833
C33	C	1.362288	0.301481	-0.104968
C34	C	1.143798	0.876789	0.129915
C35	C	1.134465	0.960620	0.100716
C36	C	1.094541	0.909275	-0.055457
C37	C	1.103866	0.825436	-0.026270
C38	C	1.128495	0.809201	0.066417
C39	C	1.088563	0.757848	-0.089767
C40	C	1.097892	0.674019	-0.060583
C41	C	1.122524	0.657778	0.032100
C42	C	1.137824	0.725372	0.095602
C43	C	1.063941	0.774088	-0.182455
C44	C	1.048638	0.706500	-0.245953
C45	C	1.057960	0.622666	-0.216768
C46	C	1.082592	0.606425	-0.124085
C47	C	1.042660	0.555072	-0.280270
C48	C	1.051989	0.471243	-0.251086
C49	C	1.091921	0.522596	-0.094901
C50	C	1.099914	1.066082	-0.023018
C51	C	1.109844	0.976864	0.008048
N52	N	1.036175	0.142577	-0.298374
C53	C	0.944181	0.024349	0.592054
C54	C	0.967269	0.054018	0.682226
C55	C	1.082017	0.201504	0.630852
C56	C	1.058936	0.171848	0.540674
C57	C	0.990018	0.083269	0.521283
C58	C	1.104772	0.230769	0.469902
C59	C	1.081696	0.201114	0.379732
C60	C	1.012783	0.112538	0.360333
C61	C	0.966941	0.053614	0.431113
C62	C	1.173695	0.319345	0.489296
C63	C	1.219531	0.378266	0.418525
C64	C	1.196450	0.348614	0.328352
C65	C	1.127537	0.260038	0.308953
C66	C	1.242291	0.407537	0.257573
C67	C	1.219215	0.377882	0.167403
C68	C	1.104460	0.230382	0.218783
H69	H	0.823007	0.267475	-0.093112
Br70	Br	0.873394	-0.066596	0.404789
H71	H	0.807557	-0.011774	0.004095
H72	H	0.993998	0.088392	0.286911
H73	H	0.494352	-0.025451	0.008831
H74	H	0.771267	0.342499	-0.119248
H75	H	1.275647	0.450387	0.434325
Br76	Br	1.051295	0.887864	-0.222066
Br77	Br	0.720423	0.506535	-0.176315
H78	H	0.415199	0.089362	-0.031135
H79	H	1.028588	0.719733	-0.321420
Br80	Br	0.355228	0.477995	-0.166394
H81	H	1.192484	0.343486	0.562721
Br82	Br	1.009259	0.577127	-0.406058
H83	H	0.888055	-0.047778	0.576266
H84	H	0.552688	0.493264	-0.171711
H85	H	1.039528	0.416210	-0.302792
Br86	Br	1.010914	0.110172	0.192460
H87	H	1.298411	0.479656	0.273375
Br88	Br	0.605461	-0.110598	0.038458
H89	H	1.111946	0.509365	-0.019421
H90	H	0.929938	0.006029	0.739848
H91	H	1.138134	0.273625	0.646652
Br92	Br	0.335139	0.115191	-0.040133
H93	H	1.130123	0.589519	0.055860
H94	H	1.157850	0.712141	0.171082
H95	H	1.163823	0.863558	0.205395
Br96	Br	1.155246	1.052352	0.186901
H97	H	1.074491	0.922507	-0.130924
Br98	Br	1.281429	0.457845	0.071354
