data_functionalizedCrystal
_audit_creation_method	'MofGen! by Chris Wilmer'
_symmetry_space_group_name_H-M	'P1'
_symmetry_Int_Tables_number	1
_symmetry_cell_setting	triclinic
loop_
_symmetry_equiv_pos_as_xyz
  x,y,z
_cell_length_a	18.101398
_cell_length_b	29.839131
_cell_length_c	18.101389
_cell_angle_alpha	90.021287
_cell_angle_beta	90.024327
_cell_angle_gamma	90.036686
loop_
_atom_site_label
_atom_site_type_symbol
_atom_site_fract_x
_atom_site_fract_y
_atom_site_fract_z
Zn1	Zn	1.132068	-0.178957	0.418824
Zn2	Zn	1.632068	0.321043	0.918824
Zn3	Zn	1.131941	-0.254074	0.294976
Zn4	Zn	1.631941	0.245926	0.794976
Zn5	Zn	1.008227	-0.178952	0.294985
Zn6	Zn	1.508227	0.321048	0.794985
Zn7	Zn	1.008155	-0.254055	0.418765
Zn8	Zn	1.508155	0.245945	0.918765
O9	O	1.070098	-0.216510	0.356887
O10	O	1.570098	0.283490	0.856887
O11	O	1.235684	-0.188932	0.402416
O12	O	1.735684	0.311068	0.902416
O13	O	1.115507	-0.244115	0.191344
O14	O	1.615507	0.255885	0.691344
O15	O	1.024737	-0.116086	0.311441
O16	O	1.524737	0.383914	0.811441
O17	O	1.235591	-0.244119	0.311426
O18	O	1.735591	0.255881	0.811426
O19	O	1.115723	-0.116089	0.402425
O20	O	1.615723	0.383911	0.902425
O21	O	1.024615	-0.188924	0.191351
O22	O	1.524615	0.311076	0.691351
O23	O	0.904584	-0.188905	0.311384
O24	O	1.404584	0.311095	0.811384
O25	O	1.024615	-0.244087	0.522406
O26	O	1.524615	0.255913	1.022406
O27	O	0.904532	-0.244082	0.402324
O28	O	1.404532	0.255918	0.902324
O29	O	1.115654	-0.188913	0.522449
O30	O	1.615654	0.311087	1.022449
O31	O	1.115438	-0.316938	0.311369
O32	O	1.615438	0.183062	0.811369
O33	O	1.024493	-0.316924	0.402315
O34	O	1.524493	0.183076	0.902315
C35	C	0.877687	-0.216491	0.356849
C36	C	1.377687	0.283509	0.856849
C37	C	0.795373	-0.216494	0.356850
C38	C	1.295373	0.283506	0.856850
C39	C	0.496282	-0.216522	0.356912
C40	C	0.996282	0.283478	0.856912
C41	C	0.527616	-0.181633	0.299974
C42	C	1.027616	0.318367	0.799974
C43	C	0.613234	-0.181726	0.299731
C44	C	1.113234	0.318274	0.799731
C45	C	0.644665	-0.216508	0.356881
C46	C	1.144665	0.283492	0.856881
C47	C	0.613533	-0.263830	0.335553
C48	C	1.113533	0.236170	0.835553
C49	C	0.527888	-0.263636	0.335157
C50	C	1.027888	0.236364	0.835157
C51	C	0.527900	-0.204501	0.435313
C52	C	1.027900	0.295499	0.935313
C53	C	0.613552	-0.203447	0.434885
C54	C	1.113552	0.296553	0.934885
C55	C	0.728524	-0.216503	0.356865
C56	C	1.228524	0.283497	0.856865
C57	C	0.412423	-0.216531	0.356926
C58	C	0.912423	0.283469	0.856926
C59	C	1.069964	-0.333232	0.356851
C60	C	1.569964	0.166768	0.856851
C61	C	1.069975	-0.383167	0.356860
C62	C	1.569975	0.116833	0.856860
C63	C	1.117539	-0.692805	0.309601
C64	C	1.617539	-0.192805	0.809601
C65	C	1.117631	-0.880478	0.309629
C66	C	1.617631	-0.380478	0.809629
O67	O	1.157965	-0.904738	0.269420
O68	O	1.657965	-0.404738	0.769420
N69	N	1.070251	-0.903952	0.356943
N70	N	1.570251	-0.403952	0.856943
C71	C	1.022849	-0.880504	0.404257
C72	C	1.522849	-0.380504	0.904257
O73	O	0.982558	-0.904777	0.444506
O74	O	1.482558	-0.404777	0.944506
C75	C	1.022762	-0.692832	0.404231
C76	C	1.522762	-0.192832	0.904231
C77	C	1.070139	-0.669361	0.356909
C78	C	1.570139	-0.169361	0.856909
C79	C	1.164913	-0.669333	0.262283
C80	C	1.664913	-0.169333	0.762283
C81	C	1.164887	-0.622418	0.262273
C82	C	1.664887	-0.122418	0.762273
C83	C	1.117487	-0.598974	0.309582
C84	C	1.617487	-0.098974	0.809582
C85	C	1.070113	-0.622445	0.356899
C86	C	1.570113	-0.122445	0.856899
C87	C	0.975365	-0.669386	0.451548
C88	C	1.475365	-0.169386	0.951548
C89	C	0.975348	-0.622465	0.451539
C90	C	1.475348	-0.122465	0.951539
C91	C	1.022725	-0.598993	0.404217
C92	C	1.522725	-0.098993	0.904217
C93	C	1.022687	-0.552086	0.404198
C94	C	1.522687	-0.052086	0.904198
N95	N	1.070066	-0.528612	0.356884
N96	N	1.570066	-0.028612	0.856884
C97	C	1.117466	-0.552056	0.309576
C98	C	1.617466	-0.052056	0.809576
C99	C	1.022898	-0.979035	0.404266
C100	C	1.522898	-0.479035	0.904266
C101	C	1.022918	-1.025953	0.404272
C102	C	1.522918	-0.525953	0.904272
C103	C	1.117700	-1.025923	0.309645
C104	C	1.617700	-0.525923	0.809645
C105	C	1.117675	-0.979004	0.309636
C106	C	1.617675	-0.479004	0.809636
C107	C	1.070277	-0.955561	0.356952
C108	C	1.570277	-0.455561	0.856952
C109	C	1.117407	-0.453530	0.309559
C110	C	1.617407	0.046470	0.809559
C111	C	1.117374	-0.406610	0.309551
C112	C	1.617374	0.093390	0.809551
C113	C	1.022595	-0.406645	0.404181
C114	C	1.522595	0.093355	0.904181
C115	C	1.022625	-0.453560	0.404186
C116	C	1.522625	0.046440	0.904186
C117	C	1.070037	-0.477002	0.356872
C118	C	1.570037	0.022998	0.856872
O119	O	0.982379	-0.527797	0.444393
O120	O	1.482379	-0.027797	0.944393
O121	O	1.157763	-0.527776	0.269344
O122	O	1.657763	-0.027776	0.769344
C123	C	1.117565	-0.739720	0.309610
C124	C	1.617565	-0.239720	0.809610
C125	C	1.070192	-0.763192	0.356928
C126	C	1.570192	-0.263192	0.856928
C127	C	1.022792	-0.739748	0.404236
C128	C	1.522792	-0.239748	0.904236
C129	C	1.070212	-0.810109	0.356934
C130	C	1.570212	-0.310109	0.856934
C131	C	1.117612	-0.833553	0.309625
C132	C	1.617612	-0.333553	0.809625
C133	C	1.164991	-0.810079	0.262311
C134	C	1.664991	-0.310079	0.762311
C135	C	1.164965	-0.763164	0.262302
C136	C	1.664965	-0.263164	0.762302
C137	C	0.975413	-0.763222	0.451550
C138	C	1.475413	-0.263222	0.951550
C139	C	0.975442	-0.810137	0.451556
C140	C	1.475442	-0.310137	0.951556
C141	C	1.022842	-0.833581	0.404247
C142	C	1.522842	-0.333581	0.904247
C143	C	1.263260	-0.216528	0.356927
C144	C	1.763260	0.283472	0.856927
C145	C	1.345574	-0.216536	0.356943
C146	C	1.845574	0.283464	0.856943
C147	C	1.070141	-0.216498	0.550049
C148	C	1.570141	0.283502	1.050049
C149	C	1.070159	-0.216493	0.632364
C150	C	1.570159	0.283507	1.132364
C151	C	1.070252	-0.099331	0.356941
C152	C	1.570252	0.400669	0.856941
C153	C	1.070318	-0.049397	0.356963
C154	C	1.570318	0.450603	0.856963
C155	C	1.070098	-0.216488	0.164477
C156	C	1.570098	0.283512	0.664477
C157	C	1.070223	-0.216367	0.082163
C158	C	1.570223	0.283633	0.582163
C159	C	1.070202	-0.216409	0.931455
C160	C	1.570202	0.283591	1.431455
C161	C	1.012726	-0.251013	0.900102
C162	C	1.512726	0.248987	1.400102
C163	C	1.012881	-0.251173	0.814484
C164	C	1.512881	0.248827	1.314484
C165	C	1.070180	-0.216451	0.783072
C166	C	1.570180	0.283549	1.283072
C167	C	1.148202	-0.229306	0.814177
C168	C	1.648202	0.270694	1.314177
C169	C	1.147881	-0.229533	0.899822
C170	C	1.647881	0.270467	1.399822
C171	C	1.050335	-0.168874	0.899883
C172	C	1.550335	0.331126	1.399883
C173	C	1.048599	-0.169148	0.814232
C174	C	1.548599	0.330852	1.314232
C175	C	1.070172	-0.216474	0.699213
C176	C	1.570172	0.283526	1.199213
C177	C	1.070215	-0.216387	1.015314
C178	C	1.570215	0.283613	1.515314
H179	H	0.507636	-0.229913	0.477737
H180	H	1.007636	0.270087	0.977737
O181	O	1.100019	-0.133185	0.785930
O182	O	1.600019	0.366815	1.285930
H183	H	1.083238	-0.100255	0.808975
H184	H	1.583238	0.399745	1.308975
H185	H	0.507158	-0.290511	0.374819
H186	H	1.007158	0.209489	0.874819
H187	H	1.203584	-0.829176	0.223789
H188	H	1.703584	-0.329176	0.723789
O189	O	1.168481	-0.381294	0.258515
O190	O	1.668481	0.118706	0.758515
H191	H	1.201451	-0.405481	0.225628
H192	H	1.701451	0.094519	0.725628
O193	O	0.924333	-0.835451	0.502594
O194	O	1.424333	-0.335451	1.002594
H195	H	0.957468	-0.856797	0.540308
H196	H	1.457468	-0.356797	1.040308
H197	H	0.984001	-0.387549	0.442696
H198	H	1.484001	0.112451	0.942696
O199	O	1.168552	-0.478803	0.258529
O200	O	1.668552	0.021197	0.758529
H201	H	1.206233	-0.500140	0.291716
H202	H	1.706233	-0.000140	0.791716
O203	O	0.640328	-0.192254	0.222780
O204	O	1.140328	0.307746	0.722780
H205	H	0.701644	-0.192353	0.222336
H206	H	1.201644	0.307647	0.722336
H207	H	1.203544	-0.744057	0.223768
H208	H	1.703544	-0.244057	0.723768
H209	H	1.203467	-0.603310	0.223741
H210	H	1.703467	-0.103310	0.723741
H211	H	0.634944	-0.274203	0.278857
H212	H	1.134944	0.225797	0.778857
O213	O	0.971811	-1.051268	0.455302
O214	O	1.471811	-0.551268	0.955302
H215	H	0.984479	-1.042242	0.513436
H216	H	1.484479	-0.542242	1.013436
O217	O	0.924270	-0.694695	0.502594
O218	O	1.424270	-0.194695	1.002594
H219	H	0.891319	-0.670504	0.535491
H220	H	1.391319	-0.170504	1.035491
O221	O	0.641877	-0.234667	0.494085
O222	O	1.141877	0.265333	0.994085
H223	H	0.703098	-0.232915	0.496037
H224	H	1.203098	0.267085	0.996037
O225	O	0.935854	-0.240466	0.927364
O226	O	1.435854	0.259534	1.427364
H227	H	0.899227	-0.233765	0.879438
H228	H	1.399227	0.266235	1.379438
O229	O	0.924270	-0.737938	0.502562
O230	O	1.424270	-0.237938	1.002562
H231	H	0.891325	-0.762147	0.535452
H232	H	1.391325	-0.262147	1.035452
H233	H	1.025711	-0.286032	0.921625
H234	H	1.525711	0.213968	1.421625
H235	H	1.025997	-0.286408	0.793999
H236	H	1.525997	0.213592	1.293999
H237	H	0.633906	-0.168623	0.450967
H238	H	1.133906	0.331377	0.950967
O239	O	1.105784	-0.134723	0.926746
O240	O	1.605784	0.365277	1.426746
H241	H	1.133892	-0.119245	0.878603
H242	H	1.633892	0.380755	1.378603
O243	O	1.168788	-0.953694	0.258604
O244	O	1.668788	-0.453694	0.758604
H245	H	1.206436	-0.932291	0.291791
H246	H	1.706436	-0.432291	0.791791
H247	H	0.991182	-0.159454	0.793901
H248	H	1.491182	0.340546	1.293901
H249	H	0.633889	-0.290522	0.375726
H250	H	1.133889	0.209478	0.875726
H251	H	1.164725	-0.264282	0.919802
H252	H	1.664725	0.235718	1.419802
O253	O	0.936248	-0.240504	0.786626
O254	O	1.436248	0.259496	1.286626
H255	H	0.896856	-0.266147	0.807174
H256	H	1.396856	0.233853	1.307174
O257	O	1.206484	-0.197570	0.927301
O258	O	1.706484	0.302430	1.427301
H259	H	1.206674	-0.197479	0.988619
H260	H	1.706674	0.302521	1.488619
O261	O	1.206460	-0.196979	0.787222
O262	O	1.706460	0.303021	1.287222
H263	H	1.180360	-0.171347	0.751282
H264	H	1.680360	0.328653	1.251282
H265	H	0.634285	-0.146635	0.313101
H266	H	1.134285	0.353365	0.813101
H267	H	0.506339	-0.170595	0.454703
H268	H	1.006339	0.329405	0.954703
H269	H	1.165337	-0.263685	0.792732
H270	H	1.665337	0.236315	1.292732
H271	H	1.203515	-0.688416	0.223758
H272	H	1.703515	-0.188416	0.723758
H273	H	1.156295	-1.045019	0.271125
H274	H	1.656295	-0.545019	0.771125
O275	O	0.501366	-0.277135	0.259237
O276	O	1.001366	0.222865	0.759237
H277	H	0.549712	-0.283737	0.223150
H278	H	1.049712	0.216263	0.723150
H279	H	0.507056	-0.146434	0.313196
H280	H	1.007056	0.353566	0.813196
H281	H	0.984298	-0.959951	0.442797
H282	H	1.484298	-0.459951	0.942797
H283	H	0.936751	-0.603380	0.490072
H284	H	1.436751	-0.103380	0.990072
O285	O	0.976276	-0.153365	0.928462
O286	O	1.476276	0.346635	1.428462
H287	H	0.978060	-0.151407	0.989671
H288	H	1.478060	0.348593	1.489671
O289	O	0.499093	-0.192043	0.223462
O290	O	0.999093	0.307957	0.723462
H291	H	0.462696	-0.221958	0.225811
H292	H	0.962696	0.278042	0.725811
O293	O	0.971526	-0.478880	0.455222
O294	O	1.471526	0.021120	0.955222
H295	H	0.938564	-0.454694	0.488119
H296	H	1.438564	0.045306	0.988119
