data_functionalizedCrystal
_audit_creation_method	'MofGen! by Chris Wilmer'
_symmetry_space_group_name_H-M	'P1'
_symmetry_Int_Tables_number	1
_symmetry_cell_setting	triclinic
loop_
_symmetry_equiv_pos_as_xyz
  x,y,z
_cell_length_a	27.731994
_cell_length_b	27.732025
_cell_length_c	26.809956
_cell_angle_alpha	90.018843
_cell_angle_beta	89.997334
_cell_angle_gamma	82.627001
loop_
_atom_site_label
_atom_site_type_symbol
_atom_site_fract_x
_atom_site_fract_y
_atom_site_fract_z
O1	O	0.640944	0.057386	-0.041394
O2	O	0.500146	0.066159	-0.041408
O3	O	0.574923	-0.008626	-0.041415
O4	O	0.566166	0.132171	-0.041386
O5	O	0.574909	-0.008614	0.041544
O6	O	0.500132	0.066170	0.041551
O7	O	0.640929	0.057397	0.041566
Zn8	Zn	0.570528	0.061786	0.054730
Zn9	Zn	0.570547	0.061771	-0.054572
O10	O	0.566152	0.132182	0.041573
C11	C	0.482131	0.065985	0.000070
C12	C	0.428475	0.065442	0.000063
C13	C	0.095749	0.062033	0.045303
C14	C	-0.105909	0.059971	0.045308
O15	O	-0.131988	0.059689	0.083767
N16	N	-0.131116	0.059709	0.000087
C17	C	-0.105905	0.059959	-0.045139
O18	O	-0.131972	0.059683	-0.083602
C19	C	0.095752	0.062017	-0.045143
C20	C	0.120956	0.062284	0.000081
C21	C	0.120953	0.062299	0.090523
C22	C	0.171364	0.062817	0.090521
C23	C	0.196571	0.063069	0.045299
C24	C	0.171367	0.062802	0.000079
C25	C	0.120963	0.062264	-0.090368
C26	C	0.171381	0.062777	-0.090366
C27	C	0.196584	0.063044	-0.045142
C28	C	0.246986	0.063572	-0.045145
N29	N	0.272193	0.063834	0.000076
C30	C	0.246986	0.063582	0.045298
C31	C	-0.211778	0.058879	-0.045133
C32	C	-0.262193	0.058366	-0.045132
C33	C	-0.262193	0.058377	0.045315
C34	C	-0.211778	0.058894	0.045313
C35	C	-0.186571	0.059142	0.000088
C36	C	0.352852	0.064671	0.045291
C37	C	0.403268	0.065191	0.045285
C38	C	0.403264	0.065177	-0.045161
C39	C	0.352853	0.064659	-0.045156
C40	C	0.327648	0.064405	0.000074
O41	O	0.273097	0.063849	-0.083583
O42	O	0.273062	0.063847	0.083756
C43	C	0.045338	0.061515	0.045305
C44	C	0.020134	0.061248	0.000084
C45	C	0.045341	0.061500	-0.045138
C46	C	-0.030280	0.060734	0.000085
C47	C	-0.055487	0.060483	0.045307
C48	C	-0.030280	0.060745	0.090529
C49	C	0.020131	0.061263	0.090527
C50	C	0.020134	0.061237	-0.090359
C51	C	-0.030277	0.060720	-0.090354
C52	C	-0.055484	0.060468	-0.045131
C53	C	0.574734	-0.026627	0.000059
C54	C	0.574186	-0.080283	0.000044
C55	C	0.570296	-0.463454	-0.045148
C56	C	0.572349	-0.261795	-0.045164
O57	O	0.572640	-0.235732	-0.083624
N58	N	0.572598	-0.236567	0.000056
C59	C	0.572337	-0.261758	0.045283
O60	O	0.572601	-0.235674	0.083745
C61	C	0.570288	-0.463417	0.045298
C62	C	0.570034	-0.488641	0.000075
C63	C	0.570043	-0.488678	-0.090367
C64	C	0.569527	-0.539089	-0.090363
C65	C	0.569265	-0.564276	-0.045139
C66	C	0.569518	-0.539052	0.000080
C67	C	0.570030	-0.488607	0.090525
C68	C	0.569519	-0.539025	0.090524
C69	C	0.569265	-0.564249	0.045302
C70	C	0.568740	-0.614651	0.045308
N71	N	0.568491	-0.639878	0.000088
C72	C	0.568753	-0.614691	-0.045136
C73	C	0.573412	-0.155884	0.045272
C74	C	0.573923	-0.105470	0.045268
C75	C	0.573936	-0.105510	-0.045179
C76	C	0.573421	-0.155925	-0.045175
C77	C	0.573163	-0.181112	0.000052
C78	C	0.567670	-0.720558	-0.045123
C79	C	0.567152	-0.770974	-0.045114
C80	C	0.567142	-0.770930	0.045332
C81	C	0.567657	-0.720518	0.045324
C82	C	0.567923	-0.695334	0.000093
O83	O	0.568454	-0.640745	0.083748
O84	O	0.568500	-0.640785	-0.083592
C85	C	0.570812	-0.413042	-0.045153
C86	C	0.571065	-0.387818	0.000067
C87	C	0.570803	-0.413005	0.045290
C88	C	0.571577	-0.337403	0.000063
C89	C	0.571839	-0.312216	-0.045161
C90	C	0.571590	-0.337444	-0.090380
C91	C	0.571075	-0.387855	-0.090376
C92	C	0.571052	-0.387778	0.090510
C93	C	0.571567	-0.337366	0.090502
C94	C	0.571830	-0.312179	0.045278
C95	C	0.658944	0.057572	0.000087
C96	C	0.712600	0.058114	0.000090
C97	C	0.566341	0.150184	0.000097
C98	C	0.566890	0.203839	0.000109
N99	N	0.570519	0.061796	0.129326
N100	N	0.570560	0.061757	-0.129168
C101	C	0.603654	0.028664	0.473949
C102	C	0.603666	0.028657	0.682826
O103	O	0.631818	0.000490	0.709827
N104	N	0.570550	0.061760	0.708953
C105	C	0.537426	0.094866	0.682857
O106	O	0.509256	0.123018	0.709872
C107	C	0.537413	0.094870	0.473980
C108	C	0.570534	0.061768	0.447857
C109	C	0.636772	-0.004436	0.447825
C110	C	0.636771	-0.004432	0.395608
C111	C	0.603651	0.028672	0.369516
C112	C	0.570533	0.061772	0.395640
C113	C	0.504287	0.127973	0.447886
C114	C	0.504286	0.127971	0.395663
C115	C	0.537408	0.094868	0.369539
C116	C	0.537411	0.094880	0.317332
N117	N	0.570527	0.061776	0.291205
C118	C	0.603647	0.028673	0.317297
C119	C	0.537436	0.094861	0.792521
C120	C	0.537440	0.094861	0.844739
C121	C	0.603679	0.028651	0.844705
C122	C	0.603677	0.028654	0.792485
C123	C	0.570552	0.061758	0.766394
C124	C	0.603642	0.028684	0.207639
C125	C	0.603639	0.028692	0.155418
C126	C	0.537399	0.094899	0.155457
C127	C	0.537403	0.094893	0.207674
C128	C	0.570527	0.061781	0.233763
O129	O	0.509270	0.123028	0.290298
O130	O	0.631806	0.000517	0.290273
C131	C	0.603656	0.028660	0.526165
C132	C	0.570537	0.061760	0.552289
C133	C	0.537417	0.094864	0.526197
C134	C	0.570541	0.061760	0.604508
C135	C	0.603661	0.028656	0.630600
C136	C	0.636777	-0.004448	0.604474
C137	C	0.636775	-0.004444	0.552257
C138	C	0.504301	0.127967	0.552324
C139	C	0.504306	0.127961	0.604540
C140	C	0.537426	0.094857	0.630632
H141	H	0.100435	0.062094	0.127351
H142	H	0.569309	-0.559530	0.127354
C143	C	0.047849	0.061553	0.140277
N144	N	0.068723	0.061769	0.177752
C145	C	0.640081	-0.007740	0.236330
N146	N	0.667529	-0.035172	0.257940
C147	C	-0.184058	0.059183	0.095063
N148	N	-0.163181	0.059399	0.132536
H149	H	0.630647	0.001700	0.771218
H150	H	0.570839	-0.408280	0.127337
C151	C	0.640075	-0.007726	0.126685
N152	N	0.667517	-0.035157	0.105045
H153	H	0.573201	-0.176387	0.082103
C154	C	0.571845	-0.309625	0.140254
N155	N	0.572059	-0.288733	0.177726
H156	H	0.569324	-0.559623	-0.127188
C157	C	0.673202	-0.040852	0.366879
N158	N	0.700643	-0.068288	0.345243
H159	H	-0.191260	0.059080	-0.081963
C160	C	0.673209	-0.040862	0.523528
N161	N	0.700651	-0.068296	0.501892
H162	H	0.663743	-0.031395	0.469064
C163	C	0.467866	0.164378	0.633270
N164	N	0.440418	0.191804	0.654908
H165	H	0.510461	0.121819	0.771280
H166	H	0.630647	0.001697	0.865958
C167	C	0.673208	-0.040863	0.633185
N168	N	0.700644	-0.068292	0.654813
C169	C	0.500967	0.131310	0.126746
N170	N	0.473524	0.158733	0.105119
H171	H	0.332330	0.064450	-0.081981
H172	H	0.567844	-0.699977	0.082148
H173	H	0.574120	-0.084935	0.082093
C174	C	0.570311	-0.460872	0.140274
N175	N	0.570524	-0.439983	0.177749
C176	C	0.570330	-0.460980	-0.140121
N177	N	0.570542	-0.440120	-0.177599
C178	C	0.501007	0.131279	0.873470
N179	N	0.473562	0.158709	0.895108
C180	C	0.467899	0.164420	0.523629
N181	N	0.440491	0.191893	0.502019
H182	H	0.040653	0.061441	-0.127185
C183	C	-0.057995	0.060424	-0.140107
N184	N	-0.078870	0.060196	-0.177581
H185	H	0.477317	0.154928	0.469148
C186	C	0.467850	0.164393	0.366966
N187	N	0.440409	0.191829	0.345352
H188	H	0.510437	0.121853	0.228944
C189	C	-0.289929	0.058096	0.095060
N190	N	-0.310823	0.057881	0.132525
H191	H	-0.282710	0.058156	-0.081958
H192	H	-0.050813	0.060543	0.127350
H193	H	0.423786	0.065410	0.082114
H194	H	0.332337	0.064468	0.082122
H195	H	0.191881	0.063032	0.127348
H196	H	0.100451	0.062045	-0.127195
H197	H	0.423796	0.065384	-0.081980
C198	C	0.199105	0.063051	-0.140118
N199	N	0.219985	0.063259	-0.177592
C200	C	0.573153	-0.183668	-0.094923
N201	N	0.572955	-0.204562	-0.132395
H202	H	0.566944	-0.791509	-0.081942
H203	H	0.567887	-0.700059	-0.081955
H204	H	0.574147	-0.084993	-0.082002
C205	C	0.566851	-0.798645	0.095076
N206	N	0.566635	-0.819522	0.132543
C207	C	0.571882	-0.309728	-0.140126
N208	N	0.572106	-0.288851	-0.177593
H209	H	0.570868	-0.408388	-0.127201
