data_functionalizedCrystal
_audit_creation_method	'MofGen! by Chris Wilmer'
_symmetry_space_group_name_H-M	'P1'
_symmetry_Int_Tables_number	1
_symmetry_cell_setting	triclinic
loop_
_symmetry_equiv_pos_as_xyz
  x,y,z
_cell_length_a	19.188925
_cell_length_b	19.188922
_cell_length_c	18.266242
_cell_angle_alpha	90.008854
_cell_angle_beta	89.990012
_cell_angle_gamma	96.858179
loop_
_atom_site_label
_atom_site_type_symbol
_atom_site_fract_x
_atom_site_fract_y
_atom_site_fract_z
O1	O	0.926149	-0.087151	-0.060901
O2	O	1.426149	0.412849	0.439099
O3	O	0.722837	-0.098889	-0.060899
O4	O	1.222837	0.401111	0.439101
O5	O	0.830363	0.008636	-0.060891
O6	O	1.330363	0.508636	0.439109
O7	O	0.818622	-0.194676	-0.060909
O8	O	1.318622	0.305324	0.439091
O9	O	0.830345	0.008642	0.060871
O10	O	1.330345	0.508642	0.560871
O11	O	0.722818	-0.098884	0.060863
O12	O	1.222818	0.401116	0.560863
O13	O	0.926131	-0.087145	0.060861
O14	O	1.426131	0.412855	0.560861
Zn15	Zn	0.824472	-0.093014	0.080194
Zn16	Zn	1.324472	0.406986	0.580194
Zn17	Zn	0.824496	-0.093021	-0.080232
Zn18	Zn	1.324496	0.406979	0.419768
O19	O	0.818604	-0.194671	0.060853
O20	O	1.318604	0.305329	0.560853
C21	C	0.696816	-0.098507	-0.000018
C22	C	1.196816	0.401493	0.499982
C23	C	0.619312	-0.097368	-0.000017
C24	C	1.119312	0.402632	0.499983
C25	C	0.057540	-0.152832	-0.000024
C26	C	0.557540	0.347168	0.499976
C27	C	0.130363	-0.153909	-0.000028
C28	C	0.630363	0.346091	0.499972
C29	C	0.175299	-0.090816	-0.000021
C30	C	0.675299	0.409184	0.499979
C31	C	0.147407	-0.026642	-0.000028
C32	C	0.647407	0.473358	0.499972
C33	C	0.074585	-0.025568	-0.000032
C34	C	0.574585	0.474432	0.499968
N35	N	0.295972	-0.045138	0.041432
N36	N	0.795972	0.454862	0.541432
N37	N	0.365149	-0.046163	0.041437
N38	N	0.865149	0.453837	0.541437
C39	C	0.394709	-0.094050	-0.000012
C40	C	0.894709	0.405950	0.499988
N41	N	0.352476	-0.140884	-0.041457
N42	N	0.852476	0.359116	0.458543
N43	N	0.283292	-0.139861	-0.041459
N44	N	0.783292	0.360139	0.458541
C45	C	0.254264	-0.091974	-0.000018
C46	C	0.754264	0.408026	0.499982
C47	C	0.501555	-0.159387	-0.000014
C48	C	1.001555	0.340613	0.499986
C49	C	0.574380	-0.160461	-0.000023
C50	C	1.074380	0.339539	0.499977
C51	C	0.591424	-0.033193	-0.000016
C52	C	1.091424	0.466807	0.499984
C53	C	0.518600	-0.032121	-0.000015
C54	C	1.018600	0.467879	0.499985
C55	C	0.473670	-0.095220	-0.000011
C56	C	0.973670	0.404780	0.499989
C57	C	0.829975	0.034650	-0.000009
C58	C	1.329975	0.534650	0.499991
C59	C	0.828837	0.112155	-0.000006
C60	C	1.328837	0.612155	0.499994
C61	C	0.828315	0.148551	-0.066378
C62	C	1.328315	0.648551	0.433622
C63	C	0.827236	0.221374	-0.066383
C64	C	1.327236	0.721374	0.433617
C65	C	0.826692	0.257799	-0.000012
C66	C	1.326692	0.757799	0.499988
C67	C	0.827210	0.221394	0.066369
C68	C	1.327210	0.721394	0.566369
C69	C	0.828282	0.148572	0.066372
C70	C	1.328282	0.648572	0.566372
N71	N	0.864734	0.377466	0.049387
N72	N	1.364734	0.877466	0.549387
N73	N	0.863716	0.446644	0.049379
N74	N	1.363716	0.946644	0.549379
C75	C	0.823460	0.477209	-0.000018
C76	C	1.323460	0.977209	0.499982
N77	N	0.784267	0.435983	-0.049418
N78	N	1.284267	0.935983	0.450582
N79	N	0.785288	0.366799	-0.049412
N80	N	1.285288	0.866799	0.450588
C81	C	0.825529	0.336763	-0.000008
C82	C	1.325529	0.836763	0.499992
C83	C	0.821767	0.592567	-0.066400
C84	C	1.321767	1.092567	0.433600
C85	C	0.820683	0.665391	-0.066402
C86	C	1.320683	1.165391	0.433598
C87	C	0.820664	0.665411	0.066352
C88	C	1.320664	1.165411	0.566352
C89	C	0.821740	0.592588	0.066352
C90	C	1.321740	1.092588	0.566352
C91	C	0.822295	0.556171	-0.000026
C92	C	1.322295	1.056171	0.499974
C93	C	0.952151	-0.087528	-0.000022
C94	C	1.452151	0.412472	0.499978
C95	C	1.029656	-0.088667	-0.000027
C96	C	1.529656	0.411333	0.499973
N97	N	0.824460	-0.093008	0.189681
N98	N	1.324460	0.406992	0.689681
C99	C	0.818994	0.779316	-0.000029
C100	C	1.318994	1.279316	0.499971
C101	C	0.820138	0.701812	-0.000030
C102	C	1.320138	1.201812	0.499970
N103	N	0.824512	-0.093021	-0.189719
N104	N	1.324512	0.406979	0.310281
C105	C	0.872089	-0.045419	0.227994
C106	C	1.372089	0.454581	0.727994
C107	C	0.872093	-0.045416	0.304639
C108	C	1.372093	0.454584	0.804639
C109	C	0.824476	-0.093014	0.342968
C110	C	1.324476	0.406986	0.842968
C111	C	0.776839	-0.140606	0.304646
C112	C	1.276839	0.359394	0.804646
C113	C	0.776831	-0.140604	0.228003
C114	C	1.276831	0.359396	0.728003
N115	N	0.815398	-0.154822	0.463295
N116	N	1.315398	0.345178	0.963295
N117	N	0.815410	-0.154822	0.536103
N118	N	1.315410	0.345178	1.036103
C119	C	0.824496	-0.093024	0.573891
C120	C	1.324496	0.406976	1.073891
N121	N	0.833583	-0.031223	0.536120
N122	N	1.333583	0.468777	1.036120
N123	N	0.833575	-0.031223	0.463305
N124	N	1.333575	0.468777	0.963305
C125	C	0.824479	-0.093022	0.426075
C126	C	1.324479	0.406978	0.926075
C127	C	0.872131	-0.045427	0.695310
C128	C	1.372131	0.454573	1.195310
C129	C	0.872131	-0.045423	0.771957
C130	C	1.372131	0.454577	1.271957
C131	C	0.776880	-0.140620	0.771963
C132	C	1.276880	0.359380	1.271963
C133	C	0.776877	-0.140618	0.695318
C134	C	1.276877	0.359382	1.195318
C135	C	0.824506	-0.093022	0.656996
C136	C	1.324506	0.406978	1.156996
H137	H	0.183999	0.024728	-0.000025
H138	H	0.683999	0.524728	0.499975
N139	N	0.453092	-0.227440	-0.000026
N140	N	0.953092	0.272560	0.499974
H141	H	0.402727	-0.217024	-0.000024
H142	H	0.902727	0.282976	0.499976
H143	H	0.462092	-0.255414	0.045109
H144	H	0.962092	0.244586	0.545109
N145	N	0.604449	-0.229676	-0.000019
N146	N	1.104449	0.270324	0.499981
H147	H	0.634278	-0.232953	0.045117
H148	H	1.134278	0.267047	0.545117
H149	H	0.634253	-0.232928	-0.045187
H150	H	1.134253	0.267072	0.454813
N151	N	0.044508	0.043643	-0.000021
N152	N	0.544508	0.543643	0.499979
H153	H	-0.008442	0.034750	-0.000020
H154	H	0.491558	0.534750	0.499980
H155	H	0.060963	0.071241	-0.045158
H156	H	0.560963	0.571241	0.454842
H157	H	0.820216	0.695068	0.120393
H158	H	1.320216	1.195068	0.620393
H159	H	0.738106	-0.179372	0.803170
H160	H	1.238106	0.320628	1.303170
H161	H	0.628010	0.018178	-0.000016
H162	H	1.128010	0.518178	0.499984
H163	H	0.910913	-0.006667	0.803152
H164	H	1.410913	0.493333	1.303152
H165	H	0.828703	0.118938	0.120422
H166	H	1.328703	0.618938	0.620422
H167	H	0.820255	0.695023	-0.120453
H168	H	1.320255	1.195023	0.379547
N169	N	0.725506	-0.191946	0.653989
N170	N	1.225506	0.308054	1.153989
H171	H	0.695339	-0.222099	0.689898
H172	H	1.195339	0.277901	1.189898
H173	H	0.752131	-0.222747	0.622173
H174	H	1.252131	0.277253	1.122173
N175	N	0.488516	0.037085	-0.000009
N176	N	0.988516	0.537085	0.499991
H177	H	0.504923	0.064715	-0.045143
H178	H	1.004923	0.564715	0.454857
H179	H	0.504913	0.064663	0.045162
H180	H	1.004913	0.564663	0.545162
N181	N	0.009080	-0.220886	0.000044
N182	N	0.509080	0.279114	0.500044
H183	H	0.037800	-0.261698	0.000067
H184	H	0.537800	0.238302	0.500067
H185	H	-0.021527	-0.223262	-0.045074
H186	H	0.478473	0.276738	0.454926
H187	H	0.826765	0.251057	0.120409
H188	H	1.326765	0.751057	0.620409
H189	H	0.828765	0.118904	-0.120429
H190	H	1.328765	0.618904	0.379571
H191	H	0.910879	-0.006662	0.335839
H192	H	1.410879	0.493338	0.835839
N193	N	0.822310	0.553328	0.137940
N194	N	1.322310	1.053328	0.637940
H195	H	0.821803	0.587451	0.179987
H196	H	1.321803	1.087451	0.679987
H197	H	0.866029	0.528910	0.140830
H198	H	1.366029	1.028910	0.640830
H199	H	0.738045	-0.179357	0.196808
H200	H	1.238045	0.320643	0.696808
H201	H	0.153071	-0.206161	-0.000018
H202	H	0.653071	0.293839	0.499982
H203	H	0.826807	0.251012	-0.120433
H204	H	1.326807	0.751012	0.379567
H205	H	0.910870	-0.006663	0.196795
H206	H	1.410870	0.493337	0.696795
H207	H	0.738067	-0.179360	0.335858
H208	H	1.238067	0.320640	0.835858
N209	N	0.822363	0.553282	-0.137988
N210	N	1.322363	1.053282	0.362012
H211	H	0.821863	0.587391	-0.180037
H212	H	1.321863	1.087391	0.319963
H213	H	0.779537	0.517270	-0.140878
H214	H	1.279537	1.017270	0.359122
H215	H	0.910912	-0.006670	0.664108
H216	H	1.410912	0.493330	1.164108
