data_functionalizedCrystal
_audit_creation_method	'MofGen! by Chris Wilmer'
_symmetry_space_group_name_H-M	'P1'
_symmetry_Int_Tables_number	1
_symmetry_cell_setting	triclinic
loop_
_symmetry_equiv_pos_as_xyz
  x,y,z
_cell_length_a	18.101398
_cell_length_b	21.295417
_cell_length_c	18.101389
_cell_angle_alpha	89.973488
_cell_angle_beta	89.977624
_cell_angle_gamma	90.025773
loop_
_atom_site_label
_atom_site_type_symbol
_atom_site_fract_x
_atom_site_fract_y
_atom_site_fract_z
Zn1	Zn	1.132110	-0.250730	-0.418817
Zn2	Zn	1.632110	0.249270	0.081183
Zn3	Zn	1.132011	-0.355991	-0.294967
Zn4	Zn	1.632011	0.144009	0.205033
Zn5	Zn	1.008273	-0.250731	-0.294979
Zn6	Zn	1.508273	0.249269	0.205021
Zn7	Zn	1.008221	-0.355957	-0.418755
Zn8	Zn	1.508221	0.144043	0.081245
O9	O	1.070154	-0.303352	-0.356880
O10	O	1.570154	0.196648	0.143120
O11	O	1.235730	-0.264707	-0.402409
O12	O	1.735730	0.235293	0.097591
O13	O	1.115578	-0.342043	-0.191335
O14	O	1.615578	0.157957	0.308665
O15	O	1.024763	-0.162641	-0.311437
O16	O	1.524763	0.337359	0.188563
O17	O	1.235657	-0.342042	-0.311417
O18	O	1.735657	0.157958	0.188583
O19	O	1.115746	-0.162641	-0.402421
O20	O	1.615746	0.337359	0.097579
O21	O	1.024668	-0.264708	-0.191344
O22	O	1.524668	0.235292	0.308656
O23	O	0.904633	-0.264675	-0.311377
O24	O	1.404633	0.235325	0.188623
O25	O	1.024674	-0.341984	-0.522397
O26	O	1.524674	0.158016	-0.022397
O27	O	0.904595	-0.341984	-0.402315
O28	O	1.404595	0.158016	0.097685
O29	O	1.115695	-0.264674	-0.522442
O30	O	1.615695	0.235326	-0.022442
O31	O	1.115527	-0.444076	-0.311357
O32	O	1.615527	0.055924	0.188643
O33	O	1.024579	-0.444051	-0.402304
O34	O	1.524579	0.055949	0.097696
C35	C	0.877743	-0.303327	-0.356841
C36	C	1.377743	0.196673	0.143159
C37	C	0.795429	-0.303331	-0.356842
C38	C	1.295429	0.196669	0.143158
C39	C	0.496338	-0.303370	-0.356904
C40	C	0.996338	0.196630	0.143096
C41	C	0.527663	-0.254486	-0.299967
C42	C	1.027663	0.245514	0.200033
C43	C	0.613281	-0.254617	-0.299724
C44	C	1.113281	0.245383	0.200276
C45	C	0.644721	-0.303350	-0.356873
C46	C	1.144721	0.196650	0.143127
C47	C	0.613604	-0.369659	-0.335543
C48	C	1.113604	0.130341	0.164457
C49	C	0.527959	-0.369388	-0.335147
C50	C	1.027959	0.130612	0.164853
C51	C	0.527950	-0.286521	-0.435305
C52	C	1.027950	0.213479	0.064695
C53	C	0.613601	-0.285045	-0.434877
C54	C	1.113601	0.214955	0.065123
C55	C	0.728580	-0.303343	-0.356857
C56	C	1.228580	0.196657	0.143143
C57	C	0.412479	-0.303382	-0.356919
C58	C	0.912479	0.196618	0.143081
C59	C	1.070057	-0.466904	-0.356839
C60	C	1.570057	0.033096	0.143161
C61	C	1.070083	-0.536872	-0.356846
C62	C	1.570083	-0.036872	0.143154
C63	C	1.117482	-0.569731	-0.309538
C64	C	1.617482	-0.069731	0.190462
C65	C	1.117516	-0.635473	-0.309555
C66	C	1.617516	-0.135473	0.190445
C67	C	1.070139	-0.668354	-0.356871
C68	C	1.570139	-0.168354	0.143129
C69	C	1.022737	-0.635488	-0.404188
C70	C	1.522737	-0.135488	0.095812
C71	C	1.022709	-0.569746	-0.404175
C72	C	1.522709	-0.069746	0.095825
N73	N	1.005355	-0.771616	-0.362504
N74	N	1.505355	-0.271616	0.137496
N75	N	1.005383	-0.834068	-0.362512
N76	N	1.505383	-0.334068	0.137488
C77	C	1.070222	-0.866429	-0.356914
C78	C	1.570222	-0.366429	0.143086
N79	N	1.135032	-0.833980	-0.351293
N80	N	1.635032	-0.333980	0.148707
N81	N	1.135002	-0.771523	-0.351282
N82	N	1.635002	-0.271523	0.148718
C83	C	1.070165	-0.739640	-0.356891
C84	C	1.570165	-0.239640	0.143109
C85	C	1.117662	-0.970573	-0.309622
C86	C	1.617662	-0.470573	0.190378
C87	C	1.117698	-1.036317	-0.309644
C88	C	1.617698	-0.536317	0.190356
C89	C	1.022912	-1.036330	-0.404273
C90	C	1.522912	-0.536330	0.095727
C91	C	1.022883	-0.970588	-0.404255
C92	C	1.522883	-0.470588	0.095745
C93	C	1.070257	-0.937713	-0.356925
C94	C	1.570257	-0.437713	0.143075
C95	C	1.263316	-0.303378	-0.356919
C96	C	1.763316	0.196622	0.143081
C97	C	1.345630	-0.303389	-0.356935
C98	C	1.845630	0.196611	0.143065
C99	C	1.070190	-0.303325	-0.550042
C100	C	1.570190	0.196675	-0.050042
C101	C	1.070205	-0.303313	-0.632356
C102	C	1.570205	0.196687	-0.132356
C103	C	1.070271	-0.139162	-0.356937
C104	C	1.570271	0.360838	0.143063
C105	C	1.070321	-0.069194	-0.356961
C106	C	1.570321	0.430806	0.143039
C107	C	1.070233	-0.303264	-0.783064
C108	C	1.570233	0.196736	-0.283064
C109	C	1.012975	-0.351896	-0.814389
C110	C	1.512975	0.148104	-0.314389
C111	C	1.012766	-0.351725	-0.900008
C112	C	1.512766	0.148275	-0.400008
C113	C	1.070260	-0.303217	-0.931447
C114	C	1.570260	0.196783	-0.431447
C115	C	1.049373	-0.236834	-0.900368
C116	C	1.549373	0.263166	-0.400368
C117	C	1.048941	-0.237143	-0.814723
C118	C	1.548941	0.262857	-0.314723
C119	C	1.148530	-0.320426	-0.814638
C120	C	1.648530	0.179574	-0.314638
C121	C	1.148126	-0.321862	-0.900288
C122	C	1.648126	0.178138	-0.400288
C123	C	1.070277	-0.303186	-1.015306
C124	C	1.570277	0.196814	-0.515306
C125	C	1.070215	-0.303291	-0.699205
C126	C	1.570215	0.196709	-0.199205
C127	C	1.070160	-0.303334	-0.164469
C128	C	1.570160	0.196666	0.335531
C129	C	1.070288	-0.303168	-0.082155
C130	C	1.570288	0.196832	0.417845
H131	H	0.506115	-0.265498	-0.242211
H132	H	1.006115	0.234502	0.257789
N133	N	0.638960	-0.268587	-0.226851
N134	N	1.138960	0.231413	0.273149
N135	N	0.678534	-0.229954	-0.193147
N136	N	1.178534	0.270046	0.306853
H137	H	0.696670	-0.239821	-0.141677
H138	H	1.196670	0.260179	0.358323
H139	H	0.984110	-0.542992	-0.442700
H140	H	1.484110	-0.042992	0.057300
N141	N	0.974518	-1.069900	-0.452616
N142	N	1.474518	-0.569900	0.047384
N143	N	0.979384	-1.062515	-0.520955
N144	N	1.479384	-0.562515	-0.020955
H145	H	0.945206	-1.086226	-0.555102
H146	H	1.445206	-0.586226	-0.055102
H147	H	1.089808	-0.199595	-0.920733
H148	H	1.589808	0.300405	-0.420733
H149	H	0.507236	-0.407043	-0.374809
H150	H	1.007236	0.092957	0.125191
H151	H	0.992786	-0.222051	-0.921814
H152	H	1.492786	0.277949	-0.421814
H153	H	1.156058	-0.542966	-0.271002
H154	H	1.656058	-0.042966	0.228998
N155	N	1.166056	-0.936998	-0.261274
N156	N	1.666056	-0.436998	0.238726
N157	N	1.208379	-0.966348	-0.219041
N158	N	1.708379	-0.466348	0.280959
H159	H	1.242558	-0.942637	-0.184895
H160	H	1.742558	-0.442637	0.315105
H161	H	0.507949	-0.383677	-0.277832
H162	H	1.007949	0.116323	0.222168
N163	N	0.639150	-0.416570	-0.385943
N164	N	1.139150	0.083430	0.114057
N165	N	0.680676	-0.401620	-0.438268
N166	N	1.180676	0.098380	0.061732
H167	H	0.698719	-0.434749	-0.473865
H168	H	1.198719	0.065251	0.026135
N169	N	0.640474	-0.387892	-0.264418
N170	N	1.140474	0.112108	0.235582
N171	N	0.682531	-0.352165	-0.229316
N172	N	1.182531	0.147835	0.270684
H173	H	0.701508	-0.365038	-0.179082
H174	H	1.201508	0.134962	0.320918
H175	H	0.984283	-0.943832	-0.442774
H176	H	1.484283	-0.443832	0.057226
H177	H	1.163880	-0.370718	-0.920598
H178	H	1.663880	0.129282	-0.420598
H179	H	1.025851	-0.401281	-0.793790
H180	H	1.525851	0.098719	-0.293790
N181	N	1.099003	-0.190120	-0.788734
N182	N	1.599003	0.309880	-0.288734
N183	N	1.134145	-0.157176	-0.833851
N184	N	1.634145	0.342824	-0.333851
H185	H	1.169497	-0.123963	-0.815500
H186	H	1.669497	0.376037	-0.315500
N187	N	0.974351	-0.669081	-0.452521
N188	N	1.474351	-0.169081	0.047479
N189	N	0.974381	-0.727778	-0.452525
N190	N	1.474381	-0.227778	0.047475
H191	H	0.940210	-0.751505	-0.486664
H192	H	1.440210	-0.251505	0.013336
H193	H	0.506377	-0.239011	-0.454697
H194	H	1.006377	0.260989	0.045303
N195	N	0.639119	-0.223828	-0.455046
N196	N	1.139119	0.276172	0.044954
N197	N	0.680075	-0.193759	-0.412172
N198	N	1.180075	0.306241	0.087828
H199	H	0.698102	-0.150524	-0.426414
H200	H	1.198102	0.349476	0.073586
N201	N	0.501843	-0.192612	-0.316534
N202	N	1.001843	0.307388	0.183466
N203	N	0.464608	-0.163013	-0.269971
N204	N	0.964608	0.336987	0.230029
H205	H	0.446368	-0.119312	-0.281669
H206	H	0.946368	0.380688	0.218331
N207	N	1.029089	-0.413476	-0.926361
N208	N	1.529089	0.086524	-0.426361
N209	N	1.040714	-0.457001	-0.881500
N210	N	1.540714	0.042999	-0.381500
H211	H	1.052226	-0.500619	-0.900108
H212	H	1.552226	-0.000619	-0.400108
H213	H	0.635005	-0.318055	-0.479573
H214	H	1.135005	0.181945	0.020427
N215	N	0.502550	-0.331200	-0.488515
N216	N	1.002550	0.168800	0.011485
N217	N	0.461347	-0.375277	-0.468883
N218	N	0.961347	0.124723	0.031117
H219	H	0.443410	-0.406837	-0.506455
H220	H	0.943410	0.093163	-0.006455
H221	H	1.156117	-0.662232	-0.271032
H222	H	1.656117	-0.162232	0.228968
H223	H	1.156301	-1.063070	-0.271122
H224	H	1.656301	-0.563070	0.228878
N225	N	0.940611	-0.337797	-0.787375
N226	N	1.440611	0.162203	-0.287375
N227	N	0.931026	-0.292089	-0.745152
N228	N	1.431026	0.207911	-0.245152
H229	H	0.879920	-0.282131	-0.726069
H230	H	1.379920	0.217869	-0.226069
N231	N	0.939991	-0.337440	-0.925699
N232	N	1.439991	0.162560	-0.425699
N233	N	0.889198	-0.327561	-0.880376
N234	N	1.389198	0.172439	-0.380376
H235	H	0.837796	-0.317472	-0.898519
H236	H	1.337796	0.182528	-0.398519
N237	N	1.204487	-0.280675	-0.927146
N238	N	1.704487	0.219325	-0.427146
N239	N	1.188110	-0.236711	-0.969876
N240	N	1.688110	0.263289	-0.469876
H241	H	1.227914	-0.207619	-0.988848
H242	H	1.727914	0.292381	-0.488848
H243	H	1.167589	-0.368026	-0.793034
H244	H	1.667589	0.131974	-0.293034
N245	N	0.639668	-0.192926	-0.316476
N246	N	1.139668	0.307074	0.183524
N247	N	0.594831	-0.149473	-0.328427
N248	N	1.094831	0.350527	0.171573
H249	H	0.613464	-0.105899	-0.340248
H250	H	1.113464	0.394101	0.159752
N251	N	0.977154	-0.218925	-0.789664
N252	N	1.477154	0.281075	-0.289664
N253	N	0.927719	-0.206073	-0.835427
N254	N	1.427719	0.293927	-0.335427
H255	H	0.877016	-0.193207	-0.817733
H256	H	1.377016	0.306793	-0.317733
N257	N	1.202037	-0.275986	-0.789229
N258	N	1.702037	0.224014	-0.289229
N259	N	1.182692	-0.231850	-0.748048
N260	N	1.682692	0.268150	-0.248048
H261	H	1.220475	-0.200461	-0.730101
H262	H	1.720475	0.299539	-0.230101
