data_functionalizedCrystal
_audit_creation_method	'MofGen! by Chris Wilmer'
_symmetry_space_group_name_H-M	'P1'
_symmetry_Int_Tables_number	1
_symmetry_cell_setting	triclinic
loop_
_symmetry_equiv_pos_as_xyz
  x,y,z
_cell_length_a	12.759395
_cell_length_b	19.120786
_cell_length_c	12.759387
_cell_angle_alpha	92.476434
_cell_angle_beta	90.019431
_cell_angle_gamma	92.465113
loop_
_atom_site_label
_atom_site_type_symbol
_atom_site_fract_x
_atom_site_fract_y
_atom_site_fract_z
Zn1	Zn	1.588347	-0.279597	0.576089
Zn2	Zn	1.580708	-0.397073	0.392895
Zn3	Zn	1.412643	-0.279632	0.400427
Zn4	Zn	1.405111	-0.397019	0.568541
O5	O	1.496703	-0.338330	0.484488
O6	O	1.734355	-0.295189	0.551795
O7	O	1.558369	-0.381531	0.246871
O8	O	1.442300	-0.181337	0.430041
O9	O	1.728742	-0.381497	0.417203
O10	O	1.571389	-0.181311	0.559099
O11	O	1.434893	-0.295248	0.252405
O12	O	1.264624	-0.295196	0.422721
O13	O	1.429463	-0.381406	0.716566
O14	O	1.259090	-0.381440	0.546234
O15	O	1.564086	-0.295137	0.722112
O16	O	1.551066	-0.495357	0.409884
O17	O	1.422056	-0.495317	0.538930
C18	C	1.223736	-0.338317	0.484476
C19	C	1.106959	-0.338327	0.484495
C20	C	1.112774	-0.248600	0.624853
C21	C	1.060821	-0.203744	0.695041
C22	C	0.951098	-0.203757	0.695053
C23	C	0.893327	-0.248628	0.624868
C24	C	0.945280	-0.293483	0.554681
C25	C	1.055005	-0.293467	0.554679
C26	C	0.939465	-0.383207	0.414319
C27	C	1.049187	-0.383199	0.414310
C28	C	0.881693	-0.428078	0.344135
C29	C	0.933646	-0.472938	0.273951
C30	C	1.043376	-0.472924	0.273942
C31	C	1.101140	-0.428054	0.344123
C32	C	1.484943	-0.520823	0.472793
C33	C	1.480008	-0.598893	0.467825
C34	C	1.544850	-0.635498	0.532739
C35	C	1.540209	-0.708854	0.528073
C36	C	1.470731	-0.745604	0.458487
C37	C	1.405883	-0.708995	0.393570
C38	C	1.410519	-0.635640	0.398242
C39	C	1.453368	-0.967091	0.441020
C40	C	1.448738	-1.040451	0.436351
C41	C	1.583064	-1.040304	0.570856
C42	C	1.587698	-0.966949	0.575518
C43	C	1.522846	-0.930346	0.510605
C44	C	1.465988	-0.820585	0.453713
C45	C	1.527585	-0.855365	0.515384
C46	C	1.770735	-0.338345	0.484501
C47	C	1.887511	-0.338351	0.484506
C48	C	1.496786	-0.338262	0.758526
C49	C	1.496822	-0.338232	0.875305
C50	C	1.508537	-0.155126	0.496252
C51	C	1.513580	-0.077055	0.501265
C52	C	1.496683	-0.338348	0.211520
C53	C	1.496863	-0.338180	0.094754
C54	C	1.637013	-0.248406	0.881099
C55	C	1.707124	-0.203482	0.938858
C56	C	1.707151	-0.203457	1.048581
C57	C	1.637058	-0.248358	1.100548
C58	C	1.566947	-0.293282	1.042790
C59	C	1.566930	-0.293304	0.933064
C60	C	1.426752	-0.383104	1.036996
C61	C	1.426729	-0.383134	0.927272
C62	C	1.356659	-0.428005	1.088963
C63	C	1.286551	-0.472933	1.031204
C64	C	1.286528	-0.472958	0.921474
C65	C	1.356618	-0.428058	0.869513
H66	H	0.908798	-0.167227	0.752199
Cl67	Cl	1.328999	-0.589623	0.316633
Cl68	Cl	1.675044	-0.920753	0.663003
H69	H	0.803986	-0.248628	0.624877
H70	H	1.764191	-0.166923	0.896534
H71	H	1.593018	-0.738653	0.580925
H72	H	1.635861	-1.070114	0.623706
H73	H	1.190483	-0.428035	0.344118
Cl74	Cl	1.637085	-0.248318	1.238488
Cl75	Cl	1.356693	-0.427973	1.226901
Cl76	Cl	1.361392	-1.086650	0.348860
Cl77	Cl	1.198377	-0.529433	0.848872
H78	H	1.202117	-0.248582	0.624846
H79	H	0.886601	-0.509466	0.216808
Cl80	Cl	1.378641	-0.866792	0.366242
H81	H	1.085669	-0.509449	0.216784
Cl82	Cl	1.614919	-0.809164	0.602867
Cl83	Cl	1.636999	-0.248444	0.743160
Cl84	Cl	1.795276	-0.146970	1.121196
H85	H	1.400564	-0.937295	0.388163
Cl86	Cl	1.318528	-0.755195	0.306100
H87	H	1.229482	-0.509485	1.073524
Cl88	Cl	1.632203	-0.589304	0.620219
Cl89	Cl	1.133452	-0.147337	0.783267
Cl90	Cl	0.743756	-0.428091	0.344146
H91	H	1.356610	-0.428076	0.780171
