data_functionalizedCrystal
_audit_creation_method	'MofGen! by Chris Wilmer'
_symmetry_space_group_name_H-M	'P1'
_symmetry_Int_Tables_number	1
_symmetry_cell_setting	triclinic
loop_
_symmetry_equiv_pos_as_xyz
  x,y,z
_cell_length_a	23.532407
_cell_length_b	14.044220
_cell_length_c	12.503552
_cell_angle_alpha	86.160109
_cell_angle_beta	86.507167
_cell_angle_gamma	91.981222
loop_
_atom_site_label
_atom_site_type_symbol
_atom_site_fract_x
_atom_site_fract_y
_atom_site_fract_z
O1	O	0.134225	-1.261909	0.089227
O2	O	0.467558	-0.928576	0.422560
O3	O	0.800891	-0.595243	0.755894
O4	O	0.129272	-0.985988	0.089253
O5	O	0.462605	-0.652655	0.422587
O6	O	0.795938	-0.319322	0.755920
O7	O	0.049268	-1.132268	0.089220
O8	O	0.382601	-0.798935	0.422553
O9	O	0.715935	-0.465601	0.755886
O10	O	0.214228	-1.115630	0.089261
O11	O	0.547561	-0.782296	0.422594
O12	O	0.880895	-0.448963	0.755927
O13	O	0.055290	-1.121254	-0.089420
O14	O	0.388623	-0.787921	0.243913
O15	O	0.721957	-0.454588	0.577246
O16	O	0.135293	-0.974975	-0.089387
O17	O	0.468627	-0.641641	0.243947
O18	O	0.801960	-0.308308	0.577280
O19	O	0.140246	-1.250896	-0.089413
O20	O	0.473580	-0.917562	0.243920
O21	O	0.806913	-0.584229	0.577254
Cu22	Cu	0.138320	-1.111930	-0.105711
Cu23	Cu	0.471653	-0.778596	0.227622
Cu24	Cu	0.804986	-0.445263	0.560956
Cu25	Cu	0.131198	-1.124955	0.105551
Cu26	Cu	0.464532	-0.791621	0.438885
Cu27	Cu	0.797865	-0.458288	0.772218
O28	O	0.220250	-1.104616	-0.089379
O29	O	0.553583	-0.771283	0.243954
O30	O	0.886917	-0.437949	0.577287
C31	C	0.031040	-1.126337	-0.000103
C32	C	0.364373	-0.793004	0.333230
C33	C	0.697707	-0.459671	0.666564
C34	C	-0.032246	-1.125063	-0.000111
C35	C	0.301088	-0.791729	0.333222
C36	C	0.634421	-0.458396	0.666556
C37	C	0.130115	-0.945188	-0.000063
C38	C	0.463448	-0.611854	0.333270
C39	C	0.796781	-0.278521	0.666603
C40	C	0.123648	-0.840023	-0.000054
C41	C	0.456982	-0.506690	0.333279
C42	C	0.790315	-0.173357	0.666612
C43	C	0.139403	-1.291696	-0.000094
C44	C	0.472737	-0.958363	0.333240
C45	C	0.806070	-0.625030	0.666573
C46	C	0.145869	-1.396861	-0.000096
C47	C	0.479203	-1.063528	0.333237
C48	C	0.812536	-0.730195	0.666571
C49	C	-0.427092	-1.203641	-0.000060
C50	C	-0.093758	-0.870308	0.333274
C51	C	0.239575	-0.536975	0.666607
C52	C	-0.486556	-1.202458	-0.000051
C53	C	-0.153223	-0.869125	0.333282
C54	C	0.180110	-0.535792	0.666615
O55	O	-0.519354	-1.275300	-0.000019
O56	O	-0.186021	-0.941967	0.333315
O57	O	0.147313	-0.608634	0.666648
N58	N	-0.513896	-1.115494	-0.000044
N59	N	-0.180563	-0.782161	0.333289
N60	N	0.152770	-0.448828	0.666623
C61	C	-0.481769	-1.029708	-0.000034
C62	C	-0.148435	-0.696375	0.333300
C63	C	0.184898	-0.363042	0.666633
O64	O	-0.510484	-0.955630	-0.000026
O65	O	-0.177151	-0.622297	0.333308
O66	O	0.156183	-0.288964	0.666641
C67	C	-0.422305	-1.030893	-0.000034
C68	C	-0.088972	-0.697560	0.333299
C69	C	0.244361	-0.364226	0.666632
C70	C	-0.394968	-1.117862	-0.000053
C71	C	-0.061635	-0.784528	0.333281
C72	C	0.271698	-0.451195	0.666614
C73	C	-0.399754	-1.290603	-0.000077
C74	C	-0.066421	-0.957270	0.333256
C75	C	0.266912	-0.623937	0.666590
C76	C	-0.340294	-1.291786	-0.000087
C77	C	-0.006960	-0.958452	0.333246
C78	C	0.326373	-0.625119	0.666579
C79	C	-0.308170	-1.206006	-0.000080
C80	C	0.025163	-0.872673	0.333253
C81	C	0.358496	-0.539340	0.666586
C82	C	-0.335508	-1.119044	-0.000063
C83	C	-0.002174	-0.785711	0.333270
C84	C	0.331159	-0.452378	0.666604
C85	C	-0.390179	-0.945109	-0.000016
C86	C	-0.056846	-0.611775	0.333317
C87	C	0.276487	-0.278442	0.666650
C88	C	-0.330712	-0.946301	-0.000016
C89	C	0.002621	-0.612967	0.333317
C90	C	0.335954	-0.279634	0.666650
C91	C	-0.303375	-1.033270	-0.000035
C92	C	0.029958	-0.699936	0.333299
C93	C	0.363292	-0.366603	0.666632
C94	C	-0.243924	-1.034447	-0.000066
C95	C	0.089410	-0.701114	0.333267
C96	C	0.422743	-0.367781	0.666600
N97	N	-0.216584	-1.121411	-0.000074
N98	N	0.116750	-0.788078	0.333259
N99	N	0.450083	-0.454745	0.666593
C100	C	-0.248707	-1.207191	-0.000081
C101	C	0.084626	-0.873857	0.333253
C102	C	0.417960	-0.540524	0.666586
C103	C	-0.606646	-1.027228	-0.000031
C104	C	-0.273313	-0.693894	0.333303
C105	C	0.060021	-0.360561	0.666636
C106	C	-0.666108	-1.026042	-0.000038
C107	C	-0.332774	-0.692708	0.333296
C108	C	0.000559	-0.359375	0.666629
C109	C	-0.670891	-1.198792	-0.000053
C110	C	-0.337558	-0.865459	0.333280
C111	C	-0.004225	-0.532125	0.666613
C112	C	-0.611428	-1.199976	-0.000054
C113	C	-0.278095	-0.866643	0.333279
C114	C	0.055239	-0.533310	0.666613
C115	C	-0.579306	-1.114192	-0.000038
C116	C	-0.245973	-0.780858	0.333295
C117	C	0.087361	-0.447525	0.666629
C118	C	-0.123835	-1.209668	-0.000103
C119	C	0.209498	-0.876334	0.333230
C120	C	0.542831	-0.543001	0.666563
C121	C	-0.064369	-1.210842	-0.000118
C122	C	0.268964	-0.877509	0.333215
C123	C	0.602298	-0.544176	0.666549
C124	C	-0.059591	-1.038093	-0.000097
C125	C	0.273742	-0.704759	0.333237
C126	C	0.607076	-0.371426	0.666570
C127	C	-0.119052	-1.036917	-0.000088
C128	C	0.214282	-0.703584	0.333246
C129	C	0.547615	-0.370250	0.666579
C130	C	-0.151173	-1.122713	-0.000087
C131	C	0.182161	-0.789379	0.333246
C132	C	0.515494	-0.456046	0.666579
O133	O	-0.211090	-0.961644	-0.000095
O134	O	0.122244	-0.628310	0.333239
O135	O	0.455577	-0.294977	0.666572
O136	O	-0.219985	-1.281258	-0.000075
O137	O	0.113348	-0.947924	0.333258
O138	O	0.446682	-0.614591	0.666592
C139	C	0.238478	-1.110547	-0.000054
C140	C	0.571811	-0.777214	0.333279
C141	C	0.905145	-0.443880	0.666612
C142	C	0.301763	-1.111822	-0.000039
C143	C	0.635097	-0.778489	0.333294
C144	C	0.968430	-0.445155	0.666628
N145	N	0.143329	-1.102775	-0.254302
N146	N	0.476662	-0.769442	0.079032
N147	N	0.809995	-0.436109	0.412365
C148	C	0.111828	-0.647472	-0.000078
C149	C	0.445162	-0.314138	0.333255
C150	C	0.778495	0.019195	0.666588
C151	C	0.157687	-0.589407	-0.000072
C152	C	0.491020	-0.256074	0.333262
C153	C	0.824354	0.077259	0.666595
C154	C	0.151110	-0.482265	-0.000085
C155	C	0.484443	-0.148932	0.333248
C156	C	0.817777	0.184402	0.666582
C157	C	0.118404	-0.754624	-0.000065
C158	C	0.451738	-0.421291	0.333268
C159	C	0.785071	-0.087958	0.666602
C160	C	0.118815	-1.147578	-0.526745
C161	C	0.452148	-0.814244	-0.193412
C162	C	0.785482	-0.480911	0.139922
C163	C	0.150697	-1.089317	-0.473408
C164	C	0.484031	-0.755984	-0.140074
C165	C	0.817364	-0.422650	0.193259
C166	C	0.146596	-1.096807	-0.351486
C167	C	0.479930	-0.763474	-0.018152
C168	C	0.813263	-0.430141	0.315181
C169	C	0.122915	-1.140089	-0.648678
C170	C	0.456249	-0.806755	-0.315345
C171	C	0.789582	-0.473422	0.017989
N172	N	0.126185	-1.134116	0.254142
N173	N	0.459519	-0.800783	0.587475
N174	N	0.792852	-0.467450	0.920809
H175	H	-0.042114	-1.281666	-0.000136
H176	H	0.291219	-0.948332	0.333197
H177	H	0.624553	-0.614999	0.666531
F178	F	-0.705090	-1.290087	-0.000055
F179	F	-0.371757	-0.956754	0.333278
F180	F	-0.038423	-0.623420	0.666611
H181	H	0.067631	-0.616718	-0.000095
H182	H	0.400965	-0.283384	0.333238
H183	H	0.734298	0.049949	0.666571
H184	H	-0.688360	-0.955222	-0.000041
H185	H	-0.355027	-0.621888	0.333292
H186	H	-0.021693	-0.288555	0.666625
F187	F	0.190401	-1.016772	-0.533405
F188	F	0.523735	-0.683438	-0.200071
F189	F	0.857068	-0.350105	0.133262
H190	H	0.201888	-0.620163	-0.000055
H191	H	0.535221	-0.286830	0.333278
H192	H	0.868554	0.046504	0.666611
H193	H	-0.149982	-1.279531	-0.000099
H194	H	0.183352	-0.946197	0.333234
H195	H	0.516685	-0.612864	0.666568
F196	F	0.079115	-1.220123	-0.466753
F197	F	0.412449	-0.886789	-0.133419
F198	F	0.745782	-0.553456	0.199914
H199	H	-0.318041	-1.362605	-0.000098
H200	H	0.015292	-1.029272	0.333235
H201	H	0.348625	-0.695938	0.666569
H202	H	-0.412427	-0.874290	0.000005
H203	H	-0.079094	-0.540956	0.333338
H204	H	0.254240	-0.207623	0.666672
F205	F	-0.433934	-1.381910	-0.000084
F206	F	-0.100601	-1.048577	0.333250
F207	F	0.232733	-0.715243	0.666583
F208	F	-0.582339	-1.292539	-0.000073
F209	F	-0.249006	-0.959206	0.333260
F210	F	0.084327	-0.625873	0.666593
H211	H	-0.580495	-0.957366	-0.000027
H212	H	-0.247162	-0.624033	0.333306
H213	H	0.086172	-0.290699	0.666640
H214	H	-0.304561	-0.876442	-0.000002
H215	H	0.028772	-0.543109	0.333332
H216	H	0.362105	-0.209776	0.666665
F217	F	-0.148146	-0.944355	-0.000087
F218	F	0.185187	-0.611021	0.333246
F219	F	0.518520	-0.277688	0.666579
H220	H	-0.033425	-0.968253	-0.000095
H221	H	0.299908	-0.634920	0.333239
H222	H	0.633241	-0.301587	0.666572
