data_functionalizedCrystal
_audit_creation_method	'MofGen! by Chris Wilmer'
_symmetry_space_group_name_H-M	'P1'
_symmetry_Int_Tables_number	1
_symmetry_cell_setting	triclinic
loop_
_symmetry_equiv_pos_as_xyz
  x,y,z
_cell_length_a	23.532407
_cell_length_b	23.532407
_cell_length_c	7.088929
_cell_angle_alpha	83.810936
_cell_angle_beta	96.167054
_cell_angle_gamma	82.848712
loop_
_atom_site_label
_atom_site_type_symbol
_atom_site_fract_x
_atom_site_fract_y
_atom_site_fract_z
O1	O	0.749384	0.075019	-0.158890
O2	O	1.082717	0.408353	0.174444
O3	O	1.416050	0.741686	0.507777
O4	O	0.583519	0.085024	-0.158923
O5	O	0.916852	0.418357	0.174411
O6	O	1.250186	0.751690	0.507744
O7	O	0.671454	-0.002912	-0.158870
O8	O	1.004788	0.330422	0.174463
O9	O	1.338121	0.663755	0.507797
O10	O	0.661448	0.162954	-0.158942
O11	O	0.994782	0.496288	0.174391
O12	O	1.328115	0.829621	0.507725
O13	O	0.683206	-0.014690	0.159112
O14	O	1.016539	0.318644	0.492445
O15	O	1.349873	0.651977	0.825779
O16	O	0.595271	0.073245	0.159060
O17	O	0.928604	0.406579	0.492393
O18	O	1.261937	0.739912	0.825726
O19	O	0.761135	0.063241	0.159093
O20	O	1.094469	0.396574	0.492426
O21	O	1.427802	0.729908	0.825759
Cu22	Cu	0.679276	0.067168	0.188110
Cu23	Cu	1.012609	0.400501	0.521444
Cu24	Cu	1.345943	0.733835	0.854777
Cu25	Cu	0.665378	0.081097	-0.187940
Cu26	Cu	0.998712	0.414430	0.145393
Cu27	Cu	1.332045	0.747763	0.478726
O28	O	0.673200	0.151176	0.159040
O29	O	1.006533	0.484510	0.492373
O30	O	1.339867	0.817843	0.825707
C31	C	0.568179	0.078880	0.000065
C32	C	0.901512	0.412213	0.333398
C33	C	1.234845	0.745547	0.666732
C34	C	0.504961	0.078114	0.000054
C35	C	0.838295	0.411448	0.333387
C36	C	1.171628	0.744781	0.666720
C37	C	0.238797	0.022916	0.000130
C38	C	0.572130	0.356250	0.333463
C39	C	0.905463	0.689583	0.666796
C40	C	0.298197	0.023628	0.000129
C41	C	0.631530	0.356961	0.333462
C42	C	0.964863	0.690294	0.666796
O43	O	0.334944	-0.020161	0.000214
O44	O	0.668278	0.313172	0.333548
O45	O	1.001611	0.646505	0.666881
N46	N	0.320822	0.075905	0.000093
N47	N	0.654155	0.409239	0.333427
N48	N	0.987488	0.742572	0.666760
C49	C	0.284044	0.127474	0.000078
C50	C	0.617377	0.460807	0.333411
C51	C	0.950710	0.794141	0.666744
O52	O	0.308742	0.172006	0.000049
O53	O	0.642076	0.505339	0.333383
O54	O	0.975409	0.838672	0.666716
C55	C	0.224645	0.126761	0.000092
C56	C	0.557978	0.460095	0.333426
C57	C	0.891312	0.793428	0.666759
C58	C	0.202023	0.074481	0.000109
C59	C	0.535356	0.407815	0.333442
C60	C	0.868690	0.741148	0.666775
C61	C	0.216174	-0.029360	0.000148
C62	C	0.549507	0.303973	0.333482
C63	C	0.882841	0.637307	0.666815
C64	C	0.156778	-0.030071	0.000145
C65	C	0.490111	0.303262	0.333479
C66	C	0.823444	0.636596	0.666812
C67	C	0.120004	0.021494	0.000124
C68	C	0.453337	0.354827	0.333458
C69	C	0.786671	0.688161	0.666791
C70	C	0.142627	0.073770	0.000106
C71	C	0.475960	0.407103	0.333439
C72	C	0.809293	0.740437	0.666773
C73	C	0.187869	0.178329	0.000091
C74	C	0.521202	0.511663	0.333424
C75	C	0.854535	0.844996	0.666757
C76	C	0.128467	0.177612	0.000107
C77	C	0.461800	0.510945	0.333440
C78	C	0.795133	0.844279	0.666773
C79	C	0.105845	0.125332	0.000123
C80	C	0.439178	0.458665	0.333456
C81	C	0.772511	0.791998	0.666789
C82	C	0.046457	0.124624	0.000082
C83	C	0.379790	0.457957	0.333415
C84	C	0.713123	0.791291	0.666749
N85	N	0.023832	0.072346	0.000118
N86	N	0.357165	0.405680	0.333451
N87	N	0.690499	0.739013	0.666784
C88	C	0.060606	0.020781	0.000139
C89	C	0.393939	0.354115	0.333472
C90	C	0.727272	0.687448	0.666805
C91	C	0.408785	0.128966	0.000051
C92	C	0.742118	0.462300	0.333384
C93	C	1.075452	0.795633	0.666717
C94	C	0.468182	0.129680	0.000023
C95	C	0.801515	0.463013	0.333356
C96	C	1.134849	0.796347	0.666689
C97	C	0.482331	0.025833	0.000077
C98	C	0.815665	0.359167	0.333411
C99	C	1.148998	0.692500	0.666744
C100	C	0.422933	0.025121	0.000092
C101	C	0.756266	0.358454	0.333425
C102	C	1.089599	0.691787	0.666758
C103	C	0.386160	0.076689	0.000086
C104	C	0.719494	0.410022	0.333420
C105	C	1.052827	0.743355	0.666753
C106	C	-0.064131	0.019292	0.000131
C107	C	0.269202	0.352625	0.333465
C108	C	0.602535	0.685959	0.666798
C109	C	-0.123534	0.018586	0.000121
C110	C	0.209799	0.351919	0.333454
C111	C	0.543133	0.685252	0.666787
C112	C	-0.137678	0.122432	0.000076
C113	C	0.195656	0.455765	0.333409
C114	C	0.528989	0.789099	0.666743
C115	C	-0.078281	0.123139	0.000077
C116	C	0.255053	0.456472	0.333410
C117	C	0.588386	0.789806	0.666743
C118	C	-0.041508	0.071564	0.000111
C119	C	0.291825	0.404897	0.333444
C120	C	0.625158	0.738231	0.666777
O121	O	0.009675	0.168390	0.000004
O122	O	0.343008	0.501723	0.333338
O123	O	0.676341	0.835057	0.666671
O124	O	0.035900	-0.023744	0.000193
O125	O	0.369233	0.309590	0.333526
O126	O	0.702566	0.642923	0.666859
C127	C	0.677076	-0.030017	0.000126
C128	C	1.010409	0.303316	0.333459
C129	C	1.343742	0.636650	0.666793
C130	C	0.676310	-0.093234	0.000140
C131	C	1.009644	0.240099	0.333474
C132	C	1.342977	0.573432	0.666807
C133	C	0.723540	-0.492334	0.000045
C134	C	1.056873	-0.159001	0.333378
C135	C	1.390207	0.174333	0.666712
C136	C	0.722828	-0.551734	0.000030
C137	C	1.056161	-0.218400	0.333364
C138	C	1.389495	0.114933	0.666697
O139	O	0.766612	-0.588476	-0.000032
O140	O	1.099945	-0.255143	0.333302
O141	O	1.433278	0.078191	0.666635
N142	N	0.670551	-0.574360	0.000021
N143	N	1.003885	-0.241026	0.333355
N144	N	1.337218	0.092307	0.666688
C145	C	0.618983	-0.537581	0.000008
C146	C	0.952316	-0.204248	0.333341
C147	C	1.285649	0.129085	0.666674
O148	O	0.574452	-0.562281	-0.000003
O149	O	0.907785	-0.228947	0.333330
O150	O	1.241119	0.104386	0.666663
C151	C	0.619695	-0.478182	0.000009
C152	C	0.953028	-0.144849	0.333342
C153	C	1.286362	0.188484	0.666675
C154	C	0.671976	-0.455561	0.000037
C155	C	1.005309	-0.122228	0.333370
C156	C	1.338642	0.211106	0.666704
C157	C	0.775817	-0.469712	0.000071
C158	C	1.109150	-0.136378	0.333405
C159	C	1.442483	0.196955	0.666738
C160	C	0.776528	-0.410316	0.000089
C161	C	1.109862	-0.076983	0.333423
C162	C	1.443195	0.256350	0.666756
C163	C	0.724964	-0.373543	0.000081
C164	C	1.058297	-0.040210	0.333415
C165	C	1.391631	0.293124	0.666748
C166	C	0.672687	-0.396165	0.000055
C167	C	1.006021	-0.062832	0.333389
C168	C	1.339354	0.270501	0.666722
C169	C	0.568126	-0.441405	-0.000019
C170	C	0.901460	-0.108072	0.333314
C171	C	1.234793	0.225262	0.666648
C172	C	0.568843	-0.382002	-0.000019
C173	C	0.902176	-0.048669	0.333314
C174	C	1.235509	0.284664	0.666647
C175	C	0.621124	-0.359381	0.000009
C176	C	0.954457	-0.026048	0.333342
C177	C	1.287790	0.307286	0.666676
C178	C	0.621835	-0.299997	0.000065
C179	C	0.955168	0.033337	0.333399
C180	C	1.288501	0.366670	0.666732
N181	N	0.674111	-0.277371	0.000074
N182	N	1.007445	0.055962	0.333408
N183	N	1.340778	0.389296	0.666741
C184	C	0.725676	-0.314144	0.000082
C185	C	1.059009	0.019189	0.333416
C186	C	1.392343	0.352523	0.666749
C187	C	0.617491	-0.662324	0.000002
C188	C	0.950824	-0.328990	0.333336
C189	C	1.284158	0.004343	0.666669
C190	C	0.616779	-0.721722	0.000015
C191	C	0.950112	-0.388389	0.333348
C192	C	1.283446	-0.055056	0.666682
C193	C	0.720624	-0.735870	0.000034
C194	C	1.053958	-0.402537	0.333367
C195	C	1.387291	-0.069204	0.666701
C196	C	0.721337	-0.676471	0.000035
C197	C	1.054670	-0.343138	0.333368
C198	C	1.388003	-0.009805	0.666702
C199	C	0.669768	-0.639698	0.000011
C200	C	1.003101	-0.306365	0.333345
C201	C	1.336434	0.026969	0.666678
C202	C	0.727167	-0.189409	0.000122
C203	C	1.060500	0.143925	0.333456
C204	C	1.393834	0.477258	0.666789
C205	C	0.727875	-0.130008	0.000148
C206	C	1.061208	0.203326	0.333482
C207	C	1.394541	0.536659	0.666815
C208	C	0.624029	-0.115864	0.000119
C209	C	0.957363	0.217469	0.333453
C210	C	1.290696	0.550802	0.666786
C211	C	0.623322	-0.175261	0.000103
C212	C	0.956655	0.158073	0.333436
C213	C	1.289988	0.491406	0.666770
C214	C	0.674895	-0.212032	0.000098
C215	C	1.008228	0.121302	0.333432
C216	C	1.341562	0.454635	0.666765
O217	O	0.578074	-0.263220	0.000119
O218	O	0.911407	0.070114	0.333453
O219	O	1.244741	0.403447	0.666786
O220	O	0.770199	-0.289436	0.000068
O221	O	1.103532	0.043898	0.333401
O222	O	1.436865	0.377231	0.666735
C223	C	0.776475	0.069385	0.000101
C224	C	1.109809	0.402718	0.333434
C225	C	1.443142	0.736052	0.666768
C226	C	0.839692	0.070151	0.000099
C227	C	1.173026	0.403484	0.333433
C228	C	1.506359	0.736818	0.666766
C229	C	0.667579	0.178282	0.000040
C230	C	1.000912	0.511615	0.333373
C231	C	1.334245	0.844948	0.666707
C232	C	0.668343	0.241500	0.000013
C233	C	1.001677	0.574833	0.333346
C234	C	1.335010	0.908166	0.666680
N235	N	0.689055	0.057371	0.452604
N236	N	1.022389	0.390704	0.785938
N237	N	1.355722	0.724037	1.119271
N238	N	0.655604	0.090890	-0.452434
N239	N	0.988937	0.424223	-0.119101
N240	N	1.322270	0.757556	0.214232
H241	H	-0.034198	-0.022705	0.000158
H242	H	0.299136	0.310628	0.333492
H243	H	0.632469	0.643962	0.666825
F244	F	0.132709	-0.085715	0.000148
F245	F	0.466042	0.247619	0.333481
F246	F	0.799376	0.580952	0.666815
H247	H	0.526848	-0.352064	-0.000042
H248	H	0.860181	-0.018730	0.333292
H249	H	1.193515	0.314603	0.666625
F250	F	-0.147606	-0.037060	0.000126
F251	F	0.185727	0.296273	0.333459
F252	F	0.519060	0.629607	0.666793
F253	F	0.610288	0.136292	0.440823
F254	F	0.943621	0.469625	0.774156
F255	F	1.276955	0.802959	1.107489
H256	H	0.206276	0.220902	0.000069
H257	H	0.539610	0.554235	0.333402
H258	H	0.872943	0.887568	0.666735
H259	H	0.723730	0.022637	0.534281
H260	H	1.057064	0.355970	0.867614
H261	H	1.390397	0.689304	1.200948
F262	F	0.775504	-0.775017	0.000033
F263	F	1.108837	-0.441684	0.333366
F264	F	1.442171	-0.108351	0.666699
F265	F	0.492250	0.185325	-0.000031
F266	F	0.825583	0.518659	0.333302
F267	F	1.158917	0.851992	0.666635
F268	F	0.089334	0.232499	0.000109
F269	F	0.422667	0.565833	0.333442
F270	F	0.756000	0.899166	0.666776
F271	F	0.255304	-0.084248	0.000176
F272	F	0.588637	0.249085	0.333509
F273	F	0.921970	0.582419	0.666842
H274	H	0.404518	-0.017450	0.000106
H275	H	0.737852	0.315883	0.333440
H276	H	1.071185	0.649216	0.666773
F277	F	0.561136	-0.745792	0.000019
F278	F	0.894469	-0.412459	0.333352
F279	F	1.227803	-0.079126	0.666686
H280	H	-0.059861	0.165710	0.000061
H281	H	0.273472	0.499043	0.333395
H282	H	0.606805	0.832376	0.666728
H283	H	0.512284	-0.016154	0.000095
H284	H	0.845617	0.317180	0.333428
H285	H	1.178950	0.650513	0.666761
H286	H	0.378847	0.170963	0.000032
H287	H	0.712180	0.504296	0.333366
H288	H	1.045514	0.837629	0.666699
H289	H	-0.167630	0.164415	0.000049
H290	H	0.165704	0.497748	0.333383
H291	H	0.499037	0.831082	0.666716
H292	H	0.763908	-0.658057	0.000057
H293	H	1.097241	-0.324724	0.333390
H294	H	1.430575	0.008609	0.666723
H295	H	0.770450	-0.111593	0.000177
H296	H	1.103783	0.221740	0.333510
H297	H	1.437117	0.555074	0.666843
H298	H	0.819100	-0.391903	0.000105
H299	H	1.152434	-0.058570	0.333438
H300	H	1.485767	0.274763	0.666771
H301	H	0.769163	-0.219341	0.000111
H302	H	1.102496	0.113992	0.333444
H303	H	1.435830	0.447326	0.666778
H304	H	0.582047	-0.085913	0.000119
H305	H	0.915380	0.247420	0.333453
H306	H	1.248714	0.580753	0.666786
F307	F	0.830704	-0.508841	0.000079
F308	F	1.164037	-0.175507	0.333412
F309	F	1.497370	0.157826	0.666745
H310	H	0.575496	-0.632386	-0.000001
H311	H	0.908829	-0.299053	0.333332
H312	H	1.242162	0.034281	0.666666
F313	F	0.512481	-0.465467	-0.000057
F314	F	0.845814	-0.132134	0.333276
F315	F	1.179147	0.201200	0.666609
H316	H	0.580752	-0.193682	0.000133
H317	H	0.914086	0.139651	0.333466
H318	H	1.247419	0.472985	0.666800
