data_functionalizedCrystal
_audit_creation_method	'MofGen! by Chris Wilmer'
_symmetry_space_group_name_H-M	'P1'
_symmetry_Int_Tables_number	1
_symmetry_cell_setting	triclinic
loop_
_symmetry_equiv_pos_as_xyz
  x,y,z
_cell_length_a	14.853567
_cell_length_b	23.532407
_cell_length_c	13.330367
_cell_angle_alpha	89.990692
_cell_angle_beta	89.995418
_cell_angle_gamma	83.241804
loop_
_atom_site_label
_atom_site_type_symbol
_atom_site_fract_x
_atom_site_fract_y
_atom_site_fract_z
O1	O	1.195556	0.074353	-0.083365
O2	O	0.932999	0.083210	-0.083383
O3	O	1.072195	-0.004116	-0.083355
O4	O	1.056360	0.161678	-0.083393
O5	O	1.072175	-0.004118	0.083492
O6	O	0.932979	0.083208	0.083464
O7	O	1.195536	0.074351	0.083482
Cu8	Cu	1.064255	0.078779	0.098707
Cu9	Cu	1.064279	0.078782	-0.098609
O10	O	1.056340	0.161677	0.083454
C11	C	0.899405	0.082808	0.000038
C12	C	0.799334	0.081605	0.000032
C13	C	0.387423	0.024648	0.000067
C14	C	0.365008	0.128393	0.000043
C15	C	0.459029	0.129524	0.000039
C16	C	0.517252	0.078216	0.000048
C17	C	0.481454	0.025777	0.000061
C18	C	0.494835	0.181961	0.000016
C19	C	0.588861	0.183094	0.000012
C20	C	0.647086	0.131786	0.000028
C21	C	0.611283	0.079345	0.000042
C22	C	0.669506	0.028037	0.000051
C23	C	0.633704	-0.024404	0.000072
C24	C	0.539679	-0.025531	0.000077
C25	C	0.741111	0.132913	0.000023
C26	C	0.763536	0.029166	0.000044
C27	C	1.071782	-0.025335	0.000071
C28	C	1.070569	-0.088557	0.000078
C29	C	1.145338	-0.487334	0.000029
C30	C	1.144212	-0.546739	0.000021
O31	O	1.213524	-0.583181	-0.000011
N32	N	1.061460	-0.569726	0.000016
C33	C	0.979829	-0.533305	0.000008
O34	O	0.909339	-0.558312	0.000002
C35	C	0.980957	-0.473901	0.000009
C36	C	1.063714	-0.450917	0.000024
C37	C	1.228089	-0.464349	0.000043
C38	C	1.229214	-0.404948	0.000052
C39	C	1.147590	-0.368531	0.000048
C40	C	1.064839	-0.391516	0.000034
C41	C	0.899327	-0.437481	-0.000006
C42	C	0.900461	-0.378073	-0.000006
C43	C	0.983218	-0.355089	0.000009
C44	C	0.984341	-0.295698	0.000039
N45	N	1.067092	-0.272711	0.000044
C46	C	1.148717	-0.309128	0.000048
C47	C	0.977469	-0.658058	0.000005
C48	C	0.976340	-0.717461	0.000012
C49	C	1.140723	-0.730890	0.000023
C50	C	1.141851	-0.671486	0.000023
C51	C	1.060220	-0.635070	0.000011
C52	C	1.151075	-0.184380	0.000069
C53	C	1.152194	-0.124974	0.000083
C54	C	0.987811	-0.111549	0.000067
C55	C	0.986692	-0.170951	0.000058
C56	C	1.068331	-0.207365	0.000056
O57	O	0.915065	-0.259221	0.000067
O58	O	1.219196	-0.284112	0.000041
C59	C	1.229130	0.074753	0.000058
C60	C	1.329200	0.075956	0.000058
C61	C	1.056753	0.182895	0.000026
C62	C	1.057966	0.246118	0.000011
N63	N	1.064245	0.078777	0.237489
N64	N	1.064296	0.078779	-0.237390
C65	C	1.002641	0.117434	0.710099
C66	C	1.125942	0.040124	0.710092
C67	C	1.125932	0.040123	0.605074
C68	C	1.064276	0.078778	0.552563
C69	C	1.002631	0.117435	0.605071
C70	C	1.187582	0.001470	0.552558
C71	C	1.187575	0.001467	0.447533
C72	C	1.125914	0.040120	0.395021
C73	C	1.064266	0.078778	0.447535
C74	C	1.002610	0.117434	0.395025
C75	C	0.940957	0.156089	0.447537
C76	C	0.940970	0.156088	0.552559
C77	C	1.125901	0.040122	0.289999
C78	C	1.002600	0.117434	0.289997
H79	H	1.219587	-0.106264	0.000098
H80	H	0.833986	-0.348425	-0.000018
H81	H	0.908951	-0.736168	0.000017
H82	H	0.447423	0.223733	-0.000001
H83	H	0.919305	-0.189665	0.000074
H84	H	0.358269	-0.018049	0.000088
H85	H	1.207187	-0.760552	0.000023
C86	C	0.888737	-0.618617	0.000058
C87	C	0.816034	-0.651469	0.000081
C88	C	0.734283	-0.615160	0.000142
H89	H	0.885629	-0.595145	-0.058107
H90	H	0.885701	-0.595179	0.058267
H91	H	0.819069	-0.674897	-0.058121
H92	H	0.819112	-0.674940	0.058243
H93	H	0.731247	-0.591722	0.058350
H94	H	0.731185	-0.591690	-0.058025
H95	H	0.684945	-0.637445	0.000166
C96	C	0.696773	-0.080171	0.000026
C97	C	0.645303	-0.126339	0.000021
C98	C	0.703375	-0.177717	-0.000037
H99	H	0.733944	-0.081966	0.058187
H100	H	0.733901	-0.081914	-0.058187
H101	H	0.608192	-0.124597	0.058229
H102	H	0.608134	-0.124563	-0.058135
H103	H	0.740502	-0.179460	-0.058250
H104	H	0.740543	-0.179507	0.058125
H105	H	0.668461	-0.209049	-0.000050
H106	H	0.831937	-0.456183	-0.000024
C107	C	0.874060	0.197994	0.390338
C108	C	0.887243	0.189711	0.287127
C109	C	0.825629	0.228297	0.234401
H110	H	0.883444	0.236041	0.407416
H111	H	0.813931	0.191734	0.407496
H112	H	0.947357	0.195976	0.269976
H113	H	0.877851	0.151672	0.270020
H114	H	0.765501	0.222036	0.251559
H115	H	0.835018	0.266340	0.251486
H116	H	0.834560	0.222678	0.164367
C117	C	1.254400	-0.040657	0.390702
C118	C	1.240162	-0.096596	0.416405
C119	C	1.301692	-0.135445	0.364116
H120	H	1.314551	-0.034499	0.407891
H121	H	1.245632	-0.035227	0.320600
H122	H	1.248936	-0.102023	0.486491
H123	H	1.180022	-0.102772	0.399214
H124	H	1.292925	-0.130015	0.294015
H125	H	1.361840	-0.129282	0.381309
H126	H	1.292034	-0.173404	0.381541
H127	H	0.921355	-0.081888	0.000067
C128	C	0.874145	0.198033	0.609754
C129	C	0.887372	0.189770	0.712966
C130	C	0.825842	0.228405	0.765688
H131	H	0.813991	0.191818	0.592685
H132	H	0.883600	0.236064	0.592584
H133	H	0.877910	0.151747	0.730128
H134	H	0.947513	0.195989	0.730064
H135	H	0.835297	0.266437	0.748519
H136	H	0.765692	0.222187	0.748612
H137	H	0.834814	0.222808	0.835723
H138	H	0.317597	0.170165	0.000027
H139	H	0.952389	0.148910	0.247249
H140	H	0.952441	0.148906	0.752857
H141	H	0.618003	0.225795	-0.000005
C142	C	1.192827	-0.001936	0.766978
C143	C	1.178713	-0.057914	0.741436
C144	C	1.240315	-0.096679	0.793816
H145	H	1.184064	0.003523	0.837060
H146	H	1.252957	0.004277	0.749738
H147	H	1.118597	-0.064125	0.758684
H148	H	1.187483	-0.063391	0.671363
H149	H	1.300446	-0.090466	0.776576
H150	H	1.231547	-0.091215	0.863896
H151	H	1.230753	-0.134665	0.776487
H152	H	0.770257	0.175610	0.000007
H153	H	0.510520	-0.068226	0.000118
C154	C	1.192729	-0.001926	0.233025
C155	C	1.178623	-0.057912	0.258557
C156	C	1.240163	-0.096662	0.206077
H157	H	1.252879	0.004257	0.250172
H158	H	1.183880	0.003578	0.162950
H159	H	1.187480	-0.063414	0.328617
H160	H	1.118486	-0.064114	0.241408
H161	H	1.231313	-0.091158	0.136002
H162	H	1.300309	-0.090473	0.223228
H163	H	1.230595	-0.134653	0.223387
C164	C	1.239808	-0.223816	0.000123
C165	C	1.312509	-0.190962	0.000165
C166	C	1.394261	-0.227270	0.000235
H167	H	1.242932	-0.247275	-0.058046
H168	H	1.242830	-0.247267	0.058328
H169	H	1.309488	-0.167521	-0.058034
H170	H	1.309415	-0.167504	0.058330
H171	H	1.397284	-0.250721	0.058440
H172	H	1.397376	-0.250727	-0.057935
H173	H	1.443599	-0.204984	0.000272
C174	C	1.316623	-0.503976	-0.000001
C175	C	1.297947	-0.560924	-0.000028
C176	C	1.379488	-0.597440	-0.000075
H177	H	1.350631	-0.497074	0.058171
H178	H	1.350591	-0.497025	-0.058204
H179	H	1.263993	-0.567873	0.058169
H180	H	1.263952	-0.567845	-0.058195
H181	H	1.413456	-0.590489	-0.058277
H182	H	1.413490	-0.590532	0.058098
H183	H	1.366828	-0.636083	-0.000102
C184	C	1.254656	-0.040440	0.609505
C185	C	1.343162	-0.031099	0.583968
C186	C	1.404971	-0.069697	0.636417
H187	H	1.245319	-0.078481	0.592335
H188	H	1.245893	-0.034909	0.679584
H189	H	1.351921	-0.036634	0.513904
H190	H	1.352527	0.006935	0.601140
H191	H	1.396208	-0.064166	0.706496
H192	H	1.395627	-0.107736	0.619243
H193	H	1.465029	-0.063361	0.619105
H194	H	1.209239	-0.652777	0.000035
C195	C	1.319160	-0.380110	0.000008
C196	C	1.390392	-0.424726	-0.000018
C197	C	1.473266	-0.401871	-0.000075
H198	H	1.323148	-0.357230	0.058176
H199	H	1.323076	-0.357227	-0.058198
H200	H	1.386478	-0.447598	0.058183
H201	H	1.386434	-0.447609	-0.058181
H202	H	1.477182	-0.378989	-0.058281
H203	H	1.477245	-0.378992	0.058094
H204	H	1.521607	-0.432139	-0.000102
H205	H	0.810936	-0.012615	0.000056
