data_functionalizedCrystal
_audit_creation_method	'MofGen! by Chris Wilmer'
_symmetry_space_group_name_H-M	'P1'
_symmetry_Int_Tables_number	1
_symmetry_cell_setting	triclinic
loop_
_symmetry_equiv_pos_as_xyz
  x,y,z
_cell_length_a	13.897449
_cell_length_b	12.645330
_cell_length_c	13.897441
_cell_angle_alpha	89.970564
_cell_angle_beta	89.979267
_cell_angle_gamma	90.013926
loop_
_atom_site_label
_atom_site_type_symbol
_atom_site_fract_x
_atom_site_fract_y
_atom_site_fract_z
Zn1	Zn	1.474736	-0.421969	-0.545389
Zn2	Zn	1.974736	0.078031	-0.045389
Zn3	Zn	1.474645	-0.599265	-0.384094
Zn4	Zn	1.974645	-0.099265	0.115906
Zn5	Zn	1.313426	-0.422020	-0.384107
Zn6	Zn	1.813426	0.077980	0.115893
Zn7	Zn	1.313421	-0.599195	-0.545346
Zn8	Zn	1.813421	-0.099195	-0.045346
O9	O	1.394057	-0.510612	-0.464734
O10	O	1.894057	-0.010612	0.035266
O11	O	1.609706	-0.445496	-0.524005
O12	O	2.109706	0.054504	-0.024005
O13	O	1.453222	-0.575803	-0.249114
O14	O	1.953222	-0.075803	0.250886
O15	O	1.334864	-0.273666	-0.405525
O16	O	1.834864	0.226334	0.094475
O17	O	1.609638	-0.575754	-0.405502
O18	O	2.109638	-0.075754	0.094498
O19	O	1.453378	-0.273629	-0.524018
O20	O	1.953378	0.226371	-0.024018
O21	O	1.334775	-0.445582	-0.249124
O22	O	1.834775	0.054418	0.250876
O23	O	1.178443	-0.445514	-0.405484
O24	O	1.678443	0.054486	0.094516
O25	O	1.334857	-0.575635	-0.680334
O26	O	1.834857	-0.075635	-0.180334
O27	O	1.178440	-0.575684	-0.523945
O28	O	1.678440	-0.075684	-0.023945
O29	O	1.453374	-0.445428	-0.680365
O30	O	1.953374	0.054572	-0.180365
O31	O	1.453218	-0.747603	-0.405461
O32	O	1.953218	-0.247603	0.094539
O33	O	1.334768	-0.747552	-0.523932
O34	O	1.834768	-0.247552	-0.023932
C35	C	1.143443	-0.510598	-0.464712
C36	C	1.643443	-0.010598	0.035288
C37	C	1.036229	-0.510618	-0.464726
C38	C	1.536229	-0.010618	0.035274
C39	C	1.394009	-0.786042	-0.464711
C40	C	1.894009	-0.286042	0.035289
C41	C	1.394076	-0.903872	-0.464734
C42	C	1.894076	-0.403872	0.035266
C43	C	0.839934	-0.510621	-0.464751
C44	C	1.339934	-0.010621	0.035249
C45	C	0.949166	-0.510616	-0.464734
C46	C	1.449166	-0.010616	0.035266
C47	C	1.468474	-1.071424	-0.390052
C48	C	1.968474	-0.571424	0.109948
C49	C	1.468716	-0.948864	-0.390235
C50	C	1.968716	-0.448864	0.109765
C51	C	1.421645	-0.948249	-0.566410
C52	C	1.921645	-0.448249	-0.066410
C53	C	1.422236	-1.070847	-0.566014
C54	C	1.922236	-0.570847	-0.066014
C55	C	1.292081	-1.071203	-0.438741
C56	C	1.792081	-0.571203	0.061259
C57	C	1.292570	-0.948599	-0.436461
C58	C	1.792570	-0.448599	0.063539
C59	C	1.645650	-0.510627	-0.464757
C60	C	2.145650	-0.010627	0.035243
C61	C	1.752864	-0.510634	-0.464766
C62	C	2.252864	-0.010634	0.035234
C63	C	1.394125	-0.510519	-0.716327
C64	C	1.894125	-0.010519	-0.216327
C65	C	1.394155	-0.510479	-0.823541
C66	C	1.894155	-0.010479	-0.323541
C67	C	1.394132	-0.234107	-0.464778
C68	C	1.894132	0.265893	0.035222
C69	C	1.394164	-0.116277	-0.464797
C70	C	1.894164	0.383723	0.035203
C71	C	1.394181	-0.510407	-1.019836
C72	C	1.894181	-0.010407	-0.519836
C73	C	1.394163	-0.510450	-0.910604
C74	C	1.894163	-0.010450	-0.410604
C75	C	1.394044	-0.510629	-0.214120
C76	C	1.894044	-0.010629	0.285880
C77	C	1.394202	-0.510370	-0.106906
C78	C	1.894202	-0.010370	0.393094
H79	H	1.451467	-0.918865	-0.314843
H80	H	1.951467	-0.418865	0.185157
H81	H	1.234216	-0.917984	-0.486910
H82	H	1.734216	-0.417984	0.013090
H83	H	1.370483	-1.100513	-0.623623
H84	H	1.870483	-0.600513	-0.123623
H85	H	1.544325	-0.919453	-0.407469
H86	H	2.044325	-0.419453	0.092531
F87	F	1.519766	-1.108114	-0.594860
F88	F	2.019766	-0.608114	-0.094860
F89	F	1.265393	-0.910699	-0.338661
F90	F	1.765393	-0.410699	0.161339
H91	H	1.369169	-0.919102	-0.623593
H92	H	1.869169	-0.419102	-0.123593
F93	F	1.219711	-1.109118	-0.509895
F94	F	1.719711	-0.609118	-0.009895
H95	H	1.451440	-1.100981	-0.314440
H96	H	1.951440	-0.600981	0.185560
F97	F	1.518075	-0.908006	-0.595742
F98	F	2.018075	-0.408006	-0.095742
H99	H	1.267011	-1.102216	-0.365890
H100	H	1.767011	-0.602216	0.134110
F101	F	1.566772	-1.111582	-0.412325
F102	F	2.066772	-0.611582	0.087675
