data_functionalizedCrystal
_audit_creation_method	'MofGen! by Chris Wilmer'
_symmetry_space_group_name_H-M	'P1'
_symmetry_Int_Tables_number	1
_symmetry_cell_setting	triclinic
loop_
_symmetry_equiv_pos_as_xyz
  x,y,z
_cell_length_a	17.699083
_cell_length_b	13.330367
_cell_length_c	17.699083
_cell_angle_alpha	89.994461
_cell_angle_beta	96.716985
_cell_angle_gamma	90.001523
loop_
_atom_site_label
_atom_site_type_symbol
_atom_site_fract_x
_atom_site_fract_y
_atom_site_fract_z
O1	O	1.004079	0.083285	-0.095711
O2	O	1.504079	0.583285	0.404289
O3	O	0.783701	0.083318	-0.108163
O4	O	1.283701	0.583318	0.391837
O5	O	0.900116	0.083292	0.008252
O6	O	1.400116	0.583292	0.508252
O7	O	0.887664	0.083311	-0.212126
O8	O	1.387664	0.583311	0.287874
O9	O	0.900099	-0.083555	0.008255
O10	O	1.400099	0.416445	0.508255
O11	O	0.783684	-0.083529	-0.108161
O12	O	1.283684	0.416471	0.391839
O13	O	1.004062	-0.083562	-0.095708
O14	O	1.504062	0.416438	0.404292
Cu15	Cu	0.893872	-0.098780	-0.101934
Cu16	Cu	1.393872	0.401220	0.398066
Cu17	Cu	0.893892	0.098536	-0.101937
Cu18	Cu	1.393892	0.598536	0.398063
O19	O	0.887647	-0.083536	-0.212124
O20	O	1.387647	0.416464	0.287876
C21	C	0.755495	-0.000101	-0.107716
C22	C	1.255495	0.499899	0.392284
C23	C	0.671477	-0.000089	-0.106377
C24	C	1.171477	0.499911	0.393623
N25	N	0.893863	-0.237562	-0.101932
N26	N	1.393863	0.262438	0.398068
C27	C	0.622856	-0.000083	-0.174710
C28	C	1.122856	0.499917	0.325290
C29	C	0.543913	-0.000096	-0.173448
C30	C	1.043913	0.499904	0.326552
C31	C	0.513592	-0.000108	-0.103852
C32	C	1.013592	0.499892	0.396148
C33	C	0.562219	-0.000117	-0.035513
C34	C	1.062219	0.499883	0.464487
C35	C	0.641161	-0.000111	-0.036776
C36	C	1.141161	0.499889	0.463224
C37	C	0.243856	-0.000142	-0.030418
C38	C	0.743856	0.499858	0.469582
C39	C	0.164908	-0.000145	-0.029160
C40	C	0.664908	0.499855	0.470840
C41	C	0.146608	-0.000128	-0.167090
C42	C	0.646608	0.499872	0.332910
C43	C	0.225550	-0.000122	-0.168353
C44	C	0.725550	0.499878	0.331647
C45	C	0.274170	-0.000136	-0.100015
C46	C	0.774170	0.499864	0.399985
C47	C	0.359769	-0.000123	-0.101384
C48	C	0.859769	0.499877	0.398616
C49	C	0.427995	-0.000113	-0.102481
C50	C	0.927995	0.499887	0.397519
C51	C	0.842341	-0.710173	-0.153466
C52	C	1.342341	-0.210173	0.346534
C53	C	0.945463	-0.710164	-0.050403
C54	C	1.445463	-0.210164	0.449597
C55	C	0.945454	-0.605146	-0.050400
C56	C	1.445454	-0.105146	0.449600
C57	C	0.893889	-0.552636	-0.101932
C58	C	1.393889	-0.052636	0.398068
C59	C	0.842332	-0.605145	-0.153466
C60	C	1.342332	-0.105145	0.346534
C61	C	0.997015	-0.552629	0.001128
C62	C	1.497015	-0.052629	0.501128
C63	C	0.997009	-0.447605	0.001132
C64	C	1.497009	0.052395	0.501132
C65	C	0.945440	-0.395093	-0.050397
C66	C	1.445440	0.104907	0.449603
C67	C	0.893880	-0.447608	-0.101933
C68	C	1.393880	0.052392	0.398067
C69	C	0.842315	-0.395098	-0.153465
C70	C	1.342315	0.104902	0.346535
C71	C	0.790751	-0.447612	-0.204998
C72	C	1.290751	0.052388	0.295002
C73	C	0.790762	-0.552633	-0.204995
C74	C	1.290762	-0.052633	0.295005
C75	C	0.945429	-0.290071	-0.050400
C76	C	1.445429	0.209929	0.449600
C77	C	0.842306	-0.290070	-0.153466
C78	C	1.342306	0.209930	0.346534
C79	C	1.032268	-0.000141	-0.096156
C80	C	1.532268	0.499859	0.403844
C81	C	1.116286	-0.000146	-0.097494
C82	C	1.616286	0.499854	0.402506
C83	C	0.899662	-0.000132	0.036451
C84	C	1.399662	0.499868	0.536451
C85	C	0.898323	-0.000132	0.120469
C86	C	1.398323	0.499868	0.620469
N87	N	0.893906	0.237317	-0.101934
N88	N	1.393906	0.737317	0.398066
C89	C	0.888102	-0.000110	-0.240322
C90	C	1.388102	0.499890	0.259678
C91	C	0.889440	-0.000103	-0.324340
C92	C	1.389440	0.499897	0.175660
C93	C	0.966656	-0.000144	0.169090
C94	C	1.466656	0.499856	0.669090
C95	C	0.965394	-0.000135	0.248033
C96	C	1.465394	0.499865	0.748033
C97	C	0.895798	-0.000121	0.278354
C98	C	1.395798	0.499879	0.778354
C99	C	0.827459	-0.000107	0.229727
C100	C	1.327459	0.499893	0.729727
C101	C	0.828722	-0.000108	0.150785
C102	C	1.328722	0.499892	0.650785
C103	C	0.822364	-0.000098	0.548090
C104	C	1.322364	0.499902	1.048090
C105	C	0.821106	-0.000099	0.627038
C106	C	1.321106	0.499901	1.127038
C107	C	0.959036	-0.000124	0.645338
C108	C	1.459036	0.499876	1.145338
C109	C	0.960299	-0.000126	0.566396
C110	C	1.460299	0.499874	1.066396
C111	C	0.891961	-0.000106	0.517776
C112	C	1.391961	0.499894	1.017776
C113	C	0.893330	-0.000114	0.432177
C114	C	1.393330	0.499886	0.932177
C115	C	0.894427	-0.000121	0.363951
C116	C	1.394427	0.499879	0.863951
H117	H	0.647537	-0.000073	-0.231384
H118	H	1.147537	0.499927	0.268616
F119	F	0.749632	-0.000074	0.496354
F120	F	1.249632	0.499926	0.996354
H121	H	0.140225	-0.000156	0.027517
H122	H	0.640225	0.499844	0.527517
F123	F	0.529948	-0.000136	0.038557
F124	F	1.029948	0.499864	0.538557
F125	F	0.753389	-0.000081	0.261998
F126	F	1.253389	0.499919	0.761998
H127	H	0.283434	-0.000154	0.025228
H128	H	0.783434	0.499846	0.525228
H129	H	0.250232	-0.000108	-0.225025
H130	H	0.750232	0.499892	0.274975
H131	H	0.748782	-0.595396	-0.246952
H132	H	1.248782	-0.095396	0.253048
H133	H	0.107012	-0.000122	-0.222734
H134	H	0.607012	0.499878	0.277266
F135	F	0.787462	-0.766059	-0.208306
F136	F	1.287462	-0.266059	0.291694
F137	F	0.692907	-0.000121	0.035954
F138	F	1.192907	0.499879	0.535954
F139	F	0.787418	-0.234194	-0.208311
F140	F	1.287418	0.265806	0.291689
H141	H	0.748769	-0.404846	-0.246959
H142	H	1.248769	0.095154	0.253041
H143	H	0.773078	-0.000099	0.111198
H144	H	1.273078	0.499901	0.611198
H145	H	0.987450	-0.752921	-0.008450
H146	H	1.487450	-0.252921	0.491550
F147	F	0.492170	-0.000086	-0.246178
F148	F	0.992170	0.499914	0.253822
H149	H	1.014680	-0.000135	0.684934
H150	H	1.514680	0.499865	1.184934
H151	H	1.039002	-0.595386	0.043080
H152	H	1.539002	-0.095386	0.543080
F153	F	1.051885	-0.391723	0.055977
F154	F	1.551885	0.108277	0.555977
H155	H	0.987414	-0.247320	-0.008446
H156	H	1.487414	0.252680	0.491554
H157	H	1.023330	-0.000161	0.144409
H158	H	1.523330	0.499839	0.644409
F159	F	1.038124	-0.000149	0.299776
F160	F	1.538124	0.499851	0.799776
H161	H	1.016971	-0.000142	0.541714
H162	H	1.516971	0.499858	1.041714
F163	F	0.747028	-0.000083	0.659305
F164	F	1.247028	0.499917	1.159305
