data_functionalizedCrystal
_audit_creation_method	'MofGen! by Chris Wilmer'
_symmetry_space_group_name_H-M	'P1'
_symmetry_Int_Tables_number	1
_symmetry_cell_setting	triclinic
loop_
_symmetry_equiv_pos_as_xyz
  x,y,z
_cell_length_a	23.532407
_cell_length_b	11.792241
_cell_length_c	10.868271
_cell_angle_alpha	89.998441
_cell_angle_beta	90.001016
_cell_angle_gamma	83.521047
loop_
_atom_site_label
_atom_site_type_symbol
_atom_site_fract_x
_atom_site_fract_y
_atom_site_fract_z
O1	O	-0.756076	-0.137765	0.102169
O2	O	-0.256076	0.362235	0.602169
O3	O	-0.590331	-0.157700	0.102205
O4	O	-0.090331	0.342300	0.602205
O5	O	-0.677226	0.017533	0.102178
O6	O	-0.177226	0.517533	0.602178
O7	O	-0.669181	-0.312998	0.102197
O8	O	-0.169181	0.187002	0.602197
O9	O	-0.677218	0.017527	-0.102467
O10	O	-0.177218	0.517527	0.397533
O11	O	-0.590323	-0.157705	-0.102439
O12	O	-0.090323	0.342295	0.397561
O13	O	-0.756068	-0.137771	-0.102475
O14	O	-0.256068	0.362229	0.397525
Zn15	Zn	-0.673194	-0.147739	-0.134949
Zn16	Zn	-0.173194	0.352261	0.365051
Zn17	Zn	-0.673205	-0.147732	0.134679
Zn18	Zn	-0.173205	0.352268	0.634679
O19	O	-0.669173	-0.313003	-0.102448
O20	O	-0.169173	0.186997	0.397552
C21	C	-0.569108	-0.157195	-0.000112
C22	C	-0.069108	0.342805	0.499888
C23	C	-0.505882	-0.155669	-0.000099
C24	C	-0.005882	0.344331	0.499901
C25	C	-0.676716	0.059809	-0.000144
C26	C	-0.176716	0.559809	0.499856
C27	C	-0.675204	0.185787	-0.000142
C28	C	-0.175204	0.685787	0.499858
C29	C	-0.777291	-0.138276	-0.000155
C30	C	-0.277291	0.361724	0.499845
C31	C	-0.840517	-0.139802	-0.000160
C32	C	-0.340517	0.360198	0.499840
C33	C	-0.107337	-0.249795	-0.000149
C34	C	0.392663	0.250205	0.499851
C35	C	-0.047928	-0.248377	-0.000157
C36	C	0.452072	0.251623	0.499843
O37	O	-0.011701	-0.335633	-0.000196
O38	O	0.488299	0.164367	0.499804
N39	N	-0.024684	-0.144202	-0.000161
N40	N	0.475316	0.355798	0.499839
C41	C	-0.060853	-0.041437	-0.000169
C42	C	0.439147	0.458563	0.499831
O43	O	-0.035627	0.047303	-0.000175
O44	O	0.464373	0.547303	0.499825
C45	C	-0.120260	-0.042856	-0.000171
C46	C	0.379740	0.457144	0.499829
C47	C	-0.143501	-0.147038	-0.000154
C48	C	0.356499	0.352962	0.499846
C49	C	-0.130577	-0.353969	-0.000134
C50	C	0.369423	0.146031	0.499866
C51	C	-0.189982	-0.355386	-0.000124
C52	C	0.310018	0.144614	0.499876
C53	C	-0.226146	-0.252630	-0.000129
C54	C	0.273854	0.247370	0.499871
C55	C	-0.202905	-0.148456	-0.000144
C56	C	0.297095	0.351544	0.499856
C57	C	-0.156428	0.059907	-0.000188
C58	C	0.343572	0.559907	0.499812
C59	C	-0.215839	0.058479	-0.000190
C60	C	0.284161	0.558479	0.499810
C61	C	-0.239079	-0.045703	-0.000174
C62	C	0.260921	0.454297	0.499826
C63	C	-0.298474	-0.047116	-0.000140
C64	C	0.201526	0.452884	0.499860
N65	N	-0.321717	-0.151292	-0.000136
N66	N	0.178283	0.348708	0.499864
C67	C	-0.285553	-0.254049	-0.000130
C68	C	0.214447	0.245951	0.499870
C69	C	0.063907	-0.038465	-0.000169
C70	C	0.563907	0.461535	0.499831
C71	C	0.123313	-0.037045	-0.000159
C72	C	0.623313	0.462955	0.499841
C73	C	0.136234	-0.243985	-0.000149
C74	C	0.636234	0.256015	0.499851
C75	C	0.076827	-0.245404	-0.000150
C76	C	0.576827	0.254596	0.499850
C77	C	0.040664	-0.142641	-0.000165
C78	C	0.540664	0.357359	0.499835
C79	C	-0.410308	-0.257017	-0.000109
C80	C	0.089692	0.242983	0.499891
C81	C	-0.469718	-0.258425	-0.000094
C82	C	0.030282	0.241575	0.499906
C83	C	-0.482634	-0.051485	-0.000111
C84	C	0.017366	0.448515	0.499889
C85	C	-0.423229	-0.050077	-0.000119
C86	C	0.076771	0.449923	0.499881
C87	C	-0.387066	-0.152852	-0.000122
C88	C	0.112934	0.347148	0.499878
O89	O	-0.334736	0.040094	-0.000105
O90	O	0.165264	0.540094	0.499895
O91	O	-0.310787	-0.342774	-0.000141
O92	O	0.189213	0.157226	0.499859
C93	C	-0.669683	-0.355280	-0.000123
C94	C	-0.169683	0.144720	0.499877
C95	C	-0.671195	-0.481258	-0.000117
C96	C	-0.171195	0.018742	0.499883
N97	N	-0.673191	-0.147744	-0.318963
N98	N	-0.173191	0.352256	0.181037
C99	C	-0.672423	0.416434	-0.000121
C100	C	-0.172423	0.916434	0.499879
C101	C	-0.673968	0.288085	-0.000133
C102	C	-0.173968	0.788085	0.499867
C103	C	-0.673196	-0.147744	-0.430301
C104	C	-0.173196	0.352256	0.069699
C105	C	-0.673203	-0.147733	-0.569978
C106	C	-0.173203	0.352267	-0.069978
N107	N	-0.673212	-0.147718	0.318693
N108	N	-0.173212	0.352282	0.818693
H109	H	-0.488636	-0.343267	-0.000079
H110	H	0.011364	0.156733	0.499921
H111	H	0.142230	0.047791	-0.000153
H112	H	0.642230	0.547791	0.499847
H113	H	0.034466	0.045223	-0.000171
H114	H	0.534466	0.545223	0.499829
C115	C	0.176022	-0.357017	-0.000154
C116	C	0.676022	0.142983	0.499846
H117	H	0.214730	-0.341243	-0.000168
H118	H	0.714730	0.158757	0.499832
H119	H	0.168947	-0.399769	0.071210
H120	H	0.668947	0.100231	0.571210
H121	H	0.168942	-0.399761	-0.071527
H122	H	0.668942	0.100239	0.428473
C123	C	-0.397663	0.064520	-0.000124
C124	C	0.102337	0.564520	0.499876
H125	H	-0.427712	0.125514	-0.000129
H126	H	0.072288	0.625514	0.499871
H127	H	-0.374751	0.069379	0.071231
H128	H	0.125249	0.569379	0.571231
H129	H	-0.374763	0.069373	-0.071506
H130	H	0.125237	0.569373	0.428494
H131	H	-0.512089	0.032176	-0.000110
H132	H	-0.012089	0.532176	0.499890
C133	C	-0.130877	0.174509	-0.000223
C134	C	0.369123	0.674509	0.499777
H135	H	-0.160931	0.235494	-0.000245
H136	H	0.339069	0.735494	0.499755
H137	H	-0.107968	0.179392	0.071133
H138	H	0.392032	0.679392	0.571133
H139	H	-0.107976	0.179357	-0.071604
H140	H	0.392024	0.679357	0.428396
H141	H	-0.245281	0.142164	-0.000204
H142	H	0.254719	0.642164	0.499796
H143	H	-0.208898	-0.440222	-0.000110
H144	H	0.291102	0.059778	0.499890
C145	C	-0.090805	-0.467011	-0.000118
C146	C	0.409195	0.032989	0.499882
H147	H	-0.113164	-0.529246	-0.000099
H148	H	0.386836	-0.029246	0.499901
H149	H	-0.067358	-0.470782	-0.071476
H150	H	0.432642	0.029218	0.428524
H151	H	-0.067366	-0.470758	0.071262
H152	H	0.432634	0.029242	0.571262
C153	C	-0.370538	-0.370067	-0.000096
C154	C	0.129462	0.129933	0.499904
H155	H	-0.392895	-0.432304	-0.000072
H156	H	0.107105	0.067696	0.499928
H157	H	-0.347093	-0.373837	-0.071458
H158	H	0.152907	0.126163	0.428542
H159	H	-0.347096	-0.373810	0.071279
H160	H	0.152904	0.126190	0.571279
H161	H	0.057909	-0.330239	-0.000143
H162	H	0.557909	0.169761	0.499857
