data_functionalizedCrystal
_audit_creation_method	'MofGen! by Chris Wilmer'
_symmetry_space_group_name_H-M	'P1'
_symmetry_Int_Tables_number	1
_symmetry_cell_setting	triclinic
loop_
_symmetry_equiv_pos_as_xyz
  x,y,z
_cell_length_a	13.262533
_cell_length_b	14.044190
_cell_length_c	12.503552
_cell_angle_alpha	86.163821
_cell_angle_beta	77.661589
_cell_angle_gamma	88.648052
loop_
_atom_site_label
_atom_site_type_symbol
_atom_site_fract_x
_atom_site_fract_y
_atom_site_fract_z
O1	O	1.384999	0.146997	-0.315269
O2	O	1.884999	0.646997	0.184731
O3	O	1.086150	0.155547	-0.227962
O4	O	1.586150	0.655547	0.272038
O5	O	1.231084	0.013190	-0.270325
O6	O	1.731084	0.513190	0.229675
O7	O	1.240065	0.289354	-0.272906
O8	O	1.740065	0.789354	0.227094
O9	O	1.220171	0.023905	-0.445778
O10	O	1.720171	0.523905	0.054222
O11	O	1.075238	0.166262	-0.403415
O12	O	1.575238	0.666262	0.096585
O13	O	1.374086	0.157712	-0.490722
O14	O	1.874086	0.657712	0.009278
Cu15	Cu	1.223665	0.162966	-0.463089
Cu16	Cu	1.723665	0.662966	0.036911
Cu17	Cu	1.236571	0.150293	-0.255595
Cu18	Cu	1.736571	0.650293	0.244405
O19	O	1.229153	0.300069	-0.448359
O20	O	1.729153	0.800069	0.051641
C21	C	1.042217	0.159439	-0.304448
C22	C	1.542217	0.659439	0.195552
C23	C	0.927565	0.155061	-0.270954
C24	C	1.427565	0.655061	0.229046
C25	C	0.580581	0.166097	-0.559100
C26	C	1.080581	0.666097	-0.059100
C27	C	0.688301	0.170215	-0.590574
C28	C	1.188301	0.670215	-0.090574
C29	C	0.748122	0.166427	-0.510672
C30	C	1.248122	0.666427	-0.010672
C31	C	0.700213	0.158520	-0.399290
C32	C	1.200213	0.658520	0.100710
C33	C	0.592483	0.154409	-0.367813
C34	C	1.092483	0.654409	0.132187
C35	C	0.760024	0.154738	-0.319385
C36	C	1.260024	0.654738	0.180615
C37	C	0.712115	0.146832	-0.208003
C38	C	1.212115	0.646832	0.291997
C39	C	0.604394	0.142720	-0.176531
C40	C	1.104394	0.642720	0.323469
C41	C	0.544573	0.146509	-0.256433
C42	C	1.044573	0.646509	0.243567
C43	C	0.867755	0.158850	-0.350862
C44	C	1.367755	0.658850	0.149138
C45	C	0.879656	0.147161	-0.159575
C46	C	1.379656	0.647161	0.340425
C47	C	0.771936	0.143043	-0.128101
C48	C	1.271936	0.643043	0.371899
C49	C	1.221699	-0.016852	-0.356907
C50	C	1.721699	0.483148	0.143093
C51	C	1.209982	-0.122334	-0.353493
C52	C	1.709982	0.377666	0.146507
C53	C	1.271662	-0.371274	-0.371470
C54	C	1.771662	0.128726	0.128530
C55	C	1.188580	-0.315462	-0.347206
C56	C	1.688580	0.184538	0.152794
C57	C	1.200491	-0.207996	-0.350705
C58	C	1.700491	0.292004	0.149295
C59	C	1.259752	-0.478750	-0.367972
C60	C	1.759752	0.021250	0.132028
C61	C	1.418020	0.153820	-0.414234
C62	C	1.918020	0.653820	0.085766
C63	C	1.532672	0.158197	-0.447720
C64	C	2.032672	0.658197	0.052280
C65	C	1.238537	0.330111	-0.361775
C66	C	1.738537	0.830111	0.138225
C67	C	1.250255	0.435593	-0.365182
C68	C	1.750255	0.935593	0.134818
N69	N	1.214596	0.171878	-0.609030
N70	N	1.714596	0.671878	-0.109030
C71	C	1.258984	0.128260	-0.894438
C72	C	1.758984	0.628260	-0.394438
C73	C	1.201263	0.184989	-0.824242
C74	C	1.701263	0.684989	-0.324242
C75	C	1.208683	0.177692	-0.704488
C76	C	1.708683	0.677692	-0.204488
C77	C	1.251565	0.135555	-1.014204
C78	C	1.751565	0.635555	-0.514204
N79	N	1.245648	0.141374	-0.109656
N80	N	1.745648	0.641374	0.390344
H81	H	0.835832	0.169781	-0.536305
H82	H	1.335832	0.669781	-0.036305
N83	N	0.720259	0.134511	-0.007971
N84	N	1.220259	0.634511	0.492029
H85	H	0.642940	0.132480	-0.000161
H86	H	1.142940	0.632480	0.499839
H87	H	0.738729	0.191335	0.029173
H88	H	1.238729	0.691335	0.529173
H89	H	1.146274	0.239037	-0.854086
H90	H	1.646274	0.739037	-0.354086
H91	H	0.928362	0.144080	-0.094512
H92	H	1.428362	0.644080	0.405488
N93	N	0.552724	0.134196	-0.056399
N94	N	1.052724	0.634196	0.443601
H95	H	0.511247	0.073573	-0.039955
H96	H	1.011247	0.573573	0.460045
H97	H	0.505395	0.190931	-0.038280
H98	H	1.005395	0.690931	0.461720
H99	H	1.108505	-0.348389	-0.323806
H100	H	1.608505	0.151611	0.176194
N101	N	0.919414	0.167378	-0.470988
N102	N	1.419414	0.667378	0.029012
H103	H	0.901016	0.110561	-0.508197
H104	H	1.401016	0.610561	-0.008197
H105	H	0.996719	0.169440	-0.478720
H106	H	1.496719	0.669440	0.021280
N107	N	1.377723	-0.327664	-0.402488
N108	N	1.877723	0.172336	0.097512
H109	H	1.420524	-0.352850	-0.348774
H110	H	1.920524	0.147150	0.151226
H111	H	1.371209	-0.255968	-0.400644
H112	H	1.871209	0.244032	0.099356
N113	N	0.739961	0.178747	-0.710700
N114	N	1.239961	0.678747	-0.210700
H115	H	0.721565	0.121930	-0.747911
H116	H	1.221565	0.621930	-0.247911
H117	H	0.817266	0.180811	-0.718431
H118	H	1.317266	0.680811	-0.218431
N119	N	0.516064	0.170195	-0.645271
N120	N	1.016064	0.670195	-0.145271
H121	H	0.440496	0.167733	-0.608419
H122	H	0.940496	0.667733	-0.108419
H123	H	0.534222	0.114069	-0.692461
H124	H	1.034222	0.614069	-0.192461
N125	N	0.428386	0.142062	-0.222496
N126	N	0.928386	0.642062	0.277504
H127	H	0.397144	0.202020	-0.251596
H128	H	0.897144	0.702020	0.248404
H129	H	0.407189	0.136449	-0.139812
H130	H	0.907189	0.636449	0.360188
N131	N	1.331820	0.056681	-0.854898
N132	N	1.831820	0.556681	-0.354898
H133	H	1.404857	0.070365	-0.895717
H134	H	1.904857	0.570365	-0.395717
H135	H	1.312461	-0.009811	-0.868766
H136	H	1.812461	0.490189	-0.368766
