data_functionalizedCrystal
_audit_creation_method	'MofGen! by Chris Wilmer'
_symmetry_space_group_name_H-M	'P1'
_symmetry_Int_Tables_number	1
_symmetry_cell_setting	triclinic
loop_
_symmetry_equiv_pos_as_xyz
  x,y,z
_cell_length_a	21.295419
_cell_length_b	21.295417
_cell_length_c	17.639306
_cell_angle_alpha	101.182150
_cell_angle_beta	78.772373
_cell_angle_gamma	90.045308
loop_
_atom_site_label
_atom_site_type_symbol
_atom_site_fract_x
_atom_site_fract_y
_atom_site_fract_z
Zn1	Zn	1.034217	-0.322293	-0.446872
Zn2	Zn	1.367551	0.011041	-0.113539
Zn3	Zn	1.700884	0.344374	0.219795
Zn4	Zn	1.012864	-0.406289	-0.314692
Zn5	Zn	1.346197	-0.072956	0.018641
Zn6	Zn	1.679530	0.260378	0.351975
Zn7	Zn	0.907689	-0.301069	-0.314717
Zn8	Zn	1.241022	0.032264	0.018617
Zn9	Zn	1.574355	0.365598	0.351950
Zn10	Zn	0.928901	-0.427547	-0.446818
Zn11	Zn	1.262235	-0.094213	-0.113485
Zn12	Zn	1.595568	0.239120	0.219849
O13	O	0.970918	-0.364299	-0.380775
O14	O	1.304251	-0.030966	-0.047441
O15	O	1.637584	0.302367	0.285892
O16	O	1.119476	-0.333421	-0.429350
O17	O	1.452809	-0.000088	-0.096017
O18	O	1.786143	0.333246	0.237316
O19	O	0.981098	-0.374553	-0.204093
O20	O	1.314431	-0.041219	0.129241
O21	O	1.647765	0.292114	0.462574
O22	O	0.924532	-0.215800	-0.332280
O23	O	1.257865	0.117533	0.001053
O24	O	1.591198	0.450867	0.334386
O25	O	1.103788	-0.395133	-0.332238
O26	O	1.437121	-0.061799	0.001095
O27	O	1.770454	0.271534	0.334428
O28	O	1.017492	-0.231393	-0.429374
O29	O	1.350825	0.101940	-0.096041
O30	O	1.684159	0.435273	0.237293
O31	O	0.903826	-0.297248	-0.204111
O32	O	1.237159	0.036085	0.129222
O33	O	1.570493	0.369419	0.462556
O34	O	0.822411	-0.317860	-0.332228
O35	O	1.155744	0.015473	0.001105
O36	O	1.489078	0.348806	0.334439
O37	O	0.960686	-0.431363	-0.557428
O38	O	1.294019	-0.098030	-0.224095
O39	O	1.627352	0.235304	0.109239
O40	O	0.837996	-0.410783	-0.429282
O41	O	1.171329	-0.077450	-0.095949
O42	O	1.504663	0.255884	0.237384
O43	O	1.038061	-0.354034	-0.557467
O44	O	1.371394	-0.020700	-0.224134
O45	O	1.704728	0.312633	0.109199
O46	O	1.001667	-0.497193	-0.332186
O47	O	1.335000	-0.163860	0.001147
O48	O	1.668334	0.169474	0.334481
O49	O	0.939980	-0.512811	-0.429258
O50	O	1.273313	-0.179478	-0.095925
O51	O	1.606647	0.153856	0.237408
C52	C	0.807363	-0.364326	-0.380753
C53	C	1.140696	-0.030993	-0.047419
C54	C	1.474029	0.302341	0.285914
C55	C	0.737396	-0.364356	-0.380762
C56	C	1.070729	-0.031022	-0.047429
C57	C	1.404063	0.302311	0.285905
C58	C	0.712733	-0.332301	-0.431406
C59	C	1.046067	0.001033	-0.098073
C60	C	1.379400	0.334366	0.235260
C61	C	0.646991	-0.332284	-0.431409
C62	C	0.980324	0.001049	-0.098076
C63	C	1.313658	0.334382	0.235257
C64	C	0.605916	-0.364335	-0.380776
C65	C	0.939249	-0.031002	-0.047443
C66	C	1.272582	0.302331	0.285890
C67	C	0.630585	-0.396391	-0.330122
C68	C	0.963918	-0.063058	0.003211
C69	C	1.297251	0.270275	0.336545
C70	C	0.696325	-0.396402	-0.330115
C71	C	1.029658	-0.063068	0.003218
C72	C	1.362992	0.270265	0.336552
N73	N	0.501647	-0.418419	-0.374599
N74	N	0.834980	-0.085086	-0.041266
N75	N	1.168314	0.248247	0.292068
N76	N	0.439197	-0.418409	-0.374611
N77	N	0.772531	-0.085075	-0.041277
N78	N	1.105864	0.248258	0.292056
C79	C	0.407844	-0.364306	-0.380794
C80	C	0.741177	-0.030972	-0.047460
C81	C	1.074510	0.302361	0.285873
N82	N	0.441302	-0.310215	-0.386980
N83	N	0.774635	0.023118	-0.053647
N84	N	1.107968	0.356452	0.279686
N85	N	0.503758	-0.310227	-0.386973
N86	N	0.837091	0.023106	-0.053640
N87	N	1.170424	0.356440	0.279694
C88	C	0.534631	-0.364328	-0.380778
C89	C	0.867964	-0.030994	-0.047445
C90	C	1.201297	0.302339	0.285889
C91	C	0.311897	-0.332230	-0.431444
C92	C	0.645230	0.001103	-0.098111
C93	C	0.978563	0.334437	0.235223
C94	C	0.246152	-0.332211	-0.431442
C95	C	0.579486	0.001122	-0.098108
C96	C	0.912819	0.334455	0.235225
C97	C	0.229748	-0.396325	-0.330159
C98	C	0.563081	-0.062992	0.003175
C99	C	0.896415	0.270342	0.336508
C100	C	0.295490	-0.396337	-0.330157
C101	C	0.628823	-0.063004	0.003176
C102	C	0.962157	0.270330	0.336510
C103	C	0.336561	-0.364291	-0.380804
C104	C	0.669895	-0.030958	-0.047471
C105	C	1.003228	0.302376	0.285863
C106	C	0.970828	-0.527844	-0.380731
C107	C	1.304161	-0.194511	-0.047398
C108	C	1.637495	0.138823	0.285936
C109	C	0.970852	-0.597813	-0.380739
C110	C	1.304185	-0.264480	-0.047405
C111	C	1.637518	0.068853	0.285928
C112	C	1.003016	-0.622535	-0.330245
C113	C	1.336349	-0.289202	0.003088
C114	C	1.669683	0.044131	0.336422
C115	C	1.003049	-0.688281	-0.330263
C116	C	1.336382	-0.354947	0.003071
C117	C	1.669715	-0.021614	0.336404
C118	C	0.970904	-0.729300	-0.380766
C119	C	1.304237	-0.395967	-0.047433
C120	C	1.637570	-0.062633	0.285901
C121	C	0.938738	-0.704572	-0.431270
C122	C	1.272071	-0.371239	-0.097936
C123	C	1.605405	-0.037905	0.235397
C124	C	0.938712	-0.638828	-0.431256
C125	C	1.272045	-0.305495	-0.097923
C126	C	1.605379	0.027838	0.235411
N127	N	0.916805	-0.833549	-0.386784
N128	N	1.250138	-0.500215	-0.053451
N129	N	1.583471	-0.166882	0.279883
N130	N	0.916830	-0.896001	-0.386792
N131	N	1.250164	-0.562668	-0.053459
N132	N	1.583497	-0.229335	0.279874
C133	C	0.970982	-0.927382	-0.380811
C134	C	1.304315	-0.594049	-0.047478
C135	C	1.637648	-0.260715	0.285855
N136	N	1.025105	-0.893948	-0.374806
N137	N	1.358438	-0.560615	-0.041473
N138	N	1.691771	-0.227281	0.291860
N139	N	1.025078	-0.831489	-0.374794
N140	N	1.358411	-0.498156	-0.041460
N141	N	1.691744	-0.164822	0.291873
C142	C	0.970929	-0.800589	-0.380787
C143	C	1.304262	-0.467256	-0.047453
C144	C	1.637596	-0.133922	0.285880
C145	C	1.003184	-1.023392	-0.330334
C146	C	1.336517	-0.690059	0.002999
C147	C	1.669851	-0.356726	0.336333
C148	C	1.003218	-1.089140	-0.330357
C149	C	1.336552	-0.755806	0.002976
C150	C	1.669885	-0.422473	0.336309
C151	C	0.938902	-1.105429	-0.431360
C152	C	1.272235	-0.772096	-0.098027
C153	C	1.605568	-0.438762	0.235307
C154	C	0.938874	-1.039684	-0.431341
C155	C	1.272207	-0.706350	-0.098008
C156	C	1.605540	-0.373017	0.235326
C157	C	0.971013	-0.998668	-0.380824
C158	C	1.304347	-0.665335	-0.047490
C159	C	1.637680	-0.332002	0.285843
C160	C	1.135112	-0.364273	-0.380797
C161	C	1.468445	-0.030940	-0.047464
C162	C	1.801778	0.302394	0.285869
C163	C	1.205081	-0.364262	-0.380807
C164	C	1.538415	-0.030929	-0.047474
C165	C	1.871748	0.302405	0.285860
C166	C	1.004121	-0.397437	-0.586927
C167	C	1.337455	-0.064104	-0.253594
C168	C	1.670788	0.269230	0.079739
C169	C	1.018271	-0.411558	-0.674777
C170	C	1.351604	-0.078225	-0.341444
C171	C	1.684938	0.255108	-0.008111
C172	C	0.971028	-0.200119	-0.380836
C173	C	1.304361	0.133214	-0.047503
C174	C	1.637694	0.466548	0.285831
C175	C	0.971074	-0.130155	-0.380862
C176	C	1.304408	0.203178	-0.047529
C177	C	1.637741	0.536512	0.285805
C178	C	0.863670	-0.256787	-0.963776
C179	C	1.197004	0.076547	-0.630443
C180	C	1.530337	0.409880	-0.297109
C181	C	0.876980	-0.270069	-1.046324
C182	C	1.210314	0.063264	-0.712991
C183	C	1.543647	0.396598	-0.379658
C184	C	0.957435	-0.350558	-1.046286
C185	C	1.290768	-0.017225	-0.712952
C186	C	1.624102	0.316108	-0.379619
C187	C	0.944134	-0.337280	-0.963736
C188	C	1.277467	-0.003947	-0.630402
C189	C	1.610801	0.329386	-0.297069
C190	C	0.897251	-0.290395	-0.922487
C191	C	1.230584	0.042939	-0.589154
C192	C	1.563917	0.376272	-0.255821
C193	C	0.977714	-0.370888	-0.922447
C194	C	1.311048	-0.037555	-0.589113
C195	C	1.644381	0.295778	-0.255780
C196	C	0.964412	-0.357614	-0.839904
C197	C	1.297745	-0.024280	-0.506570
C198	C	1.631079	0.309053	-0.173237
C199	C	0.917529	-0.310731	-0.798650
C200	C	1.250863	0.022602	-0.465316
C201	C	1.584196	0.355935	-0.131983
C202	C	0.883948	-0.277120	-0.839944
C203	C	1.217282	0.056213	-0.506611
C204	C	1.550615	0.389547	-0.173278
C205	C	1.024594	-0.417777	-0.963697
C206	C	1.357928	-0.084444	-0.630363
C207	C	1.691261	0.248890	-0.297030
C208	C	1.058175	-0.451385	-0.922408
C209	C	1.391508	-0.118052	-0.589074
C210	C	1.724841	0.215282	-0.255741
C211	C	1.044876	-0.438107	-0.839863
C212	C	1.378209	-0.104774	-0.506530
C213	C	1.711542	0.228559	-0.173197
C214	C	0.997993	-0.391225	-0.798609
C215	C	1.331326	-0.057892	-0.465276
C216	C	1.664660	0.275442	-0.131943
C217	C	1.078457	-0.471719	-0.798569
C218	C	1.411790	-0.138385	-0.465235
C219	C	1.745123	0.194948	-0.131902
C220	C	1.065154	-0.458444	-0.716026
C221	C	1.398488	-0.125111	-0.382692
C222	C	1.731821	0.208222	-0.049359
C223	C	0.984691	-0.377950	-0.716066
C224	C	1.318024	-0.044617	-0.382733
C225	C	1.651357	0.288716	-0.049400
C226	C	0.937879	-0.331245	-0.175424
C227	C	1.271213	0.002088	0.157909
C228	C	1.604546	0.335421	0.491243
C229	C	0.923852	-0.316947	-0.087575
C230	C	1.257185	0.016387	0.245759
C231	C	1.590519	0.349720	0.579092
H232	H	0.716404	-0.422505	-0.288873
H233	H	1.049737	-0.089172	0.044460
H234	H	1.383070	0.244161	0.377794
H235	H	1.035425	-0.428582	-1.030908
H236	H	1.368758	-0.095249	-0.697575
H237	H	1.702092	0.238085	-0.364242
O238	O	1.037872	-0.979156	-0.275874
O239	O	1.371206	-0.645823	0.057459
O240	O	1.704539	-0.312490	0.390792
H241	H	1.032449	-0.929286	-0.284346
H242	H	1.365783	-0.595953	0.048988
H243	H	1.699116	-0.262620	0.382321
H244	H	0.912679	-1.019553	-0.472454
H245	H	1.246013	-0.686220	-0.139121
H246	H	1.579346	-0.352887	0.194212
O247	O	0.813105	-0.206215	-0.919275
O248	O	1.146438	0.127118	-0.585942
O249	O	1.479771	0.460451	-0.252609
H250	H	0.791985	-0.185074	-0.961852
H251	H	1.125319	0.148259	-0.628518
H252	H	1.458652	0.481593	-0.295185
O253	O	1.037753	-0.714944	-0.275801
O254	O	1.371087	-0.381610	0.057532
O255	O	1.704420	-0.048277	0.390865
H256	H	1.075479	-0.750530	-0.311225
H257	H	1.408812	-0.417197	0.022109
H258	H	1.742146	-0.083863	0.355442
H259	H	1.116624	-0.509898	-0.832165
H260	H	1.449958	-0.176564	-0.498832
H261	H	1.783291	0.156769	-0.165499
H262	H	0.345338	-0.306131	-0.472679
H263	H	0.678671	0.027202	-0.139345
H264	H	1.012004	0.360535	0.193988
O265	O	0.903184	-0.296410	-0.709620
O266	O	1.236518	0.036924	-0.376287
O267	O	1.569851	0.370257	-0.042954
H268	H	0.864941	-0.258164	-0.687876
H269	H	1.198274	0.075170	-0.354543
H270	H	1.531607	0.408503	-0.021210
O271	O	1.101375	-0.494685	-0.671483
O272	O	1.434708	-0.161351	-0.338150
O273	O	1.768042	0.171982	-0.004817
H274	H	1.136216	-0.529511	-0.714033
H275	H	1.469550	-0.196178	-0.380699
H276	H	1.802883	0.137155	-0.047366
O277	O	1.037910	-1.115809	-0.275892
O278	O	1.371244	-0.782475	0.057441
O279	O	1.704577	-0.449142	0.390774
H280	H	1.060247	-1.076240	-0.240759
H281	H	1.393581	-0.742906	0.092574
H282	H	1.726914	-0.409573	0.425907
O283	O	0.904233	-1.149663	-0.485836
O284	O	1.237566	-0.816330	-0.152503
O285	O	1.570899	-0.482997	0.180830
H286	H	0.852640	-1.134915	-0.472224
H287	H	1.185973	-0.801582	-0.138891
H288	H	1.519307	-0.468249	0.194443
O289	O	0.219547	-0.297634	-0.486065
O290	O	0.552880	0.035699	-0.152732
O291	O	0.886213	0.369033	0.180602
H292	H	0.259153	-0.275358	-0.521283
H293	H	0.592487	0.057975	-0.187950
H294	H	0.925820	0.391308	0.145383
O295	O	0.833386	-0.226543	-0.795450
O296	O	1.166720	0.106791	-0.462117
O297	O	1.500053	0.440124	-0.128784
H298	H	0.829784	-0.222957	-0.731117
H299	H	1.163117	0.110377	-0.397784
H300	H	1.496451	0.443710	-0.064450
O301	O	0.934125	-0.327376	-0.671574
O302	O	1.267459	0.005957	-0.338240
O303	O	1.600792	0.339291	-0.004907
H304	H	0.956267	-0.289299	-0.633989
H305	H	1.289600	0.044034	-0.300655
H306	H	1.622933	0.377368	0.032678
O307	O	0.185453	-0.430889	-0.275538
O308	O	0.518787	-0.097555	0.057796
O309	O	0.852120	0.235778	0.391129
H310	H	0.200191	-0.482473	-0.288969
H311	H	0.533524	-0.149139	0.044364
H312	H	0.866858	0.184194	0.377698
O313	O	0.757030	-0.297725	-0.486015
O314	O	1.090363	0.035609	-0.152682
O315	O	1.423697	0.368942	0.180652
H316	H	0.728830	-0.275424	-0.521225
H317	H	1.062163	0.057909	-0.187891
H318	H	1.395497	0.391242	0.145442
O319	O	0.904005	-0.612156	-0.485704
O320	O	1.237338	-0.278822	-0.152371
O321	O	1.570672	0.054511	0.180962
H322	H	0.881652	-0.651721	-0.520821
H323	H	1.214985	-0.318387	-0.187488
H324	H	1.548318	0.014946	0.145845
H325	H	0.849634	-0.242696	-1.079939
H326	H	1.182967	0.090638	-0.746605
H327	H	1.516301	0.423971	-0.413272
H328	H	0.995605	-0.388735	-1.079881
H329	H	1.328939	-0.055401	-0.746548
H330	H	1.662272	0.277932	-0.413215
H331	H	1.096345	-0.489562	-0.956003
H332	H	1.429678	-0.156228	-0.622670
H333	H	1.763012	0.177105	-0.289337
O334	O	0.322098	-0.430914	-0.275536
O335	O	0.655431	-0.097580	0.057797
O336	O	0.988765	0.235753	0.391130
H337	H	0.282493	-0.453201	-0.240330
H338	H	0.615827	-0.119868	0.093003
H339	H	0.949160	0.213465	0.426337
H340	H	0.912567	-0.737975	-0.472391
H341	H	1.245900	-0.404641	-0.139058
H342	H	1.579234	-0.071308	0.194276
O343	O	1.037692	-0.578302	-0.275771
O344	O	1.371025	-0.244968	0.057563
O345	O	1.704358	0.088365	0.390896
H346	H	1.016952	-0.580986	-0.213729
H347	H	1.350285	-0.247652	0.119604
H348	H	1.683619	0.085681	0.452938
O349	O	0.620379	-0.297715	-0.486040
O350	O	0.953712	0.035618	-0.152707
O351	O	1.287046	0.368951	0.180627
H352	H	0.659984	-0.275438	-0.521260
H353	H	0.993317	0.057896	-0.187927
H354	H	1.326650	0.391229	0.145407
H355	H	0.597137	-0.422487	-0.288896
H356	H	0.930470	-0.089154	0.044438
H357	H	1.263803	0.244180	0.377771
