data_functionalizedCrystal
_audit_creation_method	'MofGen! by Chris Wilmer'
_symmetry_space_group_name_H-M	'P1'
_symmetry_Int_Tables_number	1
_symmetry_cell_setting	triclinic
loop_
_symmetry_equiv_pos_as_xyz
  x,y,z
_cell_length_a	14.044220
_cell_length_b	10.654550
_cell_length_c	9.130313
_cell_angle_alpha	89.999890
_cell_angle_beta	90.004466
_cell_angle_gamma	88.836890
loop_
_atom_site_label
_atom_site_type_symbol
_atom_site_fract_x
_atom_site_fract_y
_atom_site_fract_z
O1	O	-1.259693	-0.302980	0.121637
O2	O	-0.983652	-0.292047	0.121674
O3	O	-1.128019	-0.115412	0.121649
O4	O	-1.115326	-0.479615	0.121662
O5	O	-1.128017	-0.115417	-0.121950
O6	O	-0.983650	-0.292052	-0.121925
O7	O	-1.259691	-0.302985	-0.121962
Cu8	Cu	-1.121671	-0.297519	-0.144186
Cu9	Cu	-1.121673	-0.297513	0.143898
O10	O	-1.115324	-0.479620	-0.121937
C11	C	-0.948305	-0.287263	-0.000121
C12	C	-0.842986	-0.272988	-0.000106
C13	C	-1.127086	-0.068523	-0.000149
C14	C	-1.124298	0.071201	-0.000143
C15	C	-1.295038	-0.307769	-0.000164
C16	C	-1.400358	-0.322044	-0.000169
C17	C	-0.650153	-0.246889	-0.000136
C18	C	-0.593185	-0.348137	-0.000139
C19	C	-0.485886	-0.333615	-0.000156
C20	C	-0.757461	-0.261409	-0.000120
C21	C	-1.116257	-0.526509	-0.000136
C22	C	-1.119045	-0.666233	-0.000132
N23	N	-1.121676	-0.297523	-0.346809
C24	C	-1.209299	0.142144	-0.000159
C25	C	-1.206673	0.273429	-0.000148
C26	C	-1.034038	0.262814	-0.000112
C27	C	-1.036664	0.131532	-0.000112
C28	C	-1.308969	0.148274	-0.000186
C29	C	-1.306343	0.279559	-0.000176
C30	C	-1.185618	-0.219340	-0.423472
C31	C	-1.185616	-0.219324	-0.576808
C32	C	-1.057725	-0.375686	-0.576806
C33	C	-1.057724	-0.375694	-0.423472
C34	C	-1.259458	-0.129069	-0.423474
C35	C	-1.259455	-0.129054	-0.576811
N36	N	-1.121675	-0.297500	0.346520
H37	H	-0.618342	-0.149310	-0.000148
H38	H	-1.236409	-0.035516	-0.624358
C39	C	-0.605851	-0.545234	0.125129
C40	C	-0.636112	-0.479887	-0.000103
H41	H	-0.632349	-0.626571	0.125150
H42	H	-0.626350	-0.500859	0.210054
H43	H	-0.538330	-0.552607	0.125099
H44	H	-0.703633	-0.472506	-0.000068
H45	H	-0.615618	-0.524273	-0.085050
H46	H	-1.243262	-0.030909	-0.381855
H47	H	-1.347954	0.115001	0.101747
C48	C	-0.865760	0.134232	-0.000068
C49	C	-0.943229	0.053549	-0.000086
H50	H	-0.808076	0.086085	-0.000061
H51	H	-0.868332	0.185653	0.084875
H52	H	-0.868328	0.185661	-0.085023
H53	H	-0.940665	0.002126	0.084874
H54	H	-0.940655	0.002106	-0.085038
C55	C	-0.953356	0.459348	-0.000092
C56	C	-0.937714	0.329135	-0.000091
H57	H	-0.893888	0.500287	-0.000089
H58	H	-0.988387	0.483033	0.084846
H59	H	-0.988391	0.483034	-0.085051
H60	H	-0.902686	0.305448	0.084875
H61	H	-0.902669	0.305440	-0.085037
H62	H	-1.340707	0.109456	-0.105372
C63	C	-1.276647	0.406758	0.211395
C64	C	-1.347006	0.337098	0.141803
H65	H	-1.301748	0.442272	0.299050
H66	H	-1.256721	0.471944	0.148139
H67	H	-1.223761	0.353291	0.234214
H68	H	-1.399889	0.390567	0.118975
H69	H	-1.366945	0.271904	0.205073
H70	H	-1.343896	0.317543	-0.102124
H71	H	-1.328328	-0.166578	-0.375924
C72	C	-0.893998	-0.430939	-0.624006
C73	C	-0.987433	-0.461608	-0.661083
H74	H	-0.850603	-0.483981	-0.676043
H75	H	-0.884854	-0.442144	-0.521727
H76	H	-0.883166	-0.345894	-0.649129
H77	H	-0.998267	-0.546651	-0.635951
H78	H	-0.996581	-0.450414	-0.763385
H79	H	-1.005649	-0.439345	-0.361054
H80	H	-1.332349	-0.157898	-0.618437
