data_functionalizedCrystal
_audit_creation_method	'MofGen! by Chris Wilmer'
_symmetry_space_group_name_H-M	'P1'
_symmetry_Int_Tables_number	1
_symmetry_cell_setting	triclinic
loop_
_symmetry_equiv_pos_as_xyz
  x,y,z
_cell_length_a	15.944551
_cell_length_b	16.992695
_cell_length_c	15.455313
_cell_angle_alpha	87.152573
_cell_angle_beta	87.323015
_cell_angle_gamma	92.916519
loop_
_atom_site_label
_atom_site_type_symbol
_atom_site_fract_x
_atom_site_fract_y
_atom_site_fract_z
O1	O	1.124754	-0.097702	-0.072040
O2	O	0.881041	-0.110169	-0.072062
O3	O	1.001920	0.010207	-0.072045
O4	O	1.003875	-0.218078	-0.072058
O5	O	0.995006	0.003352	0.072217
O6	O	0.874127	-0.117024	0.072199
O7	O	1.117839	-0.104557	0.072221
Cu8	Cu	0.995352	-0.111417	0.085382
Cu9	Cu	1.003529	-0.103310	-0.085223
O10	O	0.996960	-0.224933	0.072203
C11	C	0.846255	-0.113079	0.000066
C12	C	0.752906	-0.111527	0.000058
C13	C	0.995949	0.035992	0.000086
C14	C	0.988449	0.123037	0.000085
C15	C	1.002931	-0.250718	0.000071
C16	C	1.010431	-0.337762	0.000066
C17	C	0.532795	-0.033204	0.000079
C18	C	0.477623	-0.066195	-0.071051
C19	C	0.581991	-0.108720	0.000068
C20	C	0.470830	-0.072971	0.071179
C21	C	0.416895	-0.106003	0.000082
C22	C	0.528052	-0.141729	-0.071121
C23	C	0.521261	-0.148498	0.071173
C24	C	0.466111	-0.181543	0.000025
C25	C	0.677099	-0.110283	0.000059
C26	C	0.321790	-0.104446	0.000084
C27	C	1.152625	-0.101647	0.000091
C28	C	1.245975	-0.103199	0.000093
N29	N	0.989607	-0.117118	0.205377
C30	C	1.060814	0.173273	0.000092
C31	C	1.053762	0.255060	0.000083
C32	C	0.974345	0.286609	0.000073
C33	C	0.901975	0.236367	0.000063
C34	C	0.909028	0.154581	0.000066
C35	C	0.945114	0.530209	0.000059
C36	C	0.938067	0.612001	0.000059
C37	C	1.089855	0.630689	0.000077
C38	C	1.096900	0.548901	0.000085
C39	C	1.024531	0.498666	0.000070
N40	N	0.967135	0.370209	0.000067
N41	N	1.031742	0.415068	0.000070
N42	N	1.009280	-0.097602	-0.205218
C43	C	1.040980	-0.065997	0.250778
C44	C	1.036644	-0.070316	0.341586
C45	C	0.980937	-0.125761	0.386990
C46	C	0.929558	-0.176884	0.341582
C47	C	0.933890	-0.172561	0.250776
C48	C	0.962233	-0.144402	0.658568
C49	C	0.957906	-0.148723	0.749380
C50	C	1.064992	-0.042153	0.749378
C51	C	1.069323	-0.037838	0.658571
C52	C	1.017941	-0.088958	0.613171
N53	N	0.976505	-0.130179	0.479809
N54	N	1.022369	-0.084536	0.520353
H55	H	0.561929	0.029473	-0.000005
F56	F	1.100276	-0.006989	0.202465
F57	F	0.560743	-0.179707	-0.149809
F58	F	0.452306	-0.020713	-0.149650
F59	F	0.898613	-0.207740	0.797697
F60	F	0.428270	-0.263542	-0.000030
F61	F	0.546607	-0.193948	0.149774
F62	F	0.438009	-0.034942	0.149779
H63	H	1.125484	0.147592	0.000106
F64	F	1.119671	0.012251	0.797701
H65	H	1.112689	0.295960	0.000091
F66	F	1.181428	0.515332	0.000074
H67	H	1.148774	0.671599	0.000087
H68	H	0.873392	0.637684	0.000065
H69	H	0.920397	-0.186027	0.621611
F70	F	0.868091	0.476756	0.000041
H71	H	0.837312	0.262061	0.000050
H72	H	0.850101	0.113679	0.000060
F73	F	1.091321	-0.015907	0.389906
F74	F	1.128613	0.021171	0.610249
H75	H	0.884195	-0.222026	0.378555
F76	F	0.879208	-0.226969	0.202457
