data_functionalizedCrystal
_audit_creation_method	'MofGen! by Chris Wilmer'
_symmetry_space_group_name_H-M	'P1'
_symmetry_Int_Tables_number	1
_symmetry_cell_setting	triclinic
loop_
_symmetry_equiv_pos_as_xyz
  x,y,z
_cell_length_a	10.723024
_cell_length_b	14.853567
_cell_length_c	9.198806
_cell_angle_alpha	90.000611
_cell_angle_beta	89.996352
_cell_angle_gamma	84.051400
loop_
_atom_site_label
_atom_site_type_symbol
_atom_site_fract_x
_atom_site_fract_y
_atom_site_fract_z
O1	O	1.655909	0.126445	-0.120870
O2	O	1.292634	0.138549	-0.120873
O3	O	1.483975	0.001318	-0.120876
O4	O	1.464568	0.263675	-0.120867
O5	O	1.483960	0.001318	0.120909
O6	O	1.292619	0.138548	0.120912
O7	O	1.655894	0.126445	0.120915
Cu8	Cu	1.474255	0.132497	0.142991
Cu9	Cu	1.474273	0.132497	-0.142948
O10	O	1.464553	0.263675	0.120918
C11	C	1.246136	0.137668	0.000019
C12	C	1.107608	0.135032	0.000017
C13	C	1.031849	0.211819	0.000018
C14	C	0.888673	0.209097	0.000016
C15	C	1.483088	-0.032275	0.000013
C16	C	1.480453	-0.132373	-0.000000
C17	C	1.355653	-0.545565	0.000026
C18	C	1.582971	-0.565646	0.000029
C19	C	1.585448	-0.471599	0.000020
C20	C	1.473027	-0.414531	0.000017
C21	C	1.358127	-0.451510	0.000022
C22	C	1.700345	-0.434614	0.000029
C23	C	1.702828	-0.340562	0.000022
C24	C	1.590405	-0.283491	0.000009
C25	C	1.475501	-0.320475	0.000013
C26	C	1.363079	-0.263407	0.000009
C27	C	1.248174	-0.300389	0.000003
C28	C	1.245704	-0.394440	0.000009
C29	C	1.592874	-0.189441	0.000003
C30	C	1.365554	-0.169351	0.000005
C31	C	1.702392	0.127326	0.000020
C32	C	1.840919	0.129961	0.000013
C33	C	1.465439	0.297269	0.000026
C34	C	1.468075	0.397366	0.000030
N35	N	1.474251	0.132496	0.344104
N36	N	1.474286	0.132491	-0.344062
C37	C	1.554592	0.074623	0.416300
C38	C	1.554612	0.074619	0.583713
H39	H	1.274005	-0.122892	-0.000004
C40	C	1.727534	-0.095325	-0.124284
C41	C	1.719161	-0.148784	0.000011
H42	H	1.805500	-0.070222	-0.124273
H43	H	1.721863	-0.131604	-0.208580
H44	H	1.660926	-0.047883	-0.124279
H45	H	1.785764	-0.196230	0.000001
H46	H	1.724844	-0.112502	0.084329
C47	C	1.304659	0.151169	0.515501
C48	C	1.381411	0.199382	0.427967
H49	H	1.247347	0.192465	0.567277
H50	H	1.259499	0.113493	0.456127
H51	H	1.355080	0.114861	0.582480
H52	H	1.330990	0.235685	0.360980
H53	H	1.426573	0.237074	0.487346
H54	H	1.796390	-0.310459	0.000026
H55	H	1.066471	0.067277	-0.000023
H56	H	1.152154	-0.424559	0.000005
C57	C	0.872346	0.371537	0.000012
C58	C	0.800805	0.297845	0.000012
H59	H	0.818095	0.426326	-0.000000
H60	H	0.923711	0.369138	0.084326
H61	H	0.923735	0.369129	-0.084307
H62	H	0.749422	0.300249	0.084337
H63	H	0.749418	0.300245	-0.084310
H64	H	0.906010	0.064222	0.000002
C65	C	1.151051	-0.147295	0.000000
C66	C	1.124602	-0.237653	-0.000003
H67	H	1.074763	-0.108564	-0.000012
H68	H	1.198141	-0.136018	0.084315
H69	H	1.198169	-0.136021	-0.084317
H70	H	1.077491	-0.248929	0.084320
H71	H	1.077492	-0.248935	-0.084327
C72	C	1.770359	0.022706	0.630806
C73	C	1.647471	0.007726	0.667514
H74	H	1.827686	-0.018591	0.682551
H75	H	1.782519	0.013929	0.529309
H76	H	1.784219	0.082936	0.655688
H77	H	1.633609	-0.052502	0.642622
H78	H	1.635306	0.016495	0.769034
C79	C	1.250911	-0.680814	0.000029
C80	C	1.229353	-0.586211	0.000026
H81	H	1.172937	-0.705905	0.000038
H82	H	1.297200	-0.700349	-0.084283
H83	H	1.297202	-0.700346	0.084350
H84	H	1.183069	-0.566679	-0.084301
H85	H	1.183044	-0.566668	0.084346
H86	H	1.674499	-0.612116	0.000043
H87	H	1.072985	0.279574	0.000029
H88	H	1.791873	-0.481085	0.000045
C89	C	1.627007	-0.081033	0.369039
C90	C	1.647432	0.007754	0.332402
H91	H	1.684321	-0.122308	0.317227
H92	H	1.639228	-0.089825	0.470522
H93	H	1.543624	-0.091182	0.344191
H94	H	1.730813	0.017906	0.357260
H95	H	1.635221	0.016550	0.230897
H96	H	1.405504	0.182044	0.593862
