data_functionalizedCrystal
_audit_creation_method	'MofGen! by Chris Wilmer'
_symmetry_space_group_name_H-M	'P1'
_symmetry_Int_Tables_number	1
_symmetry_cell_setting	triclinic
loop_
_symmetry_equiv_pos_as_xyz
  x,y,z
_cell_length_a	12.594517
_cell_length_b	12.594516
_cell_length_c	14.908308
_cell_angle_alpha	93.270069
_cell_angle_beta	93.287766
_cell_angle_gamma	90.007702
loop_
_atom_site_label
_atom_site_type_symbol
_atom_site_fract_x
_atom_site_fract_y
_atom_site_fract_z
Zn1	Zn	1.592558	-0.458553	-0.509887
Zn2	Zn	1.925892	-0.125220	-0.176554
Zn3	Zn	2.259225	0.208114	0.156780
Zn4	Zn	1.602740	-0.626290	-0.359038
Zn5	Zn	1.936073	-0.292956	-0.025704
Zn6	Zn	2.269407	0.040377	0.307629
Zn7	Zn	1.424838	-0.448315	-0.359069
Zn8	Zn	1.758171	-0.114981	-0.025736
Zn9	Zn	2.091505	0.218352	0.307598
Zn10	Zn	1.414559	-0.636476	-0.509873
Zn11	Zn	1.747892	-0.303143	-0.176539
Zn12	Zn	2.081225	0.030191	0.156794
O13	O	1.508674	-0.542408	-0.434467
O14	O	1.842007	-0.209075	-0.101133
O15	O	2.175340	0.124258	0.232200
O16	O	1.742855	-0.480825	-0.489869
O17	O	2.076189	-0.147492	-0.156536
O18	O	2.409522	0.185842	0.176797
O19	O	1.587704	-0.594133	-0.232799
O20	O	1.921037	-0.260800	0.100534
O21	O	2.254371	0.072534	0.433868
O22	O	1.447127	-0.300728	-0.379094
O23	O	1.780460	0.032605	-0.045761
O24	O	2.113794	0.365938	0.287572
O25	O	1.750336	-0.604061	-0.379041
O26	O	2.083669	-0.270727	-0.045708
O27	O	2.417002	0.062606	0.287626
O28	O	1.570351	-0.308250	-0.489900
O29	O	1.903684	0.025083	-0.156566
O30	O	2.237017	0.358416	0.176767
O31	O	1.457000	-0.463376	-0.232822
O32	O	1.790333	-0.130042	0.100511
O33	O	2.123667	0.203291	0.433845
O34	O	1.274528	-0.473253	-0.379081
O35	O	1.607861	-0.139920	-0.045747
O36	O	1.941195	0.193414	0.287586
O37	O	1.429608	-0.621422	-0.636118
O38	O	1.762941	-0.288089	-0.302784
O39	O	2.096274	0.045245	0.030549
O40	O	1.266976	-0.611494	-0.489875
O41	O	1.600309	-0.278161	-0.156542
O42	O	1.933643	0.055172	0.176791
O43	O	1.560383	-0.490703	-0.636128
O44	O	1.893717	-0.157369	-0.302795
O45	O	2.227050	0.175964	0.030539
O46	O	1.577737	-0.776585	-0.379027
O47	O	1.911070	-0.443252	-0.045694
O48	O	2.244403	-0.109919	0.287639
O49	O	1.439480	-0.784069	-0.489845
O50	O	1.772814	-0.450736	-0.156512
O51	O	2.106147	-0.117403	0.176821
C52	C	1.232132	-0.542369	-0.434480
C53	C	1.565465	-0.209036	-0.101147
C54	C	1.898798	0.124298	0.232186
C55	C	1.113825	-0.542379	-0.434508
C56	C	1.447158	-0.209046	-0.101174
C57	C	1.780491	0.124287	0.232159
C58	C	1.040503	-0.617700	-0.494653
C59	C	1.373836	-0.284367	-0.161319
C60	C	1.707169	0.048967	0.172014
C61	C	0.968175	-0.522165	-0.516840
C62	C	1.301509	-0.188832	-0.183507
C63	C	1.634842	0.144501	0.149827
C64	C	0.975354	-0.637993	-0.412300
C65	C	1.308688	-0.304660	-0.078967
C66	C	1.642021	0.028674	0.254366
C67	C	1.043052	-0.446796	-0.456738
C68	C	1.376386	-0.113462	-0.123405
C69	C	1.709719	0.219871	0.209928
C70	C	1.050240	-0.562686	-0.352160
C71	C	1.383574	-0.229353	-0.018827
C72	C	1.716907	0.103980	0.314507
C73	C	0.977947	-0.467082	-0.374316
C74	C	1.311280	-0.133749	-0.040983
C75	C	1.644614	0.199584	0.292350
C76	C	1.508625	-0.818948	-0.434451
C77	C	1.841959	-0.485615	-0.101118
C78	C	2.175292	-0.152282	0.232216
C79	C	1.508700	-0.937255	-0.434474
C80	C	1.842033	-0.603922	-0.101141
C81	C	2.175367	-0.270589	0.232192
C82	C	1.583976	-1.002404	-0.374265
C83	C	1.917309	-0.669070	-0.040931
C84	C	2.250642	-0.335737	0.292402
C85	C	1.604377	-1.078710	-0.456603
C86	C	1.937710	-0.745376	-0.123269
C87	C	2.271043	-0.412043	0.210064
C88	C	1.488429	-1.071752	-0.352189
C89	C	1.821762	-0.738418	-0.018856
C90	C	2.155096	-0.405085	0.314478
C91	C	1.529148	-1.012006	-0.516855
C92	C	1.862481	-0.678673	-0.183522
C93	C	2.195814	-0.345339	0.149811
C94	C	1.413159	-1.005038	-0.412386
C95	C	1.746492	-0.671705	-0.079053
C96	C	2.079825	-0.338371	0.254280
C97	C	1.433519	-1.081316	-0.494781
C98	C	1.766852	-0.747983	-0.161447
C99	C	2.100185	-0.414649	0.171886
C100	C	1.786295	-0.542449	-0.434453
C101	C	2.119629	-0.209115	-0.101120
C102	C	2.452962	0.124218	0.232213
C103	C	1.904601	-0.542466	-0.434448
C104	C	2.237935	-0.209132	-0.101114
C105	C	2.571268	0.124201	0.232219
C106	C	1.492713	-0.558341	-0.669771
C107	C	1.826046	-0.225007	-0.336438
C108	C	2.159380	0.108326	-0.003105
C109	C	1.485912	-0.565130	-0.770044
C110	C	1.819245	-0.231797	-0.436711
C111	C	2.152578	0.101537	-0.103378
C112	C	1.508750	-0.264790	-0.434502
C113	C	1.842083	0.068543	-0.101169
C114	C	2.175416	0.401877	0.232165
C115	C	1.508782	-0.146485	-0.434517
C116	C	1.842116	0.186848	-0.101184
C117	C	2.175449	0.520181	0.232149
C118	C	1.609305	-0.441745	-0.958480
C119	C	1.942638	-0.108412	-0.625147
C120	C	2.275971	0.224922	-0.291814
C121	C	1.602917	-0.448121	-1.052696
C122	C	1.936251	-0.114787	-0.719362
C123	C	2.269584	0.218546	-0.386029
C124	C	1.466745	-0.584251	-1.052692
C125	C	1.800078	-0.250917	-0.719359
C126	C	2.133412	0.082416	-0.386025
C127	C	1.473132	-0.577875	-0.958477
C128	C	1.806466	-0.244542	-0.625143
C129	C	2.139799	0.088792	-0.291810
C130	C	1.544416	-0.506621	-0.911374
C131	C	1.877749	-0.173288	-0.578041
C132	C	2.211082	0.160046	-0.244708
C133	C	1.550808	-0.500251	-0.817157
C134	C	1.884141	-0.166918	-0.483824
C135	C	2.217474	0.166415	-0.150490
C136	C	1.414631	-0.636375	-0.817155
C137	C	1.747964	-0.303042	-0.483822
C138	C	2.081297	0.030291	-0.150489
C139	C	1.408244	-0.642751	-0.911371
C140	C	1.741577	-0.309418	-0.578037
C141	C	2.074910	0.023916	-0.244704
C142	C	1.524634	-0.526461	-0.200077
C143	C	1.857967	-0.193128	0.133256
C144	C	2.191300	0.140205	0.466589
C145	C	1.531641	-0.519372	-0.099805
C146	C	1.864974	-0.186039	0.233529
C147	C	2.198308	0.147295	0.566862
H148	H	1.086124	-0.579863	-0.282566
H149	H	1.419457	-0.246530	0.050767
H150	H	1.752791	0.086803	0.384101
F151	F	1.667187	-0.957293	-0.307771
F152	F	2.000520	-0.623959	0.025562
F153	F	2.333853	-0.290626	0.358896
H154	H	1.546242	-0.985714	-0.586521
H155	H	1.879575	-0.652380	-0.253187
H156	H	2.212909	-0.319047	0.080146
F157	F	1.390880	-0.660071	-1.102837
F158	F	1.724213	-0.326737	-0.769504
F159	F	2.057547	0.006596	-0.436170
F160	F	1.081808	-0.341129	-0.481360
F161	F	1.415141	-0.007796	-0.148027
F162	F	1.748475	0.325538	0.185306
H163	H	1.369892	-1.115639	-0.545775
H164	H	1.703225	-0.782305	-0.212442
H165	H	2.036558	-0.448972	0.120891
F166	F	0.942125	-0.383787	-0.307801
F167	F	1.275459	-0.050454	0.025532
F168	F	1.608792	0.282879	0.358866
H169	H	0.945559	-0.718815	-0.393545
H170	H	1.278892	-0.385482	-0.060211
H171	H	1.612226	-0.052149	0.273122
H172	H	1.471249	-1.098180	-0.282584
H173	H	1.804582	-0.764846	0.050750
H174	H	2.137916	-0.431513	0.384083
H175	H	1.361796	-0.689205	-0.778791
H176	H	1.695129	-0.355872	-0.445458
H177	H	2.028463	-0.022538	-0.112125
H178	H	1.685209	-1.111024	-0.475309
H179	H	2.018542	-0.777691	-0.141976
H180	H	2.351875	-0.444357	0.191358
H181	H	1.608851	-0.442234	-0.778808
H182	H	1.942185	-0.108901	-0.445474
H183	H	2.275518	0.224432	-0.112141
H184	H	1.332352	-0.972699	-0.393655
H185	H	1.665685	-0.639366	-0.060322
H186	H	1.999019	-0.306032	0.273011
H187	H	1.655754	-0.395289	-1.091046
H188	H	1.989087	-0.061956	-0.757713
H189	H	2.322420	0.271378	-0.424379
H190	H	0.932314	-0.505019	-0.586454
H191	H	1.265647	-0.171685	-0.253121
H192	H	1.598980	0.161648	0.080213
H193	H	1.667351	-0.383733	-0.920129
H194	H	2.000685	-0.050399	-0.586795
H195	H	2.334018	0.282934	-0.253462
H196	H	1.068102	-0.681284	-0.545580
H197	H	1.401436	-0.347951	-0.212247
H198	H	1.734769	-0.014618	0.121086
F199	F	1.332381	-0.718578	-0.961510
F200	F	1.665715	-0.385245	-0.628177
F201	F	1.999048	-0.051912	-0.294843
