data_functionalizedCrystal
_audit_creation_method	'MofGen! by Chris Wilmer'
_symmetry_space_group_name_H-M	'P1'
_symmetry_Int_Tables_number	1
_symmetry_cell_setting	triclinic
loop_
_symmetry_equiv_pos_as_xyz
  x,y,z
_cell_length_a	14.519709
_cell_length_b	10.489741
_cell_length_c	12.996460
_cell_angle_alpha	89.994152
_cell_angle_beta	90.000034
_cell_angle_gamma	84.109659
loop_
_atom_site_label
_atom_site_type_symbol
_atom_site_fract_x
_atom_site_fract_y
_atom_site_fract_z
O1	O	1.224780	0.167204	-0.085432
O2	O	0.956410	0.186894	-0.085464
O3	O	1.096702	-0.008613	-0.085441
O4	O	1.084488	0.362710	-0.085455
O5	O	1.096687	-0.008624	0.085693
O6	O	0.956395	0.186883	0.085670
O7	O	1.224765	0.167193	0.085702
Cu8	Cu	1.090579	0.177037	0.101312
Cu9	Cu	1.090596	0.177050	-0.101074
O10	O	1.084474	0.362699	0.085679
C11	C	0.922038	0.185971	0.000099
C12	C	0.819642	0.183221	0.000088
C13	C	1.095772	-0.056140	0.000125
C14	C	1.093012	-0.197741	0.000123
C15	C	0.444691	0.173098	0.000135
C16	C	0.549014	0.175909	0.000121
C17	C	0.632163	0.178159	0.000110
C18	C	0.736493	0.180971	0.000099
C19	C	1.003749	-0.264951	0.000105
C20	C	1.045909	-0.357518	0.084488
C21	C	1.045944	-0.357482	-0.084237
C22	C	1.135209	-0.288443	0.084575
C23	C	1.135232	-0.288398	-0.084225
C24	C	1.177457	-0.380938	0.000178
C25	C	1.259137	0.168116	0.000136
C26	C	1.361533	0.170866	0.000142
C27	C	1.085403	0.410227	0.000111
C28	C	1.088163	0.551828	0.000106
N29	N	1.090573	0.177027	0.243659
N30	N	1.090609	0.177049	-0.243421
C31	C	1.090595	0.177051	0.663473
C32	C	1.090586	0.177049	0.546668
C33	C	1.090585	0.177040	0.453570
C34	C	1.090575	0.177036	0.336757
H35	H	1.008133	-0.388140	0.155819
C36	C	0.904606	-0.196831	0.000202
C37	C	0.837708	-0.220305	-0.088137
C38	C	0.738568	-0.152183	-0.088034
C39	C	0.706326	-0.060588	0.000407
C40	C	0.773225	-0.037110	0.088752
C41	C	0.872365	-0.105231	0.088650
H42	H	0.861574	-0.288113	-0.153612
H43	H	0.689045	-0.169564	-0.153434
H44	H	0.632937	-0.010161	0.000483
H45	H	0.749359	0.030698	0.154228
H46	H	0.921888	-0.087851	0.154049
H47	H	1.172975	-0.257742	-0.155560
C48	C	1.186178	-0.247343	0.181064
C49	C	1.135655	-0.153511	0.258485
C50	C	1.186619	-0.112408	0.354974
C51	C	1.288106	-0.165137	0.374040
C52	C	1.338634	-0.258975	0.296616
C53	C	1.287670	-0.300078	0.200128
H54	H	1.060524	-0.114472	0.244373
H55	H	1.149215	-0.042942	0.412288
H56	H	1.325833	-0.134710	0.445466
H57	H	1.413765	-0.298014	0.310728
H58	H	1.325074	-0.369543	0.142814
C59	C	1.276690	-0.448750	0.000249
C60	C	1.309119	-0.540228	0.088713
C61	C	1.408352	-0.608040	0.088789
C62	C	1.475155	-0.584373	0.000402
C63	C	1.442727	-0.492890	-0.088068
C64	C	1.343495	-0.425079	-0.088145
H65	H	1.259666	-0.557752	0.154148
H66	H	1.432356	-0.675761	0.154281
H67	H	1.548613	-0.634571	0.000459
H68	H	1.492180	-0.475367	-0.153504
H69	H	1.319490	-0.357357	-0.153637
C70	C	0.994917	-0.398798	-0.180614
C71	C	0.907432	-0.469065	-0.169097
C72	C	0.856398	-0.510375	-0.265468
C73	C	0.892849	-0.481418	-0.373358
C74	C	0.980339	-0.411147	-0.384879
C75	C	1.031372	-0.369837	-0.288508
H76	H	0.880445	-0.490504	-0.089227
H77	H	0.791633	-0.562395	-0.256938
H78	H	0.855071	-0.511998	-0.444698
H79	H	1.007326	-0.389708	-0.464749
H80	H	1.096138	-0.317818	-0.297038
