data_functionalizedCrystal
_audit_creation_method	'MofGen! by Chris Wilmer'
_symmetry_space_group_name_H-M	'P1'
_symmetry_Int_Tables_number	1
_symmetry_cell_setting	triclinic
loop_
_symmetry_equiv_pos_as_xyz
  x,y,z
_cell_length_a	19.188925
_cell_length_b	19.188930
_cell_length_c	17.766277
_cell_angle_alpha	89.988508
_cell_angle_beta	89.989688
_cell_angle_gamma	83.143665
loop_
_atom_site_label
_atom_site_type_symbol
_atom_site_fract_x
_atom_site_fract_y
_atom_site_fract_z
O1	O	0.926152	0.087151	-0.062619
O2	O	1.426152	0.587151	0.437381
O3	O	0.722840	0.098889	-0.062618
O4	O	1.222840	0.598889	0.437382
O5	O	0.830363	-0.008636	-0.062604
O6	O	1.330363	0.491364	0.437396
O7	O	0.818629	0.194675	-0.062633
O8	O	1.318629	0.694675	0.437367
O9	O	0.830344	-0.008642	0.062585
O10	O	1.330344	0.491358	0.562585
O11	O	0.722821	0.098883	0.062571
O12	O	1.222821	0.598883	0.562571
O13	O	0.926133	0.087145	0.062570
O14	O	1.426133	0.587145	0.562570
Cu15	Cu	0.824476	0.093014	0.074001
Cu16	Cu	1.324476	0.593014	0.574001
Cu17	Cu	0.824498	0.093020	-0.074049
Cu18	Cu	1.324498	0.593020	0.425951
O19	O	0.818610	0.194670	0.062555
O20	O	1.318610	0.694670	0.562555
C21	C	0.829974	-0.034650	-0.000007
C22	C	1.329974	0.465350	0.499993
C23	C	0.828833	-0.112154	-0.000001
C24	C	1.328833	0.387846	0.499999
C25	C	0.696820	0.098507	-0.000023
C26	C	1.196820	0.598507	0.499977
C27	C	0.619315	0.097367	-0.000022
C28	C	1.119315	0.597367	0.499978
C29	C	0.057545	0.152831	-0.000032
C30	C	0.557545	0.652831	0.499968
C31	C	0.130368	0.153908	-0.000036
C32	C	0.630368	0.653908	0.499964
C33	C	0.175302	0.090816	-0.000026
C34	C	0.675302	0.590816	0.499974
C35	C	0.147408	0.026642	-0.000030
C36	C	0.647408	0.526642	0.499970
C37	C	0.074586	0.025568	-0.000034
C38	C	0.574586	0.525568	0.499966
N39	N	0.295973	0.045138	0.042596
N40	N	0.795973	0.545138	0.542596
N41	N	0.365150	0.046163	0.042601
N42	N	0.865150	0.546163	0.542601
C43	C	0.394712	0.094050	-0.000017
C44	C	0.894712	0.594050	0.499983
N45	N	0.352481	0.140883	-0.042631
N46	N	0.852481	0.640883	0.457369
N47	N	0.283297	0.139860	-0.042632
N48	N	0.783297	0.639860	0.457368
C49	C	0.254267	0.091974	-0.000023
C50	C	0.754267	0.591974	0.499977
C51	C	0.501561	0.159386	-0.000023
C52	C	1.001561	0.659386	0.499977
C53	C	0.574385	0.160460	-0.000032
C54	C	1.074385	0.660460	0.499968
C55	C	0.591425	0.033193	-0.000018
C56	C	1.091425	0.533193	0.499982
C57	C	0.518601	0.032121	-0.000017
C58	C	1.018601	0.532121	0.499983
C59	C	0.473673	0.095220	-0.000016
C60	C	0.973673	0.595220	0.499984
C61	C	0.891924	-0.157079	0.000003
C62	C	1.391924	0.342921	0.500003
C63	C	0.890852	-0.229903	-0.000010
C64	C	1.390852	0.270097	0.499990
C65	C	0.826686	-0.257799	-0.000010
C66	C	1.326686	0.242201	0.499990
C67	C	0.763587	-0.212864	-0.000017
C68	C	1.263587	0.287136	0.499983
C69	C	0.764660	-0.140041	-0.000013
C70	C	1.264660	0.359959	0.499987
N71	N	0.777632	-0.365804	0.042594
N72	N	1.277632	0.134196	0.542594
N73	N	0.776617	-0.434983	0.042592
N74	N	1.276617	0.065017	0.542592
C75	C	0.823448	-0.477207	-0.000025
C76	C	1.323448	0.022793	0.499975
N77	N	0.871344	-0.447641	-0.042630
N78	N	1.371344	0.052359	0.457370
N79	N	0.872361	-0.378456	-0.042624
N80	N	1.372361	0.121544	0.457376
C81	C	0.825515	-0.336761	-0.000015
C82	C	1.325515	0.163239	0.499985
C83	C	0.885381	-0.601097	-0.000036
C84	C	1.385381	-0.101097	0.499964
C85	C	0.884307	-0.673922	-0.000053
C86	C	1.384307	-0.173922	0.499947
C87	C	0.757040	-0.656880	-0.000053
C88	C	1.257040	-0.156880	0.499947
C89	C	0.758116	-0.584057	-0.000044
C90	C	1.258116	-0.084057	0.499956
C91	C	0.822289	-0.556170	-0.000032
C92	C	1.322289	-0.056170	0.499968
C93	C	0.952154	0.087527	-0.000027
C94	C	1.452154	0.587527	0.499973
C95	C	1.029658	0.088666	-0.000033
C96	C	1.529658	0.588666	0.499967
C97	C	0.819000	0.220684	-0.000043
C98	C	1.319000	0.720684	0.499957
C99	C	0.820140	0.298188	-0.000054
C100	C	1.320140	0.798188	0.499946
N101	N	0.824465	0.093009	0.178131
N102	N	1.324465	0.593009	0.678131
N103	N	0.824514	0.093020	-0.178179
N104	N	1.324514	0.593020	0.321821
C105	C	0.872091	0.045420	0.217524
C106	C	1.372091	0.545420	0.717524
C107	C	0.872096	0.045417	0.296326
C108	C	1.372096	0.545417	0.796326
C109	C	0.824480	0.093014	0.335732
C110	C	1.324480	0.593014	0.835732
C111	C	0.776844	0.140607	0.296329
C112	C	1.276844	0.640607	0.796329
C113	C	0.776837	0.140604	0.217529
C114	C	1.276837	0.640604	0.717529
C115	C	0.815137	0.156630	0.460561
C116	C	1.315137	0.656630	0.960561
C117	C	0.815150	0.156634	0.539359
C118	C	1.315150	0.656634	1.039359
C119	C	0.824498	0.093023	0.578778
C120	C	1.324498	0.593023	1.078778
C121	C	0.833850	0.029405	0.539388
C122	C	1.333850	0.529405	1.039388
C123	C	0.833842	0.029402	0.460588
C124	C	1.333842	0.529402	0.960588
C125	C	0.824482	0.093022	0.421177
C126	C	1.324482	0.593022	0.921177
C127	C	0.872132	0.045426	0.703617
C128	C	1.372132	0.545426	1.203617
C129	C	0.872131	0.045422	0.782420
C130	C	1.372131	0.545422	1.282420
C131	C	0.776883	0.140618	0.782422
C132	C	1.276883	0.640618	1.282422
C133	C	0.776881	0.140616	0.703620
C134	C	1.276881	0.640616	1.203620
C135	C	0.824509	0.093021	0.664222
C136	C	1.324509	0.593021	1.164222
H137	H	0.020968	0.204211	-0.000035
H138	H	0.520968	0.704211	0.499965
H139	H	0.910912	0.006666	0.814495
H140	H	1.410912	0.506666	1.314495
N141	N	0.453099	0.227439	-0.000038
N142	N	0.953099	0.727439	0.499962
H143	H	0.402734	0.217023	-0.000035
H144	H	0.902734	0.717023	0.499965
H145	H	0.462100	0.255413	0.046366
H146	H	0.962100	0.755413	0.546366
H147	H	0.937635	-0.578390	-0.000029
H148	H	1.437635	-0.078390	0.499971
N149	N	0.923475	-0.005906	0.338825
N150	N	1.423475	0.494094	0.838825
H151	H	0.916253	0.001321	0.394723
H152	H	1.416253	0.501321	0.894723
H153	H	0.915572	-0.055422	0.325072
H154	H	1.415572	0.444578	0.825072
H155	H	0.597088	0.212713	-0.000037
H156	H	1.097088	0.712713	0.499963
N157	N	0.160457	0.223117	-0.000037
N158	N	0.660457	0.723117	0.499963
H159	H	0.120945	0.262925	-0.000038
H160	H	0.620945	0.762925	0.499962
H161	H	0.190291	0.226323	0.046375
H162	H	0.690291	0.726323	0.546375
H163	H	0.738074	0.179360	0.328417
H164	H	1.238074	0.679360	0.828417
H165	H	0.942230	-0.266488	-0.000010
H166	H	1.442230	0.233512	0.499990
H167	H	0.807539	0.208436	0.571425
H168	H	1.307539	0.708436	1.071425
H169	H	0.183999	-0.024728	-0.000024
H170	H	0.683999	0.475272	0.499976
N171	N	0.725521	0.191952	0.824915
N172	N	1.225521	0.691952	1.324915
H173	H	0.695347	0.222099	0.787998
H174	H	1.195347	0.722099	1.287998
H175	H	0.694745	0.165290	0.857620
H176	H	1.194745	0.665290	1.357620
N177	N	0.725510	0.191949	0.661133
N178	N	1.225510	0.691949	1.161133
H179	H	0.733397	0.241485	0.674831
H180	H	1.233397	0.741485	1.174831
H181	H	0.732752	0.184666	0.605248
H182	H	1.232752	0.684666	1.105248
N183	N	0.694378	-0.242945	-0.000022
N184	N	1.194378	0.257055	0.499978
H185	H	0.703271	-0.295895	-0.000022
H186	H	1.203271	0.204105	0.499978
H187	H	0.666770	-0.226505	0.046386
H188	H	1.166770	0.273495	0.546386
H189	H	0.495896	-0.020129	-0.000013
H190	H	0.995896	0.479871	0.499987
H191	H	0.944179	-0.134379	0.000010
H192	H	1.444179	0.365621	0.500010
N193	N	0.690069	-0.535594	-0.000032
N194	N	1.190069	-0.035594	0.499968
H195	H	0.687683	-0.504989	-0.046437
H196	H	1.187683	-0.004989	0.453563
H197	H	0.649294	-0.564361	-0.000004
H198	H	1.149294	-0.064361	0.499996
N199	N	0.044504	-0.043641	-0.000034
N200	N	0.544504	0.456359	0.499966
H201	H	0.084017	-0.083449	-0.000030
H202	H	0.584017	0.416551	0.499970
H203	H	0.014654	-0.046863	0.046376
H204	H	0.514654	0.453137	0.546376
N205	N	0.639879	-0.034859	-0.000015
N206	N	1.139879	0.465141	0.499985
H207	H	0.690244	-0.024443	-0.000016
H208	H	1.190244	0.475557	0.499984
H209	H	0.630864	-0.062839	0.046395
H210	H	1.130864	0.437161	0.546395
H211	H	0.713282	-0.103462	-0.000015
H212	H	1.213282	0.396538	0.499985
H213	H	0.738053	0.179357	0.185454
H214	H	1.238053	0.679357	0.685454
H215	H	0.807512	0.208434	0.428472
H216	H	1.307512	0.708434	0.928472
N217	N	0.952359	-0.722381	-0.000052
N218	N	1.452359	-0.222381	0.499948
H219	H	0.993171	-0.693661	-0.000041
H220	H	1.493171	-0.193661	0.499959
H221	H	0.954672	-0.752978	0.046354
H222	H	1.454672	-0.252978	0.546354
H223	H	0.910871	0.006664	0.185449
H224	H	1.410871	0.506664	0.685449
H225	H	0.704794	-0.679592	-0.000057
H226	H	1.204794	-0.179592	0.499943
H227	H	0.841455	-0.022398	0.428520
H228	H	1.341455	0.477602	0.928520
H229	H	0.841462	-0.022394	0.571481
H230	H	1.341462	0.477606	1.071481
N231	N	0.923497	-0.005907	0.661117
N232	N	1.423497	0.494093	1.161117
H233	H	0.953666	-0.036059	0.698033
H234	H	1.453666	0.463941	1.198033
H235	H	0.896862	-0.036707	0.628435
H236	H	1.396862	0.463293	1.128435
