data_functionalizedCrystal
_audit_creation_method	'MofGen! by Chris Wilmer'
_symmetry_space_group_name_H-M	'P1'
_symmetry_Int_Tables_number	1
_symmetry_cell_setting	triclinic
loop_
_symmetry_equiv_pos_as_xyz
  x,y,z
_cell_length_a	17.640280
_cell_length_b	19.077105
_cell_length_c	19.076919
_cell_angle_alpha	89.923776
_cell_angle_beta	81.491119
_cell_angle_gamma	103.906794
loop_
_atom_site_label
_atom_site_type_symbol
_atom_site_fract_x
_atom_site_fract_y
_atom_site_fract_z
Zn1	Zn	-0.382634	-1.129876	-0.374495
Zn2	Zn	-0.509803	-1.158314	-0.235079
Zn3	Zn	-0.372039	-1.015111	-0.254114
Zn4	Zn	-0.509326	-1.036046	-0.347913
O5	O	-0.443450	-1.084837	-0.302900
O6	O	-0.404137	-1.232847	-0.359159
O7	O	-0.487294	-1.142458	-0.140002
O8	O	-0.262768	-1.009672	-0.289173
O9	O	-0.497568	-1.253740	-0.256731
O10	O	-0.270552	-1.093989	-0.377617
O11	O	-0.386079	-1.037247	-0.153987
O12	O	-0.385616	-0.918689	-0.263398
O13	O	-0.496755	-1.045353	-0.449041
O14	O	-0.486481	-0.934070	-0.332312
O15	O	-0.403674	-1.114289	-0.468571
O16	O	-0.620416	-1.162758	-0.230956
O17	O	-0.620066	-1.072929	-0.313855
C18	C	-0.434848	-0.900659	-0.297037
C19	C	-0.431187	-0.821869	-0.294542
C20	C	-0.648940	-1.123220	-0.267471
C21	C	-0.736853	-1.139704	-0.252340
C22	C	-0.451343	-1.078984	-0.484821
C23	C	-0.454707	-1.076490	-0.562344
C24	C	-1.025193	-0.959888	-0.418115
C25	C	-1.107800	-0.975380	-0.403874
C26	C	-1.108106	-1.068973	-0.317643
C27	C	-1.025498	-1.053491	-0.331879
C28	C	-0.984048	-0.998948	-0.382115
C29	C	-0.984353	-1.092551	-0.295879
C30	C	-0.901751	-1.077068	-0.310111
C31	C	-0.860295	-1.022525	-0.360343
C32	C	-0.901447	-0.983465	-0.396347
C33	C	-1.025804	-1.147091	-0.245640
C34	C	-0.984658	-1.186150	-0.209640
C35	C	-0.902056	-1.170671	-0.223875
C36	C	-0.860600	-1.116128	-0.274107
C37	C	-0.860904	-1.209731	-0.187872
C38	C	-0.778303	-1.194248	-0.202104
C39	C	-0.777998	-1.100645	-0.288339
C40	C	-0.237160	-1.046323	-0.338484
C41	C	-0.149252	-1.029910	-0.353647
C42	C	-0.452087	-1.269734	-0.308787
C43	C	-0.455768	-1.348526	-0.311295
C44	C	-0.482056	-0.792897	-0.329166
C45	C	-0.478606	-0.718864	-0.326827
C46	C	-0.424291	-0.673806	-0.289859
C47	C	-0.373417	-0.702782	-0.255233
C48	C	-0.376864	-0.776813	-0.257577
C49	C	-0.408341	-0.451534	-0.279014
C50	C	-0.404900	-0.377499	-0.276671
C51	C	-0.510088	-0.393586	-0.348266
C52	C	-0.513532	-0.467618	-0.350603
C53	C	-0.462656	-0.496587	-0.315981
N54	N	-0.420765	-0.598132	-0.287465
N55	N	-0.466178	-0.572258	-0.318379
C56	C	-0.407827	-1.111208	-0.608934
C57	C	-0.410984	-1.108856	-0.681775
C58	C	-0.461025	-1.071789	-0.708026
C59	C	-0.507907	-1.037067	-0.661431
C60	C	-0.504745	-1.039416	-0.588591
C61	C	-0.475673	-1.060912	-0.924783
C62	C	-0.478833	-1.058568	-0.997629
C63	C	-0.381909	-1.130356	-1.017969
C64	C	-0.378755	-1.132705	-0.945126
C65	C	-0.425634	-1.097980	-0.898538
N66	N	-0.464255	-1.069386	-0.782482
N67	N	-0.422399	-1.100379	-0.824084
C68	C	-0.435533	-1.090696	-0.121699
C69	C	-0.431953	-1.093286	-0.044218
H70	H	-0.744249	-1.056235	-0.329252
H71	H	-0.548648	-1.006884	-0.682810
H72	H	-0.551507	-0.369990	-0.376454
H73	H	-0.372812	-1.137129	-0.719706
C74	C	-1.115485	-1.163986	-0.230061
C75	C	-1.142977	-1.220095	-0.178345
C76	C	-1.225585	-1.235672	-0.163970
H77	H	-1.136773	-1.178307	-0.272194
H78	H	-1.131583	-1.122169	-0.213243
H79	H	-1.126886	-1.261904	-0.195165
H80	H	-1.121710	-1.205790	-0.136202
H81	H	-1.241684	-1.193854	-0.147152
H82	H	-1.246866	-1.249990	-0.206106
H83	H	-1.244248	-1.273738	-0.128875
H84	H	-0.519584	-1.028383	-1.018998
C85	C	-0.980080	-0.900616	-0.472566
C86	C	-0.928858	-0.847611	-0.439764
C87	C	-0.887281	-0.793007	-0.489902
H88	H	-1.016324	-0.879490	-0.492001
H89	H	-0.950363	-0.920660	-0.509391
H90	H	-0.958572	-0.827569	-0.402951
H91	H	-0.892598	-0.868715	-0.420333
H92	H	-0.857565	-0.813051	-0.526727
H93	H	-0.923531	-0.771887	-0.509333
H94	H	-0.852517	-0.757040	-0.467654
H95	H	-1.018418	-1.230557	-0.168736
H96	H	-0.513857	-1.032649	-0.886858
C97	C	-0.856398	-0.924358	-0.450991
C98	C	-0.812760	-0.954135	-0.505184
C99	C	-0.771258	-0.899715	-0.555536
H100	H	-0.821547	-0.888291	-0.428941
H101	H	-0.892706	-0.903317	-0.470447
H102	H	-0.776456	-0.975165	-0.485730
H103	H	-0.847592	-0.990196	-0.527252
H104	H	-0.807565	-0.878674	-0.574992
H105	H	-0.736411	-0.863651	-0.533479
H106	H	-0.741650	-0.919912	-0.592315
H107	H	-0.338009	-1.162891	-0.923758
C108	C	-0.353065	-0.482849	-0.241351
C109	C	-0.304777	-0.427544	-0.208460
C110	C	-0.253851	-0.456368	-0.173750
H111	H	-0.321081	-0.504433	-0.274866
H112	H	-0.383263	-0.518328	-0.206588
H113	H	-0.274582	-0.392078	-0.243218
H114	H	-0.336740	-0.405955	-0.174933
H115	H	-0.284049	-0.491848	-0.138988
H116	H	-0.221872	-0.477952	-0.207270
H117	H	-0.221087	-0.418850	-0.151424
C118	C	-0.541121	-0.841874	-0.369173
C119	C	-0.592022	-0.895086	-0.322225
C120	C	-0.646449	-0.940207	-0.359055
H121	H	-0.513680	-0.864213	-0.405727
H122	H	-0.570967	-0.814044	-0.389441
H123	H	-0.562180	-0.922912	-0.301968
H124	H	-0.619482	-0.872768	-0.285670
H125	H	-0.676295	-0.912377	-0.379323
H126	H	-0.619001	-0.962541	-0.395608
H127	H	-0.680996	-0.976313	-0.327205
H128	H	-0.793035	-1.009915	-0.371925
H129	H	-0.894665	-1.254135	-0.146965
H130	H	-0.744802	-1.226054	-0.172788
C131	C	-0.314570	-0.653851	-0.214989
C132	C	-0.355350	-0.621145	-0.161154
C133	C	-0.301167	-0.576074	-0.124060
H134	H	-0.279952	-0.617630	-0.246660
H135	H	-0.284776	-0.681690	-0.194661
H136	H	-0.385131	-0.593308	-0.181482
H137	H	-0.389964	-0.657349	-0.129467
H138	H	-0.271372	-0.603912	-0.103732
H139	H	-0.266552	-0.539857	-0.155737
H140	H	-0.328829	-0.553883	-0.087525
H141	H	-0.335437	-0.800399	-0.229387
H142	H	-0.367081	-1.141394	-0.587566
H143	H	-0.520029	-0.695279	-0.355021
C144	C	-0.572531	-0.516412	-0.390808
C145	C	-0.616329	-0.475190	-0.420646
C146	C	-0.670682	-0.520114	-0.457692
H147	H	-0.607201	-0.552587	-0.359122
H148	H	-0.545015	-0.538665	-0.427397
H149	H	-0.643844	-0.452949	-0.384061
H150	H	-0.581681	-0.439017	-0.452342
H151	H	-0.643166	-0.542367	-0.494281
H152	H	-0.705347	-0.556287	-0.426001
H153	H	-0.700401	-0.492151	-0.477947
C154	C	-0.555747	-1.001720	-0.538114
C155	C	-0.600269	-0.968777	-0.576688
C156	C	-0.647271	-0.934054	-0.530212
H157	H	-0.522909	-0.966053	-0.513907
H158	H	-0.590280	-1.036186	-0.504631
H159	H	-0.565739	-0.934314	-0.610158
H160	H	-0.633121	-1.004428	-0.600893
H161	H	-0.681805	-0.968520	-0.496729
H162	H	-0.614428	-0.898391	-0.506007
H163	H	-0.677490	-0.911704	-0.556377
C164	C	-0.346037	-0.328551	-0.236445
C165	C	-0.386805	-0.295834	-0.182610
C166	C	-0.332608	-0.250741	-0.145544
H167	H	-0.311435	-0.292337	-0.268133
H168	H	-0.316229	-0.356377	-0.216119
H169	H	-0.416600	-0.268010	-0.202936
H170	H	-0.421403	-0.332031	-0.150907
H171	H	-0.302799	-0.278567	-0.125218
H172	H	-0.298008	-0.214532	-0.177238
H173	H	-0.360260	-0.228543	-0.109010
H174	H	-1.141299	-0.943577	-0.433202
H175	H	-1.141866	-1.113380	-0.276739
H176	H	-0.343742	-1.158626	-1.055908
