data_functionalizedCrystal
_audit_creation_method	'MofGen! by Chris Wilmer'
_symmetry_space_group_name_H-M	'P1'
_symmetry_Int_Tables_number	1
_symmetry_cell_setting	triclinic
loop_
_symmetry_equiv_pos_as_xyz
  x,y,z
_cell_length_a	10.654550
_cell_length_b	14.044190
_cell_length_c	9.130313
_cell_angle_alpha	89.993628
_cell_angle_beta	89.996220
_cell_angle_gamma	88.838339
loop_
_atom_site_label
_atom_site_type_symbol
_atom_site_fract_x
_atom_site_fract_y
_atom_site_fract_z
O1	O	1.681227	0.133228	-0.121939
O2	O	1.317024	0.145921	-0.121918
O3	O	1.493654	0.001554	-0.121899
O4	O	1.504597	0.277595	-0.121958
O5	O	1.493652	0.001557	0.121700
O6	O	1.317022	0.145925	0.121681
O7	O	1.681225	0.133231	0.121660
Cu8	Cu	1.499123	0.139579	0.143913
Cu9	Cu	1.499125	0.139574	-0.144171
O10	O	1.504595	0.277599	0.121641
C11	C	1.270131	0.144991	-0.000115
C12	C	1.130408	0.142203	-0.000105
C13	C	1.488866	-0.033790	-0.000095
C14	C	1.474587	-0.139110	-0.000082
C15	C	1.059467	0.227204	-0.000145
C16	C	0.928182	0.224578	-0.000169
C17	C	0.938791	0.051942	-0.000122
C18	C	1.070074	0.054569	-0.000087
C19	C	1.119801	0.314837	-0.000164
C20	C	1.048859	0.399846	-0.000205
C21	C	0.917574	0.397220	-0.000229
C22	C	0.857231	0.309586	-0.000213
C23	C	1.549752	-0.388903	-0.000144
C24	C	1.448502	-0.331939	-0.000127
C25	C	1.463019	-0.224639	-0.000102
C26	C	1.535237	-0.496212	-0.000169
C27	C	1.728117	0.134161	-0.000146
C28	C	1.867841	0.136950	-0.000165
C29	C	1.509383	0.312943	-0.000166
C30	C	1.523662	0.418263	-0.000189
N31	N	1.499131	0.139581	0.346536
N32	N	1.499127	0.139564	-0.346794
C33	C	1.577367	0.075677	0.423196
C34	C	1.577362	0.075666	0.576532
C35	C	1.420882	0.203471	0.576536
C36	C	1.420881	0.203477	0.423202
C37	C	1.655616	0.011782	0.346530
C38	C	1.733859	-0.052127	0.423190
C39	C	1.733854	-0.052138	0.576527
C40	C	1.655607	0.011759	0.653203
H41	H	1.226699	0.316985	-0.000150
H42	H	1.647330	-0.357088	-0.000134
C43	C	1.148122	-0.038930	-0.000047
C44	C	1.134420	-0.110498	0.126461
C45	C	1.212471	-0.203999	0.126509
C46	C	1.304223	-0.225931	0.000050
C47	C	1.317929	-0.154361	-0.126467
C48	C	1.239878	-0.060861	-0.126515
H49	H	1.066496	-0.094265	0.220082
H50	H	1.202324	-0.256980	0.220166
H51	H	1.362001	-0.295146	0.000086
H52	H	1.385853	-0.170595	-0.220088
H53	H	1.250025	-0.007880	-0.220172
H54	H	0.750330	0.307455	-0.000211
C55	C	1.819924	-0.122414	0.338854
C56	C	1.819948	-0.122399	0.170193
C57	C	1.906014	-0.192689	0.085862
C58	C	1.992057	-0.262993	0.170193
C59	C	1.992037	-0.263010	0.338864
C60	C	1.905971	-0.192721	0.423194
H61	H	1.756250	-0.070354	0.107758
H62	H	1.906028	-0.192676	-0.039000
H63	H	2.055769	-0.315026	0.107766
H64	H	2.055734	-0.315056	0.401299
H65	H	1.905956	-0.192734	0.548056
H66	H	1.797554	-0.104181	0.638942
H67	H	0.889649	-0.019405	-0.000133
C68	C	1.316664	-0.374909	-0.000109
C69	C	1.276453	-0.440102	0.126389
C70	C	1.144620	-0.483076	0.126420
C71	C	1.052996	-0.460856	-0.000048
C72	C	1.093204	-0.395660	-0.126556
C73	C	1.225038	-0.352687	-0.126586
H74	H	1.344281	-0.456553	0.220017
H75	H	1.114856	-0.531338	0.220070
H76	H	0.955405	-0.492667	-0.000025
H77	H	1.025377	-0.379209	-0.220183
H78	H	1.254802	-0.304424	-0.220236
H79	H	1.097999	0.471194	-0.000205
H80	H	0.859817	0.466438	-0.000248
H81	H	1.655629	0.011787	0.221675
H82	H	1.655600	0.011738	0.778061
H83	H	1.357177	0.255494	0.638976
H84	H	1.357173	0.255513	0.360784
