data_functionalizedCrystal
_audit_creation_method	'MofGen! by Chris Wilmer'
_symmetry_space_group_name_H-M	'P1'
_symmetry_Int_Tables_number	1
_symmetry_cell_setting	triclinic
loop_
_symmetry_equiv_pos_as_xyz
  x,y,z
_cell_length_a	10.654550
_cell_length_b	11.026607
_cell_length_c	9.730223
_cell_angle_alpha	89.999947
_cell_angle_beta	89.996251
_cell_angle_gamma	96.535460
loop_
_atom_site_label
_atom_site_type_symbol
_atom_site_fract_x
_atom_site_fract_y
_atom_site_fract_z
O1	O	1.704901	0.170762	-0.114401
O2	O	1.342954	0.187032	-0.114379
O3	O	1.493930	0.001991	-0.114383
O4	O	1.553926	0.355802	-0.114397
O5	O	1.493929	0.001996	0.114196
O6	O	1.342953	0.187036	0.114201
O7	O	1.704900	0.170767	0.114179
Zn8	Zn	1.523926	0.178902	0.150482
Zn9	Zn	1.523928	0.178896	-0.150682
O10	O	1.553924	0.355807	0.114183
C11	C	1.295897	0.185839	-0.000086
C12	C	1.155677	0.182265	-0.000078
C13	C	1.099841	0.291214	-0.000102
C14	C	0.968090	0.287849	-0.000126
C15	C	0.948022	0.066576	-0.000107
C16	C	1.079771	0.069943	-0.000073
C17	C	1.111426	0.418964	-0.000119
C18	C	0.979675	0.415599	-0.000143
C19	C	1.482861	-0.043310	-0.000094
C20	C	1.449867	-0.178302	-0.000097
C21	C	1.540970	-0.251341	-0.000105
C22	C	1.506871	-0.390862	-0.000108
C23	C	1.751958	0.171959	-0.000117
C24	C	1.892177	0.175533	-0.000135
C25	C	1.564993	0.401109	-0.000109
C26	C	1.597988	0.536100	-0.000115
N27	N	1.523934	0.178906	0.356018
N28	N	1.523928	0.178883	-0.356219
C29	C	1.590814	0.096998	0.427942
C30	C	1.590808	0.096983	0.571825
C31	C	1.457040	0.260795	0.571847
C32	C	1.457040	0.260803	0.427967
C33	C	1.668049	0.002426	0.427931
C34	C	1.668043	0.002411	0.571814
H35	H	1.125227	-0.018774	-0.000034
C36	C	1.612234	-0.122055	0.375667
C37	C	1.505301	-0.109039	0.295770
C38	C	1.453854	-0.223676	0.247591
H39	H	1.588929	-0.174070	0.451476
H40	H	1.673178	-0.156625	0.321345
H41	H	1.444369	-0.074487	0.350089
H42	H	1.528573	-0.057045	0.219941
H43	H	1.514798	-0.258246	0.193270
H44	H	1.430556	-0.275683	0.323409
H45	H	1.381302	-0.214859	0.193366
H46	H	1.346625	-0.219062	-0.000100
H47	H	1.151603	0.468929	0.095545
H48	H	1.765661	0.032038	0.383298
C49	C	1.802673	0.030360	0.624075
C50	C	1.812228	0.136599	0.704002
C51	C	1.936219	0.162374	0.752180
H52	H	1.858925	0.042035	0.548265
H53	H	1.824040	-0.035895	0.678375
H54	H	1.790875	0.202839	0.649704
H55	H	1.756003	0.124952	0.779832
H56	H	1.957587	0.096118	0.806480
H57	H	1.992461	0.174044	0.676362
H58	H	1.942716	0.234452	0.806426
C59	C	1.678711	-0.197240	-0.000189
C60	C	1.756152	-0.291663	-0.000234
C61	C	1.883048	-0.241876	-0.000335
H62	H	1.695551	-0.148324	0.079496
H63	H	1.695425	-0.148346	-0.079936
H64	H	1.739445	-0.340536	0.079504
H65	H	1.739353	-0.340586	-0.079914
H66	H	1.899763	-0.192982	-0.080081
H67	H	1.899875	-0.192960	0.079352
H68	H	1.935608	-0.305933	-0.000378
C69	C	1.384389	0.349858	0.350125
C70	C	1.325836	0.421596	0.443934
C71	C	1.258909	0.503659	0.372277
H72	H	1.322041	0.305786	0.293995
H73	H	1.441068	0.400955	0.294024
H74	H	1.269162	0.370505	0.500011
H75	H	1.388155	0.465694	0.500067
H76	H	1.315589	0.554756	0.316177
H77	H	1.196568	0.459577	0.316149
H78	H	1.219183	0.552351	0.435915
C79	C	1.601625	-0.115345	0.631117
C80	C	1.475901	-0.130887	0.586459
C81	C	1.414695	-0.239361	0.641039
H82	H	1.603763	-0.111442	0.728623
H83	H	1.643244	-0.182299	0.600903
H84	H	1.434293	-0.063950	0.616681
H85	H	1.473726	-0.134812	0.488961
H86	H	1.456314	-0.306315	0.610825
H87	H	1.416842	-0.235448	0.738544
H88	H	1.329388	-0.249926	0.610737
H89	H	1.402575	0.327472	0.630443
C90	C	1.170524	0.473295	-0.131772
C91	C	1.075375	0.505845	-0.219030
C92	C	1.129769	0.555907	-0.340315
H93	H	1.215409	0.414777	-0.176216
H94	H	1.227068	0.543713	-0.110408
H95	H	1.018852	0.435436	-0.240397
H96	H	1.030482	0.564374	-0.174629
H97	H	1.186314	0.626326	-0.318950
H98	H	1.174654	0.497384	-0.384746
H99	H	1.065221	0.578009	-0.399529
H100	H	0.942384	0.454208	0.098540
H101	H	0.886203	-0.024874	-0.000124
H102	H	0.948391	0.463731	-0.095812
H103	H	1.403623	-0.431617	-0.000111
H104	H	1.701236	-0.423147	-0.000225
