data_functionalizedCrystal
_audit_creation_method	'MofGen! by Chris Wilmer'
_symmetry_space_group_name_H-M	'P1'
_symmetry_Int_Tables_number	1
_symmetry_cell_setting	triclinic
loop_
_symmetry_equiv_pos_as_xyz
  x,y,z
_cell_length_a	19.188930
_cell_length_b	12.811457
_cell_length_c	11.892283
_cell_angle_alpha	80.674607
_cell_angle_beta	93.886934
_cell_angle_gamma	83.596719
loop_
_atom_site_label
_atom_site_type_symbol
_atom_site_fract_x
_atom_site_fract_y
_atom_site_fract_z
O1	O	0.091715	1.395740	-0.049068
O2	O	0.591715	1.895740	0.450932
O3	O	0.103433	1.087852	-0.017502
O4	O	0.603433	1.587852	0.482498
O5	O	-0.004082	1.250683	-0.034218
O6	O	0.495918	1.750683	0.465782
O7	O	0.199230	1.232910	-0.032352
O8	O	0.699230	1.732910	0.467648
O9	O	-0.013032	1.264231	-0.223611
O10	O	0.486968	1.764231	0.276389
O11	O	0.094483	1.101400	-0.206895
O12	O	0.594483	1.601400	0.293105
O13	O	0.082765	1.409288	-0.238462
O14	O	0.582765	1.909288	0.261538
Zn15	Zn	0.087203	1.257495	-0.252749
Zn16	Zn	0.587203	1.757495	0.247251
Zn17	Zn	0.098995	1.239645	-0.003215
Zn18	Zn	0.598995	1.739645	0.496785
O19	O	0.190280	1.246457	-0.221745
O20	O	0.690280	1.746457	0.278255
C21	C	0.098576	1.055236	-0.108160
C22	C	0.598576	1.555236	0.391840
C23	C	0.097429	0.937866	-0.096127
C24	C	0.597429	1.437866	0.403873
C25	C	0.085503	0.732087	-0.280016
C26	C	0.585503	1.232087	0.219984
C27	C	0.084425	0.621808	-0.268716
C28	C	0.584425	1.121808	0.231284
C29	C	0.094190	0.607027	-0.062228
C30	C	0.594190	1.107027	0.437772
C31	C	0.095268	0.717306	-0.073528
C32	C	0.595268	1.217306	0.426472
C33	C	0.090925	0.779832	-0.182426
C34	C	0.590925	1.279832	0.317574
C35	C	0.092009	0.890113	-0.193725
C36	C	0.592009	1.390113	0.306275
C37	C	0.101769	0.875331	0.012762
C38	C	0.601769	1.375331	0.512762
C39	C	0.100691	0.765052	0.024062
C40	C	0.600691	1.265052	0.524062
C41	C	-0.034568	1.256881	-0.128859
C42	C	0.465432	1.756881	0.371141
C43	C	-0.112073	1.255155	-0.128692
C44	C	0.387927	1.755155	0.371308
C45	C	-0.156993	1.350698	-0.138493
C46	C	0.343007	1.850698	0.361507
C47	C	-0.229816	1.349074	-0.138308
C48	C	0.270184	1.849074	0.361692
C49	C	-0.257717	1.251903	-0.128345
C50	C	0.242283	1.751903	0.371655
C51	C	-0.212788	1.156346	-0.118536
C52	C	0.287212	1.656346	0.381464
C53	C	-0.139966	1.157973	-0.118709
C54	C	0.360034	1.657973	0.381291
N55	N	-0.368772	1.182237	-0.185184
N56	N	0.131228	1.682237	0.314816
N57	N	-0.437950	1.180699	-0.185022
N58	N	0.062050	1.680699	0.314978
C59	C	-0.477125	1.246997	-0.127819
C60	C	0.022875	1.746997	0.372181
N61	N	-0.444510	1.314908	-0.070800
N62	N	0.055490	1.814908	0.429200
N63	N	-0.375326	1.316450	-0.070967
N64	N	0.124674	1.816450	0.429033
C65	C	-0.336680	1.250129	-0.128155
C66	C	0.163320	1.750129	0.371845
C67	C	-0.601008	1.340786	-0.137419
C68	C	-0.101008	1.840786	0.362581
C69	C	-0.673832	1.339157	-0.137227
C70	C	-0.173832	1.839157	0.362773
C71	C	-0.656803	1.146428	-0.117466
C72	C	-0.156803	1.646428	0.382534
C73	C	-0.583980	1.148058	-0.117647
C74	C	-0.083980	1.648058	0.382353
C75	C	-0.556088	1.245241	-0.127629
C76	C	-0.056088	1.745241	0.372371
C77	C	0.220767	1.240259	-0.127102
C78	C	0.720767	1.740259	0.372898
C79	C	0.298272	1.241985	-0.127262
C80	C	0.798272	1.741985	0.372738
C81	C	0.087622	1.441904	-0.147801
C82	C	0.587622	1.941904	0.352199
C83	C	0.088769	1.559274	-0.159826
C84	C	0.588769	2.059274	0.340174
N85	N	0.079155	1.269685	-0.423049
N86	N	0.579155	1.769685	0.076951
C87	C	0.023118	1.354619	-0.609273
C88	C	0.523118	1.854619	-0.109273
C89	C	0.028749	1.346074	-0.490057
C90	C	0.528749	1.846074	0.009943
C91	C	0.123934	1.201837	-0.475266
C92	C	0.623934	1.701837	0.024734
C93	C	0.118303	1.210381	-0.594481
C94	C	0.618303	1.710381	-0.094481
C95	C	0.067892	1.286773	-0.661481
C96	C	0.567892	1.786773	-0.161481
C97	C	0.062258	1.295312	-0.780699
C98	C	0.562258	1.795312	-0.280699
C99	C	0.157446	1.151080	-0.765906
C100	C	0.657446	1.651080	-0.265906
C101	C	0.163077	1.142536	-0.646690
C102	C	0.663077	1.642536	-0.146690
N103	N	0.107037	1.227464	0.167085
N104	N	0.607037	1.727464	0.667085
H105	H	0.104223	0.714129	0.112723
H106	H	0.604223	1.214129	0.612723
Br107	Br	-0.032015	1.438159	-0.419206
Br108	Br	0.467985	1.938159	0.080794
Br109	Br	0.077061	0.557014	-0.401166
Br110	Br	0.577061	1.057014	0.098834
Br111	Br	0.231492	1.038869	-0.555756
Br112	Br	0.731492	1.538869	-0.055756
H113	H	-0.266396	1.426878	-0.146285
H114	H	0.233604	1.926878	0.353715
H115	H	-0.578297	1.419917	-0.145542
H116	H	-0.078297	1.919917	0.354458
Br117	Br	0.109145	0.940130	0.145215
Br118	Br	0.609145	1.440130	0.645215
Br119	Br	-0.078999	1.028296	-0.105404
Br120	Br	0.421001	1.528296	0.394596
H121	H	-0.134288	1.429831	-0.146617
H122	H	0.365712	1.929831	0.353383
H123	H	-0.547406	1.070257	-0.109672
H124	H	-0.047406	1.570257	0.390328
Br125	Br	-0.250651	1.024469	-0.104999
Br126	Br	0.249349	1.524469	0.395001
H127	H	-0.710405	1.416962	-0.145202
H128	H	-0.210405	1.916962	0.354798
Br129	Br	-0.694660	1.014549	-0.103932
Br130	Br	-0.194660	1.514549	0.396068
H131	H	0.021210	1.357512	-0.835249
H132	H	0.521210	1.857512	-0.335249
H133	H	0.097714	0.556102	0.026430
H134	H	0.597714	1.056102	0.526430
H135	H	-0.017933	1.416813	-0.663824
H136	H	0.482067	1.916813	-0.163824
Br137	Br	0.192354	1.098181	-0.384329
Br138	Br	0.692354	1.598181	0.115671
Br139	Br	0.218208	1.058991	-0.836768
Br140	Br	0.718208	1.558991	-0.336768
H141	H	0.088477	0.941020	-0.282395
H142	H	0.588477	1.441020	0.217605
H143	H	0.081976	0.782995	-0.368685
H144	H	0.581976	1.282995	0.131315
