data_functionalizedCrystal
_audit_creation_method	'MofGen! by Chris Wilmer'
_symmetry_space_group_name_H-M	'P1'
_symmetry_Int_Tables_number	1
_symmetry_cell_setting	triclinic
loop_
_symmetry_equiv_pos_as_xyz
  x,y,z
_cell_length_a	19.077105
_cell_length_b	21.295417
_cell_length_c	19.076919
_cell_angle_alpha	87.733380
_cell_angle_beta	89.923776
_cell_angle_gamma	87.726672
loop_
_atom_site_label
_atom_site_type_symbol
_atom_site_fract_x
_atom_site_fract_y
_atom_site_fract_z
Zn1	Zn	1.058236	-0.304534	0.440387
Zn2	Zn	1.062864	-0.405747	0.322870
Zn3	Zn	0.945454	-0.296102	0.318181
Zn4	Zn	0.940686	-0.405368	0.435623
O5	O	1.001810	-0.352938	0.379265
O6	O	1.157181	-0.321649	0.428754
O7	O	1.051222	-0.387832	0.223917
O8	O	0.960474	-0.209134	0.334424
O9	O	1.160581	-0.396009	0.342415
O10	O	1.043334	-0.215330	0.424208
O11	O	0.964962	-0.307276	0.220472
O12	O	0.846490	-0.306908	0.329804
O13	O	0.952346	-0.395362	0.534586
O14	O	0.842987	-0.387185	0.416088
O15	O	1.038710	-0.321280	0.538086
O16	O	1.046598	-0.493783	0.337795
O17	O	0.956834	-0.493504	0.420634
C18	C	0.819242	-0.346091	0.371921
C19	C	0.741139	-0.343178	0.368795
C20	C	1.001719	-0.516485	0.379223
C21	C	1.001744	-0.586454	0.379231
C22	C	0.702642	-0.383663	0.412179
C23	C	0.629255	-0.380918	0.409246
C24	C	0.594366	-0.337689	0.362924
C25	C	0.632868	-0.297199	0.319538
C26	C	0.706253	-0.299942	0.322476
C27	C	0.375080	-0.324994	0.349333
C28	C	0.301690	-0.322256	0.346397
C29	C	0.298082	-0.405974	0.436106
C30	C	0.371470	-0.408715	0.439037
C31	C	0.409965	-0.368223	0.395653
N32	N	0.519353	-0.334883	0.359923
N33	N	0.484976	-0.371027	0.398658
C34	C	1.048522	-0.619448	0.336144
C35	C	1.048554	-0.685192	0.336161
C36	C	1.001796	-0.717939	0.379257
C37	C	0.955015	-0.684937	0.422352
C38	C	0.954989	-0.619195	0.422339
N39	N	0.940111	-0.819089	0.382141
N40	N	0.940138	-0.881541	0.382149
C41	C	1.001873	-0.916018	0.379300
N42	N	1.063583	-0.885683	0.376429
N43	N	1.063555	-0.823224	0.376417
C44	C	1.001820	-0.789226	0.379276
C45	C	1.048690	-1.020300	0.336230
C46	C	1.048724	-1.086046	0.336252
C47	C	0.955178	-1.085789	0.422439
C48	C	0.955151	-1.020045	0.422421
C49	C	1.001906	-0.987304	0.379313
C50	C	1.185090	-0.359812	0.386639
C51	C	1.263193	-0.362741	0.389782
C52	C	0.994480	-0.359220	0.562545
C53	C	0.991356	-0.361897	0.640648
C54	C	1.001919	-0.188754	0.379324
C55	C	1.001966	-0.118788	0.379349
C56	C	1.009152	-0.346637	0.196700
C57	C	1.012412	-0.343787	0.118604
C58	C	1.034851	-0.324586	0.679164
C59	C	1.031907	-0.327098	0.752550
C60	C	0.985472	-0.366925	0.787418
C61	C	0.941972	-0.404238	0.748896
C62	C	0.944913	-0.401722	0.675512
C63	C	0.971853	-0.378584	1.006698
C64	C	0.968917	-0.381099	1.080087
C65	C	1.058852	-0.303958	1.083736
C66	C	1.061791	-0.301448	1.010350
C67	C	1.018289	-0.338758	0.971835
N68	N	0.982464	-0.369496	0.862429
N69	N	1.021294	-0.336183	0.896824
H70	H	0.731044	-0.418867	0.449897
F71	F	0.925553	-0.418293	0.965716
H72	H	0.916895	-0.592330	0.457426
H73	H	0.904161	-0.436664	0.777291
H74	H	1.094268	-0.273581	1.115103
H75	H	0.737596	-0.266971	0.287151
F76	F	1.098291	-0.584607	0.290272
F77	F	0.905418	-1.120637	0.468310
F78	F	0.408596	-0.454727	0.488337
H79	H	0.916945	-0.711604	0.457442
F80	F	0.257109	-0.449066	0.482274
F81	F	1.111214	-0.259058	0.973246
F82	F	0.416040	-0.281897	0.303162
F83	F	1.098450	-0.985452	0.290351
F84	F	1.098519	-1.121160	0.290396
H85	H	0.597915	-0.413886	0.444573
H86	H	0.604455	-0.261999	0.281825
H87	H	0.917057	-0.993179	0.457503
H88	H	0.931101	-0.413532	1.108474
F89	F	1.084278	-0.282199	0.642062
F90	F	1.098343	-0.720314	0.290300
F91	F	0.264560	-0.276247	0.297089
H92	H	0.909487	-0.432098	0.644152
F93	F	1.078225	-0.287409	0.793540
