data_functionalizedCrystal
_audit_creation_method	'MofGen! by Chris Wilmer'
_symmetry_space_group_name_H-M	'P1'
_symmetry_Int_Tables_number	1
_symmetry_cell_setting	triclinic
loop_
_symmetry_equiv_pos_as_xyz
  x,y,z
_cell_length_a	10.685980
_cell_length_b	16.625545
_cell_length_c	10.686551
_cell_angle_alpha	94.407339
_cell_angle_beta	98.408259
_cell_angle_gamma	94.392107
loop_
_atom_site_label
_atom_site_type_symbol
_atom_site_fract_x
_atom_site_fract_y
_atom_site_fract_z
Zn1	Zn	1.995734	-0.180728	0.866688
Zn2	Zn	2.495734	0.319272	1.366688
Zn3	Zn	1.979269	-0.326801	0.654412
Zn4	Zn	2.479269	0.173199	1.154412
Zn5	Zn	1.767155	-0.203170	0.638151
Zn6	Zn	2.267155	0.296830	1.138151
Zn7	Zn	1.783392	-0.326723	0.850323
Zn8	Zn	2.283392	0.173277	1.350323
O9	O	1.881388	-0.259356	0.752394
O10	O	2.381388	0.240644	1.252394
O11	O	2.171187	-0.190746	0.852184
O12	O	2.671187	0.309254	1.352184
O13	O	1.937445	-0.319826	0.474623
O14	O	2.437445	0.180174	0.974623
O15	O	1.797572	-0.087354	0.668511
O16	O	2.297572	0.412646	1.168511
O17	O	2.159089	-0.298065	0.696226
O18	O	2.659089	0.201935	1.196226
O19	O	1.965509	-0.070866	0.836416
O20	O	2.465509	0.429134	1.336416
O21	O	1.781606	-0.228995	0.462675
O22	O	2.281606	0.271005	0.962675
O23	O	1.591673	-0.228919	0.652641
O24	O	2.091673	0.271081	1.152641
O25	O	1.825246	-0.297931	1.030127
O26	O	2.325246	0.202069	1.530127
O27	O	1.603602	-0.319692	0.808523
O28	O	2.103602	0.180308	1.308523
O29	O	1.981253	-0.190670	1.042150
O30	O	2.481253	0.309330	1.542150
O31	O	1.953190	-0.439630	0.680357
O32	O	2.453190	0.060370	1.180357
O33	O	1.809280	-0.439572	0.824291
O34	O	2.309280	0.060428	1.324291
C35	C	1.551578	-0.276733	0.727043
C36	C	2.051578	0.223267	1.227043
C37	C	1.410487	-0.284185	0.716227
C38	C	1.910487	0.215815	1.216227
C39	C	1.881247	-0.468856	0.752343
C40	C	2.381247	0.031144	1.252343
C41	C	1.881306	-0.558473	0.752373
C42	C	2.381306	-0.058473	1.252373
C43	C	1.881357	-0.631251	0.752402
C44	C	2.381357	-0.131251	1.252402
C45	C	1.881433	-0.722554	0.752436
C46	C	2.381433	-0.222554	1.252436
C47	C	1.881500	-0.795326	0.752457
C48	C	2.381500	-0.295326	1.252457
C49	C	1.881575	-0.886635	0.752488
C50	C	2.381575	-0.386635	1.252488
C51	C	2.212485	-0.241911	0.777844
C52	C	2.712485	0.258089	1.277844
C53	C	2.353579	-0.234477	0.788690
C54	C	2.853579	0.265523	1.288690
C55	C	1.906898	-0.241789	1.083485
C56	C	2.406898	0.258211	1.583485
C57	C	1.917769	-0.234303	1.224576
C58	C	2.417769	0.265697	1.724576
C59	C	1.881566	-0.049034	0.752475
C60	C	2.381566	0.450966	1.252475
C61	C	1.881642	0.040593	0.752509
C62	C	2.381642	0.540593	1.252509
C63	C	1.856050	-0.276792	0.422597
C64	C	2.356050	0.223208	0.922597
C65	C	1.845425	-0.284038	0.281525
C66	C	2.345425	0.215962	0.781525
H67	H	1.412796	-0.186214	0.859000
H68	H	1.912796	0.313786	1.359000
N69	N	2.010831	-0.170300	1.302954
N70	N	2.510831	0.329700	1.802954
H71	H	2.099766	-0.179248	1.286913
H72	H	2.599766	0.320752	1.786913
H73	H	2.005564	-0.173869	1.395986
H74	H	2.505564	0.326131	1.895986
N75	N	1.332051	-0.348110	0.623066
N76	N	1.832051	0.151890	1.123066
H77	H	1.238996	-0.344553	0.628275
H78	H	1.738996	0.155447	1.128275
H79	H	1.356643	-0.403471	0.644410
H80	H	1.856643	0.096529	1.144410
N81	N	1.752368	-0.348034	1.203144
N82	N	2.252368	0.151966	1.703144
H83	H	1.757532	-0.344491	1.110083
H84	H	2.257532	0.155509	1.610083
H85	H	1.663478	-0.339049	1.219286
H86	H	2.163478	0.160951	1.719286
