data_functionalizedCrystal
_audit_creation_method	'MofGen! by Chris Wilmer'
_symmetry_space_group_name_H-M	'P1'
_symmetry_Int_Tables_number	1
_symmetry_cell_setting	triclinic
loop_
_symmetry_equiv_pos_as_xyz
  x,y,z
_cell_length_a	6.817900
_cell_length_b	16.255699
_cell_length_c	17.110486
_cell_angle_alpha	96.302418
_cell_angle_beta	99.060439
_cell_angle_gamma	103.489404
loop_
_atom_site_label
_atom_site_type_symbol
_atom_site_fract_x
_atom_site_fract_y
_atom_site_fract_z
V1	V	-3.976888	-0.116837	-0.246982
O2	O	-3.965374	0.005874	-0.242010
O3	O	-3.928724	-0.231918	-0.245553
O4	O	-3.906746	-0.114926	-0.354581
O5	O	-3.987504	-0.111928	-0.132227
V6	V	-4.463303	-0.102173	-0.233225
O7	O	-4.231804	-0.149004	-0.277159
O8	O	-4.658585	-0.070006	-0.203048
O9	O	-4.288260	0.012908	-0.234654
O10	O	-4.592214	-0.224884	-0.238197
O11	O	-4.570084	-0.107082	-0.347980
O12	O	-4.310238	-0.104084	-0.125626
C13	C	-3.774486	-0.259976	-0.241723
C14	C	-3.816248	-0.354055	-0.241272
C15	C	-3.727872	-0.576887	-0.236099
C16	C	-3.824390	-0.624571	-0.172334
C17	C	-3.892807	-0.526310	-0.240484
C18	C	-3.870725	-0.646259	-0.303452
C19	C	-3.966747	-0.692700	-0.239725
C20	C	-3.988757	-0.572745	-0.176671
C21	C	-4.035083	-0.594439	-0.307847
C22	C	-4.131723	-0.642098	-0.244069
C23	C	-3.850207	-0.430456	-0.240920
C24	C	-4.009360	-0.788551	-0.239284
C25	C	-3.746450	-0.110740	-0.380799
C26	C	-3.770386	-0.109939	-0.468763
C27	C	-3.962927	-0.113786	-0.514130
C28	C	-3.985406	-0.113033	-0.596781
C29	C	-3.815344	-0.108439	-0.634066
C30	C	-3.622786	-0.104589	-0.588693
C31	C	-3.600307	-0.105336	-0.506042
C32	C	-3.874143	-0.105966	-0.883415
C33	C	-3.896639	-0.105222	-0.966072
C34	C	-4.259257	-0.113665	-0.974155
C35	C	-4.236763	-0.114417	-0.891503
C36	C	-4.044207	-0.110562	-0.846137
C37	C	-3.838317	-0.107672	-0.718549
C38	C	-4.021232	-0.111324	-0.761654
C39	C	-4.105841	0.040961	-0.238481
C40	C	-4.043316	0.135039	-0.238938
C41	C	-4.133878	-0.108273	-0.099404
C42	C	-4.089180	-0.109070	-0.011439
H43	H	-3.735760	-0.638235	-0.115035
H44	H	-3.821193	-0.678271	-0.357015
H45	H	-4.038212	-0.540833	-0.123036
H46	H	-4.302881	-0.670427	-0.247419
H47	H	-3.758142	-0.101478	-0.996426
H48	H	-4.123638	-0.580752	-0.365146
C49	C	-3.617523	-0.028868	-0.796001
C50	C	-3.651399	-0.102630	-0.759541
H51	H	-3.502137	-0.025759	-0.821314
H52	H	-3.592014	0.020229	-0.756586
H53	H	-3.735437	-0.031057	-0.834840
H54	H	-3.533490	-0.100437	-0.720698
H55	H	-3.676896	-0.151739	-0.798960
H56	H	-4.142187	-0.116161	-0.633715
H57	H	-4.101417	-0.117533	-0.483780
H58	H	-3.717370	-0.102858	-0.846492
H59	H	-3.556741	-0.548387	-0.232652
C60	C	-4.457605	-0.193241	-0.814079
C61	C	-4.423715	-0.119472	-0.850529
H62	H	-4.573036	-0.196367	-0.788791
H63	H	-4.339734	-0.191049	-0.775229
H64	H	-4.483064	-0.242337	-0.853502
H65	H	-4.398242	-0.070375	-0.811105
H66	H	-4.541613	-0.121657	-0.889382
C67	C	-4.530629	-0.190798	-1.082617
C68	C	-4.470897	-0.117895	-1.024028
H69	H	-4.661284	-0.193403	-1.113409
H70	H	-4.538580	-0.240477	-1.057542
H71	H	-4.432542	-0.187946	-1.116642
H72	H	-4.568977	-0.120750	-0.989999
H73	H	-4.462960	-0.068204	-1.049104
C74	C	-3.401974	-0.025778	-0.666140
C75	C	-3.435853	-0.099538	-0.629677
H76	H	-3.286575	-0.022667	-0.691445
H77	H	-3.376486	0.023319	-0.626729
H78	H	-3.519880	-0.027973	-0.704986
H79	H	-3.317952	-0.097340	-0.590827
H80	H	-3.461329	-0.148648	-0.669093
C81	C	-3.320064	-0.171455	-0.484519
C82	C	-3.388662	-0.101113	-0.456174
H83	H	-3.189403	-0.168847	-0.453729
H84	H	-3.309117	-0.170347	-0.539072
H85	H	-3.415139	-0.222878	-0.479968
H86	H	-3.293594	-0.049690	-0.460731
H87	H	-3.399595	-0.102213	-0.401608
C88	C	-4.242031	-0.190143	-0.684219
C89	C	-4.208168	-0.116378	-0.720675
H90	H	-4.357444	-0.193267	-0.658921
H91	H	-4.124143	-0.187948	-0.645377
H92	H	-4.267504	-0.239242	-0.723641
H93	H	-4.182679	-0.067279	-0.681253
H94	H	-4.326083	-0.118566	-0.759521
