data_functionalizedCrystal
_audit_creation_method	'MofGen! by Chris Wilmer'
_symmetry_space_group_name_H-M	'P1'
_symmetry_Int_Tables_number	1
_symmetry_cell_setting	triclinic
loop_
_symmetry_equiv_pos_as_xyz
  x,y,z
_cell_length_a	14.560432
_cell_length_b	12.477989
_cell_length_c	12.477989
_cell_angle_alpha	89.511470
_cell_angle_beta	64.368794
_cell_angle_gamma	64.370318
loop_
_atom_site_label
_atom_site_type_symbol
_atom_site_fract_x
_atom_site_fract_y
_atom_site_fract_z
Zr1	Zr	1.093883	-0.193131	0.984924
O2	O	1.251480	-0.345058	0.832993
O3	O	0.912706	-0.146561	1.031500
O4	O	1.082093	-0.358079	1.044516
O5	O	1.099616	0.033312	0.809709
O6	O	1.099616	-0.368346	1.211368
O7	O	1.082093	-0.133540	0.819977
O8	O	0.796614	0.010021	1.188084
O9	O	1.402618	-0.345054	0.832993
O10	O	1.009038	-0.134357	1.175883
O11	O	1.009038	-0.002175	1.043700
O12	O	1.208469	-0.251210	1.059025
O13	O	1.208469	-0.119027	0.926842
Zr14	Zr	1.149778	0.056605	1.234658
Zr15	Zr	1.121831	-0.209506	1.251034
Zr16	Zr	1.121830	0.072979	0.968548
Zr17	Zr	1.334931	-0.193125	0.984923
Zr18	Zr	0.908730	0.056598	1.234659
O19	O	1.330955	0.010035	1.188082
O20	O	1.291217	-0.368341	1.211367
O21	O	1.291217	0.033317	0.809708
O22	O	0.992181	0.208531	1.386589
O23	O	0.952444	-0.169844	1.409874
O24	O	0.952444	0.231814	1.008215
O25	O	1.144045	-0.169839	1.409873
O26	O	1.161568	0.221552	1.175066
O27	O	1.144045	0.231819	1.008214
O28	O	1.161568	-0.002986	1.399605
O29	O	1.424833	-0.358070	1.044515
O30	O	0.818829	0.221543	1.175067
O31	O	0.841043	0.208527	1.386589
O32	O	0.818829	-0.002995	1.399606
O33	O	1.424832	-0.133531	0.819976
O34	O	1.447047	-0.146547	1.031498
O35	O	1.035192	0.114683	1.160557
O36	O	1.035192	-0.017499	1.292740
O37	O	1.234623	-0.134351	1.175882
O38	O	1.234623	-0.002169	1.043699
C39	C	0.820316	-0.068271	1.109792
C40	C	0.717985	-0.068274	1.109793
C41	C	1.086873	-0.047781	0.776928
C42	C	1.075008	-0.040830	0.663958
C43	C	1.156788	0.264601	1.089307
C44	C	1.168653	0.377572	1.082354
C45	C	0.717976	-0.206285	1.247781
C46	C	0.669899	-0.275292	1.316770
C47	C	0.573750	-0.275289	1.316766
C48	C	0.525673	-0.206269	1.247770
C49	C	0.573749	-0.137262	1.178781
C50	C	0.669903	-0.137275	1.178790
C51	C	0.573753	0.000754	1.040801
C52	C	0.669907	0.000746	1.040796
C53	C	0.525676	0.069774	0.971804
C54	C	0.573757	0.138776	0.902808
C55	C	0.669913	0.138769	0.902813
C56	C	0.717984	0.069753	0.971808
C57	C	1.423345	-0.068255	1.109790
C58	C	1.525676	-0.068253	1.109789
C59	C	1.086873	-0.401127	1.130275
C60	C	1.075008	-0.514098	1.137228
C61	C	1.156789	-0.088745	1.442654
C62	C	1.168653	-0.095697	1.555624
C63	C	0.855274	-0.088753	1.442655
C64	C	0.764807	-0.095707	1.555626
C65	C	0.855274	0.264593	1.089308
C66	C	0.764807	0.377561	1.082356
C67	C	0.890232	0.244111	1.422171
C68	C	0.811629	0.350127	1.528189
C69	C	1.353429	-0.380637	0.797411
C70	C	1.432032	-0.486654	0.691393
C71	C	1.388387	-0.047773	0.776927
C72	C	1.478854	-0.040819	0.663956
C73	C	1.388387	-0.401119	1.130274
C74	C	1.478854	-0.514087	1.137226
C75	C	0.708669	-0.159983	1.547681
C76	C	0.623676	-0.166541	1.653821
C77	C	0.594816	-0.108816	1.767904
C78	C	0.650963	-0.044538	1.775846
C79	C	0.735961	-0.037988	1.669708
C80	C	0.735976	0.491622	1.140089
C81	C	0.650987	0.597778	1.133552
C82	C	0.594824	0.589870	1.069288
C83	C	0.623662	0.475797	1.011548
C84	C	0.708656	0.369644	1.018079
C85	C	0.774718	0.330915	1.646986
C86	C	0.700876	0.430519	1.746613
C87	C	0.663940	0.549333	1.727440
C88	C	0.700859	0.568543	1.608631
C89	C	0.774707	0.468941	1.509007
C90	C	1.468955	-0.467442	0.572596
C91	C	1.542827	-0.567045	0.472969
C92	C	1.579768	-0.685859	0.492142
C93	C	1.542842	-0.705070	0.610951
C94	C	1.468978	-0.605467	0.710575
C95	C	1.535001	0.023446	0.671902
C96	C	1.620018	0.029975	0.565764
C97	C	1.648881	-0.027754	0.451681
C98	C	1.592729	-0.092027	0.443738
C99	C	1.507720	-0.098563	0.549875
C100	C	1.534992	-0.506141	1.201500
C101	C	1.619986	-0.612278	1.208055
C102	C	1.648847	-0.726360	1.150329
C103	C	1.592699	-0.734304	1.086053
C104	C	1.507701	-0.628169	1.079506
H105	H	0.796275	-0.206307	1.247779
H106	H	0.627519	0.690650	1.180576
H107	H	1.616243	-0.139027	0.350838
H108	H	0.985759	0.492222	1.189526
H109	H	0.985752	0.011461	0.670279
H110	H	0.781659	0.014359	1.676194
H111	H	1.438915	-0.621125	0.807303
H112	H	1.462001	-0.634656	1.027162
H113	H	0.804780	0.234179	1.662620
H114	H	0.709051	0.194965	0.846635
H115	H	1.665695	-0.605785	1.260393
H116	H	1.639912	-0.766951	0.411011
H117	H	1.257909	0.371253	1.030060
H118	H	0.447374	-0.206261	1.247785
H119	H	1.572929	-0.801820	0.626548
H120	H	0.732116	0.276775	0.971069
H121	H	0.709050	-0.331485	1.372949
H122	H	1.665724	0.082316	0.572255
H123	H	1.257902	-0.147998	0.549302
H124	H	0.525619	0.676316	1.063980
H125	H	1.462006	-0.150890	0.543389
H126	H	1.718060	-0.812773	1.155670
H127	H	0.447381	0.069778	0.971813
H128	H	0.732164	-0.207006	1.454800
H129	H	1.511509	0.070465	0.764783
H130	H	0.534601	0.194972	0.846642
H131	H	0.603809	0.630425	1.808571
H132	H	0.534602	-0.331475	1.372947
H133	H	0.627453	0.002458	1.868747
H134	H	0.577969	-0.218882	1.647330
H135	H	1.511510	-0.413259	1.248508
H136	H	0.525602	-0.114158	1.854318
H137	H	0.670823	0.414856	1.843344
H138	H	0.796279	0.069735	0.971813
H139	H	0.781697	0.498084	1.192419
H140	H	0.577922	0.469377	0.959226
H141	H	0.670775	0.665295	1.593038
H142	H	0.804749	0.484601	1.412280
H143	H	1.718103	-0.022423	0.365267
H144	H	1.438880	-0.370706	0.556962
H145	H	1.572878	-0.551380	0.376239
H146	H	1.616211	-0.827204	1.039055
