data_functionalizedCrystal
_audit_creation_method	'MofGen! by Chris Wilmer'
_symmetry_space_group_name_H-M	'P1'
_symmetry_Int_Tables_number	1
_symmetry_cell_setting	triclinic
loop_
_symmetry_equiv_pos_as_xyz
  x,y,z
_cell_length_a	18.215407
_cell_length_b	12.645330
_cell_length_c	18.215399
_cell_angle_alpha	90.022131
_cell_angle_beta	89.982632
_cell_angle_gamma	89.976370
loop_
_atom_site_label
_atom_site_type_symbol
_atom_site_fract_x
_atom_site_fract_y
_atom_site_fract_z
Zn1	Zn	1.125065	0.422123	-0.416097
Zn2	Zn	1.625065	0.922123	0.083903
Zn3	Zn	1.124971	0.599405	-0.293043
Zn4	Zn	1.624971	1.099405	0.206957
Zn5	Zn	1.001998	0.422148	-0.293050
Zn6	Zn	1.501998	0.922148	0.206950
Zn7	Zn	1.001961	0.599337	-0.416074
Zn8	Zn	1.501961	1.099337	0.083926
O9	O	1.063499	0.510753	-0.354566
O10	O	1.563499	1.010753	0.145434
O11	O	1.228037	0.445657	-0.399781
O12	O	1.728037	0.945657	0.100219
O13	O	1.108634	0.575931	-0.190060
O14	O	1.608634	1.075931	0.309940
O15	O	1.018378	0.273797	-0.309385
O16	O	1.518378	0.773797	0.190615
O17	O	1.227968	0.575906	-0.309374
O18	O	1.727968	1.075906	0.190626
O19	O	1.108795	0.273779	-0.399787
O20	O	1.608795	0.773779	0.100213
O21	O	1.018286	0.445701	-0.190065
O22	O	1.518286	0.945701	0.309935
O23	O	0.899009	0.445634	-0.309362
O24	O	1.399009	0.945634	0.190638
O25	O	1.018315	0.575790	-0.519061
O26	O	1.518315	1.075790	-0.019061
O27	O	0.898982	0.575814	-0.399747
O28	O	1.398982	1.075814	0.100253
O29	O	1.108759	0.445591	-0.519078
O30	O	1.608759	0.945591	-0.019078
O31	O	1.108598	0.747743	-0.309351
O32	O	1.608598	1.247743	0.190649
O33	O	1.018224	0.747693	-0.399741
O34	O	1.518224	1.247693	0.100259
C35	C	0.872292	0.510720	-0.354553
C36	C	1.372292	1.010720	0.145447
C37	C	0.790494	0.510732	-0.354565
C38	C	1.290494	1.010732	0.145435
C39	C	0.602335	0.443051	-0.401714
C40	C	1.102335	0.943051	0.098286
C41	C	0.525476	0.443060	-0.401717
C42	C	1.025476	0.943060	0.098283
C43	C	0.525415	0.578485	-0.307431
C44	C	1.025415	1.078485	0.192569
C45	C	0.602272	0.578469	-0.307425
C46	C	1.102272	1.078469	0.192575
C47	C	0.640730	0.510754	-0.354571
C48	C	1.140730	1.010754	0.145429
C49	C	0.487014	0.510779	-0.354579
C50	C	0.987014	1.010779	0.145421
C51	C	0.403680	0.510789	-0.354581
C52	C	0.903680	1.010789	0.145419
C53	C	0.724069	0.510742	-0.354568
C54	C	1.224069	1.010742	0.145432
C55	C	1.063417	0.786183	-0.354559
C56	C	1.563417	1.286183	0.145441
C57	C	1.063449	0.904013	-0.354580
C58	C	1.563449	1.404013	0.145420
C59	C	1.006811	1.071589	-0.411622
C60	C	1.506811	1.571589	0.088378
C61	C	1.006534	0.949030	-0.411437
C62	C	1.506534	1.449030	0.088563
C63	C	1.042451	0.948602	-0.277023
C64	C	1.542451	1.448602	0.222977
C65	C	1.042093	1.071200	-0.277371
C66	C	1.542093	1.571200	0.222629
C67	C	1.141391	1.071108	-0.374471
C68	C	1.641391	1.571108	0.125529
C69	C	1.140926	0.948501	-0.376166
C70	C	1.640926	1.448501	0.123834
C71	C	1.255452	0.510786	-0.354579
C72	C	1.755452	1.010786	0.145421
C73	C	1.337250	0.510801	-0.354585
C74	C	1.837250	1.010801	0.145415
C75	C	1.063575	1.234248	-0.354592
C76	C	1.563575	1.734248	0.145408
C77	C	1.063542	1.116418	-0.354610
C78	C	1.563542	1.616418	0.145390
C79	C	1.063544	0.510680	-0.546519
C80	C	1.563544	1.010680	-0.046519
C81	C	1.063563	0.510649	-0.628318
C82	C	1.563563	1.010649	-0.128318
C83	C	1.110674	0.442791	-0.816522
C84	C	1.610674	0.942791	-0.316522
C85	C	1.110683	0.442760	-0.893381
C86	C	1.610683	0.942760	-0.393381
C87	C	1.016503	0.578342	-0.893352
C88	C	1.516503	1.078342	-0.393352
C89	C	1.016492	0.578367	-0.816494
C90	C	1.516492	1.078367	-0.316494
C91	C	1.063581	0.510593	-0.778082
C92	C	1.563581	1.010593	-0.278082
C93	C	1.063602	0.510537	-0.931798
C94	C	1.563602	1.010537	-0.431798
C95	C	1.063611	0.510504	-1.015131
C96	C	1.563611	1.010504	-0.515131
C97	C	1.063571	0.510624	-0.694743
C98	C	1.563571	1.010624	-0.194743
C99	C	1.063496	0.510749	-0.163360
C100	C	1.563496	1.010749	0.336640
C101	C	1.063620	0.510482	-0.081561
C102	C	1.563620	1.010482	0.418439
H103	H	0.494218	0.387928	-0.440105
H104	H	0.994218	0.887928	0.059895
H105	H	0.978138	0.633579	-0.785195
H106	H	1.478138	1.133579	-0.285195
H107	H	1.149029	0.387547	-0.924676
H108	H	1.649029	0.887547	-0.424676
F109	F	1.160789	0.370657	-0.775643
F110	F	1.660789	0.870657	-0.275643
H111	H	0.494093	0.633617	-0.269047
H112	H	0.994093	1.133617	0.230953
H113	H	1.160539	1.101956	-0.430065
H114	H	1.660539	1.601956	0.069935
H115	H	0.986143	0.917986	-0.259893
H116	H	1.486143	1.417986	0.240107
H117	H	0.978167	0.633524	-0.924637
H118	H	1.478167	1.133524	-0.424637
F119	F	0.643138	0.650523	-0.257240
F120	F	1.143138	1.150523	0.242760
F121	F	1.023704	0.909618	-0.486605
F122	F	1.523704	1.409618	0.013395
H123	H	0.985185	1.099887	-0.260545
H124	H	1.485185	1.599887	0.239455
F125	F	1.023813	1.110039	-0.487038
F126	F	1.523813	1.610039	0.012962
H127	H	0.949458	1.102486	-0.398632
H128	H	1.449458	1.602486	0.101368
F129	F	1.094754	0.910493	-0.219981
F130	F	1.594754	1.410493	0.280019
F131	F	0.931105	0.910807	-0.394241
F132	F	1.431105	1.410807	0.105759
H133	H	1.081621	1.100858	-0.233444
H134	H	1.581621	1.600858	0.266556
F135	F	1.161625	0.910406	-0.450771
F136	F	1.661625	1.410406	0.049229
F137	F	0.643262	0.370980	-0.451889
F138	F	1.143262	0.870980	0.048111
F139	F	1.199094	0.908434	-0.325847
F140	F	1.699094	1.408434	0.174153
H141	H	1.183657	1.100097	-0.332947
H142	H	1.683657	1.600097	0.167053
