data_functionalizedCrystal
_audit_creation_method	'MofGen! by Chris Wilmer'
_symmetry_space_group_name_H-M	'P1'
_symmetry_Int_Tables_number	1
_symmetry_cell_setting	triclinic
loop_
_symmetry_equiv_pos_as_xyz
  x,y,z
_cell_length_a	19.188930
_cell_length_b	19.188924
_cell_length_c	12.996460
_cell_angle_alpha	89.991787
_cell_angle_beta	89.980533
_cell_angle_gamma	83.143372
loop_
_atom_site_label
_atom_site_type_symbol
_atom_site_fract_x
_atom_site_fract_y
_atom_site_fract_z
O1	O	0.926144	0.087169	-0.085902
O2	O	0.722832	0.098904	-0.085832
O3	O	0.830357	-0.008620	-0.085857
O4	O	0.818618	0.194692	-0.085877
O5	O	0.830346	-0.008626	0.085277
O6	O	0.722821	0.098898	0.085301
O7	O	0.926132	0.087163	0.085232
Cu8	Cu	0.824476	0.093030	0.100892
Cu9	Cu	0.824489	0.093037	-0.101493
O10	O	0.818607	0.194686	0.085256
C11	C	0.696815	0.098521	-0.000256
C12	C	0.619311	0.097380	-0.000229
C13	C	0.574385	0.160471	-0.000252
C14	C	0.501562	0.159399	-0.000263
C15	C	0.473667	0.095233	-0.000272
C16	C	0.518602	0.032134	-0.000244
C17	C	0.591424	0.033207	-0.000223
N18	N	0.365692	0.046188	-0.058553
N19	N	0.296513	0.045172	-0.058576
C20	C	0.254258	0.091995	-0.000335
N21	N	0.283794	0.139882	0.057917
N22	N	0.352979	0.140899	0.057935
C23	C	0.394704	0.094062	-0.000295
C24	C	0.130368	0.153928	-0.000368
C25	C	0.057543	0.152854	-0.000373
C26	C	0.074585	0.025586	-0.000364
C27	C	0.147409	0.026663	-0.000349
C28	C	0.175295	0.090835	-0.000356
C29	C	0.829973	-0.034634	-0.000289
C30	C	0.828834	-0.112138	-0.000286
C31	C	0.828308	-0.148534	-0.093571
C32	C	0.827228	-0.221357	-0.093579
C33	C	0.826688	-0.257783	-0.000296
C34	C	0.827210	-0.221378	0.093002
C35	C	0.828282	-0.148556	0.093007
N36	N	0.864731	-0.377449	0.069119
N37	N	0.863714	-0.446627	0.069109
C38	C	0.823454	-0.477192	-0.000304
N39	N	0.784259	-0.435967	-0.069722
N40	N	0.785280	-0.366783	-0.069714
C41	C	0.825524	-0.336746	-0.000290
C42	C	0.821757	-0.592550	-0.093604
C43	C	0.820672	-0.665374	-0.093608
C44	C	0.820660	-0.665394	0.092975
C45	C	0.821738	-0.592571	0.092976
C46	C	0.822289	-0.556154	-0.000316
C47	C	0.952149	0.087546	-0.000347
C48	C	1.029654	0.088687	-0.000381
C49	C	0.818992	0.220700	-0.000314
C50	C	0.820131	0.298205	-0.000324
N51	N	0.824472	0.093025	0.243240
N52	N	0.824499	0.093037	-0.243840
C53	C	0.824488	0.093038	0.663054
C54	C	0.824481	0.093036	0.546249
C55	C	0.824480	0.093032	0.453150
C56	C	0.824473	0.093029	0.336338
H57	H	0.495885	-0.020111	-0.000266
N58	N	0.828862	-0.109299	0.193627
H59	H	0.829628	-0.057641	0.179475
H60	H	0.785399	-0.116235	0.234381
N61	N	0.822317	-0.553317	0.193596
H62	H	0.866034	-0.528898	0.197738
H63	H	0.779462	-0.517346	0.197715
N64	N	0.604464	0.229683	-0.000266
H65	H	0.564949	0.269488	-0.000285
H66	H	0.634285	0.232905	0.063181
H67	H	0.820215	-0.695051	0.168928
H68	H	0.828755	-0.118887	-0.169537
H69	H	0.826796	-0.250995	-0.169545
H70	H	0.822201	-0.562897	-0.169568
H71	H	0.826767	-0.251040	0.168953
H72	H	0.464976	0.210777	-0.000278
N73	N	0.820164	-0.704641	-0.194227
H74	H	0.820699	-0.670521	-0.253322
H75	H	0.863012	-0.740628	-0.198235
H76	H	0.628003	-0.018171	-0.000205
H77	H	0.153075	0.206181	-0.000358
H78	H	0.020965	0.204232	-0.000385
N79	N	0.044510	-0.043623	-0.000363
H80	H	-0.008440	-0.034731	-0.000376
H81	H	0.060980	-0.071222	-0.063797
H82	H	0.183988	-0.024713	-0.000337
