data_functionalizedCrystal
_audit_creation_method	'MofGen! by Chris Wilmer'
_symmetry_space_group_name_H-M	'P1'
_symmetry_Int_Tables_number	1
_symmetry_cell_setting	triclinic
loop_
_symmetry_equiv_pos_as_xyz
  x,y,z
_cell_length_a	12.759401
_cell_length_b	13.032721
_cell_length_c	13.033429
_cell_angle_alpha	90.931748
_cell_angle_beta	82.836520
_cell_angle_gamma	97.204582
loop_
_atom_site_label
_atom_site_type_symbol
_atom_site_fract_x
_atom_site_fract_y
_atom_site_fract_z
Zn1	Zn	1.482513	-0.335501	0.633407
Zn2	Zn	1.982513	0.164499	1.133407
Zn3	Zn	1.476802	-0.529355	0.483269
Zn4	Zn	1.976802	-0.029355	0.983269
Zn5	Zn	1.325969	-0.357399	0.461461
Zn6	Zn	1.825969	0.142601	0.961461
Zn7	Zn	1.282050	-0.507436	0.655192
Zn8	Zn	1.782050	-0.007436	1.155192
O9	O	1.391834	-0.432423	0.558332
O10	O	1.891834	0.067577	1.058332
O11	O	1.628774	-0.361225	0.613500
O12	O	2.128774	0.138775	1.113500
O13	O	1.472785	-0.524882	0.336465
O14	O	1.972785	-0.024882	0.836465
O15	O	1.367505	-0.210574	0.466026
O16	O	1.867505	0.289426	0.966026
O17	O	1.624579	-0.503649	0.503194
O18	O	2.124579	-0.003649	1.003194
O19	O	1.482517	-0.194486	0.592354
O20	O	1.982517	0.305514	1.092354
O21	O	1.361968	-0.398547	0.320443
O22	O	1.861968	0.101453	0.820443
O23	O	1.173124	-0.377293	0.487150
O24	O	1.673124	0.122707	0.987150
O25	O	1.292651	-0.466291	0.796212
O26	O	1.792651	0.033709	1.296212
O27	O	1.140857	-0.487524	0.629484
O28	O	1.640857	0.012476	1.129484
O29	O	1.439930	-0.339971	0.780207
O30	O	1.939930	0.160029	1.280207
O31	O	1.430198	-0.670367	0.524319
O32	O	1.930198	-0.170367	1.024319
O33	O	1.287114	-0.654263	0.650630
O34	O	1.787114	-0.154263	1.150630
C35	C	1.118870	-0.432407	0.558315
C36	C	1.618870	0.067593	1.058315
C37	C	1.002089	-0.432422	0.558336
C38	C	1.502089	0.067578	1.058336
C39	C	0.949384	-0.358368	0.615888
C40	C	1.449384	0.141632	1.115888
C41	C	0.839658	-0.358377	0.615896
C42	C	1.339658	0.141623	1.115896
C43	C	0.835351	-0.506504	0.500797
C44	C	1.335351	-0.006504	1.000797
C45	C	0.945076	-0.506489	0.500784
C46	C	1.445076	-0.006489	1.000784
C47	C	1.353297	-0.699629	0.592227
C48	C	1.853297	-0.199629	1.092227
C49	C	1.336903	-0.813937	0.606762
C50	C	1.836903	-0.313937	1.106762
C51	C	1.400440	-0.872826	0.550792
C52	C	1.900440	-0.372826	1.050792
C53	C	1.383498	-0.990969	0.565813
C54	C	1.883498	-0.490969	1.065813
C55	C	1.665862	-0.432439	0.558349
C56	C	2.165862	0.067561	1.058349
C57	C	1.782637	-0.432446	0.558357
C58	C	2.282637	0.067554	1.058357
C59	C	1.362029	-0.398243	0.826567
C60	C	1.862029	0.101757	1.326567
C61	C	1.349328	-0.383678	0.940873
C62	C	1.849328	0.116322	1.440873
C63	C	1.430547	-0.164170	0.524327
C64	C	1.930547	0.335830	1.024327
C65	C	1.447044	-0.049857	0.509836
C66	C	1.947044	0.450143	1.009836
C67	C	1.421593	-0.466395	0.291131
C68	C	1.921593	0.033605	0.791131
C69	C	1.434540	-0.480670	0.176789
C70	C	1.934540	0.019330	0.676789
C71	C	1.385373	-0.424654	1.117901
C72	C	1.885373	0.075346	1.617901
C73	C	1.398501	-0.439702	0.999759
C74	C	1.898501	0.060298	1.499759
H75	H	0.987990	-0.566795	0.453912
H76	H	1.487990	-0.066795	0.953912
H77	H	1.297517	-0.324570	0.977915
H78	H	1.797517	0.175430	1.477915
H79	H	1.269967	-0.850984	0.665804
H80	H	1.769967	-0.350984	1.165804
H81	H	0.796751	-0.298074	0.662760
H82	H	1.296751	0.201926	1.162760
H83	H	1.316557	-1.028012	0.624860
H84	H	1.816557	-0.528012	1.124860
H85	H	1.486357	-0.539765	1.139740
H86	H	1.986357	-0.039765	1.639740
O87	O	1.316765	-0.346349	1.166969
O88	O	1.816765	0.153651	1.666969
H89	H	1.251266	-0.386171	1.221748
H90	H	1.751266	0.113829	1.721748
O91	O	1.010886	-0.278473	0.677942
O92	O	1.510886	0.221527	1.177942
H93	H	0.955800	-0.226973	0.717952
H94	H	1.455800	0.273027	1.217952
O95	O	1.489120	-0.823771	0.472590
O96	O	1.989120	-0.323771	0.972590
H97	H	1.566672	-0.842001	0.492899
H98	H	2.066672	-0.342001	0.992899
O99	O	1.467138	-0.517996	0.950706
O100	O	1.967138	-0.017996	1.450706
H101	H	1.466673	-0.517536	0.865612
H102	H	1.966673	-0.017536	1.365612
H103	H	0.788917	-0.566808	0.453942
H104	H	1.288917	-0.066808	0.953942
O105	O	1.535727	-1.000806	0.431627
O106	O	2.035727	-0.500806	0.931627
H107	H	1.535118	-0.915710	0.432097
H108	H	2.035118	-0.415710	0.932097
