data_functionalizedCrystal
_audit_creation_method	'MofGen! by Chris Wilmer'
_symmetry_space_group_name_H-M	'P1'
_symmetry_Int_Tables_number	1
_symmetry_cell_setting	triclinic
loop_
_symmetry_equiv_pos_as_xyz
  x,y,z
_cell_length_a	14.853566
_cell_length_b	27.732064
_cell_length_c	13.930277
_cell_angle_alpha	89.999521
_cell_angle_beta	89.995631
_cell_angle_gamma	83.141919
loop_
_atom_site_label
_atom_site_type_symbol
_atom_site_fract_x
_atom_site_fract_y
_atom_site_fract_z
O1	O	1.195350	0.063103	-0.079758
O2	O	1.695350	0.563103	0.420242
O3	O	0.932768	0.070621	-0.079773
O4	O	1.432768	0.570621	0.420227
O5	O	1.072206	-0.003496	-0.079769
O6	O	1.572206	0.496504	0.420231
O7	O	1.055912	0.137220	-0.079763
O8	O	1.555912	0.637220	0.420237
O9	O	1.072187	-0.003497	0.079893
O10	O	1.572187	0.496503	0.579893
O11	O	0.932749	0.070620	0.079889
O12	O	1.432749	0.570620	0.579889
O13	O	1.195330	0.063102	0.079903
O14	O	1.695330	0.563102	0.579903
Zn15	Zn	1.064037	0.066860	0.105246
Zn16	Zn	1.564037	0.566860	0.605246
Zn17	Zn	1.064062	0.066862	-0.105116
Zn18	Zn	1.564062	0.566862	0.394884
O19	O	1.055892	0.137219	0.079899
O20	O	1.555892	0.637219	0.579899
C21	C	0.899176	0.070280	0.000056
C22	C	1.399176	0.570280	0.500056
C23	C	0.799108	0.069259	0.000050
C24	C	1.299108	0.569259	0.500050
C25	C	0.376004	0.064944	-0.086965
C26	C	0.876004	0.564944	0.413035
C27	C	0.376004	0.064943	0.087104
C28	C	0.876004	0.564943	0.587104
C29	C	0.470023	0.065901	0.087101
C30	C	0.970023	0.565901	0.587101
C31	C	0.517036	0.066381	0.000064
C32	C	1.017036	0.566381	0.500064
C33	C	0.470031	0.065904	-0.086971
C34	C	0.970031	0.565904	0.413029
C35	C	0.517034	0.066384	0.174134
C36	C	1.017034	0.566384	0.674134
C37	C	0.611058	0.067342	0.174135
C38	C	1.111058	0.567342	0.674135
C39	C	0.658074	0.067820	0.087096
C40	C	1.158074	0.567820	0.587096
C41	C	0.611063	0.067341	0.000058
C42	C	1.111063	0.567341	0.500058
C43	C	0.658076	0.067822	-0.086979
C44	C	1.158076	0.567822	0.413021
C45	C	0.611068	0.067340	-0.174019
C46	C	1.111068	0.567340	0.325981
C47	C	0.517046	0.066381	-0.174010
C48	C	1.017046	0.566381	0.325990
C49	C	0.752095	0.068779	0.087087
C50	C	1.252095	0.568779	0.587087
C51	C	0.752103	0.068782	-0.086985
C52	C	1.252103	0.568782	0.413015
C53	C	1.071852	-0.021505	0.000059
C54	C	1.571852	0.478495	0.500059
C55	C	1.070816	-0.075164	0.000050
C56	C	1.570816	0.424836	0.500050
C57	C	0.981356	-0.452655	0.000041
C58	C	1.481356	0.047345	0.500041
C59	C	0.985172	-0.250977	0.000040
C60	C	1.485172	0.249023	0.500040
O61	O	0.915754	-0.220049	-0.000002
O62	O	1.415754	0.279951	0.499998
N63	N	1.067856	-0.231463	0.000045
N64	N	1.567856	0.268537	0.500045
C65	C	1.149592	-0.262372	0.000043
C66	C	1.649592	0.237628	0.500043
O67	O	1.220008	-0.241147	0.000037
O68	O	1.720008	0.258853	0.500037
C69	C	1.145775	-0.464049	0.000037
C70	C	1.645775	0.035951	0.500037
C71	C	1.063086	-0.483560	0.000042
C72	C	1.563086	0.016440	0.500042
C73	C	0.898673	-0.472167	0.000045
C74	C	1.398673	0.027833	0.500045
C75	C	0.897720	-0.522583	0.000051
C76	C	1.397720	-0.022583	0.500051
C77	C	0.979450	-0.553488	0.000052
C78	C	1.479450	-0.053488	0.500052
C79	C	1.062132	-0.533977	0.000048
C80	C	1.562132	-0.033977	0.500048
C81	C	1.227510	-0.494957	0.000029
C82	C	1.727510	0.005043	0.500029
C83	C	1.226548	-0.545379	0.000025
C84	C	1.726548	-0.045379	0.500025
C85	C	1.143859	-0.564890	0.000030
C86	C	1.643859	-0.064890	0.500030
C87	C	1.142909	-0.615299	0.000055
C88	C	1.642909	-0.115299	0.500055
N89	N	1.060225	-0.634812	0.000050
N90	N	1.560225	-0.134812	0.500050
C91	C	0.978495	-0.603907	0.000049
C92	C	1.478495	-0.103907	0.500049
C93	C	1.151591	-0.156488	0.000048
C94	C	1.651591	0.343512	0.500048
C95	C	1.152545	-0.106069	0.000051
C96	C	1.652545	0.393931	0.500051
C97	C	0.988125	-0.094678	0.000046
C98	C	1.488125	0.405322	0.500046
C99	C	0.987171	-0.145098	0.000050
C100	C	1.487171	0.354902	0.500050
C101	C	1.068906	-0.176002	0.000043
C102	C	1.568906	0.323998	0.500043
C103	C	0.976500	-0.709786	0.000061
C104	C	1.476500	-0.209786	0.500061
C105	C	0.975554	-0.760208	0.000071
C106	C	1.475554	-0.260208	0.500071
C107	C	1.139974	-0.771595	0.000070
C108	C	1.639974	-0.271595	0.500070
C109	C	1.140920	-0.721178	0.000066
C110	C	1.640920	-0.221178	0.500066
C111	C	1.059176	-0.690274	0.000058
C112	C	1.559176	-0.190274	0.500058
O113	O	1.212290	-0.646255	0.000086
O114	O	1.712290	-0.146255	0.500086
O115	O	0.908090	-0.625142	0.000034
O116	O	1.408090	-0.125142	0.500034
C117	C	0.982309	-0.402239	0.000035
C118	C	1.482309	0.097761	0.500035
C119	C	1.064992	-0.382727	0.000031
C120	C	1.564992	0.117273	0.500031
C121	C	1.146722	-0.413632	0.000033
C122	C	1.646722	0.086368	0.500033
C123	C	1.065947	-0.332308	0.000035
C124	C	1.565947	0.167692	0.500035
C125	C	0.984217	-0.301403	0.000033
C126	C	1.484217	0.198597	0.500033
C127	C	0.901533	-0.320917	0.000029
C128	C	1.401533	0.179083	0.500029
C129	C	0.900580	-0.371334	0.000034
C130	C	1.400580	0.128666	0.500034
C131	C	1.229406	-0.394118	0.000037
C132	C	1.729406	0.105882	0.500037
C133	C	1.230352	-0.343701	0.000033
C134	C	1.730352	0.156299	0.500033
C135	C	1.148623	-0.312796	0.000032
C136	C	1.648623	0.187204	0.500032
C137	C	1.228923	0.063443	0.000072
C138	C	1.728923	0.563443	0.500072
C139	C	1.328990	0.064463	0.000072
C140	C	1.828990	0.564463	0.500072
C141	C	1.056246	0.155228	0.000069
C142	C	1.556246	0.655228	0.500069
C143	C	1.057283	0.208887	0.000072
C144	C	1.557283	0.708887	0.500072
N145	N	1.064026	0.066859	0.248812
N146	N	1.564026	0.566859	0.748812
N147	N	1.064080	0.066860	-0.248682
N148	N	1.564080	0.566860	0.251318
C149	C	1.002317	0.099669	0.701079
C150	C	1.502317	0.599669	1.201079
C151	C	1.125832	0.034053	0.701052
C152	C	1.625832	0.534053	1.201052
C153	C	1.125822	0.034051	0.600557
C154	C	1.625822	0.534051	1.100557
C155	C	1.064058	0.066859	0.550318
C156	C	1.564058	0.566859	1.050318
C157	C	1.002306	0.099669	0.600574
C158	C	1.502306	0.599669	1.100574
C159	C	1.187579	0.001245	0.550292
C160	C	1.687579	0.501245	1.050292
C161	C	1.187571	0.001243	0.449791
C162	C	1.687571	0.501243	0.949791
C163	C	1.125803	0.034049	0.399550
C164	C	1.625803	0.534049	0.899550
C165	C	1.064048	0.066860	0.449813
C166	C	1.564048	0.566860	0.949813
C167	C	1.002284	0.099668	0.399574
C168	C	1.502284	0.599668	0.899574
C169	C	0.940524	0.132477	0.449835
C170	C	1.440524	0.632477	0.949835
C171	C	0.940538	0.132475	0.550333
C172	C	1.440538	0.632475	1.050333
C173	C	1.125789	0.034050	0.299051
C174	C	1.625789	0.534050	0.799051
C175	C	1.002274	0.099668	0.299069
C176	C	1.502274	0.599668	0.799069
H177	H	0.790364	0.069176	0.157953
H178	H	1.290364	0.569176	0.657953
H179	H	0.337720	0.064555	0.157966
H180	H	0.837720	0.564555	0.657966
H181	H	0.890255	0.159188	0.591262
H182	H	1.390255	0.659188	1.091262
H183	H	1.237869	-0.025464	0.591200
H184	H	1.737869	0.474536	1.091200
H185	H	0.478748	0.065995	0.244995
H186	H	0.978748	0.565995	0.744995
Br187	Br	0.918440	0.144193	0.230894
Br188	Br	1.418440	0.644193	0.730894
H189	H	0.337726	0.064550	-0.157831
H190	H	0.837726	0.564550	0.342169
H191	H	1.176078	0.007340	0.258133
H192	H	1.676078	0.507340	0.758133
Br193	Br	0.856714	0.177005	0.381642
Br194	Br	1.356714	0.677005	0.881642
H195	H	0.952030	0.126380	0.742004
H196	H	1.452030	0.626380	1.242004
Br197	Br	1.340337	-0.436054	0.000040
Br198	Br	1.840337	0.063946	0.500040
H199	H	1.176122	0.007343	0.741960
H200	H	1.676122	0.507343	1.241960
Br201	Br	0.674847	0.067996	0.292256
Br202	Br	1.174847	0.567996	0.792256
Br203	Br	1.271385	-0.043282	0.381585
Br204	Br	1.771385	0.456718	0.881585
H205	H	0.832115	-0.447008	0.000041
H206	H	1.332115	0.052992	0.500041
Br207	Br	0.815901	0.069428	-0.205114
Br208	Br	1.315901	0.569428	0.294886
Br209	Br	0.863325	-0.786683	0.000083
Br210	Br	1.363325	-0.286683	0.500083
Br211	Br	0.674881	0.067998	-0.292136
Br212	Br	1.174881	0.567998	0.207864
H213	H	0.909935	-0.684630	0.000054
H214	H	1.409935	-0.184630	0.500054
Br215	Br	0.453251	0.065705	-0.292123
Br216	Br	0.953251	0.565705	0.207877
Br217	Br	0.785493	-0.549054	0.000048
Br218	Br	1.285493	-0.049054	0.500048
H219	H	0.921577	-0.069506	0.000049
H220	H	1.421577	0.430494	0.500049
Br221	Br	1.342585	-0.317229	0.000027
Br222	Br	1.842585	0.182771	0.500027
H223	H	0.919838	-0.160980	0.000058
H224	H	1.419838	0.339020	0.500058
H225	H	1.219879	-0.090188	0.000062
H226	H	1.719879	0.409812	0.500062
H227	H	1.218153	-0.181647	0.000044
H228	H	1.718153	0.318353	0.500044
H229	H	1.294845	-0.479081	0.000024
H230	H	1.794845	0.020919	0.500024
Br231	Br	0.788352	-0.397804	0.000041
Br232	Br	1.288352	0.102196	0.500041
H233	H	1.206516	-0.796767	0.000076
H234	H	1.706516	-0.296767	0.500076
H235	H	1.293109	-0.570540	0.000014
H236	H	1.793109	-0.070540	0.500014
Br237	Br	1.253142	-0.694698	0.000100
Br238	Br	1.753142	-0.194698	0.500100
H239	H	0.834986	-0.295745	0.000033
H240	H	1.334986	0.204255	0.500033
