data_functionalizedCrystal
_audit_creation_method	'MofGen! by Chris Wilmer'
_symmetry_space_group_name_H-M	'P1'
_symmetry_Int_Tables_number	1
_symmetry_cell_setting	triclinic
loop_
_symmetry_equiv_pos_as_xyz
  x,y,z
_cell_length_a	13.033293
_cell_length_b	16.959454
_cell_length_c	13.033109
_cell_angle_alpha	97.156051
_cell_angle_beta	74.800007
_cell_angle_gamma	97.190068
loop_
_atom_site_label
_atom_site_type_symbol
_atom_site_fract_x
_atom_site_fract_y
_atom_site_fract_z
Zn1	Zn	1.700273	-0.229029	-0.807189
Zn2	Zn	2.200273	0.270971	-0.307189
Zn3	Zn	1.677596	-0.346337	-0.629567
Zn4	Zn	2.177596	0.153663	-0.129567
Zn5	Zn	1.500077	-0.229044	-0.606991
Zn6	Zn	2.000077	0.270956	-0.106991
Zn7	Zn	1.522594	-0.376045	-0.784542
Zn8	Zn	2.022594	0.123955	-0.284542
O9	O	1.600135	-0.295114	-0.707072
O10	O	2.100135	0.204886	-0.207072
O11	O	1.845916	-0.232151	-0.802553
O12	O	2.345916	0.267849	-0.302553
O13	O	1.635134	-0.318351	-0.477931
O14	O	2.135134	0.181649	0.022069
O15	O	1.526699	-0.118428	-0.633578
O16	O	2.026699	0.381572	-0.133578
O17	O	1.829256	-0.318337	-0.672054
O18	O	2.329256	0.181663	-0.172054
O19	O	1.673782	-0.118417	-0.780663
O20	O	2.173782	0.381583	-0.280663
O21	O	1.504711	-0.232176	-0.461345
O22	O	2.004711	0.267824	0.038655
O23	O	1.354412	-0.260983	-0.611618
O24	O	1.854412	0.239017	-0.111618
O25	O	1.565078	-0.368970	-0.936187
O26	O	2.065078	0.131030	-0.436187
O27	O	1.370956	-0.368984	-0.742063
O28	O	1.870956	0.131016	-0.242063
O29	O	1.695617	-0.260958	-0.952826
O30	O	2.195617	0.239042	-0.452826
O31	O	1.656969	-0.460892	-0.650094
O32	O	2.156969	0.039108	-0.150094
O33	O	1.543089	-0.482719	-0.763953
O34	O	2.043089	0.017281	-0.263953
C35	C	1.324140	-0.318210	-0.671934
C36	C	1.824140	0.181790	-0.171934
C37	C	1.206072	-0.328111	-0.656927
C38	C	1.706072	0.171889	-0.156927
C39	C	1.161689	-0.289966	-0.714904
C40	C	1.661689	0.210034	-0.214904
C41	C	1.039659	-0.300199	-0.699395
C42	C	1.539659	0.199801	-0.199395
C43	C	1.600044	-0.500486	-0.707043
C44	C	2.100044	-0.000486	-0.207043
C45	C	1.600106	-0.588340	-0.707078
C46	C	2.100106	-0.088340	-0.207078
C47	C	1.540936	-0.971198	-0.766364
C48	C	2.040936	-0.471198	-0.266364
C49	C	1.659644	-0.948410	-0.647926
C50	C	2.159644	-0.448410	-0.147926
C51	C	1.659606	-0.865867	-0.647912
C52	C	2.159606	-0.365867	-0.147912
C53	C	1.600230	-0.835985	-0.707123
C54	C	2.100230	-0.335985	-0.207123
C55	C	1.540893	-0.888648	-0.766349
C56	C	2.040893	-0.388648	-0.266349
C57	C	1.718933	-0.813198	-0.588678
C58	C	2.218933	-0.313198	-0.088678
C59	C	1.718896	-0.730649	-0.588660
C60	C	2.218896	-0.230649	-0.088660
C61	C	1.659526	-0.700767	-0.647879
C62	C	2.159526	-0.200767	-0.147879
C63	C	1.600187	-0.753434	-0.707108
C64	C	2.100187	-0.253434	-0.207108
C65	C	1.540812	-0.723553	-0.766319
C66	C	2.040812	-0.223553	-0.266319
C67	C	1.481479	-0.776220	-0.825555
C68	C	1.981479	-0.276220	-0.325555
C69	C	1.481523	-0.858765	-0.825567
C70	C	1.981523	-0.358765	-0.325567
C71	C	1.659482	-0.618221	-0.647867
C72	C	2.159482	-0.118221	-0.147867
C73	C	1.540769	-0.641002	-0.766304
C74	C	2.040769	-0.141002	-0.266304
C75	C	1.877208	-0.271928	-0.742348
C76	C	2.377208	0.228072	-0.242348
C77	C	1.995279	-0.262048	-0.757381
C78	C	2.495279	0.237952	-0.257381
C79	C	1.635388	-0.318277	-0.984125
C80	C	2.135388	0.181723	-0.484125
C81	C	1.650411	-0.328147	-1.102188
C82	C	2.150411	0.171853	-0.602188
C83	C	1.600259	-0.088939	-0.707129
C84	C	2.100259	0.411061	-0.207129
C85	C	1.600311	-0.001080	-0.707153
C86	C	2.100311	0.498920	-0.207153
C87	C	1.592578	-0.289910	-1.146618
C88	C	2.092578	0.210090	-0.646618
C89	C	1.608104	-0.300111	-1.268642
C90	C	2.108104	0.199889	-0.768642
C91	C	1.565080	-0.271979	-0.431105
C92	C	2.065080	0.228021	0.068895
C93	C	1.550263	-0.261869	-0.313069
C94	C	2.050263	0.238131	0.186931
H95	H	0.987318	-0.340433	-0.638270
H96	H	1.487318	0.159567	-0.138270
C97	C	1.732739	-0.382652	-1.172827
C98	C	2.232739	0.117348	-0.672827
N99	N	1.794719	-0.423733	-1.226026
N100	N	2.294719	0.076267	-0.726026
H101	H	1.214032	-0.249729	-0.776019
H102	H	1.714032	0.250271	-0.276019
C103	C	1.065984	-0.207691	-0.839957
C104	C	1.565984	0.292309	-0.339957
N105	N	1.119239	-0.166751	-0.902155
N106	N	1.619239	0.333249	-0.402155
H107	H	1.153727	-0.368343	-0.595806
H108	H	1.653727	0.131657	-0.095806
H109	H	1.767209	-0.687773	-0.540429
H110	H	2.267209	-0.187773	-0.040429
H111	H	1.707978	-0.972745	-0.599712
H112	H	2.207978	-0.472745	-0.099712
C113	C	1.690436	-0.354619	-1.339277
C114	C	2.190436	0.145381	-0.839277
N115	N	1.752415	-0.395699	-1.392477
N116	N	2.252415	0.104301	-0.892477
H117	H	1.492423	-0.616679	-0.814526
H118	H	1.992423	-0.116679	-0.314526
C119	C	1.416167	-0.743339	-0.890685
C120	C	1.916167	-0.243339	-0.390685
N121	N	1.366976	-0.718570	-0.939740
N122	N	1.866976	-0.218570	-0.439740
C123	C	1.416248	-0.916703	-0.890707
C124	C	1.916248	-0.416703	-0.390707
N125	N	1.367078	-0.960345	-0.939764
N126	N	1.867078	-0.460345	-0.439764
H127	H	1.492631	-1.014083	-0.814596
H128	H	1.992631	-0.514083	-0.314596
H129	H	1.531567	-0.249626	-1.094317
H130	H	2.031567	0.250374	-0.594317
C131	C	1.467836	-0.207438	-1.242424
C132	C	1.967836	0.292562	-0.742424
N133	N	1.405754	-0.166441	-1.189213
N134	N	1.905754	0.333559	-0.689213
H135	H	1.767265	-0.837535	-0.540463
H136	H	2.267265	-0.337535	-0.040463
C137	C	1.724746	-0.560293	-0.582713
C138	C	2.224746	-0.060293	-0.082713
N139	N	1.773910	-0.516661	-0.533639
N140	N	2.273910	-0.016661	-0.033639
