data_functionalizedCrystal
_audit_creation_method	'MofGen! by Chris Wilmer'
_symmetry_space_group_name_H-M	'P1'
_symmetry_Int_Tables_number	1
_symmetry_cell_setting	triclinic
loop_
_symmetry_equiv_pos_as_xyz
  x,y,z
_cell_length_a	16.992694
_cell_length_b	11.792241
_cell_length_c	16.053802
_cell_angle_alpha	92.583059
_cell_angle_beta	87.249047
_cell_angle_gamma	87.430819
loop_
_atom_site_label
_atom_site_type_symbol
_atom_site_fract_x
_atom_site_fract_y
_atom_site_fract_z
O1	O	1.044699	0.236280	-0.069325
O2	O	0.816403	0.233637	-0.069350
O3	O	0.936091	0.070242	-0.069331
O4	O	0.925011	0.399675	-0.069344
O5	O	0.929503	0.079196	0.069527
O6	O	0.809815	0.242591	0.069508
O7	O	1.038111	0.245234	0.069533
Zn8	Zn	0.922917	0.245334	0.091567
Zn9	Zn	0.931597	0.233537	-0.091384
O10	O	0.918423	0.408630	0.069514
C11	C	0.783882	0.234716	0.000076
C12	C	0.696796	0.224578	0.000067
C13	C	0.646971	0.322395	0.000064
C14	C	0.565143	0.312864	0.000076
C15	C	0.533142	0.205513	0.000085
C16	C	0.582973	0.107688	0.000091
C17	C	0.664799	0.117221	0.000085
C18	C	0.289375	0.166002	0.000109
C19	C	0.207543	0.156476	0.000112
C20	C	0.189719	0.361652	0.000099
C21	C	0.271548	0.371176	0.000088
C22	C	0.321371	0.273351	0.000098
N23	N	0.449501	0.195767	0.000094
N24	N	0.405010	0.283098	0.000095
C25	C	0.932101	0.032371	0.000098
C26	C	0.930018	-0.093813	0.000097
C27	C	0.926188	-0.324840	0.000082
C28	C	0.928316	-0.196280	0.000090
C29	C	1.070632	0.244155	0.000105
C30	C	1.157719	0.254293	0.000109
C31	C	0.922413	0.446500	0.000084
C32	C	0.924497	0.572684	0.000079
N33	N	0.916999	0.253386	0.216427
N34	N	0.937521	0.225477	-0.216243
C35	C	0.967945	0.183889	0.260129
C36	C	0.963812	0.189532	0.347535
C37	C	0.908737	0.264679	0.391237
C38	C	0.857785	0.334179	0.347529
C39	C	0.861915	0.328529	0.260125
C40	C	0.890699	0.289327	0.652644
C41	C	0.886575	0.294974	0.740055
C42	C	0.992602	0.150325	0.740054
C43	C	0.996729	0.144687	0.652648
C44	C	0.945775	0.214182	0.608948
N45	N	0.904513	0.270452	0.480580
N46	N	0.949996	0.208403	0.519606
H47	H	0.556910	0.020281	0.000110
H48	H	1.041576	0.083496	0.617067
H49	H	0.849212	0.345915	0.617070
C50	C	0.344171	0.058392	0.000108
C51	C	0.336856	-0.022907	0.072212
C52	C	0.391654	-0.130524	0.072209
C53	C	0.453768	-0.156841	0.000100
C54	C	0.461086	-0.075539	-0.072009
C55	C	0.406288	0.032078	-0.072006
H56	H	0.290873	-0.003427	0.125596
H57	H	0.386237	-0.190708	0.125590
H58	H	0.494333	-0.236505	0.000098
H59	H	0.507069	-0.095019	-0.125393
H60	H	0.411705	0.092262	-0.125387
C61	C	1.048643	0.073874	0.788125
C62	C	1.044106	0.080077	0.884266
C63	C	1.100148	0.003618	0.932336
C64	C	1.160727	-0.079043	0.884263
C65	C	1.165267	-0.085249	0.788117
C66	C	1.109225	-0.008790	0.740047
H67	H	0.999259	0.141270	0.919857
H68	H	1.096787	0.008212	1.003510
H69	H	1.202213	-0.135642	0.919847
H70	H	1.210113	-0.146442	0.752526
H71	H	1.112586	-0.013384	0.668873
C72	C	0.825985	0.377639	0.788126
C73	C	0.769938	0.454077	0.740054
C74	C	0.709352	0.536740	0.788124
C75	C	0.704812	0.542964	0.884266
C76	C	0.760861	0.466523	0.932343
C77	C	0.821447	0.383861	0.884273
H78	H	0.773296	0.449472	0.668880
H79	H	0.667861	0.593326	0.752534
H80	H	0.659963	0.604156	0.919850
H81	H	0.757502	0.471129	1.003517
H82	H	0.862938	0.327274	0.919863
H83	H	0.812938	0.395361	0.383117
H84	H	0.820428	0.385119	0.224543
H85	H	0.181491	0.069053	0.000119
H86	H	0.705366	0.037567	0.000087
C87	C	0.134912	0.469254	0.000097
C88	C	0.079614	0.486269	-0.072002
C89	C	0.024806	0.593876	-0.072000
C90	C	0.025296	0.684468	0.000101
C91	C	0.080596	0.667455	0.072207
C92	C	0.135404	0.559849	0.072204
H93	H	0.079250	0.419204	-0.125381
H94	H	-0.016130	0.606469	-0.125378
H95	H	-0.015276	0.764125	0.000103
H96	H	0.080960	0.734520	0.125585
H97	H	0.176340	0.547256	0.125582
H98	H	1.012796	0.122701	0.224552
H99	H	0.673020	0.409812	0.000056
H100	H	0.524579	0.392517	0.000072
H101	H	0.297597	0.458591	0.000071
H102	H	1.005296	0.132942	0.383116
