data_functionalizedCrystal
_audit_creation_method	'MofGen! by Chris Wilmer'
_symmetry_space_group_name_H-M	'P1'
_symmetry_Int_Tables_number	1
_symmetry_cell_setting	triclinic
loop_
_symmetry_equiv_pos_as_xyz
  x,y,z
_cell_length_a	15.021413
_cell_length_b	10.654550
_cell_length_c	10.654550
_cell_angle_alpha	84.484931
_cell_angle_beta	90.004207
_cell_angle_gamma	89.995854
loop_
_atom_site_label
_atom_site_type_symbol
_atom_site_fract_x
_atom_site_fract_y
_atom_site_fract_z
O1	O	0.073965	-1.667848	-0.176382
O2	O	0.073982	-1.302370	-0.193188
O3	O	0.073968	-1.493512	-0.002046
O4	O	0.073979	-1.476706	-0.367525
O5	O	-0.074097	-1.493481	-0.002073
O6	O	-0.074083	-1.302339	-0.193216
O7	O	-0.074099	-1.667818	-0.176410
Zn8	Zn	-0.097599	-1.485074	-0.184817
Zn9	Zn	0.097482	-1.485114	-0.184781
O10	O	-0.074085	-1.476675	-0.367552
C11	C	-0.000048	-1.255556	-0.191968
C12	C	-0.000042	-1.116113	-0.188276
N13	N	-0.230737	-1.485055	-0.184841
C14	C	-0.000064	-1.492263	0.044738
C15	C	-0.000063	-1.488571	0.184181
C16	C	-0.470413	-1.396657	-0.273183
C17	C	-0.529752	-1.510355	-0.298547
C18	C	-0.412344	-1.485087	-0.184810
C19	C	-0.529747	-1.371421	-0.159474
C20	C	-0.587768	-1.485108	-0.184782
C21	C	-0.470376	-1.598842	-0.210231
C22	C	-0.470365	-1.459834	-0.071107
C23	C	-0.529677	-1.573613	-0.096424
C24	C	-0.311286	-1.485074	-0.184829
C25	C	-0.688823	-1.485134	-0.184763
N26	N	0.230620	-1.485142	-0.184747
C27	C	-0.000067	-1.714631	-0.177630
C28	C	-0.000067	-1.854074	-0.181322
C29	C	-0.000041	-1.036628	-0.300818
C30	C	-0.000057	-0.905607	-0.297341
C31	C	-0.000071	-0.933570	-0.068772
C32	C	-0.000062	-1.064588	-0.072250
C33	C	-0.000051	-1.477925	-0.414336
C34	C	-0.000047	-1.481616	-0.553779
C35	C	-0.000067	-1.601112	0.263667
C36	C	-0.000056	-1.597636	0.394688
C37	C	-0.000040	-1.369066	0.366725
C38	C	-0.000044	-1.372544	0.235706
H39	H	-0.444392	-1.321951	-0.347979
H40	H	-0.000080	-1.695588	0.221720
H41	H	-0.000026	-1.274601	0.408693
H42	H	-0.000038	-1.280893	0.170985
H43	H	-0.000032	-1.078574	-0.395294
H44	H	-0.555837	-1.531733	-0.394691
H45	H	-0.444406	-1.694999	-0.231763
H46	H	-0.444259	-1.438420	0.025006
O47	O	-0.560493	-1.663094	-0.007383
C48	C	-0.530058	-1.782714	-0.034542
H49	H	-0.513501	-1.780033	-0.139181
H50	H	-0.467863	-1.808916	0.023484
C51	C	-0.623529	-1.884902	0.127279
C52	C	-0.603201	-1.881612	-0.001244
H53	H	-0.668644	-1.945908	0.147823
H54	H	-0.644031	-1.804311	0.145580
H55	H	-0.571694	-1.906733	0.175618
H56	H	-0.655033	-1.859766	-0.049581
H57	H	-0.582709	-1.962201	-0.019553
H58	H	-0.555828	-1.275287	-0.138057
H59	H	-0.000092	-0.891602	0.025693
H60	H	-0.000058	-0.840894	-0.388984
H61	H	-0.000058	-1.689279	0.459401
H62	H	-0.000065	-1.129309	0.019401
