data_functionalizedCrystal
_audit_creation_method	'MofGen! by Chris Wilmer'
_symmetry_space_group_name_H-M	'P1'
_symmetry_Int_Tables_number	1
_symmetry_cell_setting	triclinic
loop_
_symmetry_equiv_pos_as_xyz
  x,y,z
_cell_length_a	13.032831
_cell_length_b	21.295417
_cell_length_c	13.033109
_cell_angle_alpha	97.148977
_cell_angle_beta	76.665514
_cell_angle_gamma	82.834379
loop_
_atom_site_label
_atom_site_type_symbol
_atom_site_fract_x
_atom_site_fract_y
_atom_site_fract_z
Zn1	Zn	1.699936	-0.442513	-0.806304
Zn2	Zn	2.199936	0.057487	-0.306304
Zn3	Zn	1.677232	-0.532462	-0.628666
Zn4	Zn	2.177232	-0.032462	-0.128666
Zn5	Zn	1.499773	-0.411896	-0.606204
Zn6	Zn	1.999773	0.088104	-0.106204
Zn7	Zn	1.522247	-0.532406	-0.783710
Zn8	Zn	2.022247	-0.032406	-0.283710
O9	O	1.599797	-0.479819	-0.706221
O10	O	2.099797	0.020181	-0.206221
O11	O	1.845556	-0.467281	-0.801596
O12	O	2.345556	0.032719	-0.301596
O13	O	1.634785	-0.503679	-0.477057
O14	O	2.134785	-0.003679	0.022943
O15	O	1.526421	-0.327880	-0.632804
O16	O	2.026421	0.172120	-0.132804
O17	O	1.828875	-0.533366	-0.671086
O18	O	2.328875	-0.033366	-0.171086
O19	O	1.673480	-0.350374	-0.779816
O20	O	2.173480	0.149626	-0.279816
O21	O	1.504406	-0.415100	-0.460555
O22	O	2.004406	0.084900	0.039445
O23	O	1.354123	-0.415046	-0.610895
O24	O	1.854123	0.084954	-0.110895
O25	O	1.564725	-0.533272	-0.935336
O26	O	2.064725	-0.033272	-0.435336
O27	O	1.370635	-0.503584	-0.741307
O28	O	1.870635	-0.003584	-0.241307
O29	O	1.695273	-0.467227	-0.951935
O30	O	2.195273	0.032773	-0.451935
O31	O	1.656577	-0.620532	-0.649177
O32	O	2.156577	-0.120532	-0.149177
O33	O	1.542710	-0.620491	-0.763087
O34	O	2.042710	-0.120491	-0.263087
C35	C	1.323841	-0.455987	-0.671213
C36	C	1.823841	0.044013	-0.171213
C37	C	1.205789	-0.445809	-0.656261
C38	C	1.705789	0.054191	-0.156261
C39	C	1.161342	-0.485131	-0.714024
C40	C	1.661342	0.014869	-0.214024
C41	C	1.039329	-0.474613	-0.698572
C42	C	1.539329	0.025387	-0.198572
C43	C	1.599650	-0.643354	-0.706144
C44	C	2.099650	-0.143354	-0.206144
C45	C	1.599689	-0.713326	-0.706159
C46	C	2.099689	-0.213326	-0.206159
C47	C	1.659049	-0.746204	-0.646924
C48	C	2.159049	-0.246204	-0.146924
C49	C	1.659102	-0.811953	-0.646954
C50	C	2.159102	-0.311953	-0.146954
C51	C	1.599775	-0.844819	-0.706206
C52	C	2.099775	-0.344819	-0.206206
C53	C	1.540412	-0.811933	-0.765455
C54	C	2.040412	-0.311933	-0.265455
C55	C	1.540369	-0.746187	-0.765431
C56	C	2.040369	-0.246187	-0.265431
N57	N	1.507889	-0.940762	-0.702516
N58	N	2.007889	-0.440762	-0.202516
N59	N	1.507932	-1.003218	-0.702532
N60	N	2.007932	-0.503218	-0.202532
C61	C	1.599901	-1.042909	-0.706282
C62	C	2.099901	-0.542909	-0.206282
N63	N	1.691826	-1.017783	-0.709995
N64	N	2.191826	-0.517783	-0.209995
N65	N	1.691782	-0.955320	-0.709973
N66	N	2.191782	-0.455320	-0.209973
C67	C	1.599815	-0.916110	-0.706239
C68	C	2.099815	-0.416110	-0.206239
C69	C	1.659324	-1.147080	-0.647076
C70	C	2.159324	-0.647080	-0.147076
C71	C	1.659379	-1.212830	-0.647114
C72	C	2.159379	-0.712830	-0.147114
C73	C	1.540679	-1.212808	-0.765608
C74	C	2.040679	-0.712808	-0.265608
C75	C	1.540634	-1.147060	-0.765577
C76	C	2.040634	-0.647060	-0.265577
C77	C	1.599954	-1.114199	-0.706305
C78	C	2.099954	-0.614199	-0.206305
C79	C	1.876831	-0.503745	-0.741366
C80	C	2.376831	-0.003745	-0.241366
C81	C	1.994887	-0.513941	-0.756343
C82	C	2.494887	-0.013941	-0.256343
C83	C	1.635039	-0.503658	-0.983251
C84	C	2.135039	-0.003658	-0.483251
C85	C	1.650057	-0.513817	-1.101304
C86	C	2.150057	-0.013817	-0.601304
C87	C	1.599976	-0.315651	-0.706324
C88	C	2.099976	0.184349	-0.206324
C89	C	1.600053	-0.245692	-0.706369
C90	C	2.100053	0.254308	-0.206369
C91	C	1.592243	-0.474519	-1.145772
C92	C	2.092243	0.025481	-0.645772
C93	C	1.607763	-0.485018	-1.267786
C94	C	2.107763	0.014982	-0.767786
C95	C	1.564754	-0.456033	-0.430276
C96	C	2.064754	0.043967	0.069724
C97	C	1.549942	-0.445714	-0.312249
C98	C	2.049942	0.054286	0.187751
H99	H	1.153512	-0.404355	-0.595373
H100	H	1.653512	0.095645	-0.095373
Cl101	Cl	1.242046	-0.549136	-0.808036
Cl102	Cl	1.742046	-0.049136	-0.308036
Cl103	Cl	1.465835	-0.853250	-0.839949
Cl104	Cl	1.965835	-0.353250	-0.339949
Cl105	Cl	1.465738	-0.704852	-0.839904
Cl106	Cl	1.965738	-0.204852	-0.339904
H107	H	1.047160	-0.555393	-0.817247
H108	H	1.547160	-0.055393	-0.317247
Cl109	Cl	1.733640	-0.704899	-0.572428
Cl110	Cl	2.233640	-0.204899	-0.072428
Cl111	Cl	1.455749	-0.381778	-1.231574
Cl112	Cl	1.955749	0.118222	-0.731574
Cl113	Cl	1.701923	-0.548971	-1.348460
Cl114	Cl	2.201923	-0.048971	-0.848460
H115	H	1.707724	-1.239600	-0.598880
H116	H	2.207724	-0.739600	-0.098880
Cl117	Cl	0.958630	-0.410605	-0.604557
Cl118	Cl	1.458630	0.089395	-0.104557
Cl119	Cl	1.733729	-0.853294	-0.572478
Cl120	Cl	2.233729	-0.353294	-0.072478
Cl121	Cl	1.733895	-1.105766	-0.572564
Cl122	Cl	2.233895	-0.605766	-0.072564
Cl123	Cl	1.744212	-0.577767	-1.181982
Cl124	Cl	2.244212	-0.077767	-0.681982
H125	H	1.492379	-1.239567	-0.813858
H126	H	1.992379	-0.739567	-0.313858
H127	H	1.492292	-1.120288	-0.813807
H128	H	1.992292	-0.620288	-0.313807
Cl129	Cl	1.498096	-0.410565	-1.065095
Cl130	Cl	1.998096	0.089435	-0.565095
