data_functionalizedCrystal
_audit_creation_method	'MofGen! by Chris Wilmer'
_symmetry_space_group_name_H-M	'P1'
_symmetry_Int_Tables_number	1
_symmetry_cell_setting	triclinic
loop_
_symmetry_equiv_pos_as_xyz
  x,y,z
_cell_length_a	6.817900
_cell_length_b	16.417825
_cell_length_c	16.418042
_cell_angle_alpha	95.405182
_cell_angle_beta	103.389568
_cell_angle_gamma	103.385495
loop_
_atom_site_label
_atom_site_type_symbol
_atom_site_fract_x
_atom_site_fract_y
_atom_site_fract_z
V1	V	-4.025074	-0.116567	-0.261449
O2	O	-4.013115	0.004901	-0.256170
O3	O	-3.976127	-0.230459	-0.259951
O4	O	-3.976155	-0.115081	-0.375343
O5	O	-4.013086	-0.111275	-0.139979
V6	V	-4.508841	-0.102002	-0.246885
O7	O	-4.285799	-0.148517	-0.293396
O8	O	-4.698313	-0.070051	-0.214937
O9	O	-4.334581	0.011890	-0.248382
O10	O	-4.638197	-0.223470	-0.252164
O11	O	-4.638225	-0.107293	-0.368355
O12	O	-4.334553	-0.103487	-0.132990
C13	C	-3.821011	-0.258214	-0.255902
C14	C	-3.862274	-0.351324	-0.255436
C15	C	-3.917414	-0.553385	-0.177648
C16	C	-3.956208	-0.640873	-0.177217
C17	C	-4.035881	-0.665184	-0.330695
C18	C	-3.997102	-0.577697	-0.331125
C19	C	-3.937858	-0.521800	-0.254599
C20	C	-4.015430	-0.696774	-0.253738
C21	C	-4.057492	-0.791633	-0.253272
C22	C	-3.895797	-0.426935	-0.255065
C23	C	-3.821046	-0.111037	-0.403095
C24	C	-3.862329	-0.110576	-0.496206
C25	C	-4.139337	-0.113692	-0.714700
C26	C	-4.178107	-0.113251	-0.802186
C27	C	-3.813934	-0.104873	-0.793622
C28	C	-3.775163	-0.105307	-0.706136
C29	C	-3.937874	-0.109721	-0.666678
C30	C	-4.015415	-0.108846	-0.841650
C31	C	-4.057451	-0.108368	-0.936507
C32	C	-3.895836	-0.110197	-0.571815
C33	C	-4.153039	0.039641	-0.252430
C34	C	-4.091014	0.132750	-0.252900
C35	C	-4.153004	-0.107534	-0.105235
C36	C	-4.090960	-0.107991	-0.012123
H37	H	-4.084117	-0.710706	-0.393000
C38	C	-3.852256	-0.491895	-0.093473
C39	C	-3.988079	-0.432474	-0.076658
C40	C	-3.922922	-0.370985	0.007518
C41	C	-3.721943	-0.368917	0.074879
C42	C	-3.586108	-0.428340	0.058067
C43	C	-3.651265	-0.489829	-0.026110
H44	H	-4.136866	-0.434003	-0.126525
H45	H	-4.023477	-0.326996	0.019964
H46	H	-3.673710	-0.323399	0.137192
H47	H	-3.437321	-0.426811	0.107933
H48	H	-3.550710	-0.533818	-0.038556
H49	H	-3.939560	-0.666585	-0.114556
H50	H	-3.681468	-0.101281	-0.825760
H51	H	-4.013763	-0.551982	-0.393792
H52	H	-4.271828	-0.117284	-0.682575
H53	H	-4.342155	-0.116483	-0.841281
H54	H	-3.611097	-0.102067	-0.667035
