data_functionalizedCrystal
_audit_creation_method	'MofGen! by Chris Wilmer'
_symmetry_space_group_name_H-M	'P1'
_symmetry_Int_Tables_number	1
_symmetry_cell_setting	triclinic
loop_
_symmetry_equiv_pos_as_xyz
  x,y,z
_cell_length_a	11.026607
_cell_length_b	10.967829
_cell_length_c	16.776229
_cell_angle_alpha	77.865496
_cell_angle_beta	89.994019
_cell_angle_gamma	96.380563
loop_
_atom_site_label
_atom_site_type_symbol
_atom_site_fract_x
_atom_site_fract_y
_atom_site_fract_z
O1	O	1.614538	0.523523	-0.138202
O2	O	1.260734	0.463910	-0.130014
O3	O	1.445793	0.313898	-0.109404
O4	O	1.429479	0.673536	-0.158812
O5	O	1.445768	0.313880	0.023175
O6	O	1.260709	0.463893	0.002565
O7	O	1.614513	0.523506	-0.005623
Zn8	Zn	1.437607	0.493697	0.019521
Zn9	Zn	1.437640	0.493720	-0.155157
O10	O	1.429454	0.673519	-0.026233
C11	C	1.215419	0.452904	-0.062214
C12	C	1.080431	0.420120	-0.057711
C13	C	1.444592	0.267132	-0.036692
C14	C	1.441035	0.127807	-0.017556
C15	C	1.007381	0.510642	-0.070148
C16	C	0.867864	0.476761	-0.065494
C17	C	1.439462	0.065706	-0.077706
C18	C	1.435785	-0.078293	-0.057929
C19	C	1.659828	0.534512	-0.073424
C20	C	1.794816	0.567296	-0.077933
C21	C	1.430656	0.720285	-0.098946
C22	C	1.434213	0.859610	-0.118087
N23	N	1.437594	0.493682	0.138734
N24	N	1.437663	0.493726	-0.274370
C25	C	1.519563	0.427297	0.189572
C26	C	1.519570	0.427298	0.273024
C27	C	1.437612	0.493691	0.305636
C28	C	1.355634	0.560079	0.254792
C29	C	1.355622	0.560070	0.171342
C30	C	1.355678	0.560113	0.591334
C31	C	1.355698	0.560120	0.674790
C32	C	1.519626	0.427341	0.693016
C33	C	1.519614	0.427332	0.609567
C34	C	1.437632	0.493714	0.558731
C35	C	1.437624	0.493710	0.468243
C36	C	1.437625	0.493703	0.396121
H37	H	1.048129	0.613225	-0.084236
H38	H	1.439652	0.074365	0.048581
F39	F	1.027178	0.286033	-0.039284
F40	F	0.814616	0.342667	-0.047067
H41	H	1.440831	0.119147	-0.143842
H42	H	1.434403	-0.131730	0.008212
H43	H	1.586308	0.373238	0.163025
F44	F	1.435971	-0.070557	-0.204540
F45	F	1.606809	0.356642	0.327130
F46	F	1.606848	0.356673	0.574862
F47	F	1.606876	0.356686	0.747126
H48	H	1.288928	0.614166	0.549950
F49	F	1.268462	0.630787	0.709495
F50	F	1.268375	0.630722	0.117238
F51	F	0.848061	0.701391	-0.096345
F52	F	1.268401	0.630734	0.289501
