data_functionalizedCrystal
_audit_creation_method	'MofGen! by Chris Wilmer'
_symmetry_space_group_name_H-M	'P1'
_symmetry_Int_Tables_number	1
_symmetry_cell_setting	triclinic
loop_
_symmetry_equiv_pos_as_xyz
  x,y,z
_cell_length_a	17.640280
_cell_length_b	12.759401
_cell_length_c	12.759393
_cell_angle_alpha	90.020938
_cell_angle_beta	78.768965
_cell_angle_gamma	101.197849
loop_
_atom_site_label
_atom_site_type_symbol
_atom_site_fract_x
_atom_site_fract_y
_atom_site_fract_z
Zn1	Zn	-0.314597	-1.690818	-0.509562
Zn2	Zn	0.185403	-1.190818	-0.009562
Zn3	Zn	-0.446790	-1.726238	-0.298393
Zn4	Zn	0.053210	-1.226238	0.201607
Zn5	Zn	-0.314639	-1.515128	-0.333886
Zn6	Zn	0.185361	-1.015128	0.166114
Zn7	Zn	-0.446735	-1.550623	-0.474045
Zn8	Zn	0.053265	-1.050623	0.025955
O9	O	-0.380691	-1.620702	-0.403971
O10	O	0.119309	-1.120702	0.096029
O11	O	-0.332138	-1.842539	-0.481560
O12	O	0.167862	-1.342539	0.018440
O13	O	-0.429301	-1.698203	-0.156069
O14	O	0.070699	-1.198203	0.343931
O15	O	-0.204028	-1.508756	-0.386908
O16	O	0.295972	-1.008756	0.113092
O17	O	-0.429260	-1.868562	-0.326415
O18	O	0.070740	-1.368562	0.173585
O19	O	-0.203997	-1.637835	-0.515976
O20	O	0.296003	-1.137835	-0.015976
O21	O	-0.332210	-1.543101	-0.182146
O22	O	0.167790	-1.043101	0.317854
O23	O	-0.332157	-1.372814	-0.352468
O24	O	0.167843	-0.872814	0.147532
O25	O	-0.429166	-1.569251	-0.625788
O26	O	0.070834	-1.069251	-0.125788
O27	O	-0.429207	-1.398892	-0.455443
O28	O	0.070793	-0.898892	0.044557
O29	O	-0.332085	-1.672252	-0.651883
O30	O	0.167915	-1.172252	-0.151883
O31	O	-0.557389	-1.732620	-0.291976
O32	O	-0.057389	-1.232620	0.208024
O33	O	-0.557349	-1.603596	-0.421027
O34	O	-0.057349	-1.103596	0.078973
C35	C	-0.380681	-1.347732	-0.403953
C36	C	0.119319	-0.847732	0.096047
C37	C	-0.380696	-1.230959	-0.403965
C38	C	0.119304	-0.730959	0.096035
C39	C	-0.586048	-1.675832	-0.348819
C40	C	-0.086048	-1.175832	0.151181
C41	C	-0.673900	-1.699513	-0.325259
C42	C	-0.173900	-1.199513	0.174741
C43	C	-0.380615	-1.620760	-0.678025
C44	C	0.119385	-1.120760	-0.178025
C45	C	-0.380582	-1.620785	-0.794811
C46	C	0.119418	-1.120785	-0.294811
C47	C	-0.962869	-1.441231	-0.583333
C48	C	-0.462869	-0.941231	-0.083333
C49	C	-1.045420	-1.463485	-0.561162
C50	C	-0.545420	-0.963485	-0.061162
C51	C	-1.045396	-1.597921	-0.426917
C52	C	-0.545396	-1.097921	0.073083
C53	C	-0.962844	-1.575682	-0.449081
C54	C	-0.462844	-1.075682	0.050919
C55	C	-0.921586	-1.497335	-0.527289
C56	C	-0.421586	-0.997335	-0.027289
C57	C	-0.921561	-1.631786	-0.393036
C58	C	-0.421561	-1.131786	0.106964
C59	C	-0.839016	-1.609545	-0.415195
C60	C	-0.339016	-1.109545	0.084805
C61	C	-0.797753	-1.531199	-0.493397
C62	C	-0.297753	-1.031199	0.006603
C63	C	-0.839041	-1.475094	-0.549447
C64	C	-0.339041	-0.975094	-0.049447
C65	C	-0.962820	-1.710127	-0.314823
C66	C	-0.462820	-1.210127	0.185177
C67	C	-0.921538	-1.766231	-0.258779
C68	C	-0.421538	-1.266231	0.241221
C69	C	-0.838991	-1.743996	-0.280942
C70	C	-0.338991	-1.243996	0.219058
C71	C	-0.797728	-1.665650	-0.359145
C72	C	-0.297728	-1.165650	0.140855
C73	C	-0.797703	-1.800101	-0.224892
C74	C	-0.297703	-1.300101	0.275108
C75	C	-0.715158	-1.777860	-0.247051
C76	C	-0.215158	-1.277860	0.252949
C77	C	-0.715183	-1.643409	-0.381303
C78	C	-0.215183	-1.143409	0.118697
C79	C	-0.174531	-1.565385	-0.459363
C80	C	0.325469	-1.065385	0.040637
C81	C	-0.086679	-1.541813	-0.482967
C82	C	0.413321	-1.041813	0.017033
C83	C	-0.380701	-1.894738	-0.403990
C84	C	0.119299	-1.394738	0.096010
C85	C	-0.380705	-2.011516	-0.403998
C86	C	0.119295	-1.511516	0.096002
C87	C	-0.431307	-1.189724	-0.457458
C88	C	0.068693	-0.689724	0.042542
C89	C	-0.431310	-1.080001	-0.457478
C90	C	0.068690	-0.580001	0.042522
C91	C	-0.330089	-1.052757	-0.350505
C92	C	0.169911	-0.552757	0.149495
C93	C	-0.330082	-1.162477	-0.350491
C94	C	0.169918	-0.662477	0.149509
C95	C	-0.330024	-1.674420	-0.863264
C96	C	0.169976	-1.174420	-0.363264
C97	C	-0.329990	-1.674429	-0.972997
C98	C	0.170010	-1.174429	-0.472997
C99	C	-0.431079	-1.567166	-0.945813
C100	C	0.068921	-1.067166	-0.445813
C101	C	-0.431109	-1.567151	-0.836083
C102	C	0.068891	-1.067151	-0.336083
C103	C	-0.380709	-1.620689	-0.130999
C104	C	0.119291	-1.120689	0.369001
C105	C	-0.380519	-1.620808	-0.014274
C106	C	0.119481	-1.120808	0.485726
H107	H	-0.681589	-1.579618	-0.444996
H108	H	-0.181589	-1.079618	0.055004
H109	H	-1.030034	-1.728236	-0.296788
H110	H	-0.530034	-1.228236	0.203212
Cl111	Cl	-0.849579	-1.898583	-0.126571
Cl112	Cl	-0.349579	-1.398583	0.373429
H113	H	-1.079029	-1.417805	-0.606818
H114	H	-0.579029	-0.917805	-0.106818
H115	H	-0.288882	-0.996987	-0.306966
H116	H	0.211118	-0.496987	0.193034
H117	H	-0.472218	-1.523502	-0.979430
H118	H	0.027782	-1.023502	-0.479430
Cl119	Cl	-0.266446	-1.214318	-0.283246
Cl120	Cl	0.233554	-0.714318	0.216754
Cl121	Cl	-0.494669	-1.499711	-0.750022
Cl122	Cl	0.005331	-0.999711	-0.250022
Cl123	Cl	-0.663256	-1.848381	-0.176585
Cl124	Cl	-0.163256	-1.348381	0.323415
H125	H	-0.730539	-1.513085	-0.511429
H126	H	-0.230539	-1.013085	-0.011429
H127	H	-0.805448	-1.411304	-0.613140
H128	H	-0.305448	-0.911304	-0.113140
H129	H	-1.078999	-1.661708	-0.363237
H130	H	-0.578999	-1.161708	0.136763
Cl131	Cl	-0.266502	-1.741840	-0.811384
Cl132	Cl	0.233498	-1.241840	-0.311384
Cl133	Cl	-0.973412	-1.864724	-0.160467
Cl134	Cl	-0.473412	-1.364724	0.339533
H135	H	-0.472518	-1.245479	-0.501003
H136	H	0.027482	-0.745479	-0.001003
Cl137	Cl	-0.494937	-1.028167	-0.524731
Cl138	Cl	0.005063	-0.528167	-0.024731
Cl139	Cl	-0.266435	-1.741871	-1.059047
Cl140	Cl	0.233565	-1.241871	-0.559047
H141	H	-0.929275	-1.377441	-0.647026
H142	H	-0.429275	-0.877441	-0.147026
