data_functionalizedCrystal
_audit_creation_method	'MofGen! by Chris Wilmer'
_symmetry_space_group_name_H-M	'P1'
_symmetry_Int_Tables_number	1
_symmetry_cell_setting	triclinic
loop_
_symmetry_equiv_pos_as_xyz
  x,y,z
_cell_length_a	17.019370
_cell_length_b	17.038272
_cell_length_c	15.500237
_cell_angle_alpha	93.044094
_cell_angle_beta	96.697014
_cell_angle_gamma	92.756092
loop_
_atom_site_label
_atom_site_type_symbol
_atom_site_fract_x
_atom_site_fract_y
_atom_site_fract_z
O1	O	0.168467	-1.040220	-0.059290
O2	O	0.668467	-0.540220	0.440710
O3	O	0.165736	-0.812604	-0.059519
O4	O	0.665736	-0.312604	0.440481
O5	O	0.052291	-0.933195	-0.067948
O6	O	0.552291	-0.433195	0.432052
O7	O	0.281912	-0.919629	-0.050861
O8	O	0.781912	-0.419629	0.449139
O9	O	0.059147	-0.925876	0.076450
O10	O	0.559147	-0.425876	0.576450
O11	O	0.172592	-0.805285	0.084879
O12	O	0.672592	-0.305285	0.584879
O13	O	0.175323	-1.032902	0.085108
O14	O	0.675323	-0.532902	0.585108
Cu15	Cu	0.174584	-0.918425	0.098178
Cu16	Cu	0.674584	-0.418425	0.598178
Cu17	Cu	0.166476	-0.927080	-0.072589
Cu18	Cu	0.666476	-0.427080	0.427411
O19	O	0.288768	-0.912310	0.093537
O20	O	0.788768	-0.412310	0.593537
C21	C	0.166682	-0.779828	0.012492
C22	C	0.666682	-0.279828	0.512492
C23	C	0.159275	-0.693070	0.011931
C24	C	0.659275	-0.193070	0.511931
N25	N	0.180286	-0.912343	0.218287
N26	N	0.680286	-0.412343	0.718287
C27	C	0.026193	-0.929165	0.002052
C28	C	0.526193	-0.429165	0.502052
C29	C	-0.061784	-0.928053	-0.004501
C30	C	0.438216	-0.428053	0.495499
C31	C	-0.099386	-0.923539	0.071128
C32	C	0.400614	-0.423539	0.571128
C33	C	-0.182051	-0.922499	0.064963
C34	C	0.317949	-0.422499	0.564963
C35	C	-0.227111	-0.925967	-0.016832
C36	C	0.272889	-0.425967	0.483168
C37	C	-0.189504	-0.930484	-0.092466
C38	C	0.310496	-0.430484	0.407534
C39	C	-0.106841	-0.931529	-0.086301
C40	C	0.393159	-0.431529	0.413699
C41	C	-0.476887	-0.923015	-0.039386
C42	C	0.023113	-0.423015	0.460614
C43	C	-0.559555	-0.921967	-0.045546
C44	C	-0.059555	-0.421967	0.454454
C45	C	-0.552096	-0.913984	0.111884
C46	C	-0.052096	-0.413984	0.611884
C47	C	-0.469432	-0.915025	0.118042
C48	C	0.030568	-0.415025	0.618042
C49	C	-0.431832	-0.919545	0.042408
C50	C	0.068168	-0.419545	0.542408
C51	C	-0.311608	-0.924902	-0.023135
C52	C	0.188392	-0.424902	0.476865
C53	C	-0.347337	-0.920616	0.048712
C54	C	0.152663	-0.420616	0.548712
C55	C	0.314866	-0.916340	0.023536
C56	C	0.814866	-0.416340	0.523536
C57	C	0.402843	-0.917453	0.030083
C58	C	0.902843	-0.417453	0.530083
C59	C	0.174377	-1.065678	0.013095
C60	C	0.674377	-0.565678	0.513095
C61	C	0.181784	-1.152436	0.013651
C62	C	0.681784	-0.652436	0.513651
C63	C	0.227274	-0.642641	0.016992
C64	C	0.727274	-0.142641	0.516992
C65	C	0.220311	-0.561122	0.016486
C66	C	0.720311	-0.061122	0.516486
C67	C	0.145347	-0.530033	0.010912
C68	C	0.645347	-0.030033	0.510912
C69	C	0.077343	-0.580468	0.005854
C70	C	0.577343	-0.080468	0.505854
C71	C	0.084307	-0.661985	0.006366
C72	C	0.584307	-0.161985	0.506366
C73	C	0.120744	-0.284388	0.009105
C74	C	0.620744	0.215612	0.509105
C75	C	0.113784	-0.202865	0.008590
C76	C	0.613784	0.297135	0.508590
C77	C	0.256754	-0.183524	0.019224
C78	C	0.756754	0.316476	0.519224
C79	C	0.263711	-0.265044	0.019730
C80	C	0.763711	0.234956	0.519730
C81	C	0.195707	-0.315471	0.014676
C82	C	0.695707	0.184529	0.514676
C83	C	0.138228	-0.446708	0.010392
C84	C	0.638228	0.053292	0.510392
C85	C	0.202827	-0.398794	0.015203
C86	C	0.702827	0.101206	0.515203
C87	C	0.132236	-0.963459	0.259993
C88	C	0.632236	-0.463459	0.759993
C89	C	0.136556	-0.958867	0.350887
C90	C	0.636556	-0.458867	0.850887
C91	C	0.188932	-0.903162	0.400073
C92	C	0.688932	-0.403162	0.900073
C93	C	0.236984	-0.852040	0.358361
C94	C	0.736984	-0.352040	0.858361
C95	C	0.232659	-0.856630	0.267468
C96	C	0.732659	-0.356630	0.767468
C97	C	0.204499	-0.886630	0.674697
C98	C	0.704499	-0.386630	1.174697
C99	C	0.208822	-0.882046	0.765596
C100	C	0.708822	-0.382046	1.265596
C101	C	0.108393	-0.988872	0.758116
C102	C	0.608393	-0.488872	1.258116
C103	C	0.104076	-0.993460	0.667222
C104	C	0.604076	-0.493460	1.167222
C105	C	0.152125	-0.942335	0.625517
C106	C	0.652125	-0.442335	1.125517
C107	C	0.193351	-0.898468	0.492982
C108	C	0.693351	-0.398468	0.992982
C109	C	0.147701	-0.947026	0.532610
C110	C	0.647701	-0.447026	1.032610
N111	N	0.160772	-0.933162	0.807302
N112	N	0.660772	-0.433162	1.307302
H113	H	-0.062702	-0.920702	0.137734
H114	H	0.437298	-0.420702	0.637734
H115	H	0.312119	-0.142458	0.023340
H116	H	0.812119	0.357542	0.523340
C117	C	-0.675500	-0.908841	0.172338
C118	C	-0.175500	-0.408841	0.672338
C119	C	-0.593429	-0.909024	0.195018
C120	C	-0.093429	-0.409024	0.695018
H121	H	-0.701015	-0.905785	0.223665
H122	H	-0.201015	-0.405785	0.723665
H123	H	-0.687608	-0.864731	0.139210
H124	H	-0.187608	-0.364731	0.639210
H125	H	-0.693539	-0.955890	0.138769
H126	H	-0.193539	-0.455890	0.638769
H127	H	-0.575389	-0.861971	0.228582
H128	H	-0.075389	-0.361971	0.728582
H129	H	-0.581316	-0.953137	0.228160
H130	H	-0.081316	-0.453137	0.728160
H131	H	0.235998	-0.853113	0.533037
H132	H	0.735998	-0.353113	1.033037
H133	H	0.324754	-0.290350	0.024259
H134	H	0.824754	0.209650	0.524259
H135	H	-0.212663	-0.918827	0.126548
H136	H	0.287337	-0.418827	0.626548
H137	H	0.275684	-0.520066	0.020606
H138	H	0.775684	-0.020066	0.520606
C139	C	-0.026842	-0.230166	-0.001861
C140	C	0.473158	0.269834	0.498139
C141	C	0.031378	-0.168691	0.002465
C142	C	0.531378	0.331309	0.502465
H143	H	-0.077712	-0.209066	-0.005639
H144	H	0.422288	0.290934	0.494361
H145	H	-0.023548	-0.264106	-0.051789
H146	H	0.476452	0.235894	0.448211
H147	H	-0.018756	-0.259011	0.048922
H148	H	0.481244	0.240989	0.548922
H149	H	0.023296	-0.139850	-0.048321
H150	H	0.523296	0.360150	0.451679
H151	H	0.028081	-0.134738	0.052398
H152	H	0.528081	0.365262	0.552398
C153	C	0.036876	-1.064940	0.334366
C154	C	0.536876	-0.564940	0.834366
C155	C	0.083750	-1.015068	0.396732
C156	C	0.583750	-0.515068	0.896732
H157	H	0.004281	-1.099642	0.362670
H158	H	0.504281	-0.599642	0.862670
H159	H	0.004496	-1.034344	0.296645
H160	H	0.504496	-0.534344	0.796645
H161	H	0.070065	-1.094667	0.301496
H162	H	0.570065	-0.594667	0.801496
H163	H	0.050561	-0.985336	0.429597
H164	H	0.550561	-0.485336	0.929597
H165	H	0.116133	-1.045667	0.434468
H166	H	0.616133	-0.545667	0.934468
C167	C	0.301434	-0.759011	0.022487
C168	C	0.801434	-0.259011	0.522487
C169	C	0.309677	-0.676811	0.023112
C170	C	0.809677	-0.176811	0.523112
H171	H	0.352308	-0.780102	0.026261
H172	H	0.852308	-0.280102	0.526261
H173	H	0.275604	-0.773797	0.070739
H174	H	0.775604	-0.273797	0.570739
H175	H	0.270809	-0.778880	-0.029972
H176	H	0.770809	-0.278880	0.470028
H177	H	0.340297	-0.656940	0.075574
H178	H	0.840297	-0.156940	0.575574
H179	H	0.335519	-0.662018	-0.025144
H180	H	0.835519	-0.162018	0.474856
C181	C	-0.470369	-0.907079	0.273036
C182	C	0.029631	-0.407079	0.773036
C183	C	-0.419905	-0.911245	0.207954
C184	C	0.080095	-0.411245	0.707954
H185	H	-0.439792	-0.904756	0.328543
H186	H	0.060208	-0.404756	0.828543
H187	H	-0.499784	-0.861252	0.267595
H188	H	0.000216	-0.361252	0.767595
H189	H	-0.505746	-0.952412	0.267115
H190	H	-0.005746	-0.452412	0.767115
H191	H	-0.384532	-0.865909	0.213871
H192	H	0.115468	-0.365909	0.713871
H193	H	-0.390477	-0.957077	0.213398
H194	H	0.109523	-0.457077	0.713398
H195	H	0.271786	-0.815004	0.233512
H196	H	0.771786	-0.315004	0.733512
H197	H	0.065369	-0.325437	0.004990
H198	H	0.565369	0.174563	0.504990
C199	C	-0.031231	-1.041209	0.629783
C200	C	0.468769	-0.541209	1.129783
C201	C	0.046322	-1.054674	0.613378
C202	C	0.546322	-0.554674	1.113378
H203	H	-0.066936	-1.078995	0.596602
H204	H	0.433064	-0.578995	1.096602
H205	H	-0.035340	-1.045657	0.689935
H206	H	0.464660	-0.545657	1.189935
H207	H	-0.044017	-0.989844	0.613922
H208	H	0.455983	-0.489844	1.113922
H209	H	0.059110	-1.106037	0.629245
H210	H	0.559110	-0.606037	1.129245
H211	H	0.050434	-1.050232	0.553212
H212	H	0.550434	-0.550232	1.053212
C213	C	0.304209	-0.780584	0.691234
C214	C	0.804209	-0.280584	1.191234
C215	C	0.257321	-0.830441	0.628863
C216	C	0.757321	-0.330441	1.128863
H217	H	0.336824	-0.745898	0.662934
H218	H	0.836824	-0.245898	1.162934
H219	H	0.271035	-0.750846	0.724098
H220	H	0.771035	-0.250846	1.224098
H221	H	0.336576	-0.811199	0.728960
H222	H	0.836576	-0.311199	1.228960
H223	H	0.224949	-0.799826	0.591140
H224	H	0.724949	-0.299826	1.091140
H225	H	0.290498	-0.860181	0.595985
H226	H	0.790498	-0.360181	1.095985
H227	H	0.069272	-1.030494	0.792080
H228	H	0.569272	-0.530494	1.292080
C229	C	0.003185	-0.464098	0.000338
C230	C	0.503185	0.035902	0.500338
C231	C	-0.005060	-0.546298	-0.000274
C232	C	0.494940	-0.046298	0.499726
H233	H	-0.047690	-0.443007	-0.003453
H234	H	0.452310	0.056993	0.496547
H235	H	0.033800	-0.444224	0.052791
H236	H	0.533800	0.055776	0.552791
H237	H	0.029025	-0.449319	-0.047919
H238	H	0.529025	0.050681	0.452081
H239	H	-0.030895	-0.561077	0.047987
H240	H	0.469105	-0.061077	0.547987
H241	H	-0.035687	-0.566180	-0.052733
H242	H	0.464313	-0.066180	0.447267
H243	H	0.279626	-0.806680	0.398413
H244	H	0.779626	-0.306680	0.898413
H245	H	-0.348306	-0.927724	-0.089733
H246	H	0.151694	-0.427724	0.410267
C247	C	-0.558625	-0.929889	-0.200547
C248	C	-0.058625	-0.429889	0.299453
C249	C	-0.609085	-0.925724	-0.135461
C250	C	-0.109085	-0.425724	0.364539
H251	H	-0.589203	-0.932194	-0.256052
H252	H	-0.089203	-0.432194	0.243948
H253	H	-0.523237	-0.884573	-0.194615
H254	H	-0.023237	-0.384573	0.305385
H255	H	-0.529222	-0.975735	-0.195121
H256	H	-0.029222	-0.475735	0.304879
H257	H	-0.638483	-0.879875	-0.140883
H258	H	-0.138483	-0.379875	0.359117
H259	H	-0.644486	-0.971044	-0.141396
H260	H	-0.144486	-0.471044	0.358604
H261	H	-0.446283	-0.926695	-0.100973
H262	H	0.053717	-0.426695	0.399027
H263	H	0.251476	-0.836681	0.805640
H264	H	0.751476	-0.336681	1.305640
C265	C	0.290060	-0.482992	-0.052291
C266	C	0.790060	0.017008	0.447709
C267	C	0.285228	-0.432962	0.021323
C268	C	0.785228	0.067038	0.521323
H269	H	0.340933	-0.504086	-0.048517
H270	H	0.840933	-0.004086	0.451483
H271	H	0.250561	-0.524685	-0.055220
H272	H	0.750561	-0.024685	0.444780
H273	H	0.281975	-0.454129	-0.103060
H274	H	0.781975	0.045871	0.396940
H275	H	0.293306	-0.461827	0.072092
H276	H	0.793306	0.038173	0.572092
H277	H	0.324739	-0.391262	0.024261
H278	H	0.824739	0.108738	0.524261
H279	H	-0.226199	-0.933312	-0.159065
H280	H	0.273801	-0.433312	0.340935
H281	H	-0.076227	-0.935205	-0.147886
H282	H	0.423773	-0.435205	0.352114
H283	H	0.105054	-0.992379	0.492560
H284	H	0.605054	-0.492379	0.992560
C285	C	-0.245678	-0.849965	0.147269
C286	C	0.254322	-0.349965	0.647269
C287	C	-0.297806	-0.916798	0.138618
C288	C	0.202194	-0.416798	0.638618
H289	H	-0.215097	-0.847604	0.202776
H290	H	0.284903	-0.347604	0.702776
H291	H	-0.211463	-0.852813	0.103108
H292	H	0.288537	-0.352813	0.603108
H293	H	-0.275123	-0.804150	0.141806
H294	H	0.224877	-0.304150	0.641806
H295	H	-0.268360	-0.962613	0.144075
H296	H	0.231640	-0.462613	0.644075
H297	H	-0.332024	-0.913956	0.182793
H298	H	0.167976	-0.413956	0.682793
H299	H	0.028934	-0.703044	0.002245
H300	H	0.528934	-0.203044	0.502245
H301	H	0.089589	-1.008824	0.219952
H302	H	0.589589	-0.508824	0.719952
H303	H	0.077193	-0.421386	0.005879
H304	H	0.577193	0.078614	0.505879
