data_functionalizedCrystal
_audit_creation_method	'MofGen! by Chris Wilmer'
_symmetry_space_group_name_H-M	'P1'
_symmetry_Int_Tables_number	1
_symmetry_cell_setting	triclinic
loop_
_symmetry_equiv_pos_as_xyz
  x,y,z
_cell_length_a	18.215407
_cell_length_b	16.120484
_cell_length_c	18.215399
_cell_angle_alpha	92.869346
_cell_angle_beta	89.980650
_cell_angle_gamma	92.926015
loop_
_atom_site_label
_atom_site_type_symbol
_atom_site_fract_x
_atom_site_fract_y
_atom_site_fract_z
Zn1	Zn	1.110209	-0.331903	-0.430960
Zn2	Zn	1.360209	-0.081903	-0.180960
Zn3	Zn	1.610209	0.168097	0.069040
Zn4	Zn	1.860209	0.418097	0.319040
Zn5	Zn	1.103877	-0.471325	-0.314129
Zn6	Zn	1.353877	-0.221325	-0.064129
Zn7	Zn	1.603877	0.028675	0.185871
Zn8	Zn	1.853877	0.278675	0.435871
Zn9	Zn	0.987141	-0.331931	-0.307908
Zn10	Zn	1.237141	-0.081931	-0.057908
Zn11	Zn	1.487141	0.168069	0.192092
Zn12	Zn	1.737141	0.418069	0.442092
Zn13	Zn	0.980868	-0.471278	-0.437152
Zn14	Zn	1.230868	-0.221278	-0.187152
Zn15	Zn	1.480868	0.028722	0.062848
Zn16	Zn	1.730868	0.278722	0.312848
O17	O	1.045524	-0.401609	-0.372537
O18	O	1.295524	-0.151609	-0.122537
O19	O	1.545524	0.098391	0.127463
O20	O	1.795524	0.348391	0.377463
O21	O	1.212353	-0.350406	-0.415474
O22	O	1.462353	-0.100406	-0.165474
O23	O	1.712353	0.149594	0.084526
O24	O	1.962353	0.399594	0.334526
O25	O	1.088367	-0.452866	-0.210321
O26	O	1.338367	-0.202866	0.039679
O27	O	1.588367	0.047134	0.289679
O28	O	1.838367	0.297134	0.539679
O29	O	1.008742	-0.215262	-0.319037
O30	O	1.258742	0.034738	-0.069037
O31	O	1.508742	0.284738	0.180963
O32	O	1.758742	0.534738	0.430963
O33	O	1.207700	-0.452839	-0.329639
O34	O	1.457700	-0.202839	-0.079639
O35	O	1.707700	0.047161	0.170361
O36	O	1.957700	0.297161	0.420361
O37	O	1.099160	-0.215241	-0.409442
O38	O	1.349160	0.034759	-0.159442
O39	O	1.599160	0.284759	0.090558
O40	O	1.849160	0.534759	0.340558
O41	O	1.002602	-0.350454	-0.205751
O42	O	1.252602	-0.100454	0.044249
O43	O	1.502602	0.149546	0.294249
O44	O	1.752602	0.399546	0.544249
O45	O	0.883325	-0.350408	-0.325041
O46	O	1.133325	-0.100408	-0.075041
O47	O	1.383325	0.149592	0.174959
O48	O	1.633325	0.399592	0.424959
O49	O	0.998050	-0.452758	-0.539313
O50	O	1.248050	-0.202758	-0.289313
O51	O	1.498050	0.047242	-0.039313
O52	O	1.748050	0.297242	0.210687
O53	O	0.878716	-0.452785	-0.419995
O54	O	1.128716	-0.202785	-0.169995
O55	O	1.378716	0.047215	0.080005
O56	O	1.628716	0.297215	0.330005
O57	O	1.093076	-0.350360	-0.534764
O58	O	1.343076	-0.100360	-0.284764
O59	O	1.593076	0.149640	-0.034764
O60	O	1.843076	0.399640	0.215236
O61	O	1.082283	-0.587985	-0.335643
O62	O	1.332283	-0.337985	-0.085643
O63	O	1.582283	-0.087985	0.164357
O64	O	1.832283	0.162015	0.414357
O65	O	0.991909	-0.587950	-0.426027
O66	O	1.241909	-0.337950	-0.176027
O67	O	1.491909	-0.087950	0.073973
O68	O	1.741909	0.162050	0.323973
C69	C	0.854318	-0.401595	-0.372515
C70	C	1.104318	-0.151595	-0.122515
C71	C	1.354318	0.098405	0.127485
C72	C	1.604318	0.348405	0.377485
C73	C	0.772519	-0.401609	-0.372524
C74	C	1.022519	-0.151609	-0.122524
C75	C	1.272519	0.098391	0.127476
C76	C	1.522519	0.348391	0.377476
C77	C	0.581940	-0.455001	-0.421912
C78	C	0.831940	-0.205001	-0.171912
C79	C	1.081940	0.044999	0.078088
C80	C	1.331940	0.294999	0.328088
C81	C	0.505081	-0.455003	-0.421921
C82	C	0.755081	-0.205003	-0.171921
C83	C	1.005081	0.044997	0.078079
C84	C	1.255081	0.294997	0.328079
C85	C	0.509859	-0.348233	-0.323179
C86	C	0.759859	-0.098233	-0.073179
C87	C	1.009859	0.151767	0.176821
C88	C	1.259859	0.401767	0.426821
C89	C	0.586716	-0.348227	-0.323174
C90	C	0.836716	-0.098227	-0.073174
C91	C	1.086716	0.151773	0.176826
C92	C	1.336716	0.401773	0.426826
C93	C	0.622755	-0.401615	-0.372539
C94	C	0.872755	-0.151615	-0.122539
C95	C	1.122755	0.098385	0.127461
C96	C	1.372755	0.348385	0.377461
C97	C	0.469038	-0.401624	-0.372554
C98	C	0.719038	-0.151624	-0.122554
C99	C	0.969038	0.098376	0.127446
C100	C	1.219038	0.348376	0.377446
C101	C	0.385705	-0.401627	-0.372564
C102	C	0.635705	-0.151627	-0.122564
C103	C	0.885705	0.098373	0.127436
C104	C	1.135705	0.348373	0.377436
C105	C	0.706094	-0.401612	-0.372531
C106	C	0.956094	-0.151612	-0.122531
C107	C	1.206094	0.098388	0.127469
C108	C	1.456094	0.348388	0.377469
C109	C	1.035748	-0.618218	-0.382198
C110	C	1.285748	-0.368218	-0.132198
C111	C	1.535748	-0.118218	0.117802
C112	C	1.785748	0.131782	0.367802
C113	C	1.031634	-0.710884	-0.386355
C114	C	1.281634	-0.460884	-0.136355
C115	C	1.531634	-0.210884	0.113645
C116	C	1.781634	0.039116	0.363645
C117	C	1.024126	-0.880546	-0.393961
C118	C	1.274126	-0.630546	-0.143961
C119	C	1.524126	-0.380546	0.106039
C120	C	1.774126	-0.130546	0.356039
C121	C	1.067053	-0.921833	-0.351125
C122	C	1.317053	-0.671833	-0.101125
C123	C	1.567053	-0.421833	0.148875
C124	C	1.817053	-0.171833	0.398875
C125	C	1.062876	-1.016238	-0.355357
C126	C	1.312876	-0.766238	-0.105357
C127	C	1.562876	-0.516238	0.144643
C128	C	1.812876	-0.266238	0.394643
C129	C	1.028302	-0.786131	-0.389730
C130	C	1.278302	-0.536131	-0.139730
C131	C	1.528302	-0.286131	0.110270
C132	C	1.778302	-0.036131	0.360270
C133	C	1.237476	-0.401624	-0.372559
C134	C	1.487476	-0.151624	-0.122559
C135	C	1.737476	0.098376	0.127441
C136	C	1.987476	0.348376	0.377441
C137	C	1.319274	-0.401631	-0.372569
C138	C	1.569274	-0.151631	-0.122569
C139	C	1.819274	0.098369	0.127431
C140	C	2.069274	0.348369	0.377431
C141	C	1.045570	-0.401550	-0.564487
C142	C	1.295570	-0.151550	-0.314487
C143	C	1.545570	0.098450	-0.064487
C144	C	1.795570	0.348450	0.185513
C145	C	1.045589	-0.401525	-0.646285
C146	C	1.295589	-0.151525	-0.396285
C147	C	1.545589	0.098475	-0.146285
C148	C	1.795589	0.348475	0.103715
C149	C	1.055357	-0.184155	-0.362855
C150	C	1.305357	0.065845	-0.112855
C151	C	1.555357	0.315845	0.137145
C152	C	1.805357	0.565845	0.387145
C153	C	1.059548	-0.091489	-0.358729
C154	C	1.309548	0.158511	-0.108729
C155	C	1.559548	0.408511	0.141271
C156	C	1.809548	0.658511	0.391271
C157	C	1.095100	-0.348134	-0.908972
C158	C	1.345100	-0.098134	-0.658972
C159	C	1.595100	0.151866	-0.408972
C160	C	1.845100	0.401866	-0.158972
C161	C	1.095090	-0.348157	-0.832114
C162	C	1.345090	-0.098157	-0.582114
C163	C	1.595090	0.151843	-0.332114
C164	C	1.845090	0.401843	-0.082114
C165	C	0.996144	-0.454795	-0.836842
C166	C	1.246144	-0.204795	-0.586842
C167	C	1.496144	0.045205	-0.336842
C168	C	1.746144	0.295205	-0.086842
C169	C	0.996157	-0.454776	-0.913698
C170	C	1.246157	-0.204776	-0.663698
C171	C	1.496157	0.045224	-0.413698
C172	C	1.746157	0.295224	-0.163698
C173	C	1.045635	-0.401441	-0.949761
C174	C	1.295635	-0.151441	-0.699761
C175	C	1.545635	0.098559	-0.449761
C176	C	1.795635	0.348559	-0.199761
C177	C	1.045611	-0.401482	-0.796047
C178	C	1.295611	-0.151482	-0.546047
C179	C	1.545611	0.098518	-0.296047
C180	C	1.795611	0.348518	-0.046047
C181	C	1.045600	-0.401507	-0.712714
C182	C	1.295600	-0.151507	-0.462714
C183	C	1.545600	0.098493	-0.212714
C184	C	1.795600	0.348493	0.037286
C185	C	1.045647	-0.401417	-1.033099
C186	C	1.295647	-0.151417	-0.783099
C187	C	1.545647	0.098583	-0.533099
C188	C	1.795647	0.348583	-0.283099
C189	C	1.045523	-0.401608	-0.181331
C190	C	1.295523	-0.151608	0.068669
C191	C	1.545523	0.098392	0.318669
C192	C	1.795523	0.348392	0.568669
C193	C	1.045657	-0.401398	-0.099523
C194	C	1.295657	-0.151398	0.150477
C195	C	1.545657	0.098602	0.400477
C196	C	1.795657	0.348602	0.650477
H197	H	0.471853	-0.498474	-0.462126
H198	H	0.721853	-0.248474	-0.212126
H199	H	0.971853	0.001526	0.037874
H200	H	1.221853	0.251526	0.287874
H201	H	1.106942	-0.886278	-0.311274
H202	H	1.356942	-0.636278	-0.061274
H203	H	1.606942	-0.386278	0.188726
H204	H	1.856942	-0.136278	0.438726
H205	H	0.955860	-0.498217	-0.807470
H206	H	1.205860	-0.248217	-0.557470
H207	H	1.455860	0.001783	-0.307470
H208	H	1.705860	0.251783	-0.057470
N209	N	0.620808	-0.512582	-0.475156
N210	N	0.870808	-0.262582	-0.225156
N211	N	1.120808	-0.012582	0.024844
N212	N	1.370808	0.237418	0.274844
H213	H	0.608035	-0.499707	-0.527183
H214	H	0.858035	-0.249707	-0.277183
H215	H	1.108035	0.000293	-0.027183
H216	H	1.358035	0.250293	0.222817
H217	H	0.675679	-0.504455	-0.467598
H218	H	0.925679	-0.254455	-0.217598
H219	H	1.175679	-0.004455	0.032402
H220	H	1.425679	0.245545	0.282402
N221	N	0.971286	-0.927638	-0.446737
N222	N	1.221286	-0.677638	-0.196737
N223	N	1.471286	-0.427638	0.053263
N224	N	1.721286	-0.177638	0.303263
H225	H	0.919364	-0.912601	-0.434591
H226	H	1.169364	-0.662601	-0.184591
H227	H	1.419364	-0.412601	0.065409
H228	H	1.669364	-0.162601	0.315409
H229	H	0.983396	-0.912472	-0.498646
H230	H	1.233396	-0.662472	-0.248646
H231	H	1.483396	-0.412472	0.001354
H232	H	1.733396	-0.162472	0.251354
N233	N	1.148460	-0.290610	-0.947871
N234	N	1.398460	-0.040610	-0.697871
N235	N	1.648460	0.209390	-0.447871
N236	N	1.898460	0.459390	-0.197871
H237	H	1.179794	-0.256845	-0.910365
H238	H	1.429794	-0.006845	-0.660365
H239	H	1.679794	0.243155	-0.410365
H240	H	1.929794	0.493155	-0.160365
H241	H	1.180991	-0.324535	-0.981276
H242	H	1.430991	-0.074535	-0.731276
H243	H	1.680991	0.175465	-0.481276
H244	H	1.930991	0.425465	-0.231276
N245	N	0.630737	-0.290633	-0.269923
N246	N	0.880737	-0.040633	-0.019923
N247	N	1.130737	0.209367	0.230077
N248	N	1.380737	0.459367	0.480077
H249	H	0.616763	-0.303502	-0.217895
H250	H	0.866763	-0.053502	0.032105
H251	H	1.116763	0.196498	0.282105
H252	H	1.366763	0.446498	0.532105
H253	H	0.684881	-0.298749	-0.277475
H254	H	0.934881	-0.048749	-0.027475
H255	H	1.184881	0.201251	0.222525
H256	H	1.434881	0.451251	0.472525
N257	N	1.148444	-0.290665	-0.788120
N258	N	1.398444	-0.040665	-0.538120
N259	N	1.648444	0.209335	-0.288120
N260	N	1.898444	0.459335	-0.038120
H261	H	1.179788	-0.256878	-0.822630
H262	H	1.429788	-0.006878	-0.572630
H263	H	1.679788	0.243122	-0.322630
H264	H	1.929788	0.493122	-0.072630
H265	H	1.120226	-0.252093	-0.754507
H266	H	1.370226	-0.002093	-0.504507
H267	H	1.620226	0.247907	-0.254507
H268	H	1.870226	0.497907	-0.004507
H269	H	0.955876	-0.498189	-0.946910
H270	H	1.205876	-0.248189	-0.696910
H271	H	1.455876	0.001811	-0.446910
H272	H	1.705876	0.251811	-0.196910
H273	H	0.480507	-0.304767	-0.282986
H274	H	0.730507	-0.054767	-0.032986
H275	H	0.980507	0.195233	0.217014
H276	H	1.230507	0.445233	0.467014
