data_functionalizedCrystal
_audit_creation_method	'MofGen! by Chris Wilmer'
_symmetry_space_group_name_H-M	'P1'
_symmetry_Int_Tables_number	1
_symmetry_cell_setting	triclinic
loop_
_symmetry_equiv_pos_as_xyz
  x,y,z
_cell_length_a	10.654550
_cell_length_b	15.995350
_cell_length_c	9.130313
_cell_angle_alpha	89.997713
_cell_angle_beta	89.999724
_cell_angle_gamma	83.988653
loop_
_atom_site_label
_atom_site_type_symbol
_atom_site_fract_x
_atom_site_fract_y
_atom_site_fract_z
O1	O	1.666303	0.117603	-0.121682
O2	O	2.166303	0.617603	0.378318
O3	O	1.300678	0.128807	-0.121708
O4	O	1.800678	0.628807	0.378292
O5	O	1.493485	0.001375	-0.121693
O6	O	1.993485	0.501375	0.378307
O7	O	1.473496	0.245034	-0.121697
O8	O	1.973496	0.745034	0.378303
O9	O	1.493472	0.001371	0.121906
O10	O	1.993472	0.501371	0.621906
O11	O	1.300665	0.128803	0.121891
O12	O	1.800665	0.628803	0.621891
O13	O	1.666290	0.117599	0.121917
O14	O	2.166290	0.617599	0.621917
Cu15	Cu	1.483476	0.123201	0.144146
Cu16	Cu	1.983476	0.623201	0.644146
Cu17	Cu	1.483492	0.123205	-0.143938
Cu18	Cu	1.983492	0.623205	0.356062
O19	O	1.473483	0.245031	0.121902
O20	O	1.973483	0.745031	0.621902
C21	C	1.253884	0.127982	0.000088
C22	C	1.753884	0.627982	0.500088
C23	C	1.114473	0.125521	0.000078
C24	C	1.614473	0.625521	0.500078
C25	C	1.034008	0.200551	0.000080
C26	C	1.534008	0.700551	0.500080
C27	C	0.903017	0.198233	0.000106
C28	C	1.403017	0.698233	0.500106
C29	C	0.932971	0.045849	0.000120
C30	C	1.432971	0.545849	0.500120
C31	C	1.063959	0.048168	0.000105
C32	C	1.563959	0.548168	0.500105
C33	C	1.492652	-0.029826	0.000103
C34	C	1.992652	0.470174	0.500103
C35	C	1.490175	-0.122791	0.000095
C36	C	1.990175	0.377209	0.500095
C37	C	1.481277	-0.460590	0.000099
C38	C	1.981277	0.039410	0.500099
C39	C	1.343964	-0.413954	-0.000457
C40	C	1.843964	0.086046	0.499543
C41	C	1.346442	-0.317249	0.000092
C42	C	1.846442	0.182751	0.500092
C43	C	1.485691	-0.293004	0.000096
C44	C	1.985691	0.206996	0.500096
C45	C	1.553411	-0.333690	0.139205
C46	C	2.053411	0.166310	0.639205
C47	C	1.549962	-0.430346	0.139322
C48	C	2.049962	0.069654	0.639322
C49	C	1.552813	-0.430684	-0.137696
C50	C	2.052813	0.069316	0.362304
C51	C	1.552781	-0.333738	-0.139534
C52	C	2.052781	0.166262	0.360466
C53	C	1.488192	-0.198292	0.000100
C54	C	1.988192	0.301708	0.500100
C55	C	1.478780	-0.555303	0.000106
C56	C	1.978780	-0.055303	0.500106
C57	C	1.713084	0.118423	0.000118
C58	C	2.213084	0.618423	0.500118
C59	C	1.852495	0.120885	0.000118
C60	C	2.352495	0.620885	0.500118
C61	C	1.474316	0.276232	0.000102
C62	C	1.974316	0.776232	0.500102
C63	C	1.476793	0.369197	0.000101
C64	C	1.976793	0.869197	0.500101
N65	N	1.483475	0.123197	0.346769
N66	N	1.983475	0.623197	0.846769
N67	N	1.483504	0.123202	-0.346560
N68	N	1.983504	0.623202	0.153440
C69	C	1.568878	0.066794	0.423427
C70	C	2.068878	0.566794	0.923427
C71	C	1.568890	0.066794	0.576764
C72	C	2.068890	0.566794	1.076764
C73	C	1.398091	0.179608	0.576770
C74	C	1.898091	0.679608	1.076770
C75	C	1.398074	0.179603	0.423436
C76	C	1.898074	0.679603	0.923436
H77	H	1.293209	-0.289135	-0.099627
H78	H	1.793209	0.210865	0.400373
N79	N	1.661021	0.005972	0.659448
N80	N	2.161021	0.505972	1.159448
H81	H	1.715121	-0.029755	0.587607
H82	H	2.215121	0.470245	1.087607
H83	H	1.716527	0.038389	0.723042
H84	H	2.216527	0.538389	1.223042
H85	H	0.891826	-0.017129	0.000150
H86	H	1.391826	0.482871	0.500150
H87	H	1.638415	0.020864	0.361008
H88	H	2.138415	0.520864	0.861008
H89	H	1.075132	0.263537	0.000069
H90	H	1.575132	0.763537	0.500069
H91	H	1.129478	-0.012934	0.000106
H92	H	1.629478	0.487066	0.500106
H93	H	1.328561	0.225533	0.639208
H94	H	1.828561	0.725533	1.139208
H95	H	0.837506	0.259330	0.000111
H96	H	1.337506	0.759330	0.500111
H97	H	1.289086	-0.432803	-0.100215
H98	H	1.789086	0.067197	0.399785
H99	H	1.328522	0.225533	0.361017
H100	H	1.828522	0.725533	0.861017
H101	H	1.289319	-0.433866	0.098738
H102	H	1.789319	0.066134	0.598738
N103	N	1.275451	-0.280744	0.132398
N104	N	1.775451	0.219256	0.632398
H105	H	1.242430	-0.327483	0.190595
H106	H	1.742430	0.172517	0.690595
H107	H	1.334058	-0.250556	0.195672
H108	H	1.834058	0.249444	0.695672
H109	H	1.500569	-0.448936	0.243305
H110	H	2.000569	0.051064	0.743305
N111	N	1.683492	-0.472295	0.147696
N112	N	2.183492	0.027705	0.647696
H113	H	1.744332	-0.427975	0.151303
H114	H	2.244332	0.072025	0.651303
H115	H	1.693537	-0.508123	0.238874
H116	H	2.193537	-0.008123	0.738874
H117	H	1.655713	-0.318971	0.144382
H118	H	2.155713	0.181029	0.644382
H119	H	1.506365	-0.305584	0.242723
H120	H	2.006365	0.194416	0.742723
N121	N	1.493365	-0.458233	-0.277364
N122	N	1.993365	0.041767	0.222636
H123	H	1.419452	-0.490385	-0.252724
H124	H	1.919452	0.009615	0.247276
H125	H	1.463118	-0.407152	-0.337728
H126	H	1.963118	0.092848	0.162272
N127	N	1.686918	-0.471970	-0.138941
N128	N	2.186918	0.028030	0.361059
H129	H	1.701320	-0.509865	-0.050730
H130	H	2.201320	-0.009865	0.449270
H131	H	1.701922	-0.506325	-0.231284
H132	H	2.201922	-0.006325	0.268716
N133	N	1.487281	-0.297969	-0.275861
N134	N	1.987281	0.202031	0.224139
H135	H	1.414455	-0.255552	-0.247309
H136	H	1.914455	0.244448	0.252691
H137	H	1.549114	-0.269610	-0.337591
H138	H	2.049114	0.230390	0.162409
H139	H	1.654327	-0.317787	-0.147930
H140	H	2.154327	0.182213	0.352070
