data_functionalizedCrystal
_audit_creation_method	'MofGen! by Chris Wilmer'
_symmetry_space_group_name_H-M	'P1'
_symmetry_Int_Tables_number	1
_symmetry_cell_setting	triclinic
loop_
_symmetry_equiv_pos_as_xyz
  x,y,z
_cell_length_a	12.759401
_cell_length_b	14.908520
_cell_length_c	12.759393
_cell_angle_alpha	93.263606
_cell_angle_beta	89.979062
_cell_angle_gamma	93.322137
loop_
_atom_site_label
_atom_site_type_symbol
_atom_site_fract_x
_atom_site_fract_y
_atom_site_fract_z
Zn1	Zn	1.582080	-0.359078	-0.618119
Zn2	Zn	2.082080	0.140922	-0.118119
Zn3	Zn	1.571808	-0.509962	-0.452566
Zn4	Zn	2.071808	-0.009962	0.047434
Zn5	Zn	1.406376	-0.359126	-0.442458
Zn6	Zn	1.906376	0.140874	0.057542
Zn7	Zn	1.396212	-0.509899	-0.628199
Zn8	Zn	1.896212	-0.009899	-0.128199
O9	O	1.489119	-0.434516	-0.535335
O10	O	1.989119	0.065484	-0.035335
O11	O	1.727738	-0.379099	-0.596170
O12	O	2.227738	0.120901	-0.096170
O13	O	1.549818	-0.490000	-0.304207
O14	O	2.049818	0.010000	0.195793
O15	O	1.438236	-0.232875	-0.457311
O16	O	1.938236	0.267125	0.042689
O17	O	1.720192	-0.489953	-0.474539
O18	O	2.220192	0.010047	0.025461
O19	O	1.567325	-0.232840	-0.586369
O20	O	2.067325	0.267160	-0.086369
O21	O	1.428275	-0.379181	-0.296781
O22	O	1.928275	0.120819	0.203219
O23	O	1.258007	-0.379120	-0.467085
O24	O	1.758007	0.120880	0.032915
O25	O	1.420913	-0.489846	-0.773880
O26	O	1.920913	0.010154	-0.273880
O27	O	1.250540	-0.489892	-0.603548
O28	O	1.750540	0.010108	-0.103548
O29	O	1.557470	-0.379038	-0.766474
O30	O	2.057470	0.120962	-0.266474
O31	O	1.539963	-0.636198	-0.484313
O32	O	2.039963	-0.136198	0.015687
O33	O	1.410953	-0.636152	-0.613349
O34	O	1.910953	-0.136152	-0.113349
C35	C	1.216153	-0.434505	-0.535314
C36	C	1.716153	0.065495	-0.035314
C37	C	1.099375	-0.434522	-0.535331
C38	C	1.599375	0.065478	-0.035331
C39	C	1.040646	-0.492289	-0.606288
C40	C	1.540646	0.007711	-0.106288
C41	C	0.930922	-0.492292	-0.606309
C42	C	1.430922	0.007708	-0.106309
C43	C	0.938665	-0.376759	-0.464407
C44	C	1.438665	0.123241	0.035593
C45	C	1.048387	-0.376752	-0.464392
C46	C	1.548387	0.123248	0.035608
C47	C	1.473269	-0.668908	-0.551045
C48	C	1.973269	-0.168908	-0.051045
C49	C	1.466584	-0.769183	-0.557800
C50	C	1.966584	-0.269183	-0.057800
C51	C	1.588499	-0.957595	-0.436237
C52	C	2.088499	-0.457595	0.063763
C53	C	1.582222	-1.051812	-0.442581
C54	C	2.082222	-0.551812	0.057419
C55	C	1.447758	-1.051834	-0.576837
C56	C	1.947758	-0.551834	-0.076837
C57	C	1.454036	-0.957617	-0.570493
C58	C	1.954036	-0.457617	-0.070493
C59	C	1.524407	-0.910501	-0.500189
C60	C	2.024407	-0.410501	-0.000189
C61	C	1.530679	-0.816283	-0.493841
C62	C	2.030679	-0.316283	0.006159
C63	C	1.396221	-0.816307	-0.628101
C64	C	1.896221	-0.316307	-0.128101
C65	C	1.389944	-0.910523	-0.634445
C66	C	1.889944	-0.410523	-0.134445
C67	C	1.763152	-0.434528	-0.535358
C68	C	2.263152	0.065472	-0.035358
C69	C	1.879928	-0.434533	-0.535367
C70	C	2.379928	0.065467	-0.035367
C71	C	1.489204	-0.434429	-0.809363
C72	C	1.989204	0.065571	-0.309363
C73	C	1.489240	-0.434392	-0.926137
C74	C	1.989240	0.065608	-0.426137
C75	C	1.505060	-0.199208	-0.519588
C76	C	2.005060	0.300792	-0.019588
C77	C	1.511853	-0.098934	-0.512877
C78	C	2.011853	0.401066	-0.012877
C79	C	1.560350	-0.376686	-0.977144
C80	C	2.060350	0.123314	-0.477144
C81	C	1.560371	-0.376647	-1.086866
C82	C	2.060371	0.123353	-0.586866
C83	C	1.418166	-0.492029	-1.094564
C84	C	1.918166	0.007971	-0.594564
C85	C	1.418142	-0.492063	-0.984844
C86	C	1.918142	0.007937	-0.484844
C87	C	1.489100	-0.434537	-0.262369
C88	C	1.989100	0.065463	0.237631
C89	C	1.489285	-0.434320	-0.145579
C90	C	1.989285	0.065680	0.354421
H91	H	1.096206	-0.329706	-0.406610
H92	H	1.596206	0.170294	0.093390
F93	F	0.884390	-0.315281	-0.388912
F94	F	1.384390	0.184719	0.111088
H95	H	1.645791	-0.919233	-0.378986
H96	H	2.145791	-0.419233	0.121014
F97	F	1.342507	-0.553406	-1.157053
F98	F	1.842507	-0.053406	-0.657053
H99	H	1.587976	-0.777922	-0.436593
H100	H	2.087976	-0.277922	0.063407
F101	F	1.636016	-0.315306	-0.914667
F102	F	2.136016	0.184694	-0.414667
H103	H	1.634414	-1.090152	-0.390506
H104	H	2.134414	-0.590152	0.109494
F105	F	1.636063	-0.315233	-1.141147
F106	F	2.136063	0.184767	-0.641147
H107	H	1.344030	-0.777952	-0.680173
H108	H	1.844030	-0.277952	-0.180173
H109	H	1.390472	-1.090211	-0.634081
H110	H	1.890472	-0.590211	-0.134081
H111	H	1.360228	-0.539054	-0.943314
H112	H	1.860228	-0.039054	-0.443314
H113	H	1.082157	-0.539327	-0.664053
H114	H	1.582157	-0.039327	-0.164053
F115	F	1.315057	-0.960677	-0.709267
F116	F	1.815057	-0.460677	-0.209267
H117	H	0.883110	-0.539331	-0.664090
H118	H	1.383110	-0.039331	-0.164090
