data_functionalizedCrystal
_audit_creation_method	'MofGen! by Chris Wilmer'
_symmetry_space_group_name_H-M	'P1'
_symmetry_Int_Tables_number	1
_symmetry_cell_setting	triclinic
loop_
_symmetry_equiv_pos_as_xyz
  x,y,z
_cell_length_a	18.050589
_cell_length_b	19.077241
_cell_length_c	19.077579
_cell_angle_alpha	94.520309
_cell_angle_beta	87.679655
_cell_angle_gamma	87.679727
loop_
_atom_site_label
_atom_site_type_symbol
_atom_site_fract_x
_atom_site_fract_y
_atom_site_fract_z
Zn1	Zn	-0.230687	-1.093725	-0.442018
Zn2	Zn	-0.360081	-1.088903	-0.324135
Zn3	Zn	-0.241092	-0.971106	-0.319397
Zn4	Zn	-0.360029	-0.975793	-0.437239
O5	O	-0.297972	-1.032382	-0.380697
O6	O	-0.243519	-1.191739	-0.430363
O7	O	-0.348673	-1.069297	-0.224855
O8	O	-0.135784	-0.987428	-0.335680
O9	O	-0.338584	-1.188196	-0.343756
O10	O	-0.128139	-1.077516	-0.425769
O11	O	-0.261252	-0.982752	-0.221374
O12	O	-0.261201	-0.873074	-0.331046
O13	O	-0.338495	-0.995416	-0.536524
O14	O	-0.348584	-0.876518	-0.417624
O15	O	-0.243468	-1.082061	-0.540035
O16	O	-0.464002	-1.073842	-0.339122
O17	O	-0.463964	-0.990740	-0.422219
C18	C	-0.306017	-0.849216	-0.373302
C19	C	-0.309475	-0.770858	-0.370156
C20	C	-0.261677	-0.735893	-0.413838
C21	C	-0.264923	-0.662267	-0.410875
C22	C	-0.315972	-0.623607	-0.364233
C23	C	-0.363773	-0.658577	-0.320546
C24	C	-0.360522	-0.732202	-0.323506
C25	C	-0.330990	-0.403215	-0.350535
C26	C	-0.334239	-0.329585	-0.347580
C27	C	-0.235388	-0.333280	-0.437909
C28	C	-0.232145	-0.406906	-0.440868
C29	C	-0.279943	-0.441869	-0.397178
N30	N	-0.319293	-0.548349	-0.361205
N31	N	-0.276617	-0.517126	-0.400203
C32	C	-0.490929	-1.032296	-0.380682
C33	C	-0.573472	-1.032325	-0.380702
C34	C	-0.772928	-0.987180	-0.425875
C35	C	-0.825959	-0.967415	-0.360855
C36	C	-0.724599	-1.032394	-0.380714
C37	C	-0.818648	-1.052195	-0.445743
C38	C	-0.870581	-1.032461	-0.380731
C39	C	-0.776546	-1.012594	-0.315658
C40	C	-0.769227	-1.097406	-0.400590
C41	C	-0.822237	-1.077663	-0.335527
C42	C	-0.640503	-1.032355	-0.380705
C43	C	-0.954676	-1.032500	-0.380733
C44	C	-0.104261	-1.032487	-0.380729
C45	C	-0.021713	-1.032532	-0.380742
C46	C	-0.289815	-1.039799	-0.564574
C47	C	-0.286339	-1.042960	-0.642932
C48	C	-0.289893	-0.216262	-0.388116
C49	C	-0.286440	-0.294620	-0.391263
C50	C	-0.261463	-1.065632	-1.084199
C51	C	-0.264733	-1.062658	-1.010573
C52	C	-0.315839	-1.016056	-0.971936
C53	C	-0.363684	-0.972431	-1.006928
C54	C	-0.360417	-0.975409	-1.080552
C55	C	-0.330917	-1.002314	-0.751548
C56	C	-0.334179	-0.999337	-0.677918
C57	C	-0.235228	-1.089565	-0.681569
C58	C	-0.231963	-1.092537	-0.755194
C59	C	-0.279811	-1.048914	-0.790180
N60	N	-0.319181	-1.013013	-0.896679
N61	N	-0.276472	-1.051961	-0.865436
C62	C	-0.306042	-1.025033	-0.197537
C63	C	-0.309303	-1.022009	-0.119186
H64	H	-0.375812	-0.298110	-0.309598
H65	H	-0.843753	-1.115926	-0.297297
C66	C	-0.431709	-0.910489	-0.681703
C67	C	-0.390387	-0.948136	-0.635448
H68	H	-0.466416	-0.878892	-0.655482
H69	H	-0.399275	-0.884679	-0.709325
H70	H	-0.457469	-0.942367	-0.711664
H71	H	-0.364622	-0.916258	-0.605490
H72	H	-0.422826	-0.973948	-0.607813
H73	H	-0.369911	-0.431673	-0.314961
C74	C	-0.427598	-0.995821	-0.833901
C75	C	-0.383522	-0.954367	-0.789989
H76	H	-0.460081	-0.966219	-0.857628
H77	H	-0.396698	-1.023986	-0.867454
H78	H	-0.455914	-1.025362	-0.806398
H79	H	-0.355201	-0.924829	-0.817493
H80	H	-0.414425	-0.926189	-0.756431
H81	H	-0.744412	-1.152341	-0.417418
H82	H	-0.219842	-1.103576	-1.115652
C83	C	-0.212804	-0.850393	-0.458489
C84	C	-0.205564	-0.778386	-0.465111
H85	H	-0.178163	-0.876624	-0.490146
H86	H	-0.203424	-0.860542	-0.411631
H87	H	-0.261736	-0.862851	-0.469211
H88	H	-0.156634	-0.765928	-0.454383
H89	H	-0.214939	-0.768233	-0.511979
C90	C	-0.883901	-1.135919	-0.517796
C91	C	-0.843778	-1.074771	-0.519971
H92	H	-0.899417	-1.149849	-0.563622
H93	H	-0.853313	-1.172473	-0.501672
H94	H	-0.926192	-1.126901	-0.486628
H95	H	-0.801484	-1.083792	-0.551135
H96	H	-0.874367	-1.038209	-0.536105
C97	C	-0.166589	-1.152133	-1.021576
C98	C	-0.212142	-1.110606	-0.972116
H99	H	-0.134118	-1.181732	-0.997833
H100	H	-0.196488	-1.180242	-1.051372
H101	H	-0.138259	-1.122585	-1.049060
H102	H	-0.240477	-1.140154	-0.944635
H103	H	-0.182240	-1.082495	-0.942308
H104	H	-0.190350	-1.130488	-0.786648
C105	C	-0.412652	-0.544076	-0.275905
C106	C	-0.419888	-0.616083	-0.269276
H107	H	-0.447301	-0.517846	-0.244256
H108	H	-0.363730	-0.531614	-0.265182
H109	H	-0.422031	-0.533934	-0.322772
H110	H	-0.410503	-0.626226	-0.222410
H111	H	-0.468822	-0.628550	-0.279994
H112	H	-0.758026	-0.995810	-0.260653
H113	H	-0.226002	-0.633802	-0.446448
H114	H	-0.196275	-1.125081	-0.653076
C115	C	-0.697189	-0.972157	-0.529550
C116	C	-0.743699	-0.935486	-0.477356
H117	H	-0.679149	-0.940243	-0.561331
H118	H	-0.656578	-0.994068	-0.508313
H119	H	-0.724304	-1.007025	-0.554410
H120	H	-0.716582	-0.900622	-0.452491
H121	H	-0.784316	-0.913565	-0.498594
C122	C	-0.491959	-0.937126	-0.982847
C123	C	-0.419870	-0.921219	-0.964452
H124	H	-0.526646	-0.905514	-0.956619
H125	H	-0.496859	-0.932646	-1.031694
H126	H	-0.501264	-0.984005	-0.972691
H127	H	-0.410562	-0.874341	-0.974613
H128	H	-0.414967	-0.925692	-0.915594
C129	C	-0.134747	-0.403160	-0.529842
C130	C	-0.176021	-0.449399	-0.492129
H131	H	-0.100095	-0.429394	-0.561485
H132	H	-0.167219	-0.375528	-0.555606
H133	H	-0.108925	-0.373205	-0.498009
H134	H	-0.201848	-0.479350	-0.523962
H135	H	-0.143545	-0.477042	-0.466364
H136	H	-0.399374	-0.939887	-1.109037
H137	H	-0.850776	-0.912468	-0.344058
C138	C	-0.196472	-0.222060	-0.473477
C139	C	-0.182845	-0.294846	-0.485924
H140	H	-0.164027	-0.198334	-0.503118
H141	H	-0.246459	-0.210395	-0.483233
H142	H	-0.188160	-0.208086	-0.425641
H143	H	-0.191162	-0.308821	-0.533759
H144	H	-0.132846	-0.306516	-0.476174
H145	H	-0.399444	-0.760669	-0.287934
