data_functionalizedCrystal
_audit_creation_method	'MofGen! by Chris Wilmer'
_symmetry_space_group_name_H-M	'P1'
_symmetry_Int_Tables_number	1
_symmetry_cell_setting	triclinic
loop_
_symmetry_equiv_pos_as_xyz
  x,y,z
_cell_length_a	12.759401
_cell_length_b	19.121063
_cell_length_c	12.759393
_cell_angle_alpha	92.402864
_cell_angle_beta	89.981425
_cell_angle_gamma	92.469288
loop_
_atom_site_label
_atom_site_type_symbol
_atom_site_fract_x
_atom_site_fract_y
_atom_site_fract_z
Zn1	Zn	1.588321	-0.279563	-0.611774
Zn2	Zn	1.580680	-0.397032	-0.443570
Zn3	Zn	1.412621	-0.279600	-0.436116
Zn4	Zn	1.405080	-0.396978	-0.619207
O5	O	1.496675	-0.338293	-0.527667
O6	O	1.734328	-0.295152	-0.589470
O7	O	1.558345	-0.381492	-0.295562
O8	O	1.442282	-0.181311	-0.453187
O9	O	1.728714	-0.381456	-0.465891
O10	O	1.571368	-0.181284	-0.582243
O11	O	1.434872	-0.295216	-0.290086
O12	O	1.264600	-0.295164	-0.460395
O13	O	1.429429	-0.381365	-0.765240
O14	O	1.259059	-0.381401	-0.594911
O15	O	1.564056	-0.295100	-0.759779
O16	O	1.551032	-0.495309	-0.473098
O17	O	1.422020	-0.495269	-0.602139
C18	C	1.223709	-0.338281	-0.527651
C19	C	1.106931	-0.338293	-0.527670
C20	C	1.054988	-0.293436	-0.592127
C21	C	0.945264	-0.293443	-0.592134
C22	C	0.939435	-0.383171	-0.463226
C23	C	1.049158	-0.383159	-0.463214
C24	C	0.800654	-0.210657	-0.624635
C25	C	0.748706	-0.165806	-0.689108
C26	C	0.785050	-0.155100	-0.790965
C27	C	0.873338	-0.189255	-0.828371
C28	C	0.925280	-0.234111	-0.763903
C29	C	0.888939	-0.244804	-0.662031
C30	C	1.193769	-0.465947	-0.430724
C31	C	1.245713	-0.510807	-0.366262
C32	C	1.209371	-0.521520	-0.264403
C33	C	1.121078	-0.487377	-0.227002
C34	C	1.069135	-0.442517	-0.291465
C35	C	1.105484	-0.431802	-0.393322
C36	C	1.484907	-0.520773	-0.539257
C37	C	1.479969	-0.598839	-0.544250
C38	C	1.544871	-0.635511	-0.479467
C39	C	1.540233	-0.708862	-0.484170
C40	C	1.470686	-0.745539	-0.553650
C41	C	1.405781	-0.708862	-0.618440
C42	C	1.410425	-0.635512	-0.613742
C43	C	1.453305	-0.967008	-0.571198
C44	C	1.448663	-1.040363	-0.575889
C45	C	1.583116	-1.040358	-0.441619
C46	C	1.587750	-0.967007	-0.436923
C47	C	1.522849	-0.930336	-0.501717
C48	C	1.465941	-0.820516	-0.558456
C49	C	1.527600	-0.855361	-0.496915
C50	C	1.770708	-0.338306	-0.527683
C51	C	1.887484	-0.338311	-0.527690
C52	C	1.496753	-0.338222	-0.801696
C53	C	1.496787	-0.338192	-0.918471
C54	C	1.508518	-0.155101	-0.516055
C55	C	1.513565	-0.077035	-0.511106
C56	C	1.432519	-0.293260	-0.970480
C57	C	1.432545	-0.293238	-1.080203
C58	C	1.561115	-0.383083	-1.085897
C59	C	1.561082	-0.383108	-0.976176
C60	C	1.310307	-0.268103	-1.228556
C61	C	1.246049	-0.223160	-1.280569
C62	C	1.234341	-0.154635	-1.240619
C63	C	1.286906	-0.131040	-1.148657
C64	C	1.351172	-0.175980	-1.096650
C65	C	1.362860	-0.244514	-1.136599
C66	C	1.683322	-0.408236	-0.827821
C67	C	1.747594	-0.453172	-0.775811
C68	C	1.759313	-0.521698	-0.815759
C69	C	1.706767	-0.545290	-0.907724
C70	C	1.642495	-0.500354	-0.959733
C71	C	1.630774	-0.431829	-0.919778
C72	C	1.496662	-0.338313	-0.254701
C73	C	1.496845	-0.338146	-0.137914
H74	H	1.317616	-0.538599	-0.396716
C75	C	1.274030	-0.055655	-1.104723
N76	N	1.264327	0.001125	-1.071628
C77	C	1.081100	-0.499160	-0.114951
N78	N	1.050990	-0.508038	-0.030553
H79	H	1.319821	-0.323903	-1.261084
H80	H	1.392042	-1.070223	-0.632487
H81	H	1.251652	-0.558069	-0.211932
H82	H	1.400458	-0.937156	-0.623954
C83	C	1.664230	-0.926668	-0.360462
N84	N	1.721823	-0.896285	-0.302858
C85	C	1.654506	-1.080703	-0.370354
N86	N	1.708281	-1.111090	-0.316677
H87	H	1.223374	-0.457222	-0.513664
H88	H	0.902915	-0.180540	-0.911318
H89	H	1.716313	-0.601088	-0.940254
C90	C	1.621376	-0.595173	-0.403030
N91	N	1.679004	-0.564793	-0.345458
H92	H	1.599710	-0.519568	-1.034618
H93	H	1.811660	-0.558282	-0.773409
H94	H	1.613463	-0.419651	-1.132894
H95	H	0.771063	-0.219362	-0.541690
H96	H	0.892383	-0.419700	-0.410749
C97	C	0.651601	-0.128227	-0.647953
N98	N	0.578463	-0.099923	-0.616958
C99	C	1.805399	-0.427217	-0.674647
N100	N	1.848934	-0.407668	-0.598449
H101	H	0.997242	-0.414716	-0.261005
C102	C	1.611624	-0.749199	-0.412896
N103	N	1.665398	-0.779580	-0.359208
C104	C	1.389429	-0.860868	-0.634872
N105	N	1.331799	-0.891264	-0.692426
H106	H	1.182021	-0.118042	-1.282975
C107	C	1.361783	-0.243857	-0.907008
N108	N	1.308499	-0.206648	-0.859203
C109	C	1.329275	-0.749209	-0.694866
N110	N	1.271645	-0.779598	-0.752428
C111	C	1.670424	-0.332856	-0.783861
N112	N	1.660710	-0.276081	-0.750748
C113	C	1.408986	-0.150031	-0.995494
N114	N	1.452525	-0.130486	-0.919297
H115	H	1.357577	-0.605654	-0.666497
C116	C	1.188220	-0.249119	-1.381718
N117	N	1.144663	-0.268669	-1.457903
H118	H	1.584229	-0.825496	-0.440348
H119	H	0.997166	-0.261917	-0.794356
C120	C	1.118536	-0.244075	-0.663021
N121	N	1.166397	-0.206893	-0.716417
H122	H	0.742747	-0.118580	-0.843460
