data_functionalizedCrystal
_audit_creation_method	'MofGen! by Chris Wilmer'
_symmetry_space_group_name_H-M	'P1'
_symmetry_Int_Tables_number	1
_symmetry_cell_setting	triclinic
loop_
_symmetry_equiv_pos_as_xyz
  x,y,z
_cell_length_a	16.120530
_cell_length_b	18.101395
_cell_length_c	16.120297
_cell_angle_alpha	92.869806
_cell_angle_beta	90.128140
_cell_angle_gamma	87.127367
loop_
_atom_site_label
_atom_site_type_symbol
_atom_site_fract_x
_atom_site_fract_y
_atom_site_fract_z
Zn1	Zn	1.247379	-0.375189	-0.534544
Zn2	Zn	1.580712	-0.041855	-0.201211
Zn3	Zn	1.914046	0.291478	0.132123
Zn4	Zn	1.254311	-0.493081	-0.395480
Zn5	Zn	1.587644	-0.159747	-0.062147
Zn6	Zn	1.920977	0.173586	0.271187
Zn7	Zn	1.115371	-0.362675	-0.388463
Zn8	Zn	1.448705	-0.029341	-0.055129
Zn9	Zn	1.782038	0.303992	0.278204
Zn10	Zn	1.108267	-0.492399	-0.527449
Zn11	Zn	1.441600	-0.159065	-0.194116
Zn12	Zn	1.774934	0.174268	0.139217
O13	O	1.181332	-0.430836	-0.461484
O14	O	1.514665	-0.097502	-0.128151
O15	O	1.847999	0.235831	0.205183
O16	O	1.364664	-0.396350	-0.522003
O17	O	1.697997	-0.063017	-0.188669
O18	O	2.031331	0.270317	0.144664
O19	O	1.241754	-0.470830	-0.278184
O20	O	1.575087	-0.137497	0.055149
O21	O	1.908421	0.195836	0.388483
O22	O	1.132955	-0.260707	-0.407873
O23	O	1.466288	0.072627	-0.074540
O24	O	1.799622	0.405960	0.258793
O25	O	1.369756	-0.482965	-0.419833
O26	O	1.703090	-0.149631	-0.086500
O27	O	2.036423	0.183702	0.246834
O28	O	1.229940	-0.269901	-0.515199
O29	O	1.563274	0.063433	-0.181865
O30	O	1.896607	0.396766	0.151468
O31	O	1.139676	-0.375022	-0.273028
O32	O	1.473009	-0.041688	0.060305
O33	O	1.806343	0.291645	0.393638
O34	O	0.998064	-0.374360	-0.400994
O35	O	1.331397	-0.041027	-0.067660
O36	O	1.664730	0.292306	0.265673
O37	O	1.120847	-0.481802	-0.644756
O38	O	1.454180	-0.148469	-0.311422
O39	O	1.787513	0.184864	0.021911
O40	O	0.992844	-0.469668	-0.503107
O41	O	1.326177	-0.136335	-0.169773
O42	O	1.659511	0.196999	0.163560
O43	O	1.223051	-0.395689	-0.649968
O44	O	1.556385	-0.062355	-0.316635
O45	O	1.889718	0.270978	0.016699
O46	O	1.234865	-0.596619	-0.412954
O47	O	1.568199	-0.263285	-0.079620
O48	O	1.901532	0.070048	0.253713
O49	O	1.127568	-0.596117	-0.509911
O50	O	1.460901	-0.262784	-0.176577
O51	O	1.794234	0.070549	0.156756
C52	C	0.965282	-0.420583	-0.450519
C53	C	1.298615	-0.087249	-0.117186
C54	C	1.631948	0.246084	0.216147
C55	C	0.872853	-0.416215	-0.445848
C56	C	1.206187	-0.082882	-0.112515
C57	C	1.539520	0.250452	0.220818
C58	C	0.703625	-0.408224	-0.437327
C59	C	1.036958	-0.074891	-0.103994
C60	C	1.370292	0.258443	0.229339
C61	C	0.659876	-0.453505	-0.485701
C62	C	0.993210	-0.120171	-0.152368
C63	C	1.326543	0.213162	0.180965
C64	C	0.565712	-0.449058	-0.480960
C65	C	0.899045	-0.115725	-0.147627
C66	C	1.232379	0.217608	0.185706
C67	C	0.797798	-0.412669	-0.442067
C68	C	1.131131	-0.079336	-0.108734
C69	C	1.464465	0.253997	0.224599
C70	C	1.181219	-0.623239	-0.461443
C71	C	1.514553	-0.289906	-0.128110
C72	C	1.847886	0.043427	0.205224
C73	C	1.181246	-0.705555	-0.461457
C74	C	1.514579	-0.372222	-0.128124
C75	C	1.847912	-0.038889	0.205210
C76	C	1.181340	-0.856270	-0.461495
C77	C	1.514673	-0.522936	-0.128162
C78	C	1.848006	-0.189603	0.205172
C79	C	1.113800	-0.887336	-0.522447
C80	C	1.447134	-0.554002	-0.189114
C81	C	1.780467	-0.220669	0.144220
C82	C	1.114030	-0.972977	-0.522730
C83	C	1.447363	-0.639643	-0.189397
C84	C	1.780696	-0.306310	0.143937
C85	C	1.181431	-1.004658	-0.461532
C86	C	1.514764	-0.671325	-0.128199
C87	C	1.848097	-0.337991	0.205134
C88	C	1.267903	-0.978638	-0.489547
C89	C	1.601237	-0.645305	-0.156214
C90	C	1.934570	-0.311971	0.177120
C91	C	1.267455	-0.892992	-0.489973
C92	C	1.600788	-0.559659	-0.156640
C93	C	1.934122	-0.226325	0.176694
C94	C	1.163200	-0.883074	-0.372414
C95	C	1.496534	-0.549740	-0.039081
C96	C	1.829867	-0.216407	0.294252
C97	C	1.161296	-0.968658	-0.372806
C98	C	1.494629	-0.635324	-0.039473
C99	C	1.827962	-0.301991	0.293860
C100	C	1.181487	-1.088521	-0.461552
C101	C	1.514821	-0.755188	-0.128219
C102	C	1.848154	-0.421854	0.205114
C103	C	1.181289	-0.772407	-0.461477
C104	C	1.514622	-0.439074	-0.128144
C105	C	1.847955	-0.105740	0.205189
C106	C	1.398226	-0.441129	-0.472492
C107	C	1.731559	-0.107796	-0.139159
C108	C	2.064893	0.225537	0.194175
C109	C	1.490653	-0.445516	-0.477183
C110	C	1.823987	-0.112183	-0.143850
C111	C	2.157320	0.221151	0.189484
C112	C	1.170383	-0.440065	-0.678378
C113	C	1.503717	-0.106732	-0.345044
C114	C	1.837050	0.226601	-0.011711
C115	C	1.165718	-0.443999	-0.770805
C116	C	1.499051	-0.110665	-0.437471
C117	C	1.832384	0.222668	-0.104138
C118	C	1.181467	-0.237683	-0.461545
C119	C	1.514800	0.095651	-0.128211
C120	C	1.848134	0.428984	0.205122
C121	C	1.181524	-0.155372	-0.461570
C122	C	1.514858	0.177961	-0.128237
C123	C	1.848191	0.511294	0.205096
C124	C	1.157169	-0.451162	-0.940029
C125	C	1.490502	-0.117828	-0.606696
C126	C	1.823835	0.215505	-0.273362
C127	C	1.205659	-0.410296	-0.983799
C128	C	1.538992	-0.076963	-0.650466
C129	C	1.872326	0.256371	-0.317132
C130	C	1.200902	-0.414281	-1.077961
C131	C	1.534236	-0.080948	-0.744628
C132	C	1.867569	0.252385	-0.411295
C133	C	1.161924	-0.447177	-0.845858
C134	C	1.495258	-0.113844	-0.512525
C135	C	1.828591	0.219490	-0.179192
C136	C	1.192286	-0.421591	-0.245437
C137	C	1.525619	-0.088258	0.087897
C138	C	1.858953	0.245076	0.421230
C139	C	1.197113	-0.417457	-0.153018
C140	C	1.530446	-0.084123	0.180315
C141	C	1.863779	0.249210	0.513649
H142	H	1.049777	-0.990355	-0.504703
H143	H	1.383110	-0.657021	-0.171369
H144	H	1.716443	-0.323688	0.161964
C145	C	1.043601	-0.803056	-0.398185
C146	C	1.376934	-0.469722	-0.064851
C147	C	1.710267	-0.136389	0.268482
C148	C	1.079798	-0.848761	-0.339085
C149	C	1.413132	-0.515428	-0.005751
C150	C	1.746465	-0.182094	0.327582
H151	H	0.992107	-0.781878	-0.377616
H152	H	1.325440	-0.448544	-0.044283
H153	H	1.658773	-0.115211	0.289051
H154	H	1.079702	-0.764742	-0.408860
H155	H	1.413036	-0.431408	-0.075526
H156	H	1.746369	-0.098075	0.257807
H157	H	1.034432	-0.831557	-0.448155
H158	H	1.367765	-0.498223	-0.114822
H159	H	1.701099	-0.164890	0.218511
H160	H	1.088972	-0.820259	-0.289116
H161	H	1.422306	-0.486925	0.044218
H162	H	1.755639	-0.153592	0.377551
H163	H	1.043689	-0.887080	-0.328399
H164	H	1.377022	-0.553747	0.004935
H165	H	1.710355	-0.220414	0.338268
C166	C	1.015003	-0.481682	-0.959803
C167	C	1.348337	-0.148348	-0.626469
C168	C	1.681670	0.184985	-0.293136
C169	C	1.096312	-0.502435	-0.984903
C170	C	1.429645	-0.169102	-0.651570
C171	C	1.762978	0.164232	-0.318236
H172	H	0.977436	-0.513335	-0.987518
H173	H	1.310770	-0.180002	-0.654185
H174	H	1.644103	0.153332	-0.320851
H175	H	1.010256	-0.485701	-0.901502
H176	H	1.343590	-0.152368	-0.568168
H177	H	1.676923	0.180965	-0.234835
H178	H	1.002171	-0.431936	-0.973380
H179	H	1.335505	-0.098603	-0.640046
H180	H	1.668838	0.234731	-0.306713
H181	H	1.109146	-0.552179	-0.971320
H182	H	1.442479	-0.218846	-0.637987
H183	H	1.775812	0.114487	-0.304653
H184	H	1.101062	-0.498422	-1.043217
H185	H	1.434395	-0.165089	-0.709884
H186	H	1.767728	0.168244	-0.376550
H187	H	0.693142	-0.495609	-0.530678
H188	H	1.026475	-0.162276	-0.197344
H189	H	1.359808	0.171058	0.135989
C190	C	0.611446	-0.388507	-0.320666
C191	C	0.944780	-0.055174	0.012668
C192	C	1.278113	0.278159	0.346001
C193	C	0.658725	-0.351390	-0.376609
C194	C	0.992059	-0.018057	-0.043276
C195	C	1.325392	0.315277	0.290058
H196	H	0.583725	-0.353421	-0.283178
H197	H	0.917058	-0.020088	0.050155
H198	H	1.250391	0.313246	0.383488
H199	H	0.571630	-0.416326	-0.350400
H200	H	0.904964	-0.082993	-0.017066
H201	H	1.238297	0.250340	0.316267
H202	H	0.646925	-0.420938	-0.290469
H203	H	0.980258	-0.087605	0.042864
H204	H	1.313591	0.245729	0.376198
H205	H	0.623246	-0.318963	-0.406810
H206	H	0.956579	0.014370	-0.073477
H207	H	1.289913	0.347704	0.259856
H208	H	0.698546	-0.323558	-0.346872
H209	H	1.031879	0.009775	-0.013539
H210	H	1.365213	0.343108	0.319795
H211	H	1.049308	-0.863101	-0.504573
H212	H	1.382641	-0.529768	-0.171240
H213	H	1.715974	-0.196434	0.162093
H214	H	1.125310	-0.869239	-0.587984
H215	H	1.458644	-0.535905	-0.254650
H216	H	1.791977	-0.202572	0.078683
C217	C	1.139123	-0.947502	-0.664997
C218	C	1.472456	-0.614169	-0.331663
C219	C	1.805790	-0.280835	0.001670
C220	C	1.129825	-1.005298	-0.611726
C221	C	1.463158	-0.671965	-0.278393
C222	C	1.796491	-0.338632	0.054940
H223	H	1.148880	-0.967458	-0.719940
H224	H	1.482214	-0.634125	-0.386607
H225	H	1.815547	-0.300791	-0.053273
H226	H	1.089966	-0.916265	-0.663972
H227	H	1.423300	-0.582931	-0.330639
H228	H	1.756633	-0.249598	0.002695
H229	H	1.184840	-0.919594	-0.647211
H230	H	1.518173	-0.586261	-0.313878
H231	H	1.851506	-0.252928	0.019456
H232	H	1.084104	-1.033203	-0.629508
H233	H	1.417437	-0.699869	-0.296175
H234	H	1.750771	-0.366536	0.037158
H235	H	1.178987	-1.036548	-0.612754
H236	H	1.512320	-0.703215	-0.279421
H237	H	1.845654	-0.369882	0.053912
C238	C	1.299637	-0.955539	-0.631087
C239	C	1.632971	-0.622206	-0.297754
C240	C	1.966304	-0.288872	0.035580
C241	C	1.289849	-1.012424	-0.576716
C242	C	1.623182	-0.679091	-0.243382
C243	C	1.956516	-0.345757	0.089951
H244	H	1.313184	-0.976396	-0.684902
H245	H	1.646517	-0.643062	-0.351569
H246	H	1.979850	-0.309729	-0.018235
H247	H	1.249338	-0.926082	-0.633621
H248	H	1.582672	-0.592748	-0.300287
H249	H	1.916005	-0.259415	0.033046
H250	H	1.343040	-0.925568	-0.611617
H251	H	1.676374	-0.592234	-0.278283
H252	H	2.009707	-0.258901	0.055050
H253	H	1.246442	-1.042392	-0.596183
H254	H	1.579775	-0.709059	-0.262849
H255	H	1.913109	-0.375725	0.070484
H256	H	1.340155	-1.041893	-0.574185
H257	H	1.673488	-0.708560	-0.240851
H258	H	2.006821	-0.375227	0.092482
H259	H	1.283324	-0.876618	-0.555216
H260	H	1.616657	-0.543285	-0.221883
H261	H	1.949990	-0.209951	0.111450
C262	C	1.379516	-0.926266	-0.398571
C263	C	1.712850	-0.592932	-0.065238
C264	C	2.046183	-0.259599	0.268095
C265	C	1.337394	-0.865553	-0.432958
C266	C	1.670727	-0.532219	-0.099625
C267	C	2.004061	-0.198886	0.233708
H268	H	1.422696	-0.909327	-0.363379
H269	H	1.756029	-0.575994	-0.030046
H270	H	2.089363	-0.242660	0.303288
H271	H	1.341768	-0.952274	-0.367168
H272	H	1.675102	-0.618941	-0.033835
H273	H	2.008435	-0.285608	0.299498
H274	H	1.402663	-0.958365	-0.441849
H275	H	1.735997	-0.625032	-0.108516
H276	H	2.069330	-0.291698	0.224818
H277	H	1.314242	-0.833456	-0.389681
H278	H	1.647575	-0.500123	-0.056347
H279	H	1.980908	-0.166789	0.276986
H280	H	1.375148	-0.839532	-0.464363
H281	H	1.708482	-0.506199	-0.131029
H282	H	2.041815	-0.172866	0.202304
H283	H	1.097679	-0.985231	-0.351756
H284	H	1.431013	-0.651898	-0.018423
H285	H	1.764346	-0.318564	0.314910
C286	C	1.219479	-1.074302	-0.304777
C287	C	1.552812	-0.740969	0.028556
C288	C	1.886145	-0.407635	0.361889
C289	C	1.223358	-0.997376	-0.307772
C290	C	1.556692	-0.664043	0.025561
C291	C	1.890025	-0.330710	0.358894
H292	H	1.257805	-1.092030	-0.264634
H293	H	1.591138	-0.758697	0.068699
H294	H	1.924471	-0.425363	0.402032
H295	H	1.164892	-1.086093	-0.289918
H296	H	1.498225	-0.752759	0.043415
H297	H	1.831559	-0.419426	0.376748
H298	H	1.233123	-1.096954	-0.357748
H299	H	1.566456	-0.763620	-0.024415
H300	H	1.899790	-0.430287	0.308918
H301	H	1.209708	-0.974724	-0.254803
H302	H	1.543041	-0.641391	0.078531
H303	H	1.876375	-0.308057	0.411864
H304	H	1.277958	-0.985579	-0.322627
H305	H	1.611291	-0.652246	0.010707
H306	H	1.944624	-0.318913	0.344040
C307	C	1.191569	-0.810784	-0.247549
C308	C	1.524902	-0.477450	0.085784
C309	C	1.858236	-0.144117	0.419118
C310	C	1.229670	-0.855912	-0.311033
C311	C	1.563003	-0.522579	0.022300
C312	C	1.896336	-0.189245	0.355634
H313	H	1.232606	-0.794015	-0.209659
H314	H	1.565939	-0.460682	0.123674
H315	H	1.899273	-0.127348	0.457007
H316	H	1.163343	-0.769401	-0.270825
H317	H	1.496677	-0.436068	0.062509
H318	H	1.830010	-0.102735	0.395842
H319	H	1.152928	-0.838336	-0.219101
H320	H	1.486261	-0.505002	0.114233
H321	H	1.819594	-0.171669	0.447566
H322	H	1.268307	-0.828358	-0.339486
H323	H	1.601640	-0.495025	-0.006152
H324	H	1.934974	-0.161691	0.327181
H325	H	1.257909	-0.897301	-0.287756
H326	H	1.591243	-0.563967	0.045578
H327	H	1.924576	-0.230634	0.378911
C328	C	1.259503	-0.364936	-0.852978
C329	C	1.592837	-0.031603	-0.519644
C330	C	1.926170	0.301731	-0.186311
C331	C	1.266516	-0.359014	-0.938925
C332	C	1.599849	-0.025681	-0.605592
C333	C	1.933183	0.307652	-0.272258
H334	H	1.297073	-0.333278	-0.825274
H335	H	1.630407	0.000055	-0.491940
H336	H	1.963740	0.333388	-0.158607
H337	H	1.204345	-0.350865	-0.835962
H338	H	1.537678	-0.017531	-0.502629
H339	H	1.871011	0.315802	-0.169296
H340	H	1.272351	-0.414681	-0.839408
H341	H	1.605684	-0.081348	-0.506075
H342	H	1.939017	0.251985	-0.172741
H343	H	1.253663	-0.309270	-0.952496
H344	H	1.586996	0.024063	-0.619162
H345	H	1.920329	0.357397	-0.285829
H346	H	1.321687	-0.373081	-0.955947
H347	H	1.655021	-0.039748	-0.622613
H348	H	1.988354	0.293585	-0.289280
H349	H	1.319432	-0.999364	-0.446722
H350	H	1.652765	-0.666031	-0.113389
H351	H	1.986098	-0.332698	0.219945
