data_functionalizedCrystal
_audit_creation_method	'MofGen! by Chris Wilmer'
_symmetry_space_group_name_H-M	'P1'
_symmetry_Int_Tables_number	1
_symmetry_cell_setting	triclinic
loop_
_symmetry_equiv_pos_as_xyz
  x,y,z
_cell_length_a	17.917603
_cell_length_b	23.196402
_cell_length_c	23.196402
_cell_angle_alpha	90.005244
_cell_angle_beta	57.014580
_cell_angle_gamma	63.033869
loop_
_atom_site_label
_atom_site_type_symbol
_atom_site_fract_x
_atom_site_fract_y
_atom_site_fract_z
Zr1	Zr	0.818615	0.584136	-0.104429
O2	O	0.974641	0.497561	-0.201965
O3	O	0.662588	0.606873	-0.070725
O4	O	0.818612	0.612347	-0.196478
O5	O	0.818619	0.492095	0.018659
O6	O	0.818611	0.707218	-0.196478
O7	O	0.818617	0.492087	-0.076211
O8	O	0.539512	0.697427	0.028473
O9	O	1.097718	0.501886	-0.206291
O10	O	0.726763	0.691966	-0.060946
O11	O	0.726766	0.621171	0.009854
O12	O	0.910464	0.627616	-0.138205
O13	O	0.910467	0.556820	-0.067405
Zr14	Zr	0.818615	0.735458	0.046879
Zr15	Zr	0.818612	0.735445	-0.104427
Zr16	Zr	0.818618	0.584149	0.046878
Zr17	Zr	1.014908	0.591035	-0.111329
Zr18	Zr	0.622322	0.728559	0.053780
O19	O	0.974641	0.712721	0.013175
O20	O	0.974637	0.712702	-0.201963
O21	O	0.974646	0.497579	0.013174
O22	O	0.662588	0.822033	0.144415
O23	O	0.662584	0.822015	-0.070723
O24	O	0.662593	0.606892	0.144414
O25	O	0.818611	0.827499	-0.076208
O26	O	0.818617	0.707247	0.138929
O27	O	0.818619	0.612376	0.138928
O28	O	0.818612	0.827507	0.018661
O29	O	1.097716	0.622157	-0.206291
O30	O	0.539514	0.697437	0.148741
O31	O	0.539512	0.817708	0.148742
O32	O	0.539509	0.817697	0.028474
O33	O	1.097720	0.501897	-0.086023
O34	O	1.097718	0.622167	-0.086022
O35	O	0.726766	0.691979	0.080655
O36	O	0.726763	0.762774	0.009855
O37	O	0.910464	0.698423	-0.067404
O38	O	0.910467	0.627628	0.003396
C39	C	0.573082	0.651167	-0.020143
C40	C	0.489751	0.648238	-0.017213
C41	C	0.818619	0.659813	0.160487
C42	C	0.818620	0.659819	0.224720
C43	C	0.818611	0.849061	-0.028773
C44	C	0.818610	0.913296	-0.028773
C45	C	0.337182	0.642887	-0.011863
C46	C	0.300043	0.676705	-0.045684
C47	C	0.215148	0.673728	-0.042708
C48	C	0.422084	0.645864	-0.014839
C49	C	1.064147	0.668427	-0.037407
C50	C	1.147479	0.671356	-0.040336
C51	C	0.818619	0.470533	-0.028776
C52	C	0.818620	0.406298	-0.028777
C53	C	0.722723	0.977059	0.011559
C54	C	0.722721	1.037415	0.011556
C55	C	0.818612	1.034002	-0.028770
C56	C	0.914512	0.970227	-0.069111
C57	C	0.914511	0.909874	-0.069112
C58	C	0.892079	1.103886	-0.026074
C59	C	0.892076	1.164240	-0.026067
C60	C	0.818620	1.220150	-0.028771
C61	C	0.745149	1.215706	-0.031466
C62	C	0.745148	1.155353	-0.031467
C63	C	0.818625	1.099441	-0.028774
C64	C	0.722725	1.349360	0.011559
C65	C	0.722728	1.409715	0.011551
C66	C	0.914522	1.342525	-0.069111
C67	C	0.914516	1.282172	-0.069107
C68	C	0.818615	1.285595	-0.028768
C69	C	0.818611	0.659781	-0.218036
C70	C	0.818610	0.659775	-0.282270
C71	C	0.914507	0.626231	0.214567
C72	C	0.914509	0.626221	0.274921
C73	C	0.818617	0.659812	0.345429
C74	C	0.722717	0.693400	0.355580
C75	C	0.722719	0.693404	0.295225
C76	C	0.745151	0.719132	0.471949
C77	C	0.745153	0.719131	0.532300
C78	C	0.818609	0.659800	0.531583
C79	C	0.892080	0.600471	0.470499
C80	C	0.892082	0.600474	0.410145
C81	C	0.818605	0.659811	0.410877
C82	C	0.914505	0.626198	0.586870
C83	C	0.914502	0.626185	0.647227
C84	C	0.722708	0.693371	0.727885
C85	C	0.722713	0.693377	0.667528
C86	C	0.818615	0.659792	0.597023
C87	C	0.573079	0.840431	-0.020141
C88	C	0.489746	0.901737	-0.017211
C89	C	0.573086	0.651183	0.169118
C90	C	0.489756	0.648260	0.236282
C91	C	0.573082	0.840448	0.169120
C92	C	0.489751	0.901759	0.236284
C93	C	1.064147	0.479146	-0.226669
C94	C	1.147479	0.417835	-0.293833
C95	C	1.064151	0.479163	-0.037408
C96	C	1.147484	0.417857	-0.040338
C97	C	1.064143	0.668411	-0.226668
C98	C	1.147474	0.671334	-0.293831
C99	C	0.450612	0.893566	-0.052799
C100	C	0.372323	0.951164	-0.050060
C101	C	0.333164	1.016932	-0.011729
C102	C	0.372305	1.025102	0.023859
C103	C	0.450599	0.967505	0.021116
C104	C	0.450623	0.683848	0.304786
C105	C	0.372337	0.681099	0.367898
C106	C	0.333179	0.642765	0.362505
C107	C	0.372320	0.607173	0.293993
C108	C	0.450610	0.609919	0.230882
C109	C	0.450616	0.967512	0.230868
C110	C	0.372328	1.025126	0.293969
C111	C	0.333171	1.016986	0.362485
C112	C	0.372314	0.951226	0.367900
C113	C	0.450606	0.893613	0.304799
C114	C	1.186623	0.352082	-0.288417
C115	C	1.264935	0.294469	-0.351519
C116	C	1.304096	0.302609	-0.420036
C117	C	1.264949	0.368369	-0.425450
C118	C	1.186643	0.425981	-0.362349
C119	C	1.186626	0.426028	-0.004757
C120	C	1.264937	0.368431	-0.007513
C121	C	1.304098	0.302663	-0.045846
C122	C	1.264953	0.294493	-0.081432
C123	C	1.186649	0.352090	-0.078680
C124	C	1.186607	0.709674	-0.288414
C125	C	1.264894	0.712434	-0.351515
C126	C	1.304052	0.676850	-0.420032
C127	C	1.264911	0.638509	-0.425447
C128	C	1.186620	0.635753	-0.362347
H129	H	0.332007	0.707894	-0.076875
N130	N	0.253199	1.075847	0.426931
N131	N	0.218270	1.134550	0.422076
H132	H	0.161787	1.176124	0.467588
N133	N	0.297115	0.603746	0.027245
N134	N	0.358230	0.540719	0.009422
H135	H	0.329929	0.513073	0.037038
H136	H	0.482495	0.840020	-0.084021
N137	N	1.146658	0.493139	-0.367901
N138	N	1.102989	0.509583	-0.397866
H139	H	1.074753	0.557013	-0.401793
H140	H	1.367802	0.679100	-0.471407
N141	N	0.624757	0.727734	0.427593
N142	N	0.539146	0.757732	0.436647
H143	H	0.469957	0.781984	0.487507
N144	N	1.012451	0.591897	0.514844
N145	N	1.033845	0.624824	0.472178
H146	H	1.103021	0.600600	0.421310
N147	N	0.967100	0.539869	0.347763
N148	N	0.935814	0.512373	0.327240
H149	H	0.988793	0.469567	0.283185
H150	H	0.340421	0.944608	0.423694
H151	H	0.951895	0.552158	0.469910
N152	N	0.253175	1.075769	-0.008912
N153	N	0.218207	1.134489	0.025318
H154	H	0.161711	1.176042	0.027309
N155	N	0.332338	0.942822	-0.086410
N156	N	0.341087	0.968542	-0.135391
H157	H	0.312848	0.962650	-0.161062
H158	H	0.340411	1.078658	0.055067
N159	N	0.624771	1.352849	0.052744
N160	N	0.603377	1.326662	0.021324
H161	H	0.534196	1.329126	0.050410
H162	H	0.685334	0.767441	0.582030
H163	H	0.644632	0.979852	0.044405
H164	H	0.951915	1.167847	-0.023889
N165	N	0.490552	0.573583	0.160910
N166	N	0.481782	0.605448	0.119303
H167	H	0.509986	0.579785	0.069885
H168	H	0.340478	0.710085	0.423677
H169	H	0.644636	1.089341	0.044411
H170	H	0.685328	1.151737	-0.033663
N171	N	0.624765	0.727673	0.799905
N172	N	0.624775	0.727663	0.853787
H173	H	0.555600	0.751887	0.904656
N174	N	1.304961	0.227304	-0.120570
N175	N	1.296221	0.185086	-0.088075
H176	H	1.324476	0.137631	-0.115711
N177	N	0.670112	1.272819	-0.034222
N178	N	0.670124	1.326702	-0.034225
H179	H	0.617129	1.367041	-0.036169
H180	H	0.992596	0.857953	-0.101957
N181	N	1.304957	0.376663	-0.495447
N182	N	1.296220	0.350902	-0.537056
H183	H	1.324474	0.356757	-0.586494
H184	H	0.644642	1.461636	0.044389
N185	N	1.012465	1.339044	-0.110310
N186	N	1.012455	1.392934	-0.110309
H187	H	1.081630	1.390477	-0.139410
N188	N	1.012453	0.591933	0.264565
N189	N	1.033814	0.624873	0.289263
H190	H	1.102985	0.600662	0.281951
N191	N	0.490555	0.975869	0.057475
N192	N	0.455574	1.034597	0.091696
H193	H	0.483790	1.040510	0.117377
N194	N	1.146641	0.493199	0.034408
N195	N	1.181616	0.500473	0.066167
H196	H	1.153385	0.547911	0.093827
N197	N	0.624767	0.727706	0.305596
N198	N	0.560565	0.709775	0.339327
H199	H	0.491385	0.734001	0.346651
H200	H	0.482497	0.715063	0.309191
H201	H	0.992598	1.230252	-0.101946
H202	H	0.269430	0.640535	0.413900
N203	N	0.624756	0.727691	0.677909
N204	N	0.539144	0.757678	0.740864
H205	H	0.469956	0.781913	0.748199
N206	N	1.304876	0.227304	-0.345972
N207	N	1.296122	0.185074	-0.371092
H208	H	1.324321	0.137640	-0.367171
N209	N	0.967136	1.046779	-0.023324
N210	N	1.032723	1.050755	-0.020915
H211	H	1.085735	1.010423	-0.018976
N212	N	1.012454	0.966750	-0.110305
N213	N	1.012443	1.020641	-0.110299
H214	H	1.081617	1.018185	-0.139396
N215	N	0.490629	0.975826	0.160879
N216	N	0.560537	0.924389	0.104537
H217	H	0.588798	0.930264	0.055108
N218	N	0.332367	1.092288	0.288415
N219	N	0.367335	1.099540	0.227233
H220	H	0.339115	1.146971	0.223307
N221	N	1.012455	0.591904	0.142545
N222	N	1.012448	0.591899	0.088662
H223	H	1.081623	0.567649	0.037794
H224	H	1.296806	0.609538	-0.481242
H225	H	1.296796	0.375097	0.021468
H226	H	0.992588	0.598830	0.638953
N227	N	0.670097	0.779746	0.472703
N228	N	0.604512	0.832712	0.527240
H229	H	0.551504	0.875519	0.527774
N230	N	1.146639	0.343744	-0.218440
N231	N	1.181615	0.285026	-0.213628
H232	H	1.153385	0.279131	-0.164209
H233	H	0.340426	0.575963	0.289613
H234	H	1.367859	0.255770	-0.048081
N235	N	1.146629	0.746029	-0.218437
N236	N	1.181586	0.780261	-0.213624
H237	H	1.153352	0.805943	-0.164204
H238	H	0.482459	0.840076	0.309219
H239	H	1.367857	0.255692	-0.471411
N240	N	1.304852	0.751604	-0.345960
N241	N	1.269883	0.783363	-0.284778
H242	H	1.298101	0.811028	-0.280852
H243	H	1.154782	0.345427	-0.107652
N244	N	1.146664	0.596583	-0.367899
N245	N	1.181645	0.564817	-0.429083
H246	H	1.153430	0.537152	-0.433010
