data_functionalizedCrystal
_audit_creation_method	'MofGen! by Chris Wilmer'
_symmetry_space_group_name_H-M	'P1'
_symmetry_Int_Tables_number	1
_symmetry_cell_setting	triclinic
loop_
_symmetry_equiv_pos_as_xyz
  x,y,z
_cell_length_a	14.971486
_cell_length_b	10.868271
_cell_length_c	11.792241
_cell_angle_alpha	90.005281
_cell_angle_beta	83.903772
_cell_angle_gamma	89.999359
loop_
_atom_site_label
_atom_site_type_symbol
_atom_site_fract_x
_atom_site_fract_y
_atom_site_fract_z
O1	O	1.187537	0.102181	0.147907
O2	O	1.687537	0.602181	0.647907
O3	O	0.927208	0.102215	0.165620
O4	O	1.427208	0.602215	0.665620
O5	O	1.063690	0.102188	-0.008448
O6	O	1.563690	0.602188	0.491552
O7	O	1.051055	0.102207	0.321975
O8	O	1.551055	0.602207	0.821975
O9	O	1.063679	-0.102456	-0.008454
O10	O	1.563679	0.397544	0.491546
O11	O	0.927197	-0.102430	0.165613
O12	O	1.427197	0.397570	0.665613
O13	O	1.187526	-0.102464	0.147901
O14	O	1.687526	0.397536	0.647901
Zn15	Zn	1.057359	-0.134938	0.156756
Zn16	Zn	1.557359	0.365062	0.656756
Zn17	Zn	1.057374	0.134690	0.156765
Zn18	Zn	1.557374	0.634690	0.656765
O19	O	1.051044	-0.102437	0.321968
O20	O	1.551044	0.397563	0.821968
C21	C	0.893874	-0.000103	0.164824
C22	C	1.393874	0.499897	0.664824
C23	C	0.794568	-0.000091	0.162451
C24	C	1.294568	0.499909	0.662451
N25	N	1.057356	-0.318953	0.156749
N26	N	1.557356	0.181047	0.656749
C27	C	0.737752	-0.000087	0.264710
C28	C	1.237752	0.499913	0.764710
C29	C	0.644444	-0.000105	0.262473
C30	C	1.144444	0.499895	0.762473
C31	C	0.607953	-0.000119	0.157975
C32	C	1.107953	0.499881	0.657975
C33	C	0.664776	-0.000127	0.055707
C34	C	1.164776	0.499873	0.555707
C35	C	0.758082	-0.000117	0.057946
C36	C	1.258082	0.499883	0.557946
C37	C	0.470294	-0.000144	0.051049
C38	C	0.970294	0.499856	0.551049
C39	C	0.376981	-0.000151	0.048810
C40	C	0.876981	0.499849	0.548810
C41	C	0.356656	-0.000132	0.255577
C42	C	0.856656	0.499868	0.755577
C43	C	0.449963	-0.000122	0.257815
C44	C	0.949963	0.499878	0.757815
C45	C	0.506779	-0.000128	0.155547
C46	C	1.006779	0.499872	0.655547
C47	C	1.057370	-0.569959	0.156762
C48	C	1.557370	-0.069959	0.656762
C49	C	1.057359	-0.430281	0.156758
C50	C	1.557359	0.069719	0.656758
C51	C	1.220859	-0.000143	0.148696
C52	C	1.720859	0.499857	0.648696
C53	C	1.320166	-0.000147	0.151070
C54	C	1.820166	0.499853	0.651070
C55	C	1.062891	-0.000133	-0.050737
C56	C	1.562891	0.499867	0.449263
C57	C	1.060515	-0.000132	-0.176735
C58	C	1.560515	0.499868	0.323265
N59	N	1.057385	0.318704	0.156762
N60	N	1.557385	0.818704	0.656762
C61	C	1.056147	-0.000111	-0.407419
C62	C	1.556147	0.499889	0.092581
C63	C	1.058574	-0.000122	-0.279050
C64	C	1.558574	0.499878	0.220950
C65	C	1.051843	-0.000113	0.364257
C66	C	1.551843	0.499887	0.864257
C67	C	1.054219	-0.000106	0.490256
C68	C	1.554219	0.499894	0.990256
H69	H	0.598187	-0.000100	0.345744
H70	H	1.098187	0.499900	0.845744
O71	O	0.301508	0.000084	0.354955
O72	O	0.801508	0.500084	0.854955
C73	C	0.318134	0.106068	0.418402
C74	C	0.818134	0.606068	0.918402
H75	H	0.349721	0.180144	0.358524
H76	H	0.849721	0.680144	0.858524
H77	H	0.365962	0.082123	0.484158
H78	H	0.865962	0.582123	0.984158
C79	C	0.190220	0.063138	0.553312
C80	C	0.690220	0.563138	1.053312
C81	C	0.229009	0.154124	0.479767
C82	C	0.729009	0.654124	0.979767
H83	H	0.135245	0.092779	0.591170
H84	H	0.635245	0.592779	1.091170
H85	H	0.179020	-0.008268	0.510570
H86	H	0.679020	0.491732	1.010570
H87	H	0.230085	0.043193	0.608099
H88	H	0.730085	0.543193	1.108099
H89	H	0.189148	0.174057	0.424974
H90	H	0.689148	0.674057	0.924974
H91	H	0.240200	0.225534	0.522502
H92	H	0.740200	0.725534	1.022502
H93	H	0.516553	-0.000150	-0.032229
H94	H	1.016553	0.499850	0.467771
H95	H	0.635057	-0.000156	-0.029377
H96	H	1.135057	0.499844	0.470623
O97	O	0.813404	-0.000170	-0.041284
O98	O	1.313404	0.499830	0.458716
C99	C	0.903583	-0.000131	-0.016903
C100	C	1.403583	0.499869	0.483097
H101	H	0.907592	-0.038866	0.072250
H102	H	1.407592	0.461134	0.572250
H103	H	0.930539	0.098049	-0.021167
H104	H	1.430539	0.598049	0.478833
C105	C	0.955338	-0.032815	-0.214440
C106	C	1.455338	0.467185	0.285560
C107	C	0.960263	-0.080399	-0.104944
C108	C	1.460263	0.419601	0.395056
H109	H	0.990303	-0.082322	-0.268750
H110	H	1.490303	0.417678	0.231250
H111	H	0.894583	-0.032837	-0.230868
H112	H	1.394583	0.467163	0.269132
H113	H	0.977800	0.049001	-0.217977
H114	H	1.477800	0.549001	0.282023
H115	H	0.937791	-0.162207	-0.101405
H116	H	1.437791	0.337793	0.398595
H117	H	1.021015	-0.080393	-0.088517
H118	H	1.521015	0.419607	0.411483
H119	H	0.767455	-0.000075	0.349805
H120	H	1.267455	0.499925	0.849805
H121	H	0.479670	-0.000099	0.342907
H122	H	0.979670	0.499901	0.842907
H123	H	0.347274	-0.000164	-0.036282
H124	H	0.847274	0.499836	0.463718
