data_functionalizedCrystal
_audit_creation_method	'MofGen! by Chris Wilmer'
_symmetry_space_group_name_H-M	'P1'
_symmetry_Int_Tables_number	1
_symmetry_cell_setting	triclinic
loop_
_symmetry_equiv_pos_as_xyz
  x,y,z
_cell_length_a	15.944551
_cell_length_b	14.971486
_cell_length_c	14.048226
_cell_angle_alpha	90.001501
_cell_angle_beta	89.992615
_cell_angle_gamma	96.443566
loop_
_atom_site_label
_atom_site_type_symbol
_atom_site_fract_x
_atom_site_fract_y
_atom_site_fract_z
O1	O	0.109463	-1.186829	-0.079053
O2	O	0.442797	-0.853496	0.254280
O3	O	0.776130	-0.520162	0.587613
O4	O	0.122572	-0.926415	-0.079079
O5	O	0.455905	-0.593081	0.254254
O6	O	0.789238	-0.259748	0.587587
O7	O	-0.006251	-1.063733	-0.079057
O8	O	0.327083	-0.730400	0.254276
O9	O	0.660416	-0.397066	0.587610
O10	O	0.238286	-1.049510	-0.079076
O11	O	0.571619	-0.716177	0.254258
O12	O	0.904952	-0.382844	0.587591
O13	O	-0.006258	-1.063717	0.079264
O14	O	0.327075	-0.730383	0.412598
O15	O	0.660408	-0.397050	0.745931
O16	O	0.122564	-0.926398	0.079242
O17	O	0.455897	-0.593065	0.412575
O18	O	0.789231	-0.259731	0.745909
O19	O	0.109456	-1.186812	0.079268
O20	O	0.442789	-0.853479	0.412601
O21	O	0.776122	-0.520146	0.745935
Zn22	Zn	0.116009	-1.056603	0.104392
Zn23	Zn	0.449342	-0.723269	0.437725
Zn24	Zn	0.782675	-0.389936	0.771059
Zn25	Zn	0.116019	-1.056624	-0.104203
Zn26	Zn	0.449352	-0.723291	0.229130
Zn27	Zn	0.782685	-0.389958	0.562463
O28	O	0.238278	-1.049494	0.079246
O29	O	0.571611	-0.716161	0.412579
O30	O	0.904945	-0.382827	0.745912
C31	C	0.121982	-0.893082	0.000078
C32	C	0.455315	-0.559749	0.333411
C33	C	0.788648	-0.226416	0.666745
C34	C	0.120225	-0.793787	0.000068
C35	C	0.453558	-0.460454	0.333402
C36	C	0.786892	-0.127120	0.666735
C37	C	-0.037549	-1.063134	0.000104
C38	C	0.295784	-0.729801	0.333437
C39	C	0.629118	-0.396468	0.666770
C40	C	-0.130797	-1.061364	0.000104
C41	C	0.202537	-0.728031	0.333437
C42	C	0.535870	-0.394698	0.666771
N43	N	0.116001	-1.056594	0.246753
N44	N	0.449335	-0.723261	0.580086
N45	N	0.782668	-0.389928	0.913419
C46	C	-0.345738	-0.972017	0.000082
C47	C	-0.012405	-0.638683	0.333415
C48	C	0.320928	-0.305350	0.666749
C49	C	-0.406720	-1.013499	0.078148
C50	C	-0.073387	-0.680165	0.411482
C51	C	0.259947	-0.346832	0.744815
C52	C	-0.301526	-1.058162	0.000096
C53	C	0.031808	-0.724829	0.333430
C54	C	0.365141	-0.391495	0.666763
C55	C	-0.406696	-1.013535	-0.077944
C56	C	-0.073362	-0.680202	0.255389
C57	C	0.259971	-0.346869	0.588722
C58	C	-0.466441	-1.055062	0.000085
C59	C	-0.133108	-0.721729	0.333418
C60	C	0.200225	-0.388396	0.666752
C61	C	-0.361279	-1.099667	0.078227
C62	C	-0.027946	-0.766334	0.411560
C63	C	0.305388	-0.433001	0.744894
C64	C	-0.361248	-1.099692	-0.077935
C65	C	-0.027915	-0.766359	0.255398
C66	C	0.305418	-0.433025	0.588731
C67	C	-0.422212	-1.141236	0.000150
C68	C	-0.088879	-0.807903	0.333483
C69	C	0.244454	-0.474570	0.666816
C70	C	-0.206522	-1.059945	0.000104
C71	C	0.126812	-0.726612	0.333437
C72	C	0.460145	-0.393278	0.666771
C73	C	-0.561444	-1.053286	0.000084
C74	C	-0.228111	-0.719952	0.333418
C75	C	0.105223	-0.386619	0.666751
C76	C	0.269576	-1.050093	0.000083
C77	C	0.602910	-0.716759	0.333416
C78	C	0.936243	-0.383426	0.666750
C79	C	0.362824	-1.051863	0.000076
C80	C	0.696157	-0.718529	0.333410
C81	C	1.029491	-0.385196	0.666743
C82	C	0.110046	-1.220145	0.000109
C83	C	0.443379	-0.886811	0.333442
C84	C	0.776712	-0.553478	0.666775
C85	C	0.111802	-1.319440	0.000112
C86	C	0.445136	-0.986107	0.333445
C87	C	0.778469	-0.652773	0.666779
C88	C	0.195904	-0.736480	0.000064
C89	C	0.529238	-0.403147	0.333397
C90	C	0.862571	-0.069813	0.666731
C91	C	0.194249	-0.643182	0.000078
C92	C	0.527582	-0.309849	0.333412
C93	C	0.860915	0.023484	0.666745
C94	C	0.116913	-0.607194	0.000090
C95	C	0.450246	-0.273860	0.333423
C96	C	0.783579	0.059473	0.666757
C97	C	0.041227	-0.664508	0.000097
C98	C	0.374561	-0.331175	0.333431
C99	C	0.707894	0.002159	0.666764
C100	C	0.042884	-0.757804	0.000090
C101	C	0.376217	-0.424470	0.333423
C102	C	0.709550	-0.091137	0.666757
C103	C	0.037780	-0.470049	0.000111
C104	C	0.371113	-0.136716	0.333444
C105	C	0.704447	0.196618	0.666777
C106	C	0.036123	-0.376747	0.000116
C107	C	0.369456	-0.043414	0.333450
C108	C	0.702790	0.289920	0.666783
C109	C	0.189145	-0.355428	0.000099
C110	C	0.522478	-0.022094	0.333432
C111	C	0.855811	0.311239	0.666766
C112	C	0.190801	-0.448724	0.000092
C113	C	0.524135	-0.115390	0.333425
C114	C	0.857468	0.217943	0.666758
C115	C	0.115116	-0.506032	0.000097
C116	C	0.448449	-0.172698	0.333430
C117	C	0.781782	0.160635	0.666764
N118	N	0.116019	-1.056640	-0.246564
N119	N	0.449353	-0.723306	0.086769
N120	N	0.782686	-0.389973	0.420103
C121	C	0.058982	-1.117418	0.296581
C122	C	0.392316	-0.784085	0.629914
C123	C	0.725649	-0.450751	0.963247
C124	C	0.058982	-1.117424	0.396238
C125	C	0.392315	-0.784091	0.729572
C126	C	0.725649	-0.450757	1.062905
C127	C	0.116005	-1.056610	0.446066
C128	C	0.449338	-0.723277	0.779399
C129	C	0.782672	-0.389943	1.112733
C130	C	0.173027	-0.995780	0.396231
C131	C	0.506360	-0.662446	0.729565
C132	C	0.839693	-0.329113	1.062898
C133	C	0.173022	-0.995770	0.296575
C134	C	0.506356	-0.662437	0.629909
C135	C	0.839689	-0.329103	0.963242
C136	C	0.173033	-0.995806	0.603945
C137	C	0.506366	-0.662472	0.937279
C138	C	0.839699	-0.329139	1.270612
C139	C	0.173038	-0.995816	0.703608
C140	C	0.506372	-0.662483	1.036941
C141	C	0.839705	-0.329149	1.370275
C142	C	0.058992	-1.117459	0.703608
C143	C	0.392326	-0.784126	1.036942
C144	C	0.725659	-0.450793	1.370275
C145	C	0.058988	-1.117450	0.603952
C146	C	0.392321	-0.784117	0.937286
C147	C	0.725655	-0.450783	1.270619
C148	C	0.116011	-1.056621	0.554124
C149	C	0.449344	-0.723287	0.887458
C150	C	0.782678	-0.389954	1.220791
H151	H	-0.312499	-0.900512	0.000153
H152	H	0.020835	-0.567179	0.333486
H153	H	0.354168	-0.233846	0.666819
F154	F	0.269696	-0.294436	0.000095
F155	F	0.603029	0.038898	0.333428
F156	F	0.936363	0.372231	0.666762
H157	H	-0.341257	-1.136066	0.144298
H158	H	-0.007924	-0.802732	0.477632
H159	H	0.325410	-0.469399	0.810965
H160	H	-0.026851	-0.347448	0.000127
H161	H	0.306482	-0.014115	0.333461
H162	H	0.639816	0.319219	0.666794
F163	F	0.233729	-0.931088	0.756632
F164	F	0.567063	-0.597754	1.089965
F165	F	0.900396	-0.264421	1.423298
F166	F	0.233722	-0.931060	0.550919
F167	F	0.567055	-0.597727	0.884252
F168	F	0.900388	-0.264394	1.217586
H169	H	-0.023852	-0.516708	0.000117
H170	H	0.309482	-0.183374	0.333450
H171	H	0.642815	0.149959	0.666783
F172	F	0.278218	-0.774773	0.000045
F173	F	0.611551	-0.441440	0.333378
F174	F	0.944884	-0.108106	0.666711
F175	F	-0.432997	-0.965900	-0.164203
F176	F	-0.099664	-0.632567	0.169130
F177	F	0.233669	-0.299233	0.502464
H178	H	-0.426866	-0.977056	0.144140
H179	H	-0.093533	-0.643722	0.477473
H180	H	0.239801	-0.310389	0.810806
H181	H	0.255875	-0.596526	0.000074
H182	H	0.589208	-0.263193	0.333407
H183	H	0.922542	0.070141	0.666740
F184	F	-0.041080	-0.626203	0.000116
F185	F	0.292253	-0.292870	0.333450
F186	F	0.625587	0.040463	0.666783
F187	F	-0.001694	-1.182199	0.756643
F188	F	0.331639	-0.848865	1.089976
F189	F	0.664972	-0.515532	1.423309
H190	H	-0.341080	-1.136103	-0.143930
H191	H	-0.007747	-0.802770	0.189403
H192	H	0.325586	-0.469437	0.522736
F193	F	-0.465466	-1.234779	0.000214
F194	F	-0.132133	-0.901445	0.333547
F195	F	0.201200	-0.568112	0.666881
F196	F	-0.037665	-0.818794	0.000098
F197	F	0.295669	-0.485461	0.333431
F198	F	0.629002	-0.152128	0.666765
H199	H	0.012560	-1.166973	0.563383
H200	H	0.345893	-0.833640	0.896716
H201	H	0.679226	-0.500307	1.230049
H202	H	0.219453	-0.946259	0.436807
H203	H	0.552787	-0.612926	0.770140
H204	H	0.886120	-0.279593	1.103473
H205	H	0.253775	-0.478022	0.000073
H206	H	0.587109	-0.144689	0.333406
H207	H	0.920442	0.188644	0.666739
F208	F	-0.001707	-1.182150	0.243559
F209	F	0.331627	-0.848817	0.576893
F210	F	0.664960	-0.515484	0.910226
F211	F	-0.001705	-1.182158	0.449269
F212	F	0.331629	-0.848825	0.782602
F213	F	0.664962	-0.515492	1.115936
H214	H	0.219452	-0.946240	0.256006
H215	H	0.552785	-0.612907	0.589340
H216	H	0.886119	-0.279574	0.922673
