data_functionalizedCrystal
_audit_creation_method	'MofGen! by Chris Wilmer'
_symmetry_space_group_name_H-M	'P1'
_symmetry_Int_Tables_number	1
_symmetry_cell_setting	triclinic
loop_
_symmetry_equiv_pos_as_xyz
  x,y,z
_cell_length_a	12.759395
_cell_length_b	19.120786
_cell_length_c	12.759387
_cell_angle_alpha	87.523566
_cell_angle_beta	89.978972
_cell_angle_gamma	92.465960
loop_
_atom_site_label
_atom_site_type_symbol
_atom_site_fract_x
_atom_site_fract_y
_atom_site_fract_z
Zn1	Zn	1.588348	-0.279580	-0.576135
Zn2	Zn	1.580709	-0.397056	-0.392940
Zn3	Zn	1.412644	-0.279617	-0.400468
Zn4	Zn	1.405112	-0.397004	-0.568581
O5	O	1.496704	-0.338314	-0.484531
O6	O	1.734356	-0.295170	-0.551845
O7	O	1.558370	-0.381514	-0.246915
O8	O	1.442301	-0.181321	-0.430082
O9	O	1.728743	-0.381479	-0.417252
O10	O	1.571390	-0.181294	-0.559144
O11	O	1.434894	-0.295233	-0.252446
O12	O	1.264624	-0.295183	-0.422757
O13	O	1.429464	-0.381391	-0.716607
O14	O	1.259091	-0.381426	-0.546270
O15	O	1.564087	-0.295120	-0.722156
O16	O	1.551067	-0.495340	-0.409928
O17	O	1.422057	-0.495302	-0.538971
C18	C	1.223737	-0.338303	-0.484511
C19	C	1.106959	-0.338316	-0.484527
C20	C	0.893358	-0.248603	-0.624919
C21	C	0.951143	-0.203732	-0.695086
C22	C	1.060865	-0.203720	-0.695069
C23	C	1.112805	-0.248585	-0.624879
C24	C	1.055021	-0.293456	-0.554711
C25	C	0.945297	-0.293462	-0.554734
C26	C	1.049175	-0.383187	-0.414359
C27	C	0.939453	-0.383197	-0.414370
C28	C	1.101115	-0.428052	-0.344169
C29	C	1.043331	-0.472921	-0.273995
C30	C	0.933603	-0.472931	-0.274014
C31	C	0.881669	-0.428068	-0.344203
C32	C	1.484944	-0.520807	-0.472836
C33	C	1.480009	-0.598878	-0.467867
C34	C	1.544851	-0.635481	-0.532784
C35	C	1.540210	-0.708837	-0.528117
C36	C	1.470732	-0.745588	-0.458529
C37	C	1.405884	-0.708980	-0.393610
C38	C	1.410520	-0.635625	-0.398282
C39	C	1.453369	-0.967075	-0.441062
C40	C	1.448739	-1.040435	-0.436392
C41	C	1.583065	-1.040288	-0.570901
C42	C	1.587699	-0.966932	-0.575563
C43	C	1.522847	-0.930329	-0.510648
C44	C	1.465989	-0.820570	-0.453755
C45	C	1.527586	-0.855349	-0.515428
C46	C	1.770736	-0.338326	-0.484552
C47	C	1.887513	-0.338331	-0.484560
C48	C	1.496787	-0.338246	-0.758569
C49	C	1.496823	-0.338216	-0.875348
C50	C	1.508538	-0.155110	-0.496295
C51	C	1.513581	-0.077039	-0.501308
C52	C	1.637014	-0.248388	-0.881146
C53	C	1.707125	-0.203464	-0.938907
C54	C	1.707153	-0.203438	-1.048630
C55	C	1.637059	-0.248341	-1.100595
C56	C	1.566948	-0.293265	-1.042834
C57	C	1.566931	-0.293287	-0.933109
C58	C	1.426753	-0.383088	-1.037036
C59	C	1.426730	-0.383119	-0.927313
C60	C	1.356660	-0.427991	-1.089001
C61	C	1.286552	-0.472920	-1.031240
C62	C	1.286529	-0.472944	-0.921510
C63	C	1.356619	-0.428043	-0.869552
C64	C	1.496684	-0.338332	-0.211562
C65	C	1.496864	-0.338164	-0.094797
H66	H	1.085630	-0.509451	-0.216857
C67	C	1.637085	-0.248308	-1.221288
H68	H	1.688880	-0.215123	-1.248245
H69	H	1.570077	-0.236151	-1.246878
H70	H	1.652333	-0.293633	-1.243200
H71	H	1.601431	-0.605563	-0.589445
H72	H	1.356683	-0.427964	-1.178344
C73	C	1.611539	-0.749098	-0.599522
H74	H	1.653590	-0.716704	-0.641625
H75	H	1.569521	-0.777714	-0.643445
H76	H	1.655530	-0.777707	-0.557543
C77	C	0.760978	-0.428079	-0.344224
H78	H	0.733999	-0.461225	-0.292380
H79	H	0.735411	-0.440279	-0.411216
H80	H	0.739064	-0.382737	-0.329070
C81	C	1.329462	-0.749404	-0.317062
H82	H	1.335995	-0.798334	-0.323567
H83	H	1.259620	-0.737418	-0.333134
H84	H	1.345643	-0.737405	-0.247247
H85	H	1.644274	-0.937010	-0.632227
C86	C	1.784270	-0.154025	-1.112174
H87	H	1.774238	-0.160440	-1.184962
H88	H	1.854192	-0.164313	-1.093544
H89	H	1.771939	-0.106830	-1.097228
C90	C	1.209462	-0.522306	-1.088402
H91	H	1.219521	-0.515857	-1.162021
H92	H	1.139533	-0.512029	-1.071067
H93	H	1.221791	-0.569508	-1.067395
H94	H	1.635863	-1.070097	-0.623752
C95	C	1.356590	-0.428069	-0.748860
H96	H	1.304801	-0.461256	-0.721898
H97	H	1.341356	-0.382745	-0.726953
H98	H	1.423599	-0.440233	-0.723268
C99	C	0.894012	-0.154385	-0.772296
H100	H	0.944142	-0.127665	-0.814088
H101	H	0.853154	-0.123751	-0.734159
H102	H	0.849509	-0.181301	-0.816292
H103	H	1.392157	-1.070356	-0.379724
H104	H	1.357718	-0.605823	-0.345422
C105	C	1.784226	-0.154078	-0.881744
H106	H	1.774179	-0.160530	-0.808124
H107	H	1.771915	-0.106878	-0.902756
H108	H	1.854156	-0.164369	-0.899078
C109	C	1.124430	-0.154363	-0.772251
H110	H	1.077787	-0.127642	-0.814053
H111	H	1.165531	-0.181266	-0.816224
H112	H	1.169177	-0.123721	-0.734083
H113	H	1.584151	-0.825424	-0.572091
C114	C	1.382048	-0.926822	-0.369644
H115	H	1.340018	-0.959218	-0.327523
H116	H	1.338052	-0.898212	-0.411605
H117	H	1.424081	-0.898208	-0.325723
C118	C	1.233496	-0.248575	-0.624865
H119	H	1.260471	-0.215425	-0.676705
H120	H	1.255411	-0.293914	-0.640006
H121	H	1.259067	-0.236365	-0.557873
C122	C	1.221807	-0.428038	-0.344146
H123	H	1.248784	-0.394884	-0.395979
H124	H	1.243729	-0.473376	-0.359289
H125	H	1.247367	-0.415831	-0.277149
C126	C	1.636992	-0.248417	-0.760454
H127	H	1.688772	-0.215240	-0.737778
H128	H	1.652215	-0.293752	-0.732722
H129	H	1.569973	-0.236263	-0.736402
C130	C	1.209423	-0.522374	-0.857981
H131	H	1.167697	-0.549116	-0.904647
H132	H	1.165371	-0.495524	-0.816883
H133	H	1.247644	-0.552994	-0.813232
H134	H	0.886561	-0.509474	-0.216880
H135	H	0.804018	-0.248593	-0.624919
H136	H	1.409423	-0.850501	-0.397093
