data_functionalizedCrystal
_audit_creation_method	'MofGen! by Chris Wilmer'
_symmetry_space_group_name_H-M	'P1'
_symmetry_Int_Tables_number	1
_symmetry_cell_setting	triclinic
loop_
_symmetry_equiv_pos_as_xyz
  x,y,z
_cell_length_a	17.639762
_cell_length_b	18.050582
_cell_length_c	17.640280
_cell_angle_alpha	78.781636
_cell_angle_beta	92.188400
_cell_angle_gamma	101.179815
loop_
_atom_site_label
_atom_site_type_symbol
_atom_site_fract_x
_atom_site_fract_y
_atom_site_fract_z
Zn1	Zn	1.221979	-0.175402	-0.067303
Zn2	Zn	1.721979	0.324598	0.432697
Zn3	Zn	1.247593	-0.022266	-0.194280
Zn4	Zn	1.747593	0.477734	0.305720
Zn5	Zn	1.095014	-0.070425	-0.093021
Zn6	Zn	1.595014	0.429575	0.406979
Zn7	Zn	1.120657	-0.165618	-0.219947
Zn8	Zn	1.620657	0.334382	0.280053
O9	O	1.171311	-0.108428	-0.143637
O10	O	1.671311	0.391572	0.356363
O11	O	1.331636	-0.139027	-0.062642
O12	O	1.831636	0.360973	0.437358
O13	O	1.227341	0.075272	-0.180869
O14	O	1.727341	0.575272	0.319131
O15	O	1.090405	-0.108600	0.016650
O16	O	1.590405	0.391400	0.516650
O17	O	1.350454	-0.026519	-0.155931
O18	O	1.850454	0.473481	0.344069
O19	O	1.183686	-0.185726	0.035545
O20	O	1.683686	0.314274	0.535545
O21	O	1.115242	0.039890	-0.106474
O22	O	1.615242	0.539890	0.393526
O23	O	0.992157	-0.099113	-0.131363
O24	O	1.492157	0.400887	0.368637
O25	O	1.134110	-0.270842	-0.199677
O26	O	1.634110	0.229158	0.300323
O27	O	1.010997	-0.169051	-0.224614
O28	O	1.510997	0.330949	0.275386
O29	O	1.208551	-0.278030	-0.087530
O30	O	1.708551	0.221970	0.412470
O31	O	1.252206	-0.017032	-0.303943
O32	O	1.752206	0.482968	0.196057
O33	O	1.158947	-0.122352	-0.322801
O34	O	1.658947	0.377648	0.177199
C35	C	0.974026	-0.138246	-0.183565
C36	C	1.474026	0.361754	0.316435
C37	C	0.889630	-0.151017	-0.200664
C38	C	1.389630	0.348983	0.299336
C39	C	0.780521	-0.205332	-0.273383
C40	C	1.280521	0.294668	0.226617
C41	C	0.859823	-0.193328	-0.257310
C42	C	1.359823	0.306672	0.242690
C43	C	0.840140	-0.120696	-0.160067
C44	C	1.340140	0.379304	0.339933
C45	C	0.760835	-0.132697	-0.176129
C46	C	1.260835	0.367303	0.323871
C47	C	0.731032	-0.175015	-0.232788
C48	C	1.231032	0.324985	0.267212
C49	C	0.711346	-0.102380	-0.135535
C50	C	1.211346	0.397620	0.364465
C51	C	0.632048	-0.114377	-0.151599
C52	C	1.132048	0.385623	0.348401
C53	C	0.602239	-0.156691	-0.208257
C54	C	1.102239	0.343309	0.291743
C55	C	0.651734	-0.187011	-0.248852
C56	C	1.151734	0.312989	0.251148
C57	C	0.741151	-0.060058	-0.078880
C58	C	1.241151	0.439942	0.421120
C59	C	0.691662	-0.029741	-0.038286
C60	C	1.191662	0.470259	0.461714
C61	C	0.612362	-0.041742	-0.054346
C62	C	1.112362	0.458258	0.445654
C63	C	0.582553	-0.084056	-0.111004
C64	C	1.082553	0.415944	0.388996
C65	C	0.562867	-0.011422	-0.013750
C66	C	1.062867	0.488578	0.486250
C67	C	0.483569	-0.023418	-0.029814
C68	C	0.983569	0.476582	0.470186
C69	C	0.503255	-0.096053	-0.127068
C70	C	1.003255	0.403947	0.372932
C71	C	1.171334	-0.302136	-0.143598
C72	C	1.671334	0.197864	0.356402
C73	C	1.171344	-0.384684	-0.143581
C74	C	1.671344	0.115316	0.356419
C75	C	1.130888	-0.580235	-0.204489
C76	C	1.630888	-0.080235	0.295511
C77	C	1.203921	-0.614916	-0.209023
C78	C	1.703921	-0.114916	0.290977
C79	C	1.171369	-0.535822	-0.143515
C80	C	1.671369	-0.035822	0.356485
C81	C	1.098370	-0.648222	-0.138953
C82	C	1.598370	-0.148222	0.361047
C83	C	1.171389	-0.681815	-0.143455
C84	C	1.671389	-0.181815	0.356545
C85	C	1.244447	-0.569401	-0.148078
C86	C	1.744447	-0.069401	0.351922
C87	C	1.138842	-0.602717	-0.077985
C88	C	1.638842	-0.102717	0.422015
C89	C	1.211918	-0.637374	-0.082483
C90	C	1.711918	-0.137374	0.417517
C91	C	1.171358	-0.451718	-0.143552
C92	C	1.671358	0.048282	0.356448
C93	C	1.171408	-0.765915	-0.143416
C94	C	1.671408	-0.265915	0.356584
C95	C	1.369367	-0.078493	-0.103554
C96	C	1.869367	0.421507	0.396446
C97	C	1.453766	-0.065736	-0.086474
C98	C	1.953766	0.434264	0.413526
C99	C	1.211159	-0.063418	-0.340920
C100	C	1.711159	0.436582	0.159080
C101	C	1.228276	-0.044177	-0.425304
C102	C	1.728276	0.455823	0.074696
C103	C	1.171321	0.084522	-0.143613
C104	C	1.671321	0.584522	0.356387
C105	C	1.171415	0.167042	-0.143387
C106	C	1.671415	0.667042	0.356613
C107	C	1.041589	-0.254823	-0.752102
C108	C	1.541589	0.245177	-0.252102
C109	C	1.057674	-0.236719	-0.831394
C110	C	1.557674	0.263281	-0.331394
C111	C	1.154845	-0.127136	-0.811680
C112	C	1.654845	0.372864	-0.311680
C113	C	1.138771	-0.145233	-0.732385
C114	C	1.638771	0.354767	-0.232385
C115	C	1.082141	-0.209077	-0.702603
C116	C	1.582141	0.290923	-0.202603
C117	C	1.179323	-0.099487	-0.682885
C118	C	1.679323	0.400513	-0.182885
C119	C	1.163247	-0.117580	-0.603597
C120	C	1.663247	0.382420	-0.103597
C121	C	1.106618	-0.181420	-0.573809
C122	C	1.606618	0.318580	-0.073809
C123	C	1.066065	-0.227170	-0.623315
C124	C	1.566065	0.272830	-0.123315
C125	C	1.235948	-0.035640	-0.712669
C126	C	1.735948	0.464360	-0.212669
C127	C	1.276501	0.010106	-0.663169
C128	C	1.776501	0.510106	-0.163169
C129	C	1.260428	-0.007990	-0.583879
C130	C	1.760428	0.492010	-0.083879
C131	C	1.203800	-0.071830	-0.554091
C132	C	1.703800	0.428170	-0.054091
C133	C	1.300982	0.037760	-0.534374
C134	C	1.800982	0.537760	-0.034374
C135	C	1.284906	0.019667	-0.455086
C136	C	1.784906	0.519667	0.044914
C137	C	1.187724	-0.089923	-0.474804
C138	C	1.687724	0.410077	0.025196
C139	C	1.131328	-0.153626	0.054419
C140	C	1.631328	0.346374	0.554419
C141	C	1.114289	-0.172887	0.138820
C142	C	1.614289	0.327113	0.638820
H143	H	0.627466	-0.221480	-0.294983
H144	H	1.127466	0.278520	0.205017
O145	O	1.090001	-0.550428	-0.265969
O146	O	1.590001	-0.050428	0.234031
C147	C	1.027385	-0.524365	-0.239396
C148	C	1.527385	-0.024365	0.260604
H149	H	1.012489	-0.555730	-0.177668
H150	H	1.512489	-0.055730	0.322332
H151	H	0.975146	-0.536438	-0.278299
H152	H	1.475146	-0.036438	0.221701
H153	H	1.043885	-0.459853	-0.240732
H154	H	1.543885	0.040147	0.259268
O155	O	1.318171	-0.528841	-0.152840
O156	O	1.818171	-0.028841	0.347160
C157	C	1.352421	-0.535052	-0.221689
C158	C	1.852421	-0.035052	0.278311
H159	H	1.321267	-0.589270	-0.241923
H160	H	1.821267	-0.089270	0.258077
H161	H	1.415885	-0.538386	-0.210670
H162	H	1.915885	-0.038386	0.289330
H163	H	1.347808	-0.482525	-0.268145
H164	H	1.847808	0.017475	0.231855
H165	H	1.246210	-0.662196	-0.030883
H166	H	1.746210	-0.162196	0.469117
H167	H	0.443273	0.001264	0.003246
H168	H	0.943273	0.501264	0.503246
H169	H	0.537670	-0.166457	-0.221336
H170	H	1.037670	0.333543	0.278664
O171	O	0.907961	-0.222829	-0.296621
O172	O	1.407961	0.277171	0.203379
C173	C	0.945112	-0.273787	-0.244169
C174	C	1.445112	0.226213	0.255831
H175	H	0.945345	-0.259033	-0.184183
H176	H	1.445345	0.240967	0.315817
H177	H	1.007131	-0.268189	-0.263814
H178	H	1.507131	0.231811	0.236186
H179	H	0.912902	-0.335342	-0.242096
H180	H	1.412902	0.164658	0.257904
H181	H	1.111302	-0.596728	-0.022617
H182	H	1.611302	-0.096728	0.477383
H183	H	0.805721	-0.050290	-0.065804
H184	H	1.305721	0.449710	0.434196
O185	O	0.751502	-0.246554	-0.328314
O186	O	1.251502	0.253446	0.171686
C187	C	0.696911	-0.311357	-0.294434
C188	C	1.196911	0.188643	0.205566
H189	H	0.708735	-0.326065	-0.229798
H190	H	1.208735	0.173935	0.270202
H191	H	0.701584	-0.362320	-0.322153
H192	H	1.201584	0.137680	0.177847
H193	H	0.636272	-0.298090	-0.303955
H194	H	1.136272	0.201910	0.196045
H195	H	1.347084	0.089746	-0.558636
H196	H	1.847084	0.589746	-0.058636
O197	O	1.236641	-0.622021	-0.275171
O198	O	1.736641	-0.122021	0.224829
C199	C	1.193789	-0.592814	-0.339347
C200	C	1.693789	-0.092814	0.160653
H201	H	1.132400	-0.594198	-0.320345
H202	H	1.632400	-0.094198	0.179655
H203	H	1.191998	-0.629624	-0.385316
H204	H	1.691998	-0.129624	0.114684
H205	H	1.222315	-0.531003	-0.364274
H206	H	1.722315	-0.031003	0.135726
O207	O	0.474226	-0.137069	-0.182157
O208	O	0.974226	0.362931	0.317843
C209	C	0.438257	-0.090473	-0.240448
C210	C	0.938257	0.409527	0.259552
H211	H	0.420930	-0.042161	-0.216005
H212	H	0.920930	0.457839	0.283995
H213	H	0.384570	-0.126813	-0.261958
H214	H	0.884570	0.373187	0.238042
H215	H	0.480183	-0.064768	-0.290516
H216	H	0.980183	0.435232	0.209484
H217	H	0.864418	-0.086238	-0.113937
H218	H	1.364418	0.413762	0.386063
H219	H	0.715939	0.004716	0.007844
H220	H	1.215939	0.504716	0.507844
H221	H	1.036627	-0.682352	-0.135118
H222	H	1.536627	-0.182352	0.364882
H223	H	1.317927	0.056919	-0.414782
H224	H	1.817927	0.556919	0.085218
H225	H	0.587146	0.023040	0.032376
H226	H	1.087146	0.523040	0.532376
H227	H	1.141616	-0.141916	-0.450554
H228	H	1.641616	0.358084	0.049446
H229	H	1.093525	-0.196145	-0.509249
H230	H	1.593525	0.303855	-0.009249
H231	H	1.019957	-0.279163	-0.599065
H232	H	1.519957	0.220837	-0.099065
H233	H	0.995481	-0.306816	-0.727852
H234	H	1.495481	0.193184	-0.227852
O235	O	1.018234	-0.281265	-0.879366
O236	O	1.518234	0.218735	-0.379366
C237	C	0.964793	-0.341481	-0.836076
C238	C	1.464793	0.158519	-0.336076
H239	H	0.984427	-0.352279	-0.773235
H240	H	1.484427	0.147721	-0.273235
H241	H	0.961296	-0.395995	-0.860615
H242	H	1.461296	0.104005	-0.360615
H243	H	0.905444	-0.324864	-0.839372
H244	H	1.405444	0.175136	-0.339372
O245	O	1.209843	-0.065160	-0.840738
O246	O	1.709843	0.434840	-0.340738
C247	C	1.215317	-0.058981	-0.921338
C248	C	1.715317	0.441019	-0.421338
H249	H	1.192615	-0.117568	-0.937211
H250	H	1.692615	0.382432	-0.437211
H251	H	1.278294	-0.038512	-0.939921
H252	H	1.778294	0.461488	-0.439921
H253	H	1.179470	-0.015868	-0.952058
H254	H	1.679470	0.484132	-0.452058
H255	H	1.249038	-0.020912	-0.777231
H256	H	1.749038	0.479088	-0.277231
O257	O	1.331498	0.072082	-0.692227
O258	O	1.831498	0.572082	-0.192227
C259	C	1.336972	0.078261	-0.772828
C260	C	1.836972	0.578261	-0.272828
H261	H	1.314270	0.019674	-0.788701
H262	H	1.814270	0.519674	-0.288701
H263	H	1.399950	0.098730	-0.791411
H264	H	1.899950	0.598730	-0.291411
H265	H	1.301125	0.121375	-0.803547
H266	H	1.801125	0.621375	-0.303547
