data_functionalizedCrystal
_audit_creation_method	'MofGen! by Chris Wilmer'
_symmetry_space_group_name_H-M	'P1'
_symmetry_Int_Tables_number	1
_symmetry_cell_setting	triclinic
loop_
_symmetry_equiv_pos_as_xyz
  x,y,z
_cell_length_a	12.827893
_cell_length_b	12.759394
_cell_length_c	12.827885
_cell_angle_alpha	89.968422
_cell_angle_beta	90.019462
_cell_angle_gamma	89.977352
loop_
_atom_site_label
_atom_site_type_symbol
_atom_site_fract_x
_atom_site_fract_y
_atom_site_fract_z
Zn1	Zn	1.597620	0.418211	0.590836
Zn2	Zn	1.597492	0.593927	0.416090
Zn3	Zn	1.422861	0.418263	0.416109
Zn4	Zn	1.422825	0.593849	0.590790
O5	O	1.510199	0.506062	0.503456
O6	O	1.743839	0.441531	0.567666
O7	O	1.574288	0.570679	0.269857
O8	O	1.446112	0.271235	0.439314
O9	O	1.743745	0.570629	0.439282
O10	O	1.574506	0.271197	0.567685
O11	O	1.445987	0.441619	0.269871
O12	O	1.276620	0.441544	0.439270
O13	O	1.446051	0.570496	0.737033
O14	O	1.276594	0.570546	0.567608
O15	O	1.574472	0.441456	0.737066
O16	O	1.574253	0.740938	0.439238
O17	O	1.445926	0.740881	0.567589
C18	C	1.238690	0.506043	0.503437
C19	C	1.122536	0.506060	0.503453
C20	C	1.070798	0.442292	0.567081
C21	C	0.950748	0.442308	0.567099
C22	C	1.510100	0.779030	0.503430
C23	C	1.510154	0.895807	0.503453
C24	C	1.643751	0.895609	0.637226
C25	C	1.710575	0.950371	0.704118
C26	C	1.710620	1.060092	0.704136
C27	C	1.643833	1.115055	0.637258
C28	C	1.577010	1.060293	0.570366
C29	C	1.576973	0.950569	0.570352
C30	C	1.443409	1.060491	0.436600
C31	C	1.443367	0.950769	0.436574
C32	C	1.376621	1.115453	0.369721
C33	C	1.309802	1.060691	0.302822
C34	C	1.309759	0.950963	0.302805
C35	C	1.376543	0.896007	0.369682
C36	C	1.782770	0.506083	0.503477
C37	C	1.898923	0.506091	0.503486
C38	C	1.510272	0.505962	0.776027
C39	C	1.510302	0.505919	0.892180
C40	C	1.510290	1.232029	0.503497
C41	C	1.510232	1.115252	0.503492
C42	C	1.510188	0.506087	0.231947
C43	C	1.510360	0.505834	0.115794
C44	C	1.446835	0.442043	0.943972
C45	C	1.446866	0.441997	1.064022
H46	H	0.906254	0.387717	0.621576
H47	H	1.765023	1.104679	0.758617
H48	H	1.564660	0.560572	0.936716
H49	H	1.255424	1.105450	0.248380
Cl50	Cl	1.139620	0.357976	0.651165
H51	H	1.376520	0.806666	0.369671
H52	H	0.943410	0.560694	0.449015
H53	H	1.077955	0.560664	0.448990
H54	H	1.643731	0.806268	0.637207
H55	H	1.764950	0.905611	0.758572
Cl56	Cl	1.376822	1.253389	0.369601
Cl57	Cl	1.362920	0.357646	0.875220
Cl58	Cl	1.644042	1.252991	0.637135
Cl59	Cl	1.225742	0.882128	0.218712
Cl60	Cl	1.362975	0.357556	1.132782
H61	H	1.564703	0.560519	1.071261
