data_functionalizedCrystal
_audit_creation_method	'MofGen! by Chris Wilmer'
_symmetry_space_group_name_H-M	'P1'
_symmetry_Int_Tables_number	1
_symmetry_cell_setting	triclinic
loop_
_symmetry_equiv_pos_as_xyz
  x,y,z
_cell_length_a	15.944551
_cell_length_b	15.944480
_cell_length_c	14.421503
_cell_angle_alpha	89.993290
_cell_angle_beta	89.996660
_cell_angle_gamma	96.515707
loop_
_atom_site_label
_atom_site_type_symbol
_atom_site_fract_x
_atom_site_fract_y
_atom_site_fract_z
O1	O	0.108038	-1.114566	0.077094
O2	O	0.441371	-0.781233	0.410427
O3	O	0.774704	-0.447900	0.743760
O4	O	0.121456	-0.870009	0.077100
O5	O	0.454789	-0.536675	0.410434
O6	O	0.788123	-0.203342	0.743767
O7	O	-0.007530	-0.998966	0.077088
O8	O	0.325804	-0.665632	0.410422
O9	O	0.659137	-0.332299	0.743755
O10	O	0.237023	-0.985609	0.077105
O11	O	0.570357	-0.652276	0.410439
O12	O	0.903690	-0.318942	0.743772
O13	O	-0.007511	-0.998944	-0.077135
O14	O	0.325823	-0.665611	0.256198
O15	O	0.659156	-0.332278	0.589532
O16	O	0.121475	-0.869987	-0.077123
O17	O	0.454808	-0.536654	0.256210
O18	O	0.788142	-0.203320	0.589543
O19	O	0.108057	-1.114545	-0.077130
O20	O	0.441390	-0.781212	0.256204
O21	O	0.774724	-0.447878	0.589537
Cu22	Cu	0.114768	-0.992264	-0.091208
Cu23	Cu	0.448101	-0.658931	0.242125
Cu24	Cu	0.781434	-0.325597	0.575458
Cu25	Cu	0.114745	-0.992289	0.091179
Cu26	Cu	0.448078	-0.658956	0.424512
Cu27	Cu	0.781412	-0.325623	0.757845
O28	O	0.237042	-0.985588	-0.077118
O29	O	0.570376	-0.652254	0.256215
O30	O	0.903709	-0.318921	0.589549
C31	C	0.120919	-0.838703	-0.000011
C32	C	0.454252	-0.505370	0.333323
C33	C	0.787586	-0.172036	0.666656
C34	C	0.119280	-0.745454	-0.000009
C35	C	0.452614	-0.412120	0.333325
C36	C	0.785947	-0.078787	0.666658
C37	C	0.195212	-0.509692	-0.000001
C38	C	0.528545	-0.176359	0.333332
C39	C	0.861878	0.156974	0.666666
C40	C	0.154282	-0.459123	-0.076048
C41	C	0.487616	-0.125790	0.257286
C42	C	0.820949	0.207543	0.590619
C43	C	0.116244	-0.574732	-0.000009
C44	C	0.449577	-0.241398	0.333324
C45	C	0.782911	0.091935	0.666657
C46	C	0.154245	-0.459149	0.076004
C47	C	0.487578	-0.125815	0.409338
C48	C	0.820912	0.207518	0.742671
C49	C	0.113317	-0.409821	-0.000006
C50	C	0.446650	-0.076488	0.333327
C51	C	0.779984	0.256846	0.666661
C52	C	0.075336	-0.525391	-0.076119
C53	C	0.408670	-0.192057	0.257214
C54	C	0.742003	0.141276	0.590548
C55	C	0.075310	-0.525420	0.076002
C56	C	0.408643	-0.192086	0.409335
C57	C	0.741977	0.141247	0.742668
C58	C	0.034323	-0.474883	-0.000064
C59	C	0.367656	-0.141550	0.333270
C60	C	0.700990	0.191783	0.666603
C61	C	0.117933	-0.669732	-0.000012
C62	C	0.451266	-0.336399	0.333321
C63	C	0.784599	-0.003065	0.666655
C64	C	0.111622	-0.314823	-0.000010
C65	C	0.444956	0.018510	0.333323
C66	C	0.778289	0.351843	0.666657
C67	C	-0.038814	-0.998401	-0.000023
C68	C	0.294519	-0.665067	0.333310
C69	C	0.627853	-0.331734	0.666643
C70	C	-0.132060	-0.996738	-0.000024
C71	C	0.201274	-0.663405	0.333309
C72	C	0.534607	-0.330072	0.666643
C73	C	-0.346895	-0.912831	-0.000009
C74	C	-0.013562	-0.579498	0.333324
C75	C	0.319772	-0.246164	0.666658
C76	C	-0.407913	-0.951784	-0.076051
C77	C	-0.074579	-0.618451	0.257282
C78	C	0.258754	-0.285118	0.590615
C79	C	-0.302785	-0.993731	-0.000017
C80	C	0.030549	-0.660398	0.333317
C81	C	0.363882	-0.327064	0.666650
C82	C	-0.407915	-0.951824	0.076001
C83	C	-0.074582	-0.618491	0.409334
C84	C	0.258752	-0.285158	0.742667
C85	C	-0.467697	-0.990820	-0.000006
C86	C	-0.134363	-0.657487	0.333328
C87	C	0.198970	-0.324153	0.666661
C88	C	-0.362574	-1.032706	-0.076122
C89	C	-0.029241	-0.699373	0.257211
C90	C	0.304092	-0.366040	0.590545
C91	C	-0.362570	-1.032735	0.075999
C92	C	-0.029237	-0.699402	0.409332
C93	C	0.304096	-0.366068	0.742665
C94	C	-0.423570	-1.071747	-0.000063
C95	C	-0.090237	-0.738414	0.333271
C96	C	0.243096	-0.405080	0.666604
C97	C	-0.207783	-0.995405	-0.000024
C98	C	0.125551	-0.662072	0.333310
C99	C	0.458884	-0.328739	0.666643
C100	C	-0.562697	-0.989152	-0.000005
C101	C	-0.229364	-0.655818	0.333328
C102	C	0.103969	-0.322485	0.666661
C103	C	0.268327	-0.986153	-0.000004
C104	C	0.601660	-0.652820	0.333329
C105	C	0.934993	-0.319486	0.666663
C106	C	0.361572	-0.987815	0.000003
C107	C	0.694906	-0.654482	0.333336
C108	C	1.028239	-0.321149	0.666669
C109	C	0.108605	-0.145849	-0.000015
C110	C	0.441939	0.187484	0.333318
C111	C	0.775272	0.520818	0.666652
C112	C	0.110278	-0.239094	-0.000006
C113	C	0.443611	0.094240	0.333327
C114	C	0.776945	0.427573	0.666661
N115	N	0.114783	-0.992252	-0.219490
N116	N	0.448116	-0.658919	0.113844
N117	N	0.781450	-0.325586	0.447177
C118	C	0.174399	-0.932612	-0.469138
C119	C	0.507733	-0.599279	-0.135804
C120	C	0.841066	-0.265945	0.197529
C121	C	0.190687	-1.008515	-0.530941
C122	C	0.524021	-0.675181	-0.197608
C123	C	0.857354	-0.341848	0.135726
C124	C	0.114763	-0.992273	-0.408651
C125	C	0.448096	-0.658940	-0.075318
C126	C	0.781430	-0.325606	0.258016
C127	C	0.098495	-0.916390	-0.530941
C128	C	0.431828	-0.583057	-0.197608
C129	C	0.765161	-0.249723	0.135725
C130	C	0.114746	-0.992286	-0.591372
C131	C	0.448079	-0.658952	-0.258039
C132	C	0.781412	-0.325619	0.075294
C133	C	0.131089	-1.068214	-0.469094
C134	C	0.464422	-0.734880	-0.135760
C135	C	0.797756	-0.401547	0.197573
C136	C	0.038863	-0.976039	-0.469088
C137	C	0.372197	-0.642706	-0.135755
C138	C	0.705530	-0.309372	0.197578
C139	C	0.055119	-1.051996	-0.530864
C140	C	0.388452	-0.718663	-0.197531
C141	C	0.721786	-0.385330	0.135803
C142	C	0.114775	-0.992264	-0.303390
C143	C	0.448109	-0.658931	0.029944
C144	C	0.781442	-0.325598	0.363277
C145	C	0.114733	-0.992303	-0.696631
C146	C	0.448066	-0.658970	-0.363298
C147	C	0.781399	-0.325636	-0.029965
N148	N	0.114723	-0.992308	0.219460
N149	N	0.448056	-0.658974	0.552793
N150	N	0.781390	-0.325641	0.886127
H151	H	0.187602	-0.430219	0.140287
H152	H	0.520935	-0.096886	0.473621
H153	H	0.854269	0.236448	0.806954
H154	H	0.187640	-0.430177	-0.140334
H155	H	0.520973	-0.096843	0.193000
H156	H	0.854306	0.236490	0.526333
Br157	Br	-0.028956	-1.136185	-0.575760
Br158	Br	0.304377	-0.802851	-0.242427
Br159	Br	0.637710	-0.469518	0.090906
H160	H	0.263230	-0.525316	-0.000068
H161	H	0.596564	-0.191983	0.333266
H162	H	0.929897	0.141351	0.666599
Br163	Br	-0.291353	-0.800910	-0.000123
Br164	Br	0.041981	-0.467576	0.333210
Br165	Br	0.375314	-0.134243	0.666543
Br166	Br	0.019798	-0.573418	-0.183385
Br167	Br	0.353132	-0.240084	0.149949
Br168	Br	0.686465	0.093249	0.483282
Br169	Br	-0.068074	-0.953095	-0.423767
Br170	Br	0.265259	-0.619762	-0.090434
Br171	Br	0.598592	-0.286428	0.242900
Br172	Br	-0.329264	-1.089680	-0.183389
Br173	Br	0.004069	-0.756347	0.149944
Br174	Br	0.337403	-0.423013	0.483277
Br175	Br	0.297655	-1.031424	-0.576223
Br176	Br	0.630988	-0.698091	-0.242890
Br177	Br	0.964322	-0.364758	0.090443
H178	H	-0.342456	-1.066932	0.140288
H179	H	-0.009123	-0.733599	0.473621
H180	H	0.324210	-0.400265	0.806955
Br181	Br	0.075572	-0.809424	-0.576228
Br182	Br	0.408905	-0.476091	-0.242894
Br183	Br	0.742239	-0.142757	0.090439
H184	H	-0.427991	-0.917605	0.140293
H185	H	-0.094658	-0.584272	0.473627
H186	H	0.238675	-0.250939	0.806960
Br187	Br	0.019762	-0.573696	0.183155
Br188	Br	0.353095	-0.240363	0.516489
Br189	Br	0.686429	0.092970	0.849822
Br190	Br	-0.079128	-0.449096	-0.000142
Br191	Br	0.254205	-0.115763	0.333192
Br192	Br	0.587539	0.217571	0.666525
H193	H	-0.428004	-0.917558	-0.140337
H194	H	-0.094671	-0.584225	0.192996
H195	H	0.238662	-0.250891	0.526329
Br196	Br	-0.478868	-1.183766	-0.000130
Br197	Br	-0.145535	-0.850432	0.333203
Br198	Br	0.187798	-0.517099	0.666536
Br199	Br	0.258519	-0.848605	-0.423959
Br200	Br	0.591852	-0.515272	-0.090626
Br201	Br	0.925185	-0.181939	0.242708
H202	H	0.144918	-1.132406	-0.442041
H203	H	0.478251	-0.799073	-0.108707
H204	H	0.811585	-0.465739	0.224626
