data_functionalizedCrystal
_audit_creation_method	'MofGen! by Chris Wilmer'
_symmetry_space_group_name_H-M	'P1'
_symmetry_Int_Tables_number	1
_symmetry_cell_setting	triclinic
loop_
_symmetry_equiv_pos_as_xyz
  x,y,z
_cell_length_a	18.215407
_cell_length_b	21.295417
_cell_length_c	18.215399
_cell_angle_alpha	89.967848
_cell_angle_beta	89.980167
_cell_angle_gamma	90.030955
loop_
_atom_site_label
_atom_site_type_symbol
_atom_site_fract_x
_atom_site_fract_y
_atom_site_fract_z
Zn1	Zn	1.125043	-0.250608	-0.416094
Zn2	Zn	1.375043	-0.000608	-0.166094
Zn3	Zn	1.625043	0.249392	0.083906
Zn4	Zn	1.875043	0.499392	0.333906
Zn5	Zn	1.124940	-0.355879	-0.293019
Zn6	Zn	1.374940	-0.105879	-0.043019
Zn7	Zn	1.624940	0.144121	0.206981
Zn8	Zn	1.874940	0.394121	0.456981
Zn9	Zn	1.001976	-0.250629	-0.293042
Zn10	Zn	1.251976	-0.000629	-0.043042
Zn11	Zn	1.501976	0.249371	0.206958
Zn12	Zn	1.751976	0.499371	0.456958
Zn13	Zn	1.001930	-0.355844	-0.416044
Zn14	Zn	1.251930	-0.105844	-0.166044
Zn15	Zn	1.501930	0.144156	0.083956
Zn16	Zn	1.751930	0.394156	0.333956
O17	O	1.063472	-0.303240	-0.354550
O18	O	1.313472	-0.053240	-0.104550
O19	O	1.563472	0.196760	0.145450
O20	O	1.813472	0.446760	0.395450
O21	O	1.228014	-0.264579	-0.399780
O22	O	1.478014	-0.014579	-0.149780
O23	O	1.728014	0.235421	0.100220
O24	O	1.978014	0.485421	0.350220
O25	O	1.108604	-0.341941	-0.190038
O26	O	1.358604	-0.091941	0.059962
O27	O	1.608604	0.158059	0.309962
O28	O	1.858604	0.408059	0.559962
O29	O	1.018364	-0.162537	-0.309396
O30	O	1.268364	0.087463	-0.059396
O31	O	1.518364	0.337463	0.190604
O32	O	1.768364	0.587463	0.440604
O33	O	1.227938	-0.341921	-0.309357
O34	O	1.477938	-0.091921	-0.059357
O35	O	1.727938	0.158079	0.190643
O36	O	1.977938	0.408079	0.440643
O37	O	1.108781	-0.162521	-0.399802
O38	O	1.358781	0.087479	-0.149802
O39	O	1.608781	0.337479	0.100198
O40	O	1.858781	0.587479	0.350198
O41	O	1.018263	-0.264614	-0.190054
O42	O	1.268263	-0.014614	0.059946
O43	O	1.518263	0.235386	0.309946
O44	O	1.768263	0.485386	0.559946
O45	O	0.898985	-0.264580	-0.309347
O46	O	1.148985	-0.014580	-0.059347
O47	O	1.398985	0.235420	0.190653
O48	O	1.648985	0.485420	0.440653
O49	O	1.018285	-0.341861	-0.519035
O50	O	1.268285	-0.091861	-0.269035
O51	O	1.518285	0.158139	-0.019035
O52	O	1.768285	0.408139	0.230965
O53	O	0.898951	-0.341881	-0.399716
O54	O	1.148951	-0.091881	-0.149716
O55	O	1.398951	0.158119	0.100284
O56	O	1.648951	0.408119	0.350284
O57	O	1.108736	-0.264545	-0.519072
O58	O	1.358736	-0.014545	-0.269072
O59	O	1.608736	0.235455	-0.019072
O60	O	1.858736	0.485455	0.230928
O61	O	1.108559	-0.443964	-0.309308
O62	O	1.358559	-0.193964	-0.059308
O63	O	1.608559	0.056036	0.190692
O64	O	1.858559	0.306036	0.440692
O65	O	1.018184	-0.443938	-0.399694
O66	O	1.268184	-0.193938	-0.149694
O67	O	1.518184	0.056062	0.100306
O68	O	1.768184	0.306062	0.350306
C69	C	0.872266	-0.303229	-0.354529
C70	C	1.122266	-0.053229	-0.104529
C71	C	1.372266	0.196771	0.145471
C72	C	1.622266	0.446771	0.395471
C73	C	0.790467	-0.303240	-0.354537
C74	C	1.040467	-0.053240	-0.104537
C75	C	1.290467	0.196760	0.145463
C76	C	1.540467	0.446760	0.395463
C77	C	1.063376	-0.466792	-0.354509
C78	C	1.313376	-0.216792	-0.104509
C79	C	1.563376	0.033208	0.145491
C80	C	1.813376	0.283208	0.395491
C81	C	1.063402	-0.536760	-0.354516
C82	C	1.313402	-0.286760	-0.104516
C83	C	1.563402	-0.036760	0.145484
C84	C	1.813402	0.213240	0.395484
C85	C	0.602275	-0.343554	-0.401533
C86	C	0.852275	-0.093554	-0.151533
C87	C	1.102275	0.156446	0.098467
C88	C	1.352275	0.406446	0.348467
C89	C	0.525416	-0.343556	-0.401542
C90	C	0.775416	-0.093556	-0.151542
C91	C	1.025416	0.156444	0.098458
C92	C	1.275416	0.406444	0.348458
C93	C	0.525422	-0.262938	-0.307582
C94	C	0.775422	-0.012938	-0.057582
C95	C	1.025422	0.237062	0.192418
C96	C	1.275422	0.487062	0.442418
C97	C	0.602279	-0.262933	-0.307577
C98	C	0.852279	-0.012933	-0.057577
C99	C	1.102279	0.237067	0.192423
C100	C	1.352279	0.487067	0.442423
C101	C	0.640703	-0.303245	-0.354552
C102	C	0.890703	-0.053245	-0.104552
C103	C	1.140703	0.196755	0.145448
C104	C	1.390703	0.446755	0.395448
C105	C	0.486987	-0.303251	-0.354566
C106	C	0.736987	-0.053251	-0.104566
C107	C	0.986987	0.196749	0.145434
C108	C	1.236987	0.446749	0.395434
C109	C	0.403654	-0.303253	-0.354575
C110	C	0.653654	-0.053253	-0.104575
C111	C	0.903654	0.196747	0.145425
C112	C	1.153654	0.446747	0.395425
C113	C	0.724042	-0.303242	-0.354543
C114	C	0.974042	-0.053242	-0.104543
C115	C	1.224042	0.196758	0.145457
C116	C	1.474042	0.446758	0.395457
C117	C	1.110502	-0.569619	-0.307500
C118	C	1.360502	-0.319619	-0.057500
C119	C	1.610502	-0.069619	0.192500
C120	C	1.860502	0.180381	0.442500
C121	C	1.110536	-0.635361	-0.307517
C122	C	1.360536	-0.385361	-0.057517
C123	C	1.610536	-0.135361	0.192483
C124	C	1.860536	0.114639	0.442483
C125	C	1.063457	-0.668242	-0.354542
C126	C	1.313457	-0.418242	-0.104542
C127	C	1.563457	-0.168242	0.145458
C128	C	1.813457	0.081758	0.395458
C129	C	1.016354	-0.635375	-0.401566
C130	C	1.266354	-0.385375	-0.151566
C131	C	1.516354	-0.135375	0.098434
C132	C	1.766354	0.114625	0.348434
C133	C	1.016326	-0.569634	-0.401554
C134	C	1.266326	-0.319634	-0.151554
C135	C	1.516326	-0.069634	0.098446
C136	C	1.766326	0.180366	0.348446
N137	N	0.999079	-0.771508	-0.360145
N138	N	1.249079	-0.521508	-0.110145
N139	N	1.499079	-0.271508	0.139855
N140	N	1.749079	-0.021508	0.389855
N141	N	0.999107	-0.833960	-0.360153
N142	N	1.249107	-0.583960	-0.110153
N143	N	1.499107	-0.333960	0.139847
N144	N	1.749107	-0.083960	0.389847
C145	C	1.063540	-0.866317	-0.354584
C146	C	1.313540	-0.616317	-0.104584
C147	C	1.563540	-0.366317	0.145416
C148	C	1.813540	-0.116317	0.395416
N149	N	1.127944	-0.833863	-0.348993
N150	N	1.377944	-0.583863	-0.098993
N151	N	1.627944	-0.333863	0.151007
N152	N	1.877944	-0.083863	0.401007
N153	N	1.127915	-0.771406	-0.348981
N154	N	1.377915	-0.521406	-0.098981
N155	N	1.627915	-0.271406	0.151019
N156	N	1.877915	-0.021406	0.401019
C157	C	1.063483	-0.739528	-0.354561
C158	C	1.313483	-0.489528	-0.104561
C159	C	1.563483	-0.239528	0.145439
C160	C	1.813483	0.010472	0.395439
C161	C	1.110681	-0.970462	-0.307584
C162	C	1.360681	-0.720462	-0.057584
C163	C	1.610681	-0.470462	0.192416
C164	C	1.860681	-0.220462	0.442416
C165	C	1.110717	-1.036205	-0.307605
C166	C	1.360717	-0.786205	-0.057605
C167	C	1.610717	-0.536205	0.192395
C168	C	1.860717	-0.286205	0.442395
C169	C	1.016528	-1.036218	-0.401651
C170	C	1.266528	-0.786218	-0.151651
C171	C	1.516528	-0.536218	0.098349
C172	C	1.766528	-0.286218	0.348349
C173	C	1.016499	-0.970475	-0.401633
C174	C	1.266499	-0.720475	-0.151633
C175	C	1.516499	-0.470475	0.098367
C176	C	1.766499	-0.220475	0.348367
C177	C	1.063575	-0.937601	-0.354595
C178	C	1.313575	-0.687601	-0.104595
C179	C	1.563575	-0.437601	0.145405
C180	C	1.813575	-0.187601	0.395405
C181	C	1.255425	-0.303251	-0.354571
C182	C	1.505425	-0.053251	-0.104571
C183	C	1.755425	0.196749	0.145429
C184	C	2.005425	0.446749	0.395429
C185	C	1.337224	-0.303256	-0.354581
C186	C	1.587224	-0.053256	-0.104581
C187	C	1.837224	0.196744	0.145419
C188	C	2.087224	0.446744	0.395419
C189	C	1.063517	-0.303197	-0.546503
C190	C	1.313517	-0.053197	-0.296503
C191	C	1.563517	0.196803	-0.046503
C192	C	1.813517	0.446803	0.203497
C193	C	1.063536	-0.303178	-0.628302
C194	C	1.313536	-0.053178	-0.378302
C195	C	1.563536	0.196822	-0.128302
C196	C	1.813536	0.446822	0.121698
C197	C	1.063589	-0.139050	-0.354607
C198	C	1.313589	0.110950	-0.104607
C199	C	1.563589	0.360950	0.145393
C200	C	1.813589	0.610950	0.395393
C201	C	1.063639	-0.069082	-0.354631
C202	C	1.313639	0.180918	-0.104631
C203	C	1.563639	0.430918	0.145369
C204	C	1.813639	0.680918	0.395369
C205	C	1.110651	-0.262882	-0.816516
C206	C	1.360651	-0.012882	-0.566516
C207	C	1.610651	0.237118	-0.316516
C208	C	1.860651	0.487118	-0.066516
C209	C	1.110660	-0.262863	-0.893375
C210	C	1.360660	-0.012863	-0.643375
C211	C	1.610660	0.237137	-0.393375
C212	C	1.860660	0.487137	-0.143375
C213	C	1.016473	-0.343377	-0.893325
C214	C	1.266473	-0.093377	-0.643325
C215	C	1.516473	0.156623	-0.393325
C216	C	1.766473	0.406623	-0.143325
C217	C	1.016461	-0.343392	-0.816468
C218	C	1.266461	-0.093392	-0.566468
C219	C	1.516461	0.156608	-0.316468
C220	C	1.766461	0.406608	-0.066468
C221	C	1.063554	-0.303145	-0.778065
C222	C	1.313554	-0.053145	-0.528065
C223	C	1.563554	0.196855	-0.278065
C224	C	1.813554	0.446855	-0.028065
C225	C	1.063575	-0.303112	-0.931781
C226	C	1.313575	-0.053112	-0.681781
C227	C	1.563575	0.196888	-0.431781
C228	C	1.813575	0.446888	-0.181781
C229	C	1.063584	-0.303093	-1.015115
C230	C	1.313584	-0.053093	-0.765115
C231	C	1.563584	0.196907	-0.515115
C232	C	1.813584	0.446907	-0.265115
C233	C	1.063544	-0.303164	-0.694726
C234	C	1.313544	-0.053164	-0.444726
C235	C	1.563544	0.196836	-0.194726
C236	C	1.813544	0.446836	0.055274
C237	C	1.063470	-0.303238	-0.163344
C238	C	1.313470	-0.053238	0.086656
C239	C	1.563470	0.196762	0.336656
C240	C	1.813470	0.446762	0.586656
C241	C	1.063593	-0.303079	-0.081545
C242	C	1.313593	-0.053079	0.168455
C243	C	1.563593	0.196921	0.418455
C244	C	1.813593	0.446921	0.668455
H245	H	0.494130	-0.376379	-0.439801
H246	H	0.744130	-0.126379	-0.189801
H247	H	0.994130	0.123621	0.060199
H248	H	1.244130	0.373621	0.310199
O249	O	1.161280	-0.534165	-0.256771
O250	O	1.411280	-0.284165	-0.006771
O251	O	1.661280	-0.034165	0.243229
O252	O	1.911280	0.215835	0.493229
H253	H	1.153345	-0.482930	-0.264655
H254	H	1.403345	-0.232930	-0.014655
H255	H	1.653345	0.017070	0.235345
H256	H	1.903345	0.267070	0.485345
O257	O	1.161458	-0.219431	-0.934839
O258	O	1.411458	0.030569	-0.684839
O259	O	1.661458	0.280569	-0.434839
O260	O	1.911458	0.530569	-0.184839
H261	H	1.128543	-0.187390	-0.969850
H262	H	1.378543	0.062610	-0.719850
H263	H	1.628543	0.312610	-0.469850
H264	H	1.878543	0.562610	-0.219850
O265	O	0.483973	-0.219464	-0.256917
O266	O	0.733973	0.030536	-0.006917
O267	O	0.983973	0.280536	0.243083
O268	O	1.233973	0.530536	0.493083
H269	H	0.523610	-0.191429	-0.224252
H270	H	0.773610	0.058571	0.025748
H271	H	1.023610	0.308571	0.275748
H272	H	1.273610	0.558571	0.525748
H273	H	1.148893	-0.662121	-0.269231
H274	H	1.398893	-0.412121	-0.019231
H275	H	1.648893	-0.162121	0.230769
H276	H	1.898893	0.087879	0.480769
H277	H	0.977971	-0.542879	-0.439840
H278	H	1.227971	-0.292879	-0.189840
H279	H	1.477971	-0.042879	0.060160
H280	H	1.727971	0.207121	0.310160
H281	H	0.633569	-0.230104	-0.269319
H282	H	0.883569	0.019896	-0.019319
H283	H	1.133569	0.269896	0.230681
H284	H	1.383569	0.519896	0.480681
H285	H	0.978024	-0.662151	-0.439855
H286	H	1.228024	-0.412151	-0.189855
H287	H	1.478024	-0.162151	0.060145
H288	H	1.728024	0.087849	0.310145
H289	H	0.978104	-0.376179	-0.785160
H290	H	1.228104	-0.126179	-0.535160
H291	H	1.478104	0.123821	-0.285160
H292	H	1.728104	0.373821	-0.035160
O293	O	1.161461	-0.934997	-0.256864
O294	O	1.411461	-0.684997	-0.006864
O295	O	1.661461	-0.434997	0.243136
O296	O	1.911461	-0.184997	0.493136
H297	H	1.194230	-0.968894	-0.224182
H298	H	1.444230	-0.718894	0.025818
H299	H	1.694230	-0.468894	0.275818
H300	H	1.944230	-0.218894	0.525818
H301	H	0.978199	-1.062989	-0.439942
H302	H	1.228199	-0.812989	-0.189942
H303	H	1.478199	-0.562989	0.060058
H304	H	1.728199	-0.312989	0.310058
O305	O	0.643722	-0.387023	-0.452204
O306	O	0.893722	-0.137023	-0.202204
O307	O	1.143722	0.112977	0.047796
O308	O	1.393722	0.362977	0.297796
H309	H	0.604084	-0.415047	-0.484881
H310	H	0.854084	-0.165047	-0.234881
H311	H	1.104084	0.084953	0.015119
H312	H	1.354084	0.334953	0.265119
O313	O	1.161519	-1.071652	-0.256892
O314	O	1.411519	-0.821652	-0.006892
O315	O	1.661519	-0.571652	0.243108
O316	O	1.911519	-0.321652	0.493108
H317	H	1.194240	-1.037745	-0.224179
H318	H	1.444240	-0.787745	0.025821
H319	H	1.694240	-0.537745	0.275821
H320	H	1.944240	-0.287745	0.525821
O321	O	0.965679	-0.935028	-0.452324
O322	O	1.215679	-0.685028	-0.202324
O323	O	1.465679	-0.435028	0.047676
O324	O	1.715679	-0.185028	0.297676
H325	H	0.932939	-0.968934	-0.485018
H326	H	1.182939	-0.718934	-0.235018
H327	H	1.432939	-0.468934	0.014982
H328	H	1.682939	-0.218934	0.264982
O329	O	0.965682	-0.386786	-0.934744
O330	O	1.215682	-0.136786	-0.684744
O331	O	1.465682	0.113214	-0.434744
O332	O	1.715682	0.363214	-0.184744
H333	H	0.973606	-0.380016	-0.994648
H334	H	1.223606	-0.130016	-0.744648
H335	H	1.473606	0.119984	-0.494648
H336	H	1.723606	0.369984	-0.244648
H337	H	1.148995	-0.230109	-0.785251
H338	H	1.398995	0.019891	-0.535251
H339	H	1.648995	0.269891	-0.285251
H340	H	1.898995	0.519891	-0.035251
