data_functionalizedCrystal
_audit_creation_method	'MofGen! by Chris Wilmer'
_symmetry_space_group_name_H-M	'P1'
_symmetry_Int_Tables_number	1
_symmetry_cell_setting	triclinic
loop_
_symmetry_equiv_pos_as_xyz
  x,y,z
_cell_length_a	21.395362
_cell_length_b	16.959454
_cell_length_c	21.395356
_cell_angle_alpha	89.977834
_cell_angle_beta	89.957023
_cell_angle_gamma	90.035955
loop_
_atom_site_label
_atom_site_type_symbol
_atom_site_fract_x
_atom_site_fract_y
_atom_site_fract_z
Zn1	Zn	0.957900	-0.314366	-0.354610
Zn2	Zn	1.457900	0.185634	0.145390
Zn3	Zn	0.957824	-0.446548	-0.249842
Zn4	Zn	1.457824	0.053452	0.250158
Zn5	Zn	0.853117	-0.314424	-0.249811
Zn6	Zn	1.353117	0.185576	0.250189
Zn7	Zn	0.853103	-0.446544	-0.354547
Zn8	Zn	1.353103	0.053456	0.145453
O9	O	0.905486	-0.380471	-0.302202
O10	O	1.405486	0.119529	0.197798
O11	O	1.045568	-0.331878	-0.340751
O12	O	1.545568	0.168122	0.159249
O13	O	0.943907	-0.429048	-0.162160
O14	O	1.443907	0.070952	0.337840
O15	O	0.867054	-0.203806	-0.263726
O16	O	1.367054	0.296194	0.236274
O17	O	1.045512	-0.428992	-0.263779
O18	O	1.545512	0.071008	0.236221
O19	O	0.944038	-0.203763	-0.340721
O20	O	1.444038	0.296237	0.159279
O21	O	0.866980	-0.331977	-0.162137
O22	O	1.366980	0.168023	0.337863
O23	O	0.765437	-0.331973	-0.263665
O24	O	1.265437	0.168027	0.236335
O25	O	0.867031	-0.428984	-0.442233
O26	O	1.367031	0.071016	0.057767
O27	O	0.765427	-0.429040	-0.340614
O28	O	1.265427	0.070960	0.159386
O29	O	0.944025	-0.331874	-0.442279
O30	O	1.444025	0.168126	0.057721
O31	O	0.943895	-0.557159	-0.263718
O32	O	1.443895	-0.057159	0.236282
O33	O	0.866957	-0.557155	-0.340645
O34	O	1.366957	-0.057155	0.159355
C35	C	0.742698	-0.380513	-0.302130
C36	C	1.242698	0.119487	0.197870
C37	C	0.673057	-0.380549	-0.302114
C38	C	1.173057	0.119451	0.197886
C39	C	0.905433	-0.585837	-0.302192
C40	C	1.405433	-0.085837	0.197808
C41	C	0.905468	-0.673694	-0.302208
C42	C	1.405468	-0.173694	0.197792
C43	C	0.640355	-0.431159	-0.342121
C44	C	1.140355	0.068841	0.157879
C45	C	0.574920	-0.431140	-0.342149
C46	C	1.074920	0.068860	0.157851
C47	C	0.542189	-0.380519	-0.302158
C48	C	1.042189	0.119481	0.197842
C49	C	0.574898	-0.329899	-0.262148
C50	C	1.074898	0.170101	0.237852
C51	C	0.640332	-0.329914	-0.262126
C52	C	1.140332	0.170086	0.237874
C53	C	0.438464	-0.374163	-0.245752
C54	C	0.938464	0.125837	0.254248
C55	C	0.373031	-0.374153	-0.245774
C56	C	0.873031	0.125847	0.254226
C57	C	0.340368	-0.380467	-0.302227
C58	C	0.840368	0.119533	0.197773
C59	C	0.373146	-0.386808	-0.358661
C60	C	0.873146	0.113192	0.141339
C61	C	0.438580	-0.386823	-0.358639
C62	C	0.938580	0.113177	0.141361
C63	C	0.471236	-0.380496	-0.302178
C64	C	0.971236	0.119504	0.197822
C65	C	0.236714	-0.431059	-0.342268
C66	C	0.736714	0.068941	0.157732
C67	C	0.171277	-0.431034	-0.342297
C68	C	0.671277	0.068966	0.157703
C69	C	0.171257	-0.329797	-0.262291
C70	C	0.671257	0.170203	0.237709
C71	C	0.236692	-0.329818	-0.262267
C72	C	0.736692	0.170182	0.237733
C73	C	0.269417	-0.380453	-0.302255
C74	C	0.769417	0.119547	0.197745
C75	C	0.865483	-1.045197	-0.342254
C76	C	1.365483	-0.545197	0.157746
C77	C	0.945664	-1.045141	-0.262215
C78	C	1.445664	-0.545141	0.237785
C79	C	0.945642	-0.962595	-0.262209
C80	C	1.445642	-0.462595	0.237791
C81	C	0.905539	-0.921346	-0.302226
C82	C	1.405539	-0.421346	0.197774
C83	C	0.865458	-0.962644	-0.342248
C84	C	1.365458	-0.462644	0.157752
C85	C	0.985717	-0.921292	-0.222184
C86	C	1.485717	-0.421292	0.277816
C87	C	0.985696	-0.838741	-0.222176
C88	C	1.485696	-0.338741	0.277824
C89	C	0.945596	-0.797491	-0.262196
C90	C	1.445596	-0.297491	0.237804
C91	C	0.905515	-0.838793	-0.302220
C92	C	1.405515	-0.338793	0.197780
C93	C	0.865412	-0.797544	-0.342236
C94	C	1.365412	-0.297544	0.157764
C95	C	0.825333	-0.838845	-0.382264
C96	C	1.325333	-0.338845	0.117736
C97	C	0.825358	-0.921394	-0.382268
C98	C	1.325358	-0.421394	0.117732
C99	C	0.945571	-0.714942	-0.262192
C100	C	1.445571	-0.214942	0.237808
C101	C	0.865387	-0.714991	-0.342230
C102	C	1.365387	-0.214991	0.157770
C103	C	1.068909	-0.380429	-0.302276
C104	C	1.568909	0.119571	0.197724
C105	C	1.138550	-0.380412	-0.302307
C106	C	1.638550	0.119588	0.197693
C107	C	0.905535	-0.380422	-0.465626
C108	C	1.405535	0.119578	0.034374
C109	C	0.905556	-0.380401	-0.535267
C110	C	1.405556	0.119599	-0.035267
C111	C	0.905556	-0.174302	-0.302227
C112	C	1.405556	0.325698	0.197773
C113	C	0.905585	-0.086446	-0.302237
C114	C	1.405585	0.413554	0.197763
C115	C	0.865511	-0.329850	-0.567958
C116	C	1.365511	0.170150	-0.067958
C117	C	0.865508	-0.329836	-0.633394
C118	C	1.365508	0.170164	-0.133394
C119	C	0.905563	-0.380363	-0.666135
C120	C	1.405563	0.119637	-0.166135
C121	C	0.945611	-0.430924	-0.633436
C122	C	1.445611	0.069076	-0.133436
C123	C	0.945608	-0.430942	-0.568002
C124	C	1.445608	0.069058	-0.068002
C125	C	0.962016	-0.386558	-0.769841
C126	C	1.462016	0.113442	-0.269841
C127	C	0.962020	-0.386533	-0.835274
C128	C	1.462020	0.113467	-0.335274
C129	C	0.905573	-0.380310	-0.867956
C130	C	1.405573	0.119690	-0.367956
C131	C	0.849120	-0.374094	-0.835197
C132	C	1.349120	0.125906	-0.335197
C133	C	0.849117	-0.374113	-0.769763
C134	C	1.349117	0.125887	-0.269763
C135	C	0.905571	-0.380349	-0.737088
C136	C	1.405571	0.119651	-0.237088
C137	C	0.865522	-0.329741	-0.971600
C138	C	1.365522	0.170259	-0.471600
C139	C	0.865519	-0.329732	-1.037037
C140	C	1.365519	0.170268	-0.537037
C141	C	0.945627	-0.430815	-1.037078
C142	C	1.445627	0.069185	-0.537078
C143	C	0.945625	-0.430829	-0.971643
C144	C	1.445625	0.069171	-0.471643
C145	C	0.905573	-0.380287	-0.938908
C146	C	1.405573	0.119713	-0.438908
C147	C	0.905473	-0.380462	-0.139415
C148	C	1.405473	0.119538	0.360585
C149	C	0.905573	-0.380261	-0.069774
C150	C	1.405573	0.119739	0.430226
H151	H	0.666995	-0.472389	-0.374683
H152	H	1.166995	0.027611	0.125317
N153	N	0.539598	-0.275311	-0.219007
N154	N	1.039598	0.224689	0.280993
H155	H	0.512494	-0.238718	-0.244523
H156	H	1.012494	0.261282	0.255477
H157	H	0.512439	-0.307447	-0.189949
H158	H	1.012439	0.192553	0.310051
H159	H	0.792727	-0.955028	-0.414855
H160	H	1.292727	-0.455028	0.085145
N161	N	0.822308	-0.275323	-0.668667
N162	N	1.322308	0.224677	-0.168667
H163	H	0.847782	-0.238684	-0.695844
H164	H	1.347782	0.261316	-0.195844
H165	H	0.793277	-0.307516	-0.695751
H166	H	1.293277	0.192484	-0.195751
H167	H	0.978221	-0.472106	-0.541385
H168	H	1.478221	0.027894	-0.041385
H169	H	0.832853	-1.078828	-0.374845
H170	H	1.332853	-0.578828	0.125155
H171	H	0.548289	-0.472352	-0.374730
H172	H	1.048289	0.027648	0.125270
N173	N	0.822136	-0.670503	-0.385394
N174	N	1.322136	-0.170503	0.114606
H175	H	0.796752	-0.709194	-0.410750
H176	H	1.296752	-0.209194	0.089250
H177	H	0.793141	-0.636308	-0.359851
H178	H	1.293141	-0.136308	0.140149
H179	H	0.263359	-0.472285	-0.374832
H180	H	0.763359	0.027715	0.125168
H181	H	0.465053	-0.369017	-0.199778
H182	H	0.965053	0.130983	0.300222
H183	H	0.792678	-0.805251	-0.414843
H184	H	1.292678	-0.305251	0.085157
N185	N	1.028963	-0.965792	-0.179029
N186	N	1.528963	-0.465792	0.320971
H187	H	1.073722	-0.951367	-0.188811
H188	H	1.573722	-0.451367	0.311189
H189	H	1.019196	-0.951457	-0.134264
H190	H	1.519196	-0.451457	0.365736
N191	N	0.988905	-1.089626	-0.219046
N192	N	1.488905	-0.589626	0.280954
H193	H	0.982835	-1.148187	-0.225120
H194	H	1.482835	-0.648187	0.274880
H195	H	1.033646	-1.075142	-0.228848
H196	H	1.533646	-0.575142	0.271152
H197	H	0.666958	-0.288699	-0.229547
H198	H	1.166958	0.211301	0.270453
H199	H	0.263318	-0.288610	-0.229686
H200	H	0.763318	0.211390	0.270314
H201	H	0.978224	-0.472064	-0.660099
H202	H	1.478224	0.027936	-0.160099
N203	N	1.028928	-0.794198	-0.179012
N204	N	1.528928	-0.294198	0.320988
H205	H	1.054337	-0.832856	-0.153665
H206	H	1.554337	-0.332856	0.346335
H207	H	1.057899	-0.759903	-0.204557
H208	H	1.557899	-0.259903	0.295443
H209	H	1.007986	-0.391619	-0.743237
H210	H	1.507986	0.108381	-0.243237
H211	H	0.978200	-0.681319	-0.229599
H212	H	1.478200	-0.181319	0.270401
H213	H	0.465265	-0.391984	-0.404590
H214	H	0.965265	0.108016	0.095410
H215	H	0.803150	-0.369053	-0.743093
H216	H	1.303150	0.130947	-0.243093
N217	N	0.822320	-0.275213	-1.072300
N218	N	1.322320	0.224787	-0.572300
H219	H	0.796949	-0.243200	-1.041631
H220	H	1.296949	0.256800	-0.541631
H221	H	0.847838	-0.238623	-1.099475
H222	H	1.347838	0.261377	-0.599475
N223	N	0.337927	-0.393624	-0.419556
N224	N	0.837927	0.106376	0.080444
H225	H	0.291502	-0.392648	-0.411010
H226	H	0.791502	0.107352	0.088990
H227	H	0.349428	-0.347964	-0.447626
H228	H	0.849428	0.152036	0.052374
H229	H	0.144652	-0.472245	-0.374880
H230	H	0.644652	0.027755	0.125120
N231	N	0.988826	-0.485321	-1.072383
N232	N	1.488826	0.014679	-0.572383
H233	H	0.982750	-0.477641	-1.118796
H234	H	1.482750	0.022359	-0.618796
H235	H	1.033578	-0.473012	-1.060979
H236	H	1.533578	0.026988	-0.560979
N237	N	0.788232	-0.367391	-0.870438
N238	N	1.288232	0.132609	-0.370438
H239	H	0.752472	-0.363457	-0.839757
H240	H	1.252472	0.136543	-0.339757
H241	H	0.789148	-0.318683	-0.897598
H242	H	1.289148	0.181317	-0.397598
H243	H	0.832895	-0.288698	-0.541310
H244	H	1.332895	0.211302	-0.041310
H245	H	0.832909	-0.288587	-0.944946
H246	H	1.332909	0.211413	-0.444946
H247	H	0.978236	-0.471991	-0.945025
H248	H	1.478236	0.028009	-0.445025
N249	N	1.022904	-0.393240	-0.870606
N250	N	1.522904	0.106760	-0.370606
H251	H	1.050965	-0.347537	-0.859242
H252	H	1.550965	0.152463	-0.359242
H253	H	1.044147	-0.444424	-0.859213
H254	H	1.544147	0.055576	-0.359213
N255	N	0.135964	-0.275192	-0.219161
N256	N	0.635964	0.224808	0.280839
H257	H	0.089549	-0.282859	-0.225247
H258	H	0.589549	0.217141	0.274753
H259	H	0.147343	-0.287421	-0.174393
H260	H	0.647343	0.212579	0.325607
H261	H	0.346348	-0.368995	-0.199822
H262	H	0.846348	0.131005	0.300178
