data_functionalizedCrystal
_audit_creation_method	'MofGen! by Chris Wilmer'
_symmetry_space_group_name_H-M	'P1'
_symmetry_Int_Tables_number	1
_symmetry_cell_setting	triclinic
loop_
_symmetry_equiv_pos_as_xyz
  x,y,z
_cell_length_a	12.827892
_cell_length_b	12.827893
_cell_length_c	12.827885
_cell_angle_alpha	90.020999
_cell_angle_beta	89.969834
_cell_angle_gamma	89.986779
loop_
_atom_site_label
_atom_site_type_symbol
_atom_site_fract_x
_atom_site_fract_y
_atom_site_fract_z
Zn1	Zn	-0.416036	-1.597671	-0.590895
Zn2	Zn	0.083964	-1.097671	-0.090895
Zn3	Zn	-0.590814	-1.597566	-0.416155
Zn4	Zn	-0.090814	-1.097566	0.083845
Zn5	Zn	-0.416081	-1.422912	-0.416164
Zn6	Zn	0.083919	-0.922912	0.083836
Zn7	Zn	-0.590729	-1.422898	-0.590850
Zn8	Zn	-0.090729	-0.922898	-0.090850
O9	O	-0.503415	-1.510262	-0.503516
O10	O	-0.003415	-1.010262	-0.003516
O11	O	-0.439237	-1.743893	-0.567731
O12	O	0.060763	-1.243893	-0.067731
O13	O	-0.567689	-1.574359	-0.269920
O14	O	-0.067689	-1.074359	0.230080
O15	O	-0.269839	-1.446144	-0.439365
O16	O	0.230161	-0.946144	0.060635
O17	O	-0.567645	-1.743816	-0.439350
O18	O	-0.067645	-1.243816	0.060650
O19	O	-0.269806	-1.574539	-0.567740
O20	O	0.230194	-1.074539	-0.067740
O21	O	-0.439314	-1.446042	-0.269927
O22	O	0.060686	-0.946042	0.230073
O23	O	-0.439232	-1.276674	-0.439321
O24	O	0.060768	-0.776674	0.060679
O25	O	-0.567502	-1.446120	-0.737092
O26	O	-0.067502	-0.946120	-0.237092
O27	O	-0.567546	-1.276664	-0.567662
O28	O	-0.067546	-0.776664	-0.067662
O29	O	-0.439155	-1.574525	-0.737126
O30	O	0.060845	-1.074525	-0.237126
O31	O	-0.737038	-1.574346	-0.439306
O32	O	-0.237038	-1.074346	0.060694
O33	O	-0.736977	-1.446018	-0.567654
O34	O	-0.236977	-0.946018	-0.067654
C35	C	-0.774925	-1.510197	-0.503497
C36	C	-0.274925	-1.010197	-0.003497
C37	C	-0.891078	-1.510265	-0.503523
C38	C	-0.391078	-1.010265	-0.003523
C39	C	-0.503386	-1.238752	-0.503488
C40	C	-0.003386	-0.738752	-0.003488
C41	C	-0.503398	-1.122599	-0.503501
C42	C	-0.003398	-0.622599	-0.003501
C43	C	-0.942867	-1.446750	-0.566987
C44	C	-0.442867	-0.946750	-0.066987
C45	C	-1.062917	-1.446819	-0.567016
C46	C	-0.562917	-0.946819	-0.067016
C47	C	-0.439983	-0.950808	-0.567137
C48	C	0.060017	-0.450808	-0.067137
C49	C	-0.439968	-1.070858	-0.567125
C50	C	0.060032	-0.570858	-0.067125
C51	C	-0.230845	-1.510355	-0.503558
C52	C	0.269155	-1.010355	-0.003558
C53	C	-0.114692	-1.510395	-0.503576
C54	C	0.385308	-1.010395	-0.003576
C55	C	-0.503314	-1.510333	-0.776086
C56	C	-0.003314	-1.010333	-0.276086
C57	C	-0.503271	-1.510363	-0.892240
C58	C	-0.003271	-1.010363	-0.392240
C59	C	-0.503437	-0.782832	-0.503536
C60	C	-0.003437	-0.282832	-0.003536
C61	C	-0.503424	-0.898985	-0.503524
C62	C	-0.003424	-0.398985	-0.003524
C63	C	-0.439691	-1.446921	-1.064072
C64	C	0.060309	-0.946921	-0.564072
C65	C	-0.439734	-1.446888	-0.944021
C66	C	0.060266	-0.946888	-0.444021
C67	C	-0.503440	-1.510251	-0.232006
C68	C	-0.003440	-1.010251	0.267994
C69	C	-0.503189	-1.510423	-0.115854
C70	C	-0.003189	-1.010423	0.384146
H71	H	-0.898330	-1.392316	-0.621296
H72	H	-0.398330	-0.892316	-0.121296
H73	H	-1.107454	-1.392445	-0.621354
H74	H	-0.607454	-0.892445	-0.121354
F75	F	-0.368585	-1.375894	-1.122290
F76	F	0.131415	-0.875894	-0.622290
H77	H	-0.385650	-1.115424	-0.621582
H78	H	0.114350	-0.615424	-0.121582
F79	F	-0.574391	-1.064358	-0.432305
F80	F	-0.074391	-0.564358	0.067695
F81	F	-0.949288	-1.581405	-0.432525
F82	F	-0.449288	-1.081405	0.067475
F83	F	-0.574411	-0.957156	-0.432330
F84	F	-0.074411	-0.457156	0.067670
F85	F	-0.368680	-1.375819	-0.885820
F86	F	0.131320	-0.875819	-0.385820
H87	H	-0.385684	-0.906298	-0.621611
H88	H	0.114316	-0.406298	-0.121611
F89	F	-0.574338	-1.581425	-0.950434
F90	F	-0.074338	-1.081425	-0.450434
F91	F	-1.056489	-1.581481	-0.432558
F92	F	-0.556489	-1.081481	0.067442
F93	F	-0.574285	-1.581461	-1.057636
F94	F	-0.074285	-1.081461	-0.557636
