data_functionalizedCrystal
_audit_creation_method	'MofGen! by Chris Wilmer'
_symmetry_space_group_name_H-M	'P1'
_symmetry_Int_Tables_number	1
_symmetry_cell_setting	triclinic
loop_
_symmetry_equiv_pos_as_xyz
  x,y,z
_cell_length_a	11.026607
_cell_length_b	16.109301
_cell_length_c	15.186229
_cell_angle_alpha	90.001245
_cell_angle_beta	90.002180
_cell_angle_gamma	96.023749
loop_
_atom_site_label
_atom_site_type_symbol
_atom_site_fract_x
_atom_site_fract_y
_atom_site_fract_z
O1	O	0.155972	1.126504	0.073169
O2	O	0.175383	0.887351	0.073183
O3	O	-0.010968	0.987106	0.073174
O4	O	0.342323	1.026748	0.073178
O5	O	-0.010972	0.987096	-0.073283
O6	O	0.175378	0.887340	-0.073274
O7	O	0.155968	1.126493	-0.073288
Zn8	Zn	0.165673	1.006915	-0.096534
Zn9	Zn	0.165678	1.006929	0.096429
O10	O	0.342318	1.026738	-0.073279
C11	C	0.174594	0.856253	-0.000044
C12	C	0.172237	0.763604	-0.000039
C13	C	-0.056178	0.979788	-0.000053
C14	C	-0.190883	0.957987	-0.000049
C15	C	0.277333	0.557080	-0.000048
C16	C	0.275108	0.470027	-0.000053
C17	C	0.054010	0.456769	-0.000052
C18	C	0.056235	0.543821	-0.000053
C19	C	0.167900	0.593975	-0.000046
C20	C	0.163450	0.419869	-0.000051
C21	C	0.161038	0.325481	-0.000057
C22	C	0.170314	0.688369	-0.000042
C23	C	-0.264713	1.018183	-0.000051
C24	C	-0.403938	0.995652	-0.000046
C25	C	0.387529	1.034056	-0.000050
C26	C	0.522234	1.055857	-0.000049
C27	C	0.156756	1.157591	-0.000059
C28	C	0.159114	1.250240	-0.000059
N29	N	0.165668	1.006912	-0.228227
C30	C	0.083179	1.051110	-0.546149
C31	C	0.083180	1.051108	-0.453960
C32	C	0.248170	0.962737	-0.453962
C33	C	0.248175	0.962745	-0.546150
C34	C	0.165672	1.006929	-0.592241
C35	C	0.165669	1.006920	-0.407864
C36	C	0.165670	1.006917	-0.307908
C37	C	0.165673	1.006934	-0.692204
N38	N	0.165673	1.006938	0.228122
H39	H	0.364219	0.439992	-0.000056
H40	H	0.016003	1.087090	-0.583675
C41	C	0.398476	0.611636	-0.000184
C42	C	0.406194	0.662015	-0.075520
C43	C	0.517769	0.712288	-0.075671
H44	H	0.463437	0.577295	-0.000232
H45	H	0.403956	0.645919	0.050863
H46	H	0.400726	0.627735	-0.126555
H47	H	0.341260	0.696373	-0.075489
H48	H	0.523249	0.746571	-0.024624
H49	H	0.582721	0.677940	-0.075717
H50	H	0.523016	0.746481	-0.126782
C51	C	-0.067098	0.402172	-0.000006
C52	C	-0.045629	0.318038	0.000019
C53	C	-0.157166	0.267722	0.000076
H54	H	-0.112254	0.413606	-0.051065
H55	H	-0.112161	0.413670	0.051088
H56	H	-0.000585	0.306545	-0.051069
H57	H	-0.000491	0.306578	0.051074
H58	H	-0.202229	0.279219	0.051170
H59	H	-0.202314	0.279163	-0.050983
H60	H	-0.142614	0.210631	0.000102
H61	H	0.315357	0.926768	-0.583681
C62	C	-0.062492	0.583996	0.000088
C63	C	-0.067650	0.633606	0.075425
C64	C	-0.176989	0.670637	0.075576
H65	H	-0.129414	0.541749	0.000136
H66	H	-0.066230	0.617725	-0.050959
H67	H	-0.063924	0.599879	0.126459
H68	H	-0.000753	0.675867	0.075393
H69	H	-0.180727	0.704366	0.024528
H70	H	-0.243902	0.628385	0.075621
H71	H	-0.180498	0.704307	0.126686
H72	H	0.315341	0.926762	-0.416425
H73	H	-0.224848	1.086399	-0.000060
C74	C	-0.457308	0.904736	-0.000083
C75	C	-0.584788	0.900463	-0.000100
C76	C	-0.633995	0.816727	-0.000144
H77	H	-0.430792	0.877756	0.050977
H78	H	-0.430741	0.877813	-0.051175
H79	H	-0.611344	0.927373	0.050988
H80	H	-0.611337	0.927424	-0.051156
H81	H	-0.607428	0.789804	-0.051237
H82	H	-0.607471	0.789755	0.050916
H83	H	-0.720494	0.813816	-0.000164
H84	H	-0.230748	0.889771	-0.000039
C85	C	-0.424704	1.146838	0.000125
C86	C	-0.464127	1.186283	0.075483
C87	C	-0.415259	1.270090	0.075678
H88	H	-0.451321	1.173838	-0.050890
H89	H	-0.338187	1.149931	0.000171
H90	H	-0.550626	1.183196	0.075429
H91	H	-0.437512	1.159309	0.126510
H92	H	-0.328742	1.273183	0.075724
H93	H	-0.441879	1.297082	0.024660
H94	H	-0.441991	1.296862	0.126811
H95	H	0.016008	1.087086	-0.416434
