data_functionalizedCrystal
_audit_creation_method	'MofGen! by Chris Wilmer'
_symmetry_space_group_name_H-M	'P1'
_symmetry_Int_Tables_number	1
_symmetry_cell_setting	triclinic
loop_
_symmetry_equiv_pos_as_xyz
  x,y,z
_cell_length_a	12.759401
_cell_length_b	16.120444
_cell_length_c	12.759393
_cell_angle_alpha	92.864172
_cell_angle_beta	89.980789
_cell_angle_gamma	92.926867
loop_
_atom_site_label
_atom_site_type_symbol
_atom_site_fract_x
_atom_site_fract_y
_atom_site_fract_z
Zn1	Zn	1.584971	-0.331853	-0.615154
Zn2	Zn	1.918304	0.001480	-0.281821
Zn3	Zn	2.251637	0.334814	0.051512
Zn4	Zn	1.575917	-0.471290	-0.448370
Zn5	Zn	1.909251	-0.137957	-0.115036
Zn6	Zn	2.242584	0.195377	0.218297
Zn7	Zn	1.409268	-0.331896	-0.439496
Zn8	Zn	1.742601	0.001437	-0.106163
Zn9	Zn	2.075935	0.334771	0.227170
Zn10	Zn	1.400319	-0.471228	-0.624007
Zn11	Zn	1.733653	-0.137894	-0.290673
Zn12	Zn	2.066986	0.195439	0.042660
O13	O	1.492619	-0.401567	-0.531757
O14	O	1.825952	-0.068233	-0.198423
O15	O	2.159285	0.265100	0.134910
O16	O	1.730790	-0.350358	-0.593039
O17	O	2.064124	-0.017024	-0.259706
O18	O	2.397457	0.316309	0.073628
O19	O	1.553767	-0.452843	-0.300174
O20	O	1.887100	-0.119510	0.033159
O21	O	2.220434	0.213823	0.366492
O22	O	1.440109	-0.215224	-0.455379
O23	O	1.773443	0.118109	-0.122046
O24	O	2.106776	0.451442	0.211287
O25	O	1.724139	-0.452801	-0.470503
O26	O	2.057472	-0.119468	-0.137169
O27	O	2.390805	0.213865	0.196164
O28	O	1.569197	-0.215193	-0.584435
O29	O	1.902531	0.118140	-0.251101
O30	O	2.235864	0.451474	0.082232
O31	O	1.431331	-0.350431	-0.293655
O32	O	1.764664	-0.017098	0.039678
O33	O	2.097997	0.316236	0.373012
O34	O	1.261060	-0.350371	-0.463963
O35	O	1.594394	-0.017037	-0.130630
O36	O	1.927727	0.316296	0.202704
O37	O	1.424858	-0.452695	-0.769851
O38	O	1.758191	-0.119362	-0.436517
O39	O	2.091524	0.213971	-0.103184
O40	O	1.254486	-0.452737	-0.599522
O41	O	1.587819	-0.119404	-0.266189
O42	O	1.921153	0.213930	0.067145
O43	O	1.560520	-0.350297	-0.763347
O44	O	1.893853	-0.016964	-0.430014
O45	O	2.227187	0.316369	-0.096680
O46	O	1.545090	-0.587948	-0.479086
O47	O	1.878423	-0.254614	-0.145753
O48	O	2.211756	0.078719	0.187580
O49	O	1.416079	-0.587902	-0.608126
O50	O	1.749412	-0.254569	-0.274793
O51	O	2.082745	0.078765	0.058540
C52	C	1.219652	-0.401552	-0.531741
C53	C	1.552986	-0.068219	-0.198408
C54	C	1.886319	0.265114	0.134926
C55	C	1.102875	-0.401566	-0.531760
C56	C	1.436208	-0.068233	-0.198427
C57	C	1.769542	0.265100	0.134906
C58	C	1.051471	-0.348320	-0.595675
C59	C	1.384804	-0.014987	-0.262341
C60	C	1.718137	0.318347	0.070992
C61	C	0.941746	-0.348329	-0.595682
C62	C	1.275079	-0.014995	-0.262349
C63	C	1.608413	0.318338	0.070984
C64	C	0.934839	-0.454837	-0.467859
C65	C	1.268172	-0.121503	-0.134525
C66	C	1.601506	0.211830	0.198808
C67	C	1.044562	-0.454823	-0.467846
C68	C	1.377895	-0.121490	-0.134513
C69	C	1.711228	0.211843	0.198820
C70	C	1.478659	-0.618175	-0.545553
C71	C	1.811993	-0.284841	-0.212219
C72	C	2.145326	0.048492	0.121114
C73	C	1.472784	-0.710841	-0.551490
C74	C	1.806117	-0.377507	-0.218157
C75	C	2.139450	-0.044174	0.115177
C76	C	1.523357	-0.921785	-0.501184
C77	C	1.856690	-0.588452	-0.167850
C78	C	2.190024	-0.255119	0.165483
C79	C	1.462075	-0.880497	-0.562341
C80	C	1.795409	-0.547164	-0.229007
C81	C	2.128742	-0.213830	0.104326
C82	C	1.468035	-0.786091	-0.556301
C83	C	1.801369	-0.452758	-0.222968
C84	C	2.134702	-0.119425	0.110365
C85	C	1.517398	-1.016199	-0.507221
C86	C	1.850732	-0.682866	-0.173888
C87	C	2.184065	-0.349533	0.159445
C88	C	1.766651	-0.401582	-0.531773
C89	C	2.099984	-0.068248	-0.198440
C90	C	2.433318	0.265085	0.134893
C91	C	1.883427	-0.401588	-0.531780
C92	C	2.216761	-0.068255	-0.198447
C93	C	2.550094	0.265079	0.134886
C94	C	1.492700	-0.401485	-0.805785
C95	C	1.826034	-0.068151	-0.472452
C96	C	2.159367	0.265182	-0.139118
C97	C	1.492735	-0.401450	-0.922559
C98	C	1.826069	-0.068116	-0.589226
C99	C	2.159402	0.265217	-0.255893
C100	C	1.506661	-0.184113	-0.517930
C101	C	1.839995	0.149221	-0.184597
C102	C	2.173328	0.482554	0.148737
C103	C	1.512646	-0.091447	-0.512038
C104	C	1.845979	0.241887	-0.178704
C105	C	2.179312	0.575220	0.154629
C106	C	1.563404	-0.348091	-1.083765
C107	C	1.896737	-0.014758	-0.750432
C108	C	2.230071	0.318576	-0.417099
C109	C	1.563382	-0.348123	-0.974043
C110	C	1.896715	-0.014790	-0.640710
C111	C	2.230048	0.318544	-0.307377
C112	C	1.422114	-0.454753	-0.980804
C113	C	1.755447	-0.121420	-0.647471
C114	C	2.088780	0.211914	-0.314137
C115	C	1.422142	-0.454724	-1.090524
C116	C	1.755475	-0.121391	-0.757191
C117	C	2.088808	0.211942	-0.423858
C118	C	1.492602	-0.401588	-0.258791
C119	C	1.825935	-0.068255	0.074543
C120	C	2.159268	0.265078	0.407876
C121	C	1.492786	-0.401389	-0.142002
C122	C	1.826119	-0.068055	0.191331
C123	C	2.159452	0.265278	0.524665
H124	H	0.887347	-0.498197	-0.415823
H125	H	1.220681	-0.164864	-0.082490
H126	H	1.554014	0.168469	0.250844
H127	H	0.899898	-0.304969	-0.647726
H128	H	1.233232	0.028364	-0.314393
H129	H	1.566565	0.361698	0.018941
H130	H	1.086416	-0.498183	-0.415794
H131	H	1.419749	-0.164850	-0.082461
H132	H	1.753082	0.168483	0.250873
H133	H	1.580293	-0.886236	-0.444293
H134	H	1.913627	-0.552903	-0.110960
H135	H	2.246960	-0.219570	0.222374
H136	H	1.364634	-0.498130	-1.137942
H137	H	1.697968	-0.164797	-0.804609
H138	H	2.031301	0.168536	-0.471276
H139	H	1.405134	-0.916050	-0.619234
H140	H	1.738467	-0.582716	-0.285901
H141	H	2.071801	-0.249383	0.047432
H142	H	1.098946	-0.304952	-0.647714
H143	H	1.432280	0.028381	-0.314381
H144	H	1.765613	0.361714	0.018952
H145	H	1.620926	-0.304661	-1.125675
H146	H	1.954260	0.028672	-0.792341
H147	H	2.287593	0.362006	-0.459008
H148	H	1.620887	-0.304724	-0.926632
H149	H	1.954221	0.028610	-0.593298
H150	H	2.287554	0.361943	-0.259965
H151	H	1.364596	-0.498176	-0.938878
H152	H	1.697930	-0.164843	-0.605544
H153	H	2.031263	0.168491	-0.272211
