data_functionalizedCrystal
_audit_creation_method	'MofGen! by Chris Wilmer'
_symmetry_space_group_name_H-M	'P1'
_symmetry_Int_Tables_number	1
_symmetry_cell_setting	triclinic
loop_
_symmetry_equiv_pos_as_xyz
  x,y,z
_cell_length_a	18.050591
_cell_length_b	19.121063
_cell_length_c	18.050583
_cell_angle_alpha	92.405296
_cell_angle_beta	89.975765
_cell_angle_gamma	92.465257
loop_
_atom_site_label
_atom_site_type_symbol
_atom_site_fract_x
_atom_site_fract_y
_atom_site_fract_z
Zn1	Zn	1.122704	-0.279663	-0.432627
Zn2	Zn	1.456038	0.053670	-0.099293
Zn3	Zn	1.789371	0.387003	0.234040
Zn4	Zn	1.117311	-0.397127	-0.313727
Zn5	Zn	1.450644	-0.063793	0.019607
Zn6	Zn	1.783977	0.269540	0.352940
Zn7	Zn	0.998515	-0.279686	-0.308439
Zn8	Zn	1.331849	0.053647	0.024895
Zn9	Zn	1.665182	0.386980	0.358228
Zn10	Zn	0.993177	-0.397069	-0.437860
Zn11	Zn	1.326510	-0.063736	-0.104526
Zn12	Zn	1.659844	0.269597	0.228807
O13	O	1.057927	-0.338386	-0.373163
O14	O	1.391260	-0.005053	-0.039830
O15	O	1.724594	0.328280	0.293504
O16	O	1.225913	-0.295259	-0.416877
O17	O	1.559246	0.038074	-0.083544
O18	O	1.892580	0.371407	0.249789
O19	O	1.101529	-0.381582	-0.209102
O20	O	1.434862	-0.048248	0.124231
O21	O	1.768196	0.285085	0.457565
O22	O	1.019481	-0.181399	-0.320509
O23	O	1.352814	0.151934	0.012824
O24	O	1.686148	0.485267	0.346157
O25	O	1.221950	-0.381559	-0.329522
O26	O	1.555283	-0.048226	0.003811
O27	O	1.888617	0.285107	0.337145
O28	O	1.110722	-0.181382	-0.411750
O29	O	1.444055	0.151951	-0.078416
O30	O	1.777389	0.485284	0.254917
O31	O	1.014251	-0.295299	-0.205217
O32	O	1.347584	0.038035	0.128116
O33	O	1.680917	0.371368	0.461450
O34	O	0.893883	-0.295243	-0.325584
O35	O	1.227217	0.038090	0.007750
O36	O	1.560550	0.371424	0.341083
O37	O	1.010382	-0.381461	-0.541089
O38	O	1.343715	-0.048128	-0.207755
O39	O	1.677049	0.285205	0.125578
O40	O	0.889961	-0.381484	-0.420669
O41	O	1.223294	-0.048150	-0.087335
O42	O	1.556628	0.285183	0.245998
O43	O	1.105546	-0.295204	-0.537244
O44	O	1.438879	0.038130	-0.203911
O45	O	1.772212	0.371463	0.129423
O46	O	1.096352	-0.495403	-0.334596
O47	O	1.429686	-0.162070	-0.001263
O48	O	1.763019	0.171264	0.332070
O49	O	1.005152	-0.495361	-0.425796
O50	O	1.338485	-0.162028	-0.092463
O51	O	1.671819	0.171306	0.240870
C52	C	0.864976	-0.338360	-0.373121
C53	C	1.198309	-0.005027	-0.039787
C54	C	1.531643	0.328306	0.293546
C55	C	0.782430	-0.338366	-0.373121
C56	C	1.115763	-0.005033	-0.039788
C57	C	1.449097	0.328301	0.293546
C58	C	0.585093	-0.291414	-0.321526
C59	C	0.918426	0.041920	0.011808
C60	C	1.251760	0.375253	0.345141
C61	C	0.532783	-0.355476	-0.306135
C62	C	0.866117	-0.022143	0.027199
C63	C	1.199450	0.311190	0.360532
C64	C	0.631299	-0.338387	-0.373155
C65	C	0.964632	-0.005054	-0.039822
C66	C	1.297965	0.328279	0.293511
C67	C	0.536526	-0.274347	-0.388545
C68	C	0.869859	0.058986	-0.055212
C69	C	1.203192	0.392320	0.278121
C70	C	0.485313	-0.338402	-0.373187
C71	C	0.818646	-0.005069	-0.039854
C72	C	1.151979	0.328264	0.293479
C73	C	0.580074	-0.402483	-0.357731
C74	C	0.913408	-0.069150	-0.024397
C75	C	1.246741	0.264183	0.308936
C76	C	0.583823	-0.321311	-0.440171
C77	C	0.917157	0.012022	-0.106838
C78	C	1.250490	0.345356	0.226495
C79	C	0.531534	-0.385418	-0.424808
C80	C	0.864867	-0.052084	-0.091475
C81	C	1.198200	0.281249	0.241859
C82	C	0.715397	-0.338378	-0.373135
C83	C	1.048731	-0.005044	-0.039802
C84	C	1.382064	0.328289	0.293531
C85	C	0.401215	-0.338419	-0.373208
C86	C	0.734549	-0.005086	-0.039874
C87	C	1.067882	0.328248	0.293459
C88	C	1.049608	-0.520866	-0.381354
C89	C	1.382941	-0.187533	-0.048021
C90	C	1.716274	0.145801	0.285312
C91	C	1.046117	-0.598931	-0.384883
C92	C	1.379450	-0.265598	-0.051550
C93	C	1.712783	0.067735	0.281783
C94	C	1.091997	-0.635605	-0.339098
C95	C	1.425330	-0.302272	-0.005764
C96	C	1.758663	0.031061	0.327569
C97	C	1.088718	-0.708956	-0.342421
C98	C	1.422051	-0.375623	-0.009088
C99	C	1.755384	-0.042290	0.324246
C100	C	1.039555	-0.745632	-0.391527
C101	C	1.372888	-0.412298	-0.058194
C102	C	1.706221	-0.078965	0.275140
C103	C	0.993673	-0.708953	-0.437318
C104	C	1.327006	-0.375619	-0.103984
C105	C	1.660339	-0.042286	0.229349
C106	C	0.996956	-0.635603	-0.433997
C107	C	1.330289	-0.302270	-0.100664
C108	C	1.663622	0.031064	0.232669
C109	C	1.027268	-0.967100	-0.403929
C110	C	1.360601	-0.633767	-0.070596
C111	C	1.693934	-0.300433	0.262738
C112	C	1.023986	-1.040455	-0.407244
C113	C	1.357320	-0.707121	-0.073911
C114	C	1.690653	-0.373788	0.259422
C115	C	1.119033	-1.040453	-0.312348
C116	C	1.452366	-0.707120	0.020985
C117	C	1.785699	-0.373787	0.354318
C118	C	1.122308	-0.967102	-0.309029
C119	C	1.455642	-0.633769	0.024304
C120	C	1.788975	-0.300436	0.357637
C121	C	1.076429	-0.930430	-0.354823
C122	C	1.409763	-0.597096	-0.021489
C123	C	1.743096	-0.263763	0.311844
C124	C	1.036200	-0.820608	-0.394924
C125	C	1.369534	-0.487275	-0.061590
C126	C	1.702867	-0.153942	0.271743
C127	C	1.079788	-0.855455	-0.351429
C128	C	1.413121	-0.522121	-0.018096
C129	C	1.746455	-0.188788	0.315237
C130	C	1.251631	-0.338413	-0.373206
C131	C	1.584965	-0.005080	-0.039872
C132	C	1.918298	0.328254	0.293461
C133	C	1.334176	-0.338425	-0.373224
C134	C	1.667510	-0.005091	-0.039891
C135	C	2.000843	0.328242	0.293443
C136	C	1.057970	-0.338324	-0.566866
C137	C	1.391303	-0.004990	-0.233532
C138	C	1.724637	0.328343	0.099801
C139	C	1.057988	-0.338297	-0.649410
C140	C	1.391322	-0.004964	-0.316077
C141	C	1.724655	0.328370	0.017256
C142	C	1.066299	-0.155194	-0.364956
C143	C	1.399632	0.178139	-0.031623
C144	C	1.732965	0.511472	0.301711
C145	C	1.069866	-0.077129	-0.361459
C146	C	1.403200	0.256205	-0.028125
C147	C	1.736533	0.589538	0.305208
C148	C	1.109787	-0.291342	-0.896143
C149	C	1.443120	0.041991	-0.562810
C150	C	1.776453	0.375324	-0.229477
C151	C	1.125018	-0.355429	-0.849617
C152	C	1.458352	-0.022096	-0.516284
C153	C	1.791685	0.311238	-0.182951
C154	C	1.058038	-0.338252	-0.946529
C155	C	1.391372	-0.004919	-0.613196
C156	C	1.724705	0.328414	-0.279862
C157	C	1.042817	-0.274191	-0.845974
C158	C	1.376150	0.059142	-0.512641
C159	C	1.709483	0.392475	-0.179308
C160	C	1.058016	-0.338271	-0.800545
C161	C	1.391349	-0.004937	-0.467211
C162	C	1.724682	0.328396	-0.133878
C163	C	1.073304	-0.402372	-0.901092
C164	C	1.406637	-0.069039	-0.567758
C165	C	1.739970	0.264294	-0.234425
C166	C	0.991073	-0.321092	-0.897451
C167	C	1.324406	0.012242	-0.564118
C168	C	1.657739	0.345575	-0.230784
C169	C	1.006276	-0.385222	-0.850949
C170	C	1.339610	-0.051889	-0.517616
C171	C	1.672943	0.281444	-0.184283
C172	C	1.058053	-0.338241	-1.030627
C173	C	1.391387	-0.004907	-0.697293
C174	C	1.724720	0.328426	-0.363960
C175	C	1.058000	-0.338290	-0.716449
C176	C	1.391334	-0.004956	-0.383116
C177	C	1.724667	0.328377	-0.049782
C178	C	1.057929	-0.338398	-0.180211
C179	C	1.391262	-0.005065	0.153122
C180	C	1.724596	0.328268	0.486455
C181	C	1.058063	-0.338227	-0.097658
C182	C	1.391397	-0.004894	0.235675
C183	C	1.724730	0.328440	0.569008
H184	H	0.508221	-0.425194	-0.468485
H185	H	0.841554	-0.091860	-0.135152
H186	H	1.174887	0.241473	0.198181
H187	H	0.608538	-0.251733	-0.277820
H188	H	0.941871	0.081601	0.055513
H189	H	1.275205	0.414934	0.388846
H190	H	1.132027	-0.605749	-0.299107
H191	H	1.465361	-0.272416	0.034226
H192	H	1.798694	0.060918	0.367559
H193	H	0.606235	-0.306837	-0.496813
H194	H	0.939568	0.026496	-0.163480
H195	H	1.272902	0.359830	0.169854
C196	C	0.982113	-0.860959	-0.448931
C197	C	1.315447	-0.527625	-0.115597
C198	C	1.648780	-0.194292	0.217736
N199	N	0.941374	-0.891353	-0.489607
N200	N	1.274708	-0.558020	-0.156274
N201	N	1.608041	-0.224686	0.177059
C202	C	0.510556	-0.201173	-0.406117
C203	C	0.843889	0.132160	-0.072784
C204	C	1.177223	0.465493	0.260550
N205	N	0.490999	-0.146057	-0.419347
N206	N	0.824332	0.187276	-0.086013
N207	N	1.157666	0.520610	0.247320
H208	H	1.086251	-0.456567	-0.925117
H209	H	1.419584	-0.123234	-0.591784
H210	H	1.752918	0.210100	-0.258451
C211	C	0.947158	-0.438890	-0.824208
C212	C	1.280491	-0.105557	-0.490874
C213	C	1.613824	0.227777	-0.157541
N214	N	0.902639	-0.479316	-0.804055
N215	N	1.235972	-0.145983	-0.470722
N216	N	1.569305	0.187351	-0.137389
C217	C	0.502525	-0.375001	-0.229591
C218	C	0.835858	-0.041667	0.103742
C219	C	1.169192	0.291666	0.437076
N220	N	0.479735	-0.389701	-0.171937
N221	N	0.813069	-0.056368	0.161396
N222	N	1.146402	0.276966	0.494730
H223	H	1.126078	-0.738813	-0.305137
H224	H	1.459411	-0.405480	0.028196
H225	H	1.792744	-0.072146	0.361530
C226	C	0.914605	-0.301438	-0.925898
C227	C	1.247938	0.031896	-0.592565
C228	C	1.581271	0.365229	-0.259232
N229	N	0.857010	-0.286626	-0.947327
N230	N	1.190343	0.046707	-0.613994
N231	N	1.523676	0.380040	-0.280661
C232	C	1.176373	-0.926765	-0.254990
C233	C	1.509706	-0.593431	0.078343
C234	C	1.843039	-0.260098	0.411677
N235	N	1.217086	-0.896382	-0.214278
N236	N	1.550419	-0.563049	0.119055
N237	N	1.883753	-0.229716	0.452389
C238	C	1.169499	-1.080799	-0.261981
C239	C	1.502832	-0.747466	0.071352
C240	C	1.836165	-0.414132	0.404685
N241	N	1.207513	-1.111188	-0.224045
N242	N	1.540847	-0.777855	0.109289
N243	N	1.874180	-0.444521	0.442622
H244	H	0.983961	-1.070314	-0.447245
H245	H	1.317294	-0.736981	-0.113912
H246	H	1.650627	-0.403647	0.219422
H247	H	0.989910	-0.937247	-0.441214
H248	H	1.323243	-0.603913	-0.107881
H249	H	1.656576	-0.270580	0.225452
C250	C	1.025433	-0.200992	-0.813398
C251	C	1.358766	0.132341	-0.480064
C252	C	1.692100	0.465674	-0.146731
N253	N	1.012345	-0.145857	-0.788864
N254	N	1.345678	0.187476	-0.455531
N255	N	1.679011	0.520810	-0.122197
H256	H	0.953646	-0.738820	-0.477304
H257	H	1.286979	-0.405486	-0.143971
H258	H	1.620313	-0.072153	0.189363
C259	C	0.605921	-0.475677	-0.340069
C260	C	0.939255	-0.142344	-0.006735
C261	C	1.272588	0.190990	0.326598
N262	N	0.625391	-0.530804	-0.326762
N263	N	0.958724	-0.197471	0.006571
N264	N	1.292058	0.135862	0.339905
C265	C	0.946484	-0.595262	-0.484366
C266	C	1.279818	-0.261929	-0.151032
C267	C	1.613151	0.071404	0.182301
N268	N	0.908470	-0.564878	-0.522307
N269	N	1.241803	-0.231545	-0.188973
N270	N	1.575136	0.101788	0.144360
C271	C	1.133865	-0.815109	-0.297413
C272	C	1.467198	-0.481776	0.035920
C273	C	1.800531	-0.148443	0.369254
N274	N	1.174592	-0.784715	-0.256725
N275	N	1.507926	-0.451381	0.076609
N276	N	1.841259	-0.118048	0.409942
H277	H	1.153588	-0.251714	-0.916057
H278	H	1.486921	0.081619	-0.582724
H279	H	1.820255	0.414953	-0.249391
H280	H	1.181640	-0.369955	-0.828579
H281	H	1.514973	-0.036622	-0.495245
H282	H	1.848306	0.296711	-0.161912
