data_functionalizedCrystal
_audit_creation_method	'MofGen! by Chris Wilmer'
_symmetry_space_group_name_H-M	'P1'
_symmetry_Int_Tables_number	1
_symmetry_cell_setting	triclinic
loop_
_symmetry_equiv_pos_as_xyz
  x,y,z
_cell_length_a	16.109301
_cell_length_b	10.540539
_cell_length_c	14.586319
_cell_angle_alpha	89.998343
_cell_angle_beta	89.999213
_cell_angle_gamma	83.993486
loop_
_atom_site_label
_atom_site_type_symbol
_atom_site_fract_x
_atom_site_fract_y
_atom_site_fract_z
O1	O	1.104129	0.163159	-0.076178
O2	O	0.862191	0.183464	-0.076192
O3	O	0.988679	-0.011474	-0.076184
O4	O	0.977640	0.358096	-0.076186
O5	O	0.988670	-0.011477	0.076297
O6	O	0.862182	0.183461	0.076289
O7	O	1.104120	0.163156	0.076303
Cu8	Cu	0.983150	0.173308	0.090219
Cu9	Cu	0.983160	0.173312	-0.090108
O10	O	0.977631	0.358094	0.076294
C11	C	0.831206	0.182640	0.000047
C12	C	0.738896	0.180174	0.000041
C13	C	0.517296	0.290112	0.000051
C14	C	0.430561	0.287785	0.000057
C15	C	0.449021	0.056499	0.000055
C16	C	0.535754	0.058827	0.000055
C17	C	0.569889	0.175637	0.000049
C18	C	0.396421	0.170982	0.000054
C19	C	0.302380	0.168459	0.000060
C20	C	0.663936	0.178162	0.000044
C21	C	0.987847	-0.058767	0.000055
C22	C	0.985370	-0.199679	0.000050
C23	C	0.890460	-0.381753	-0.000298
C24	C	0.892971	-0.235171	0.000046
C25	C	1.029832	-0.261973	0.087127
C26	C	1.026678	-0.408472	0.087200
C27	C	1.028567	-0.409014	-0.086199
C28	C	1.029419	-0.262044	-0.087350
C29	C	1.135104	0.163980	0.000062
C30	C	1.227414	0.166446	0.000062
C31	C	0.978463	0.405386	0.000054
C32	C	0.980940	0.546299	0.000053
N33	N	0.983149	0.173305	0.217050
N34	N	0.983168	0.173305	-0.216939
C35	C	1.039177	0.087015	0.452060
C36	C	1.039179	0.087012	0.548042
C37	C	0.927134	0.259598	0.548044
C38	C	0.927129	0.259594	0.452064
C39	C	0.983154	0.173304	0.404075
C40	C	0.983163	0.173305	0.596036
C41	C	0.983165	0.173303	0.700103
C42	C	0.983151	0.173305	0.300001
H43	H	0.578578	-0.034398	0.000056
O44	O	1.114697	-0.473272	0.092471
H45	H	1.113106	-0.578292	0.092564
H46	H	0.545085	0.385227	0.000052
O47	O	0.866723	0.352685	0.599806
H48	H	0.801813	0.336487	0.581402
H49	H	0.854105	-0.411444	0.061793
H50	H	0.857986	-0.192068	-0.062374
O51	O	1.119711	-0.233638	0.091439
H52	H	1.133678	-0.174711	0.031423
O53	O	0.412199	-0.069482	0.000053
H54	H	0.433265	-0.124485	0.062206
H55	H	0.853964	-0.409832	-0.062742
H56	H	0.881505	0.329862	0.412992
O57	O	0.373832	0.411253	0.000061
H58	H	0.386045	0.467152	-0.062091
H59	H	0.857734	-0.192914	0.062566
H60	H	0.993812	-0.436204	0.152288
H61	H	0.998939	-0.218934	0.151923
O62	O	0.988962	-0.450225	-0.173627
H63	H	0.934883	-0.503024	-0.156576
O64	O	0.986395	-0.207207	-0.172688
H65	H	0.933860	-0.135826	-0.152947
O66	O	1.118656	-0.231244	-0.094318
H67	H	1.153808	-0.268169	-0.032771
H68	H	1.095307	-0.457191	-0.086781
H69	H	1.084795	0.016751	0.412990
H70	H	1.084796	0.016747	0.587109
