data_functionalizedCrystal
_audit_creation_method	'MofGen! by Chris Wilmer'
_symmetry_space_group_name_H-M	'P1'
_symmetry_Int_Tables_number	1
_symmetry_cell_setting	triclinic
loop_
_symmetry_equiv_pos_as_xyz
  x,y,z
_cell_length_a	13.032831
_cell_length_b	16.120484
_cell_length_c	16.120256
_cell_angle_alpha	95.616173
_cell_angle_beta	86.057501
_cell_angle_gamma	86.078521
loop_
_atom_site_label
_atom_site_type_symbol
_atom_site_fract_x
_atom_site_fract_y
_atom_site_fract_z
Zn1	Zn	1.523154	-0.519560	-0.651746
Zn2	Zn	2.023154	-0.019560	-0.151746
Zn3	Zn	1.523025	-0.652232	-0.519042
Zn4	Zn	2.023025	-0.152232	-0.019042
Zn5	Zn	1.359945	-0.495048	-0.494602
Zn6	Zn	1.859945	0.004952	0.005398
Zn7	Zn	1.341484	-0.639874	-0.639423
Zn8	Zn	1.841484	-0.139874	-0.139423
O9	O	1.436902	-0.576679	-0.576203
O10	O	1.936902	-0.076679	-0.076203
O11	O	1.667417	-0.552590	-0.649529
O12	O	2.167417	-0.052590	-0.149529
O13	O	1.509064	-0.626294	-0.399655
O14	O	2.009064	-0.126294	0.100345
O15	O	1.389375	-0.382166	-0.510377
O16	O	1.889375	0.117834	-0.010377
O17	O	1.667322	-0.650063	-0.552032
O18	O	2.167322	-0.150063	-0.052032
O19	O	1.509284	-0.400175	-0.625830
O20	O	2.009284	0.099825	-0.125830
O21	O	1.389249	-0.510812	-0.381699
O22	O	1.889249	-0.010812	0.118301
O23	O	1.213216	-0.498829	-0.498427
O24	O	1.713216	0.001171	0.001573
O25	O	1.357911	-0.629001	-0.757203
O26	O	1.857911	-0.129001	-0.257203
O27	O	1.199653	-0.605232	-0.604826
O28	O	1.699653	-0.105232	-0.104826
O29	O	1.491384	-0.540607	-0.766257
O30	O	1.991384	-0.040607	-0.266257
O31	O	1.491163	-0.766727	-0.540082
O32	O	1.991163	-0.266727	-0.040082
O33	O	1.357786	-0.757647	-0.628525
O34	O	1.857786	-0.257647	-0.128525
C35	C	1.169025	-0.548030	-0.547638
C36	C	1.669025	-0.048030	-0.047638
C37	C	1.054423	-0.535795	-0.535438
C38	C	1.554423	-0.035795	-0.035438
C39	C	0.996646	-0.583064	-0.582571
C40	C	1.496646	-0.083064	-0.082571
C41	C	0.878199	-0.570420	-0.569962
C42	C	1.378199	-0.070420	-0.069962
C43	C	1.422484	-0.792303	-0.585639
C44	C	1.922484	-0.292303	-0.085639
C45	C	1.416408	-0.884559	-0.589714
C46	C	1.916408	-0.384559	-0.089714
C47	C	1.405320	-1.053474	-0.597171
C48	C	1.905320	-0.553474	-0.097171
C49	C	1.468667	-1.099062	-0.555269
C50	C	1.968667	-0.599062	-0.055269
C51	C	1.462498	-1.193053	-0.559418
C52	C	1.962498	-0.693053	-0.059418
C53	C	1.411488	-0.959476	-0.593023
C54	C	1.911488	-0.459476	-0.093023
C55	C	1.705825	-0.605439	-0.604881
C56	C	2.205825	-0.105439	-0.104881
C57	C	1.820424	-0.617695	-0.617102
C58	C	2.320424	-0.117695	-0.117102
C59	C	1.422603	-0.586160	-0.792687
C60	C	1.922603	-0.086160	-0.292687
C61	C	1.416509	-0.590200	-0.884939
C62	C	1.916509	-0.090200	-0.384939
C63	C	1.451403	-0.360216	-0.566752
C64	C	1.951403	0.139784	-0.066752
C65	C	1.457583	-0.267973	-0.562724
C66	C	1.957583	0.232027	-0.062724
C67	C	1.468678	-0.555587	-1.099424
C68	C	1.968678	-0.055587	-0.599424
C69	C	1.405352	-0.597538	-1.053835
C70	C	1.905352	-0.097538	-0.553835
C71	C	1.411562	-0.593454	-0.959853
C72	C	1.911562	-0.093454	-0.459853
C73	C	1.462470	-0.559671	-1.193415
C74	C	1.962470	-0.059671	-0.693415
C75	C	1.451209	-0.567181	-0.360566
C76	C	1.951209	-0.067181	0.139434
C77	C	1.457518	-0.562928	-0.268325
C78	C	1.957518	-0.062928	0.231675
H79	H	0.858644	-0.667524	-0.666797
H80	H	1.358644	-0.167524	-0.166797
O81	O	1.008997	-0.476284	-0.476146
O82	O	1.508997	0.023716	0.023854
C83	C	1.085715	-0.434804	-0.434754
C84	C	1.585715	0.065196	0.065246
H85	H	1.160467	-0.441612	-0.476747
H86	H	1.660467	0.058388	0.023253
H87	H	1.059456	-0.365711	-0.419846
H88	H	1.559456	0.134289	0.080154
H89	H	1.099258	-0.463545	-0.374200
H90	H	1.599258	0.036455	0.125800
O91	O	1.335257	-0.644165	-1.091526
O92	O	1.835257	-0.144165	-0.591526
C93	C	1.387135	-0.706165	-1.150302
C94	C	1.887135	-0.206165	-0.650302
H95	H	1.469694	-0.718840	-1.133003
H96	H	1.969694	-0.218840	-0.633003
H97	H	1.345516	-0.766101	-1.150205
H98	H	1.845516	-0.266101	-0.650205
H99	H	1.388146	-0.683690	-1.215224
H100	H	1.888146	-0.183690	-0.715224
O101	O	1.538799	-1.061280	-0.508758
O102	O	2.038799	-0.561280	-0.008758
C103	C	1.529431	-0.974487	-0.514923
C104	C	2.029431	-0.474487	-0.014923
H105	H	1.448799	-0.955477	-0.533070
H106	H	1.948799	-0.455477	-0.033070
H107	H	1.542703	-0.939519	-0.452079
H108	H	2.042703	-0.439519	0.047921
H109	H	1.589216	-0.958281	-0.564603
H110	H	2.089216	-0.458281	-0.064603
O111	O	1.335121	-1.091245	-0.643607
O112	O	1.835121	-0.591245	-0.143607
C113	C	1.344526	-1.178042	-0.637467
C114	C	1.844526	-0.678042	-0.137467
H115	H	1.381843	-1.190591	-0.577556
H116	H	1.881843	-0.690591	-0.077556
H117	H	1.264796	-1.203110	-0.636231
H118	H	1.764796	-0.703110	-0.136231
H119	H	1.394541	-1.210610	-0.693648
H120	H	1.894541	-0.710610	-0.193648
H121	H	1.527553	-0.516608	-1.067872
H122	H	2.027553	-0.016608	-0.567872
H123	H	0.839978	-0.520583	-0.520276
H124	H	1.339978	-0.020583	-0.020276
H125	H	1.034871	-0.632891	-0.632260
H126	H	1.534871	-0.132891	-0.132260
