data_functionalizedCrystal
_audit_creation_method	'MofGen! by Chris Wilmer'
_symmetry_space_group_name_H-M	'P1'
_symmetry_Int_Tables_number	1
_symmetry_cell_setting	triclinic
loop_
_symmetry_equiv_pos_as_xyz
  x,y,z
_cell_length_a	16.625547
_cell_length_b	21.295416
_cell_length_c	16.625548
_cell_angle_alpha	89.986091
_cell_angle_beta	90.012490
_cell_angle_gamma	89.969732
loop_
_atom_site_label
_atom_site_type_symbol
_atom_site_fract_x
_atom_site_fract_y
_atom_site_fract_z
Zn1	Zn	1.232538	0.250715	0.455986
Zn2	Zn	1.565872	0.584048	0.789319
Zn3	Zn	1.899205	0.917381	1.122653
Zn4	Zn	1.232452	0.355957	0.321147
Zn5	Zn	1.565785	0.689290	0.654481
Zn6	Zn	1.899119	1.022624	0.987814
Zn7	Zn	1.097729	0.250705	0.321157
Zn8	Zn	1.431062	0.584039	0.654490
Zn9	Zn	1.764396	0.917372	0.987823
Zn10	Zn	1.097652	0.355950	0.455927
Zn11	Zn	1.430985	0.689283	0.789260
Zn12	Zn	1.764319	1.022617	1.122594
O13	O	1.165093	0.303332	0.388554
O14	O	1.498426	0.636665	0.721888
O15	O	1.831759	0.969998	1.055221
O16	O	1.345359	0.264682	0.438120
O17	O	1.678692	0.598015	0.771453
O18	O	2.012026	0.931349	1.104787
O19	O	1.214577	0.341994	0.208316
O20	O	1.547910	0.675327	0.541649
O21	O	1.881244	1.008661	0.874983
O22	O	1.115680	0.162617	0.339071
O23	O	1.449013	0.495951	0.672404
O24	O	1.782347	0.829284	1.005737
O25	O	1.345296	0.342003	0.339055
O26	O	1.678629	0.675336	0.672388
O27	O	2.011962	1.008670	1.005721
O28	O	1.214724	0.162624	0.438129
O29	O	1.548057	0.495957	0.771463
O30	O	1.881391	0.829291	1.104796
O31	O	1.115597	0.264666	0.208323
O32	O	1.448930	0.598000	0.541656
O33	O	1.782263	0.931333	0.874990
O34	O	0.984886	0.264659	0.339013
O35	O	1.318220	0.597993	0.672347
O36	O	1.651553	0.931326	1.005680
O37	O	1.115549	0.341991	0.568767
O38	O	1.448882	0.675325	0.902100
O39	O	1.782215	1.008658	1.235434
O40	O	0.984830	0.341982	0.438029
O41	O	1.318163	0.675315	0.771362
O42	O	1.651496	1.008649	1.104695
O43	O	1.214649	0.264675	0.568811
O44	O	1.547982	0.598009	0.902144
O45	O	1.881316	0.931342	1.235477
O46	O	1.214502	0.444045	0.338997
O47	O	1.547835	0.777379	0.672331
O48	O	1.881169	1.110712	1.005664
O49	O	1.115465	0.444040	0.438019
O50	O	1.448798	0.777374	0.771353
O51	O	1.782132	1.110707	1.104686
C52	C	0.955602	0.303319	0.388516
C53	C	1.288935	0.636653	0.721849
C54	C	1.622269	0.969986	1.055183
C55	C	0.865981	0.303329	0.388519
C56	C	1.199314	0.636663	0.721852
C57	C	1.532648	0.969996	1.055186
C58	C	0.793198	0.303331	0.388529
C59	C	1.126532	0.636664	0.721862
C60	C	1.459865	0.969997	1.055196
C61	C	0.701890	0.303334	0.388549
C62	C	1.035223	0.636667	0.721882
C63	C	1.368557	0.970001	1.055216
C64	C	0.629114	0.303340	0.388570
C65	C	0.962447	0.636673	0.721903
C66	C	1.295780	0.970006	1.055236
C67	C	0.537799	0.303344	0.388589
C68	C	0.871133	0.636677	0.721922
C69	C	1.204466	0.970011	1.055256
C70	C	1.164988	0.466883	0.388519
C71	C	1.498321	0.800217	0.721852
C72	C	1.831654	1.133550	1.055185
C73	C	1.165017	0.536851	0.388530
C74	C	1.498350	0.870185	0.721864
C75	C	1.831683	1.203518	1.055197
C76	C	1.216631	0.569700	0.337024
C77	C	1.549964	0.903033	0.670357
C78	C	1.883298	1.236367	1.003691
C79	C	1.216669	0.635442	0.337046
C80	C	1.550002	0.968776	0.670379
C81	C	1.883336	1.302109	1.003713
C82	C	1.165078	0.668334	0.388565
C83	C	1.498412	1.001667	0.721899
C84	C	1.831745	1.335001	1.055232
C85	C	1.113460	0.635478	0.440082
C86	C	1.446794	0.968811	0.773415
C87	C	1.780127	1.302144	1.106748
C88	C	1.113429	0.569736	0.440064
C89	C	1.446763	0.903070	0.773397
C90	C	1.780096	1.236403	1.106731
N91	N	1.094542	0.771601	0.394705
N92	N	1.427876	1.104934	0.728038
N93	N	1.761209	1.438268	1.061372
N94	N	1.094574	0.834052	0.394717
N95	N	1.427907	1.167386	0.728050
N96	N	1.761241	1.500719	1.061384
C97	C	1.165169	0.866409	0.388623
C98	C	1.498503	1.199742	0.721956
C99	C	1.831836	1.533075	1.055289
N100	N	1.235734	0.833954	0.382500
N101	N	1.569067	1.167288	0.715833
N102	N	1.902400	1.500621	1.049167
N103	N	1.235701	0.771497	0.382484
N104	N	1.569034	1.104830	0.715817
N105	N	1.902368	1.438164	1.049150
C106	C	1.165106	0.739619	0.388590
C107	C	1.498440	1.072953	0.721924
C108	C	1.831773	1.406286	1.055257
C109	C	1.216829	0.970543	0.337137
C110	C	1.550163	1.303876	0.670471
C111	C	1.883496	1.637209	1.003804
C112	C	1.216869	1.036286	0.337165
C113	C	1.550202	1.369620	0.670498
C114	C	1.883536	1.702953	1.003831
C115	C	1.113653	1.036320	0.440196
C116	C	1.446986	1.369654	0.773529
C117	C	1.780319	1.702987	1.106863
C118	C	1.113621	0.970578	0.440173
C119	C	1.446954	1.303911	0.773506
C120	C	1.780287	1.637244	1.106840
C121	C	1.165208	0.937693	0.388639
C122	C	1.498541	1.271026	0.721973
C123	C	1.831874	1.604360	1.055306
C124	C	1.375402	0.303344	0.388593
C125	C	1.708735	0.636678	0.721926
C126	C	2.042068	0.970011	1.055260
C127	C	1.465023	0.303350	0.388609
C128	C	1.798356	0.636683	0.721943
C129	C	2.131689	0.970017	1.055276
C130	C	1.165100	0.303334	0.598863
C131	C	1.498433	0.636667	0.932196
C132	C	1.831767	0.970000	1.265530
C133	C	1.165103	0.303334	0.688484
C134	C	1.498436	0.636668	1.021817
C135	C	1.831770	0.970001	1.355151
C136	C	1.165221	1.139141	0.388621
C137	C	1.498555	1.472475	0.721955
C138	C	1.831888	1.805808	1.055288
C139	C	1.165278	1.069173	0.388686
C140	C	1.498612	1.402507	0.722019
C141	C	1.831945	1.735840	1.055352
C142	C	1.165069	0.303340	1.016660
C143	C	1.498403	0.636673	1.349993
C144	C	1.831736	0.970006	1.683326
C145	C	1.165077	0.303340	0.925351
C146	C	1.498410	0.636674	1.258685
C147	C	1.831743	0.970007	1.592018
C148	C	1.165087	0.303338	0.852575
C149	C	1.498420	0.636671	1.185908
C150	C	1.831753	0.970004	1.519242
C151	C	1.165093	0.303337	0.761261
C152	C	1.498426	0.636670	1.094594
C153	C	1.831760	0.970004	1.427927
C154	C	1.165078	0.303343	1.179063
C155	C	1.498411	0.636676	1.512397
C156	C	1.831745	0.970009	1.845730
C157	C	1.165070	0.303338	1.089442
C158	C	1.498403	0.636671	1.422776
C159	C	1.831737	0.970005	1.756109
H160	H	1.258638	0.542927	0.295064
H161	H	1.591972	0.876260	0.628398
H162	H	1.925305	1.209594	0.961731
H163	H	1.258703	0.662193	0.295104
H164	H	1.592036	0.995526	0.628437
H165	H	1.925369	1.328859	0.961770
C166	C	1.273588	0.934367	0.280462
C167	C	1.606921	1.267700	0.613795
C168	C	1.940254	1.601034	0.947128
N169	N	1.316342	0.907121	0.237776
N170	N	1.649675	1.240455	0.571109
N171	N	1.983008	1.573788	0.904443
H172	H	1.071456	0.662262	0.482030
H173	H	1.404789	0.995595	0.815364
H174	H	1.738123	1.328929	1.148697
C175	C	1.056856	0.934443	0.496851
C176	C	1.390189	1.267776	0.830184
C177	C	1.723523	1.601110	1.163518
N178	N	1.014108	0.907227	0.539553
N179	N	1.347441	1.240560	0.872886
N180	N	1.680774	1.573893	1.206220
H181	H	1.071398	0.542991	0.482007
H182	H	1.404731	0.876324	0.815341
H183	H	1.738065	1.209657	1.148674
C184	C	1.273651	1.072419	0.280500
C185	C	1.606985	1.405753	0.613833
C186	C	1.940318	1.739086	0.947167
N187	N	1.316419	1.099635	0.237817
N188	N	1.649753	1.432969	0.571151
N189	N	1.983086	1.766302	0.904484
C190	C	1.056903	1.072497	0.496870
C191	C	1.390237	1.405830	0.830203
C192	C	1.723570	1.739164	1.163537
N193	N	1.014160	1.099749	0.539560
N194	N	1.347493	1.433082	0.872893
N195	N	1.680826	1.766415	1.206226
