data_functionalizedCrystal
_audit_creation_method	'MofGen! by Chris Wilmer'
_symmetry_space_group_name_H-M	'P1'
_symmetry_Int_Tables_number	1
_symmetry_cell_setting	triclinic
loop_
_symmetry_equiv_pos_as_xyz
  x,y,z
_cell_length_a	13.032831
_cell_length_b	18.050589
_cell_length_c	13.033109
_cell_angle_alpha	97.157170
_cell_angle_beta	76.665514
_cell_angle_gamma	82.833186
loop_
_atom_site_label
_atom_site_type_symbol
_atom_site_fract_x
_atom_site_fract_y
_atom_site_fract_z
Zn1	Zn	1.699980	-0.522075	-0.806419
Zn2	Zn	1.949980	-0.272075	-0.556419
Zn3	Zn	2.199980	-0.022075	-0.306419
Zn4	Zn	2.449980	0.227925	-0.056419
Zn5	Zn	1.677285	-0.628196	-0.628804
Zn6	Zn	1.927285	-0.378196	-0.378804
Zn7	Zn	2.177285	-0.128196	-0.128804
Zn8	Zn	2.427285	0.121804	0.121196
Zn9	Zn	1.499814	-0.485953	-0.606311
Zn10	Zn	1.749814	-0.235953	-0.356311
Zn11	Zn	1.999814	0.014047	-0.106311
Zn12	Zn	2.249814	0.264047	0.143689
Zn13	Zn	1.522300	-0.628131	-0.783848
Zn14	Zn	1.772300	-0.378131	-0.533848
Zn15	Zn	2.022300	-0.128131	-0.283848
Zn16	Zn	2.272300	0.121869	-0.033848
O17	O	1.599845	-0.566089	-0.706346
O18	O	1.849845	-0.316089	-0.456346
O19	O	2.099845	-0.066089	-0.206346
O20	O	2.349845	0.183911	0.043654
O21	O	1.845602	-0.551296	-0.801717
O22	O	2.095602	-0.301296	-0.551717
O23	O	2.345602	-0.051296	-0.301717
O24	O	2.595602	0.198704	-0.051717
O25	O	1.634835	-0.594238	-0.477188
O26	O	1.884835	-0.344238	-0.227188
O27	O	2.134835	-0.094238	0.022812
O28	O	2.384835	0.155762	0.272812
O29	O	1.526454	-0.386831	-0.632889
O30	O	1.776454	-0.136831	-0.382889
O31	O	2.026454	0.113169	-0.132889
O32	O	2.276454	0.363169	0.117111
O33	O	1.828928	-0.629263	-0.671224
O34	O	2.078928	-0.379263	-0.421224
O35	O	2.328928	-0.129263	-0.171224
O36	O	2.578928	0.120737	0.078776
O37	O	1.673515	-0.413369	-0.779907
O38	O	1.923515	-0.163369	-0.529907
O39	O	2.173515	0.086631	-0.279907
O40	O	2.423515	0.336631	-0.029907
O41	O	1.504447	-0.489733	-0.460663
O42	O	1.754447	-0.239733	-0.210663
O43	O	2.004447	0.010267	0.039337
O44	O	2.254447	0.260267	0.289337
O45	O	1.354164	-0.489669	-0.611003
O46	O	1.604164	-0.239669	-0.361003
O47	O	1.854164	0.010331	-0.111003
O48	O	2.104164	0.260331	0.138997
O49	O	1.564778	-0.629151	-0.935474
O50	O	1.814778	-0.379151	-0.685474
O51	O	2.064778	-0.129151	-0.435474
O52	O	2.314778	0.120849	-0.185474
O53	O	1.370685	-0.594126	-0.741438
O54	O	1.620685	-0.344126	-0.491438
O55	O	1.870685	-0.094126	-0.241438
O56	O	2.120685	0.155874	0.008562
O57	O	1.695319	-0.551232	-0.952057
O58	O	1.945319	-0.301232	-0.702057
O59	O	2.195319	-0.051232	-0.452057
O60	O	2.445319	0.198768	-0.202057
O61	O	1.656639	-0.732101	-0.649338
O62	O	1.906639	-0.482101	-0.399338
O63	O	2.156639	-0.232101	-0.149338
O64	O	2.406639	0.017899	0.100662
O65	O	1.542772	-0.732053	-0.763249
O66	O	1.792772	-0.482053	-0.513249
O67	O	2.042772	-0.232053	-0.263249
O68	O	2.292772	0.017947	-0.013249
C69	C	1.323886	-0.537972	-0.671331
C70	C	1.573886	-0.287972	-0.421331
C71	C	1.823886	-0.037972	-0.171331
C72	C	2.073886	0.212028	0.078669
C73	C	1.205833	-0.525964	-0.656377
C74	C	1.455833	-0.275964	-0.406377
C75	C	1.705833	-0.025964	-0.156377
C76	C	1.955833	0.224036	0.093623
C77	C	1.161390	-0.572356	-0.714150
C78	C	1.411390	-0.322356	-0.464150
C79	C	1.661390	-0.072356	-0.214150
C80	C	1.911390	0.177644	0.035850
C81	C	1.039376	-0.559946	-0.698696
C82	C	1.289376	-0.309946	-0.448696
C83	C	1.539376	-0.059946	-0.198696
C84	C	1.789376	0.190054	0.051304
C85	C	1.599714	-0.759026	-0.706312
C86	C	1.849714	-0.509026	-0.456312
C87	C	2.099714	-0.259026	-0.206312
C88	C	2.349714	-0.009026	0.043688
C89	C	1.599760	-0.841579	-0.706345
C90	C	1.849760	-0.591579	-0.456345
C91	C	2.099760	-0.341579	-0.206345
C92	C	2.349760	-0.091579	0.043655
C93	C	1.537906	-1.041035	-0.768274
C94	C	1.787906	-0.791035	-0.518274
C95	C	2.037906	-0.541035	-0.268274
C96	C	2.287906	-0.291035	-0.018274
C97	C	1.499708	-1.077984	-0.668074
C98	C	1.749708	-0.827984	-0.418074
C99	C	1.999708	-0.577984	-0.168074
C100	C	2.249708	-0.327984	0.081926
C101	C	1.599866	-0.992721	-0.706372
C102	C	1.849866	-0.742721	-0.456372
C103	C	2.099866	-0.492721	-0.206372
C104	C	2.349866	-0.242721	0.043628
C105	C	1.638118	-1.102861	-0.806590
C106	C	1.888118	-0.852861	-0.556590
C107	C	2.138118	-0.602861	-0.306590
C108	C	2.388118	-0.352861	-0.056590
C109	C	1.599968	-1.138719	-0.706407
C110	C	1.849968	-0.888719	-0.456407
C111	C	2.099968	-0.638719	-0.206407
C112	C	2.349968	-0.388719	0.043593
C113	C	1.561610	-1.028572	-0.606115
C114	C	1.811610	-0.778572	-0.356115
C115	C	2.061610	-0.528572	-0.106115
C116	C	2.311610	-0.278572	0.143885
C117	C	1.700075	-1.053456	-0.744702
C118	C	1.950075	-0.803456	-0.494702
C119	C	2.200075	-0.553456	-0.244702
C120	C	2.450075	-0.303456	0.005298
C121	C	1.661905	-1.090380	-0.644440
C122	C	1.911905	-0.840380	-0.394440
C123	C	2.161905	-0.590380	-0.144440
C124	C	2.411905	-0.340380	0.105560
C125	C	1.599805	-0.908616	-0.706353
C126	C	1.849805	-0.658616	-0.456353
C127	C	2.099805	-0.408616	-0.206353
C128	C	2.349805	-0.158616	0.043647
C129	C	1.600028	-1.222821	-0.706415
C130	C	1.850028	-0.972821	-0.456415
C131	C	2.100028	-0.722821	-0.206415
C132	C	2.350028	-0.472821	0.043585
C133	C	1.876881	-0.594316	-0.741498
C134	C	2.126881	-0.344316	-0.491498
C135	C	2.376881	-0.094316	-0.241498
C136	C	2.626881	0.155684	0.008502
C137	C	1.994938	-0.606345	-0.756477
C138	C	2.244938	-0.356345	-0.506477
C139	C	2.494938	-0.106345	-0.256477
C140	C	2.744938	0.143655	-0.006477
C141	C	1.635089	-0.594214	-0.983382
C142	C	1.885089	-0.344214	-0.733382
C143	C	2.135089	-0.094214	-0.483382
C144	C	2.385089	0.155786	-0.233382
C145	C	1.650108	-0.606199	-1.101438
C146	C	1.900108	-0.356199	-0.851438
C147	C	2.150108	-0.106199	-0.601438
C148	C	2.400108	0.143801	-0.351438
C149	C	1.600008	-0.372403	-0.706407
C150	C	1.850008	-0.122403	-0.456407
C151	C	2.100008	0.127597	-0.206407
C152	C	2.350008	0.377597	0.043593
C153	C	1.600077	-0.289866	-0.706433
C154	C	1.850077	-0.039866	-0.456433
C155	C	2.100077	0.210134	-0.206433
C156	C	2.350077	0.460134	0.043567
C157	C	1.592290	-0.559836	-1.145895
C158	C	1.842290	-0.309836	-0.895895
C159	C	2.092290	-0.059836	-0.645895
C160	C	2.342290	0.190164	-0.395895
C161	C	1.607812	-0.572222	-1.267912
C162	C	1.857812	-0.322222	-1.017912
C163	C	2.107812	-0.072222	-0.767912
C164	C	2.357812	0.177778	-0.517912
C165	C	1.564799	-0.538025	-0.430395
C166	C	1.814799	-0.288025	-0.180395
C167	C	2.064799	-0.038025	0.069605
C168	C	2.314799	0.211975	0.319605
C169	C	1.549986	-0.525852	-0.312365
C170	C	1.799986	-0.275852	-0.062365
C171	C	2.049986	-0.025852	0.187635
C172	C	2.299986	0.224148	0.437635
H173	H	1.047215	-0.655250	-0.817391
H174	H	1.297215	-0.405250	-0.567391
H175	H	1.547215	-0.155250	-0.317391
H176	H	1.797215	0.094750	-0.067391
H177	H	1.153552	-0.477056	-0.595478
H178	H	1.403552	-0.227056	-0.345478
H179	H	1.653552	0.022944	-0.095478
H180	H	1.903552	0.272944	0.154522
H181	H	1.213673	-0.621259	-0.775057
H182	H	1.463673	-0.371259	-0.525057
H183	H	1.713673	-0.121259	-0.275057
H184	H	1.963673	0.128741	-0.025057
H185	H	1.415013	-1.089188	-0.635682
H186	H	1.665013	-0.839188	-0.385682
H187	H	1.915013	-0.589188	-0.135682
H188	H	2.165013	-0.339188	0.114318
H189	H	0.987099	-0.511035	-0.637793
H190	H	1.237099	-0.261035	-0.387793
H191	H	1.487099	-0.011035	-0.137793
H192	H	1.737099	0.238965	0.112207
H193	H	1.485409	-1.019352	-0.820525
H194	H	1.735409	-0.769352	-0.570525
H195	H	1.985409	-0.519352	-0.320525
H196	H	2.235409	-0.269352	-0.070525
H197	H	1.711097	-0.655063	-1.153710
H198	H	1.961097	-0.405063	-0.903710
H199	H	2.211097	-0.155063	-0.653710
H200	H	2.461097	0.094937	-0.403710
H201	H	1.529201	-0.996435	-0.521341
H202	H	1.779201	-0.746435	-0.271341
H203	H	2.029201	-0.496435	-0.021341
H204	H	2.279201	-0.246435	0.228659
H205	H	1.714337	-1.111905	-0.592037
H206	H	1.964337	-0.861905	-0.342037
H207	H	2.214337	-0.611905	-0.092037
H208	H	2.464337	-0.361905	0.157963
H209	H	1.488989	-0.476986	-1.260098
H210	H	1.738989	-0.226986	-1.010098
H211	H	1.988989	0.023014	-0.760098
H212	H	2.238989	0.273014	-0.510098
H213	H	1.784757	-1.042257	-0.777138
H214	H	2.034757	-0.792257	-0.527138
H215	H	2.284757	-0.542257	-0.277138
H216	H	2.534757	-0.292257	-0.027138
H217	H	1.531296	-0.510975	-1.093623
H218	H	1.781296	-0.260975	-0.843623
H219	H	2.031296	-0.010975	-0.593623
H220	H	2.281296	0.239025	-0.343623
H221	H	1.670430	-1.135076	-0.891329
H222	H	1.920430	-0.885076	-0.641329
H223	H	2.170430	-0.635076	-0.391329
H224	H	2.420430	-0.385076	-0.141329
H225	H	1.668805	-0.621089	-1.320180
H226	H	1.918805	-0.371089	-1.070180
H227	H	2.168805	-0.121089	-0.820180
H228	H	2.418805	0.128911	-0.570180
