data_functionalizedCrystal
_audit_creation_method	'MofGen! by Chris Wilmer'
_symmetry_space_group_name_H-M	'P1'
_symmetry_Int_Tables_number	1
_symmetry_cell_setting	triclinic
loop_
_symmetry_equiv_pos_as_xyz
  x,y,z
_cell_length_a	14.971491
_cell_length_b	10.654551
_cell_length_c	13.448316
_cell_angle_alpha	89.996249
_cell_angle_beta	89.991393
_cell_angle_gamma	84.050799
loop_
_atom_site_label
_atom_site_type_symbol
_atom_site_fract_x
_atom_site_fract_y
_atom_site_fract_z
O1	O	1.187836	0.163690	-0.082728
O2	O	0.927543	0.183282	-0.082720
O3	O	1.063673	-0.009317	-0.082725
O4	O	1.051705	0.356289	-0.082723
O5	O	1.063656	-0.009329	0.082659
O6	O	0.927526	0.183270	0.082664
O7	O	1.187818	0.163678	0.082656
Cu8	Cu	1.057670	0.173473	0.097761
Cu9	Cu	1.057691	0.173487	-0.097825
O10	O	1.051688	0.356277	0.082660
C11	C	0.894205	0.182398	-0.000027
C12	C	0.794894	0.179769	-0.000024
C13	C	1.062786	-0.056112	-0.000035
C14	C	1.060156	-0.195527	-0.000042
C15	C	0.367136	0.168431	-0.090198
C16	C	0.460449	0.170897	-0.090194
C17	C	0.507093	0.172132	-0.000040
C18	C	0.460418	0.170888	0.090116
C19	C	0.367107	0.168413	0.090111
C20	C	0.654908	0.176051	0.090120
C21	C	0.748226	0.178529	0.090125
C22	C	0.748251	0.178536	-0.090186
C23	C	0.654939	0.176060	-0.090191
C24	C	0.608271	0.174818	-0.000034
C25	C	1.058932	-0.261019	-0.090191
C26	C	1.056453	-0.392013	-0.090186
C27	C	1.056427	-0.392011	0.090125
C28	C	1.058899	-0.261019	0.090119
C29	C	1.060189	-0.195527	-0.180351
C30	C	1.058966	-0.261020	-0.270507
C31	C	1.056487	-0.392014	-0.270503
C32	C	1.055231	-0.457515	-0.180342
C33	C	1.221156	0.164561	-0.000039
C34	C	1.320468	0.167190	-0.000049
C35	C	1.052575	0.403072	-0.000031
C36	C	1.055205	0.542487	-0.000031
N37	N	1.057663	0.173462	0.235325
N38	N	1.057706	0.173488	-0.235389
C39	C	1.117960	0.088214	0.287363
C40	C	1.117966	0.088213	0.391466
C41	C	1.057677	0.173467	0.443529
C42	C	0.997373	0.258719	0.391484
C43	C	0.997364	0.258713	0.287383
C44	C	0.997398	0.258727	0.608464
C45	C	0.997408	0.258735	0.712572
C46	C	1.118000	0.088228	0.712548
C47	C	1.117991	0.088222	0.608446
C48	C	1.057687	0.173476	0.556408
H49	H	0.329165	0.167434	-0.163612
H50	H	1.059979	-0.207679	-0.343913
H51	H	1.055405	-0.445353	0.163529
H52	H	0.948262	0.328129	0.245014
H53	H	0.498403	0.171886	0.163521
H54	H	1.053200	-0.564177	-0.180345
C55	C	0.799538	0.179810	0.189292
H56	H	0.758386	0.178677	0.242985
H57	H	0.829589	0.253932	0.193078
H58	H	0.842292	0.107568	0.192998
H59	H	1.167100	0.018811	0.754923
H60	H	0.948314	0.328157	0.754957
C61	C	0.511780	0.172269	-0.189359
H62	H	0.470636	0.171196	-0.243051
H63	H	0.554549	0.100058	-0.193109
H64	H	0.541812	0.246421	-0.193102
H65	H	0.948281	0.328130	0.433880
C66	C	0.799581	0.179905	-0.189356
H67	H	0.861835	0.181545	-0.176445
H68	H	0.777925	0.252683	-0.226394
H69	H	0.790663	0.106320	-0.226403
C70	C	0.603574	0.174691	0.189290
H71	H	0.644715	0.175796	0.242984
H72	H	0.573538	0.100552	0.193044
H73	H	0.560807	0.246915	0.193028
C74	C	0.315771	0.167055	0.189275
H75	H	0.356912	0.168157	0.242969
H76	H	0.285738	0.092912	0.193025
H77	H	0.273002	0.239276	0.193018
C78	C	1.055143	-0.464053	-0.369668
H79	H	1.056253	-0.406285	-0.423360
H80	H	1.002112	-0.505657	-0.373422
H81	H	1.106254	-0.524650	-0.373407
H82	H	0.616964	0.175063	-0.163602
H83	H	0.948290	0.328146	0.566098
H84	H	1.059877	-0.207690	0.163526
C85	C	1.184283	-0.005554	0.230098
H86	H	1.175651	0.006659	0.160645
H87	H	1.174062	-0.089395	0.247166
H88	H	1.244062	0.008244	0.247146
H89	H	1.062209	-0.088866	-0.180365
C90	C	1.184305	-0.005555	0.551178
H91	H	1.220215	-0.056337	0.597078
H92	H	1.221810	0.039706	0.510551
H93	H	1.151795	-0.057913	0.510586
H94	H	1.167064	0.018798	0.433835
