data_functionalizedCrystal
_audit_creation_method	'MofGen! by Chris Wilmer'
_symmetry_space_group_name_H-M	'P1'
_symmetry_Int_Tables_number	1
_symmetry_cell_setting	triclinic
loop_
_symmetry_equiv_pos_as_xyz
  x,y,z
_cell_length_a	21.395364
_cell_length_b	19.077692
_cell_length_c	21.395355
_cell_angle_alpha	92.280661
_cell_angle_beta	89.975273
_cell_angle_gamma	87.729011
loop_
_atom_site_label
_atom_site_type_symbol
_atom_site_fract_x
_atom_site_fract_y
_atom_site_fract_z
Zn1	Zn	0.967894	-0.280297	-0.364295
Zn2	Zn	1.467894	0.219703	0.135705
Zn3	Zn	0.972009	-0.397969	-0.263729
Zn4	Zn	1.472009	0.102031	0.236271
Zn5	Zn	0.863109	-0.280294	-0.259532
Zn6	Zn	1.363109	0.219706	0.240468
Zn7	Zn	0.867290	-0.397948	-0.368468
Zn8	Zn	1.367290	0.102052	0.131532
O9	O	0.917575	-0.339127	-0.314006
O10	O	1.417575	0.160873	0.185994
O11	O	1.056118	-0.295917	-0.350965
O12	O	1.556118	0.204083	0.149035
O13	O	0.957535	-0.382367	-0.175495
O14	O	1.457535	0.117633	0.324505
O15	O	0.873536	-0.181809	-0.269926
O16	O	1.373536	0.318191	0.230074
O17	O	1.059141	-0.382370	-0.277080
O18	O	1.559141	0.117630	0.222920
O19	O	0.950522	-0.181811	-0.346895
O20	O	1.450522	0.318189	0.153105
O21	O	0.877527	-0.295911	-0.172411
O22	O	1.377527	0.204089	0.327589
O23	O	0.775985	-0.295890	-0.273972
O24	O	1.275985	0.204110	0.226028
O25	O	0.880663	-0.382333	-0.455592
O26	O	1.380663	0.117667	0.044408
O27	O	0.779057	-0.382330	-0.354007
O28	O	1.279057	0.117670	0.145993
O29	O	0.954576	-0.295896	-0.452526
O30	O	1.454576	0.204104	0.047474
O31	O	0.961590	-0.496451	-0.281126
O32	O	1.461590	0.003549	0.218874
O33	O	0.884653	-0.496436	-0.358077
O34	O	1.384653	0.003564	0.141923
C35	C	0.754787	-0.339108	-0.313987
C36	C	1.254787	0.160892	0.186013
C37	C	0.685146	-0.339117	-0.313995
C38	C	1.185146	0.160883	0.186005
C39	C	0.184969	-0.384219	-0.355644
C40	C	0.684969	0.115781	0.144356
C41	C	0.250404	-0.384219	-0.355638
C42	C	0.750404	0.115781	0.144362
C43	C	0.281509	-0.339142	-0.314026
C44	C	0.781509	0.160858	0.185974
C45	C	0.247172	-0.294075	-0.272407
C46	C	0.747172	0.205925	0.227593
C47	C	0.181738	-0.294081	-0.272411
C48	C	0.681738	0.205919	0.227589
C49	C	0.382927	-0.275717	-0.306905
C50	C	0.882927	0.224283	0.193095
C51	C	0.448359	-0.275710	-0.306906
C52	C	0.948359	0.224290	0.193094
C53	C	0.483329	-0.339124	-0.314012
C54	C	0.983329	0.160876	0.185988
C55	C	0.452857	-0.402547	-0.321130
C56	C	0.952857	0.097453	0.178870
C57	C	0.387423	-0.402553	-0.321134
C58	C	0.887423	0.097447	0.178866
C59	C	0.352461	-0.339131	-0.314018
C60	C	0.852461	0.160869	0.185982
C61	C	0.588610	-0.384192	-0.355618
C62	C	1.088610	0.115808	0.144382
C63	C	0.654046	-0.384193	-0.355607
C64	C	1.154046	0.115807	0.144393
C65	C	0.650813	-0.294043	-0.272380
C66	C	1.150813	0.205957	0.227620
C67	C	0.585377	-0.294048	-0.272388
C68	C	1.085377	0.205952	0.227612
C69	C	0.554280	-0.339121	-0.314010
C70	C	1.054280	0.160879	0.185990
C71	C	0.924039	-0.521980	-0.320523
C72	C	1.424039	-0.021980	0.179477
C73	C	0.926861	-0.600205	-0.323332
C74	C	1.426861	-0.100205	0.176668
C75	C	0.888141	-0.637017	-0.284552
C76	C	1.388141	-0.137017	0.215448
C77	C	0.890800	-0.710517	-0.287194
C78	C	1.390800	-0.210517	0.212806
C79	C	0.932175	-0.747205	-0.328620
C80	C	1.432175	-0.247205	0.171380
C81	C	0.970899	-0.710388	-0.367402
C82	C	1.470899	-0.210388	0.132598
C83	C	0.968243	-0.636889	-0.364756
C84	C	1.468243	-0.136889	0.135244
C85	C	0.944414	-0.967018	-0.340831
C86	C	1.444414	-0.467018	0.159169
C87	C	0.947066	-1.040523	-0.343475
C88	C	1.447066	-0.540523	0.156525
C89	C	0.866967	-1.040647	-0.263266
C90	C	1.366967	-0.540647	0.236734
C91	C	0.864312	-0.967147	-0.260626
C92	C	1.364312	-0.467147	0.239374
C93	C	0.903038	-0.930336	-0.299406
C94	C	1.403038	-0.430336	0.200594
N95	N	0.934892	-0.822335	-0.331323
N96	N	1.434892	-0.322335	0.168677
N97	N	0.900324	-0.855208	-0.296699
N98	N	1.400324	-0.355208	0.203301
C99	C	1.080999	-0.339146	-0.314025
C100	C	1.580999	0.160854	0.185975
C101	C	1.150641	-0.339155	-0.314033
C102	C	1.650641	0.160845	0.185967
C103	C	0.917627	-0.339113	-0.477429
C104	C	1.417627	0.160887	0.022571
C105	C	0.917649	-0.339107	-0.547070
C106	C	1.417649	0.160893	-0.047070
C107	C	0.911104	-0.155560	-0.307477
C108	C	1.411104	0.344440	0.192523
C109	C	0.908346	-0.077335	-0.304695
C110	C	1.408346	0.422665	0.195305
C111	C	0.956133	-0.294097	-0.578188
C112	C	1.456133	0.205903	-0.078188
C113	C	0.956132	-0.294066	-0.643622
C114	C	1.456132	0.205934	-0.143622
C115	C	0.917652	-0.339059	-0.677937
C116	C	1.417652	0.160941	-0.177937
C117	C	0.879159	-0.384072	-0.646811
C118	C	1.379159	0.115928	-0.146811
C119	C	0.879158	-0.384096	-0.581378
C120	C	1.379158	0.115904	-0.081378
C121	C	0.914944	-0.402427	-0.783870
C122	C	1.414944	0.097573	-0.283870
C123	C	0.914950	-0.402405	-0.849302
C124	C	1.414950	0.097595	-0.349302
C125	C	0.917653	-0.338984	-0.879755
C126	C	1.417653	0.161016	-0.379755
C127	C	0.920363	-0.275585	-0.844767
C128	C	1.420363	0.224415	-0.344767
C129	C	0.920361	-0.275609	-0.779334
C130	C	1.420361	0.224391	-0.279334
C131	C	0.917649	-0.339037	-0.748888
C132	C	1.417649	0.160963	-0.248888
C133	C	0.956138	-0.293938	-0.981824
C134	C	1.456138	0.206062	-0.481824
C135	C	0.956131	-0.293906	-1.047259
C136	C	1.456131	0.206094	-0.547259
C137	C	0.879163	-0.383918	-1.050447
C138	C	1.379163	0.116082	-0.550447
C139	C	0.879166	-0.383943	-0.985013
C140	C	1.379166	0.116057	-0.485013
C141	C	0.917656	-0.338954	-0.950705
C142	C	1.417656	0.161046	-0.450705
C143	C	0.917558	-0.339090	-0.151217
C144	C	1.417558	0.160910	0.348783
C145	C	0.917651	-0.338898	-0.081569
C146	C	1.417651	0.161102	0.418431
H147	H	0.159654	-0.420923	-0.389535
H148	H	0.659654	0.079077	0.110465
H149	H	0.999774	-0.606917	-0.396335
H150	H	1.499774	-0.106917	0.103665
C151	C	0.353907	-0.472318	-0.328952
C152	C	0.853907	0.027682	0.171048
N153	N	0.328663	-0.524866	-0.334835
N154	N	0.828663	-0.024866	0.165165
C155	C	0.987022	-0.926536	-0.383482
C156	C	1.487022	-0.426536	0.116518
N157	N	1.019119	-0.896043	-0.415607
N158	N	1.519119	-0.396043	0.084393
C159	C	1.016413	-0.750747	-0.412971
C160	C	1.516413	-0.250747	0.087029
N161	N	1.050694	-0.781145	-0.447295
N162	N	1.550694	-0.281145	0.052705
C163	C	0.911970	-0.472145	-0.887782
C164	C	1.411970	0.027855	-0.387782
N165	N	0.909723	-0.524675	-0.916764
N166	N	1.409723	-0.024675	-0.416764
H167	H	0.830621	-0.937277	-0.226894
H168	H	1.330621	-0.437277	0.273106
H169	H	0.922564	-0.223942	-0.869560
H170	H	1.422564	0.276058	-0.369560
H171	H	0.980750	-1.070392	-0.377221
H172	H	1.480750	-0.570392	0.122779
H173	H	0.987475	-0.257462	-0.550258
H174	H	1.487475	0.242538	-0.050258
H175	H	0.987469	-0.257410	-0.668963
H176	H	1.487469	0.242590	-0.168963
C177	C	0.344467	-0.205952	-0.299088
C178	C	0.844467	0.294048	0.200912
N179	N	0.315500	-0.153407	-0.293200
N180	N	0.815500	0.346593	0.206800
H181	H	0.563289	-0.420894	-0.389509
H182	H	1.063289	0.079106	0.110491
H183	H	0.272501	-0.257375	-0.238526
H184	H	0.772501	0.242625	0.261474
H185	H	0.922566	-0.223987	-0.750850
H186	H	1.422566	0.276013	-0.250850
H187	H	0.987469	-0.257250	-1.072594
H188	H	1.487469	0.242750	-0.572594
C189	C	0.998472	-0.244443	-0.944083
C190	C	1.498472	0.255557	-0.444083
N191	N	1.030358	-0.207162	-0.915658
N192	N	1.530358	0.292838	-0.415658
C193	C	0.836835	-0.433411	-1.088190
C194	C	1.336835	0.066589	-0.588190
N195	N	0.804952	-0.470690	-1.116620
N196	N	1.304952	0.029310	-0.616620
C197	C	0.836829	-0.433560	-0.684558
C198	C	1.336829	0.066440	-0.184558
N199	N	0.804941	-0.470834	-0.712989
N200	N	1.304941	0.029166	-0.212989
H201	H	0.847831	-0.420599	-0.959677
H202	H	1.347831	0.079401	-0.459677
H203	H	0.153788	-0.257383	-0.238526
H204	H	0.653788	0.242617	0.261474
C205	C	0.848202	-0.751007	-0.244535
C206	C	1.348202	-0.251007	0.255465
N207	N	0.816115	-0.781504	-0.212403
N208	N	1.316115	-0.281504	0.287597
C209	C	0.911983	-0.472201	-0.750379
C210	C	1.411983	0.027799	-0.250379
N211	N	0.909758	-0.524753	-0.725154
N212	N	1.409758	-0.024753	-0.225154
H213	H	0.847816	-0.420747	-0.556042
H214	H	1.347816	0.079253	-0.056042
H215	H	0.835438	-1.070627	-0.231693
H216	H	1.335438	-0.570627	0.268307
C217	C	0.491318	-0.472308	-0.328947
C218	C	0.991318	0.027692	0.171053
N219	N	0.520290	-0.524850	-0.334835
N220	N	1.020290	-0.024850	0.165165
H221	H	0.278360	-0.420915	-0.389525
H222	H	0.778360	0.079085	0.110475
H223	H	0.676137	-0.257343	-0.238497
H224	H	1.176137	0.242657	0.261503
C225	C	0.691808	-0.433773	-0.401382
C226	C	1.191808	0.066227	0.098618
N227	N	0.720250	-0.471118	-0.435861
N228	N	1.220250	0.028882	0.064139
H229	H	0.854446	-0.607150	-0.250821
H230	H	1.354446	-0.107150	0.249179
H231	H	0.557427	-0.257350	-0.238505
H232	H	1.057427	0.242650	0.261495
C233	C	0.481872	-0.205944	-0.299077
C234	C	0.981872	0.294056	0.200923
N235	N	0.507112	-0.153394	-0.293178
N236	N	1.007112	0.346606	0.206822
