data_functionalizedCrystal
_audit_creation_method	'MofGen! by Chris Wilmer'
_symmetry_space_group_name_H-M	'P1'
_symmetry_Int_Tables_number	1
_symmetry_cell_setting	triclinic
loop_
_symmetry_equiv_pos_as_xyz
  x,y,z
_cell_length_a	14.971486
_cell_length_b	15.995350
_cell_length_c	14.048226
_cell_angle_alpha	89.995798
_cell_angle_beta	89.998499
_cell_angle_gamma	83.553252
loop_
_atom_site_label
_atom_site_type_symbol
_atom_site_fract_x
_atom_site_fract_y
_atom_site_fract_z
O1	O	1.186822	0.109116	-0.079046
O2	O	1.686822	0.609116	0.420954
O3	O	0.926407	0.122183	-0.079072
O4	O	1.426407	0.622183	0.420928
O5	O	1.063733	-0.006231	-0.079057
O6	O	1.563733	0.493769	0.420943
O7	O	1.049496	0.237530	-0.079061
O8	O	1.549496	0.737530	0.420939
O9	O	1.063717	-0.006238	0.079264
O10	O	1.563717	0.493762	0.579264
O11	O	0.926391	0.122176	0.079250
O12	O	1.426391	0.622176	0.579250
O13	O	1.186806	0.109109	0.079275
O14	O	1.686806	0.609109	0.579275
Zn15	Zn	1.056596	0.115641	0.104399
Zn16	Zn	1.556596	0.615641	0.604399
Zn17	Zn	1.056617	0.115651	-0.104196
Zn18	Zn	1.556617	0.615651	0.395804
O19	O	1.049480	0.237523	0.079261
O20	O	1.549480	0.737523	0.579261
C21	C	0.893075	0.121595	0.000086
C22	C	1.393075	0.621595	0.500086
C23	C	0.793780	0.119844	0.000076
C24	C	1.293780	0.619844	0.500076
C25	C	1.063137	-0.037430	0.000101
C26	C	1.563137	0.462570	0.500101
C27	C	1.061372	-0.130382	0.000096
C28	C	1.561372	0.369618	0.500096
C29	C	0.736468	0.195284	0.000076
C30	C	1.236468	0.695284	0.500076
C31	C	0.643171	0.193633	0.000090
C32	C	1.143171	0.693633	0.500090
C33	C	0.607187	0.116542	0.000098
C34	C	1.107187	0.616542	0.500098
C35	C	0.664505	0.041097	0.000100
C36	C	1.164505	0.541097	0.500100
C37	C	0.757801	0.042748	0.000093
C38	C	1.257801	0.542748	0.500093
C39	C	0.470047	0.037660	0.000113
C40	C	0.970047	0.537660	0.500113
C41	C	0.376745	0.036008	0.000119
C42	C	0.876745	0.536008	0.500119
C43	C	0.355417	0.188545	0.000111
C44	C	0.855417	0.688545	0.500111
C45	C	0.448712	0.190197	0.000104
C46	C	0.948712	0.690197	0.500104
C47	C	0.506025	0.114751	0.000104
C48	C	1.006025	0.614751	0.500104
C49	C	1.055035	-0.468136	0.000098
C50	C	1.555035	0.031864	0.500098
C51	C	0.957234	-0.420800	-0.000266
C52	C	1.457234	0.079200	0.499734
C53	C	0.958999	-0.324108	0.000091
C54	C	1.458999	0.175892	0.500091
C55	C	1.058178	-0.300572	0.000097
C56	C	1.558178	0.199428	0.500097
C57	C	1.106408	-0.341606	0.090509
C58	C	1.606408	0.158394	0.590509
C59	C	1.103951	-0.438244	0.090584
C60	C	1.603951	0.061756	0.590584
C61	C	1.105990	-0.438591	-0.089456
C62	C	1.605990	0.061409	0.410544
C63	C	1.105967	-0.341646	-0.090651
C64	C	1.605967	0.158354	0.409349
C65	C	1.059960	-0.205873	0.000099
C66	C	1.559960	0.294127	0.500099
C67	C	1.053256	-0.562835	0.000103
C68	C	1.553256	-0.062835	0.500103
C69	C	1.220138	0.109697	0.000116
C70	C	1.720138	0.609697	0.500116
C71	C	1.319433	0.111448	0.000119
C72	C	1.819433	0.611448	0.500119
C73	C	1.050077	0.268722	0.000100
C74	C	1.550077	0.768722	0.500100
C75	C	1.051841	0.361674	0.000099
C76	C	1.551841	0.861674	0.500099
N77	N	1.056587	0.115634	0.246760
N78	N	1.556587	0.615634	0.746760
N79	N	1.056633	0.115652	-0.246557
N80	N	1.556633	0.615652	0.253443
C81	C	1.117414	0.058795	0.296584
C82	C	1.617414	0.558795	0.796584
C83	C	1.117421	0.058795	0.396242
C84	C	1.617421	0.558795	0.896242
C85	C	1.056603	0.115637	0.446073
C86	C	1.556603	0.615637	0.946073
C87	C	0.995769	0.172478	0.396242
C88	C	1.495769	0.672478	0.896242
C89	C	0.995760	0.172474	0.296586
C90	C	1.495760	0.672474	0.796586
C91	C	0.995795	0.172484	0.603956
C92	C	1.495795	0.672484	1.103956
C93	C	0.995806	0.172490	0.703619
C94	C	1.495806	0.672490	1.203619
C95	C	1.117456	0.058805	0.703612
C96	C	1.617456	0.558805	1.203612
C97	C	1.117446	0.058801	0.603956
C98	C	1.617446	0.558801	1.103956
C99	C	1.056614	0.115643	0.554132
C100	C	1.556614	0.615643	1.054132
H101	H	0.765759	0.258060	0.000070
H102	H	1.265759	0.758060	0.500070
C103	C	0.817703	-0.404721	0.085622
C104	C	1.317703	0.095279	0.585622
C105	C	0.904680	-0.447302	0.086760
C106	C	1.404680	0.052698	0.586760
H107	H	0.785260	-0.421090	0.139346
H108	H	1.285260	0.078910	0.639346
H109	H	0.820998	-0.345795	0.087755
H110	H	1.320998	0.154205	0.587755
H111	H	0.787859	-0.418413	0.028998
H112	H	1.287859	0.081587	0.528998
H113	H	0.934527	-0.433606	0.143381
H114	H	1.434527	0.066394	0.643381
H115	H	0.901389	-0.506241	0.084635
H116	H	1.401389	-0.006241	0.584635
C117	C	0.541288	0.280535	0.081450
C118	C	1.041288	0.780535	0.581450
C119	C	0.488280	0.274930	0.000077
C120	C	0.988280	0.774930	0.500077
H121	H	0.565722	0.332843	0.081424
H122	H	1.065722	0.832843	0.581424
H123	H	0.505340	0.276741	0.136657
H124	H	1.005340	0.776741	0.636657
H125	H	0.588762	0.235829	0.081443
H126	H	1.088762	0.735829	0.581443
H127	H	0.440802	0.319633	0.000087
H128	H	0.940802	0.819633	0.500087
H129	H	0.524230	0.278732	-0.055145
H130	H	1.024230	0.778732	0.444855
H131	H	0.918150	-0.439368	-0.065103
H132	H	1.418150	0.060632	0.434897
H133	H	0.347450	-0.026766	0.000126
H134	H	0.847450	0.473234	0.500126
H135	H	1.178098	-0.470280	-0.090060
H136	H	1.678098	0.029720	0.409940
H137	H	1.166943	0.012511	0.256018
H138	H	1.666943	0.512511	0.756018
H139	H	1.166950	0.012513	0.436809
H140	H	1.666950	0.512513	0.936809
C141	C	0.835316	-0.229177	0.057991
C142	C	1.335316	0.270823	0.557991
C143	C	0.907464	-0.286544	0.087728
C144	C	1.407464	0.213456	0.587728
H145	H	0.803498	-0.205993	0.112100
H146	H	1.303498	0.294007	0.612100
H147	H	0.857427	-0.185357	0.022453
H148	H	1.357427	0.314643	0.522453
H149	H	0.796084	-0.257281	0.019265
H150	H	1.296084	0.242719	0.519265
H151	H	0.946699	-0.258438	0.126449
H152	H	1.446699	0.241562	0.626449
H153	H	0.885353	-0.330371	0.123282
H154	H	1.385353	0.169629	0.623282
C155	C	1.030461	-0.390824	0.235877
C156	C	1.530461	0.109176	0.735877
C157	C	1.056445	-0.463008	0.181807
C158	C	1.556445	0.036992	0.681807
H159	H	1.001126	-0.406110	0.292191
H160	H	1.501126	0.093890	0.792191
H161	H	1.082118	-0.364516	0.252395
H162	H	1.582118	0.135484	0.752395
H163	H	0.990504	-0.352898	0.199718
H164	H	1.490504	0.147102	0.699718
H165	H	1.096407	-0.500931	0.217964
H166	H	1.596407	-0.000931	0.717964
H167	H	1.004780	-0.489329	0.165290
H168	H	1.504780	0.010671	0.665290
H169	H	1.175755	-0.470420	0.094691
H170	H	1.675755	0.029580	0.594691
C171	C	0.976380	0.286424	0.815670
C172	C	1.476380	0.786424	1.315670
C173	C	0.928946	0.234969	0.758389
C174	C	1.428946	0.734969	1.258389
H175	H	0.935100	0.324999	0.849476
H176	H	1.435100	0.824999	1.349476
H177	H	1.012603	0.252579	0.859606
H178	H	1.512603	0.752579	1.359606
H179	H	1.013597	0.316602	0.776772
H180	H	1.513597	0.816602	1.276772
H181	H	0.891735	0.204786	0.797288
H182	H	1.391735	0.704786	1.297288
H183	H	0.892708	0.268818	0.714449
H184	H	1.392708	0.768818	1.214449
H185	H	1.179272	-0.327407	0.093875
H186	H	1.679272	0.172593	0.593875
C187	C	1.237690	-0.053576	0.613954
C188	C	1.737690	0.446424	1.113954
C189	C	1.184296	-0.003681	0.549179
C190	C	1.684296	0.496319	1.049179
H191	H	1.278955	-0.092154	0.580134
H192	H	1.778955	0.407846	1.080134
H193	H	1.269866	-0.018673	0.652810
H194	H	1.769866	0.481327	1.152810
H195	H	1.200458	-0.083750	0.652836
H196	H	1.700458	0.416250	1.152836
H197	H	1.221528	0.026498	0.510301
H198	H	1.721528	0.526498	1.010301
H199	H	1.152118	-0.038589	0.510306
H200	H	1.652118	0.461411	1.010306
H201	H	1.074021	-0.459160	-0.157983
H202	H	1.574021	0.040840	0.342017
C203	C	1.136896	-0.055133	0.815677
C204	C	1.636896	0.444867	1.315677
C205	C	1.184324	-0.003684	0.758370
C206	C	1.684324	0.496316	1.258370
H207	H	1.178180	-0.093711	0.849478
H208	H	1.678180	0.406289	1.349478
H209	H	1.100686	-0.021285	0.859616
H210	H	1.600686	0.478715	1.359616
H211	H	1.099668	-0.085308	0.776797
H212	H	1.599668	0.414692	1.276797
H213	H	1.221547	0.026496	0.797250
H214	H	1.721547	0.526496	1.297250
H215	H	1.220549	-0.037536	0.714426
H216	H	1.720549	0.462464	1.214426
C217	C	0.481763	-0.113286	0.000101
C218	C	0.981763	0.386714	0.500101
C219	C	0.533047	-0.045271	0.000104
C220	C	1.033047	0.454729	0.500104
H221	H	0.520658	-0.164481	0.000084
H222	H	1.020658	0.335519	0.500084
H223	H	0.444940	-0.110767	0.055314
H224	H	0.944940	0.389233	0.555314
H225	H	0.444921	-0.110743	-0.055107
H226	H	0.944921	0.389257	0.444893
H227	H	0.569884	-0.047811	0.055316
H228	H	1.069884	0.452189	0.555316
H229	H	0.569885	-0.047792	-0.055115
H230	H	1.069885	0.452208	0.444885
H231	H	0.946256	0.218769	0.563393
H232	H	1.446256	0.718769	1.063393
H233	H	0.946246	0.218758	0.436821
H234	H	1.446246	0.718758	0.936821
H235	H	0.308748	0.249976	0.000115
H236	H	0.808748	0.749976	0.500115
H237	H	1.072896	-0.313261	0.157786
H238	H	1.572896	0.186739	0.657786
H239	H	0.946227	0.218756	0.256020
H240	H	1.446227	0.718756	0.756020
H241	H	0.596511	0.255064	0.000090
H242	H	1.096511	0.755064	0.500090
C243	C	0.804714	-0.086750	-0.081301
C244	C	1.304714	0.413250	0.418699
C245	C	0.820805	-0.040176	0.000085
C246	C	1.320805	0.459824	0.500085
H247	H	0.843614	-0.137942	-0.081305
H248	H	1.343614	0.362058	0.418695
H249	H	0.744009	-0.098767	-0.081289
H250	H	1.244009	0.401233	0.418711
H251	H	0.815621	-0.055130	-0.136506
H252	H	1.315621	0.444870	0.363494
H253	H	0.809892	-0.071794	0.055290
H254	H	1.309892	0.428206	0.555290
H255	H	0.881524	-0.028161	0.000081
H256	H	1.381524	0.471839	0.500081
H257	H	0.921086	-0.295721	-0.064720
H258	H	1.421086	0.204279	0.435280
C259	C	1.119470	-0.265903	-0.236560
C260	C	1.619470	0.234097	0.263440
C261	C	1.058437	-0.304832	-0.180950
C262	C	1.558437	0.195168	0.319050
H263	H	1.090126	-0.243176	-0.292306
H264	H	1.590126	0.256824	0.207694
H265	H	1.141429	-0.221988	-0.201057
H266	H	1.641429	0.278012	0.298943
H267	H	1.168242	-0.306151	-0.254042
H268	H	1.668242	0.193849	0.245958
H269	H	1.009668	-0.264582	-0.163461
H270	H	1.509668	0.235418	0.336539
H271	H	1.036465	-0.348752	-0.216459
H272	H	1.536465	0.151248	0.283541
C273	C	1.262156	-0.395475	-0.096983
C274	C	1.762156	0.104525	0.403017
C275	C	1.203596	-0.320794	-0.098079
C276	C	1.703596	0.179206	0.401921
H277	H	1.322427	-0.382593	-0.101586
H278	H	1.822427	0.117407	0.398414
H279	H	1.254630	-0.424818	-0.039269
H280	H	1.754630	0.075182	0.460731
H281	H	1.249134	-0.429655	-0.149364
H282	H	1.749134	0.070345	0.350636
H283	H	1.216614	-0.286616	-0.045694
H284	H	1.716614	0.213384	0.454306
H285	H	1.211127	-0.291438	-0.155799
H286	H	1.711127	0.208562	0.344201
H287	H	0.635200	-0.021672	0.000119
H288	H	1.135200	0.478328	0.500119
