data_functionalizedCrystal
_audit_creation_method	'MofGen! by Chris Wilmer'
_symmetry_space_group_name_H-M	'P1'
_symmetry_Int_Tables_number	1
_symmetry_cell_setting	triclinic
loop_
_symmetry_equiv_pos_as_xyz
  x,y,z
_cell_length_a	27.354012
_cell_length_b	27.353283
_cell_length_c	27.349551
_cell_angle_alpha	60.005606
_cell_angle_beta	60.011434
_cell_angle_gamma	59.993282
loop_
_atom_site_label
_atom_site_type_symbol
_atom_site_fract_x
_atom_site_fract_y
_atom_site_fract_z
O1	O	0.067635	-0.714267	0.597330
O2	O	0.567635	-0.214267	1.097330
O3	O	0.025429	-0.556105	0.481282
O4	O	0.525429	-0.056105	0.981282
O5	O	0.125575	-0.656186	0.481214
O6	O	0.625575	-0.156186	0.981214
O7	O	-0.032512	-0.614186	0.597397
O8	O	0.467488	-0.114186	1.097397
O9	O	0.158797	-0.622968	0.514367
O10	O	0.658797	-0.122968	1.014367
O11	O	0.058650	-0.522887	0.514434
O12	O	0.558650	-0.022887	1.014434
O13	O	0.100856	-0.681048	0.630482
O14	O	0.600856	-0.181048	1.130482
Zn15	Zn	0.085028	-0.596693	0.577722
Zn16	Zn	0.585028	-0.096693	1.077722
Zn17	Zn	0.041257	-0.640460	0.534042
Zn18	Zn	0.541257	-0.140460	1.034042
O19	O	0.000709	-0.580967	0.630549
O20	O	0.500709	-0.080967	1.130549
N21	N	0.114901	-0.566828	0.607534
N22	N	0.614901	-0.066828	1.107534
N23	N	0.011389	-0.670331	0.504229
N24	N	0.511389	-0.170331	1.004229
C25	C	0.179404	-0.338196	0.672015
C26	C	0.679404	0.161804	1.172015
C27	C	0.179501	-0.502386	0.836160
C28	C	0.679501	-0.002386	1.336160
C29	C	0.179415	-0.502363	0.671996
C30	C	0.679415	-0.002363	1.171996
C31	C	0.343611	-0.502373	0.671960
C32	C	0.843611	-0.002373	1.171960
C33	C	0.197478	-0.392371	0.690061
C34	C	0.697478	0.107629	1.190061
C35	C	0.197534	-0.484321	0.781984
C36	C	0.697534	0.015679	1.281984
C37	C	0.289434	-0.484312	0.690032
C38	C	0.789434	0.015688	1.190032
C39	C	0.197486	-0.484308	0.690051
C40	C	0.697486	0.015692	1.190051
C41	C	0.156398	-0.269238	0.649045
C42	C	0.656398	0.230762	1.149045
C43	C	0.156418	-0.525342	0.649015
C44	C	0.656418	-0.025342	1.149015
C45	C	0.220484	-0.461329	0.713032
C46	C	0.720484	0.038671	1.213032
C47	C	0.443889	-0.485097	0.619172
C48	C	0.943889	0.014903	1.119172
C49	C	0.506571	-0.505993	0.598266
C50	C	1.006571	-0.005993	1.098266
C51	C	0.506589	-0.607412	0.636940
C52	C	1.006589	-0.107412	1.136940
C53	C	0.443909	-0.586515	0.657848
C54	C	0.943909	-0.086515	1.157848
C55	C	0.171510	-0.237888	0.587422
C56	C	0.671510	0.262112	1.087422
C57	C	0.150593	-0.175201	0.566543
C58	C	0.650593	0.324799	1.066543
C59	C	0.099458	-0.175218	0.668913
C60	C	0.599458	0.324782	1.168913
C61	C	0.120375	-0.237905	0.689792
C62	C	0.620375	0.262095	1.189792
C63	C	0.094789	-0.510201	0.664176
C64	C	0.594789	-0.010201	1.164176
C65	C	0.073888	-0.531091	0.643278
C66	C	0.573888	-0.031091	1.143278
C67	C	0.176239	-0.582263	0.592072
C68	C	0.676239	-0.082263	1.092072
C69	C	0.197142	-0.561373	0.612963
C70	C	0.697142	-0.061373	1.112963
C71	C	0.094933	-0.510244	0.936476
C72	C	0.594933	-0.010244	1.436476
C73	C	0.074073	-0.531151	0.999161
C74	C	0.574073	-0.031151	1.499161
C75	C	0.176453	-0.582335	0.999126
C76	C	0.676453	-0.082335	1.499126
C77	C	0.197312	-0.561429	0.936439
C78	C	0.697312	-0.061429	1.436439
C79	C	0.156551	-0.525382	0.905116
C80	C	0.656551	-0.025382	1.405116
C81	C	0.412561	-0.525357	0.648961
C82	C	0.912561	-0.025357	1.148961
C83	C	-0.098513	-0.688235	0.485867
C84	C	0.401487	-0.188235	0.985867
C85	C	-0.006461	-0.688368	0.394066
C86	C	0.493539	-0.188368	0.894066
C87	C	-0.006645	-0.780264	0.486040
C88	C	0.493355	-0.280264	0.986040
C89	C	-0.006630	-0.688361	0.486097
C90	C	0.493370	-0.188361	0.986097
C91	C	-0.029562	-0.711308	0.463018
C92	C	0.470438	-0.211308	0.963018
N93	N	0.537030	-0.566846	0.607436
N94	N	1.037030	-0.066846	1.107436
O95	O	0.741877	-0.576849	0.459995
O96	O	1.241877	-0.076849	0.959995
O97	O	0.742050	-0.693241	0.618010
O98	O	1.242050	-0.193241	1.118010
O99	O	0.741986	-0.692977	0.517791
O100	O	1.241986	-0.192977	1.017791
O101	O	0.741941	-0.577114	0.560214
O102	O	1.241941	-0.077114	1.060214
O103	O	0.642405	-0.659839	0.551046
O104	O	1.142405	-0.159839	1.051046
O105	O	0.642469	-0.660104	0.651265
O106	O	1.142469	-0.160104	1.151265
O107	O	0.642296	-0.543712	0.493251
O108	O	1.142296	-0.043712	0.993251
Zn109	Zn	0.626572	-0.596646	0.577538
Zn110	Zn	1.126572	-0.096646	1.077538
Zn111	Zn	0.757774	-0.640307	0.533723
Zn112	Zn	1.257774	-0.140307	1.033723
O113	O	0.642360	-0.543976	0.593469
O114	O	1.142360	-0.043976	1.093469
N115	N	0.847316	-0.670107	0.503818
N116	N	1.347316	-0.170107	1.003818
N117	N	0.114877	-0.144758	0.607577
N118	N	0.614877	0.355242	1.107577
O119	O	-0.032498	0.060193	0.597441
O120	O	0.467502	0.560193	1.097441
O121	O	0.125523	0.060193	0.481067
O122	O	0.625523	0.560193	0.981067
O123	O	0.025289	0.060179	0.481345
O124	O	0.525289	0.560179	0.981345
O125	O	0.067736	0.060207	0.597163
O126	O	0.567736	0.560207	1.097163
O127	O	0.058511	-0.039410	0.514543
O128	O	0.558511	0.460590	1.014543
O129	O	0.158745	-0.039397	0.514265
O130	O	0.658745	0.460603	1.014265
O131	O	0.000724	-0.039396	0.630638
O132	O	0.500724	0.460604	1.130638
Zn133	Zn	0.085009	-0.055208	0.577722
Zn134	Zn	0.585009	0.444792	1.077722
Zn135	Zn	0.041238	0.076005	0.533983
Zn136	Zn	0.541238	0.576005	1.033983
O137	O	0.100958	-0.039382	0.630360
O138	O	0.600958	0.460618	1.130360
N139	N	0.011362	0.165555	0.504130
N140	N	0.511362	0.665555	1.004130
N141	N	0.115121	-0.566884	1.029592
N142	N	0.615121	-0.066884	1.529592
O143	O	0.104990	-0.714248	1.234528
O144	O	0.604990	-0.214248	1.734528
O145	O	-0.011371	-0.556177	1.234539
O146	O	0.488629	-0.056177	1.734539
O147	O	-0.011103	-0.656395	1.234497
O148	O	0.488897	-0.156395	1.734497
O149	O	0.104722	-0.614030	1.234569
O150	O	0.604722	-0.114030	1.734569
O151	O	0.022090	-0.623190	1.134913
O152	O	0.522090	-0.123190	1.634913
O153	O	0.021822	-0.522972	1.134954
O154	O	0.521822	-0.022972	1.634954
O155	O	0.138182	-0.681044	1.134943
O156	O	0.638182	-0.181044	1.634943
Zn157	Zn	0.085272	-0.596736	1.119137
Zn158	Zn	0.585272	-0.096736	1.619137
Zn159	Zn	0.041539	-0.640484	1.250344
Zn160	Zn	0.541539	-0.140484	1.750344
O161	O	0.137914	-0.580826	1.134984
O162	O	0.637914	-0.080826	1.634984
N163	N	0.011689	-0.670343	1.339890
N164	N	0.511689	-0.170343	1.839890
C165	C	0.038085	-0.519567	0.481870
C166	C	0.538085	-0.019567	0.981870
C167	C	0.162104	-0.643505	0.481786
C168	C	0.662104	-0.143505	0.981786
C169	C	0.088200	-0.717587	0.629893
C170	C	0.588200	-0.217587	1.129893
C171	C	-0.035819	-0.593649	0.629977
C172	C	0.464181	-0.093649	1.129977
C173	C	0.692280	-0.692701	0.654545
C174	C	1.192280	-0.192701	1.154545
C175	C	0.692203	-0.692374	0.530435
C176	C	1.192203	-0.192374	1.030435
C177	C	0.692063	-0.544251	0.456717
C178	C	1.192063	-0.044251	0.956717
C179	C	0.692144	-0.544580	0.580825
C180	C	1.192144	-0.044580	1.080825
C181	C	0.162000	0.010521	0.481600
C182	C	0.662000	0.510521	0.981600
C183	C	0.037914	0.010381	0.481984
C184	C	0.537914	0.510381	0.981984
C185	C	-0.035795	0.010399	0.630065
C186	C	0.464205	0.510399	1.130065
C187	C	0.088333	0.010415	0.629722
C188	C	0.588333	0.510415	1.129722
C189	C	-0.010799	-0.519660	1.184747
C190	C	0.489201	-0.019660	1.684747
C191	C	-0.010461	-0.643761	1.184677
C192	C	0.489539	-0.143761	1.684677
C193	C	0.137610	-0.717561	1.184734
C194	C	0.637610	-0.217561	1.684734
C195	C	0.137280	-0.593452	1.184783
C196	C	0.637280	-0.093452	1.684783
H197	H	0.023897	-0.518815	1.024687
H198	H	0.523897	-0.018815	1.524687
H199	H	0.097420	0.010424	0.666105
H200	H	0.597420	0.510424	1.166105
C201	C	0.200127	-0.533079	1.133615
C202	C	0.700127	-0.033079	1.633615
C203	C	0.186407	-0.581223	1.184800
C204	C	0.686407	-0.081223	1.684800
H205	H	0.230459	-0.525533	1.133625
H206	H	0.730459	-0.025533	1.633625
H207	H	0.165283	-0.498471	1.133621
H208	H	0.665283	0.001529	1.633621
H209	H	0.213955	-0.542590	1.098886
H210	H	0.713955	-0.042590	1.598886
H211	H	0.172575	-0.571710	1.219529
H212	H	0.672575	-0.071710	1.719529
H213	H	0.221259	-0.615838	1.184800
H214	H	0.721259	-0.115838	1.684800
C215	C	0.202959	-0.805252	1.235933
C216	C	0.702959	-0.305252	1.735933
C217	C	0.186931	-0.778845	1.184730
C218	C	0.686931	-0.278845	1.684730
H219	H	0.233410	-0.843085	1.235927
H220	H	0.733410	-0.343085	1.735927
H221	H	0.168934	-0.810491	1.270646
H222	H	0.668934	-0.310491	1.770646
H223	H	0.217412	-0.780093	1.235945
H224	H	0.717412	-0.280093	1.735945
H225	H	0.172473	-0.804002	1.184720
H226	H	0.672473	-0.304002	1.684720
H227	H	0.220962	-0.773609	1.150008
H228	H	0.720962	-0.273609	1.650008
H229	H	0.692221	-0.728771	0.521355
H230	H	1.192221	-0.228771	1.021355
C231	C	-0.111341	-0.458281	1.184720
C232	C	0.388659	0.041719	1.684720
C233	C	-0.060118	-0.458374	1.184746
C234	C	0.439882	0.041626	1.684746
H235	H	-0.141785	-0.420444	1.184715
H236	H	0.358215	0.079556	1.684715
H237	H	-0.125066	-0.488738	1.219438
H238	H	0.374934	0.011262	1.719438
H239	H	-0.101910	-0.465589	1.149983
H240	H	0.398090	0.034411	1.649983
H241	H	-0.069548	-0.451071	1.219486
H242	H	0.430452	0.048929	1.719486
H243	H	-0.046390	-0.427908	1.150025
H244	H	0.453610	0.072092	1.650025
H245	H	0.418403	-0.619300	0.682106
H246	H	0.918403	-0.119300	1.182106
H247	H	0.029071	-0.474132	0.445424
H248	H	0.529071	0.025868	0.945424
C249	C	0.691977	-0.516241	0.358376
C250	C	1.191977	-0.016241	0.858376
C251	C	0.691988	-0.494917	0.395458
C252	C	1.191988	0.005083	0.895458
H253	H	0.691934	-0.485784	0.320557
H254	H	1.191934	0.014216	0.820557
H255	H	0.657272	-0.527142	0.376306
H256	H	1.157272	-0.027142	0.876306
H257	H	0.726724	-0.550254	0.353111
H258	H	1.226724	-0.050254	0.853111
H259	H	0.657239	-0.460906	0.400727
H260	H	1.157239	0.039094	0.900727
H261	H	0.726697	-0.484007	0.377524
H262	H	1.226697	0.015993	0.877524
H263	H	-0.046832	-0.652809	1.184615
H264	H	0.453168	-0.152809	1.684615
H265	H	-0.081177	0.010398	0.666600
H266	H	0.418823	0.510398	1.166600
C267	C	-0.008364	-0.461749	0.942814
C268	C	0.491636	0.038251	1.442814
C269	C	0.050125	-0.470620	0.902048
C270	C	0.550125	0.029380	1.402048
H271	H	-0.036026	-0.437291	0.921558
H272	H	0.463974	0.062709	1.421558
H273	H	-0.014370	-0.442615	0.967264
H274	H	0.485630	0.057385	1.467264
H275	H	-0.014366	-0.499326	0.967260
H276	H	0.485634	0.000674	1.467260
H277	H	0.056127	-0.433043	0.877605
H278	H	0.556127	0.066957	1.377605
H279	H	0.056133	-0.489752	0.877588
H280	H	0.556133	0.010248	1.377588
C281	C	-0.123564	-0.622356	0.695299
C282	C	0.376436	-0.122356	1.195299
C283	C	-0.097116	-0.581566	0.679231
C284	C	0.402884	-0.081566	1.179231
H285	H	-0.161407	-0.614892	0.725704
H286	H	0.338593	-0.114892	1.225704
H287	H	-0.098446	-0.661981	0.709823
H288	H	0.401554	-0.161981	1.209823
H289	H	-0.128783	-0.617849	0.661267
H290	H	0.371217	-0.117849	1.161267
H291	H	-0.091893	-0.586076	0.713262
H292	H	0.408107	-0.086076	1.213262
H293	H	-0.122240	-0.541931	0.664708
H294	H	0.377760	-0.041931	1.164708
C295	C	0.279749	-0.630831	0.992793
C296	C	0.779749	-0.130831	1.492793
C297	C	0.221259	-0.621957	1.033556
C298	C	0.721259	-0.121957	1.533556
H299	H	0.307409	-0.655300	1.014051
H300	H	0.807409	-0.155300	1.514051
H301	H	0.285756	-0.593261	0.968355
H302	H	0.785756	-0.093261	1.468355
H303	H	0.285752	-0.649960	0.968335
H304	H	0.785752	-0.149960	1.468335
H305	H	0.215255	-0.602824	1.058011
H306	H	0.715255	-0.102824	1.558011
H307	H	0.215250	-0.659533	1.058005
H308	H	0.715250	-0.159533	1.558005
H309	H	0.247489	-0.573760	0.910909
H310	H	0.747489	-0.073760	1.410909
C311	C	0.066394	-0.040833	0.416800
C312	C	0.566394	0.459167	0.916800
C313	C	0.025665	0.010366	0.432858
C314	C	0.525665	0.510366	0.932858
H315	H	0.058836	-0.040841	0.386468
H316	H	0.558836	0.459159	0.886468
H317	H	0.061934	-0.075552	0.450855
H318	H	0.561934	0.424448	0.950855
H319	H	0.106035	-0.040824	0.402178
H320	H	0.606035	0.459176	0.902178
H321	H	-0.013976	0.010354	0.447484
H322	H	0.486024	0.510354	0.947484
H323	H	0.030120	0.045094	0.398797
H324	H	0.530120	0.545094	0.898797
C325	C	0.692354	-0.720707	0.752889
C326	C	1.192354	-0.220707	1.252889
C327	C	0.692345	-0.742032	0.715807
C328	C	1.192345	-0.242032	1.215807
H329	H	0.692398	-0.751165	0.790708
H330	H	1.192398	-0.251165	1.290708
H331	H	0.657613	-0.686697	0.758152
H332	H	1.157613	-0.186697	1.258152
H333	H	0.727065	-0.709807	0.734958
H334	H	1.227065	-0.209807	1.234958
H335	H	0.657632	-0.752928	0.733736
H336	H	1.157632	-0.252928	1.233736
H337	H	0.727090	-0.776053	0.710546
H338	H	1.227090	-0.276053	1.210546
H339	H	0.023705	-0.518748	0.655609
H340	H	0.523705	-0.018748	1.155609
C341	C	0.013966	-0.418340	0.672449
C342	C	0.513966	0.081660	1.172449
C343	C	0.050023	-0.470589	0.703796
C344	C	0.550023	0.029411	1.203796
H345	H	-0.013669	-0.393884	0.696909
H346	H	0.486331	0.106116	1.196909
H347	H	-0.007299	-0.428618	0.662178
H348	H	0.492701	0.071382	1.162178
H349	H	0.038413	-0.397079	0.637006
H350	H	0.538413	0.102921	1.137006
H351	H	0.025575	-0.491852	0.739237
H352	H	0.525575	0.008148	1.239237
H353	H	0.071289	-0.460311	0.714075
H354	H	0.571289	0.039689	1.214075
C355	C	0.279515	-0.630750	0.543554
C356	C	0.779515	-0.130750	1.043554
C357	C	0.221009	-0.621873	0.552445
C358	C	0.721009	-0.121873	1.052445
H359	H	0.307151	-0.655199	0.519087
H360	H	0.807151	-0.155199	1.019087
H361	H	0.285555	-0.649896	0.581117
H362	H	0.785555	-0.149896	1.081117
H363	H	0.285520	-0.593175	0.524420
H364	H	0.785520	-0.093175	1.024420
H365	H	0.215002	-0.659448	0.571583
H366	H	0.715002	-0.159448	1.071583
H367	H	0.214967	-0.602728	0.514875
H368	H	0.714967	-0.102728	1.014875
H369	H	0.207509	-0.652460	0.445301
H370	H	0.707509	-0.152460	0.945301
C371	C	0.692070	-0.444070	0.542068
C372	C	1.192070	0.055930	1.042068
C373	C	0.692130	-0.495443	0.593073
C374	C	1.192130	0.004557	1.093073
H375	H	0.692066	-0.413738	0.549629
H376	H	1.192066	0.086262	1.049629
H377	H	0.657328	-0.430254	0.532592
H378	H	1.157328	0.069746	1.032592
H379	H	0.726781	-0.453377	0.509393
H380	H	1.226781	0.046623	1.009393
H381	H	0.657417	-0.486137	0.625746
H382	H	1.157417	0.013863	1.125746
H383	H	0.726875	-0.509261	0.602556
H384	H	1.226875	-0.009261	1.102556
H385	H	0.097215	-0.763020	0.666340
H386	H	0.597215	-0.263020	1.166340
H387	H	0.207290	0.010797	0.444973
H388	H	0.707290	0.510797	0.944973
H389	H	0.532110	-0.657210	0.644171
H390	H	1.032110	-0.157210	1.144171
C391	C	0.274634	-0.552069	0.622252
C392	C	0.774634	-0.052069	1.122252
C393	C	0.264886	-0.578014	0.596301
C394	C	0.764886	-0.078014	1.096301
H395	H	0.316456	-0.562341	0.611962
H396	H	0.816456	-0.062341	1.111962
H397	H	0.257053	-0.566494	0.664542
H398	H	0.757053	-0.066494	1.164542
H399	H	0.257013	-0.509773	0.607844
H400	H	0.757013	-0.009773	1.107844
H401	H	0.282504	-0.620311	0.610713
H402	H	0.782504	-0.120311	1.110713
H403	H	0.282475	-0.563592	0.554003
H404	H	0.782475	-0.063592	1.054003
C405	C	0.525836	-0.419436	0.514175
C406	C	1.025836	0.080564	1.014175
C407	C	0.541014	-0.461740	0.565515
C408	C	1.041014	0.038260	1.065515
H409	H	0.547103	-0.392119	0.493952
H410	H	1.047103	0.107881	0.993952
H411	H	0.484024	-0.398239	0.525358
H412	H	0.984024	0.101761	1.025358
H413	H	0.536097	-0.439262	0.488391
H414	H	1.036097	0.060738	0.988391
H415	H	0.530749	-0.441914	0.591301
H416	H	1.030749	0.058086	1.091301
H417	H	0.582835	-0.482939	0.554332
H418	H	1.082835	0.017061	1.054332
C419	C	0.347794	-0.408024	0.634042
C420	C	0.847794	0.091976	1.134042
C421	C	0.409429	-0.417870	0.609406
C422	C	0.909429	0.082130	1.109406
H423	H	0.326523	-0.366521	0.628008
H424	H	0.826523	0.133479	1.128008
H425	H	0.337542	-0.429875	0.675721
H426	H	0.837542	0.070125	1.175721
H427	H	0.337518	-0.420992	0.615097
H428	H	0.837518	0.079008	1.115097
H429	H	0.419706	-0.404906	0.628355
H430	H	0.919706	0.095094	1.128355
H431	H	0.419686	-0.396011	0.567719
H432	H	0.919686	0.103989	1.067719
C433	C	0.179721	-0.257175	0.506608
C434	C	0.679721	0.242825	1.006608
C435	C	0.211103	-0.272329	0.542632
C436	C	0.711103	0.227671	1.042632
H437	H	0.204164	-0.278442	0.478960
H438	H	0.704164	0.221558	0.978960
H439	H	0.169431	-0.215359	0.485356
H440	H	0.669431	0.284641	0.985356
H441	H	0.144288	-0.267456	0.531078
H442	H	0.644288	0.232544	1.031078
H443	H	0.246534	-0.262043	0.518162
H444	H	0.746534	0.237957	1.018162
H445	H	0.221402	-0.314154	0.563885
H446	H	0.721402	0.185846	1.063885
C447	C	0.198536	-0.104688	0.483661
C448	C	0.698536	0.395312	0.983661
C449	C	0.167202	-0.140736	0.498803
C450	C	0.667202	0.359264	0.998803
H451	H	0.208785	-0.083410	0.441841
H452	H	0.708785	0.416590	0.941841
H453	H	0.233986	-0.129141	0.493925
H454	H	0.733986	0.370859	0.993925
H455	H	0.174082	-0.077056	0.504942
H456	H	0.674082	0.422944	1.004942
H457	H	0.191658	-0.168370	0.477525
H458	H	0.691658	0.331630	0.977525
H459	H	0.131746	-0.116280	0.488533
H460	H	0.631746	0.383720	0.988533
C461	C	0.051025	-0.181531	0.772201
C462	C	0.551025	0.318469	1.272201
C463	C	0.059865	-0.140773	0.713701
C464	C	0.559865	0.359227	1.213701
H465	H	0.026578	-0.160266	0.799851
H466	H	0.526578	0.339734	1.299851
H467	H	0.088603	-0.205976	0.778205
H468	H	0.588603	0.294024	1.278205
H469	H	0.031889	-0.205984	0.778223
H470	H	0.531889	0.294016	1.278223
H471	H	0.079005	-0.116323	0.707678
H472	H	0.579005	0.383677	1.207678
H473	H	0.022280	-0.116317	0.707695
H474	H	0.522280	0.383683	1.207695
H475	H	0.108067	-0.263426	0.739970
H476	H	0.608067	0.236574	1.239970
