data_functionalizedCrystal
_audit_creation_method	'MofGen! by Chris Wilmer'
_symmetry_space_group_name_H-M	'P1'
_symmetry_Int_Tables_number	1
_symmetry_cell_setting	triclinic
loop_
_symmetry_equiv_pos_as_xyz
  x,y,z
_cell_length_a	14.519709
_cell_length_b	12.837942
_cell_length_c	11.295471
_cell_angle_alpha	94.527666
_cell_angle_beta	94.110983
_cell_angle_gamma	90.745457
loop_
_atom_site_label
_atom_site_type_symbol
_atom_site_fract_x
_atom_site_fract_y
_atom_site_fract_z
O1	O	1.241207	-0.128953	0.098867
O2	O	0.974115	-0.144956	0.098903
O3	O	1.101738	0.013959	0.098879
O4	O	1.113584	-0.287868	0.098892
O5	O	1.090517	0.000031	-0.099170
O6	O	0.962894	-0.158884	-0.099145
O7	O	1.229986	-0.142881	-0.099182
Cu8	Cu	1.095415	-0.152154	-0.117247
Cu9	Cu	1.108686	-0.135683	0.116969
O10	O	1.102363	-0.301796	-0.099157
C11	C	0.934081	-0.151173	-0.000116
C12	C	0.831507	-0.148937	-0.000103
C13	C	1.092126	0.045623	-0.000144
C14	C	1.080192	0.160723	-0.000141
N15	N	1.086089	-0.163739	-0.281982
C16	C	0.455897	-0.140712	-0.000157
C17	C	0.560403	-0.142996	-0.000142
C18	C	0.643699	-0.144824	-0.000129
C19	C	0.748212	-0.147109	-0.000115
C20	C	1.270021	-0.136663	-0.000159
C21	C	1.372595	-0.138899	-0.000165
C22	C	1.111975	-0.333460	-0.000131
C23	C	1.123909	-0.448558	-0.000127
C24	C	1.223663	0.401415	-0.000135
C25	C	1.212454	0.509562	-0.000132
C26	C	1.046567	0.485166	-0.000122
C27	C	1.057776	0.377019	-0.000125
C28	C	1.146327	0.335148	-0.000134
C29	C	1.157534	0.226998	-0.000146
C30	C	0.991648	0.202605	-0.000127
C31	C	0.980440	0.310751	-0.000124
C32	C	1.019013	-0.247238	-0.468991
C33	C	1.026044	-0.238467	-0.344328
C34	C	1.139105	-0.097774	-0.344306
C35	C	1.132074	-0.106544	-0.468969
C36	C	1.072028	-0.181280	-0.531307
C37	C	1.065003	-0.190055	-0.655972
C38	C	1.178058	-0.049357	-0.655947
C39	C	1.185089	-0.040587	-0.531285
N40	N	1.118019	-0.124090	0.281704
H41	H	1.229636	0.192909	-0.000157
H42	H	1.275430	0.563515	-0.000129
O43	O	1.197637	-0.025243	-0.284015
C44	C	1.288642	-0.044637	-0.314616
H45	H	1.286774	-0.091065	-0.405079
H46	H	1.327035	0.032821	-0.319068
H47	H	1.325705	-0.091348	-0.244447
O48	O	1.309744	0.360910	-0.000092
C49	C	1.375600	0.442590	-0.000129
H50	H	1.345420	0.518742	0.037367
H51	H	1.440103	0.423914	0.057364
H52	H	1.394530	0.451161	-0.095146
H53	H	0.970128	-0.308097	-0.519747
H54	H	0.974474	0.519278	-0.000102
O55	O	0.894483	0.351565	0.000041
C56	C	0.888832	0.420577	0.102630
H57	H	0.961101	0.449770	0.136829
H58	H	0.844543	0.489844	0.079565
H59	H	0.856283	0.377924	0.174451
H60	H	1.016113	-0.250910	-0.706726
O61	O	0.974512	-0.302654	-0.283979
C62	C	0.919991	-0.370475	-0.365738
H63	H	0.952900	-0.377991	-0.454590
H64	H	0.915224	-0.450706	-0.329715
H65	H	0.847765	-0.337572	-0.379019
O66	O	0.916619	0.138087	-0.000069
C67	C	0.945494	0.033651	-0.000108
H68	H	1.020430	0.031996	0.037381
H69	H	0.900039	-0.011202	0.057392
H70	H	0.939363	-0.004291	-0.095124
H71	H	1.233975	0.020264	-0.480515
H72	H	1.221229	0.004347	-0.706699
