data_functionalizedCrystal
_audit_creation_method	'MofGen! by Chris Wilmer'
_symmetry_space_group_name_H-M	'P1'
_symmetry_Int_Tables_number	1
_symmetry_cell_setting	triclinic
loop_
_symmetry_equiv_pos_as_xyz
  x,y,z
_cell_length_a	12.594517
_cell_length_b	12.594516
_cell_length_c	12.594509
_cell_angle_alpha	89.973801
_cell_angle_beta	90.021327
_cell_angle_gamma	89.984147
loop_
_atom_site_label
_atom_site_type_symbol
_atom_site_fract_x
_atom_site_fract_y
_atom_site_fract_z
Zn1	Zn	1.627267	0.423716	0.601875
Zn2	Zn	1.627158	0.601726	0.423903
Zn3	Zn	1.449271	0.423761	0.423904
Zn4	Zn	1.449253	0.601652	0.601833
O5	O	1.538237	0.512714	0.512879
O6	O	1.776198	0.447341	0.578284
O7	O	1.603522	0.578169	0.274957
O8	O	1.472936	0.274809	0.447530
O9	O	1.776118	0.578124	0.447528
O10	O	1.603709	0.274776	0.578285
O11	O	1.472830	0.447419	0.274958
O12	O	1.300323	0.447347	0.447489
O13	O	1.472905	0.577998	0.750784
O14	O	1.300310	0.578042	0.578213
O15	O	1.603691	0.447269	0.750815
O16	O	1.603505	0.750662	0.447488
O17	O	1.472799	0.750608	0.578212
C18	C	1.261696	0.512692	0.512847
C19	C	1.143391	0.512709	0.512859
C20	C	1.538167	0.789255	0.512868
C21	C	1.538235	0.907560	0.512899
C22	C	1.074114	0.441526	0.441894
C23	C	1.003303	0.538615	0.415718
C24	C	1.003403	0.415668	0.539054
C25	C	1.074138	0.609849	0.486632
C26	C	1.074244	0.486836	0.610013
C27	C	1.003465	0.583991	0.583874
C28	C	1.538308	0.512620	0.790500
C29	C	1.538339	0.512581	0.908805
C30	C	1.815858	0.512736	0.512911
C31	C	1.934163	0.512745	0.512924
C32	C	1.538336	0.235093	0.512912
C33	C	1.538378	0.116787	0.512927
C34	C	1.467137	0.976822	0.583950
C35	C	1.441204	1.047688	0.486827
C36	C	1.564265	1.047494	0.610039
C37	C	1.512250	0.976867	0.415725
C38	C	1.635357	0.976667	0.539002
C39	C	1.609460	1.047500	0.441812
C40	C	1.538227	0.512730	0.236338
C41	C	1.538403	0.512470	0.118033
C42	C	1.467227	0.583644	0.978042
C43	C	1.564347	0.609650	1.048833
C44	C	1.441294	0.486510	1.048813
C45	C	1.635510	0.538638	0.978038
C46	C	1.512391	0.415453	0.978012
C47	C	1.609579	0.441422	1.048772
H48	H	0.972144	0.560522	0.333584
H49	H	1.105080	0.691955	0.464413
O50	O	1.111405	0.460485	0.707936
C51	C	1.075407	0.358056	0.735225
H52	H	1.055478	0.312047	0.659884
H53	H	1.001401	0.364849	0.786875
C54	C	1.187455	0.355649	0.889574
C55	C	1.162986	0.299138	0.797038
H56	H	1.241475	0.319306	0.927707
H57	H	1.211705	0.424659	0.871192
H58	H	1.125776	0.361306	0.932603
H59	H	1.224661	0.293493	0.754005
H60	H	1.138748	0.230125	0.815414
O61	O	1.343409	0.460308	1.086081
C62	C	1.345056	0.459645	1.198017
H63	H	1.412835	0.511871	1.227502
H64	H	1.357219	0.374935	1.227565
C65	C	1.155617	0.438655	1.204330
C66	C	1.238859	0.502807	1.240544
H67	H	1.090109	0.465275	1.230565
H68	H	1.154507	0.439098	1.128917
H69	H	1.165767	0.368068	1.228957
H70	H	1.228715	0.573389	1.215907
H71	H	1.239965	0.502377	1.315955
O72	O	1.681394	1.084177	0.370136
C73	C	1.783341	1.046417	0.396943
H74	H	1.775568	0.971471	0.447126
H75	H	1.827578	1.109784	0.444045
C76	C	1.854989	1.112862	0.233172
C77	C	1.845443	1.020807	0.294801
H78	H	1.893300	1.097069	0.170167
H79	H	1.786307	1.138305	0.215113
H80	H	1.891851	1.165659	0.272436
H81	H	1.808571	0.968017	0.255542
H82	H	1.914121	0.995354	0.312851
H83	H	0.972276	0.333597	0.561146
H84	H	1.490382	0.333385	0.946881
O85	O	1.110953	0.369768	0.370140
C86	C	1.024479	0.320125	0.319259
H87	H	0.951574	0.373513	0.324645
H88	H	1.007056	0.241033	0.359710
C89	C	1.141583	0.235047	0.195146
C90	C	1.052042	0.300623	0.201753
H91	H	1.158585	0.223013	0.122664
H92	H	1.199843	0.268489	0.229427
H93	H	1.127052	0.169145	0.228861
H94	H	1.066579	0.366528	0.168050
H95	H	0.993785	0.267191	0.167463
H96	H	1.406905	0.945788	0.643949
O97	O	0.966729	0.656046	0.655381
C98	C	1.002988	0.758200	0.627418
H99	H	1.022691	0.760113	0.539102
H100	H	1.077187	0.778015	0.675341
C101	C	0.891552	0.838091	0.759911
C102	C	0.915742	0.840442	0.651437
H103	H	0.837737	0.888823	0.774731
H104	H	0.867126	0.769267	0.778753
H105	H	0.953391	0.854600	0.799834
H106	H	0.853907	0.823920	0.611517
H107	H	0.940156	0.909265	0.632588
O108	O	1.343230	1.084858	0.460667
C109	C	1.268430	1.048833	0.535742
H110	H	1.310701	1.028884	0.613282
H111	H	1.227081	0.974833	0.504040
C112	C	1.133560	1.160894	0.460597
C113	C	1.185477	1.136400	0.555836
H114	H	1.082387	1.214906	0.472990
H115	H	1.183953	1.185162	0.410015
H116	H	1.099111	1.099220	0.434188
H117	H	1.219935	1.198070	0.582237
H118	H	1.135087	1.112144	0.606424
O119	O	1.485907	0.939841	0.317780
C120	C	1.486130	0.827898	0.318953
H121	H	1.474226	0.798558	0.403757
H122	H	1.565347	0.797534	0.287409
C123	C	1.410067	0.822303	0.144132
C124	C	1.395437	0.786268	0.248288
H125	H	1.354127	0.796622	0.100539
H126	H	1.409920	0.897721	0.143339
H127	H	1.476084	0.796997	0.117860
H128	H	1.329428	0.811585	0.274563
H129	H	1.395571	0.710853	0.249084
H130	H	1.717406	0.945451	0.561104
O131	O	1.590344	1.084380	0.708108
C132	C	1.515083	1.048390	0.782737
H133	H	1.474504	0.973920	0.751153
H134	H	1.453131	1.112919	0.796610
C135	C	1.621211	1.113971	0.926979
C136	C	1.571378	1.022500	0.888189
H137	H	1.655934	1.098005	0.992028
H138	H	1.671915	1.138222	0.876700
H139	H	1.569575	1.167736	0.938531
H140	H	1.623015	0.968742	0.876626
H141	H	1.520684	0.998239	0.938469
H142	H	1.407136	0.643833	0.946986
O143	O	1.590745	0.707511	1.086013
C144	C	1.683966	0.700128	1.147600
H145	H	1.730358	0.626264	1.123428
H146	H	1.661921	0.694530	1.235209
C147	C	1.695925	0.890121	1.158869
C148	C	1.752909	0.799405	1.129175
H149	H	1.738452	0.951361	1.147508
H150	H	1.633119	0.895096	1.117380
H151	H	1.677559	0.885442	1.231875
H152	H	1.771263	0.804079	1.056167
H153	H	1.815721	0.794433	1.170651
H154	H	1.717631	0.560736	0.947080
H155	H	1.669813	0.381279	1.079632
