data_functionalizedCrystal
_audit_creation_method	'MofGen! by Chris Wilmer'
_symmetry_space_group_name_H-M	'P1'
_symmetry_Int_Tables_number	1
_symmetry_cell_setting	triclinic
loop_
_symmetry_equiv_pos_as_xyz
  x,y,z
_cell_length_a	18.101395
_cell_length_b	18.101398
_cell_length_c	17.639306
_cell_angle_alpha	78.771019
_cell_angle_beta	101.187880
_cell_angle_gamma	90.026371
loop_
_atom_site_label
_atom_site_type_symbol
_atom_site_fract_x
_atom_site_fract_y
_atom_site_fract_z
Zn1	Zn	-0.379607	1.216733	-0.447033
Zn2	Zn	-0.478418	1.191612	-0.314861
Zn3	Zn	-0.354584	1.067875	-0.314860
Zn4	Zn	-0.503391	1.092833	-0.446980
O5	O	-0.429000	1.142263	-0.380934
O6	O	-0.392735	1.317038	-0.429523
O7	O	-0.441067	1.154240	-0.204254
O8	O	-0.254275	1.087690	-0.332415
O9	O	-0.465331	1.298582	-0.332417
O10	O	-0.272659	1.197055	-0.429522
O11	O	-0.350087	1.063331	-0.204254
O12	O	-0.374303	0.967549	-0.332364
O13	O	-0.507895	1.130226	-0.557594
O14	O	-0.483631	0.985885	-0.429432
O15	O	-0.416951	1.221255	-0.557633
O16	O	-0.585359	1.178440	-0.332365
O17	O	-0.603707	1.105868	-0.429432
C18	C	-0.428962	0.949845	-0.380892
C19	C	-0.428967	0.867531	-0.380894
C20	C	-0.621406	1.142160	-0.380910
C21	C	-0.703723	1.142188	-0.380927
C22	C	-1.002822	1.142359	-0.380970
C23	C	-0.983101	1.096859	-0.442193
C24	C	-0.897447	1.096552	-0.442002
C25	C	-0.854436	1.142274	-0.380949
C26	C	-0.869805	1.105378	-0.297645
C27	C	-0.955520	1.105079	-0.298012
C28	C	-0.975216	1.224741	-0.402317
C29	C	-0.889911	1.224626	-0.404143
C30	C	-0.770573	1.142227	-0.380932
C31	C	-1.086684	1.142403	-0.380981
C32	C	-0.429026	0.568453	-0.380960
C33	C	-0.360010	0.588273	-0.320186
C34	C	-0.360116	0.673842	-0.319926
C35	C	-0.428996	0.716829	-0.380927
C36	C	-0.502697	0.681403	-0.358170
C37	C	-0.502298	0.595678	-0.357747
C38	C	-0.425046	0.615905	-0.464635
C39	C	-0.423222	0.701469	-0.464178
C40	C	-0.428985	0.800685	-0.380910
C41	C	-0.429043	0.484596	-0.380975
C42	C	-0.235846	1.142390	-0.380974
C43	C	-0.153535	1.142445	-0.380992
C44	C	-0.468000	1.181327	-0.587094
C45	C	-0.484619	1.197974	-0.674948
C46	C	-0.429039	1.335433	-0.380976
C47	C	-0.429055	1.417750	-0.380993
C48	C	-0.302469	1.016088	-0.963909
C49	C	-0.318101	1.031747	-1.046461
C50	C	-0.412828	1.126401	-1.046441
C51	C	-0.397202	1.110753	-0.963888
C52	C	-0.342022	1.055595	-0.922628
C53	C	-0.436755	1.150259	-0.922607
C54	C	-0.421132	1.134609	-0.840061
C55	C	-0.365956	1.079453	-0.798796
C56	C	-0.326399	1.039945	-0.840082
C57	C	-0.491938	1.205413	-0.963868
C58	C	-0.531491	1.244920	-0.922588
C59	C	-0.515865	1.229274	-0.840040
C60	C	-0.460689	1.174117	-0.798775
C61	C	-0.555422	1.268781	-0.798754
C62	C	-0.539799	1.253131	-0.716208
C63	C	-0.445066	1.158467	-0.716229
C64	C	-0.390099	1.103394	-0.175575
C65	C	-0.373271	1.086891	-0.087722
H66	H	-0.888085	1.121462	-0.503770
H67	H	-0.554612	0.582969	-0.400082
H68	H	-0.475507	0.604219	-0.509917
H69	H	-0.967304	1.135927	-0.250839
H70	H	-0.457758	1.171308	-1.080046
H71	H	-0.373070	0.598249	-0.485326
H72	H	-0.600354	1.313685	-0.832360
H73	H	-0.400125	1.113560	-0.682633
H74	H	-0.972133	1.044389	-0.279929
H75	H	-0.844929	1.045233	-0.279239
H76	H	-1.008077	1.255306	-0.462027
H77	H	-0.304969	0.697582	-0.334191
H78	H	-0.571997	1.285312	-0.682596
N79	N	-0.355290	0.731068	-0.485720
N80	N	-0.358339	0.780523	-0.546668
H81	H	-0.310360	0.801430	-0.561882
H82	H	-0.507527	0.564088	-0.296577
N83	N	-0.568071	0.717133	-0.411967
N84	N	-0.561055	0.769230	-0.467812
H85	H	-0.607224	0.794466	-0.505808
N86	N	-0.507931	1.221338	-1.048188
N87	N	-0.572671	1.212749	-1.084966
H88	H	-0.583974	1.223971	-1.144516
H89	H	-0.281458	0.995038	-0.806486
H90	H	-0.508344	0.691365	-0.297660
H91	H	-0.471090	0.731904	-0.511886
N92	N	-0.349998	1.063479	-0.714477
N93	N	-0.327557	1.114274	-0.677644
H94	H	-0.316286	1.102994	-0.618093
N95	N	-0.246084	0.959760	-0.921768
N96	N	-0.210760	0.924499	-0.958633
H97	H	-0.170937	0.884722	-0.928871
N98	N	-0.277690	0.991379	-1.088616
N99	N	-0.228428	0.942133	-1.051764
H100	H	-0.199890	0.913622	-1.081536
H101	H	-0.576421	1.289826	-0.956193
H102	H	-0.860671	1.261584	-0.362802
H103	H	-0.987023	1.258833	-0.357725
N104	N	-1.023558	1.128037	-0.519941
N105	N	-1.067406	1.184150	-0.531139
H106	H	-1.095966	1.206187	-0.586054
N107	N	-1.006847	1.021135	-0.424696
N108	N	-1.053809	0.996336	-0.474609
H109	H	-1.070579	0.942855	-0.462252
H110	H	-0.881163	1.252163	-0.465450
H111	H	-0.304657	0.570373	-0.334293
H112	H	-0.840561	1.136780	-0.250785
H113	H	-0.361480	0.682560	-0.257924
N114	N	-0.868465	1.020345	-0.424265
N115	N	-0.911510	0.967221	-0.411982
H116	H	-0.891043	0.913396	-0.399453
H117	H	-0.361295	0.555056	-0.258544
