data_functionalizedCrystal
_audit_creation_method	'MofGen! by Chris Wilmer'
_symmetry_space_group_name_H-M	'P1'
_symmetry_Int_Tables_number	1
_symmetry_cell_setting	triclinic
loop_
_symmetry_equiv_pos_as_xyz
  x,y,z
_cell_length_a	17.699104
_cell_length_b	17.019294
_cell_length_c	16.776229
_cell_angle_alpha	86.114377
_cell_angle_beta	89.991971
_cell_angle_gamma	83.342939
loop_
_atom_site_label
_atom_site_type_symbol
_atom_site_fract_x
_atom_site_fract_y
_atom_site_fract_z
O1	O	1.004137	0.099835	-0.073156
O2	O	1.504137	0.599835	0.426844
O3	O	0.783770	0.112797	-0.074044
O4	O	1.283770	0.612797	0.425956
O5	O	0.900101	-0.008528	-0.065713
O6	O	1.400101	0.491472	0.434287
O7	O	0.887806	0.221160	-0.081487
O8	O	1.387806	0.721160	0.418513
O9	O	0.900085	-0.008536	0.066864
O10	O	1.400085	0.491464	0.566864
O11	O	0.783755	0.112789	0.058533
O12	O	1.283755	0.612789	0.558533
O13	O	1.004122	0.099828	0.059421
O14	O	1.504122	0.599828	0.559421
Zn15	Zn	0.893936	0.106307	0.080027
Zn16	Zn	1.393936	0.606307	0.580027
Zn17	Zn	0.893956	0.106317	-0.094649
Zn18	Zn	1.393956	0.606317	0.405351
O19	O	0.887791	0.221153	0.051090
O20	O	1.387791	0.721153	0.551090
C21	C	0.755565	0.112326	-0.007723
C22	C	1.255565	0.612326	0.492277
C23	C	0.671547	0.110924	-0.007626
C24	C	1.171547	0.610924	0.492374
C25	C	0.146720	0.174234	-0.011982
C26	C	0.646720	0.674234	0.488018
C27	C	0.225664	0.175547	-0.012074
C28	C	0.725664	0.675547	0.487926
C29	C	0.274233	0.104324	-0.007183
C30	C	0.774233	0.604324	0.492817
C31	C	0.243853	0.031785	-0.002207
C32	C	0.743853	0.531785	0.497793
C33	C	0.164910	0.030473	-0.002120
C34	C	0.664910	0.530473	0.497880
C35	C	0.562223	0.037072	-0.002557
C36	C	1.062223	0.537072	0.497443
C37	C	0.641171	0.038389	-0.002642
C38	C	1.141171	0.538389	0.497358
C39	C	0.622977	0.182145	-0.012511
C40	C	1.122977	0.682145	0.487489
C41	C	0.544034	0.180834	-0.012425
C42	C	1.044034	0.680834	0.487575
C43	C	0.513661	0.108295	-0.007453
C44	C	1.013661	0.608295	0.492547
C45	C	0.428060	0.106873	-0.007354
C46	C	0.928060	0.606873	0.492646
C47	C	0.359832	0.105745	-0.007276
C48	C	0.859832	0.605745	0.492724
C49	C	0.899627	-0.037921	0.002592
C50	C	1.399627	0.462079	0.502592
C51	C	0.898228	-0.125489	0.008601
C52	C	1.398228	0.374511	0.508601
C53	C	0.897581	-0.166620	-0.060843
C54	C	1.397581	0.333380	0.439157
C55	C	0.896262	-0.248899	-0.055195
C56	C	1.396262	0.251101	0.444805
C57	C	0.895595	-0.290045	0.019898
C58	C	1.395595	0.209955	0.519898
C59	C	0.896240	-0.248908	0.089348
C60	C	1.396240	0.251092	0.589348
C61	C	0.897553	-0.166630	0.083699
C62	C	1.397553	0.333370	0.583699
C63	C	0.891623	-0.538472	0.040570
C64	C	1.391623	-0.038472	0.540570
C65	C	0.890311	-0.620756	0.046214
C66	C	1.390311	-0.120756	0.546214
C67	C	0.890332	-0.620740	-0.098330
C68	C	1.390332	-0.120740	0.401670
C69	C	0.891650	-0.538461	-0.103972
C70	C	1.391650	-0.038461	0.396028
C71	C	0.892291	-0.497331	-0.034523
C72	C	1.392291	0.002669	0.465477
C73	C	0.894249	-0.374148	0.025673
C74	C	1.394249	0.125852	0.525673
C75	C	0.893631	-0.413229	-0.040299
C76	C	1.393631	0.086771	0.459701
C77	C	1.032327	0.100299	-0.006902
C78	C	1.532327	0.600299	0.493098
C79	C	1.116345	0.101700	-0.007004
C80	C	1.616345	0.601700	0.492996
C81	C	0.888265	0.250545	-0.017216
C82	C	1.388265	0.750545	0.482784
C83	C	0.889664	0.338113	-0.023230
C84	C	1.389664	0.838113	0.476770
N85	N	0.893927	0.106300	0.199238
N86	N	1.393927	0.606300	0.699238
N87	N	0.893970	0.106318	-0.213860
N88	N	1.393970	0.606318	0.286140
C89	C	0.945454	0.052599	0.244643
C90	C	1.445454	0.552599	0.744643
C91	C	0.945459	0.052599	0.328095
C92	C	1.445459	0.552599	0.828095
C93	C	0.893939	0.106303	0.366141
C94	C	1.393939	0.606303	0.866141
C95	C	0.842406	0.160006	0.320731
C96	C	1.342406	0.660006	0.820731
C97	C	0.842399	0.160003	0.237280
C98	C	1.342399	0.660003	0.737280
C99	C	0.842434	0.160022	0.657277
C100	C	1.342434	0.660022	1.157277
C101	C	0.842446	0.160023	0.740733
C102	C	1.342446	0.660023	1.240733
C103	C	0.945493	0.052618	0.748092
C104	C	1.445493	0.552618	1.248092
C105	C	0.945486	0.052614	0.664641
C106	C	1.445486	0.552614	1.164641
C107	C	0.893951	0.106314	0.619238
C108	C	1.393951	0.606314	1.119238
C109	C	0.893946	0.106313	0.528750
C110	C	1.393946	0.606313	1.028750
C111	C	0.893947	0.106308	0.456628
C112	C	1.393947	0.606308	0.956628
H113	H	0.283404	-0.026206	0.001771
H114	H	0.783404	0.473794	0.501771
N115	N	0.895617	-0.290894	-0.126145
N116	N	1.395617	0.209106	0.373855
N117	N	0.949101	-0.289058	-0.174650
N118	N	1.449101	0.210942	0.325350
H119	H	0.948648	-0.318714	-0.224764
H120	H	1.448648	0.181286	0.275236
N121	N	0.889608	-0.662789	0.122922
N122	N	1.389608	-0.162789	0.622922
N123	N	0.835547	-0.701335	0.141680
N124	N	1.335547	-0.201335	0.641680
H125	H	0.835050	-0.731023	0.195852
H126	H	1.335050	-0.231023	0.695852
H127	H	0.987415	0.008871	0.365063
H128	H	1.487415	0.508871	0.865063
H129	H	0.680715	-0.019612	0.001339
H130	H	1.180715	0.480388	0.501339
N131	N	0.494421	0.253584	-0.017432
N132	N	0.994421	0.753584	0.482568
N133	N	0.448349	0.268892	-0.074369
N134	N	0.948349	0.768892	0.425631
H135	H	0.413309	0.320273	-0.077908
H136	H	0.913309	0.820273	0.422092
N137	N	0.998127	-0.002238	0.625791
N138	N	1.498127	0.497762	1.125791
N139	N	1.044134	-0.050180	0.666341
N140	N	1.544134	0.449820	1.166341
H141	H	1.081314	-0.088920	0.638905
H142	H	1.581314	0.411080	1.138905
N143	N	0.998128	-0.002236	0.794483
N144	N	1.498128	0.497764	1.294483
N145	N	0.998129	-0.002232	0.868992
N146	N	1.498129	0.497768	1.368992
H147	H	1.035302	-0.040970	0.901755
H148	H	1.535302	0.459030	1.401755
H149	H	0.892194	-0.504965	-0.165121
H150	H	1.392194	-0.004965	0.334879
H151	H	0.889808	-0.654238	-0.154871
H152	H	1.389808	-0.154238	0.345129
H153	H	0.898070	-0.133141	0.140248
H154	H	1.398070	0.366859	0.640248
N155	N	0.654016	0.256238	-0.017589
N156	N	1.154016	0.756238	0.482411
N157	N	0.724501	0.257404	-0.017666
N158	N	1.224501	0.757404	0.482334
H159	H	0.746422	0.309730	-0.021249
H160	H	1.246422	0.809730	0.478751
N161	N	0.892279	-0.496478	0.111516
N162	N	1.392279	0.003522	0.611516
N163	N	0.891688	-0.533229	0.178557
N164	N	1.391688	-0.033229	0.678557
H165	H	0.892154	-0.503569	0.228667
H166	H	1.392154	-0.003569	0.728667
H167	H	0.800490	0.203757	0.771708
H168	H	1.300490	0.703757	1.271708
N169	N	0.531217	-0.037028	0.002518
N170	N	1.031217	0.462972	0.502518
N171	N	0.574592	-0.100612	0.006885
N172	N	1.074592	0.399388	0.506885
H173	H	0.552693	-0.152950	0.010470
H174	H	1.052693	0.347050	0.510470
N175	N	0.789779	0.214854	0.359604
N176	N	1.289779	0.714854	0.859604
N177	N	0.789792	0.214851	0.434113
N178	N	1.289792	0.714851	0.934113
H179	H	0.752623	0.253589	0.461567
H180	H	1.252623	0.753589	0.961567
N181	N	0.789804	0.214869	0.610890
N182	N	1.289804	0.714869	1.110890
N183	N	0.742850	0.189898	0.566052
N184	N	1.242850	0.689898	1.066052
H185	H	0.705679	0.228636	0.533286
H186	H	1.205679	0.728636	1.033286
N187	N	0.133893	-0.043626	0.002960
N188	N	0.633893	0.456374	0.502960
N189	N	0.177263	-0.107212	0.007325
N190	N	0.677263	0.392788	0.507325
H191	H	0.155359	-0.159548	0.010910
H192	H	0.655359	0.340452	0.510910
N193	N	0.895550	-0.290947	0.166048
N194	N	1.395550	0.209053	0.666048
N195	N	0.894377	-0.364409	0.171083
N196	N	1.394377	0.135591	0.671083
H197	H	0.893891	-0.394099	0.225255
H198	H	1.393891	0.105901	0.725255
N199	N	0.893585	-0.416180	0.102379
N200	N	1.393585	0.083820	0.602379
N201	N	0.947053	-0.414371	0.150643
N202	N	1.447053	0.085629	0.650643
H203	H	0.946583	-0.444057	0.204818
H204	H	1.446583	0.055943	0.704818
H205	H	0.898128	-0.133124	-0.121993
H206	H	1.398128	0.366876	0.378007
N207	N	0.894323	-0.371216	-0.117009
N208	N	1.394323	0.128784	0.382991
N209	N	0.893753	-0.407946	-0.179012
N210	N	1.393753	0.092054	0.320988
H211	H	0.894246	-0.378270	-0.233190
H212	H	1.394246	0.121730	0.266810
N213	N	0.998046	-0.002307	0.205799
N214	N	1.498046	0.497693	0.705799
N215	N	1.044017	-0.050282	0.246355
N216	N	1.544017	0.449718	0.746355
H217	H	1.081144	-0.089081	0.218926
H218	H	1.581144	0.410919	0.718926
H219	H	0.800440	0.203730	0.200313
H220	H	1.300440	0.703730	0.700313
H221	H	0.107180	0.232232	-0.015959
H222	H	0.607180	0.732232	0.484041
H223	H	0.250391	0.234611	-0.016135
H224	H	0.750391	0.734611	0.483865
