data_functionalizedCrystal
_audit_creation_method	'MofGen! by Chris Wilmer'
_symmetry_space_group_name_H-M	'P1'
_symmetry_Int_Tables_number	1
_symmetry_cell_setting	triclinic
loop_
_symmetry_equiv_pos_as_xyz
  x,y,z
_cell_length_a	15.944545
_cell_length_b	15.944551
_cell_length_c	16.776229
_cell_angle_alpha	89.992397
_cell_angle_beta	89.995644
_cell_angle_gamma	83.497455
loop_
_atom_site_label
_atom_site_type_symbol
_atom_site_fract_x
_atom_site_fract_y
_atom_site_fract_z
O1	O	1.114530	0.108309	-0.066238
O2	O	1.614530	0.608309	0.433762
O3	O	0.869980	0.121671	-0.066251
O4	O	1.369980	0.621671	0.433749
O5	O	0.998933	-0.007285	-0.066237
O6	O	1.498933	0.492715	0.433763
O7	O	0.985577	0.237265	-0.066252
O8	O	1.485577	0.737265	0.433748
O9	O	0.998916	-0.007293	0.066339
O10	O	1.498916	0.492707	0.566339
O11	O	0.869963	0.121663	0.066325
O12	O	1.369963	0.621663	0.566325
O13	O	1.114513	0.108301	0.066338
O14	O	1.614513	0.608301	0.566338
Zn15	Zn	0.992235	0.114981	0.087381
Zn16	Zn	1.492235	0.614981	0.587381
Zn17	Zn	0.992258	0.114991	-0.087294
Zn18	Zn	1.492258	0.614991	0.412706
O19	O	0.985560	0.237257	0.066324
O20	O	1.485560	0.737257	0.566324
C21	C	0.838677	0.121113	0.000035
C22	C	1.338677	0.621113	0.500035
C23	C	0.745431	0.119453	0.000030
C24	C	1.245431	0.619453	0.500030
C25	C	0.998370	-0.038583	0.000051
C26	C	1.498370	0.461417	0.500051
C27	C	0.996708	-0.131829	0.000051
C28	C	1.496708	0.368171	0.500051
C29	C	0.474798	0.034559	0.000044
C30	C	0.974798	0.534559	0.500044
C31	C	0.525372	0.075484	0.065411
C32	C	1.025372	0.575484	0.565411
C33	C	0.409787	0.113532	0.000044
C34	C	0.909787	0.613532	0.500044
C35	C	0.525369	0.075513	-0.065299
C36	C	1.025369	0.575513	0.434701
C37	C	0.574701	0.116437	0.000036
C38	C	1.074701	0.616437	0.500036
C39	C	0.459132	0.154436	0.065465
C40	C	0.959132	0.654436	0.565465
C41	C	0.459126	0.154453	-0.065304
C42	C	0.959126	0.654453	0.434696
C43	C	0.509667	0.195436	0.000079
C44	C	1.009667	0.695436	0.500079
C45	C	0.314785	0.111856	0.000050
C46	C	0.814785	0.611856	0.500050
C47	C	0.669700	0.118119	0.000036
C48	C	1.169700	0.618119	0.500036
C49	C	0.912803	-0.346684	0.000036
C50	C	1.412803	0.153316	0.500036
C51	C	0.951758	-0.407706	0.065406
C52	C	1.451758	0.092294	0.565406
C53	C	0.993701	-0.302555	0.000045
C54	C	1.493701	0.197445	0.500045
C55	C	0.951793	-0.407682	-0.065304
C56	C	1.451793	0.092318	0.434696
C57	C	0.990790	-0.467468	0.000036
C58	C	1.490790	0.032532	0.500036
C59	C	1.032677	-0.362349	0.065469
C60	C	1.532677	0.137651	0.565469
C61	C	1.032702	-0.362318	-0.065299
C62	C	1.532702	0.137682	0.434701
C63	C	1.071715	-0.423322	0.000087
C64	C	1.571715	0.076678	0.500087
C65	C	0.995375	-0.207553	0.000051
C66	C	1.495375	0.292447	0.500051
C67	C	0.989122	-0.562469	0.000035
C68	C	1.489122	-0.062469	0.500035
C69	C	1.145816	0.108859	0.000050
C70	C	1.645816	0.608859	0.500050
C71	C	1.239062	0.110519	0.000049
C72	C	1.739062	0.610519	0.500049
C73	C	0.986123	0.268555	0.000034
C74	C	1.486123	0.768555	0.500034
C75	C	0.987785	0.361801	0.000028
C76	C	1.487785	0.861801	0.500028
N77	N	0.992226	0.114973	0.206592
N78	N	1.492226	0.614973	0.706592
N79	N	0.992274	0.114992	-0.206506
N80	N	1.492274	0.614992	0.293494
C81	C	1.049344	0.057895	0.248316
C82	C	1.549344	0.557895	0.748316
C83	C	1.049349	0.057894	0.331768
C84	C	1.549349	0.557894	0.831768
C85	C	0.992239	0.114976	0.373495
C86	C	1.492239	0.614976	0.873495
C87	C	0.935115	0.172057	0.331766
C88	C	1.435115	0.672057	0.831766
C89	C	0.935107	0.172053	0.248315
C90	C	1.435107	0.672053	0.748315
C91	C	0.935145	0.172074	0.668313
C92	C	1.435145	0.672074	1.168313
C93	C	0.935159	0.172075	0.751770
C94	C	1.435159	0.672075	1.251770
C95	C	1.049387	0.057915	0.751766
C96	C	1.549387	0.557915	1.251766
C97	C	1.049379	0.057911	0.668315
C98	C	1.549379	0.557911	1.168315
C99	C	0.992253	0.114988	0.626593
C100	C	1.492253	0.614988	1.126593
C101	C	0.992247	0.114987	0.536105
C102	C	1.492247	0.614987	1.036105
C103	C	0.992248	0.114982	0.463982
C104	C	1.492248	0.614982	0.963982
H105	H	0.459145	-0.033453	0.000112
H106	H	0.959145	0.466547	0.500112
H107	H	0.554295	0.042128	0.120677
H108	H	1.054295	0.542128	0.620677
C109	C	0.872279	0.234850	0.202420
C110	C	1.372279	0.734850	0.702420
N111	N	0.824956	0.282152	0.167853
N112	N	1.324956	0.782152	0.667853
C113	C	0.905561	-0.434811	-0.139963
C114	C	1.405561	0.065189	0.360037
N115	N	0.870733	-0.455241	-0.196194
N116	N	1.370733	0.044759	0.303806
H117	H	0.554294	0.042151	-0.120558
H118	H	1.054294	0.542151	0.379442
H119	H	1.095886	0.011432	0.634343
H120	H	1.595886	0.511432	1.134343
C121	C	1.112221	-0.004880	0.797667
C122	C	1.612221	0.495120	1.297667
N123	N	1.159547	-0.052175	0.832239
N124	N	1.659547	0.447825	1.332239
H125	H	1.066896	-0.342185	-0.120564
H126	H	1.566896	0.157815	0.379436
H127	H	1.095853	0.011415	0.214347
H128	H	1.595853	0.511415	0.714347
H129	H	0.430316	0.187760	0.120787
H130	H	0.930316	0.687760	0.620787
H131	H	0.845655	-0.313375	0.000098
H132	H	1.345655	0.186625	0.500098
C133	C	1.112163	-0.004917	0.377660
C134	C	1.612163	0.495083	0.877660
N135	N	1.159470	-0.052237	0.412225
N136	N	1.659470	0.447763	0.912225
H137	H	0.888650	0.218560	0.785743
H138	H	1.388650	0.718560	1.285743
H139	H	0.917534	-0.427817	0.120668
H140	H	1.417534	0.072183	0.620668
H141	H	0.525159	0.263501	0.000113
H142	H	1.025159	0.763501	0.500113
H143	H	1.066857	-0.342362	0.120795
H144	H	1.566857	0.157638	0.620795
H145	H	0.888611	0.218532	0.365745
H146	H	1.388611	0.718532	0.865745
H147	H	0.430187	0.187780	-0.120572
H148	H	0.930187	0.687780	0.379428
C149	C	1.162505	-0.468129	0.000144
C150	C	1.662505	0.031871	0.500144
N151	N	1.230887	-0.501880	0.000191
N152	N	1.730887	-0.001880	0.500191
C153	C	0.872413	0.234970	0.622430
C154	C	1.372413	0.734970	1.122430
N155	N	0.825199	0.282385	0.587868
N156	N	1.325199	0.782385	1.087868
