data_functionalizedCrystal
_audit_creation_method	'MofGen! by Chris Wilmer'
_symmetry_space_group_name_H-M	'P1'
_symmetry_Int_Tables_number	1
_symmetry_cell_setting	triclinic
loop_
_symmetry_equiv_pos_as_xyz
  x,y,z
_cell_length_a	13.897449
_cell_length_b	12.645330
_cell_length_c	13.897441
_cell_angle_alpha	90.029436
_cell_angle_beta	90.020733
_cell_angle_gamma	90.013926
loop_
_atom_site_label
_atom_site_type_symbol
_atom_site_fract_x
_atom_site_fract_y
_atom_site_fract_z
Zn1	Zn	1.474736	-0.421969	0.545389
Zn2	Zn	1.974736	0.078031	1.045389
Zn3	Zn	1.474645	-0.599265	0.384094
Zn4	Zn	1.974645	-0.099265	0.884094
Zn5	Zn	1.313426	-0.422020	0.384107
Zn6	Zn	1.813426	0.077980	0.884107
Zn7	Zn	1.313421	-0.599195	0.545346
Zn8	Zn	1.813421	-0.099195	1.045346
O9	O	1.394057	-0.510612	0.464734
O10	O	1.894057	-0.010612	0.964734
O11	O	1.609706	-0.445496	0.524005
O12	O	2.109706	0.054504	1.024005
O13	O	1.453222	-0.575803	0.249114
O14	O	1.953222	-0.075803	0.749114
O15	O	1.334864	-0.273666	0.405525
O16	O	1.834864	0.226334	0.905525
O17	O	1.609638	-0.575754	0.405502
O18	O	2.109638	-0.075754	0.905502
O19	O	1.453378	-0.273629	0.524018
O20	O	1.953378	0.226371	1.024018
O21	O	1.334775	-0.445582	0.249124
O22	O	1.834775	0.054418	0.749124
O23	O	1.178443	-0.445514	0.405484
O24	O	1.678443	0.054486	0.905484
O25	O	1.334857	-0.575635	0.680334
O26	O	1.834857	-0.075635	1.180334
O27	O	1.178440	-0.575684	0.523945
O28	O	1.678440	-0.075684	1.023945
O29	O	1.453374	-0.445428	0.680365
O30	O	1.953374	0.054572	1.180365
O31	O	1.453218	-0.747603	0.405461
O32	O	1.953218	-0.247603	0.905461
O33	O	1.334768	-0.747552	0.523932
O34	O	1.834768	-0.247552	1.023932
C35	C	1.143443	-0.510598	0.464712
C36	C	1.643443	-0.010598	0.964712
C37	C	1.036229	-0.510618	0.464726
C38	C	1.536229	-0.010618	0.964726
C39	C	1.394009	-0.786042	0.464711
C40	C	1.894009	-0.286042	0.964711
C41	C	1.394076	-0.903872	0.464734
C42	C	1.894076	-0.403872	0.964734
C43	C	0.839934	-0.510621	0.464751
C44	C	1.339934	-0.010621	0.964751
C45	C	0.949166	-0.510616	0.464734
C46	C	1.449166	-0.010616	0.964734
C47	C	1.468474	-1.071424	0.390052
C48	C	1.968474	-0.571424	0.890052
C49	C	1.468716	-0.948864	0.390235
C50	C	1.968716	-0.448864	0.890235
C51	C	1.421645	-0.948249	0.566410
C52	C	1.921645	-0.448249	1.066410
C53	C	1.422236	-1.070847	0.566014
C54	C	1.922236	-0.570847	1.066014
C55	C	1.292081	-1.071203	0.438741
C56	C	1.792081	-0.571203	0.938741
C57	C	1.292570	-0.948599	0.436461
C58	C	1.792570	-0.448599	0.936461
C59	C	1.645650	-0.510627	0.464757
C60	C	2.145650	-0.010627	0.964757
C61	C	1.752864	-0.510634	0.464766
C62	C	2.252864	-0.010634	0.964766
C63	C	1.394125	-0.510519	0.716327
C64	C	1.894125	-0.010519	1.216327
C65	C	1.394155	-0.510479	0.823541
C66	C	1.894155	-0.010479	1.323541
C67	C	1.394132	-0.234107	0.464778
C68	C	1.894132	0.265893	0.964778
C69	C	1.394164	-0.116277	0.464797
C70	C	1.894164	0.383723	0.964797
C71	C	1.394044	-0.510629	0.214120
C72	C	1.894044	-0.010629	0.714120
C73	C	1.394202	-0.510370	0.106906
C74	C	1.894202	-0.010370	0.606906
C75	C	1.394181	-0.510407	1.019836
C76	C	1.894181	-0.010407	1.519836
C77	C	1.394163	-0.510450	0.910604
C78	C	1.894163	-0.010450	1.410604
H79	H	1.451467	-0.918865	0.314843
H80	H	1.951467	-0.418865	0.814843
C81	C	1.521344	-0.906736	0.596695
C82	C	2.021344	-0.406736	1.096695
H83	H	1.537397	-0.934050	0.658313
H84	H	2.037397	-0.434050	1.158313
H85	H	1.568107	-0.928882	0.551107
H86	H	2.068107	-0.428882	1.051107
H87	H	1.520038	-0.831679	0.599353
H88	H	2.020038	-0.331679	1.099353
C89	C	1.213735	-0.907244	0.504609
C90	C	1.713735	-0.407244	1.004609
H91	H	1.241822	-0.861964	0.551410
H92	H	1.741822	-0.361964	1.051410
H93	H	1.167189	-0.869027	0.468616
H94	H	1.667189	-0.369027	0.968616
H95	H	1.183571	-0.965236	0.535866
H96	H	1.683571	-0.465236	1.035866
H97	H	1.271782	-0.919606	0.361636
H98	H	1.771782	-0.419606	0.861636
H99	H	1.451440	-1.100981	0.314440
H100	H	1.951440	-0.600981	0.814440
C101	C	1.217314	-1.110235	0.512377
C102	C	1.717314	-0.610235	1.012377
H103	H	1.248103	-1.153807	0.558765
H104	H	1.748103	-0.653807	1.058765
H105	H	1.188861	-1.051188	0.543624
H106	H	1.688861	-0.551188	1.043624
H107	H	1.168871	-1.149767	0.480199
H108	H	1.668871	-0.649767	0.980199
H109	H	1.496853	-1.099357	0.588085
H110	H	1.996853	-0.599357	1.088085
C111	C	1.570069	-1.112930	0.413060
C112	C	2.070069	-0.612930	0.913060
H113	H	1.614520	-1.085460	0.367558
H114	H	2.114520	-0.585460	0.867558
H115	H	1.588142	-1.090970	0.475898
H116	H	2.088142	-0.590970	0.975898
H117	H	1.570224	-1.187978	0.409901
H118	H	2.070224	-0.687978	0.909901
C119	C	1.570853	-0.909125	0.413522
C120	C	2.070853	-0.409125	0.913522
H121	H	1.612357	-0.967909	0.422917
H122	H	2.112357	-0.467909	0.922917
H123	H	1.593979	-0.867439	0.361597
H124	H	2.093979	-0.367439	0.861597
H125	H	1.569238	-0.867522	0.470438
H126	H	2.069238	-0.367522	0.970438
C127	C	1.352309	-1.110929	0.643820
C128	C	1.852309	-0.610929	1.143820
H129	H	1.323673	-1.052283	0.675536
H130	H	1.823673	-0.552283	1.175536
H131	H	1.303564	-1.152743	0.614638
H132	H	1.803564	-0.652743	1.114638
H133	H	1.386567	-1.152475	0.689306
H134	H	1.886567	-0.652475	1.189306
H135	H	1.369169	-0.919102	0.623593
H136	H	1.869169	-0.419102	1.123593
C137	C	1.258215	-1.113086	0.340323
C138	C	1.758215	-0.613086	0.840323
H139	H	1.306024	-1.158457	0.314200
H140	H	1.806024	-0.658457	0.814200
H141	H	1.199894	-1.151314	0.348149
H142	H	1.699894	-0.651314	0.848149
H143	H	1.247859	-1.055318	0.297891
H144	H	1.747859	-0.555318	0.797891
