data_functionalizedCrystal
_audit_creation_method	'MofGen! by Chris Wilmer'
_symmetry_space_group_name_H-M	'P1'
_symmetry_Int_Tables_number	1
_symmetry_cell_setting	triclinic
loop_
_symmetry_equiv_pos_as_xyz
  x,y,z
_cell_length_a	16.704579
_cell_length_b	20.016444
_cell_length_c	20.016444
_cell_angle_alpha	90.001375
_cell_angle_beta	62.455538
_cell_angle_gamma	62.461305
loop_
_atom_site_label
_atom_site_type_symbol
_atom_site_fract_x
_atom_site_fract_y
_atom_site_fract_z
Zr1	Zr	0.819016	0.693197	-0.038111
O2	O	0.975109	0.595976	-0.135336
O3	O	0.662923	0.716442	-0.014859
O4	O	0.819023	0.725892	-0.144789
O5	O	0.819003	0.586531	0.104539
O6	O	0.819029	0.835833	-0.144792
O7	O	0.819009	0.586526	-0.005406
O8	O	0.539793	0.818928	0.087629
O9	O	1.098239	0.603436	-0.127882
O10	O	0.727130	0.816327	0.002972
O11	O	0.727122	0.734283	0.085025
O12	O	0.910910	0.745410	-0.067951
O13	O	0.910901	0.663367	0.014102
Zr14	Zr	0.819016	0.868548	0.137234
Zr15	Zr	0.819025	0.868539	-0.038116
Zr16	Zr	0.819007	0.693206	0.137238
Zr17	Zr	1.015393	0.705095	-0.026223
Zr18	Zr	0.622639	0.856650	0.125345
O19	O	0.975109	0.845302	0.113982
O20	O	0.975122	0.845290	-0.135342
O21	O	0.975096	0.595988	0.113988
O22	O	0.662922	0.965768	0.234458
O23	O	0.662936	0.965756	-0.014866
O24	O	0.662909	0.716455	0.234465
O25	O	0.819029	0.975213	-0.005416
O26	O	0.819008	0.835852	0.243912
O27	O	0.819003	0.725912	0.243914
O28	O	0.819023	0.975219	0.104529
O29	O	1.098246	0.742809	-0.127885
O30	O	0.539786	0.818935	0.227008
O31	O	0.539793	0.958309	0.227004
O32	O	0.539801	0.958302	0.087625
O33	O	1.098231	0.603443	0.011498
O34	O	1.098238	0.742816	0.011494
O35	O	0.727122	0.816335	0.167073
O36	O	0.727130	0.898378	0.085021
O37	O	0.910910	0.827461	0.014098
O38	O	0.910901	0.745418	0.096151
C39	C	0.573379	0.765990	0.034691
C40	C	0.490011	0.760939	0.029644
C41	C	0.440357	0.697362	-0.033945
C42	C	0.518684	0.702105	-0.029194
C43	C	0.383002	0.815032	0.083736
C44	C	0.304675	0.810289	0.078984
C45	C	0.333359	0.751452	0.020141
C46	C	0.255030	0.746712	0.015387
C47	C	0.119350	0.859635	0.128319
C48	C	0.197677	0.864379	0.133071
C49	C	0.819004	0.561546	0.049567
C50	C	0.819000	0.487109	0.049569
C51	C	0.723086	0.282911	0.086586
C52	C	0.723080	0.352856	0.086587
C53	C	0.914953	0.278826	0.012532
C54	C	0.914958	0.208882	0.012526
C55	C	0.819021	0.210928	0.049558
C56	C	0.819010	0.350817	0.049565
C57	C	0.819004	0.426655	0.049566
C58	C	0.819027	0.135085	0.049556
C59	C	1.064653	0.795754	0.064432
C60	C	1.148020	0.800805	0.069479
C61	C	0.819028	0.780861	-0.169774
C62	C	0.819032	0.780858	-0.244214
C63	C	0.819027	1.000198	0.049556
C64	C	0.819031	1.074636	0.049554
C65	C	0.914951	0.743853	-0.452492
C66	C	0.914946	0.743860	-0.522434
C67	C	0.723074	0.817896	-0.448378
C68	C	0.723079	0.817894	-0.378438
C69	C	0.819021	0.780868	-0.380498
C70	C	0.819011	0.780876	-0.520379
C71	C	0.819005	0.780884	-0.596213
C72	C	0.819027	0.780862	-0.304660
C73	C	0.819004	0.780883	0.268896
C74	C	0.819000	0.780887	0.343337
C75	C	0.573390	0.985316	0.034685
C76	C	0.490027	1.054703	0.029636
C77	C	0.573367	0.766001	0.254026
C78	C	0.489996	0.760954	0.323419
C79	C	0.573378	0.985327	0.254020
C80	C	0.490011	1.054717	0.323412
C81	C	1.064653	0.576417	-0.154898
C82	C	1.148021	0.507027	-0.224289
C83	C	1.064642	0.576428	0.064437
C84	C	1.148005	0.507042	0.069486
C85	C	1.064665	0.795744	-0.154903
C86	C	1.148036	0.800791	-0.224297
C87	C	0.450879	1.044457	-0.015570
C88	C	0.372561	1.109647	-0.020330
C89	C	0.333387	1.185081	0.020122
C90	C	0.372543	1.195325	0.065331
C91	C	0.450865	1.130137	0.070085
C92	C	0.450844	0.801413	0.398843
C93	C	0.372519	0.796669	0.464053
C94	C	0.333342	0.751468	0.453837
C95	C	0.372501	0.711004	0.378406
C96	C	0.450830	0.715744	0.313198
C97	C	0.450866	1.130137	0.313168
C98	C	0.372544	1.195343	0.378363
C99	C	0.333364	1.185129	0.453800
C100	C	0.372518	1.109702	0.464043
C101	C	0.450843	1.044497	0.398849
C102	C	1.187176	0.431608	-0.214045
C103	C	1.265521	0.366403	-0.279238
C104	C	1.304705	0.376618	-0.354675
C105	C	1.265547	0.452045	-0.364918
C106	C	1.187208	0.517249	-0.299725
C107	C	1.187161	0.517288	0.114686
C108	C	1.265501	0.452099	0.119428
C109	C	1.304677	0.376665	0.078973
C110	C	1.265517	0.366421	0.033768
C111	C	1.187185	0.431609	0.029022
C112	C	1.187188	0.845998	-0.214056
C113	C	1.265514	0.850756	-0.279252
C114	C	1.304691	0.810301	-0.354688
C115	C	1.265531	0.765092	-0.364928
C116	C	1.187202	0.760339	-0.299733
H117	H	0.174337	0.912280	0.180981
H118	H	1.297389	0.887568	-0.270900
H119	H	1.155306	0.423255	-0.007782
C120	C	0.493960	0.961485	-0.060080
N121	N	0.526410	0.898993	-0.093613
H122	H	0.032218	0.903678	0.172363
H123	H	0.644960	0.411465	0.116739
H124	H	0.644962	0.848040	-0.446710
C125	C	1.020499	0.129694	-0.028210
N126	N	1.099990	0.070050	-0.058893
C127	C	0.329390	0.661290	0.367181
N128	N	0.296910	0.623849	0.358728
H129	H	0.644969	0.284580	0.116738
H130	H	0.644957	0.848039	-0.319813
C131	C	1.390872	0.304883	-0.426382
N132	N	1.455769	0.250848	-0.480390
H133	H	0.993072	0.713705	-0.454174
H134	H	0.340690	1.101291	-0.057143
H135	H	0.482754	1.138468	0.251749
C136	C	0.493878	0.671241	0.230232
N137	N	0.526295	0.637720	0.167742
H138	H	0.340606	1.101396	0.525472
C139	C	0.351472	0.879750	0.148455
N140	N	0.327723	0.928499	0.197199
H141	H	0.993062	0.713720	-0.581052
H142	H	0.269587	1.238229	0.506878
C143	C	1.308651	0.463268	-0.447907
N144	N	1.341113	0.471718	-0.510416
C145	C	1.308608	0.283435	-0.010716
N146	N	1.341058	0.220928	-0.044214
C147	C	0.247224	1.256783	0.014890
N148	N	0.182321	1.310786	0.010949
H149	H	1.368460	0.323591	0.082844
H150	H	0.340644	0.829623	0.525466
H151	H	1.297371	0.460455	0.156241
C152	C	0.329433	1.278310	0.109831
N153	N	0.296954	1.340815	0.143353
H154	H	0.482729	1.138489	0.106902
C155	C	1.390858	0.815536	-0.426398
N156	N	1.455761	0.819480	-0.480406
C157	C	1.144102	0.890511	-0.131082
N158	N	1.111649	0.924045	-0.068588
H159	H	0.482733	0.838220	0.407176
C160	C	0.493892	0.961536	0.410130
N161	N	0.526315	0.899051	0.418633
C162	C	1.308579	0.283441	-0.267954
N163	N	1.341008	0.220955	-0.259452
C164	C	1.020477	0.276585	-0.028195
N165	N	1.099960	0.274895	-0.058869
H166	H	0.269561	0.747615	0.506940
C167	C	0.329480	1.278305	0.367078
N168	N	0.297044	1.340791	0.358576
C169	C	1.144095	0.420353	-0.131069
N170	N	1.111657	0.411870	-0.068573
H171	H	1.155329	0.578656	-0.308076
H172	H	1.297442	0.732156	-0.426357
H173	H	1.155333	0.723523	-0.308082
C174	C	0.286583	0.681988	-0.049338
N175	N	0.310354	0.633234	-0.098089
C176	C	0.636385	0.642604	-0.088696
N177	N	0.725040	0.597785	-0.133516
C178	C	0.471906	0.632646	-0.098676
N179	N	0.495672	0.583900	-0.147433
C180	C	1.144087	0.600260	0.159190
N181	N	1.111654	0.662754	0.192708
