data_functionalizedCrystal
_audit_creation_method	'MofGen! by Chris Wilmer'
_symmetry_space_group_name_H-M	'P1'
_symmetry_Int_Tables_number	1
_symmetry_cell_setting	triclinic
loop_
_symmetry_equiv_pos_as_xyz
  x,y,z
_cell_length_a	14.044220
_cell_length_b	14.519709
_cell_length_c	12.996460
_cell_angle_alpha	89.992910
_cell_angle_beta	89.999501
_cell_angle_gamma	88.434511
loop_
_atom_site_label
_atom_site_type_symbol
_atom_site_fract_x
_atom_site_fract_y
_atom_site_fract_z
O1	O	1.258085	0.222370	-0.085462
O2	O	1.591418	0.555703	0.247872
O3	O	1.924752	0.889037	0.581205
O4	O	0.982102	0.214346	-0.085488
O5	O	1.315435	0.547679	0.247846
O6	O	1.648769	0.881013	0.581179
O7	O	1.127411	0.084710	-0.085465
O8	O	1.460744	0.418043	0.247869
O9	O	1.794077	0.751376	0.581202
O10	O	1.112776	0.352006	-0.085485
O11	O	1.446110	0.685340	0.247849
O12	O	1.779443	1.018673	0.581182
O13	O	1.127396	0.084701	0.085669
O14	O	1.460729	0.418034	0.419002
O15	O	1.794062	0.751367	0.752336
O16	O	0.982087	0.214337	0.085646
O17	O	1.315420	0.547670	0.418979
O18	O	1.648754	0.881003	0.752313
O19	O	1.258070	0.222361	0.085672
O20	O	1.591403	0.555694	0.419005
O21	O	1.924736	0.889028	0.752339
Cu22	Cu	1.120077	0.218348	0.101285
Cu23	Cu	1.453410	0.551681	0.434618
Cu24	Cu	1.786744	0.885015	0.767952
Cu25	Cu	1.120095	0.218359	-0.101101
Cu26	Cu	1.453428	0.551692	0.232233
Cu27	Cu	1.786762	0.885025	0.565566
O28	O	1.112761	0.351997	0.085649
O29	O	1.446094	0.685331	0.418982
O30	O	1.779428	1.018664	0.752316
C31	C	1.126721	0.050290	0.000102
C32	C	1.460054	0.383624	0.333436
C33	C	1.793388	0.716957	0.666769
C34	C	1.124677	-0.052256	0.000103
C35	C	1.458011	0.281078	0.333436
C36	C	1.791344	0.614411	0.666769
C37	C	0.946774	0.210829	0.000076
C38	C	1.280107	0.544162	0.333409
C39	C	1.613441	0.877496	0.666743
C40	C	0.841531	0.200352	0.000066
C41	C	1.174864	0.533685	0.333400
C42	C	1.508197	0.867018	0.666733
C43	C	1.117153	-0.427758	0.000075
C44	C	1.450487	-0.094425	0.333409
C45	C	1.783820	0.238908	0.666742
C46	C	1.119243	-0.323282	0.000083
C47	C	1.452576	0.010051	0.333416
C48	C	1.785909	0.343385	0.666750
C49	C	1.120915	-0.240010	0.000090
C50	C	1.454248	0.093323	0.333423
C51	C	1.787582	0.426656	0.666757
C52	C	1.123005	-0.135527	0.000096
C53	C	1.456338	0.197806	0.333429
C54	C	1.789672	0.531139	0.666763
C55	C	0.648837	0.181197	0.000088
C56	C	0.982170	0.514531	0.333422
C57	C	1.315503	0.847864	0.666755
C58	C	0.591329	0.255505	0.000087
C59	C	0.924663	0.588839	0.333420
C60	C	1.257996	0.922172	0.666754
C61	C	0.484108	0.244848	0.000099
C62	C	0.817441	0.578181	0.333433
C63	C	1.150775	0.911514	0.666766
C64	C	0.756068	0.191854	0.000076
C65	C	1.089402	0.525187	0.333409
C66	C	1.422735	0.858520	0.666743
C67	C	1.293398	0.225878	0.000106
C68	C	1.626731	0.559211	0.333439
C69	C	1.960064	0.892545	0.666773
C70	C	1.398641	0.236355	0.000109
C71	C	1.731975	0.569689	0.333442
C72	C	2.065308	0.903022	0.666776
C73	C	1.113451	0.386416	0.000080
C74	C	1.446784	0.719750	0.333413
C75	C	1.780117	1.053083	0.666747
C76	C	1.115494	0.488963	0.000073
C77	C	1.448828	0.822296	0.333406
C78	C	1.782161	1.155629	0.666739
N79	N	1.120071	0.218341	0.243632
N80	N	1.453405	0.551674	0.576965
N81	N	1.786738	0.885007	0.910299
N82	N	1.120108	0.218360	-0.243448
N83	N	1.453441	0.551693	0.089886
N84	N	1.786775	0.885026	0.423219
C85	C	1.120094	0.218360	0.663446
C86	C	1.453427	0.551693	0.996780
C87	C	1.786760	0.885026	1.330113
C88	C	1.120085	0.218357	0.546641
C89	C	1.453418	0.551691	0.879975
C90	C	1.786751	0.885024	1.213308
C91	C	1.120083	0.218351	0.453543
C92	C	1.453416	0.551684	0.786876
C93	C	1.786750	0.885018	1.120210
C94	C	1.120073	0.218347	0.336730
C95	C	1.453406	0.551680	0.670064
C96	C	1.786740	0.885014	1.003397
H97	H	0.622622	0.327127	0.000077
H98	H	0.955955	0.660460	0.333410
H99	H	1.289289	0.993794	0.666743
H100	H	0.617546	0.109582	0.000099
H101	H	0.950879	0.442915	0.333433
H102	H	1.284213	0.776248	0.666766
