data_functionalizedCrystal
_audit_creation_method	'MofGen! by Chris Wilmer'
_symmetry_space_group_name_H-M	'P1'
_symmetry_Int_Tables_number	1
_symmetry_cell_setting	triclinic
loop_
_symmetry_equiv_pos_as_xyz
  x,y,z
_cell_length_a	19.188905
_cell_length_b	19.188930
_cell_length_c	15.455301
_cell_angle_alpha	93.013164
_cell_angle_beta	93.015694
_cell_angle_gamma	83.139668
loop_
_atom_site_label
_atom_site_type_symbol
_atom_site_fract_x
_atom_site_fract_y
_atom_site_fract_z
O1	O	0.928882	0.089809	0.072285
O2	O	1.428882	0.589809	0.572285
O3	O	0.725567	0.101561	0.072256
O4	O	1.225567	0.601561	0.572256
O5	O	0.833091	-0.005972	0.072254
O6	O	1.333091	0.494028	0.572254
O7	O	0.821358	0.197342	0.072287
O8	O	1.321358	0.697342	0.572287
O9	O	0.827642	-0.011413	-0.072010
O10	O	1.327642	0.488587	0.427990
O11	O	0.720118	0.096119	-0.072008
O12	O	1.220118	0.596119	0.427992
O13	O	0.923433	0.084368	-0.071980
O14	O	1.423433	0.584368	0.428020
Cu15	Cu	0.821278	0.089747	-0.085166
Cu16	Cu	1.321278	0.589747	0.414834
Cu17	Cu	0.827722	0.096182	0.085443
Cu18	Cu	1.327722	0.596182	0.585443
O19	O	0.815909	0.191900	-0.071978
O20	O	1.315909	0.691900	0.428022
C21	C	0.696831	0.098462	0.000120
C22	C	1.196831	0.598462	0.500120
C23	C	0.619325	0.097328	0.000109
C24	C	1.119325	0.597328	0.500109
C25	C	0.829986	-0.034704	0.000120
C26	C	1.329986	0.465296	0.500120
C27	C	0.828845	-0.112208	0.000112
C28	C	1.328845	0.387792	0.500112
C29	C	0.585904	0.099750	0.078749
C30	C	1.085904	0.599750	0.578749
C31	C	0.513080	0.098677	0.078760
C32	C	1.013080	0.598677	0.578760
C33	C	0.473683	0.095169	0.000126
C34	C	0.973683	0.595169	0.500126
C35	C	0.507112	0.092751	-0.078526
C36	C	1.007112	0.592751	0.421474
C37	C	0.579933	0.093830	-0.078534
C38	C	1.079933	0.593830	0.421466
N39	N	0.362452	0.051532	-0.058401
N40	N	0.862452	0.551532	0.441599
N41	N	0.293276	0.050505	-0.058388
N42	N	0.793276	0.550505	0.441612
C43	C	0.254277	0.091917	0.000146
C44	C	0.754277	0.591917	0.500146
N45	N	0.287070	0.134385	0.058679
N46	N	0.787070	0.634385	0.558679
N47	N	0.356253	0.135409	0.058668
N48	N	0.856253	0.635409	0.558668
C49	C	0.394720	0.093998	0.000126
C50	C	0.894720	0.593998	0.500126
C51	C	0.141892	0.093176	0.078804
C52	C	0.641892	0.593176	0.578804
C53	C	0.069067	0.092108	0.078811
C54	C	0.569067	0.592108	0.578811
C55	C	0.063101	0.086174	-0.078477
C56	C	0.563101	0.586174	0.421523
C57	C	0.135924	0.087250	-0.078482
C58	C	0.635924	0.587250	0.421518
C59	C	0.175316	0.090748	0.000161
C60	C	0.675316	0.590748	0.500161
C61	C	0.891937	-0.157138	0.000117
C62	C	1.391937	0.342862	0.500117
C63	C	0.890866	-0.229961	0.000130
C64	C	1.390866	0.270039	0.500130
C65	C	0.826699	-0.257852	0.000122
C66	C	1.326699	0.242148	0.500122
C67	C	0.763599	-0.212913	0.000122
C68	C	1.263599	0.287087	0.500122
C69	C	0.764672	-0.140091	0.000117
C70	C	1.264672	0.359909	0.500117
N71	N	0.775796	-0.367705	-0.048981
N72	N	1.275796	0.132295	0.451019
N73	N	0.774781	-0.436883	-0.048978
N74	N	1.274781	0.063117	0.451022
C75	C	0.823461	-0.477260	0.000139
C76	C	1.323461	0.022740	0.500139
N77	N	0.873205	-0.445847	0.049242
N78	N	1.373205	0.054153	0.549242
N79	N	0.874223	-0.376662	0.049235
N80	N	1.374223	0.123338	0.549235
C81	C	0.825528	-0.336814	0.000128
C82	C	1.325528	0.163186	0.500128
C83	C	0.885396	-0.601153	0.000160
C84	C	1.385396	-0.101153	0.500160
C85	C	0.884322	-0.673977	0.000179
C86	C	1.384322	-0.173977	0.500179
C87	C	0.757053	-0.656927	0.000162
C88	C	1.257053	-0.156927	0.500162
C89	C	0.758129	-0.584105	0.000152
C90	C	1.258129	-0.084105	0.500152
C91	C	0.822302	-0.556222	0.000147
C92	C	1.322302	-0.056222	0.500147
C93	C	0.952169	0.087466	0.000158
C94	C	1.452169	0.587466	0.500158
C95	C	1.029675	0.088601	0.000176
C96	C	1.529675	0.588601	0.500176
C97	C	0.819013	0.220632	0.000159
C98	C	1.319013	0.720632	0.500159
C99	C	0.820154	0.298137	0.000172
C100	C	1.320154	0.798137	0.500172
N101	N	0.816750	0.085220	-0.205164
N102	N	1.316750	0.585220	0.294836
C103	C	0.857253	0.125749	-0.250541
C104	C	1.357253	0.625749	0.249459
C105	C	0.853839	0.122321	-0.341351
C106	C	1.353839	0.622321	0.158649
C107	C	0.809917	0.078368	-0.386781
C108	C	1.309917	0.578368	0.113219
C109	C	0.769412	0.037835	-0.341396
C110	C	1.269412	0.537835	0.158604
C111	C	0.772831	0.041260	-0.250589
C112	C	1.272831	0.541260	0.249411
C113	C	0.795169	0.063594	-0.658368
C114	C	1.295169	0.563594	-0.158368
C115	C	0.791752	0.060174	-0.749182
C116	C	1.291752	0.560174	-0.249182
C117	C	0.876179	0.144659	-0.749130
C118	C	1.376179	0.644659	-0.249130
C119	C	0.879591	0.148083	-0.658320
C120	C	1.379591	0.648083	-0.158320
C121	C	0.839089	0.107547	-0.612944
C122	C	1.339089	0.607547	-0.112944
N123	N	0.806424	0.074865	-0.479602
N124	N	1.306424	0.574865	0.020398
N125	N	0.842587	0.111047	-0.520124
N126	N	1.342587	0.611047	-0.020124
N127	N	0.832255	0.100703	0.205440
N128	N	1.332255	0.600703	0.705440
H129	H	0.617972	0.102598	0.142787
H130	H	1.117972	0.602598	0.642787
H131	H	0.909154	0.177661	-0.786085
H132	H	1.409154	0.677661	-0.286085
H133	H	0.706752	-0.547522	0.000143
H134	H	1.206752	-0.047522	0.500143
Br135	Br	0.972485	-0.563308	0.000144
Br136	Br	1.472485	-0.063308	0.500144
H137	H	0.944192	-0.134441	0.000115
H138	H	1.444192	0.365559	0.500115
Br139	Br	0.740173	0.008610	-0.596797
Br140	Br	1.240173	0.508610	-0.096797
H141	H	0.893015	0.161544	-0.213559
H142	H	1.393015	0.661544	0.286441
H143	H	0.739849	0.008257	-0.213643
H144	H	1.239849	0.508257	0.286357
H145	H	0.935701	-0.710558	0.000188
H146	H	1.435701	-0.210558	0.500188
H147	H	0.485863	0.100650	0.142801
H148	H	0.985863	0.600650	0.642801
Br149	Br	0.669967	-0.694771	0.000160
Br150	Br	1.169967	-0.194771	0.500160
H151	H	0.475030	0.089896	-0.142550
H152	H	0.975030	0.589896	0.357450
H153	H	0.733654	0.002044	-0.378393
H154	H	1.233654	0.502044	0.121607
Br155	Br	0.625294	0.090545	-0.185269
Br156	Br	1.125294	0.590545	0.314731
H157	H	0.755982	0.024383	-0.786168
H158	H	1.255982	0.524383	-0.286168
H159	H	0.886822	0.155322	-0.378293
H160	H	1.386822	0.655322	0.121707
H161	H	0.711353	-0.235626	0.000118
H162	H	1.211353	0.264374	0.500118
Br163	Br	0.939166	0.207771	-0.596672
Br164	Br	1.439166	0.707771	-0.096672
H165	H	0.041857	0.094084	0.142852
H166	H	0.541857	0.594084	0.642852
Br167	Br	0.195356	0.097928	0.185530
Br168	Br	0.695356	0.597928	0.685530
H169	H	0.713293	-0.103508	0.000113
H170	H	1.213293	0.396492	0.500113
Br171	Br	0.009640	0.081423	-0.185198
Br172	Br	0.509640	0.581423	0.314802
H173	H	0.163137	0.085274	-0.142520
H174	H	0.663137	0.585274	0.357480
H175	H	0.942244	-0.266549	0.000138
H176	H	1.442244	0.233451	0.500138
