data_functionalizedCrystal
_audit_creation_method	'MofGen! by Chris Wilmer'
_symmetry_space_group_name_H-M	'P1'
_symmetry_Int_Tables_number	1
_symmetry_cell_setting	triclinic
loop_
_symmetry_equiv_pos_as_xyz
  x,y,z
_cell_length_a	13.032831
_cell_length_b	12.645330
_cell_length_c	13.033109
_cell_angle_alpha	97.156412
_cell_angle_beta	76.665514
_cell_angle_gamma	82.822813
loop_
_atom_site_label
_atom_site_type_symbol
_atom_site_fract_x
_atom_site_fract_y
_atom_site_fract_z
Zn1	Zn	1.700119	-0.745257	-0.806444
Zn2	Zn	2.200119	-0.245257	-0.306444
Zn3	Zn	1.677451	-0.896744	-0.628834
Zn4	Zn	2.177451	-0.396744	-0.128834
Zn5	Zn	1.499942	-0.693694	-0.606335
Zn6	Zn	1.999942	-0.193694	-0.106335
Zn7	Zn	1.522466	-0.896651	-0.783878
Zn8	Zn	2.022466	-0.396651	-0.283878
O9	O	1.599995	-0.808086	-0.706373
O10	O	2.099995	-0.308086	-0.206373
O11	O	1.845748	-0.786970	-0.801744
O12	O	2.345748	-0.286970	-0.301744
O13	O	1.634992	-0.848269	-0.477217
O14	O	2.134992	-0.348269	0.022783
O15	O	1.526556	-0.552198	-0.632907
O16	O	2.026556	-0.052198	-0.132907
O17	O	1.829095	-0.898267	-0.671254
O18	O	2.329095	-0.398267	-0.171254
O19	O	1.673625	-0.590081	-0.779927
O20	O	2.173625	-0.090081	-0.279927
O21	O	1.504577	-0.699089	-0.460686
O22	O	2.004577	-0.199089	0.039314
O23	O	1.354294	-0.698999	-0.611026
O24	O	1.854294	-0.198999	-0.111026
O25	O	1.564945	-0.898108	-0.935504
O26	O	2.064945	-0.398108	-0.435504
O27	O	1.370842	-0.848110	-0.741467
O28	O	1.870842	-0.348110	-0.241467
O29	O	1.695465	-0.786880	-0.952083
O30	O	2.195465	-0.286880	-0.452083
O31	O	1.656833	-1.045068	-0.649373
O32	O	2.156833	-0.545068	-0.149373
O33	O	1.542966	-1.044999	-0.763283
O34	O	2.042966	-0.544999	-0.263283
C35	C	1.324028	-0.767950	-0.671357
C36	C	1.824028	-0.267950	-0.171357
C37	C	1.205972	-0.750808	-0.656402
C38	C	1.705972	-0.250808	-0.156402
C39	C	1.161542	-0.817033	-0.714178
C40	C	1.661542	-0.317033	-0.214178
C41	C	1.039525	-0.799318	-0.698723
C42	C	1.539525	-0.299318	-0.198723
C43	C	1.599915	-1.083503	-0.706348
C44	C	2.099915	-0.583503	-0.206348
C45	C	1.599983	-1.201346	-0.706385
C46	C	2.099983	-0.701346	-0.206385
C47	C	1.528720	-1.368997	-0.778342
C48	C	2.028720	-0.868997	-0.278342
C49	C	1.528268	-1.246339	-0.778025
C50	C	2.028268	-0.746339	-0.278025
C51	C	1.555468	-1.225285	-0.590611
C52	C	2.055468	-0.725285	-0.090611
C53	C	1.555032	-1.347884	-0.591047
C54	C	2.055032	-0.847884	-0.091047
C55	C	1.716146	-1.388959	-0.749359
C56	C	2.216146	-0.888959	-0.249359
C57	C	1.715768	-1.266607	-0.751719
C58	C	2.215768	-0.766607	-0.251719
C59	C	1.877039	-0.848381	-0.741526
C60	C	2.377039	-0.348381	-0.241526
C61	C	1.995098	-0.865552	-0.756506
C62	C	2.495098	-0.365552	-0.256506
C63	C	1.635246	-0.848235	-0.983410
C64	C	2.135246	-0.348235	-0.483410
C65	C	1.650268	-0.865344	-1.101467
C66	C	2.150268	-0.365344	-0.601467
C67	C	1.600106	-0.531602	-0.706424
C68	C	2.100106	-0.031602	-0.206424
C69	C	1.600154	-0.413781	-0.706446
C70	C	2.100154	0.086219	-0.206446
C71	C	1.592438	-0.799160	-1.145922
C72	C	2.092438	-0.299160	-0.645922
C73	C	1.607963	-0.816842	-1.267940
C74	C	2.107963	-0.316842	-0.767940
C75	C	1.564942	-0.768027	-0.430421
C76	C	2.064942	-0.268027	0.069579
C77	C	1.550125	-0.750649	-0.312390
C78	C	2.050125	-0.250649	0.187610
H79	H	1.153678	-0.680993	-0.595501
H80	H	1.653678	-0.180993	-0.095501
H81	H	1.711270	-0.935097	-1.153741
H82	H	2.211270	-0.435097	-0.653741
N83	N	1.443645	-1.164355	-0.544213
N84	N	1.943645	-0.664355	-0.044213
H85	H	1.415693	-1.180289	-0.469709
H86	H	1.915693	-0.680289	0.030291
H87	H	1.444780	-1.084336	-0.541320
H88	H	1.944780	-0.584336	-0.041320
H89	H	1.753977	-1.435469	-0.833097
H90	H	2.253977	-0.935469	-0.333097
H91	H	1.531431	-0.729412	-1.093647
H92	H	2.031431	-0.229412	-0.593647
N93	N	1.469326	-0.658242	-1.243153
N94	N	1.969326	-0.158242	-0.743153
H95	H	1.488293	-0.587676	-1.264510
H96	H	1.988293	-0.087676	-0.764510
H97	H	1.395886	-0.666521	-1.252786
H98	H	1.895886	-0.166521	-0.752786
H99	H	1.668969	-0.886600	-1.320210
H100	H	2.168969	-0.386600	-0.820210
H101	H	1.047389	-0.935364	-0.817422
H102	H	1.547389	-0.435364	-0.317422
H103	H	1.213837	-0.886842	-0.775087
H104	H	1.713837	-0.386842	-0.275087
H105	H	1.442564	-1.202240	-0.748472
H106	H	1.942564	-0.702240	-0.248472
N107	N	1.619931	-1.385971	-0.516657
N108	N	2.119931	-0.885971	-0.016657
H109	H	1.648692	-1.323119	-0.483722
H110	H	2.148692	-0.823119	0.016278
H111	H	1.573112	-1.416781	-0.458399
H112	H	2.073112	-0.916781	0.041601
H113	H	1.557766	-1.230990	-0.863426
H114	H	2.057766	-0.730990	-0.363426
N115	N	0.970267	-0.706843	-0.618033
N116	N	1.470267	-0.206843	-0.118033
H117	H	1.016680	-0.665082	-0.581598
H118	H	1.516680	-0.165082	-0.081598
H119	H	0.929772	-0.657494	-0.655562
H120	H	1.429772	-0.157494	-0.155562
N121	N	1.759894	-1.248227	-0.864670
N122	N	2.259894	-0.748227	-0.364670
H123	H	1.762413	-1.168795	-0.865261
H124	H	2.262413	-0.668795	-0.365261
H125	H	1.834352	-1.290459	-0.893340
H126	H	2.334352	-0.790459	-0.393340
H127	H	1.443567	-1.385145	-0.749098
H128	H	1.943567	-0.885145	-0.249098
N129	N	1.567590	-1.427589	-0.891798
N130	N	2.067590	-0.927589	-0.391798
H131	H	1.643661	-1.417305	-0.922078
H132	H	2.143661	-0.917305	-0.422078
H133	H	1.564425	-1.507082	-0.892669
H134	H	2.064425	-1.007082	-0.392669
N135	N	1.442162	-1.365417	-0.545083
N136	N	1.942162	-0.865417	-0.045083
H137	H	1.393157	-1.293590	-0.524730
H138	H	1.893157	-0.793590	-0.024730
H139	H	1.418288	-1.413270	-0.600155
H140	H	1.918288	-0.913270	-0.100155
H141	H	1.605218	-1.195377	-0.534954
H142	H	2.105218	-0.695377	-0.034954
N143	N	1.791498	-1.227689	-0.688918
N144	N	2.291498	-0.727689	-0.188918
H145	H	1.751645	-1.166934	-0.629923
H146	H	2.251645	-0.666934	-0.129923
H147	H	1.822261	-1.289204	-0.656905
H148	H	2.322261	-0.789204	-0.156905
N149	N	1.786879	-1.427571	-0.680231
N150	N	2.286879	-0.927571	-0.180231
H151	H	1.744057	-1.460986	-0.621406
H152	H	2.244057	-0.960986	-0.121406
H153	H	1.848362	-1.483131	-0.725289
H154	H	2.348362	-0.983131	-0.225289
