data_functionalizedCrystal
_audit_creation_method	'MofGen! by Chris Wilmer'
_symmetry_space_group_name_H-M	'P1'
_symmetry_Int_Tables_number	1
_symmetry_cell_setting	triclinic
loop_
_symmetry_equiv_pos_as_xyz
  x,y,z
_cell_length_a	14.044220
_cell_length_b	14.044220
_cell_length_c	13.101039
_cell_angle_alpha	86.332523
_cell_angle_beta	86.340132
_cell_angle_gamma	86.811122
loop_
_atom_site_label
_atom_site_type_symbol
_atom_site_fract_x
_atom_site_fract_y
_atom_site_fract_z
O1	O	1.281968	-0.225348	-0.085109
O2	O	1.005298	-0.217041	-0.085135
O3	O	1.139480	-0.082860	-0.085112
O4	O	1.147787	-0.359530	-0.085132
O5	O	1.129854	-0.092504	0.085316
O6	O	0.995673	-0.226686	0.085293
O7	O	1.272343	-0.234993	0.085319
Zn8	Zn	1.132479	-0.232371	0.112365
Zn9	Zn	1.145162	-0.219663	-0.112181
O10	O	1.138161	-0.369175	0.085296
C11	C	0.964864	-0.218228	0.000076
C12	C	0.858722	-0.207383	0.000066
C13	C	0.664383	-0.187558	0.000088
C14	C	0.613253	-0.264472	0.000087
C15	C	0.505116	-0.253441	0.000099
C16	C	0.772529	-0.198587	0.000076
C17	C	1.131031	-0.052060	0.000102
C18	C	1.120187	0.054083	0.000102
C19	C	1.312777	-0.233806	0.000106
C20	C	1.418920	-0.244651	0.000109
C21	C	1.146610	-0.399974	0.000080
C22	C	1.157455	-0.506116	0.000073
N23	N	1.123831	-0.241043	0.265612
C24	C	1.100362	0.248421	0.000086
C25	C	1.177276	0.299551	0.000090
C26	C	1.166245	0.407688	0.000080
C27	C	1.111391	0.140275	0.000095
N28	N	1.153817	-0.210984	-0.265428
C29	C	1.112065	-0.252851	0.474653
C30	C	1.165580	-0.199179	0.525538
C31	C	1.159034	-0.205749	0.641855
C32	C	1.118610	-0.246282	0.358325
H33	H	0.650693	-0.338605	0.000077
C34	C	0.561679	-0.071517	-0.087521
C35	C	0.613850	-0.087484	0.000088
H36	H	0.530480	-0.009734	-0.087525
H37	H	0.515396	-0.118325	-0.087507
H38	H	0.603786	-0.075650	-0.146947
H39	H	0.571741	-0.083359	0.059515
H40	H	0.660138	-0.040663	0.000084
C41	C	1.050286	-0.314846	0.639219
C42	C	1.043589	-0.321550	0.533764
H43	H	1.008018	-0.357264	0.675719
H44	H	1.033444	-0.251249	0.656738
H45	H	1.113937	-0.331494	0.656720
H46	H	0.979939	-0.304895	0.516262
H47	H	1.060425	-0.385161	0.516238
C48	C	1.322059	0.270539	0.087732
C49	C	1.277355	0.249017	0.000114
H50	H	1.383843	0.239342	0.087744
H51	H	1.284995	0.249237	0.147146
H52	H	1.327671	0.337635	0.087714
H53	H	1.271737	0.181921	0.000135
H54	H	1.314428	0.270313	-0.059316
C55	C	0.994215	0.361022	-0.087528
C56	C	1.000290	0.298959	0.000082
H57	H	0.932437	0.392234	-0.087522
H58	H	1.005045	0.325630	-0.146948
H59	H	1.041034	0.407303	-0.087520
H60	H	0.953475	0.252673	0.000070
H61	H	0.989449	0.334352	0.059517
C62	C	1.227062	-0.136867	0.360970
C63	C	1.233848	-0.130263	0.466426
H64	H	1.269144	-0.094260	0.324477
H65	H	1.163352	-0.120418	0.343581
H66	H	1.244105	-0.200400	0.343331
H67	H	1.216797	-0.066732	0.484067
H68	H	1.297572	-0.146706	0.483822
