data_functionalizedCrystal
_audit_creation_method	'MofGen! by Chris Wilmer'
_symmetry_space_group_name_H-M	'P1'
_symmetry_Int_Tables_number	1
_symmetry_cell_setting	triclinic
loop_
_symmetry_equiv_pos_as_xyz
  x,y,z
_cell_length_a	19.077236
_cell_length_b	29.839131
_cell_length_c	19.076919
_cell_angle_alpha	92.267459
_cell_angle_beta	89.887323
_cell_angle_gamma	92.334053
loop_
_atom_site_label
_atom_site_type_symbol
_atom_site_fract_x
_atom_site_fract_y
_atom_site_fract_z
Zn1	Zn	1.058216	-0.163081	-0.440523
Zn2	Zn	1.558216	0.336919	0.059477
Zn3	Zn	1.062823	-0.235077	-0.323009
Zn4	Zn	1.562823	0.264923	0.176991
Zn5	Zn	0.945432	-0.162845	-0.318303
Zn6	Zn	1.445432	0.337155	0.181697
Zn7	Zn	0.940640	-0.241071	-0.435746
Zn8	Zn	1.440640	0.258929	0.064254
O9	O	1.001778	-0.200519	-0.379395
O10	O	1.501778	0.299481	0.120605
O11	O	1.157162	-0.170222	-0.428903
O12	O	1.657162	0.329778	0.071097
O13	O	1.051185	-0.222889	-0.224054
O14	O	1.551185	0.277111	0.275946
O15	O	0.960471	-0.100008	-0.334546
O16	O	1.460471	0.399992	0.165454
O17	O	1.160547	-0.223117	-0.342566
O18	O	1.660547	0.276883	0.157434
O19	O	1.043333	-0.100181	-0.424341
O20	O	1.543333	0.399819	0.075659
O21	O	0.964938	-0.169820	-0.220597
O22	O	1.464938	0.330180	0.279403
O23	O	0.846462	-0.175632	-0.329914
O24	O	1.346462	0.324368	0.170086
O25	O	0.952303	-0.233332	-0.534710
O26	O	1.452303	0.266668	-0.034710
O27	O	0.842941	-0.233104	-0.416199
O28	O	1.342941	0.266896	0.083801
O29	O	1.038686	-0.176033	-0.538220
O30	O	1.538686	0.323967	-0.038220
O31	O	1.046538	-0.298741	-0.337933
O32	O	1.546538	0.201259	0.162067
O33	O	0.956770	-0.303144	-0.420761
O34	O	1.456770	0.196856	0.079239
C35	C	0.819204	-0.204993	-0.372028
C36	C	1.319204	0.295007	0.127972
C37	C	0.741097	-0.206918	-0.368893
C38	C	1.241097	0.293082	0.131107
C39	C	0.702638	-0.180331	-0.412440
C40	C	1.202638	0.319669	0.087560
C41	C	0.629249	-0.182137	-0.409488
C42	C	1.129249	0.317863	0.090512
C43	C	0.594320	-0.210535	-0.362992
C44	C	1.094320	0.289465	0.137008
C45	C	0.632785	-0.237124	-0.319440
C46	C	1.132785	0.262876	0.180560
C47	C	0.706173	-0.235314	-0.322389
C48	C	1.206173	0.264686	0.177611
C49	C	0.375023	-0.218892	-0.349341
C50	C	0.875023	0.281108	0.150659
C51	C	0.301630	-0.220701	-0.346397
C52	C	0.801630	0.279299	0.153603
C53	C	0.298099	-0.165714	-0.436444
C54	C	0.798099	0.334286	0.063556
C55	C	0.371489	-0.163909	-0.439392
C56	C	0.871489	0.336091	0.060608
C57	C	0.409947	-0.190496	-0.395838
C58	C	0.909947	0.309504	0.104162
N59	N	0.519305	-0.212383	-0.359975
N60	N	1.019305	0.287617	0.140025
N61	N	0.484961	-0.188645	-0.398852
N62	N	0.984961	0.311355	0.101148
C63	C	1.001652	-0.317243	-0.379355
C64	C	1.501652	0.182757	0.120645
C65	C	1.001662	-0.367178	-0.379364
C66	C	1.501662	0.132822	0.120636
C67	C	1.048599	-0.674513	-0.336336
C68	C	1.548599	-0.174513	0.163664
C69	C	1.048685	-0.862185	-0.336367
C70	C	1.548685	-0.362185	0.163633
O71	O	1.088493	-0.884489	-0.299751
O72	O	1.588493	-0.384489	0.200249
N73	N	1.001922	-0.887958	-0.379454
N74	N	1.501922	-0.387958	0.120546
C75	C	0.955137	-0.866811	-0.422541
C76	C	1.455137	-0.366811	0.077459
O77	O	0.915369	-0.893040	-0.459195
O78	O	1.415369	-0.393040	0.040805
C79	C	0.955055	-0.679141	-0.422513
C80	C	1.455055	-0.179141	0.077487
C81	C	1.001816	-0.653369	-0.379417
C82	C	1.501816	-0.153369	0.120583
C83	C	1.095357	-0.648742	-0.293244
C84	C	1.595357	-0.148742	0.206756
C85	C	1.095333	-0.601827	-0.293234
C86	C	1.595333	-0.101827	0.206766
C87	C	1.048550	-0.580683	-0.336316
C88	C	1.548550	-0.080683	0.163684
C89	C	1.001792	-0.606454	-0.379407
C90	C	1.501792	-0.106454	0.120593
C91	C	0.908274	-0.657995	-0.465603
C92	C	1.408274	-0.157995	0.034397
C93	C	0.908259	-0.611074	-0.465593
C94	C	1.408259	-0.111074	0.034407
C95	C	0.955021	-0.585302	-0.422497
C96	C	1.455021	-0.085302	0.077503
C97	C	0.954985	-0.538395	-0.422479
C98	C	1.454985	-0.038395	0.077521
N99	N	1.001748	-0.512622	-0.379391
N100	N	1.501748	-0.012622	0.120609
C101	C	1.048531	-0.533766	-0.336310
C102	C	1.548531	-0.033766	0.163690
C103	C	0.955182	-0.965341	-0.422551
C104	C	1.455182	-0.465341	0.077449
C105	C	0.955201	-1.012259	-0.422557
C106	C	1.455201	-0.512259	0.077443
C107	C	1.048750	-1.007629	-0.336384
C108	C	1.548750	-0.507629	0.163616
C109	C	1.048727	-0.960710	-0.336375
C110	C	1.548727	-0.460710	0.163625
C111	C	1.001945	-0.939568	-0.379463
C112	C	1.501945	-0.439568	0.120537
C113	C	1.048475	-0.435241	-0.336291
C114	C	1.548475	0.064759	0.163709
C115	C	1.048445	-0.388322	-0.336283
C116	C	1.548445	0.111678	0.163717
C117	C	0.954899	-0.392956	-0.422458
C118	C	1.454899	0.107044	0.077542
C119	C	0.954926	-0.439871	-0.422464
C120	C	1.454926	0.060129	0.077536
C121	C	1.001721	-0.461012	-0.379379
C122	C	1.501721	0.038988	0.120621
O123	O	0.915203	-0.516061	-0.459081
O124	O	1.415203	-0.016061	0.040919
O125	O	1.088303	-0.507529	-0.299672
O126	O	1.588303	-0.007529	0.200328
C127	C	1.048624	-0.721428	-0.336346
C128	C	1.548624	-0.221428	0.163654
C129	C	1.001865	-0.747199	-0.379438
C130	C	1.501865	-0.247199	0.120562
C131	C	0.955083	-0.726056	-0.422519
C132	C	1.455083	-0.226056	0.077481
C133	C	1.001885	-0.794117	-0.379444
C134	C	1.501885	-0.294117	0.120556
C135	C	1.048667	-0.815261	-0.336362
C136	C	1.548667	-0.315261	0.163638
C137	C	1.095431	-0.789487	-0.293275
C138	C	1.595431	-0.289487	0.206725
C139	C	1.095406	-0.742572	-0.293265
C140	C	1.595406	-0.242572	0.206735
C141	C	0.908320	-0.751829	-0.465607
C142	C	1.408320	-0.251829	0.034393
C143	C	0.908347	-0.798744	-0.465612
C144	C	1.408347	-0.298744	0.034388
C145	C	0.955130	-0.819888	-0.422531
C146	C	1.455130	-0.319888	0.077469
C147	C	1.185065	-0.196027	-0.386792
C148	C	1.685065	0.303973	0.113208
C149	C	1.263171	-0.194113	-0.389944
C150	C	1.763171	0.305887	0.110056
C151	C	0.994446	-0.205378	-0.562674
C152	C	1.494446	0.294622	-0.062674
C153	C	0.991322	-0.207448	-0.640777
C154	C	1.491322	0.292552	-0.140777
C155	C	1.001922	-0.083338	-0.379452
C156	C	1.501922	0.416662	0.120548
C157	C	1.001984	-0.033403	-0.379476
C158	C	1.501984	0.466597	0.120524
C159	C	1.034827	-0.178590	-0.679298
C160	C	1.534827	0.321410	-0.179298
C161	C	1.031882	-0.180534	-0.752683
C162	C	1.531882	0.319466	-0.252683
C163	C	0.985436	-0.211339	-0.787546
C164	C	1.485436	0.288661	-0.287546
C165	C	0.941927	-0.240198	-0.749019
C166	C	1.441927	0.259802	-0.249019
C167	C	0.944868	-0.238252	-0.675635
C168	C	1.444868	0.261748	-0.175635
C169	C	0.971814	-0.220357	-1.006824
C170	C	1.471814	0.279643	-0.506824
C171	C	0.968877	-0.222303	-1.080214
C172	C	1.468877	0.277697	-0.580214
C173	C	1.058833	-0.162638	-1.083872
C174	C	1.558833	0.337362	-0.583872
C175	C	1.061773	-0.160696	-1.010487
C176	C	1.561773	0.339304	-0.510487
C177	C	1.018260	-0.189553	-0.971966
C178	C	1.518260	0.310447	-0.471966
N179	N	0.982427	-0.213328	-0.862557
N180	N	1.482427	0.286672	-0.362557
N181	N	1.021266	-0.187562	-0.896956
N182	N	1.521266	0.312438	-0.396956
C183	C	1.009122	-0.195645	-0.196831
C184	C	1.509122	0.304355	0.303169
C185	C	1.012382	-0.193445	-0.118735
C186	C	1.512382	0.306555	0.381265
H187	H	0.399923	-0.140787	-0.477257
H188	H	0.899923	0.359213	0.022743
H189	H	0.870224	-0.734618	-0.500690
H190	H	1.370224	-0.234618	-0.000690
C191	C	1.100208	-1.030893	-0.288993
C192	C	1.600208	-0.530893	0.211007
H193	H	1.093521	-1.062525	-0.295176
H194	H	1.593521	-0.562525	0.204824
H195	H	1.091853	-1.022222	-0.241357
H196	H	1.591853	-0.522222	0.258643
H197	H	1.147002	-1.022289	-0.301225
H198	H	1.647002	-0.522289	0.198775
C199	C	1.112857	-0.126808	-0.972139
C200	C	1.612857	0.373192	-0.472139
H201	H	1.108382	-0.129785	-0.922917
H202	H	1.608382	0.370215	-0.422917
H203	H	1.102128	-0.097194	-0.983765
H204	H	1.602128	0.402806	-0.483765
H205	H	1.159585	-0.132547	-0.986070
H206	H	1.659585	0.367453	-0.486070
H207	H	0.936394	-0.243862	-0.975470
H208	H	1.436394	0.256138	-0.475470
H209	H	0.931053	-0.247389	-1.108597
H210	H	1.431053	0.252611	-0.608597
H211	H	0.904107	-0.265279	-0.777410
H212	H	1.404107	0.234721	-0.277410
H213	H	1.086581	-0.452448	-0.301209
H214	H	1.586581	0.047552	0.198791
C215	C	0.856798	-0.587819	-0.512992
C216	C	1.356798	-0.087819	-0.012992
H217	H	0.828953	-0.609890	-0.538653
H218	H	1.328953	-0.109890	-0.038653
H219	H	0.882420	-0.569644	-0.544710
H220	H	1.382420	-0.069644	-0.044710
H221	H	0.827263	-0.569582	-0.484850
H222	H	1.327263	-0.069582	0.015150
C223	C	0.897030	-0.270007	-0.633263
C224	C	1.397030	0.229993	-0.133263
H225	H	0.868956	-0.288637	-0.664535
H226	H	1.368956	0.211363	-0.164535
H227	H	0.867577	-0.252821	-0.603398
H228	H	1.367577	0.247179	-0.103398
H229	H	0.925052	-0.288162	-0.605722
H230	H	1.425052	0.211838	-0.105722
H231	H	0.731072	-0.157208	-0.450304
H232	H	1.231072	0.342792	0.049696
C233	C	0.586947	-0.152892	-0.457391
C234	C	1.086947	0.347108	0.042609
H235	H	0.618260	-0.135725	-0.485510
H236	H	1.118260	0.364275	0.014490
H237	H	0.559406	-0.133283	-0.429420
H238	H	1.059406	0.366717	0.070580
H239	H	0.557085	-0.171627	-0.486808
H240	H	1.057085	0.328373	0.013192
H241	H	0.917085	-0.948130	-0.457640
H242	H	1.417085	-0.448130	0.042360
C243	C	0.903760	-1.040602	-0.469958
C244	C	1.403760	-0.540602	0.030042
H245	H	0.875903	-1.021286	-0.495617
H246	H	1.375903	-0.521286	0.004383
H247	H	0.874245	-1.058970	-0.441827
H248	H	1.374245	-0.558970	0.058173
H249	H	0.929403	-1.059031	-0.501687
H250	H	1.429403	-0.559031	-0.001687
C251	C	1.079754	-0.148802	-0.795057
C252	C	1.579754	0.351198	-0.295057
H253	H	1.071351	-0.154371	-0.843755
H254	H	1.571351	0.345629	-0.343755
H255	H	1.127436	-0.153912	-0.784929
H256	H	1.627436	0.346088	-0.284929
H257	H	1.070002	-0.118544	-0.782636
H258	H	1.570002	0.381456	-0.282636
C259	C	0.903447	-0.369693	-0.469853
C260	C	1.403447	0.130307	0.030147
H261	H	0.875598	-0.391759	-0.495520
H262	H	1.375598	0.108241	0.004480
H263	H	0.929080	-0.351520	-0.501565
H264	H	1.429080	0.148480	-0.001565
H265	H	0.873915	-0.351454	-0.441712
H266	H	1.373915	0.148546	0.058288
C267	C	0.856841	-0.686333	-0.513014
C268	C	1.356841	-0.186333	-0.013014
H269	H	0.828987	-0.667014	-0.538673
H270	H	1.328987	-0.167014	-0.038673
H271	H	0.827322	-0.704702	-0.484889
H272	H	1.327322	-0.204702	0.015111
H273	H	0.882486	-0.704760	-0.544743
H274	H	1.382486	-0.204760	-0.044743
H275	H	0.266779	-0.144068	-0.471903
H276	H	0.766779	0.355932	0.028097
H277	H	0.273193	-0.243828	-0.308534
H278	H	0.773193	0.256172	0.191466
C279	C	0.903490	-0.468220	-0.469867
C280	C	1.403490	0.031780	0.030133
H281	H	0.875627	-0.448906	-0.495525
H282	H	1.375627	0.051094	0.004475
H283	H	0.873979	-0.486592	-0.441739
H284	H	1.373979	0.013408	0.058261
H285	H	0.929138	-0.486645	-0.501597
H286	H	1.429138	0.013355	-0.001597
C287	C	0.594368	-0.268361	-0.268295
C288	C	1.094368	0.231639	0.231705
H289	H	0.627786	-0.283934	-0.242778
H290	H	1.127786	0.216066	0.257222
H291	H	0.564654	-0.289379	-0.293967
H292	H	1.064654	0.210621	0.206033
H293	H	0.566972	-0.251038	-0.236575
H294	H	1.066972	0.248962	0.263425
H295	H	1.094257	-0.139143	-1.115243
H296	H	1.594257	0.360857	-0.615243
H297	H	1.133484	-0.721592	-0.258172
H298	H	1.633484	-0.221592	0.241828
H299	H	1.133521	-0.806711	-0.258194
H300	H	1.633521	-0.306711	0.241806
H301	H	0.737485	-0.256964	-0.286928
H302	H	1.237485	0.243036	0.213072
H303	H	1.133457	-0.665952	-0.258162
H304	H	1.633457	-0.165952	0.241838
C305	C	0.417318	-0.248139	-0.301436
C306	C	0.917318	0.251861	0.198564
H307	H	0.386002	-0.265312	-0.273329
H308	H	0.886002	0.234688	0.226671
H309	H	0.447177	-0.229406	-0.272018
H310	H	0.947177	0.270594	0.227982
H311	H	0.444861	-0.267748	-0.329410
H312	H	0.944861	0.232252	0.170590
H313	H	1.086523	-0.367340	-0.301187
H314	H	1.586523	0.132660	0.198813
C315	C	0.856908	-0.827088	-0.513022
C316	C	1.356908	-0.327088	-0.013022
H317	H	0.829050	-0.807771	-0.538682
H318	H	1.329050	-0.307771	-0.038682
H319	H	0.827393	-0.845459	-0.484897
H320	H	1.327393	-0.345459	0.015103
H321	H	0.882555	-0.845514	-0.544752
H322	H	1.382555	-0.345514	-0.044752
H323	H	1.133412	-0.580846	-0.258144
H324	H	1.633412	-0.080846	0.241856
H325	H	1.086805	-0.939730	-0.301283
H326	H	1.586805	-0.439730	0.198717
C327	C	1.085914	-0.144702	-0.640955
C328	C	1.585914	0.355298	-0.140955
H329	H	1.111396	-0.127791	-0.674410
H330	H	1.611396	0.372209	-0.174410
H331	H	1.117660	-0.160375	-0.613555
H332	H	1.617660	0.339625	-0.113555
H333	H	1.060197	-0.125026	-0.611254
H334	H	1.560197	0.374974	-0.111254
