data_functionalizedCrystal
_audit_creation_method	'MofGen! by Chris Wilmer'
_symmetry_space_group_name_H-M	'P1'
_symmetry_Int_Tables_number	1
_symmetry_cell_setting	triclinic
loop_
_symmetry_equiv_pos_as_xyz
  x,y,z
_cell_length_a	6.817900
_cell_length_b	16.256275
_cell_length_c	16.255661
_cell_angle_alpha	95.350152
_cell_angle_beta	103.488922
_cell_angle_gamma	103.500333
loop_
_atom_site_label
_atom_site_type_symbol
_atom_site_fract_x
_atom_site_fract_y
_atom_site_fract_z
V1	V	-4.026776	-0.117778	-0.264174
O2	O	-4.014188	0.004956	-0.258835
O3	O	-3.978390	-0.232858	-0.262665
O4	O	-3.978337	-0.116275	-0.379253
O5	O	-4.014241	-0.112433	-0.141440
V6	V	-4.510407	-0.103061	-0.249458
O7	O	-4.287797	-0.150061	-0.296455
O8	O	-4.699583	-0.070779	-0.217177
O9	O	-4.335586	0.012018	-0.250967
O10	O	-4.640392	-0.225796	-0.254796
O11	O	-4.640339	-0.108406	-0.372192
O12	O	-4.335639	-0.104564	-0.134378
C13	C	-3.823396	-0.260902	-0.258575
C14	C	-3.865121	-0.354983	-0.258108
C15	C	-4.156068	-0.586814	-0.261383
C16	C	-4.122322	-0.651960	-0.329022
C17	C	-3.941423	-0.527229	-0.257239
C18	C	-4.049504	-0.629721	-0.188785
C19	C	-4.015138	-0.693610	-0.256397
C20	C	-3.907157	-0.591145	-0.324943
C21	C	-3.834331	-0.568892	-0.184644
C22	C	-3.800444	-0.634012	-0.252297
C23	C	-3.898963	-0.431381	-0.257726
C24	C	-4.057586	-0.789457	-0.255916
C25	C	-3.823327	-0.112188	-0.407293
C26	C	-3.865007	-0.111721	-0.501373
C27	C	-3.775560	-0.106138	-0.724178
C28	C	-3.932015	-0.178197	-0.793839
C29	C	-3.941391	-0.110845	-0.673620
C30	C	-3.859225	-0.037961	-0.771594
C31	C	-4.015158	-0.109994	-0.840001
C32	C	-4.097328	-0.182968	-0.742051
C33	C	-4.024476	-0.042668	-0.719790
C34	C	-4.181067	-0.114748	-0.789432
C35	C	-3.898890	-0.111335	-0.577772
C36	C	-4.057676	-0.109510	-0.935848
C37	C	-4.153923	0.040058	-0.255055
C38	C	-4.091435	0.134138	-0.255527
C39	C	-4.153992	-0.108654	-0.106334
C40	C	-4.091551	-0.109117	-0.012253
H41	H	-3.650355	-0.654729	-0.248471
H42	H	-4.244457	-0.688006	-0.390060
C43	C	-4.358609	-0.558626	-0.266687
H44	H	-4.340178	-0.518243	-0.217510
H45	H	-4.390364	-0.533124	-0.316701
H46	H	-4.470239	-0.607128	-0.269110
H47	H	-3.846693	-0.574019	-0.382552
H48	H	-3.758957	0.023306	-0.785046
C49	C	-3.669418	-0.520167	-0.102189
H50	H	-3.719913	-0.533128	-0.053885
H51	H	-3.543619	-0.536986	-0.098461
H52	H	-3.643017	-0.460320	-0.103343
H53	H	-4.110140	-0.646963	-0.131245
H54	H	-3.603804	-0.102591	-0.695688
C55	C	-4.076549	0.034736	-0.676194
H56	H	-4.183081	0.015112	-0.648526
H57	H	-3.954871	0.069093	-0.635070
H58	H	-4.123841	0.067754	-0.718093
H59	H	-3.893373	-0.235496	-0.826072
C60	C	-4.232750	-0.265848	-0.724079
H61	H	-4.205184	-0.265664	-0.664004
H62	H	-4.376358	-0.269087	-0.747007
H63	H	-4.200210	-0.313929	-0.750128
C64	C	-4.413245	-0.119691	-0.827749
H65	H	-4.497803	-0.171216	-0.817870
H66	H	-4.446757	-0.072029	-0.801403
H67	H	-4.438417	-0.118895	-0.887628
