data_functionalizedCrystal
_audit_creation_method	'MofGen! by Chris Wilmer'
_symmetry_space_group_name_H-M	'P1'
_symmetry_Int_Tables_number	1
_symmetry_cell_setting	triclinic
loop_
_symmetry_equiv_pos_as_xyz
  x,y,z
_cell_length_a	12.759401
_cell_length_b	21.295417
_cell_length_c	12.759393
_cell_angle_alpha	89.960633
_cell_angle_beta	90.018567
_cell_angle_gamma	89.965378
loop_
_atom_site_label
_atom_site_type_symbol
_atom_site_fract_x
_atom_site_fract_y
_atom_site_fract_z
Zn1	Zn	1.606103	0.250588	0.593926
Zn2	Zn	1.605933	0.355872	0.418222
Zn3	Zn	1.430405	0.250619	0.418265
Zn4	Zn	1.430330	0.355822	0.593864
O5	O	1.518193	0.303225	0.506070
O6	O	1.753101	0.264563	0.570627
O7	O	1.582610	0.341944	0.271207
O8	O	1.453814	0.162526	0.441611
O9	O	1.752977	0.341914	0.441538
O10	O	1.582899	0.162503	0.570669
O11	O	1.453650	0.264615	0.271239
O12	O	1.283374	0.264566	0.441551
O13	O	1.453686	0.341828	0.740893
O14	O	1.283319	0.341858	0.570562
O15	O	1.582826	0.264514	0.740939
O16	O	1.582537	0.443955	0.441478
O17	O	1.453521	0.443918	0.570520
C18	C	1.245225	0.303211	0.506055
C19	C	1.128449	0.303219	0.506074
C20	C	1.073645	0.263018	0.573394
C21	C	0.963921	0.263030	0.573401
C22	C	0.963814	0.343450	0.438763
C23	C	1.073536	0.343434	0.438752
C24	C	1.073705	0.216591	0.651130
C25	C	0.963981	0.216603	0.651136
C26	C	1.518031	0.466777	0.506010
C27	C	1.518058	0.536745	0.506020
C28	C	1.585228	0.569543	0.573267
C29	C	1.585254	0.635285	0.573291
C30	C	1.518120	0.668228	0.506049
C31	C	1.450937	0.635422	0.438797
C32	C	1.450906	0.569681	0.438783
N33	N	1.510164	0.771497	0.414098
N34	N	1.510200	0.833948	0.414115
C35	C	1.518209	0.866302	0.506089
N36	N	1.526202	0.833846	0.598048
N37	N	1.526171	0.771388	0.598030
C38	C	1.518146	0.739513	0.506057
C39	C	1.585411	0.970385	0.573367
C40	C	1.585429	1.036129	0.573392
C41	C	1.451118	1.036265	0.438889
C42	C	1.451094	0.970522	0.438873
C43	C	1.518246	0.937586	0.506111
C44	C	1.792226	0.303241	0.506085
C45	C	1.909003	0.303247	0.506091
C46	C	1.518266	0.303162	0.780103
C47	C	1.518298	0.303135	0.896880
C48	C	1.518341	1.139035	0.506143
C49	C	1.518294	1.069067	0.506151
C50	C	1.518180	0.303243	0.233102
C51	C	1.518352	0.303093	0.116326
C52	C	1.585550	0.262873	0.951767
C53	C	1.585575	0.262850	1.061492
C54	C	1.451092	0.343356	1.061431
C55	C	1.451063	0.343375	0.951709
C56	C	1.663196	0.216396	0.951803
C57	C	1.663221	0.216373	1.061528
H58	H	1.107760	0.234106	0.728364
H59	H	1.640127	1.062832	0.628158
O60	O	1.113176	0.151987	0.622452
H61	H	1.161523	0.133134	0.687616
O62	O	1.378539	0.670947	0.366256
H63	H	1.389857	0.722172	0.377550
H64	H	0.919091	0.376192	0.383953
H65	H	1.639904	0.542728	0.628018
O66	O	0.924563	0.233982	0.758866
H67	H	0.837573	0.233973	0.758805
H68	H	1.396206	0.542976	0.384021
O69	O	1.657825	0.934854	0.645890
H70	H	1.704527	0.968708	0.692669
H71	H	1.639943	0.661994	0.628063
O72	O	1.378654	0.935141	0.366335
H73	H	1.425697	0.905187	0.312926
O74	O	1.378711	1.071784	0.366355
H75	H	1.390022	1.123009	0.377655
H76	H	1.396296	0.376158	0.907023
H77	H	1.396350	0.376117	1.106086
O78	O	1.634403	0.151824	0.912387
H79	H	1.620318	0.120197	0.980107
O80	O	1.765538	0.239534	0.906698
H81	H	1.819822	0.251784	0.971518
O82	O	1.624717	0.155013	1.106650
H83	H	1.543296	0.146266	1.079739
H84	H	1.744584	0.229431	1.091303
O85	O	1.132643	0.386788	0.366128
H86	H	1.218166	0.380018	0.377419
O87	O	0.918910	0.155236	0.612738
H88	H	0.983748	0.122688	0.592381
