data_functionalizedCrystal
_audit_creation_method	'MofGen! by Chris Wilmer'
_symmetry_space_group_name_H-M	'P1'
_symmetry_Int_Tables_number	1
_symmetry_cell_setting	triclinic
loop_
_symmetry_equiv_pos_as_xyz
  x,y,z
_cell_length_a	17.038272
_cell_length_b	9.016244
_cell_length_c	10.540539
_cell_angle_alpha	90.002288
_cell_angle_beta	92.181476
_cell_angle_gamma	89.998141
loop_
_atom_site_label
_atom_site_type_symbol
_atom_site_fract_x
_atom_site_fract_y
_atom_site_fract_z
O1	O	1.038951	0.123143	-0.275803
O2	O	1.538951	0.623143	0.224197
O3	O	0.811295	0.123187	-0.271424
O4	O	1.311295	0.623187	0.228576
O5	O	0.930317	0.123162	-0.089392
O6	O	1.430317	0.623162	0.410608
O7	O	0.919929	0.123168	-0.457836
O8	O	1.419929	0.623168	0.042164
O9	O	0.930307	-0.123519	-0.089402
O10	O	1.430307	0.376481	0.410598
O11	O	0.811286	-0.123494	-0.271435
O12	O	1.311286	0.376506	0.228565
O13	O	1.038942	-0.123538	-0.275814
O14	O	1.538942	0.376462	0.224186
Cu15	Cu	0.925113	-0.146040	-0.273626
Cu16	Cu	1.425113	0.353960	0.226374
Cu17	Cu	0.925124	0.145689	-0.273613
Cu18	Cu	1.425124	0.645689	0.226387
O19	O	0.919920	-0.123513	-0.457847
O20	O	1.419920	0.376487	0.042153
C21	C	0.782139	-0.000148	-0.267446
C22	C	1.282139	0.499852	0.232554
C23	C	0.695278	-0.000131	-0.255562
C24	C	1.195278	0.499869	0.244438
N25	N	0.925111	-0.351226	-0.273634
N26	N	1.425111	0.148774	0.226366
C27	C	0.861414	-0.414183	-0.370991
C28	C	1.361414	0.085817	0.129009
C29	C	0.861197	-0.586074	-0.370674
C30	C	1.361197	-0.086074	0.129326
C31	C	0.906896	-0.586698	-0.139021
C32	C	1.406896	-0.086698	0.360979
C33	C	0.906426	-0.414754	-0.139606
C34	C	1.406426	0.085246	0.360394
C35	C	1.007236	-0.414578	-0.309673
C36	C	1.507236	0.085422	0.190327
C37	C	1.006715	-0.586535	-0.312601
C38	C	1.506715	-0.086535	0.187399
C39	C	0.645791	-0.000130	-0.364672
C40	C	1.145791	0.499870	0.135328
C41	C	0.564176	-0.000151	-0.353498
C42	C	1.064176	0.499849	0.146502
C43	C	0.532050	-0.000162	-0.233213
C44	C	1.032050	0.499838	0.266787
C45	C	0.581544	-0.000167	-0.124094
C46	C	1.081544	0.499833	0.375906
C47	C	0.663157	-0.000156	-0.135270
C48	C	1.163157	0.499844	0.364730
C49	C	0.286065	-0.000202	-0.193733
C50	C	0.786065	0.499798	0.306267
C51	C	0.204446	-0.000207	-0.182566
C52	C	0.704446	0.499793	0.317434
C53	C	0.187084	-0.000195	-0.411971
C54	C	0.687084	0.499805	0.088029
C55	C	0.268699	-0.000176	-0.423136
C56	C	0.768699	0.499824	0.076864
C57	C	0.318186	-0.000188	-0.314017
C58	C	0.818186	0.499812	0.185983
C59	C	0.448627	-0.000178	-0.221788
C60	C	0.948627	0.499822	0.278212
C61	C	0.401607	-0.000183	-0.325443
C62	C	0.901607	0.499817	0.174557
C63	C	1.068097	-0.000200	-0.279792
C64	C	1.568097	0.499800	0.220208
C65	C	1.154958	-0.000207	-0.291676
C66	C	1.654958	0.499793	0.208324
C67	C	0.929533	-0.000175	-0.042021
C68	C	1.429533	0.499825	0.457979
C69	C	0.927202	-0.000167	0.099144
C70	C	1.427202	0.499833	0.599144
N71	N	0.925132	0.350875	-0.273595
N72	N	1.425132	0.850875	0.226405
C73	C	0.920703	-0.000172	-0.505217
C74	C	1.420703	0.499828	-0.005217
C75	C	0.923034	-0.000171	-0.646382
C76	C	1.423034	0.499829	-0.146382
C77	C	0.837895	0.000404	0.290901
C78	C	1.337895	0.500404	0.790901
C79	C	0.840258	-0.000152	0.144063
C80	C	1.340258	0.499848	0.644063
C81	C	0.969039	-0.141042	0.156893
C82	C	1.469039	0.358958	0.656893
C83	C	0.966071	-0.141160	0.303714
C84	C	1.466071	0.358840	0.803714
C85	C	0.967850	0.139362	0.304079
C86	C	1.467850	0.639362	0.804079
C87	C	0.968651	0.141224	0.157023
C88	C	1.468651	0.641224	0.657023
H89	H	0.872118	-0.628284	-0.470406
H90	H	1.372118	-0.128284	0.029594
Br91	Br	0.497017	-0.000145	-0.501584
Br92	Br	0.997017	0.499855	-0.001584
H93	H	0.671941	-0.000121	-0.462621
H94	H	1.171941	0.499879	0.037379
H95	H	0.800823	-0.370992	-0.347281
H96	H	1.300823	0.129008	0.152719
Br97	Br	0.780709	-0.166499	0.347181
Br98	Br	1.280709	0.333501	0.847181
H99	H	1.032041	0.149718	0.126889
H100	H	1.532041	0.649718	0.626889
Br101	Br	0.980773	-0.345324	-0.014426
Br102	Br	1.480773	0.154676	0.485574
Br103	Br	0.405021	-0.000190	-0.058548
Br104	Br	0.905021	0.499810	0.441452
H105	H	0.294849	-0.000150	-0.521084
H106	H	0.794849	0.499850	-0.021084
H107	H	0.178293	-0.000214	-0.084611
H108	H	0.678293	0.499786	0.415389
H109	H	1.020535	-0.627313	-0.411656
H110	H	1.520535	-0.127313	0.088344
H111	H	0.807100	-0.101293	0.105395
H112	H	1.307100	0.398707	0.605395
Br113	Br	1.086251	-0.346706	-0.191526
Br114	Br	1.586251	0.153294	0.308474
Br115	Br	0.119920	-0.000179	-0.560052
Br116	Br	0.619920	0.499821	-0.060052
H117	H	1.056377	-0.629454	-0.246996
H118	H	1.556377	-0.129454	0.253004
Br119	Br	0.914522	-0.316654	0.355522
Br120	Br	1.414522	0.183346	0.855522
H121	H	0.800270	-0.627225	-0.346667
H122	H	1.300270	-0.127225	0.153333
Br123	Br	1.072520	0.140925	0.373027
Br124	Br	1.572520	0.640925	0.873027
Br125	Br	0.982149	-0.654754	-0.014689
Br126	Br	1.482149	-0.154754	0.485311
H127	H	1.032888	-0.146292	0.128582
H128	H	1.532888	0.353708	0.628582
H129	H	0.847684	-0.629787	-0.108174
H130	H	1.347684	-0.129787	0.391826
H131	H	0.846521	-0.374665	-0.109273
H132	H	1.346521	0.125335	0.390727
H133	H	0.326348	-0.000213	-0.104880
H134	H	0.826348	0.499787	0.395120
Br135	Br	0.785391	0.168165	0.078173
Br136	Br	1.285391	0.668165	0.578173
Br137	Br	0.920591	-0.315760	0.090408
Br138	Br	1.420591	0.184240	0.590408
Br139	Br	0.780652	0.168789	0.343910
Br140	Br	1.280652	0.668789	0.843910
H141	H	0.555381	-0.000196	-0.026155
H142	H	1.055381	0.499804	0.473845
H143	H	0.703449	-0.000156	-0.046420
H144	H	1.203449	0.499844	0.453580
H145	H	0.427768	-0.000182	-0.423379
H146	H	0.927768	0.499818	0.076621
Br147	Br	1.070287	-0.151850	0.373950
Br148	Br	1.570287	0.348150	0.873950
Br149	Br	0.920949	0.317327	0.361033
Br150	Br	1.420949	0.817327	0.861033
H151	H	0.938040	0.245439	0.119025
H152	H	1.438040	0.745439	0.619025
Br153	Br	0.879311	-0.345293	-0.537761
Br154	Br	1.379311	0.154707	-0.037761
H155	H	1.024648	-0.371228	-0.406223
H156	H	1.524648	0.128772	0.093777
