data_functionalizedCrystal
_audit_creation_method	'MofGen! by Chris Wilmer'
_symmetry_space_group_name_H-M	'P1'
_symmetry_Int_Tables_number	1
_symmetry_cell_setting	triclinic
loop_
_symmetry_equiv_pos_as_xyz
  x,y,z
_cell_length_a	10.908937
_cell_length_b	17.019294
_cell_length_c	9.482900
_cell_angle_alpha	95.509088
_cell_angle_beta	83.036371
_cell_angle_gamma	71.768120
loop_
_atom_site_label
_atom_site_type_symbol
_atom_site_fract_x
_atom_site_fract_y
_atom_site_fract_z
O1	O	1.721315	-0.134751	-0.104070
O2	O	2.221315	0.365249	0.395930
O3	O	1.348599	-0.074078	-0.111658
O4	O	1.848599	0.425922	0.388342
O5	O	1.543014	-0.218840	-0.093533
O6	O	2.043014	0.281160	0.406467
O7	O	1.526900	0.010011	-0.122196
O8	O	2.026900	0.510011	0.377804
O9	O	1.503525	-0.189338	0.144566
O10	O	2.003525	0.310662	0.644566
O11	O	1.309111	-0.044576	0.126440
O12	O	1.809111	0.455424	0.626440
O13	O	1.681827	-0.105249	0.134028
O14	O	2.181827	0.394751	0.634028
Cu15	Cu	1.491863	-0.072219	0.151975
Cu16	Cu	1.991863	0.427781	0.651975
Cu17	Cu	1.538563	-0.107108	-0.129605
Cu18	Cu	2.038563	0.392892	0.370395
O19	O	1.487412	0.039513	0.115903
O20	O	1.987412	0.539513	0.615903
C21	C	1.281121	-0.053657	0.006682
C22	C	1.781121	0.446343	0.506682
C23	C	1.138888	-0.036771	0.004571
C24	C	1.638888	0.463229	0.504571
C25	C	0.941715	-0.080943	0.010077
C26	C	1.441715	0.419057	0.510077
C27	C	1.088717	-0.098394	0.012281
C28	C	1.588717	0.401606	0.512281
C29	C	1.521880	-0.232927	0.029125
C30	C	2.021880	0.267073	0.529125
C31	C	1.517724	-0.318854	0.039879
C32	C	2.017724	0.181146	0.539879
C33	C	1.537299	-0.375300	-0.084856
C34	C	2.037299	0.124700	0.415144
C35	C	1.533385	-0.456035	-0.074748
C36	C	2.033385	0.043965	0.425252
C37	C	1.509905	-0.480324	0.060096
C38	C	2.009905	0.019676	0.560096
C39	C	1.490324	-0.423871	0.184840
C40	C	1.990324	0.076129	0.684840
C41	C	1.494229	-0.343136	0.174730
C42	C	1.994229	0.156864	0.674730
C43	C	1.497029	-0.723286	0.097113
C44	C	1.997029	-0.223286	0.597113
C45	C	1.493129	-0.804029	0.107214
C46	C	1.993129	-0.304029	0.607214
C47	C	1.536187	-0.836187	-0.152376
C48	C	2.036187	-0.336187	0.347624
C49	C	1.540098	-0.755450	-0.162473
C50	C	2.040098	-0.255450	0.337527
C51	C	1.520511	-0.699003	-0.037730
C52	C	2.020511	-0.199003	0.462270
C53	C	1.505907	-0.562849	0.070431
C54	C	2.005907	-0.062849	0.570431
C55	C	1.524499	-0.616478	-0.048066
C56	C	2.024499	-0.116478	0.451934
C57	C	1.749305	-0.125671	0.015685
C58	C	2.249305	0.374329	0.515685
C59	C	1.891540	-0.142558	0.017786
C60	C	2.391540	0.357442	0.517786
C61	C	1.508546	0.053600	-0.006758
C62	C	2.008546	0.553600	0.493242
C63	C	1.512704	0.139525	-0.017521
C64	C	2.012704	0.639525	0.482479
N65	N	1.459027	-0.047682	0.350022
N66	N	1.959027	0.452318	0.850022
N67	N	1.571409	-0.131653	-0.327651
N68	N	2.071409	0.368347	0.172349
C69	C	1.528868	-0.099874	0.428757
C70	C	2.028868	0.400126	0.928757
C71	C	1.501557	-0.079453	0.593617
C72	C	2.001557	0.420547	1.093617
H73	H	1.154587	-0.164070	0.020504
H74	H	1.654587	0.335930	0.520504
H75	H	1.549331	-0.501992	-0.176321
H76	H	2.049331	-0.001992	0.323679
H77	H	1.486794	-0.582635	0.180222
H78	H	1.986794	-0.082635	0.680222
H79	H	1.421534	-0.019650	0.648254
H80	H	1.921534	0.480350	1.148254
Cl81	Cl	1.037204	0.064627	-0.008146
Cl82	Cl	1.537204	0.564627	0.491854
H83	H	1.651423	-0.191461	0.617713
H84	H	2.151423	0.308539	1.117713
H85	H	1.379009	0.012118	0.404665
H86	H	1.879009	0.512118	0.904665
H87	H	0.875844	-0.015274	0.001838
H88	H	1.375844	0.484726	0.501838
Cl89	Cl	1.652113	-0.192341	0.344421
Cl90	Cl	2.152113	0.307659	0.844421
Cl91	Cl	0.993233	-0.243953	0.030485
Cl92	Cl	1.493233	0.256047	0.530485
H93	H	1.556426	-0.355532	-0.194661
H94	H	2.056426	0.144468	0.305339
H95	H	1.552132	-0.882154	-0.253935
H96	H	2.052132	-0.382154	0.246065
Cl97	Cl	1.463616	-0.834564	0.276745
Cl98	Cl	1.963616	-0.334564	0.776745
Cl99	Cl	1.569621	-0.724922	-0.331999
Cl100	Cl	2.069621	-0.224922	0.168001
Cl101	Cl	1.472384	-0.652330	0.253935
Cl102	Cl	1.972384	-0.152330	0.753935
H103	H	1.471198	-0.443652	0.294633
H104	H	1.971198	0.056348	0.794633
Cl105	Cl	1.554023	-0.585942	-0.217579
Cl106	Cl	2.054023	-0.085942	0.282421
Cl107	Cl	1.469617	-0.272174	0.331547
Cl108	Cl	1.969617	0.227826	0.831547
