data_functionalizedCrystal
_audit_creation_method	'MofGen! by Chris Wilmer'
_symmetry_space_group_name_H-M	'P1'
_symmetry_Int_Tables_number	1
_symmetry_cell_setting	triclinic
loop_
_symmetry_equiv_pos_as_xyz
  x,y,z
_cell_length_a	13.635800
_cell_length_b	9.582880
_cell_length_c	19.551595
_cell_angle_alpha	102.337569
_cell_angle_beta	101.660503
_cell_angle_gamma	68.792966
loop_
_atom_site_label
_atom_site_type_symbol
_atom_site_fract_x
_atom_site_fract_y
_atom_site_fract_z
V1	V	1.998055	-0.467470	-0.096392
O2	O	2.054279	-0.457675	0.004935
O3	O	1.914121	-0.465135	-0.191421
O4	O	1.994452	-0.670956	-0.094776
O5	O	1.973391	-0.250428	-0.092378
V6	V	2.244940	-0.441405	-0.084288
O7	O	2.117445	-0.524645	-0.122944
O8	O	2.350649	-0.384230	-0.057736
O9	O	2.217272	-0.443740	0.010741
O10	O	2.247415	-0.451200	-0.185615
O11	O	2.328303	-0.658446	-0.088301
O12	O	2.136940	-0.237919	-0.085904
V13	V	2.498055	-0.467470	-0.096392
O14	O	2.554279	-0.457675	0.004935
O15	O	2.414121	-0.465135	-0.191421
O16	O	2.494452	-0.670956	-0.094776
O17	O	2.473391	-0.250428	-0.092378
V18	V	2.744940	-0.441405	-0.084288
O19	O	2.617445	-0.524645	-0.122944
O20	O	2.850649	-0.384230	-0.057736
O21	O	2.717272	-0.443740	0.010741
O22	O	2.747415	-0.451200	-0.185615
O23	O	2.828303	-0.658446	-0.088301
O24	O	2.636940	-0.237919	-0.085904
C25	C	1.923894	-0.720526	-0.091310
C26	C	1.961194	-0.886883	-0.090618
C27	C	1.821423	-0.457982	-0.214591
C28	C	1.793577	-0.457429	-0.292278
C29	C	2.141638	-0.450888	0.033908
C30	C	2.159103	-0.451451	0.111593
C31	C	2.039168	-0.188341	-0.089372
C32	C	1.991488	-0.021982	-0.090061
C33	C	2.321423	-0.457982	-0.214591
C34	C	2.293577	-0.457429	-0.292278
C35	C	1.870063	-0.464679	-0.332319
C36	C	1.843918	-0.464183	-0.405315
C37	C	1.741284	-0.456426	-0.438269
C38	C	1.664794	-0.449180	-0.398223
C39	C	1.690942	-0.449687	-0.325228
C40	C	2.255135	-0.444330	0.151632
C41	C	2.271597	-0.445051	0.224612
C42	C	2.192030	-0.452924	0.257549
C43	C	2.095982	-0.460037	0.217502
C44	C	2.079518	-0.459301	0.144524
C45	C	2.174524	-0.547974	0.364030
C46	C	2.190993	-0.548720	0.437005
C47	C	2.242803	-0.455189	0.482636
C48	C	2.278164	-0.360931	0.455282
C49	C	2.261700	-0.360194	0.382304
C50	C	2.209872	-0.453722	0.336680
C51	C	2.356691	-0.448847	0.601808
C52	C	2.373148	-0.449559	0.674791
C53	C	2.197533	-0.464561	0.667678
C54	C	2.181076	-0.463834	0.594698
C55	C	2.260660	-0.455983	0.561768
C56	C	2.423894	-0.720526	-0.091310
C57	C	2.461194	-0.886883	-0.090618
C58	C	2.641638	-0.450888	0.033908
C59	C	2.659103	-0.451451	0.111593
C60	C	2.539168	-0.188341	-0.089372
C61	C	2.491488	-0.021982	-0.090061
C62	C	2.755111	-0.444205	0.151634
C63	C	2.771529	-0.444709	0.224630
C64	C	2.691940	-0.452470	0.257584
C65	C	2.595922	-0.459711	0.217538
C66	C	2.579503	-0.459196	0.144544
H67	H	1.953636	-0.470986	-0.305497
H68	H	2.102877	-0.469635	0.562098
C69	C	2.478817	-0.441804	0.718827
N70	N	2.558418	-0.435996	0.751994
C71	C	2.110006	-0.473222	0.703904
N72	N	2.044079	-0.479744	0.731193
C73	C	2.152089	-0.652398	0.467089
N74	N	2.122781	-0.730487	0.489746
C75	C	2.117531	-0.650876	0.313842
N76	N	2.074607	-0.728381	0.276041
C77	C	2.342677	-0.435677	0.115414
N78	N	2.408613	-0.429154	0.088133
C79	C	1.551893	-0.440621	-0.434482
N80	N	1.466853	-0.434159	-0.461793
C81	C	2.008456	-0.468693	0.253734
N82	N	1.942527	-0.475205	0.281024
H83	H	2.849717	-0.438814	0.257225
H84	H	1.720006	-0.456014	-0.497707
C85	C	2.377243	-0.437207	0.268663
N86	N	2.456814	-0.431296	0.301841
H87	H	1.906212	-0.470079	-0.437911
C88	C	2.842673	-0.435656	0.115400
N89	N	2.908628	-0.429206	0.088114
H90	H	1.628651	-0.443776	-0.292632
C91	C	2.710013	-0.453017	0.337882
N92	N	2.723631	-0.453425	0.398364
C93	C	2.300584	-0.256499	0.352217
N94	N	2.329868	-0.178388	0.329556
H95	H	2.001319	-0.465111	0.111924
C96	C	2.335154	-0.258034	0.505471
N97	N	2.378080	-0.180537	0.543276
H98	H	2.421492	-0.442447	0.574996
H99	H	2.531126	-0.466028	0.244381
H100	H	2.501325	-0.465110	0.111947
