data_functionalizedCrystal
_audit_creation_method	'MofGen! by Chris Wilmer'
_symmetry_space_group_name_H-M	'P1'
_symmetry_Int_Tables_number	1
_symmetry_cell_setting	triclinic
loop_
_symmetry_equiv_pos_as_xyz
  x,y,z
_cell_length_a	16.992694
_cell_length_b	9.730223
_cell_length_c	10.654551
_cell_angle_alpha	89.995171
_cell_angle_beta	87.576826
_cell_angle_gamma	90.003731
loop_
_atom_site_label
_atom_site_type_symbol
_atom_site_fract_x
_atom_site_fract_y
_atom_site_fract_z
O1	O	1.041838	-0.114109	0.266435
O2	O	0.813537	-0.114150	0.263512
O3	O	0.932936	-0.114125	0.082688
O4	O	0.922439	-0.114133	0.447259
O5	O	0.932931	0.114455	0.082674
O6	O	0.813532	0.114430	0.263498
O7	O	1.041833	0.114471	0.266421
Zn8	Zn	0.927682	0.150743	0.264957
Zn9	Zn	0.927688	-0.150421	0.264976
O10	O	0.922434	0.114447	0.447245
C11	C	0.784301	0.000135	0.259745
C12	C	0.697196	0.000120	0.248526
N13	N	0.927692	-0.355958	0.264979
C14	C	0.932163	0.000162	0.035816
C15	C	0.929856	0.000156	-0.103826
C16	C	0.647545	0.000118	0.356776
C17	C	0.565701	0.000137	0.346227
C18	C	0.533510	0.000148	0.227426
C19	C	0.583168	0.000153	0.119167
C20	C	0.665010	0.000144	0.129718
C21	C	0.289674	0.000186	0.183699
C22	C	0.207825	0.000191	0.173157
C23	C	0.190364	0.000178	0.400218
C24	C	0.272209	0.000160	0.410758
C25	C	0.321860	0.000173	0.302499
N26	N	0.449852	0.000163	0.216640
N27	N	0.405515	0.000167	0.313286
C28	C	1.071069	0.000183	0.270188
C29	C	1.158174	0.000190	0.281408
C30	C	0.980658	-0.571765	0.185069
C31	C	0.980661	-0.427882	0.185083
C32	C	0.874713	-0.427924	0.344858
C33	C	0.874707	-0.571804	0.344837
N34	N	0.927684	0.356279	0.264944
C35	C	0.928776	-0.124445	-0.169416
C36	C	0.926602	-0.124447	-0.300624
C37	C	0.926592	0.124764	-0.300642
C38	C	0.928760	0.124764	-0.169435
C39	C	0.923207	0.000156	0.494117
C40	C	0.925514	0.000154	0.633759
H41	H	0.673748	0.000109	0.453517
H42	H	1.023796	-0.369300	0.120040
F43	F	0.929902	0.257388	-0.099625
H44	H	0.929666	-0.225909	-0.116000
F45	F	0.548906	0.000174	-0.007271
H46	H	0.330091	0.000197	0.095546
H47	H	0.925721	-0.225909	-0.354021
H48	H	0.705436	0.000144	0.041568
F49	F	1.037039	-0.648299	0.100037
H50	H	0.831565	-0.630394	0.409881
H51	H	0.831581	-0.369354	0.409907
H52	H	0.925701	0.226216	-0.354077
F53	F	0.306462	0.000141	0.537202
F54	F	0.137517	0.000167	0.515426
F55	F	0.173568	0.000226	0.046707
F56	F	0.512861	0.000130	0.461443
