data_functionalizedCrystal
_audit_creation_method	'MofGen! by Chris Wilmer'
_symmetry_space_group_name_H-M	'P1'
_symmetry_Int_Tables_number	1
_symmetry_cell_setting	triclinic
loop_
_symmetry_equiv_pos_as_xyz
  x,y,z
_cell_length_a	27.732048
_cell_length_b	27.732048
_cell_length_c	26.210047
_cell_angle_alpha	89.984523
_cell_angle_beta	90.024710
_cell_angle_gamma	97.357345
loop_
_atom_site_label
_atom_site_type_symbol
_atom_site_fract_x
_atom_site_fract_y
_atom_site_fract_z
O1	O	0.057526	-0.640937	0.042369
O2	O	0.066272	-0.500144	0.042385
O3	O	-0.008498	-0.574913	0.042367
O4	O	0.132296	-0.566168	0.042387
O5	O	-0.008518	-0.574886	-0.042491
O6	O	0.066251	-0.500117	-0.042473
O7	O	0.057506	-0.640910	-0.042489
Cu8	Cu	0.061876	-0.570511	-0.050229
Cu9	Cu	0.061901	-0.570543	0.050125
O10	O	0.132275	-0.566141	-0.042471
C11	C	0.066078	-0.482124	-0.000042
C12	C	0.065525	-0.428469	-0.000036
C13	C	-0.026515	-0.574716	-0.000064
C14	C	-0.080170	-0.574164	-0.000068
C15	C	0.057699	-0.658931	-0.000061
C16	C	0.058252	-0.712586	-0.000064
C17	C	-0.418985	-0.614867	-0.000046
C18	C	-0.620645	-0.612816	-0.000039
O19	O	-0.651900	-0.650037	-0.000021
N20	N	-0.639768	-0.568481	-0.000034
C21	C	-0.608474	-0.524656	-0.000028
O22	O	-0.629367	-0.486899	-0.000019
C23	C	-0.406815	-0.526707	-0.000032
C24	C	-0.387694	-0.571045	-0.000042
C25	C	-0.399864	-0.659202	-0.000056
C26	C	-0.349452	-0.659714	-0.000060
C27	C	-0.318161	-0.615892	-0.000056
C28	C	-0.337282	-0.571557	-0.000046
C29	C	-0.375521	-0.482882	-0.000022
C30	C	-0.325104	-0.483399	-0.000022
C31	C	-0.305983	-0.527737	-0.000032
C32	C	-0.255580	-0.528247	-0.000046
N33	N	-0.236456	-0.572583	-0.000051
C34	C	-0.267747	-0.616405	-0.000056
C35	C	-0.714348	-0.523582	-0.000027
C36	C	-0.764762	-0.523069	-0.000027
C37	C	-0.776930	-0.611230	-0.000037
C38	C	-0.726514	-0.611742	-0.000041
C39	C	-0.695224	-0.567917	-0.000032
C40	C	-0.161878	-0.617477	-0.000066
C41	C	-0.111461	-0.617986	-0.000073
C42	C	-0.099298	-0.529825	-0.000060
C43	C	-0.149710	-0.529316	-0.000056
C44	C	-0.180999	-0.573146	-0.000057
O45	O	-0.224296	-0.491047	-0.000059
O46	O	-0.246844	-0.654156	-0.000054
C47	C	-0.469397	-0.614355	-0.000042
C48	C	-0.488518	-0.570021	-0.000033
C49	C	-0.457228	-0.526198	-0.000028
C50	C	-0.538933	-0.569508	-0.000033
C51	C	-0.570223	-0.613330	-0.000037
C52	C	-0.551100	-0.657665	-0.000042
C53	C	-0.500688	-0.658177	-0.000046
C54	C	-0.476351	-0.481863	-0.000023
C55	C	-0.526764	-0.481355	-0.000019
C56	C	-0.558054	-0.525177	-0.000024
C57	C	0.150292	-0.566338	-0.000040
C58	C	0.203947	-0.566891	-0.000032
C59	C	0.106229	-0.089654	-0.000053
C60	C	0.104178	0.112006	-0.000057
O61	O	0.141398	0.143262	-0.000074
N62	N	0.059843	0.131130	-0.000063
C63	C	0.016017	0.099835	-0.000071
O64	O	-0.021740	0.120728	-0.000081
C65	C	0.018068	-0.101824	-0.000069
C66	C	0.062407	-0.120944	-0.000059
C67	C	0.150563	-0.108775	-0.000043
C68	C	0.151075	-0.159187	-0.000039
C69	C	0.107253	-0.190477	-0.000045
C70	C	0.062919	-0.171356	-0.000055
C71	C	-0.025757	-0.133117	-0.000081
C72	C	-0.025240	-0.183534	-0.000082
C73	C	0.019098	-0.202655	-0.000071
C74	C	0.019609	-0.253059	-0.000057
N75	N	0.063944	-0.272183	-0.000051
C76	C	0.107766	-0.240892	-0.000045
C77	C	0.014943	0.205709	-0.000070
C78	C	0.014430	0.256124	-0.000070
C79	C	0.102591	0.268291	-0.000057
C80	C	0.103103	0.217876	-0.000054
C81	C	0.059278	0.186585	-0.000065
C82	C	0.108839	-0.346761	-0.000036
C83	C	0.109347	-0.397178	-0.000030
C84	C	0.021186	-0.409341	-0.000045
C85	C	0.020678	-0.358929	-0.000049
C86	C	0.064508	-0.327639	-0.000046
O87	O	-0.017592	-0.284343	-0.000046
O88	O	0.145518	-0.261794	-0.000047
C89	C	0.105716	-0.039242	-0.000057
C90	C	0.061382	-0.020120	-0.000067
C91	C	0.017560	-0.051411	-0.000073
C92	C	0.060869	0.030294	-0.000066
C93	C	0.104691	0.061585	-0.000060
C94	C	0.149026	0.042461	-0.000054
C95	C	0.149539	-0.007951	-0.000050
C96	C	-0.026775	-0.032287	-0.000078
C97	C	-0.027284	0.018125	-0.000082
C98	C	0.016538	0.049416	-0.000076
N99	N	0.061859	-0.570492	-0.120813
C100	C	0.032762	-0.541439	-0.526792
C101	C	0.032750	-0.541418	-0.313133
O102	O	0.007973	-0.516686	-0.285524
N103	N	0.061865	-0.570510	-0.286397
C104	C	0.090983	-0.599613	-0.313079
O105	O	0.115743	-0.624361	-0.285436
C106	C	0.090992	-0.599636	-0.526737
C107	C	0.061879	-0.570538	-0.553470
C108	C	0.003651	-0.512344	-0.553525
C109	C	0.003656	-0.512348	-0.606937
C110	C	0.032773	-0.541446	-0.633615
C111	C	0.061884	-0.570542	-0.606881
C112	C	0.120107	-0.628741	-0.553418
C113	C	0.120106	-0.628745	-0.606835
C114	C	0.090993	-0.599647	-0.633569
C115	C	0.091006	-0.599644	-0.686971
N116	N	0.061891	-0.570552	-0.713707
C117	C	0.032775	-0.541453	-0.687029
C118	C	0.090977	-0.599598	-0.200906
C119	C	0.090976	-0.599591	-0.147492
C120	C	0.032742	-0.541397	-0.147549
C121	C	0.032746	-0.541401	-0.200965
C122	C	0.061862	-0.570505	-0.227642
C123	C	0.032788	-0.541462	-0.799197
C124	C	0.032798	-0.541467	-0.852613
C125	C	0.091029	-0.599663	-0.852550
C126	C	0.091022	-0.599657	-0.799139
C127	C	0.061898	-0.570555	-0.772463
O128	O	0.115767	-0.624367	-0.714613
O129	O	0.008010	-0.516717	-0.714681
C130	C	0.032757	-0.541436	-0.473380
C131	C	0.061869	-0.570531	-0.446647
C132	C	0.090985	-0.599630	-0.473325
C133	C	0.061867	-0.570524	-0.393233
C134	C	0.032750	-0.541426	-0.366555
C135	C	0.003635	-0.512333	-0.393291
C136	C	0.003640	-0.512337	-0.446702
C137	C	0.120100	-0.628722	-0.446589
C138	C	0.120093	-0.628716	-0.393178
C139	C	0.090976	-0.599617	-0.366499
N140	N	0.061914	-0.570566	0.120709
H141	H	-0.095896	-0.654093	-0.000082
O142	O	-0.024577	-0.483998	-0.527641
C143	C	-0.010843	-0.434842	-0.540730
H144	H	0.028175	-0.429889	-0.555389
H145	H	-0.013497	-0.411069	-0.505622
H146	H	-0.036099	-0.423820	-0.571760
O147	O	0.004487	-0.513147	-0.773368
C148	C	-0.021212	-0.487479	-0.808426
H149	H	-0.001174	-0.484518	-0.846490
H150	H	-0.023947	-0.449488	-0.793016
H151	H	-0.059293	-0.507674	-0.814122
H152	H	0.187180	-0.174750	-0.000030
O153	O	-0.067826	-0.213910	0.000001
C154	C	-0.094762	-0.205289	0.043938
H155	H	-0.069104	-0.187876	0.074659
H156	H	-0.114418	-0.241205	0.058689
H157	H	-0.122545	-0.179816	0.033994
H158	H	0.186251	-0.083302	-0.000039
O159	O	-0.394063	-0.439798	0.000081
C160	C	-0.378006	-0.413126	0.044030
H161	H	-0.367702	-0.439076	0.074739
H162	H	-0.408388	-0.392792	0.058790
H163	H	-0.344947	-0.385942	0.034098
O164	O	0.119354	-0.627943	-0.878392
C165	C	0.145041	-0.653637	-0.843347
H166	H	0.148006	-0.633605	-0.805277
H167	H	0.183030	-0.656359	-0.858764
H168	H	0.124858	-0.691725	-0.837661
O169	O	0.119330	-0.627825	-0.121583
C170	C	0.168489	-0.614057	-0.134610
H171	H	0.170693	-0.595295	-0.173397
H172	H	0.188052	-0.647752	-0.136420
H173	H	0.186475	-0.587993	-0.104548
O174	O	-0.708023	-0.654854	-0.000023
C175	C	-0.746458	-0.693419	-0.000041
H176	H	-0.780604	-0.680132	0.016023
H177	H	-0.736143	-0.724405	0.024594
H178	H	-0.753704	-0.706906	-0.040753
O179	O	-0.783252	-0.479956	-0.000001
C180	C	-0.744818	-0.441391	-0.000009
H181	H	-0.710661	-0.454689	0.016054
H182	H	-0.755115	-0.410421	0.024633
H183	H	-0.737600	-0.427878	-0.040717
H184	H	0.009035	-0.517702	-0.125819
H185	H	-0.688875	-0.487892	-0.000020
H186	H	-0.020067	-0.488642	-0.468464
H187	H	-0.802415	-0.646911	-0.000041
O188	O	0.146216	0.199384	-0.000070
C189	C	0.184781	0.237819	-0.000049
H190	H	0.171485	0.271975	-0.016115
H191	H	0.215754	0.227519	-0.024682
H192	H	0.198288	0.245042	0.040664
H193	H	0.138273	0.293777	-0.000053
O194	O	-0.068796	-0.114492	-0.000161
C195	C	-0.071747	-0.085697	-0.044118
H196	H	-0.033555	-0.072853	-0.058761
H197	H	-0.090768	-0.052827	-0.034241
H198	H	-0.093303	-0.108127	-0.074898
O199	O	-0.294689	-0.440838	0.000076
C200	C	-0.265136	-0.438517	0.044016
H201	H	-0.283767	-0.463388	0.074731
H202	H	-0.259178	-0.399542	0.058775
H203	H	-0.228566	-0.450741	0.034075
H204	H	-0.020071	-0.488637	-0.371560
O205	O	-0.445910	-0.439324	-0.000089
C206	C	-0.416413	-0.436961	-0.044047
H207	H	-0.414145	-0.475305	-0.058702
H208	H	-0.378383	-0.418664	-0.034165
H209	H	-0.432857	-0.415005	-0.074818
H210	H	-0.021674	0.271687	-0.000070
H211	H	0.114735	-0.623344	-0.777372
H212	H	0.143805	-0.652410	-0.371416
O213	O	0.152377	-0.415832	0.000006
C214	C	0.143437	-0.467039	-0.000001
H215	H	0.105626	-0.479158	0.016055
H216	H	0.171787	-0.482313	0.024646
H217	H	0.145667	-0.481053	-0.040709
H218	H	-0.020747	0.180236	-0.000079
O219	O	0.151459	-0.316440	-0.000008
C220	C	0.190694	-0.344137	-0.000009
H221	H	0.178133	-0.381860	0.016053
H222	H	0.221382	-0.325325	0.024635
H223	H	0.204296	-0.347621	-0.040717
H224	H	-0.187348	-0.653168	-0.000065
H225	H	-0.015426	-0.343360	-0.000050
H226	H	-0.014492	-0.434827	-0.000048
H227	H	0.009040	-0.517707	-0.222727
O228	O	0.148414	-0.656920	-0.472557
C229	C	0.181615	-0.627202	-0.503436
H230	H	0.166820	-0.591452	-0.511464
H231	H	0.186874	-0.646597	-0.540984
H232	H	0.217999	-0.619526	-0.482829
O233	O	0.192652	-0.026441	-0.000066
C234	C	0.231215	0.011996	-0.000049
H235	H	0.217916	0.046149	-0.016117
H236	H	0.262188	0.001696	-0.024681
H237	H	0.244723	0.019222	0.040664
H238	H	-0.165279	-0.493213	-0.000062
O239	O	-0.070346	0.036718	-0.000000
C240	C	-0.073272	0.065519	0.043937
H241	H	-0.048097	0.053780	0.074663
H242	H	-0.112262	0.060702	0.058680
H243	H	-0.061826	0.105365	0.033999
H244	H	0.184708	0.067947	-0.000047
H245	H	-0.062462	-0.057760	-0.000085
O246	O	-0.068945	-0.487227	0.000015
C247	C	-0.077534	-0.460310	0.043978
H248	H	-0.115865	-0.472472	0.058626
H249	H	-0.073689	-0.419962	0.034105
H250	H	-0.049995	-0.466728	0.074751
O251	O	-0.330962	-0.702827	-0.000043
C252	C	-0.369399	-0.741390	-0.000058
H253	H	-0.403543	-0.728100	0.016009
H254	H	-0.359085	-0.772377	0.024576
H255	H	-0.376649	-0.754877	-0.040770
O256	O	0.119237	-0.627938	-0.226759
C257	C	0.105497	-0.677099	-0.213697
H258	H	0.086727	-0.679307	-0.174927
H259	H	0.139207	-0.696639	-0.211835
H260	H	0.079448	-0.695105	-0.243767
O261	O	0.148319	-0.657035	-0.527399
C262	C	0.118613	-0.690244	-0.496514
H263	H	0.082851	-0.675468	-0.488532
H264	H	0.138009	-0.695483	-0.458943
H265	H	0.110960	-0.726634	-0.517092
O266	O	-0.430274	-0.701762	0.000029
C267	C	-0.459795	-0.704123	0.043970
H268	H	-0.441145	-0.679271	0.074693
H269	H	-0.465735	-0.743109	0.058714
H270	H	-0.496376	-0.691897	0.034035
O271	O	0.004486	-0.513270	-0.878637
C272	C	-0.028708	-0.542992	-0.909533
H273	H	-0.013912	-0.578744	-0.917516
H274	H	-0.033956	-0.523602	-0.947102
H275	H	-0.065097	-0.550663	-0.888964
O276	O	-0.024701	-0.484142	-0.632880
C277	C	-0.073857	-0.497898	-0.619834
H278	H	-0.078797	-0.536912	-0.605140
H279	H	-0.097621	-0.495264	-0.654972
H280	H	-0.084903	-0.472641	-0.588843
O281	O	0.148318	-0.657073	-0.632772
C282	C	0.118618	-0.690270	-0.663682
H283	H	0.080115	-0.695745	-0.647607
H284	H	0.133813	-0.726567	-0.664263
H285	H	0.117912	-0.675345	-0.704171
O286	O	-0.482198	-0.701290	-0.000030
C287	C	-0.520634	-0.739853	-0.000045
H288	H	-0.554778	-0.726564	0.016022
H289	H	-0.510320	-0.770840	0.024588
H290	H	-0.527885	-0.753339	-0.040757
H291	H	-0.542327	-0.445246	-0.000016
O292	O	-0.581520	-0.700222	0.000045
C293	C	-0.611034	-0.702564	0.043990
H294	H	-0.592370	-0.677715	0.074708
H295	H	-0.616987	-0.741548	0.058741
H296	H	-0.647609	-0.690324	0.034058
