data_functionalizedCrystal
_audit_creation_method	'MofGen! by Chris Wilmer'
_symmetry_space_group_name_H-M	'P1'
_symmetry_Int_Tables_number	1
_symmetry_cell_setting	triclinic
loop_
_symmetry_equiv_pos_as_xyz
  x,y,z
_cell_length_a	19.805407
_cell_length_b	16.959454
_cell_length_c	19.805399
_cell_angle_alpha	90.022387
_cell_angle_beta	90.019573
_cell_angle_gamma	90.020075
loop_
_atom_site_label
_atom_site_type_symbol
_atom_site_fract_x
_atom_site_fract_y
_atom_site_fract_z
Zn1	Zn	1.034765	-0.314700	0.382744
Zn2	Zn	1.368099	0.018633	0.716077
Zn3	Zn	1.701432	0.351967	1.049411
Zn4	Zn	1.034693	-0.446882	0.269566
Zn5	Zn	1.368026	-0.113549	0.602899
Zn6	Zn	1.701359	0.219784	0.936233
Zn7	Zn	0.921580	-0.314722	0.269569
Zn8	Zn	1.254913	0.018612	0.602902
Zn9	Zn	1.588247	0.351945	0.936235
Zn10	Zn	0.921556	-0.446840	0.382713
Zn11	Zn	1.254889	-0.113507	0.716046
Zn12	Zn	1.588223	0.219826	1.049380
O13	O	0.978149	-0.380786	0.326148
O14	O	1.311482	-0.047453	0.659481
O15	O	1.644815	0.285881	0.992815
O16	O	1.129472	-0.332243	0.367743
O17	O	1.462806	0.001091	0.701076
O18	O	1.796139	0.334424	1.034409
O19	O	1.019668	-0.429378	0.174850
O20	O	1.353001	-0.096044	0.508183
O21	O	1.686334	0.237289	0.841516
O22	O	0.936635	-0.204108	0.284596
O23	O	1.269968	0.129225	0.617929
O24	O	1.603302	0.462559	0.951262
O25	O	1.129419	-0.429356	0.284591
O26	O	1.462752	-0.096023	0.617925
O27	O	1.796086	0.237310	0.951258
O28	O	1.019792	-0.204092	0.367745
O29	O	1.353125	0.129241	0.701079
O30	O	1.686458	0.462575	1.034412
O31	O	0.936564	-0.332280	0.174852
O32	O	1.269898	0.001054	0.508185
O33	O	1.603231	0.334387	0.841518
O34	O	0.826860	-0.332239	0.284565
O35	O	1.160194	0.001094	0.617899
O36	O	1.493527	0.334428	0.951232
O37	O	0.936594	-0.429285	0.477434
O38	O	1.269927	-0.095951	0.810767
O39	O	1.603261	0.237382	1.144100
O40	O	0.826843	-0.429306	0.367692
O41	O	1.160176	-0.095973	0.701025
O42	O	1.493509	0.237361	1.034359
O43	O	1.019768	-0.332202	0.477457
O44	O	1.353102	0.001131	0.810790
O45	O	1.686435	0.334465	1.144123
O46	O	1.019645	-0.557488	0.284561
O47	O	1.352978	-0.224154	0.617894
O48	O	1.686311	0.109179	0.951228
O49	O	0.936524	-0.557457	0.367690
O50	O	1.269857	-0.224123	0.701023
O51	O	1.603190	0.109210	1.034356
C52	C	0.802293	-0.380771	0.326126
C53	C	1.135626	-0.047438	0.659459
C54	C	1.468959	0.285896	0.992793
C55	C	0.727061	-0.380783	0.326133
C56	C	1.060394	-0.047450	0.659466
C57	C	1.393727	0.285883	0.992799
C58	C	0.691725	-0.431402	0.369347
C59	C	1.025058	-0.098069	0.702680
C60	C	1.358392	0.235264	1.036013
C61	C	0.621037	-0.431404	0.369356
C62	C	0.954370	-0.098070	0.702690
C63	C	1.287703	0.235263	1.036023
C64	C	0.585685	-0.380790	0.326148
C65	C	0.919018	-0.047456	0.659481
C66	C	1.252352	0.285877	0.992815
C67	C	0.621026	-0.330165	0.282932
C68	C	0.954359	0.003168	0.616265
C69	C	1.287692	0.336501	0.949599
C70	C	0.691713	-0.330160	0.282926
C71	C	1.025046	0.003173	0.616260
C72	C	1.358379	0.336506	0.949593
C73	C	0.335952	-0.330183	0.282954
C74	C	0.669286	0.003151	0.616288
C75	C	1.002619	0.336484	0.949621
C76	C	0.265260	-0.330193	0.282962
C77	C	0.598594	0.003140	0.616295
C78	C	0.931927	0.336474	0.949629
C79	C	0.265276	-0.431426	0.369384
C80	C	0.598609	-0.098093	0.702718
C81	C	0.931943	0.235241	1.036051
C82	C	0.335963	-0.431421	0.369379
C83	C	0.669297	-0.098088	0.702712
C84	C	1.002630	0.235246	1.036045
C85	C	0.371298	-0.380794	0.326166
C86	C	0.704631	-0.047461	0.659499
C87	C	1.037964	0.285873	0.992832
C88	C	0.447946	-0.380792	0.326157
C89	C	0.781279	-0.047459	0.659490
C90	C	1.114613	0.285874	0.992823
C91	C	0.509038	-0.380795	0.326153
C92	C	0.842371	-0.047462	0.659486
C93	C	1.175705	0.285872	0.992820
C94	C	0.978092	-0.586152	0.326136
C95	C	1.311425	-0.252819	0.659470
C96	C	1.644759	0.080514	0.992803
C97	C	0.978130	-0.674009	0.326154
C98	C	1.311463	-0.340676	0.659487
C99	C	1.644796	-0.007342	0.992821
C100	C	0.934930	-1.045498	0.369428
C101	C	1.268264	-0.712165	0.702762
C102	C	1.601597	-0.378832	1.036095
C103	C	1.021555	-1.045470	0.282937
C104	C	1.354889	-0.712137	0.616270
C105	C	1.688222	-0.378804	0.949603
C106	C	1.021532	-0.962925	0.282930
C107	C	1.354865	-0.629591	0.616264
C108	C	1.688199	-0.296258	0.949597
C109	C	0.978206	-0.921662	0.326173
C110	C	1.311539	-0.588328	0.659506
C111	C	1.644873	-0.254995	0.992840
C112	C	0.934904	-0.962945	0.369422
C113	C	1.268237	-0.629611	0.702755
C114	C	1.601571	-0.296278	1.036089
C115	C	1.064828	-0.921635	0.239677
C116	C	1.398162	-0.588302	0.573011
C117	C	1.731495	-0.254969	0.906344
C118	C	1.064806	-0.839085	0.239669
C119	C	1.398139	-0.505751	0.573002
C120	C	1.731473	-0.172418	0.906335
C121	C	1.021483	-0.797820	0.282915
C122	C	1.354816	-0.464487	0.616249
C123	C	1.688150	-0.131153	0.949582
C124	C	0.978180	-0.839108	0.326167
C125	C	1.311513	-0.505775	0.659500
C126	C	1.644846	-0.172442	0.992833
C127	C	0.934854	-0.797845	0.369409
C128	C	1.268187	-0.464512	0.702743
C129	C	1.601521	-0.131179	1.036076
C130	C	0.891553	-0.839132	0.412665
C131	C	1.224887	-0.505799	0.745998
C132	C	1.558220	-0.172465	1.079331
C133	C	0.891581	-0.921680	0.412669
C134	C	1.224914	-0.588347	0.746002
C135	C	1.558248	-0.255014	1.079335
C136	C	1.021455	-0.715272	0.282911
C137	C	1.354789	-0.381938	0.616245
C138	C	1.688122	-0.048605	0.949578
C139	C	0.934827	-0.715292	0.369403
C140	C	1.268161	-0.381959	0.702736
C141	C	1.601494	-0.048625	1.036070
C142	C	1.154691	-0.380802	0.326170
C143	C	1.488025	-0.047468	0.659504
C144	C	1.821358	0.285865	0.992837
C145	C	1.229923	-0.380808	0.326180
C146	C	1.563257	-0.047475	0.659513
C147	C	1.896590	0.285858	0.992846
C148	C	0.978187	-0.380736	0.502691
C149	C	1.311520	-0.047403	0.836024
C150	C	1.644853	0.285930	1.169357
C151	C	0.978203	-0.380715	0.577923
C152	C	1.311536	-0.047382	0.911256
C153	C	1.644869	0.285952	1.244589
C154	C	0.978224	-0.174618	0.326174
C155	C	1.311557	0.158716	0.659508
C156	C	1.644891	0.492049	0.992841
C157	C	0.978256	-0.086761	0.326186
C158	C	1.311589	0.246572	0.659519
C159	C	1.644923	0.579906	0.992852
C160	C	0.978150	-0.380779	0.150292
C161	C	1.311483	-0.047445	0.483625
C162	C	1.644816	0.285888	0.816959
C163	C	0.978265	-0.380577	0.075060
C164	C	1.311598	-0.047244	0.408394
C165	C	1.644931	0.286090	0.741727
C166	C	1.021513	-0.330161	0.613280
C167	C	1.354846	0.003172	0.946613
C168	C	1.688179	0.336505	1.279947
C169	C	1.021520	-0.330138	0.683968
C170	C	1.354853	0.003195	1.017302
C171	C	1.688186	0.336528	1.350635
C172	C	0.978220	-0.380674	0.719298
C173	C	1.311553	-0.047340	1.052632
C174	C	1.644886	0.285993	1.385965
C175	C	0.934905	-0.431230	0.683936
C176	C	1.268238	-0.097896	1.017270
C177	C	1.601572	0.235437	1.350603
C178	C	0.934895	-0.431248	0.613249
C179	C	1.268228	-0.097915	0.946582
C180	C	1.601562	0.235419	1.279916
C181	C	0.934943	-0.431156	0.969010
C182	C	1.268276	-0.097823	1.302343
C183	C	1.601610	0.235511	1.635676
C184	C	0.934958	-0.431135	1.039702
C185	C	1.268291	-0.097802	1.373035
C186	C	1.601624	0.235531	1.706368
C187	C	1.021568	-0.330046	1.039729
C188	C	1.354901	0.003287	1.373062
C189	C	1.688234	0.336620	1.706396
C190	C	1.021558	-0.330065	0.969042
C191	C	1.354891	0.003269	1.302375
C192	C	1.688224	0.336602	1.635709
C193	C	0.978241	-0.380617	0.933686
C194	C	1.311574	-0.047284	1.267019
C195	C	1.644908	0.286049	1.600353
C196	C	0.978233	-0.380641	0.857037
C197	C	1.311566	-0.047307	1.190371
C198	C	1.644900	0.286026	1.523704
C199	C	0.978230	-0.380655	0.795946
C200	C	1.311564	-0.047322	1.129279
C201	C	1.644897	0.286012	1.462612
H202	H	0.720503	-0.472621	0.404530
H203	H	1.053837	-0.139288	0.737863
H204	H	1.387170	0.194046	1.071196
Br205	Br	0.876111	-0.499854	0.565263
Br206	Br	1.209444	-0.166521	0.898597
Br207	Br	1.542778	0.166812	1.231930
Br208	Br	1.123627	-0.977638	0.180998
Br209	Br	1.456960	-0.644304	0.514331
Br210	Br	1.790294	-0.310971	0.847664
Br211	Br	0.573083	-0.500102	0.428008
Br212	Br	0.906417	-0.166768	0.761341
Br213	Br	1.239750	0.166565	1.094675
Br214	Br	0.383937	-0.500119	0.428016
Br215	Br	0.717270	-0.166785	0.761350
Br216	Br	1.050604	0.166548	1.094683
Br217	Br	1.123574	-0.783060	0.180972
Br218	Br	1.456908	-0.449726	0.514305
Br219	Br	1.790241	-0.116393	0.847639
H220	H	1.056707	-0.681660	0.247691
H221	H	1.390040	-0.348327	0.581024
H222	H	1.723373	-0.014993	0.914357
Br223	Br	0.739669	-0.261456	0.224280
Br224	Br	1.073003	0.071877	0.557614
Br225	Br	1.406336	0.405210	0.890947
H226	H	1.056819	-0.288916	0.940280
H227	H	1.390153	0.044417	1.273613
H228	H	1.723486	0.377750	1.606946
Br229	Br	0.832822	-0.977716	0.471366
Br230	Br	1.166155	-0.644383	0.804700
Br231	Br	1.499488	-0.311049	1.138033
H232	H	0.899678	-1.079117	0.404647
H233	H	1.233011	-0.745784	0.737981
H234	H	1.566345	-0.412451	1.071314
H235	H	0.364713	-0.288965	0.247763
H236	H	0.698046	0.044368	0.581096
H237	H	1.031380	0.377702	0.914429
H238	H	0.899695	-0.472289	1.068466
H239	H	1.233028	-0.138955	1.401799
H240	H	1.566361	0.194378	1.735132
H241	H	0.899647	-0.472373	0.712708
H242	H	1.232980	-0.139040	1.046041
H243	H	1.566314	0.194293	1.379374
H244	H	1.056825	-1.079072	0.247726
H245	H	1.390159	-0.745738	0.581060
H246	H	1.723492	-0.412405	0.914393
Br247	Br	0.217283	-0.261498	0.224318
Br248	Br	0.550616	0.071835	0.557651
Br249	Br	0.883950	0.405168	0.890984
H250	H	0.236498	-0.472646	0.404573
H251	H	0.569832	-0.139313	0.737906
H252	H	0.903165	0.194021	1.071240
Br253	Br	0.876031	-0.659298	0.428099
Br254	Br	1.209364	-0.325965	0.761432
Br255	Br	1.542697	0.007368	1.094765
Br256	Br	0.573049	-0.261466	0.224298
Br257	Br	0.906383	0.071867	0.557631
Br258	Br	1.239716	0.405201	0.890964
H259	H	1.056775	-0.289012	0.584519
H260	H	1.390108	0.044321	0.917853
H261	H	1.723441	0.377655	1.251186
Br262	Br	0.832751	-0.783123	0.471344
Br263	Br	1.166085	-0.449789	0.804677
Br264	Br	1.499418	-0.116456	1.138010
H265	H	1.056788	-0.288974	0.712753
H266	H	1.390122	0.044359	1.046086
H267	H	1.723455	0.377692	1.379420
Br268	Br	0.876155	-0.499761	0.921035
Br269	Br	1.209488	-0.166428	1.254369
Br270	Br	1.542821	0.166905	1.587702
Br271	Br	1.080355	-0.261437	1.087716
Br272	Br	1.413689	0.071897	1.421049
Br273	Br	1.747022	0.405230	1.754382
