data_functionalizedCrystal
_audit_creation_method	'MofGen! by Chris Wilmer'
_symmetry_space_group_name_H-M	'P1'
_symmetry_Int_Tables_number	1
_symmetry_cell_setting	triclinic
loop_
_symmetry_equiv_pos_as_xyz
  x,y,z
_cell_length_a	27.732048
_cell_length_b	23.532407
_cell_length_c	22.010155
_cell_angle_alpha	90.000423
_cell_angle_beta	89.989126
_cell_angle_gamma	97.254334
loop_
_atom_site_label
_atom_site_type_symbol
_atom_site_fract_x
_atom_site_fract_y
_atom_site_fract_z
O1	O	0.641035	-0.067758	-0.050565
O2	O	0.500257	-0.078062	-0.050560
O3	O	0.574891	0.010031	-0.050552
O4	O	0.566401	-0.155851	-0.050574
O5	O	0.574878	0.010018	0.050499
O6	O	0.500244	-0.078075	0.050490
O7	O	0.641021	-0.067771	0.050485
Cu8	Cu	0.570631	-0.072924	0.059714
Cu9	Cu	0.570647	-0.072909	-0.059789
O10	O	0.566387	-0.155864	0.050477
C11	C	0.574668	0.031240	-0.000025
C12	C	0.574018	0.094455	-0.000020
C13	C	0.482243	-0.077852	-0.000034
C14	C	0.428587	-0.077201	-0.000031
C15	C	0.659035	-0.067981	-0.000042
C16	C	0.712691	-0.068632	-0.000049
C17	C	1.051433	-0.020675	-0.000022
C18	C	1.253096	-0.023092	-0.000020
O19	O	1.284284	0.020761	0.000012
N20	N	1.272300	-0.075327	-0.000029
C21	C	1.241085	-0.126962	-0.000034
O22	O	1.262046	-0.171447	-0.000035
C23	C	1.039422	-0.124545	-0.000031
C24	C	1.020221	-0.072306	-0.000029
C25	C	1.032231	0.031559	-0.000019
C26	C	0.981818	0.032163	-0.000022
C27	C	0.950607	-0.019468	-0.000029
C28	C	0.969809	-0.071703	-0.000032
C29	C	1.008208	-0.176179	-0.000032
C30	C	0.957790	-0.175570	-0.000030
C31	C	0.938589	-0.123332	-0.000027
C32	C	0.888184	-0.122730	-0.000043
N33	N	0.868980	-0.070495	-0.000034
C34	C	0.900192	-0.018864	-0.000028
C35	C	1.346961	-0.128227	-0.000037
C36	C	1.397376	-0.128832	-0.000038
C37	C	1.409384	-0.024961	-0.000023
C38	C	1.358968	-0.024358	-0.000026
C39	C	1.327757	-0.075992	-0.000028
C40	C	0.794320	-0.017600	-0.000036
C41	C	0.743903	-0.017001	-0.000042
C42	C	0.731899	-0.120871	-0.000054
C43	C	0.782313	-0.121471	-0.000051
C44	C	0.813523	-0.069831	-0.000040
O45	O	0.856968	-0.166560	-0.000068
O46	O	0.879221	0.025614	-0.000013
C47	C	1.101845	-0.021279	-0.000018
C48	C	1.121047	-0.073513	-0.000021
C49	C	1.089836	-0.125144	-0.000028
C50	C	1.171462	-0.074118	-0.000023
C51	C	1.202674	-0.022487	-0.000016
C52	C	1.183470	0.029748	-0.000007
C53	C	1.133057	0.030352	-0.000011
C54	C	1.109040	-0.177380	-0.000037
C55	C	1.159453	-0.177979	-0.000034
C56	C	1.190665	-0.126348	-0.000027
C57	C	0.566610	-0.177073	-0.000051
C58	C	0.567260	-0.240289	-0.000060
N59	N	0.570624	-0.072935	0.143767
C60	C	0.614108	0.493644	-0.000055
C61	C	0.613504	0.553043	-0.000060
O62	O	0.650668	0.589867	-0.000084
N63	N	0.569134	0.575574	-0.000058
C64	C	0.525365	0.538703	-0.000057
O65	O	0.487570	0.563322	-0.000056
C66	C	0.525970	0.479306	-0.000057
C67	C	0.570343	0.456778	-0.000053
C68	C	0.658477	0.471116	-0.000052
C69	C	0.659081	0.411721	-0.000046
C70	C	0.615315	0.374854	-0.000044
C71	C	0.570946	0.397383	-0.000047
C72	C	0.482201	0.442436	-0.000061
C73	C	0.482810	0.383035	-0.000061
C74	C	0.527182	0.360507	-0.000057
C75	C	0.527784	0.301122	-0.000039
N76	N	0.572154	0.278590	-0.000041
C77	C	0.615920	0.315457	-0.000044
C78	C	0.524100	0.663443	-0.000059
C79	C	0.523495	0.722840	-0.000055
C80	C	0.611634	0.737175	-0.000058
C81	C	0.612238	0.677778	-0.000058
C82	C	0.568469	0.640912	-0.000061
C83	C	0.617184	0.190723	-0.000031
C84	C	0.617784	0.131322	-0.000023
C85	C	0.529645	0.116991	-0.000022
C86	C	0.529045	0.176387	-0.000027
C87	C	0.572818	0.213252	-0.000034
O88	O	0.490640	0.264263	-0.000018
O89	O	0.653709	0.290829	-0.000052
N90	N	0.570659	-0.072894	-0.143842
C91	C	0.603697	-0.033907	0.563550
C92	C	0.603699	-0.033903	0.627157
O93	O	0.631800	-0.000727	0.660052
N94	N	0.570647	-0.072897	0.658974
C95	C	0.537587	-0.111893	0.627179
O96	O	0.509474	-0.145060	0.660083
C97	C	0.537583	-0.111894	0.563573
C98	C	0.570641	-0.072901	0.531760
C99	C	0.636752	0.005083	0.531737
C100	C	0.636750	0.005078	0.468133
C101	C	0.603694	-0.033916	0.436343
C102	C	0.570639	-0.072906	0.468157
C103	C	0.504521	-0.150888	0.531780
C104	C	0.504520	-0.150885	0.468169
C105	C	0.537577	-0.111892	0.436356
C106	C	0.537581	-0.111906	0.372763
N107	N	0.570633	-0.072912	0.340947
C108	C	0.603689	-0.033917	0.372737
C109	C	0.537598	-0.111888	0.760757
C110	C	0.537604	-0.111891	0.824363
C111	C	0.603716	-0.033899	0.824336
C112	C	0.603712	-0.033900	0.760730
C113	C	0.570650	-0.072894	0.728941
C114	C	0.603683	-0.033930	0.239166
C115	C	0.603680	-0.033940	0.175557
C116	C	0.537567	-0.111929	0.175589
C117	C	0.537572	-0.111922	0.239192
C118	C	0.570632	-0.072918	0.270979
O119	O	0.509493	-0.145063	0.339829
O120	O	0.631794	-0.000751	0.339826
H121	H	0.728272	0.025540	-0.000042
H122	H	1.208891	0.071788	-0.000005
H123	H	0.477595	-0.182638	0.442290
H124	H	0.630630	-0.002148	0.734831
H125	H	0.487362	0.741176	-0.000047
H126	H	1.413005	-0.171370	-0.000049
C127	C	0.434663	0.342485	-0.000061
H128	H	0.408153	0.364413	-0.000059
H129	H	0.433071	0.319013	-0.035297
H130	H	0.433059	0.319019	0.035184
C131	C	0.640073	0.009000	0.859313
H132	H	0.635334	0.003418	0.901750
H133	H	0.672304	0.003083	0.848885
H134	H	0.635001	0.046969	0.848890
H135	H	0.663670	0.036840	0.557614
C136	C	0.433391	0.467203	-0.000070
H137	H	0.407417	0.436733	-0.000077
H138	H	0.431309	0.490078	0.035165
H139	H	0.431329	0.490072	-0.035316
H140	H	1.117428	0.072890	-0.000009
H141	H	0.797947	-0.164008	-0.000054
H142	H	0.706478	-0.162908	-0.000063
C143	C	0.468161	-0.193785	0.566761
H144	H	0.448474	-0.217003	0.538709
H145	H	0.485434	-0.217354	0.591566
H146	H	0.448135	-0.173463	0.591580
H147	H	0.647270	0.767203	-0.000063
C148	C	0.666596	0.106545	-0.000022
H149	H	0.692573	0.137011	-0.000031
H150	H	0.668661	0.083673	0.035218
H151	H	0.668668	0.083671	-0.035264
C152	C	0.481506	0.076434	-0.000023
H153	H	0.454991	0.098354	-0.000023
H154	H	0.479920	0.052965	-0.035261
H155	H	0.479904	0.052965	0.035220
C156	C	1.443722	0.031831	-0.000011
H157	H	1.476496	0.023985	-0.000007
H158	H	1.437938	0.053281	-0.035243
H159	H	1.437923	0.053259	0.035239
C160	C	0.960703	0.089626	-0.000008
H161	H	0.986518	0.120284	0.000003
H162	H	0.941291	0.092034	-0.035244
H163	H	0.941283	0.092014	0.035238
C164	C	0.923461	-0.232370	-0.000038
H165	H	0.942120	-0.263564	-0.000045
H166	H	0.903535	-0.234301	0.035198
H167	H	0.903553	-0.234289	-0.035284
H168	H	0.510658	-0.143679	0.265095
H169	H	0.492913	0.194730	-0.000013
C170	C	0.640043	0.008956	0.140566
H171	H	0.659726	0.032183	0.168612
H172	H	0.660065	-0.011367	0.115748
H173	H	0.622766	0.032524	0.115758
C174	C	0.501234	-0.154792	0.725795
H175	H	0.481556	-0.178016	0.753858
H176	H	0.481208	-0.134475	0.700986
H177	H	0.518509	-0.178363	0.700980
C178	C	0.828644	0.039202	-0.000032
H179	H	0.809981	0.070394	-0.000038
H180	H	0.848557	0.041131	0.035205
H181	H	0.848564	0.041129	-0.035277
C182	C	0.665333	0.231265	-0.000033
H183	H	0.691841	0.209334	-0.000024
H184	H	0.666942	0.254735	-0.035272
H185	H	0.666925	0.254734	0.035210
C186	C	1.180569	-0.235445	-0.000035
H187	H	1.154756	-0.266106	-0.000034
H188	H	1.199995	-0.237844	-0.035270
H189	H	1.199976	-0.237842	0.035212
H190	H	0.630604	-0.002169	0.265039
C191	C	0.673108	0.047977	0.433147
H192	H	0.692789	0.071203	0.461197
H193	H	0.693133	0.027660	0.408325
H194	H	0.655830	0.071547	0.408343
H195	H	0.510690	-0.143648	0.850260
C196	C	1.074714	-0.234177	-0.000050
H197	H	1.093376	-0.265369	-0.000059
H198	H	1.054787	-0.236113	0.035185
H199	H	1.054807	-0.236095	-0.035296
C200	C	0.707890	0.386945	-0.000045
H201	H	0.701988	0.346289	-0.000038
H202	H	0.725902	0.399627	-0.035284
H203	H	0.725890	0.399629	0.035197
H204	H	0.488456	0.633430	-0.000056
C205	C	0.501204	-0.154816	0.140612
H206	H	0.505936	-0.149226	0.098175
H207	H	0.506262	-0.192788	0.151030
H208	H	0.468975	-0.148882	0.151045
H209	H	1.057639	0.073606	-0.000011
H210	H	0.648370	0.659440	-0.000055
C211	C	0.706622	0.511663	-0.000056
H212	H	0.699916	0.550268	-0.000061
H213	H	0.724822	0.504869	0.035182
H214	H	0.724830	0.504869	-0.035300
C215	C	1.337851	0.033104	-0.000017
H216	H	1.363664	0.063764	-0.000010
H217	H	1.318437	0.035507	-0.035253
H218	H	1.318431	0.035496	0.035228
H219	H	1.321553	-0.170277	-0.000039
H220	H	1.023832	-0.218718	-0.000037
