data_functionalizedCrystal
_audit_creation_method	'MofGen! by Chris Wilmer'
_symmetry_space_group_name_H-M	'P1'
_symmetry_Int_Tables_number	1
_symmetry_cell_setting	triclinic
loop_
_symmetry_equiv_pos_as_xyz
  x,y,z
_cell_length_a	18.101398
_cell_length_b	25.639239
_cell_length_c	25.639234
_cell_angle_alpha	89.978894
_cell_angle_beta	89.983678
_cell_angle_gamma	90.033952
loop_
_atom_site_label
_atom_site_type_symbol
_atom_site_fract_x
_atom_site_fract_y
_atom_site_fract_z
Zn1	Zn	1.132023	-0.208268	-0.295694
Zn2	Zn	1.465357	0.125065	0.037639
Zn3	Zn	1.798690	0.458398	0.370972
Zn4	Zn	1.131920	-0.295691	-0.208259
Zn5	Zn	1.465254	0.037643	0.125075
Zn6	Zn	1.798587	0.370976	0.458408
Zn7	Zn	1.008200	-0.208264	-0.208264
Zn8	Zn	1.341533	0.125070	0.125070
Zn9	Zn	1.674866	0.458403	0.458403
Zn10	Zn	1.008117	-0.295667	-0.295654
Zn11	Zn	1.341450	0.037666	0.037680
Zn12	Zn	1.674783	0.370999	0.371013
O13	O	1.070065	-0.251972	-0.251968
O14	O	1.403398	0.081361	0.081366
O15	O	1.736732	0.414694	0.414699
O16	O	1.235643	-0.219877	-0.284111
O17	O	1.568976	0.113457	0.049223
O18	O	1.902309	0.446790	0.382556
O19	O	1.115500	-0.284101	-0.135094
O20	O	1.448833	0.049232	0.198239
O21	O	1.782167	0.382565	0.531573
O22	O	1.024703	-0.135099	-0.219880
O23	O	1.358036	0.198234	0.113453
O24	O	1.691370	0.531567	0.446786
O25	O	1.235567	-0.284106	-0.219872
O26	O	1.568900	0.049228	0.113461
O27	O	1.902233	0.382561	0.446795
O28	O	1.115676	-0.135102	-0.284115
O29	O	1.449009	0.198231	0.049218
O30	O	1.782343	0.531564	0.382551
O31	O	1.024603	-0.219869	-0.135098
O32	O	1.357936	0.113464	0.198236
O33	O	1.691270	0.446798	0.531569
O34	O	0.904556	-0.219846	-0.219841
O35	O	1.237889	0.113487	0.113492
O36	O	1.571222	0.446820	0.446825
O37	O	1.024562	-0.284066	-0.368824
O38	O	1.357895	0.049268	-0.035491
O39	O	1.691228	0.382601	0.297842
O40	O	0.904495	-0.284061	-0.284046
O41	O	1.237828	0.049272	0.049287
O42	O	1.571162	0.382605	0.382620
O43	O	1.115595	-0.219854	-0.368854
O44	O	1.448929	0.113479	-0.035521
O45	O	1.782262	0.446813	0.297813
O46	O	1.115420	-0.368853	-0.219833
O47	O	1.448753	-0.035519	0.113501
O48	O	1.782086	0.297814	0.446834
O49	O	1.024462	-0.368836	-0.284042
O50	O	1.357795	-0.035502	0.049292
O51	O	1.691128	0.297831	0.382625
C52	C	0.877654	-0.251951	-0.251940
C53	C	1.210988	0.081382	0.081393
C54	C	1.544321	0.414715	0.414726
C55	C	0.795340	-0.251955	-0.251941
C56	C	1.128674	0.081379	0.081392
C57	C	1.462007	0.414712	0.414726
C58	C	0.496249	-0.251987	-0.251985
C59	C	0.829583	0.081346	0.081348
C60	C	1.162916	0.414679	0.414682
C61	C	0.527588	-0.211383	-0.211786
C62	C	0.860922	0.121950	0.121548
C63	C	1.194255	0.455283	0.454881
C64	C	0.613206	-0.211492	-0.211614
C65	C	0.946540	0.121841	0.121719
C66	C	1.279873	0.455175	0.455052
C67	C	0.644632	-0.251971	-0.251963
C68	C	0.977965	0.081363	0.081370
C69	C	1.311299	0.414696	0.414704
C70	C	0.613506	-0.307045	-0.236906
C71	C	0.946840	0.026288	0.096427
C72	C	1.280173	0.359622	0.429761
C73	C	0.527861	-0.306819	-0.236626
C74	C	0.861195	0.026514	0.096707
C75	C	1.194528	0.359847	0.430040
C76	C	0.527856	-0.237996	-0.307336
C77	C	0.861189	0.095337	0.025998
C78	C	1.194522	0.428670	0.359331
C79	C	0.613507	-0.236770	-0.307034
C80	C	0.946840	0.096564	0.026300
C81	C	1.280173	0.429897	0.359633
C82	C	0.728491	-0.251965	-0.251952
C83	C	1.061825	0.081369	0.081382
C84	C	1.395158	0.414702	0.414715
C85	C	0.412390	-0.251997	-0.251995
C86	C	0.745723	0.081336	0.081338
C87	C	1.079057	0.414670	0.414672
C88	C	1.069940	-0.387815	-0.251944
C89	C	1.403274	-0.054482	0.081390
C90	C	1.736607	0.278852	0.414723
C91	C	1.069955	-0.445929	-0.251951
C92	C	1.403288	-0.112596	0.081383
C93	C	1.736622	0.220738	0.414716
C94	C	1.117550	-0.806289	-0.218591
C95	C	1.450884	-0.472955	0.114742
C96	C	1.784217	-0.139622	0.448076
C97	C	1.117579	-0.860893	-0.218598
C98	C	1.450912	-0.527559	0.114735
C99	C	1.784246	-0.194226	0.448069
O100	O	1.157917	-0.889126	-0.190208
O101	O	1.491251	-0.555793	0.143125
O102	O	1.824584	-0.222460	0.476459
N103	N	1.070195	-0.888212	-0.252002
N104	N	1.403528	-0.554878	0.081331
N105	N	1.736862	-0.221545	0.414665
C106	C	1.022785	-0.860923	-0.285405
C107	C	1.356118	-0.527590	0.047928
C108	C	1.689451	-0.194256	0.381261
O109	O	0.982484	-0.889174	-0.313819
O110	O	1.315818	-0.555840	0.019514
O111	O	1.649151	-0.222507	0.352847
C112	C	1.022760	-0.806320	-0.285401
C113	C	1.356094	-0.472986	0.047933
C114	C	1.689427	-0.139653	0.381266
C115	C	1.070142	-0.779004	-0.251990
C116	C	1.403475	-0.445671	0.081343
C117	C	1.736809	-0.112337	0.414676
C118	C	1.164929	-0.778973	-0.185184
C119	C	1.498262	-0.445639	0.148149
C120	C	1.831595	-0.112306	0.481483
C121	C	1.164899	-0.724372	-0.185176
C122	C	1.498232	-0.391039	0.148157
C123	C	1.831566	-0.057705	0.481490
C124	C	1.117491	-0.697087	-0.218576
C125	C	1.450824	-0.363754	0.114757
C126	C	1.784157	-0.030421	0.448091
C127	C	1.070112	-0.724403	-0.251983
C128	C	1.403446	-0.391070	0.081350
C129	C	1.736779	-0.057737	0.414684
C130	C	0.975354	-0.779032	-0.318806
C131	C	1.308688	-0.445699	0.014527
C132	C	1.642021	-0.112366	0.347861
C133	C	0.975334	-0.724425	-0.318799
C134	C	1.308668	-0.391092	0.014535
C135	C	1.642001	-0.057759	0.347868
C136	C	1.022716	-0.697109	-0.285388
C137	C	1.356049	-0.363776	0.047945
C138	C	1.689383	-0.030443	0.381278
C139	C	1.022674	-0.642518	-0.285375
C140	C	1.356007	-0.309185	0.047959
C141	C	1.689341	0.024148	0.381292
N142	N	1.070058	-0.615200	-0.251971
N143	N	1.403391	-0.281866	0.081363
N144	N	1.736725	0.051467	0.414696
C145	C	1.117466	-0.642484	-0.218571
C146	C	1.450800	-0.309151	0.114762
C147	C	1.784133	0.024183	0.448096
C148	C	1.022841	-0.975594	-0.285413
C149	C	1.356174	-0.642260	0.047920
C150	C	1.689507	-0.308927	0.381253
C151	C	1.022861	-1.030196	-0.285416
C152	C	1.356194	-0.696863	0.047917
C153	C	1.689527	-0.363529	0.381251
C154	C	1.117656	-1.030162	-0.218609
C155	C	1.450989	-0.696829	0.114724
C156	C	1.784323	-0.363495	0.448058
C157	C	1.117632	-0.975559	-0.218604
C158	C	1.450965	-0.642225	0.114729
C159	C	1.784298	-0.308892	0.448062
C160	C	1.070224	-0.948275	-0.252009
C161	C	1.403558	-0.614942	0.081324
C162	C	1.736891	-0.281608	0.414658
C163	C	1.117399	-0.527819	-0.218557
C164	C	1.450733	-0.194486	0.114776
C165	C	1.784066	0.138848	0.448109
C166	C	1.117363	-0.473214	-0.218551
C167	C	1.450697	-0.139880	0.114782
C168	C	1.784030	0.193453	0.448115
C169	C	1.022571	-0.473253	-0.285360
C170	C	1.355904	-0.139919	0.047973
C171	C	1.689238	0.193414	0.381307
C172	C	1.022604	-0.527853	-0.285364
C173	C	1.355937	-0.194520	0.047969
C174	C	1.689271	0.138814	0.381302
C175	C	1.070024	-0.555135	-0.251961
C176	C	1.403358	-0.221802	0.081372
C177	C	1.736691	0.111532	0.414705
O178	O	0.982359	-0.614250	-0.313752
O179	O	1.315692	-0.280917	0.019582
O180	O	1.649025	0.052417	0.352915
O181	O	1.157767	-0.614227	-0.190167
O182	O	1.491100	-0.280893	0.143166
O183	O	1.824434	0.052440	0.476500
C184	C	1.263227	-0.251994	-0.251995
C185	C	1.596560	0.081339	0.081338
C186	C	1.929894	0.414672	0.414671
C187	C	1.345541	-0.252003	-0.252007
C188	C	1.678874	0.081330	0.081326
C189	C	2.012208	0.414663	0.414660
C190	C	1.070081	-0.251958	-0.388341
C191	C	1.403414	0.081376	-0.055007
C192	C	1.736747	0.414709	0.278326
C193	C	1.070088	-0.251951	-0.446455
C194	C	1.403421	0.081382	-0.113121
C195	C	1.736754	0.414715	0.220212
C196	C	1.070210	-0.115599	-0.252003
C197	C	1.403544	0.217734	0.081330
C198	C	1.736877	0.551067	0.414664
C199	C	1.070272	-0.057485	-0.252018
C200	C	1.403605	0.275848	0.081315
C201	C	1.736939	0.609181	0.414649
C202	C	1.022736	-0.285321	-0.697627
C203	C	1.356069	0.048013	-0.364294
C204	C	1.689402	0.381346	-0.030960
C205	C	1.022723	-0.285332	-0.643023
C206	C	1.356056	0.048001	-0.309689
C207	C	1.689389	0.381334	0.023644
O208	O	0.982392	-0.313756	-0.614768
O209	O	1.315725	0.019577	-0.281435
O210	O	1.649058	0.352910	0.051899
N211	N	1.070116	-0.251909	-0.615729
N212	N	1.403449	0.081424	-0.282395
N213	N	1.736782	0.414757	0.050938
C214	C	1.117520	-0.218468	-0.643042
C215	C	1.450853	0.114865	-0.309708
C216	C	1.784186	0.448198	0.023625
O217	O	1.157829	-0.190040	-0.614812
O218	O	1.491163	0.143293	-0.281479
O219	O	1.824496	0.476627	0.051855
C220	C	1.117528	-0.218454	-0.697645
C221	C	1.450862	0.114879	-0.364312
C222	C	1.784195	0.448212	-0.030978
C223	C	1.070137	-0.251883	-0.724936
C224	C	1.403471	0.081450	-0.391603
C225	C	1.736804	0.414783	-0.058270
C226	C	0.975348	-0.318747	-0.724918
C227	C	1.308681	0.014587	-0.391585
C228	C	1.642015	0.347920	-0.058252
C229	C	0.975362	-0.318736	-0.779519
C230	C	1.308696	0.014598	-0.446185
C231	C	1.642029	0.347931	-0.112852
C232	C	1.022764	-0.285298	-0.806828
C233	C	1.356097	0.048035	-0.473495
C234	C	1.689431	0.381368	-0.140161
C235	C	1.070152	-0.251872	-0.779537
C236	C	1.403485	0.081461	-0.446203
C237	C	1.736818	0.414794	-0.112870
C238	C	1.164928	-0.185011	-0.724957
C239	C	1.498261	0.148322	-0.391624
C240	C	1.831594	0.481656	-0.058291
C241	C	1.164932	-0.185000	-0.779564
C242	C	1.498265	0.148334	-0.446231
C243	C	1.831599	0.481667	-0.112898
C244	C	1.117541	-0.218429	-0.806855
C245	C	1.450875	0.114905	-0.473522
C246	C	1.784208	0.448238	-0.140189
C247	C	1.117567	-0.218424	-0.861447
C248	C	1.450901	0.114910	-0.528113
C249	C	1.784234	0.448243	-0.194780
N250	N	1.070174	-0.251847	-0.888741
N251	N	1.403508	0.081486	-0.555407
N252	N	1.736841	0.414820	-0.222074
C253	C	1.022773	-0.285284	-0.861431
C254	C	1.356106	0.048049	-0.528098
C255	C	1.689439	0.381382	-0.194765
C256	C	1.117497	-0.218500	-0.528371
C257	C	1.450830	0.114834	-0.195038
C258	C	1.784163	0.448167	0.138296
C259	C	1.117492	-0.218516	-0.473769
C260	C	1.450826	0.114818	-0.140435
C261	C	1.784159	0.448151	0.192898
C262	C	1.022694	-0.285380	-0.473753
C263	C	1.356028	0.047954	-0.140420
C264	C	1.689361	0.381287	0.192913
C265	C	1.022703	-0.285366	-0.528357
C266	C	1.356036	0.047968	-0.195023
C267	C	1.689370	0.381301	0.138310
C268	C	1.070104	-0.251923	-0.555665
C269	C	1.403437	0.081410	-0.222332
C270	C	1.736770	0.414744	0.111002
C271	C	1.022806	-0.285258	-0.976097
C272	C	1.356140	0.048075	-0.642763
C273	C	1.689473	0.381408	-0.309430
C274	C	1.022827	-0.285246	-1.030702
C275	C	1.356160	0.048088	-0.697369
C276	C	1.689494	0.381421	-0.364035
C277	C	1.117622	-0.218380	-1.030713
C278	C	1.450955	0.114953	-0.697379
C279	C	1.784289	0.448286	-0.364046
C280	C	1.117605	-0.218395	-0.976112
C281	C	1.450938	0.114939	-0.642779
C282	C	1.784271	0.448272	-0.309445
C283	C	1.070191	-0.251836	-0.948805
C284	C	1.403524	0.081498	-0.615472
C285	C	1.736857	0.414831	-0.282139
O286	O	1.157876	-0.190013	-0.889736
O287	O	1.491209	0.143321	-0.556403
O288	O	1.824543	0.476654	-0.223069
O289	O	0.982463	-0.313703	-0.889668
O290	O	1.315796	0.019630	-0.556334
O291	O	1.649129	0.352964	-0.223001
C292	C	1.070092	-0.251949	-0.116125
C293	C	1.403425	0.081384	0.217208
C294	C	1.736759	0.414717	0.550542
C295	C	1.070229	-0.251809	-0.058011
C296	C	1.403562	0.081525	0.275322
C297	C	1.736895	0.414858	0.608655
H298	H	0.507855	-0.318685	-0.196162
H299	H	0.841189	0.014648	0.137171
H300	H	1.174522	0.347981	0.470504
H301	H	0.983969	-0.451029	-0.312552
H302	H	1.317303	-0.117696	0.020782
H303	H	1.650636	0.215638	0.354115
C304	C	0.970479	-0.557901	-0.322115
C305	C	1.303813	-0.224568	0.011218
C306	C	1.637146	0.108765	0.344552
N307	N	0.931224	-0.580530	-0.349801
N308	N	1.264557	-0.247197	-0.016467
N309	N	1.597891	0.086136	0.316866
H310	H	0.634927	-0.319117	-0.196879
H311	H	0.968260	0.014216	0.136455
H312	H	1.301594	0.347550	0.469788
C313	C	1.169757	-0.945516	-0.181853
C314	C	1.503090	-0.612183	0.151481
C315	C	1.836424	-0.278850	0.484814
N316	N	1.209021	-0.922891	-0.154170
N317	N	1.542355	-0.589558	0.179163
N318	N	1.875688	-0.256224	0.512496
C319	C	0.923232	-0.809068	-0.355562
C320	C	1.256565	-0.475734	-0.022229
C321	C	1.589898	-0.142401	0.311105
N322	N	0.883971	-0.831689	-0.383250
N323	N	1.217305	-0.498356	-0.049917
N324	N	1.550638	-0.165023	0.283417
H325	H	0.633666	-0.220741	-0.170600
H326	H	0.967000	0.112593	0.162733
H327	H	1.300333	0.445926	0.496067
H328	H	0.984096	-0.312605	-0.451508
H329	H	1.317429	0.020728	-0.118175
H330	H	1.650763	0.354061	0.215158
H331	H	0.984191	-0.312484	-0.953870
H332	H	1.317524	0.020849	-0.620537
H333	H	1.650858	0.354182	-0.287203
C334	C	0.641641	-0.156317	-0.224358
C335	C	0.974974	0.177016	0.108976
C336	C	1.308308	0.510350	0.442309
N337	N	0.663054	-0.114756	-0.233953
N338	N	0.996387	0.218577	0.099381
N339	N	1.329721	0.551911	0.432714
C340	C	1.217055	-0.148230	-0.694949
C341	C	1.550388	0.185103	-0.361616
C342	C	1.883721	0.518437	-0.028282
N343	N	1.256316	-0.120522	-0.672348
N344	N	1.589650	0.212812	-0.339014
N345	N	1.922983	0.546145	-0.005681
H346	H	1.203538	-0.801182	-0.157986
H347	H	1.536872	-0.467849	0.175347
H348	H	1.870205	-0.134515	0.508681
C349	C	1.217080	-0.148211	-0.809600
C350	C	1.550414	0.185123	-0.476267
C351	C	1.883747	0.518456	-0.142933
N352	N	1.256360	-0.120503	-0.832222
N353	N	1.589694	0.212831	-0.498889
N354	N	1.923027	0.546164	-0.165555
H355	H	1.156199	-0.191178	-0.953890
H356	H	1.489533	0.142156	-0.620557
H357	H	1.822866	0.475489	-0.287224
C358	C	1.169560	-0.557821	-0.181809
C359	C	1.502893	-0.224488	0.151524
C360	C	1.836226	0.108845	0.484857
N361	N	1.208843	-0.580419	-0.154128
N362	N	1.542176	-0.247085	0.179206
N363	N	1.875509	0.086248	0.512539
C364	C	1.169754	-0.181596	-1.060763
C365	C	1.503087	0.151738	-0.727430
C366	C	1.836420	0.485071	-0.394097
N367	N	1.209013	-0.153885	-1.083399
N368	N	1.542347	0.179448	-0.750066
N369	N	1.875680	0.512782	-0.416732
C370	C	1.169631	-0.181744	-0.443754
C371	C	1.502964	0.151589	-0.110421
C372	C	1.836297	0.484922	0.222912
N373	N	1.208899	-0.154044	-0.421150
N374	N	1.542232	0.179290	-0.087816
N375	N	1.875566	0.512623	0.245517
H376	H	0.984235	-0.312470	-1.052920
H377	H	1.317569	0.020863	-0.719587
H378	H	1.650902	0.354197	-0.386253
H379	H	0.507128	-0.338096	-0.264629
H380	H	0.840461	-0.004763	0.068705
H381	H	1.173795	0.328570	0.402038
C382	C	0.923198	-0.355534	-0.694887
C383	C	1.256531	-0.022200	-0.361553
C384	C	1.589864	0.311133	-0.028220
N385	N	0.883918	-0.383247	-0.672270
N386	N	1.217251	-0.049913	-0.338937
N387	N	1.550585	0.283420	-0.005604
C388	C	0.499803	-0.156040	-0.224393
C389	C	0.833137	0.177293	0.108940
C390	C	1.166470	0.510626	0.442273
N391	N	0.478870	-0.114355	-0.233890
N392	N	0.812204	0.218979	0.099443
N393	N	1.145537	0.552312	0.432777
H394	H	0.633860	-0.338108	-0.265269
H395	H	0.967193	-0.004775	0.068065
H396	H	1.300526	0.328558	0.401398
H397	H	0.936770	-0.345956	-0.801734
H398	H	1.270103	-0.012622	-0.468401
H399	H	1.603436	0.320711	-0.135068
C400	C	0.498473	-0.223728	-0.156701
C401	C	0.831807	0.109605	0.176633
C402	C	1.165140	0.442938	0.509966
N403	N	0.476541	-0.233028	-0.115211
N404	N	0.809875	0.100305	0.218122
N405	N	1.143208	0.433639	0.551456
H406	H	0.634901	-0.264189	-0.338590
H407	H	0.968234	0.069144	-0.005257
H408	H	1.301567	0.402477	0.328077
C409	C	1.217017	-0.694332	-0.148418
C410	C	1.550350	-0.360998	0.184915
C411	C	1.883684	-0.027665	0.518249
N412	N	1.256273	-0.671709	-0.120728
N413	N	1.589607	-0.338375	0.212605
N414	N	1.922940	-0.005042	0.545938
H415	H	1.156261	-1.052387	-0.191415
H416	H	1.489594	-0.719054	0.141918
H417	H	1.822928	-0.385720	0.475252
C418	C	0.970565	-0.322136	-0.558372
C419	C	1.303898	0.011197	-0.225039
C420	C	1.637231	0.344531	0.108295
N421	N	0.931290	-0.349832	-0.580977
N422	N	1.264623	-0.016499	-0.247643
N423	N	1.597956	0.316835	0.085690
C424	C	0.970730	-1.060237	-0.322165
C425	C	1.304063	-0.726904	0.011169
C426	C	1.637397	-0.393571	0.344502
N427	N	0.931466	-1.082863	-0.349847
N428	N	1.264800	-0.749529	-0.016514
N429	N	1.598133	-0.416196	0.316819
C430	C	0.923181	-0.694417	-0.355548
C431	C	1.256515	-0.361083	-0.022215
C432	C	1.589848	-0.027750	0.311119
N433	N	0.883899	-0.671815	-0.383226
N434	N	1.217232	-0.338482	-0.049893
N435	N	1.550565	-0.005149	0.283440
C436	C	0.498726	-0.184684	-0.325827
C437	C	0.832060	0.148649	0.007506
C438	C	1.165393	0.481983	0.340840
N439	N	0.476788	-0.144526	-0.339748
N440	N	0.810122	0.188807	-0.006415
N441	N	1.143455	0.522141	0.326919
H442	H	1.156102	-0.191267	-0.550602
H443	H	1.489435	0.142066	-0.217269
H444	H	1.822769	0.475399	0.116065
C445	C	0.970688	-0.945587	-0.322166
C446	C	1.304022	-0.612253	0.011167
C447	C	1.637355	-0.278920	0.344501
N448	N	0.931412	-0.922988	-0.349851
N449	N	1.264745	-0.589655	-0.016518
N450	N	1.598078	-0.256321	0.316816
H451	H	0.507588	-0.267571	-0.337288
H452	H	0.840921	0.065762	-0.003954
H453	H	1.174254	0.399096	0.329379
H454	H	0.633856	-0.196241	-0.318387
H455	H	0.967190	0.137092	0.014946
H456	H	1.300523	0.470425	0.348279
H457	H	1.155947	-0.450975	-0.191343
H458	H	1.489280	-0.117641	0.141990
H459	H	1.822614	0.215692	0.475324
