data_functionalizedCrystal
_audit_creation_method	'MofGen! by Chris Wilmer'
_symmetry_space_group_name_H-M	'P1'
_symmetry_Int_Tables_number	1
_symmetry_cell_setting	triclinic
loop_
_symmetry_equiv_pos_as_xyz
  x,y,z
_cell_length_a	6.817900
_cell_length_b	13.167930
_cell_length_c	14.858572
_cell_angle_alpha	99.382144
_cell_angle_beta	104.524003
_cell_angle_gamma	105.754568
loop_
_atom_site_label
_atom_site_type_symbol
_atom_site_fract_x
_atom_site_fract_y
_atom_site_fract_z
V1	V	-4.058282	-0.149602	-0.302870
V2	V	-3.558282	0.350398	0.197130
O3	O	-4.024746	0.006492	-0.283880
O4	O	-3.524746	0.506492	0.216120
O5	O	-4.029251	-0.295964	-0.313517
O6	O	-3.529251	0.204036	0.186483
O7	O	-4.014656	-0.147606	-0.429159
O8	O	-3.514656	0.352394	0.070841
O9	O	-4.039442	-0.142893	-0.167438
O10	O	-3.539442	0.357107	0.332562
V11	V	-4.538782	-0.130895	-0.285126
V12	V	-4.038782	0.369105	0.214874
O13	O	-4.326173	-0.190636	-0.341793
O14	O	-3.826173	0.309364	0.158207
O15	O	-4.721089	-0.089860	-0.246204
O16	O	-4.221089	0.410140	0.253796
O17	O	-4.344606	0.015468	-0.274479
O18	O	-3.844606	0.515468	0.225521
O19	O	-4.689715	-0.286988	-0.304116
O20	O	-4.189715	0.213012	0.195884
O21	O	-4.675019	-0.137603	-0.420559
O22	O	-4.175019	0.362397	0.079441
O23	O	-4.359202	-0.132890	-0.158837
O24	O	-3.859202	0.367110	0.341163
C25	C	-3.878809	-0.331635	-0.312021
C26	C	-3.378809	0.168365	0.187979
C27	C	-3.936392	-0.451290	-0.321568
C28	C	-3.436392	0.048710	0.178432
C29	C	-3.953186	-0.644996	-0.166473
C30	C	-3.453186	-0.144996	0.333527
C31	C	-4.007288	-0.757422	-0.175439
C32	C	-3.507288	-0.257422	0.324561
C33	C	-4.098711	-0.788571	-0.348465
C34	C	-3.598711	-0.288571	0.151535
C35	C	-4.044610	-0.676145	-0.339500
C36	C	-3.544610	-0.176145	0.160500
C37	C	-3.971844	-0.604361	-0.248500
C38	C	-3.471844	-0.104361	0.251500
C39	C	-3.917728	-0.491932	-0.239535
C40	C	-3.417728	0.008068	0.260465
C41	C	-4.009166	-0.523084	-0.412561
C42	C	-3.509166	-0.023084	0.087439
C43	C	-4.063268	-0.635510	-0.421527
C44	C	-3.563268	-0.135510	0.078473
C45	C	-3.860191	-0.142388	-0.459533
C46	C	-3.360191	0.357612	0.040467
C47	C	-3.905933	-0.141725	-0.562859
C48	C	-3.405933	0.358275	-0.062859
C49	C	-4.073352	-0.139302	-0.941218
C50	C	-3.573352	0.360698	-0.441218
C51	C	-4.026762	-0.139976	-0.835947
C52	C	-3.526762	0.360024	-0.335947
C53	C	-3.989644	-0.140515	-0.752042
C54	C	-3.489644	0.359485	-0.252042
C55	C	-3.943051	-0.141187	-0.646764
C56	C	-3.443051	0.358813	-0.146764
C57	C	-4.158391	0.051133	-0.275973
C58	C	-3.658391	0.551133	0.224027
C59	C	-4.080047	0.170787	-0.266432
C60	C	-3.580047	0.670787	0.233568
C61	C	-4.177009	-0.138112	-0.128459
C62	C	-3.677009	0.361888	0.371541
C63	C	-4.110505	-0.138769	-0.025131
C64	C	-3.610505	0.361231	0.474869
H65	H	-3.893910	-0.586547	-0.092377
H66	H	-3.393910	-0.086547	0.407623
H67	H	-4.122527	-0.693971	-0.495616
H68	H	-3.622527	-0.193971	0.004384
H69	H	-4.024349	-0.489987	-0.479353
H70	H	-3.524349	0.010013	0.020647
N71	N	-3.839256	-0.414495	-0.141396
N72	N	-3.339256	0.085505	0.358604
H73	H	-3.690297	-0.363422	-0.130338
H74	H	-3.190297	0.136578	0.369662
H75	H	-3.835786	-0.457373	-0.090850
H76	H	-3.335786	0.042627	0.409150
N77	N	-4.177278	-0.866026	-0.446599
N78	N	-3.677278	-0.366026	0.053401
H79	H	-4.077329	-0.909652	-0.450704
H80	H	-3.577329	-0.409652	0.049296
H81	H	-4.180942	-0.823172	-0.497164
H82	H	-3.680942	-0.323172	0.002836
H83	H	-3.992092	-0.790502	-0.108644
H84	H	-3.492092	-0.290502	0.391356
