data_functionalizedCrystal
_audit_creation_method	'MofGen! by Chris Wilmer'
_symmetry_space_group_name_H-M	'P1'
_symmetry_Int_Tables_number	1
_symmetry_cell_setting	triclinic
loop_
_symmetry_equiv_pos_as_xyz
  x,y,z
_cell_length_a	12.837943
_cell_length_b	15.944551
_cell_length_c	11.892095
_cell_angle_alpha	93.888509
_cell_angle_beta	85.689438
_cell_angle_gamma	89.163839
loop_
_atom_site_label
_atom_site_type_symbol
_atom_site_fract_x
_atom_site_fract_y
_atom_site_fract_z
O1	O	1.382096	0.213524	-0.093988
O2	O	1.882096	0.713524	0.406012
O3	O	1.080290	0.202737	-0.093995
O4	O	1.580290	0.702737	0.406005
O5	O	1.239434	0.086515	-0.093981
O6	O	1.739434	0.586515	0.406019
O7	O	1.222952	0.329745	-0.094002
O8	O	1.722952	0.829745	0.405998
O9	O	1.226164	0.096189	0.094025
O10	O	1.726164	0.596189	0.594025
O11	O	1.067021	0.212411	0.094012
O12	O	1.567021	0.712411	0.594012
O13	O	1.368826	0.223198	0.094018
O14	O	1.868826	0.723198	0.594018
Zn15	Zn	1.215817	0.219340	0.123865
Zn16	Zn	1.715817	0.719340	0.623865
Zn17	Zn	1.233299	0.206594	-0.123842
Zn18	Zn	1.733299	0.706594	0.376158
O19	O	1.209683	0.339419	0.094005
O20	O	1.709683	0.839419	0.594005
C21	C	1.035034	0.203930	0.000008
C22	C	1.535034	0.703930	0.500008
C23	C	0.919957	0.193062	0.000006
C24	C	1.419957	0.693062	0.500006
C25	C	1.232115	0.060004	0.000022
C26	C	1.732115	0.560004	0.500022
C27	C	1.230063	-0.033407	0.000023
C28	C	1.730063	0.466593	0.500023
C29	C	0.679007	0.323714	0.000011
C30	C	1.179007	0.823714	0.500011
C31	C	0.570881	0.313507	0.000010
C32	C	1.070881	0.813507	0.500010
C33	C	0.595575	0.162440	0.000010
C34	C	1.095575	0.662440	0.500010
C35	C	0.703701	0.172648	0.000012
C36	C	1.203701	0.672648	0.500012
C37	C	0.745413	0.253287	0.000010
C38	C	1.245413	0.753287	0.500010
C39	C	0.853542	0.263494	0.000003
C40	C	1.353542	0.763494	0.500003
C41	C	0.878234	0.112428	0.000012
C42	C	1.378234	0.612428	0.500012
C43	C	0.770107	0.102221	0.000011
C44	C	1.270107	0.602221	0.500011
C45	C	1.126515	-0.256548	0.000005
C46	C	1.626515	0.243452	0.500005
C47	C	1.168058	-0.308949	0.092705
C48	C	1.668058	0.191051	0.592705
C49	C	1.226352	-0.204430	0.000014
C50	C	1.726352	0.295570	0.500014
C51	C	1.181163	-0.318468	-0.092655
C52	C	1.681163	0.181532	0.407345
C53	C	1.222761	-0.369631	0.000001
C54	C	1.722761	0.130369	0.500001
C55	C	1.267917	-0.255596	0.092790
C56	C	1.767917	0.244404	0.592790
C57	C	1.281014	-0.265115	-0.092653
C58	C	1.781014	0.234885	0.407347
C59	C	1.322628	-0.317491	0.000069
C60	C	1.822628	0.182509	0.500069
C61	C	1.228418	-0.109262	0.000023
C62	C	1.728418	0.390738	0.500023
C63	C	1.220702	-0.464796	0.000000
C64	C	1.720702	0.035204	0.500000
C65	C	1.414082	0.222005	0.000013
C66	C	1.914082	0.722005	0.500013
C67	C	1.529160	0.232872	0.000008
C68	C	2.029160	0.732872	0.500008
C69	C	1.217002	0.365931	-0.000001
C70	C	1.717002	0.865931	0.499999
C71	C	1.219054	0.459340	-0.000009
C72	C	1.719054	0.959340	0.499991
N73	N	1.203893	0.228039	0.292918
N74	N	1.703893	0.728039	0.792918
N75	N	1.245231	0.197890	-0.292895
N76	N	1.745231	0.697890	0.207105
C77	C	1.328203	0.137313	0.529576
C78	C	1.828203	0.637313	1.029576
C79	C	1.319876	0.143400	0.647918
C80	C	1.819876	0.643400	1.147918
C81	C	1.178907	0.246295	0.647944
C82	C	1.678907	0.746295	1.147944
C83	C	1.187234	0.240208	0.529603
C84	C	1.687234	0.740208	1.029603
C85	C	1.261886	0.185716	0.470423
C86	C	1.761886	0.685716	0.970423
C87	C	1.270217	0.179634	0.352080
C88	C	1.770217	0.679634	0.852080
C89	C	1.129244	0.282524	0.352108
C90	C	1.629244	0.782524	0.852108
C91	C	1.120917	0.288611	0.470449
C92	C	1.620917	0.788611	0.970449
H93	H	0.887502	0.329155	0.000004
H94	H	1.387502	0.829155	0.500004
H95	H	1.043639	-0.229864	0.000096
H96	H	1.543639	0.270136	0.500096
H97	H	1.118121	0.290655	0.696143
H98	H	1.618121	0.790655	1.196143
C99	C	1.056291	0.335773	0.287043
C100	C	1.556291	0.835773	0.787043
H101	H	1.010648	0.369101	0.339241
H102	H	1.510648	0.869101	0.839241
H103	H	1.016387	0.299715	0.240883
H104	H	1.516387	0.799715	0.740883
H105	H	1.096842	0.371369	0.240875
H106	H	1.596842	0.871369	0.740875
H107	H	1.388994	0.092949	0.481392
H108	H	1.888994	0.592949	0.981392
H109	H	0.712969	0.389374	0.000008
H110	H	1.212969	0.889374	0.500008
C111	C	0.497838	0.390976	0.000001
C112	C	0.997838	0.890976	0.500001
H113	H	0.538171	0.440460	-0.000009
H114	H	1.038171	0.940460	0.499991
H115	H	0.450514	0.393508	0.065559
H116	H	0.950514	0.893508	0.565559
H117	H	0.459777	0.386760	-0.065573
H118	H	0.959777	0.886760	0.434427
C119	C	1.392827	0.090159	0.712983
C120	C	1.892827	0.590159	1.212983
H121	H	1.438481	0.056840	0.660785
H122	H	1.938481	0.556840	1.160785
H123	H	1.352289	0.054568	0.759160
H124	H	1.852289	0.554568	1.259160
H125	H	1.432737	0.126227	0.759133
H126	H	1.932737	0.626227	1.259133
H127	H	1.304571	-0.228194	0.171246
H128	H	1.804571	0.271806	0.671246
H129	H	1.060134	0.332975	0.518647
H130	H	1.560134	0.832975	1.018647
C131	C	1.345444	-0.238749	-0.198518
C132	C	1.845444	0.261251	0.301482
H133	H	1.402868	-0.206337	-0.176255
H134	H	1.902868	0.293663	0.323745
H135	H	1.302593	-0.206132	-0.241359
H136	H	1.802593	0.293868	0.258641
H137	H	1.370618	-0.287504	-0.243252
H138	H	1.870618	0.212496	0.256748
H139	H	0.561587	0.096792	0.000105
H140	H	1.061587	0.596792	0.500105
C141	C	0.951278	0.034952	0.000011
C142	C	1.451278	0.534952	0.500011
H143	H	0.910947	-0.014533	0.000003
H144	H	1.410947	0.485467	0.500003
H145	H	0.989351	0.039162	0.065569
H146	H	1.489351	0.539162	0.565569
H147	H	0.998593	0.032425	-0.065563
H148	H	1.498593	0.532425	0.434437
C149	C	0.724223	0.013523	0.000008
C150	C	1.224223	0.513523	0.500008
H151	H	0.779261	-0.026959	0.000012
H152	H	1.279261	0.473041	0.500012
H153	H	0.687180	0.003033	-0.065553
H154	H	1.187180	0.503033	0.434447
H155	H	0.677932	0.009769	0.065579
H156	H	1.177932	0.509769	0.565579
C157	C	1.103545	-0.335235	0.198569
C158	C	1.603545	0.164765	0.698569
H159	H	1.033885	-0.314313	0.198457
H160	H	1.533885	0.185687	0.698457
H161	H	1.133694	-0.312782	0.264396
H162	H	1.633694	0.187218	0.764396
H163	H	1.103236	-0.394833	0.198150
H164	H	1.603236	0.105167	0.698150
C165	C	1.434663	-0.353328	0.000141
C166	C	1.934663	0.146672	0.500141
H167	H	1.465304	-0.331602	0.066049
H168	H	1.965304	0.168398	0.566049
H169	H	1.474994	-0.337603	-0.065082
H170	H	1.974994	0.162397	0.434918
H171	H	1.432802	-0.412898	-0.000474
H172	H	1.932802	0.087102	0.499526
C173	C	1.131575	-0.355612	-0.198525
C174	C	1.631575	0.144388	0.301475
H175	H	1.061906	-0.334662	-0.198405
H176	H	1.561906	0.165338	0.301595
H177	H	1.131204	-0.415164	-0.198138
H178	H	1.631204	0.084836	0.301862
H179	H	1.171011	-0.339908	-0.264350
H180	H	1.671011	0.160092	0.235650
C181	C	1.352325	0.119693	0.286983
C182	C	1.852325	0.619693	0.786983
H183	H	1.390620	0.091731	0.339167
H184	H	1.890620	0.591731	0.839167
H185	H	1.398730	0.151001	0.240805
H186	H	1.898730	0.651001	0.740805
H187	H	1.318272	0.079350	0.240832
H188	H	1.818272	0.579350	0.740832
