data_functionalizedCrystal
_audit_creation_method	'MofGen! by Chris Wilmer'
_symmetry_space_group_name_H-M	'P1'
_symmetry_Int_Tables_number	1
_symmetry_cell_setting	triclinic
loop_
_symmetry_equiv_pos_as_xyz
  x,y,z
_cell_length_a	14.971506
_cell_length_b	10.654550
_cell_length_c	9.130313
_cell_angle_alpha	90.002847
_cell_angle_beta	89.995972
_cell_angle_gamma	95.946341
loop_
_atom_site_label
_atom_site_type_symbol
_atom_site_fract_x
_atom_site_fract_y
_atom_site_fract_z
O1	O	1.187824	-0.163774	-0.121809
O2	O	0.927533	-0.183346	-0.121810
O3	O	1.063663	0.009243	-0.121800
O4	O	1.051694	-0.356363	-0.121819
O5	O	1.063653	0.009243	0.121798
O6	O	0.927522	-0.183346	0.121789
O7	O	1.187814	-0.163774	0.121790
Cu8	Cu	1.057667	-0.173560	0.144032
Cu9	Cu	1.057679	-0.173560	-0.144052
O10	O	1.051683	-0.356363	0.121780
C11	C	0.894198	-0.182466	-0.000010
C12	C	0.794888	-0.179830	-0.000011
C13	C	1.062779	0.056031	-0.000002
C14	C	1.060150	0.195447	-0.000004
N15	N	1.057665	-0.173560	0.346654
C16	C	0.357166	-0.282910	-0.000031
C17	C	0.450480	-0.285378	-0.000037
C18	C	0.507084	-0.172224	-0.000025
C19	C	0.470370	-0.056596	-0.000021
C20	C	0.377058	-0.054130	-0.000025
C21	C	0.664861	-0.061744	-0.000009
C22	C	0.758180	-0.064210	-0.000002
C23	C	0.738283	-0.292992	-0.000021
C24	C	0.644971	-0.290526	-0.000025
C25	C	0.608264	-0.174897	-0.000019
C26	C	1.221148	-0.164654	-0.000013
C27	C	1.320458	-0.167291	-0.000023
C28	C	1.052567	-0.403152	-0.000022
C29	C	1.055197	-0.542567	-0.000029
C30	C	1.140301	0.275784	-0.000004
C31	C	1.137825	0.406778	-0.000022
C32	C	0.975039	0.377085	-0.000033
C33	C	0.977516	0.246093	-0.000026
N34	N	1.057688	-0.173551	-0.346675
C35	C	1.112384	-0.249860	0.423297
C36	C	1.112398	-0.249853	0.576634
C37	C	1.002968	-0.097241	0.576672
C38	C	1.002959	-0.097243	0.423338
H39	H	0.311085	-0.375053	-0.000030
H40	H	1.156957	-0.311983	0.639029
H41	H	0.958426	-0.035109	0.639126
H42	H	0.958399	-0.035103	0.360934
H43	H	0.480362	-0.379526	-0.000058
H44	H	0.907762	0.418339	-0.000048
H45	H	0.598886	-0.382666	-0.000026
H46	H	0.347173	0.040019	-0.000021
H47	H	0.516465	0.035535	-0.000020
H48	H	1.156929	-0.312002	0.360866
H49	H	0.768174	-0.387141	-0.000025
H50	H	0.804265	0.027929	-0.000004
H51	H	0.634978	0.032413	-0.000011
H52	H	1.207586	0.234552	0.000010
H53	H	0.912243	0.180679	-0.000030
H54	H	1.203092	0.472185	-0.000026
