data_functionalizedCrystal
_audit_creation_method	'MofGen! by Chris Wilmer'
_symmetry_space_group_name_H-M	'P1'
_symmetry_Int_Tables_number	1
_symmetry_cell_setting	triclinic
loop_
_symmetry_equiv_pos_as_xyz
  x,y,z
_cell_length_a	12.827893
_cell_length_b	16.120484
_cell_length_c	12.827885
_cell_angle_alpha	92.863938
_cell_angle_beta	89.980728
_cell_angle_gamma	92.925611
loop_
_atom_site_label
_atom_site_type_symbol
_atom_site_fract_x
_atom_site_fract_y
_atom_site_fract_z
Zn1	Zn	1.576506	-0.331862	-0.611890
Zn2	Zn	1.567507	-0.471297	-0.445993
Zn3	Zn	1.401744	-0.331903	-0.437167
Zn4	Zn	1.392844	-0.471236	-0.620690
O5	O	1.484650	-0.401575	-0.528935
O6	O	1.721548	-0.350367	-0.589894
O7	O	1.545476	-0.452849	-0.298589
O8	O	1.432418	-0.215232	-0.452967
O9	O	1.714936	-0.452810	-0.468011
O10	O	1.560815	-0.215202	-0.581336
O11	O	1.423692	-0.350437	-0.292104
O12	O	1.254328	-0.350377	-0.461500
O13	O	1.417248	-0.452705	-0.765756
O14	O	1.247789	-0.452744	-0.596334
O15	O	1.552184	-0.350307	-0.759290
O16	O	1.536846	-0.587954	-0.476543
O17	O	1.408522	-0.587909	-0.604892
C18	C	1.213141	-0.401559	-0.528915
C19	C	1.096987	-0.401573	-0.528932
C20	C	0.921944	-0.452319	-0.595576
C21	C	1.041995	-0.452306	-0.595559
C22	C	1.470770	-0.618182	-0.542653
C23	C	1.464927	-0.710847	-0.548557
C24	C	1.454267	-0.880508	-0.559357
C25	C	1.515221	-0.921800	-0.498529
C26	C	1.509289	-1.016205	-0.504539
C27	C	1.460197	-0.786095	-0.553349
C28	C	1.757219	-0.401591	-0.528955
C29	C	1.873372	-0.401597	-0.528964
C30	C	1.484727	-0.401495	-0.801500
C31	C	1.484760	-0.401460	-0.917651
C32	C	1.498613	-0.184121	-0.515185
C33	C	1.504563	-0.091456	-0.509326
C34	C	1.424518	-0.350774	-0.966226
C35	C	1.424551	-0.350737	-1.086274
C36	C	1.484637	-0.401594	-0.257426
C37	C	1.484822	-0.401393	-0.141261
H38	H	0.920665	-0.358166	-0.471920
C39	C	1.554473	-0.460052	-0.981523
C40	C	1.673716	-0.453271	-0.966199
C41	C	1.743431	-0.511864	-1.030067
C42	C	1.693903	-0.577238	-1.109260
C43	C	1.574653	-0.584022	-1.124588
C44	C	1.504938	-0.525428	-1.060719
H45	H	1.710386	-0.404875	-0.907572
H46	H	1.831708	-0.506843	-1.018720
H47	H	1.745510	-0.620612	-1.156539
H48	H	1.537983	-0.632418	-1.183214
H49	H	1.416661	-0.530450	-1.072066
C50	C	1.591731	-0.873785	-0.422068
C51	C	1.582518	-0.885749	-0.304011
C52	C	1.659022	-0.837731	-0.227549
C53	C	1.744739	-0.777748	-0.269144
C54	C	1.753956	-0.765780	-0.387207
C55	C	1.677452	-0.813799	-0.463669
H56	H	1.519063	-0.930155	-0.273214
H57	H	1.652199	-0.846591	-0.140151
H58	H	1.801372	-0.742202	-0.212543
H59	H	1.817412	-0.721375	-0.418004
H60	H	1.684275	-0.804939	-0.551068
H61	H	0.874651	-0.495757	-0.652613
C62	C	1.377750	-0.928526	-0.635800
C63	C	1.371854	-1.024297	-0.641769
C64	C	1.295336	-1.072326	-0.718208
C65	C	1.224716	-1.024584	-0.788677
C66	C	1.230610	-0.928808	-0.782710
C67	C	1.307127	-0.880779	-0.706271
H68	H	1.424133	-1.059643	-0.589602
H69	H	1.290973	-1.143226	-0.722625
H70	H	1.168073	-1.060138	-0.845262
H71	H	1.178331	-0.893462	-0.834878
H72	H	1.311490	-0.809879	-0.701854
C73	C	1.354802	-0.292185	-0.902355
C74	C	1.354867	-0.292307	-0.782317
C75	C	1.285148	-0.233717	-0.718449
C76	C	1.215363	-0.175005	-0.774618
C77	C	1.215296	-0.174881	-0.894662
C78	C	1.285015	-0.233471	-0.958531
H79	H	1.406528	-0.335771	-0.740731
H80	H	1.285198	-0.233809	-0.629583
H81	H	1.163753	-0.131633	-0.727339
H82	H	1.163635	-0.131417	-0.936248
H83	H	1.284965	-0.233378	-1.047396
H84	H	1.372980	-0.307339	-1.128060
H85	H	1.536404	-0.444787	-1.099481
H86	H	1.055211	-0.358142	-0.471905
C87	C	1.098432	-0.510974	-0.672607
C88	C	1.169293	-0.576323	-0.631252
C89	C	1.225732	-0.634993	-0.708302
C90	C	1.211309	-0.628315	-0.826707
C91	C	1.140444	-0.562963	-0.868068
C92	C	1.084006	-0.504293	-0.791017
H93	H	1.179973	-0.581269	-0.543596
H94	H	1.278191	-0.683371	-0.677684
H95	H	1.253088	-0.671746	-0.883744
H96	H	1.129765	-0.558017	-0.955723
H97	H	1.031547	-0.455916	-0.821636
