data_functionalizedCrystal
_audit_creation_method	'MofGen! by Chris Wilmer'
_symmetry_space_group_name_H-M	'P1'
_symmetry_Int_Tables_number	1
_symmetry_cell_setting	triclinic
loop_
_symmetry_equiv_pos_as_xyz
  x,y,z
_cell_length_a	15.995292
_cell_length_b	14.519709
_cell_length_c	14.472311
_cell_angle_alpha	89.998958
_cell_angle_beta	89.994907
_cell_angle_gamma	96.425620
loop_
_atom_site_label
_atom_site_type_symbol
_atom_site_fract_x
_atom_site_fract_y
_atom_site_fract_z
O1	O	0.109766	-1.223643	-0.076703
O2	O	0.122692	-0.955140	-0.076733
O3	O	-0.005651	-1.096759	-0.076718
O4	O	0.238109	-1.082024	-0.076717
O5	O	-0.005664	-1.096746	0.076964
O6	O	0.122679	-0.955127	0.076949
O7	O	0.109753	-1.223630	0.076979
Cu8	Cu	0.116215	-1.089378	0.090997
Cu9	Cu	0.116230	-1.089393	-0.090750
O10	O	0.238096	-1.082011	0.076965
C11	C	-0.036854	-1.096153	0.000120
C12	C	-0.129810	-1.094355	0.000113
C13	C	0.122083	-0.920775	0.000105
C14	C	0.120278	-0.818397	0.000093
C15	C	0.113632	-0.443515	0.000131
C16	C	0.115478	-0.547819	0.000120
C17	C	0.116955	-0.630953	0.000111
C18	C	0.118801	-0.735264	0.000102
C19	C	-0.467558	-1.087745	0.000121
C20	C	-0.444093	-1.189962	0.000476
C21	C	-0.347414	-1.191905	0.000126
C22	C	-0.299997	-1.091025	0.000118
C23	C	-0.329168	-1.039929	-0.087645
C24	C	-0.425960	-1.038698	-0.087715
C25	C	-0.425834	-1.036596	0.087050
C26	C	-0.329336	-1.040384	0.088207
C27	C	-0.205298	-1.092873	0.000113
C28	C	-0.562257	-1.085894	0.000120
C29	C	0.269299	-1.082617	0.000124
C30	C	0.362254	-1.084415	0.000125
C31	C	0.110362	-0.257995	0.000138
C32	C	0.112167	-0.360373	0.000137
N33	N	0.116204	-1.089374	0.218828
N34	N	0.116234	-1.089404	-0.218581
C35	C	0.116215	-1.089384	0.407328
C36	C	0.047564	-1.165179	0.446537
C37	C	0.047748	-1.165454	0.553625
C38	C	0.116224	-1.089394	0.592919
C39	C	0.203729	-1.109992	0.554029
C40	C	0.203322	-1.110531	0.446907
C41	C	0.098146	-0.992762	0.446808
C42	C	0.096167	-0.993417	0.553936
C43	C	0.116234	-1.089398	0.697807
C44	C	0.116210	-1.089382	0.302440
H45	H	-0.328334	-1.231923	0.063037
C46	C	0.165763	-0.916563	0.412548
C47	C	0.140152	-0.835317	0.354582
C48	C	0.207770	-0.759126	0.320318
C49	C	0.300999	-0.764182	0.344019
C50	C	0.326614	-0.845431	0.401988
C51	C	0.258996	-0.921622	0.436253
H52	H	0.071134	-0.831572	0.337034
H53	H	0.188807	-0.698980	0.277405
H54	H	0.351054	-0.707781	0.318654
H55	H	0.395632	-0.849176	0.419536
H56	H	0.277959	-0.981768	0.479166
H57	H	0.058987	-1.236483	0.419607
H58	H	0.031792	-0.977776	0.579355
C59	C	-0.481854	-1.243195	0.085490
C60	C	-0.534461	-1.194506	0.155634
C61	C	-0.572234	-1.247741	0.240649
C62	C	-0.557399	-1.349666	0.255520
C63	C	-0.504789	-1.398361	0.185374
C64	C	-0.467017	-1.345126	0.100359
H65	H	-0.545445	-1.119050	0.144627
H66	H	-0.611179	-1.211693	0.292575
H67	H	-0.585360	-1.389074	0.318453
H68	H	-0.493805	-1.473817	0.196381
H69	H	-0.428072	-1.381174	0.048433
C70	C	0.225654	-1.204083	0.590262
C71	C	0.239762	-1.282073	0.521826
C72	C	0.261680	-1.376167	0.558057
C73	C	0.269491	-1.392270	0.662724
C74	C	0.255383	-1.314278	0.731167
C75	C	0.233464	-1.220184	0.694936
H76	H	0.233980	-1.270155	0.444339
H77	H	0.272124	-1.433902	0.507390
H78	H	0.285717	-1.461924	0.689544
H79	H	0.261165	-1.326196	0.808654
H80	H	0.223020	-1.162449	0.745602
H81	H	-0.452718	-1.074096	-0.153313
H82	H	0.142895	-0.934402	0.580680
H83	H	-0.473047	-1.229148	-0.062101
H84	H	0.035673	-0.972865	0.419797
C85	C	-0.322452	-1.246285	-0.085008
C86	C	-0.390530	-1.288073	-0.152890
C87	C	-0.365568	-1.342449	-0.238032
C88	C	-0.272527	-1.355038	-0.255291
C89	C	-0.204443	-1.313249	-0.187406
C90	C	-0.229405	-1.258873	-0.102265
H91	H	-0.459410	-1.278755	-0.140116
H92	H	-0.415969	-1.373384	-0.288284
H93	H	-0.254049	-1.395291	-0.318318
H94	H	-0.135564	-1.322567	-0.200181
H95	H	-0.179004	-1.227938	-0.052012
C96	C	0.224725	-1.205707	0.413146
C97	C	0.302736	-1.212229	0.352155
C98	C	0.324138	-1.307409	0.318399
C99	C	0.267529	-1.396067	0.345634
C100	C	0.189513	-1.389548	0.406629
C101	C	0.168111	-1.294368	0.440385
H102	H	0.344646	-1.146597	0.331990
H103	H	0.381891	-1.312234	0.273246
H104	H	0.283372	-1.466524	0.320646
H105	H	0.147603	-1.455181	0.426793
H106	H	0.110358	-1.289543	0.485538
H107	H	-0.296478	-0.966751	0.093500
H108	H	-0.309049	-1.075422	-0.152951
C109	C	-0.445776	-0.937456	-0.093119
C110	C	-0.373554	-0.857985	-0.097361
C111	C	-0.393366	-0.756746	-0.102773
C112	C	-0.485400	-0.734979	-0.103943
C113	C	-0.557627	-0.814453	-0.099701
C114	C	-0.537815	-0.915692	-0.094289
H115	H	-0.305420	-0.874096	-0.096495
H116	H	-0.339898	-0.697914	-0.105913
H117	H	-0.500065	-0.660036	-0.107949
H118	H	-0.625761	-0.798342	-0.100567
H119	H	-0.591283	-0.974523	-0.091149
C120	C	0.274416	-1.038760	0.411808
C121	C	0.366431	-1.048154	0.437803
C122	C	0.437514	-0.976386	0.402685
C123	C	0.416581	-0.895225	0.341572
C124	C	0.324562	-0.885828	0.315574
C125	C	0.253479	-0.957596	0.350692
H126	H	0.381930	-1.108237	0.483046
H127	H	0.505633	-0.983343	0.421932
H128	H	0.469201	-0.842098	0.315576
H129	H	0.309063	-0.825745	0.270331
H130	H	0.185360	-0.950639	0.331445
H131	H	-0.297411	-0.965695	-0.090914
C132	C	-0.304183	-1.090636	0.175923
C133	C	-0.257224	-1.177246	0.167645
C134	C	-0.232065	-1.227499	0.255359
C135	C	-0.253865	-1.191142	0.351352
C136	C	-0.300826	-1.104528	0.359635
C137	C	-0.325985	-1.054275	0.271920
H138	H	-0.241084	-1.204163	0.096581
H139	H	-0.197301	-1.291617	0.249227
H140	H	-0.235240	-1.228343	0.416284
H141	H	-0.316966	-1.077610	0.430698
H142	H	-0.360750	-0.990156	0.278052
C143	C	-0.444890	-0.934955	0.087852
C144	C	-0.536631	-0.912354	0.091368
C145	C	-0.555692	-0.810717	0.092163
C146	C	-0.483012	-0.731681	0.089443
C147	C	-0.391264	-0.754279	0.085926
C148	C	-0.372203	-0.855916	0.085131
H149	H	-0.590439	-0.970864	0.093382
H150	H	-0.623610	-0.793989	0.094766
H151	H	-0.497122	-0.656443	0.090031
H152	H	-0.337456	-0.695770	0.083912
H153	H	-0.304285	-0.872644	0.082528
C154	C	-0.040105	-1.148971	0.589157
C155	C	-0.110919	-1.135465	0.520059
C156	C	-0.198777	-1.118987	0.555585
C157	C	-0.215820	-1.116016	0.660209
C158	C	-0.145003	-1.129523	0.729314
C159	C	-0.057146	-1.146001	0.693787
H160	H	-0.098305	-1.137664	0.442604
H161	H	-0.251200	-1.108989	0.504429
H162	H	-0.280857	-1.103819	0.686508
H163	H	-0.157618	-1.127324	0.806768
H164	H	-0.004723	-1.155999	0.744944
C165	C	0.274442	-1.037382	0.588408
C166	C	0.347453	-1.067966	0.645976
C167	C	0.418165	-0.995355	0.680355
C168	C	0.415866	-0.892159	0.657167
C169	C	0.342852	-0.861570	0.599596
C170	C	0.272140	-0.934182	0.565217
H171	H	0.349158	-1.144362	0.663144
H172	H	0.472215	-1.017999	0.722973
H173	H	0.468211	-0.838408	0.682617
H174	H	0.341147	-0.785175	0.582428
H175	H	0.218091	-0.911537	0.522599
H176	H	-0.453880	-1.068781	0.153573
H177	H	0.059344	-1.237165	0.579254
H178	H	-0.017682	-1.153191	0.420765
