data_functionalizedCrystal
_audit_creation_method	'MofGen! by Chris Wilmer'
_symmetry_space_group_name_H-M	'P1'
_symmetry_Int_Tables_number	1
_symmetry_cell_setting	triclinic
loop_
_symmetry_equiv_pos_as_xyz
  x,y,z
_cell_length_a	11.026607
_cell_length_b	9.130313
_cell_length_c	10.967962
_cell_angle_alpha	102.125285
_cell_angle_beta	83.619301
_cell_angle_gamma	90.002827
loop_
_atom_site_label
_atom_site_type_symbol
_atom_site_fract_x
_atom_site_fract_y
_atom_site_fract_z
O1	O	1.614514	-0.010330	-0.523492
O2	O	1.260712	0.004717	-0.463882
O3	O	1.445776	0.042571	-0.313877
O4	O	1.429450	-0.048184	-0.673498
O5	O	1.445763	-0.201025	-0.313869
O6	O	1.260700	-0.238880	-0.463874
O7	O	1.614501	-0.253927	-0.523484
Cu8	Cu	1.437599	-0.268646	-0.493678
Cu9	Cu	1.437614	0.019436	-0.493688
O10	O	1.429437	-0.291781	-0.673489
C11	C	1.215404	-0.114305	-0.452881
C12	C	1.080417	-0.106030	-0.420099
N13	N	1.437597	-0.471267	-0.493673
C14	C	1.444582	-0.067425	-0.267118
C15	C	1.441030	-0.032256	-0.127800
C16	C	1.007364	-0.128873	-0.510617
C17	C	0.867848	-0.120321	-0.476737
C18	C	1.659810	-0.134901	-0.534485
C19	C	1.794797	-0.143167	-0.567268
C20	C	1.519572	-0.531167	-0.427292
C21	C	1.519583	-0.684505	-0.427295
C22	C	1.355643	-0.718030	-0.560069
C23	C	1.355626	-0.564694	-0.560058
N24	N	1.437626	0.222059	-0.493686
C25	C	1.439440	-0.142766	-0.065677
C26	C	1.435768	-0.106420	0.078315
C27	C	1.430630	-0.181783	0.279752
C28	C	1.434178	-0.216946	0.140434
H29	H	1.048108	-0.154768	-0.613194
H30	H	1.439680	0.089262	-0.074385
O31	O	1.434354	0.038585	0.141942
C32	C	1.540258	0.108999	0.100538
H33	H	1.614654	0.020594	0.057859
H34	H	1.573332	0.190062	0.183503
H35	H	1.518427	0.173280	0.026775
O36	O	0.819316	-0.089687	-0.354333
C37	C	0.858486	-0.200723	-0.294480
H38	H	0.885512	-0.307371	-0.367647
H39	H	0.781140	-0.225315	-0.224132
H40	H	0.940475	-0.159271	-0.243261
O41	O	0.843334	-0.174310	-0.689669
C42	C	0.804159	-0.315552	-0.749523
H43	H	0.777118	-0.385274	-0.676354
H44	H	0.881506	-0.375646	-0.819863
H45	H	0.722176	-0.299951	-0.800750
H46	H	1.039673	-0.080106	-0.317521
O47	O	1.440838	-0.287709	-0.129435
C48	C	1.337672	-0.312232	-0.195707
H49	H	1.263206	-0.225285	-0.149547
H50	H	1.302418	-0.429277	-0.194144
H51	H	1.363967	-0.301966	-0.297018
O52	O	1.599232	-0.440609	-0.362688
C53	C	1.671605	-0.526374	-0.304124
H54	H	1.621760	-0.632500	-0.291495
H55	H	1.689322	-0.457939	-0.208461
H56	H	1.762254	-0.558034	-0.365057
H57	H	1.288905	-0.794114	-0.614121
O58	O	1.275948	-0.506753	-0.624656
C59	C	1.203588	-0.622086	-0.683235
H60	H	1.253451	-0.734571	-0.695889
H61	H	1.185857	-0.601907	-0.778888
H62	H	1.112944	-0.623041	-0.622300
O63	O	1.435582	-0.361903	0.076694
C64	C	1.332420	-0.386454	0.010419
H65	H	1.257948	-0.299508	0.056564
H66	H	1.297173	-0.503498	0.012000
H67	H	1.358717	-0.376210	-0.090897
H68	H	1.586332	-0.733270	-0.373240
