data_functionalizedCrystal
_audit_creation_method	'MofGen! by Chris Wilmer'
_symmetry_space_group_name_H-M	'P1'
_symmetry_Int_Tables_number	1
_symmetry_cell_setting	triclinic
loop_
_symmetry_equiv_pos_as_xyz
  x,y,z
_cell_length_a	10.540558
_cell_length_b	15.455313
_cell_length_c	16.974813
_cell_angle_alpha	89.012317
_cell_angle_beta	96.036895
_cell_angle_gamma	92.707085
loop_
_atom_site_label
_atom_site_type_symbol
_atom_site_fract_x
_atom_site_fract_y
_atom_site_fract_z
O1	O	-1.690208	-0.079665	0.107714
O2	O	-1.190208	0.420335	0.607714
O3	O	-1.320684	-0.080405	0.118163
O4	O	-0.820684	0.419595	0.618163
O5	O	-1.515127	-0.071982	-0.001724
O6	O	-1.015127	0.428018	0.498276
O7	O	-1.495765	-0.088088	0.227601
O8	O	-0.995765	0.411912	0.727601
O9	O	-1.504008	0.071801	0.005103
O10	O	-1.004008	0.571801	0.505103
O11	O	-1.309565	0.063377	0.124990
O12	O	-0.809565	0.563377	0.624990
O13	O	-1.679089	0.064118	0.114542
O14	O	-1.179089	0.564118	0.614542
Cu15	Cu	-1.493311	0.076876	0.120389
Cu16	Cu	-0.993311	0.576876	0.620389
Cu17	Cu	-1.506461	-0.093163	0.112315
Cu18	Cu	-1.006461	0.406837	0.612315
O19	O	-1.484646	0.055695	0.234428
O20	O	-0.984646	0.555695	0.734428
C21	C	-1.267831	-0.008460	0.120789
C22	C	-0.767831	0.491540	0.620789
C23	C	-1.126910	-0.008297	0.118436
C24	C	-0.626910	0.491703	0.618436
C25	C	-1.508624	0.001970	-0.027675
C26	C	-1.008624	0.501970	0.472325
C27	C	-1.505799	0.008109	-0.115174
C28	C	-1.005799	0.508109	0.384826
N29	N	-1.484072	0.196473	0.126067
N30	N	-0.984072	0.696473	0.626067
C31	C	-0.944441	-0.001641	0.028482
C32	C	-0.444441	0.498359	0.528482
C33	C	-1.091058	-0.002143	0.030852
C34	C	-0.591058	0.497857	0.530852
C35	C	-1.071126	-0.093360	0.156683
C36	C	-0.571126	0.406640	0.656683
C37	C	-0.924620	-0.093208	0.153685
C38	C	-0.424620	0.406792	0.653685
C39	C	-0.911468	0.070174	0.163230
C40	C	-0.411468	0.570174	0.663230
C41	C	-1.058356	0.071192	0.164094
C42	C	-0.558356	0.571192	0.664094
C43	C	-0.731944	-0.007827	0.111904
C44	C	-0.231944	0.492173	0.611904
C45	C	-0.872872	-0.007986	0.114227
C46	C	-0.372872	0.492014	0.614227
N47	N	-1.515711	-0.212759	0.106631
N48	N	-1.015711	0.287241	0.606631
C49	C	-1.566707	0.245444	0.075154
C50	C	-1.066707	0.745444	0.575154
C51	C	-1.559731	0.335950	0.079456
C52	C	-1.059731	0.835950	0.579456
C53	C	-1.470125	0.377482	0.134675
C54	C	-0.970125	0.877482	0.634675
C55	C	-1.387482	0.328504	0.185590
C56	C	-0.887482	0.828504	0.685590
C57	C	-1.394452	0.238001	0.181284
C58	C	-0.894452	0.738001	0.681284
C59	C	-1.440038	0.647759	0.153240
C60	C	-0.940038	1.147759	0.653240
C61	C	-1.433076	0.738269	0.157544
C62	C	-0.933076	1.238269	0.657544
C63	C	-1.605324	0.745708	0.051408
C64	C	-1.105324	1.245708	0.551408
C65	C	-1.612292	0.655202	0.047110
C66	C	-1.112292	1.155202	0.547110
C67	C	-1.529644	0.606233	0.098023
C68	C	-1.029644	1.106233	0.598023
N69	N	-1.462996	0.469993	0.139075
N70	N	-0.962996	0.969993	0.639075
N71	N	-1.536769	0.513724	0.093618
N72	N	-1.036769	1.013724	0.593618
C73	C	-1.510536	-0.067382	-0.159998
C74	C	-1.010536	0.432618	0.340002
C75	C	-1.507873	-0.061610	-0.242211
C76	C	-1.007873	0.438390	0.257789
C77	C	-1.500482	0.019653	-0.279600
C78	C	-1.000482	0.519653	0.220400
C79	C	-1.495742	0.095149	-0.234770
C80	C	-0.995742	0.595149	0.265230
C81	C	-1.498395	0.089377	-0.152557
C82	C	-0.998395	0.589377	0.347443
C83	C	-1.491887	0.045320	-0.525079
C84	C	-0.991887	0.545320	-0.025079
C85	C	-1.489237	0.051087	-0.607298
C86	C	-0.989237	0.551087	-0.107298
C87	C	-1.501367	-0.105673	-0.614734
C88	C	-1.001367	0.394327	-0.114734
C89	C	-1.504027	-0.111438	-0.532520
C90	C	-1.004027	0.388562	-0.032520
C91	C	-1.499280	-0.035942	-0.487697
C92	C	-0.999280	0.464058	0.012303
N93	N	-1.497764	0.025554	-0.363635
N94	N	-0.997764	0.525554	0.136365
N95	N	-1.501989	-0.041844	-0.403662
N96	N	-1.001989	0.458156	0.096338
C97	C	-1.491148	-0.018259	0.260379
C98	C	-0.991148	0.481741	0.760379
C99	C	-1.493974	-0.024404	0.347878
C100	C	-0.993974	0.475596	0.847878
H101	H	-1.129483	0.059041	0.000485
H102	H	-0.629483	0.559041	0.500485
C103	C	-1.100699	-0.103596	0.243378
C104	C	-0.600699	0.396404	0.743378
N105	N	-1.122978	-0.111305	0.308676
N106	N	-0.622978	0.388695	0.808676
C107	C	-0.900170	0.081186	-0.014487
C108	C	-0.400170	0.581186	0.485513
N109	N	-0.866815	0.143574	-0.046852
N110	N	-0.366815	0.643574	0.453148
H111	H	-1.118760	-0.152408	0.124505
H112	H	-0.618760	0.347592	0.624505
C113	C	-1.518666	-0.156778	-0.118878
C114	C	-1.018666	0.343222	0.381122
N115	N	-1.524784	-0.224115	-0.087909
N116	N	-1.024784	0.275885	0.412091
C117	C	-1.650606	0.389815	0.023428
C118	C	-1.150606	0.889815	0.523428
N119	N	-1.719046	0.430387	-0.018782
N120	N	-1.219046	0.930387	0.481218
C121	C	-1.481103	0.140487	-0.648423
C122	C	-0.981103	0.640487	-0.148423
N123	N	-1.474977	0.207819	-0.679399
N124	N	-0.974977	0.707819	-0.179399
H125	H	-0.901497	-0.152393	0.119618
H126	H	-0.401497	0.347607	0.619618
C127	C	-0.862780	0.156940	0.128924
C128	C	-0.362780	0.656940	0.628924
N129	N	-0.826112	0.222289	0.103075
N130	N	-0.326112	0.722289	0.603075
C131	C	-1.288902	0.374194	0.246324
C132	C	-0.788902	0.874194	0.746324
N133	N	-1.214650	0.408606	0.292070
N134	N	-0.714650	0.908606	0.792070
H135	H	-1.511736	-0.123083	-0.278704
H136	H	-1.011736	0.376917	0.221296
H137	H	-0.876251	-0.101358	0.216494
H138	H	-0.376251	0.398642	0.716494
C139	C	-1.487603	0.184540	-0.275899
C140	C	-0.987603	0.684540	0.224101
N141	N	-1.481475	0.251871	-0.306878
N142	N	-0.981475	0.751871	0.193122
C143	C	-1.506574	-0.188714	-0.664045
C144	C	-1.006574	0.311286	-0.164045
N145	N	-1.510490	-0.251263	-0.701187
N146	N	-1.010490	0.248737	-0.201187
H147	H	-1.488046	0.106795	-0.488596
H148	H	-0.988046	0.606795	0.011404
C149	C	-1.303557	0.184132	0.237299
C150	C	-0.803557	0.684132	0.737299
N151	N	-1.235092	0.143559	0.279491
N152	N	-0.735092	0.643559	0.779491
C153	C	-1.107754	0.156173	0.126372
C154	C	-0.607754	0.656173	0.626372
N155	N	-1.144959	0.220179	0.097953
N156	N	-0.644959	0.720179	0.597953
C157	C	-1.493188	0.172423	-0.103251
C158	C	-0.993188	0.672423	0.396749
N159	N	-1.489263	0.234977	-0.066114
N160	N	-0.989263	0.734977	0.433886
H161	H	-0.919139	-0.057774	-0.008753
H162	H	-0.419139	0.442226	0.491247
C163	C	-1.154112	-0.078627	-0.018043
C164	C	-0.654112	0.421373	0.481957
N165	N	-1.201603	-0.136239	-0.054872
N166	N	-0.701603	0.363761	0.445128
C167	C	-1.696221	0.799583	-0.004598
C168	C	-1.196221	1.299583	0.495402
N169	N	-1.764683	0.840161	-0.046787
N170	N	-1.264683	1.340161	0.453213
C171	C	-1.089643	0.071842	0.250674
C172	C	-0.589643	0.571842	0.750674
N173	N	-1.113217	0.072329	0.315886
N174	N	-0.613217	0.572329	0.815886
H175	H	-0.863507	0.066286	0.226515
H176	H	-0.363507	0.566286	0.726515
H177	H	-1.510047	-0.177611	-0.502085
H178	H	-1.010047	0.322389	-0.002085
H179	H	-1.639678	0.211634	0.030193
H180	H	-1.139678	0.711634	0.530193
H181	H	-1.360104	0.772080	0.202513
H182	H	-0.860104	1.272080	0.702513
C183	C	-1.710859	0.609524	-0.013639
C184	C	-1.210859	1.109524	0.486361
N185	N	-1.785101	0.575119	-0.059396
N186	N	-1.285101	1.075119	0.440604
H187	H	-1.372744	0.607895	0.194696
H188	H	-0.872744	1.107895	0.694696
