data_functionalizedCrystal
_audit_creation_method	'MofGen! by Chris Wilmer'
_symmetry_space_group_name_H-M	'P1'
_symmetry_Int_Tables_number	1
_symmetry_cell_setting	triclinic
loop_
_symmetry_equiv_pos_as_xyz
  x,y,z
_cell_length_a	10.723024
_cell_length_b	9.730223
_cell_length_c	10.723024
_cell_angle_alpha	90.000190
_cell_angle_beta	84.467869
_cell_angle_gamma	89.999921
loop_
_atom_site_label
_atom_site_type_symbol
_atom_site_fract_x
_atom_site_fract_y
_atom_site_fract_z
O1	O	1.657181	0.114277	0.175022
O2	O	1.294029	0.114282	0.191775
O3	O	1.483982	0.114274	0.001822
O4	O	1.467228	0.114285	0.364975
O5	O	1.483980	-0.114306	0.001827
O6	O	1.294027	-0.114298	0.191780
O7	O	1.657179	-0.114303	0.175027
Zn8	Zn	1.475603	-0.150593	0.183404
Zn9	Zn	1.475605	0.150571	0.183398
O10	O	1.467226	-0.114295	0.364979
C11	C	1.247528	-0.000008	0.190558
C12	C	1.108974	-0.000006	0.186911
N13	N	1.475610	-0.356129	0.183408
C14	C	1.033991	-0.000002	0.293198
C15	C	0.890788	-0.000001	0.289431
C16	C	1.559743	-0.428058	0.099325
C17	C	1.559739	-0.571941	0.099310
C18	C	1.391466	-0.571953	0.267471
C19	C	1.391464	-0.428073	0.267479
C20	C	1.643888	-0.356115	0.015254
C21	C	1.728029	-0.428044	-0.068834
C22	C	1.728025	-0.571927	-0.068849
C23	C	1.643881	-0.643881	0.015224
C24	C	1.703680	-0.000010	0.176243
C25	C	1.842234	-0.000003	0.179891
C26	C	1.482762	-0.000014	-0.044675
C27	C	1.479114	-0.000009	-0.183229
N28	N	1.475608	0.356108	0.183384
C29	C	1.585401	-0.000009	-0.258212
C30	C	1.581634	-0.000004	-0.401415
C31	C	1.468447	-0.000004	0.411477
C32	C	1.472094	0.000000	0.550031
H33	H	1.075814	-0.000007	0.386984
H34	H	0.826355	0.000008	0.380421
H35	H	1.381099	-0.000010	-0.385544
H36	H	1.796527	-0.630491	-0.137325
H37	H	0.906659	0.000002	0.088896
H38	H	1.067152	0.000026	0.093125
H39	H	1.322955	-0.369507	0.335945
H40	H	1.679187	-0.000018	-0.216390
O41	O	1.809669	-0.357942	-0.150425
C42	C	1.884099	-0.136283	-0.225086
C43	C	1.791623	-0.215496	-0.132567
H44	H	1.869523	-0.021101	-0.210698
H45	H	1.984236	-0.164438	-0.207974
H46	H	1.866939	-0.164681	-0.325153
H47	H	1.808668	-0.187140	-0.032465
H48	H	1.691518	-0.187335	-0.149788
O49	O	1.367298	0.000179	-0.233257
C50	C	1.231777	0.118654	-0.364227
C51	C	1.358467	0.118594	-0.307684
H52	H	1.224585	0.214396	-0.424393
H53	H	1.224552	0.023062	-0.424586
H54	H	1.152358	0.118585	-0.285479
H55	H	1.437959	0.118711	-0.386351
H56	H	1.365583	0.214177	-0.247293
O57	O	1.309567	-0.641785	0.349013
C58	C	1.093214	-0.685764	0.420194
C59	C	1.185823	-0.606620	0.327754
H60	H	0.993147	-0.657340	0.403057
H61	H	1.107562	-0.800970	0.405744
H62	H	1.110385	-0.657499	0.520288
H63	H	1.168708	-0.634769	0.227623
H64	H	1.171453	-0.491433	0.342313
O65	O	1.690275	0.000182	-0.478145
C66	C	1.883249	0.118648	-0.542028
C67	C	1.760270	0.118592	-0.455037
H68	H	1.939863	0.214386	-0.523395
H69	H	1.940041	0.023052	-0.523350
H70	H	1.860840	0.118584	-0.643817
H71	H	1.782566	0.118704	-0.353218
H72	H	1.703514	0.214179	-0.473824
H73	H	1.643877	-0.761040	0.015196
H74	H	1.643901	-0.238958	0.015261
