data_functionalizedCrystal
_audit_creation_method	'MofGen! by Chris Wilmer'
_symmetry_space_group_name_H-M	'P1'
_symmetry_Int_Tables_number	1
_symmetry_cell_setting	triclinic
loop_
_symmetry_equiv_pos_as_xyz
  x,y,z
_cell_length_a	14.853558
_cell_length_b	11.792241
_cell_length_c	13.330367
_cell_angle_alpha	89.995231
_cell_angle_beta	89.992972
_cell_angle_gamma	83.912275
loop_
_atom_site_label
_atom_site_type_symbol
_atom_site_fract_x
_atom_site_fract_y
_atom_site_fract_z
O1	O	1.196951	0.148131	-0.083412
O2	O	0.934559	0.165794	-0.083416
O3	O	1.072122	-0.008248	-0.083407
O4	O	1.059387	0.322173	-0.083421
O5	O	1.072102	-0.008251	0.083440
O6	O	0.934539	0.165790	0.083431
O7	O	1.196931	0.148127	0.083436
Cu8	Cu	1.065733	0.156958	0.098668
Cu9	Cu	1.065757	0.156963	-0.098648
O10	O	1.059367	0.322169	0.083426
C11	C	0.900957	0.164994	0.000007
C12	C	0.800863	0.162601	0.000005
C13	C	1.071312	-0.050535	0.000016
C14	C	1.068918	-0.176534	0.000015
C15	C	0.753850	0.161481	-0.090947
C16	C	0.753826	0.161463	0.090956
C17	C	0.659784	0.159209	0.090958
C18	C	0.612770	0.158089	0.000006
C19	C	0.659799	0.159223	-0.090948
C20	C	0.612749	0.158064	0.181910
C21	C	0.518701	0.155808	0.181915
C22	C	0.471685	0.154696	0.090962
C23	C	0.518719	0.155832	0.000005
C24	C	0.471706	0.154712	-0.090947
C25	C	0.518738	0.155855	-0.181906
C26	C	0.612783	0.158112	-0.181901
C27	C	0.377640	0.152440	0.090957
C28	C	0.377655	0.152454	-0.090949
C29	C	1.064515	-0.407219	-0.000001
C30	C	1.066961	-0.278849	0.000008
C31	C	1.230533	0.148927	0.000010
C32	C	1.330626	0.151320	0.000005
C33	C	1.060177	0.364457	0.000001
C34	C	1.062572	0.490455	-0.000005
N35	N	1.065723	0.156954	0.237449
N36	N	1.065774	0.156958	-0.237430
C37	C	1.004841	0.233998	0.710068
C38	C	1.126697	0.079919	0.710044
C39	C	1.126687	0.079915	0.605026
C40	C	1.065753	0.156955	0.552524
C41	C	1.004830	0.233999	0.605040
C42	C	1.187614	0.002881	0.552502
C43	C	1.187607	0.002875	0.447477
C44	C	1.126669	0.079911	0.394973
C45	C	1.065743	0.156957	0.447496
C46	C	1.004810	0.233997	0.394993
C47	C	0.943879	0.311039	0.447514
C48	C	0.943892	0.311035	0.552536
C49	C	1.126656	0.079914	0.289951
C50	C	1.004800	0.233998	0.289965
H51	H	0.339382	0.151549	-0.165014
F52	F	0.662844	0.159317	-0.278697
H53	H	0.955229	0.296721	0.752833
F54	F	0.803864	0.162652	0.187748
F55	F	0.879037	0.393035	0.391626
F56	F	1.252466	-0.079101	0.608378
F57	F	1.191504	-0.002067	0.234062
F58	F	0.939940	0.315992	0.234096
F59	F	0.803904	0.162700	-0.187747
F60	F	0.662788	0.159257	0.278700
H61	H	0.480416	0.154876	0.255979
F62	F	1.252452	-0.079120	0.391588
H63	H	0.339349	0.151519	0.165015
H64	H	0.480448	0.154937	-0.255959
H65	H	0.894285	0.373761	0.595304
F66	F	1.191549	-0.002063	0.765920
