data_functionalizedCrystal
_audit_creation_method	'MofGen! by Chris Wilmer'
_symmetry_space_group_name_H-M	'P1'
_symmetry_Int_Tables_number	1
_symmetry_cell_setting	triclinic
loop_
_symmetry_equiv_pos_as_xyz
  x,y,z
_cell_length_a	19.902436
_cell_length_b	14.446369
_cell_length_c	14.446369
_cell_angle_alpha	60.001874
_cell_angle_beta	89.998143
_cell_angle_gamma	60.003692
loop_
_atom_site_label
_atom_site_type_symbol
_atom_site_fract_x
_atom_site_fract_y
_atom_site_fract_z
Zr1	Zr	0.647269	1.013307	-0.121583
O2	O	0.539994	1.206395	-0.269368
O3	O	0.680151	0.820202	-0.076279
O4	O	0.680156	1.013304	-0.269390
O5	O	0.539989	1.013301	0.076072
O6	O	0.790722	1.013322	-0.269408
O7	O	0.539989	1.013292	-0.076257
O8	O	0.790713	0.667898	0.076033
O9	O	0.539998	1.358725	-0.269369
O10	O	0.776693	0.899649	-0.056971
O11	O	0.694179	0.899642	0.056724
O12	O	0.694184	1.126995	-0.170640
O13	O	0.611670	1.126988	-0.056945
Zr14	Zr	0.823608	1.013349	0.121335
Zr15	Zr	0.823608	1.013336	-0.121612
Zr16	Zr	0.647268	1.013321	0.121364
Zr17	Zr	0.647275	1.256257	-0.121584
Zr18	Zr	0.823602	0.770399	0.121336
O19	O	0.790726	1.206454	0.076030
O20	O	0.790726	1.206435	-0.269409
O21	O	0.539994	1.206414	0.076071
O22	O	0.930883	0.820262	0.269120
O23	O	0.930883	0.820243	-0.076319
O24	O	0.680151	0.820221	0.269161
O25	O	0.930888	1.013356	-0.076320
O26	O	0.790721	1.013352	0.269142
O27	O	0.680155	1.013334	0.269160
O28	O	0.930888	1.013364	0.076009
O29	O	0.680164	1.358748	-0.269392
O30	O	0.790713	0.667908	0.269143
O31	O	0.930879	0.667931	0.269121
O32	O	0.930879	0.667920	0.076010
O33	O	0.539997	1.358736	-0.076259
O34	O	0.680164	1.358759	-0.076281
O35	O	0.776692	0.899662	0.170392
O36	O	0.859207	0.899669	0.056697
O37	O	0.776698	1.127015	-0.056972
O38	O	0.694184	1.127007	0.056723
C39	C	0.735431	0.709435	-0.000123
C40	C	0.735429	0.606296	-0.000122
C41	C	0.683383	0.567003	0.071595
C42	C	0.683622	0.459368	0.071975
C43	C	0.825128	0.371596	0.051781
C44	C	0.824832	0.478842	0.052326
C45	C	0.698520	0.654003	-0.123787
C46	C	0.696720	0.547830	-0.123603
C47	C	0.514864	1.013292	-0.000088
C48	C	0.440004	1.013280	-0.000076
C49	C	0.167955	1.013345	-0.000140
C50	C	0.248493	0.869930	0.071223
C51	C	0.326396	0.869841	0.071625
C52	C	0.302922	1.013312	-0.000108
C53	C	0.248804	1.084539	0.052192
C54	C	0.171242	1.083622	0.052714
C55	C	0.170102	1.086558	-0.123833
C56	C	0.248980	1.083863	-0.123638
C57	C	0.379197	1.013301	-0.000091
C58	C	0.091679	1.013360	-0.000153
C59	C	0.956012	1.013364	-0.000160
C60	C	1.030873	1.013376	-0.000172
C61	C	0.735439	1.013312	-0.304013
C62	C	0.735439	1.013306	-0.407151
C63	C	0.735446	1.317222	-0.000126
C64	C	0.735448	1.420360	-0.000126
C65	C	0.787736	0.869934	-0.482141
C66	C	0.787509	0.869837	-0.374812
C67	C	0.645783	1.084517	-0.481696
C68	C	0.646069	1.083607	-0.588555
C69	C	0.772073	1.086580	-0.590149
C70	C	0.773887	1.083878	-0.481478
C71	C	0.735438	1.013345	0.303765
C72	C	0.735438	1.013351	0.406903
C73	C	0.956005	0.709471	-0.000158
C74	C	1.030863	0.606344	-0.000170
C75	C	0.735431	0.709451	0.303767
C76	C	0.735428	0.606318	0.406905
C77	C	0.956005	0.709487	0.303731
C78	C	1.030863	0.606366	0.406857
C79	C	0.514872	1.317169	-0.303979
C80	C	0.440014	1.420290	-0.407105
C81	C	0.514872	1.317186	-0.000090
C82	C	0.440013	1.420312	-0.000078
C83	C	0.735446	1.317205	-0.304015
C84	C	0.735449	1.420338	-0.407153
C85	C	1.022946	0.557904	-0.059519
C86	C	1.093277	0.461020	-0.059552
C87	C	1.171524	0.412569	-0.000230
C88	C	1.179439	0.461019	0.059121
C89	C	1.109110	0.557908	0.059148
C90	C	1.109096	0.557943	0.395938
C91	C	1.179440	0.461064	0.492827
C92	C	1.171549	0.412603	0.600632
C93	C	1.093308	0.461035	0.611549
C94	C	1.022966	0.557919	0.514661
C95	C	0.361781	1.468725	-0.396187
C96	C	0.291437	1.565634	-0.493075
C97	C	0.299328	1.614101	-0.600881
C98	C	0.377569	1.565662	-0.611797
C99	C	0.447911	1.468761	-0.514910
C100	C	0.447930	1.468762	0.059261
C101	C	0.377600	1.565674	0.059267
C102	C	0.299353	1.614127	-0.000059
C103	C	0.291437	1.565674	-0.059405
C104	C	0.361767	1.468770	-0.059418
C105	C	0.683132	0.460000	0.481896
C106	C	0.683355	0.566918	0.374567
C107	C	0.825085	0.479484	0.481444
C108	C	0.824801	0.372113	0.588304
C109	C	0.698802	0.547059	0.589909
C110	C	0.696985	0.655525	0.481238
H111	H	0.854871	0.279166	0.141887
H112	H	0.511637	1.429319	0.107579
H113	H	1.228784	0.333674	-0.000259
N114	N	0.353258	1.416457	-0.279918
H115	H	0.293019	1.461860	-0.287720
H116	H	0.380571	1.433320	-0.237126
N117	N	0.298408	1.019041	0.171613
H118	H	0.271339	0.985725	0.225986
H119	H	0.301181	1.084338	0.176724
N120	N	0.386075	1.617930	-0.728075
H121	H	0.417146	1.658147	-0.737177
H122	H	0.329611	1.686608	-0.787716
N123	N	0.879014	0.508331	-0.012427
H124	H	0.936961	0.426248	0.024968
H125	H	0.879175	0.578197	-0.012559
H126	H	0.739756	1.188546	-0.506988
H127	H	0.736242	0.680273	-0.177467
N128	N	0.378581	0.795827	0.025155
H129	H	0.351069	0.762963	0.004226
H130	H	0.434535	0.719114	0.084580
N131	N	0.858207	1.025796	-0.595605
H132	H	0.880535	1.074266	-0.593595
H133	H	0.856998	1.031440	-0.668214
H134	H	0.384061	1.605108	0.107599
H135	H	1.243157	0.421556	0.107419
N136	N	0.094912	1.226504	-0.194600
H137	H	0.059610	1.242459	-0.146831
H138	H	0.062316	1.242970	-0.261199
H139	H	0.731121	0.687657	0.506754
N140	N	0.753851	0.795333	-0.303553
H141	H	0.739099	0.762434	-0.341825
H142	H	0.703108	0.855156	-0.294760
H143	H	1.115567	0.597335	0.107483
N144	N	1.117619	0.610190	0.279670
H145	H	1.177858	0.564803	0.287472
H146	H	1.090310	0.707466	0.236874
N147	N	0.607228	1.016545	-0.588198
H148	H	0.590082	0.987850	-0.518763
H149	H	0.648328	0.937547	-0.587085
N150	N	0.938587	0.610136	0.526446
H151	H	0.944270	0.564725	0.609444
H152	H	0.907529	0.593250	0.488841
N153	N	1.263822	0.408836	0.481038
H154	H	1.258140	0.454233	0.398040
H155	H	1.294885	0.311561	0.518659
H156	H	0.853529	0.813966	-0.320549
H157	H	0.854127	0.281367	0.588025
H158	H	0.854358	0.438036	0.143314
H159	H	0.709246	0.370430	0.163198
H160	H	0.355309	1.429325	-0.107736
H161	H	0.617335	0.656252	0.320309
H162	H	0.242093	1.693032	-0.000039
N163	N	0.741681	0.519687	-0.200290
H164	H	0.801233	0.483093	-0.169577
H165	H	0.715391	0.603346	-0.278940
H166	H	0.227719	1.605139	-0.107707
N167	N	0.609202	0.600075	-0.174984
H168	H	0.594693	0.541426	-0.118525
H169	H	0.603669	0.602271	-0.245671
N170	N	0.595454	0.509307	0.478809
H171	H	0.588782	0.506465	0.549304
H172	H	0.581994	0.452079	0.475386
H173	H	0.250187	0.813632	0.036327
H174	H	0.865612	0.343094	0.002029
H175	H	0.708305	0.370341	0.480857
N176	N	1.247422	0.308106	0.705127
H177	H	1.298177	0.284788	0.681842
H178	H	1.247386	0.227756	0.751729
H179	H	0.227736	1.605057	-0.484164
N180	N	1.084803	0.408759	0.727828
H181	H	1.141240	0.340032	0.787539
H182	H	1.053707	0.368605	0.736817
N183	N	0.223455	1.718615	-0.705376
H184	H	0.172700	1.741933	-0.682090
H185	H	0.223487	1.684816	-0.751978
N186	N	0.716993	0.517321	0.303291
H187	H	0.731741	0.425833	0.341557
H188	H	0.767736	0.516033	0.294481
N189	N	0.938557	0.610147	-0.123505
H190	H	0.944226	0.564752	-0.161106
H191	H	0.907499	0.707421	-0.183153
N192	N	0.166153	1.025759	-0.181709
H193	H	0.113454	1.031387	-0.185768
H194	H	0.214784	0.930949	-0.137148
H195	H	0.511610	1.429326	-0.523813
N196	N	0.879227	0.332417	0.692397
H197	H	0.857545	0.411044	0.694404
H198	H	0.937126	0.297158	0.689909
H199	H	0.865745	0.501739	0.508668
N200	N	0.864213	0.428405	0.413090
H201	H	0.824014	0.487213	0.333856
H202	H	0.879491	0.336739	0.450471
H203	H	0.249240	0.813925	0.161920
N204	N	0.612673	0.599464	0.595385
H205	H	0.596528	0.541633	0.599832
H206	H	0.573113	0.691423	0.525208
N207	N	0.298421	1.015105	-0.175415
H208	H	0.355522	0.938572	-0.119098
H209	H	0.302301	1.078359	-0.246027
N210	N	0.609481	0.775340	0.413167
H211	H	0.594796	0.797669	0.334503
H212	H	0.604094	0.851337	0.407800
N213	N	0.875414	0.795375	-0.479053
H214	H	0.888932	0.716178	-0.475671
H215	H	0.913909	0.766248	-0.409874
N216	N	0.591643	1.222980	-0.692636
H217	H	0.545646	1.234471	-0.737126
H218	H	0.625308	1.243019	-0.741464
H219	H	0.736716	0.522280	0.668118
H220	H	0.734149	1.192241	-0.668342
H221	H	0.839943	1.031945	-0.430071
H222	H	0.762558	0.813918	-0.481103
N223	N	0.591919	1.224249	-0.517767
H224	H	0.625196	1.242778	-0.486054
H225	H	0.544232	1.237792	-0.488157
H226	H	0.617593	0.495896	0.037193
H227	H	0.617179	0.655699	0.036999
N228	N	0.716992	0.519499	0.191718
H229	H	0.765784	0.523321	0.199883
H230	H	0.734769	0.426300	0.245746
H231	H	0.365489	0.813453	0.162879
H232	H	0.633458	0.747575	-0.167187
H233	H	0.171435	1.033012	0.143736
H234	H	0.616246	1.035041	-0.430089
N235	N	0.095684	1.222985	-0.011671
H236	H	0.094233	1.273739	-0.092303
H237	H	0.097480	1.265014	0.026075
N238	N	0.222622	1.224272	-0.013324
H239	H	0.189445	1.273040	-0.094658
H240	H	0.273015	1.225123	-0.010906
N241	N	1.084734	0.408757	-0.123552
H242	H	1.111984	0.425632	-0.183289
H243	H	1.024478	0.454166	-0.161043
H244	H	0.230459	1.188533	-0.181282
