data_functionalizedCrystal
_audit_creation_method	'MofGen! by Chris Wilmer'
_symmetry_space_group_name_H-M	'P1'
_symmetry_Int_Tables_number	1
_symmetry_cell_setting	triclinic
loop_
_symmetry_equiv_pos_as_xyz
  x,y,z
_cell_length_a	8.597213
_cell_length_b	11.792241
_cell_length_c	7.088929
_cell_angle_alpha	83.733449
_cell_angle_beta	88.663806
_cell_angle_gamma	84.765068
loop_
_atom_site_label
_atom_site_type_symbol
_atom_site_fract_x
_atom_site_fract_y
_atom_site_fract_z
O1	O	2.034151	0.205124	-0.494056
O2	O	2.367484	0.538457	-0.160723
O3	O	2.700818	0.871791	0.172611
O4	O	1.584775	0.212771	-0.420039
O5	O	1.918109	0.546105	-0.086705
O6	O	2.251442	0.879438	0.246628
O7	O	1.820370	0.043980	-0.458830
O8	O	2.153703	0.377313	-0.125497
O9	O	2.487036	0.710646	0.207836
O10	O	1.798557	0.373916	-0.455264
O11	O	2.131890	0.707249	-0.121931
O12	O	2.465223	1.040582	0.211402
O13	O	1.851854	0.021370	-0.146039
O14	O	2.185187	0.354703	0.187294
O15	O	2.518521	0.688036	0.520627
O16	O	1.616260	0.190161	-0.107247
O17	O	1.949593	0.523495	0.226086
O18	O	2.282926	0.856828	0.559419
O19	O	2.065635	0.182514	-0.181265
O20	O	2.398969	0.515848	0.152068
O21	O	2.732302	0.849181	0.485402
Cu22	Cu	1.843822	0.184273	-0.115696
Cu23	Cu	2.177156	0.517607	0.217637
Cu24	Cu	2.510489	0.850940	0.550971
Cu25	Cu	1.806588	0.211012	-0.485608
Cu26	Cu	2.139922	0.544346	-0.152274
Cu27	Cu	2.473255	0.877679	0.181059
O28	O	1.830041	0.351306	-0.142473
O29	O	2.163374	0.684639	0.190860
O30	O	2.496708	1.017972	0.524193
C31	C	1.542988	0.199386	-0.254167
C32	C	1.876321	0.532719	0.079166
C33	C	2.209654	0.866052	0.412500
C34	C	1.371566	0.193172	-0.225932
C35	C	1.704900	0.526506	0.107402
C36	C	2.038233	0.859839	0.440735
C37	C	1.834742	-0.009642	-0.302210
C38	C	2.168075	0.323692	0.031124
C39	C	2.501408	0.657025	0.364457
C40	C	1.830641	-0.135732	-0.301536
C41	C	2.163974	0.197602	0.031797
C42	C	2.497308	0.530935	0.365131
C43	C	1.823097	-0.366582	-0.300326
C44	C	2.156431	-0.033249	0.033008
C45	C	2.489764	0.300084	0.366341
C46	C	1.827289	-0.238120	-0.300999
C47	C	2.160622	0.095213	0.032335
C48	C	2.493955	0.428546	0.365668
C49	C	2.107423	0.195900	-0.347141
C50	C	2.440756	0.529233	-0.013807
C51	C	2.774089	0.862567	0.319526
C52	C	2.278843	0.202114	-0.375388
C53	C	2.612176	0.535448	-0.042055
C54	C	2.945509	0.868781	0.291278
C55	C	1.815669	0.404928	-0.299098
C56	C	2.149002	0.738261	0.034235
C57	C	2.482335	1.071594	0.367569
C58	C	1.819768	0.531018	-0.299784
C59	C	2.153102	0.864352	0.033549
C60	C	2.486435	1.197685	0.366883
N61	N	1.870022	0.165466	0.144478
N62	N	2.203355	0.498799	0.477812
N63	N	2.536689	0.832133	0.811145
N64	N	1.780401	0.229811	-0.745784
N65	N	2.113734	0.563144	-0.412450
N66	N	2.447068	0.896477	-0.079117
H67	H	1.319801	0.180767	-0.076371
H68	H	1.653134	0.514100	0.256962
H69	H	1.986467	0.847433	0.590296
F70	F	1.991449	0.078316	0.231209
F71	F	2.324782	0.411650	0.564542
F72	F	2.658115	0.744983	0.897876
F73	F	1.658996	0.316967	0.167490
F74	F	1.992329	0.650300	0.500824
F75	F	2.325662	0.983634	0.834157
H76	H	1.330599	0.214532	-0.524939
H77	H	1.663933	0.547866	-0.191605
H78	H	1.997266	0.881199	0.141728
