data_functionalizedCrystal
_audit_creation_method	'MofGen! by Chris Wilmer'
_symmetry_space_group_name_H-M	'P1'
_symmetry_Int_Tables_number	1
_symmetry_cell_setting	triclinic
loop_
_symmetry_equiv_pos_as_xyz
  x,y,z
_cell_length_a	10.654545
_cell_length_b	10.723024
_cell_length_c	9.730223
_cell_angle_alpha	89.996766
_cell_angle_beta	89.997167
_cell_angle_gamma	84.475474
loop_
_atom_site_label
_atom_site_type_symbol
_atom_site_fract_x
_atom_site_fract_y
_atom_site_fract_z
O1	O	1.667816	0.175248	-0.114272
O2	O	2.167816	0.675248	0.385728
O3	O	1.302334	0.191953	-0.114278
O4	O	1.802334	0.691953	0.385722
O5	O	1.493505	0.002025	-0.114270
O6	O	1.993505	0.502025	0.385730
O7	O	1.476645	0.365175	-0.114280
O8	O	1.976645	0.865175	0.385720
O9	O	1.493493	0.002020	0.114310
O10	O	1.993493	0.502020	0.614310
O11	O	1.302322	0.191947	0.114302
O12	O	1.802322	0.691947	0.614302
O13	O	1.667804	0.175243	0.114308
O14	O	2.167804	0.675243	0.614308
Zn15	Zn	1.485061	0.183594	0.150597
Zn16	Zn	1.985061	0.683594	0.650597
Zn17	Zn	1.485077	0.183601	-0.150567
Zn18	Zn	1.985077	0.683601	0.349433
O19	O	1.476632	0.365170	0.114300
O20	O	1.976632	0.865170	0.614300
C21	C	1.255530	0.190725	0.000011
C22	C	1.755530	0.690725	0.500011
C23	C	1.116087	0.187059	0.000009
C24	C	1.616087	0.687059	0.500009
C25	C	1.050576	0.185330	0.124609
C26	C	1.550576	0.685330	0.624609
C27	C	0.919557	0.181864	0.124609
C28	C	1.419557	0.681864	0.624609
C29	C	0.919571	0.181862	-0.124601
C30	C	1.419571	0.681862	0.375399
C31	C	1.050589	0.185318	-0.124600
C32	C	1.550589	0.685318	0.375400
C33	C	1.492272	-0.044477	0.000018
C34	C	1.992272	0.455523	0.500018
C35	C	1.488601	-0.183032	0.000014
C36	C	1.988601	0.316968	0.500014
C37	C	1.595571	-0.258000	0.000013
C38	C	2.095571	0.242000	0.500013
C39	C	1.591779	-0.401204	0.000008
C40	C	2.091779	0.098796	0.500008
C41	C	1.714608	0.176471	0.000015
C42	C	2.214608	0.676471	0.500015
C43	C	1.854051	0.180137	0.000008
C44	C	2.354051	0.680137	0.500008
C45	C	1.477866	0.411672	0.000008
C46	C	1.977866	0.911672	0.500008
C47	C	1.481537	0.550227	0.000004
C48	C	1.981537	1.050227	0.500004
N49	N	1.485059	0.183589	0.356133
N50	N	1.985059	0.683589	0.856133
N51	N	1.485089	0.183597	-0.356103
N52	N	1.985089	0.683597	0.143897
C53	C	1.569739	0.099525	0.428063
C54	C	2.069739	0.599525	0.928063
C55	C	1.569751	0.099525	0.571946
C56	C	2.069751	0.599525	1.071946
C57	C	1.400400	0.267665	0.571957
C58	C	1.900400	0.767665	1.071957
C59	C	1.400383	0.267657	0.428077
C60	C	1.900383	0.767657	0.928077
H61	H	0.866226	0.180446	-0.226053
H62	H	1.366226	0.680446	0.273947
Br63	Br	1.752899	-0.188288	0.000001
Br64	Br	2.252899	0.311712	0.500001
H65	H	1.103930	0.186723	-0.226070
H66	H	1.603930	0.686723	0.273930
Br67	Br	1.684653	-0.014570	0.330430
Br68	Br	2.184653	0.485430	0.830430
Br69	Br	1.744419	-0.508568	0.000024
Br70	Br	2.244419	-0.008568	0.500024
H71	H	1.331460	0.336113	0.630548
H72	H	1.831460	0.836113	1.130548
H73	H	0.866224	0.180457	0.226071
H74	H	1.366224	0.680457	0.726071
H75	H	1.394214	-0.224867	0.000003
H76	H	1.894214	0.275133	0.500003
Br77	Br	1.328892	-0.342416	0.000021
Br78	Br	1.828892	0.157584	0.500021
H79	H	1.638703	0.031071	0.630507
H80	H	2.138703	0.531071	1.130507
Br81	Br	1.285442	0.381742	0.330447
Br82	Br	1.785442	0.881742	0.830447
H83	H	1.103901	0.186747	0.226074
H84	H	1.603901	0.686747	0.726074
