data_functionalizedCrystal
_audit_creation_method	'MofGen! by Chris Wilmer'
_symmetry_space_group_name_H-M	'P1'
_symmetry_Int_Tables_number	1
_symmetry_cell_setting	triclinic
loop_
_symmetry_equiv_pos_as_xyz
  x,y,z
_cell_length_a	6.817900
_cell_length_b	16.418055
_cell_length_c	16.015572
_cell_angle_alpha	77.932096
_cell_angle_beta	104.485554
_cell_angle_gamma	103.389726
loop_
_atom_site_label
_atom_site_type_symbol
_atom_site_fract_x
_atom_site_fract_y
_atom_site_fract_z
V1	V	-3.991464	-0.033757	-0.269480
O2	O	-3.980162	0.086040	-0.264042
O3	O	-3.942728	-0.148124	-0.267934
O4	O	-3.927893	0.003804	-0.386875
O5	O	-3.995100	-0.066939	-0.144278
V6	V	-4.477101	-0.023804	-0.254469
O7	O	-4.248084	-0.055588	-0.302409
O8	O	-4.670677	-0.001973	-0.221541
O9	O	-4.302629	0.090563	-0.256016
O10	O	-4.605799	-0.143601	-0.259907
O11	O	-4.590861	0.009378	-0.379671
O12	O	-4.317464	-0.061365	-0.137075
C13	C	-3.788138	-0.177161	-0.263759
C14	C	-3.829477	-0.270420	-0.263277
C15	C	-4.144928	-0.575551	-0.266081
C16	C	-4.106099	-0.487928	-0.266520
C17	C	-3.742997	-0.482020	-0.257869
C18	C	-3.781825	-0.569643	-0.257423
C19	C	-3.982797	-0.616406	-0.261534
C20	C	-3.905140	-0.441159	-0.262418
C21	C	-3.863038	-0.346154	-0.262894
C22	C	-4.024902	-0.711417	-0.261057
C23	C	-3.769214	0.016638	-0.415479
C24	C	-3.798520	0.046591	-0.511451
C25	C	-4.086375	-0.219272	-0.889772
C26	C	-4.113916	-0.191099	-0.979949
C27	C	-4.037356	-0.045343	-0.954865
C28	C	-4.009797	-0.073504	-0.864684
C29	C	-4.034312	-0.160469	-0.832146
C30	C	-3.957735	-0.014701	-0.807057
C31	C	-3.930189	-0.042860	-0.716885
C32	C	-3.954706	-0.129821	-0.684339
C33	C	-4.006767	-0.188628	-0.741973
C34	C	-3.933234	0.072264	-0.839598
C35	C	-3.881172	0.131067	-0.781971
C36	C	-3.853611	0.102908	-0.691796
C37	C	-3.878128	0.015947	-0.659251
C38	C	-3.801550	0.161715	-0.634162
C39	C	-3.774005	0.133556	-0.543990
C40	C	-3.850582	-0.012212	-0.569078
C41	C	-4.120562	0.119595	-0.260188
C42	C	-4.058460	0.212854	-0.260675
C43	C	-4.139486	-0.074203	-0.108466
C44	C	-4.089419	-0.104152	-0.012493
H45	H	-4.238126	-0.454668	-0.270220
Cl46	Cl	-3.577981	-0.621009	-0.251697
Cl47	Cl	-4.179377	-0.265033	-1.052393
Cl48	Cl	-3.490355	-0.423228	-0.252699
Cl49	Cl	-4.006541	0.063980	-0.995779
Cl50	Cl	-3.881354	-0.121541	-0.528165
H51	H	-3.731612	0.181440	-0.497068
H52	H	-4.308570	-0.613623	-0.269426
Cl53	Cl	-3.920082	-0.165223	-0.570978
H54	H	-3.955634	0.095188	-0.913022
H55	H	-4.026702	-0.259443	-0.715478
H56	H	-4.106310	-0.290087	-0.863278
Cl57	Cl	-3.850357	0.240390	-0.822886
Cl58	Cl	-3.770762	0.271038	-0.675080
