data_functionalizedCrystal
_audit_creation_method	'MofGen! by Chris Wilmer'
_symmetry_space_group_name_H-M	'P1'
_symmetry_Int_Tables_number	1
_symmetry_cell_setting	triclinic
loop_
_symmetry_equiv_pos_as_xyz
  x,y,z
_cell_length_a	14.908558
_cell_length_b	18.101397
_cell_length_c	18.101398
_cell_angle_alpha	90.007564
_cell_angle_beta	93.295199
_cell_angle_gamma	86.715458
loop_
_atom_site_label
_atom_site_type_symbol
_atom_site_fract_x
_atom_site_fract_y
_atom_site_fract_z
Zn1	Zn	1.379063	-0.360478	0.483911
Zn2	Zn	1.379003	-0.484271	0.360061
Zn3	Zn	1.228241	-0.353291	0.352954
Zn4	Zn	1.228171	-0.477118	0.476731
O5	O	1.303620	-0.418790	0.418414
O6	O	1.505299	-0.382901	0.473461
O7	O	1.359008	-0.466882	0.255486
O8	O	1.248303	-0.250614	0.370356
O9	O	1.505254	-0.473851	0.382469
O10	O	1.359111	-0.255894	0.466570
O11	O	1.248244	-0.370651	0.250264
O12	O	1.101988	-0.363715	0.363394
O13	O	1.248183	-0.461660	0.581316
O14	O	1.101937	-0.454691	0.454332
O15	O	1.359043	-0.375964	0.586591
O16	O	1.358940	-0.586953	0.375507
O17	O	1.248124	-0.581697	0.461224
C18	C	1.069229	-0.407647	0.407313
C19	C	0.968956	-0.402899	0.402582
C20	C	1.303542	-0.611196	0.418375
C21	C	1.303592	-0.693513	0.418387
C22	C	0.827626	-0.348770	0.348644
C23	C	0.921841	-0.353228	0.353087
C24	C	0.921848	-0.448113	0.447639
C25	C	0.827632	-0.443655	0.443197
C26	C	0.780524	-0.393982	0.393697
C27	C	0.686307	-0.389529	0.389251
C28	C	0.686315	-0.484409	0.483806
C29	C	0.780530	-0.488867	0.488249
C30	C	1.303707	-0.992609	0.418460
C31	C	1.373235	-0.964551	0.364366
C32	C	1.373476	-0.878943	0.364526
C33	C	1.303650	-0.844224	0.418423
C34	C	1.329397	-0.876485	0.497700
C35	C	1.329935	-0.962155	0.497413
C36	C	1.208246	-0.956578	0.393942
C37	C	1.208718	-0.870950	0.392222
C38	C	1.303616	-0.760363	0.418407
C39	C	1.303743	-1.076470	0.418481
C40	C	1.538925	-0.429976	0.429559
C41	C	1.639199	-0.434742	0.434308
C42	C	1.303612	-0.418816	0.611576
C43	C	1.303608	-0.418827	0.693890
C44	C	1.303722	-0.225632	0.418471
C45	C	1.303765	-0.143320	0.418496
C46	C	1.303602	-0.418815	0.844598
C47	C	1.233854	-0.472730	0.872633
C48	C	1.233577	-0.472542	0.958238
C49	C	1.303595	-0.418804	0.992980
C50	C	1.278142	-0.339492	0.960698
C51	C	1.277639	-0.339805	0.875029
C52	C	1.398977	-0.443536	0.880673
C53	C	1.398462	-0.445227	0.966299
C54	C	1.303593	-0.418794	1.076839
C55	C	1.303602	-0.418820	0.760738
C56	C	1.303612	-0.418786	1.226003
C57	C	1.303588	-0.418792	1.143688
H58	H	0.789270	-0.308327	0.308338
C59	C	1.343299	-0.283336	0.850126
C60	C	1.396020	-0.238098	0.908186
C61	C	1.461671	-0.181625	0.883286
C62	C	1.474602	-0.170389	0.800327
C63	C	1.421880	-0.215628	0.742263
C64	C	1.356228	-0.272102	0.767162
H65	H	1.386449	-0.246414	0.969601
H66	H	1.500699	-0.148136	0.926270
H67	H	1.523201	-0.128584	0.781895
H68	H	1.431450	-0.207313	0.680847
H69	H	1.317200	-0.305591	0.724179
C70	C	1.430370	-0.520668	0.852980
C71	C	1.517732	-0.530710	0.811736
C72	C	1.549113	-0.607844	0.784041
C73	C	1.493133	-0.674937	0.797591
C74	C	1.405765	-0.664897	0.838837
C75	C	1.374384	-0.587763	0.866531
H76	H	1.559177	-0.481042	0.801704
H77	H	1.613789	-0.615276	0.753508
H78	H	1.516363	-0.732036	0.777090
H79	H	1.364320	-0.714565	0.848869
H80	H	1.309708	-0.580331	0.897064
C81	C	1.176596	-0.984296	0.316877
C82	C	1.237036	-1.040013	0.275223
C83	C	1.205398	-1.067732	0.198156
C84	C	1.113321	-1.039733	0.162743
C85	C	1.052875	-0.984013	0.204397
C86	C	1.084513	-0.956295	0.281464
H87	H	1.305202	-1.060742	0.301438
H88	H	1.250144	-1.108979	0.167321
H89	H	1.089901	-1.060252	0.105693
H90	H	0.984709	-0.963284	0.178183
H91	H	1.039767	-0.915047	0.312300
H92	H	0.960188	-0.316409	0.316403
C93	C	1.351754	-0.991399	0.284924
C94	C	1.260239	-0.969099	0.244952
C95	C	1.238754	-0.995954	0.165508
C96	C	1.308783	-1.045110	0.126036
C97	C	1.400304	-1.067413	0.166007
C98	C	1.421789	-1.040557	0.245451
H99	H	1.208394	-0.932709	0.274172
H100	H	1.171004	-0.979444	0.135919
H101	H	1.292879	-1.064990	0.067227
H102	H	1.452149	-1.103803	0.136787
H103	H	1.489539	-1.057067	0.275040
C104	C	1.264506	-0.987075	0.554056
C105	C	1.299503	-1.037412	0.619281
C106	C	1.234084	-1.062326	0.675930
C107	C	1.133669	-1.036903	0.667355
C108	C	1.098667	-0.986563	0.602128
C109	C	1.164086	-0.961649	0.545478
H110	H	1.373841	-1.056234	0.625631
H111	H	1.259995	-1.099591	0.724216
H112	H	1.085242	-1.055345	0.709291
H113	H	1.024329	-0.967740	0.595778
H114	H	1.138175	-0.924384	0.497193
C115	C	1.469001	-0.855728	0.386932
C116	C	1.548287	-0.880369	0.340043
C117	C	1.643817	-0.857155	0.362454
C118	C	1.660060	-0.809300	0.431753
C119	C	1.580771	-0.784657	0.478646
C120	C	1.485241	-0.807870	0.456236
H121	H	1.536266	-0.915796	0.288740
H122	H	1.702512	-0.875398	0.327740
H123	H	1.730776	-0.792116	0.448343
H124	H	1.592792	-0.749229	0.529950
H125	H	1.426547	-0.789627	0.490949
H126	H	0.960219	-0.488550	0.487943
C127	C	1.255094	-0.551748	0.987742
C128	C	1.338253	-0.568605	1.040767
C129	C	1.359793	-0.647795	1.070312
C130	C	1.298173	-0.710127	1.046832
C131	C	1.215008	-0.693270	0.993804
C132	C	1.193468	-0.614081	0.964259
H133	H	1.383873	-0.522462	1.058151
H134	H	1.421357	-0.660272	1.109567
H135	H	1.314117	-0.768747	1.068703
H136	H	1.169388	-0.739414	0.976420
H137	H	1.131904	-0.601603	0.925004
C138	C	0.832351	-0.543506	0.542695
C139	C	0.819420	-0.536998	0.626285
C140	C	0.871238	-0.591641	0.680730
C141	C	0.935987	-0.652792	0.651585
C142	C	0.948922	-0.659303	0.567991
C143	C	0.897104	-0.604660	0.513546
H144	H	0.771486	-0.491728	0.647863
H145	H	0.861662	-0.586822	0.742612
H146	H	0.974346	-0.693243	0.691889
H147	H	0.996856	-0.704573	0.546412
H148	H	0.906679	-0.609480	0.451664
C149	C	1.138258	-0.980657	0.447085
C150	C	1.039013	-0.952648	0.434912
C151	C	0.969034	-0.976732	0.488059
C152	C	0.998300	-1.028824	0.553379
C153	C	1.097549	-1.056836	0.565555
C154	C	1.167528	-1.032752	0.512409
H155	H	1.017345	-0.914084	0.386555
H156	H	0.895563	-0.955995	0.479044
H157	H	0.946497	-1.046652	0.592721
H158	H	1.119218	-1.095400	0.613912
H159	H	1.240999	-1.053489	0.521423
C160	C	1.424200	-0.993555	0.524753
C161	C	1.479928	-1.044287	0.474180
C162	C	1.574196	-1.075682	0.501519
C163	C	1.612736	-1.056345	0.579430
C164	C	1.557008	-1.005611	0.630008
C165	C	1.462740	-0.974216	0.602670
H166	H	1.451399	-1.058603	0.416501
H167	H	1.615450	-1.113239	0.464077
H168	H	1.682519	-1.079586	0.599668
H169	H	1.585537	-0.991295	0.687688
H170	H	1.421486	-0.936659	0.640112
C171	C	1.472389	-0.396558	0.998690
C172	C	1.447798	-0.331679	1.050163
C173	C	1.521723	-0.283002	1.082553
C174	C	1.620237	-0.299205	1.063470
C175	C	1.644832	-0.364087	1.011994
C176	C	1.570908	-0.412764	0.979605
H177	H	1.374868	-0.319682	1.064292
H178	H	1.503515	-0.234972	1.120659
H179	H	1.674960	-0.263172	1.087447
H180	H	1.717763	-0.376084	0.997866
H181	H	1.589115	-0.460794	0.941499
C182	C	0.634502	-0.534149	0.533366
C183	C	0.530868	-0.529253	0.528479
C184	C	0.479056	-0.578995	0.578033
C185	C	0.530876	-0.633634	0.632475
C186	C	0.634516	-0.638532	0.637364
C187	C	0.686329	-0.588790	0.587810
H188	H	0.492502	-0.488804	0.488176
H189	H	0.402335	-0.575369	0.574413
H190	H	0.492522	-0.670456	0.669158
H191	H	0.672882	-0.678981	0.677667
H192	H	0.763050	-0.592416	0.591430
H193	H	1.189303	-0.849747	0.333858
C194	C	1.183470	-0.312260	0.843585
C195	C	1.163520	-0.306844	0.759280
C196	C	1.069348	-0.279298	0.727840
C197	C	0.995128	-0.257170	0.780705
C198	C	1.015076	-0.262585	0.865015
C199	C	1.109248	-0.290131	0.896455
H200	H	1.218464	-0.323225	0.720142
H201	H	1.054581	-0.275289	0.665428
H202	H	0.925416	-0.236779	0.757431
H203	H	0.960132	-0.246204	0.904154
H204	H	1.124015	-0.294140	0.958867
C205	C	1.263085	-0.845855	0.553881
C206	C	1.184594	-0.791062	0.528364
C207	C	1.118281	-0.760430	0.584544
C208	C	1.130459	-0.784591	0.666241
C209	C	1.208953	-0.839387	0.691762
C210	C	1.275266	-0.870019	0.635583
H211	H	1.175577	-0.773174	0.467883
H212	H	1.060175	-0.719867	0.565651
H213	H	1.081370	-0.761916	0.707828
H214	H	1.217971	-0.857276	0.752243
H215	H	1.333372	-0.910583	0.654476
H216	H	0.647953	-0.349082	0.348946
C217	C	1.422609	-0.851875	0.525389
C218	C	1.505870	-0.873174	0.481746
C219	C	1.599085	-0.848566	0.509430
C220	C	1.609038	-0.802657	0.580756
C221	C	1.525774	-0.781355	0.624404
C222	C	1.432560	-0.805964	0.596720
H223	H	1.498505	-0.907161	0.428942
H224	H	1.660722	-0.864335	0.477118
H225	H	1.678041	-0.784441	0.601250
H226	H	1.533140	-0.747369	0.677208
H227	H	1.370923	-0.790194	0.629031
H228	H	1.450938	-0.404320	0.862873
H229	H	1.357370	-0.857194	0.305884
H230	H	1.443561	-0.989363	0.380775
C231	C	1.134995	-0.838584	0.441086
C232	C	1.140393	-0.855358	0.524674
C233	C	1.066687	-0.822993	0.573559
C234	C	0.987583	-0.773854	0.538855
C235	C	0.982182	-0.757077	0.455262
C236	C	1.055889	-0.789442	0.406377
H237	H	1.198953	-0.891736	0.550368
H238	H	1.070685	-0.835412	0.635441
H239	H	0.933022	-0.749895	0.575043
H240	H	0.923622	-0.720699	0.429568
H241	H	1.051890	-0.777023	0.344496
H242	H	1.249558	-0.531568	0.852776
H243	H	1.163585	-0.456172	0.847788
H244	H	1.162904	-0.455799	0.975385
H245	H	1.327384	-0.298023	0.983386
C246	C	1.185001	-0.311586	0.985264
C247	C	1.131962	-0.360619	1.034570
C248	C	1.038819	-0.332718	1.059134
C249	C	0.998716	-0.255784	1.034391
C250	C	1.051756	-0.206747	0.985081
C251	C	1.144899	-0.234648	0.960518
H252	H	1.161648	-0.417574	1.052889
H253	H	0.999556	-0.369019	1.095636
H254	H	0.929766	-0.235130	1.052574
H255	H	1.022069	-0.149792	0.966763
H256	H	1.184162	-0.198346	0.924016
H257	H	1.417660	-0.503620	0.987516
