data_functionalizedCrystal
_audit_creation_method	'MofGen! by Chris Wilmer'
_symmetry_space_group_name_H-M	'P1'
_symmetry_Int_Tables_number	1
_symmetry_cell_setting	triclinic
loop_
_symmetry_equiv_pos_as_xyz
  x,y,z
_cell_length_a	19.805407
_cell_length_b	18.050589
_cell_length_c	19.805399
_cell_angle_alpha	89.977706
_cell_angle_beta	89.980427
_cell_angle_gamma	90.028221
loop_
_atom_site_label
_atom_site_type_symbol
_atom_site_fract_x
_atom_site_fract_y
_atom_site_fract_z
Zn1	Zn	1.034727	-0.295677	-0.382745
Zn2	Zn	1.534727	0.204323	0.117255
Zn3	Zn	1.034638	-0.419869	-0.269567
Zn4	Zn	1.534638	0.080131	0.230433
Zn5	Zn	0.921542	-0.295697	-0.269569
Zn6	Zn	1.421542	0.204303	0.230431
Zn7	Zn	0.921502	-0.419829	-0.382713
Zn8	Zn	1.421502	0.080171	0.117287
O9	O	0.978102	-0.357768	-0.326148
O10	O	1.478102	0.142232	0.173852
O11	O	1.129432	-0.312159	-0.367743
O12	O	1.629432	0.187841	0.132257
O13	O	1.019616	-0.403422	-0.174850
O14	O	1.519616	0.096578	0.325150
O15	O	0.936610	-0.191770	-0.284596
O16	O	1.436610	0.308230	0.215404
O17	O	1.129367	-0.403402	-0.284592
O18	O	1.629367	0.096598	0.215408
O19	O	1.019767	-0.191755	-0.367746
O20	O	1.519767	0.308245	0.132254
O21	O	0.936524	-0.312194	-0.174852
O22	O	1.436524	0.187806	0.325148
O23	O	0.826820	-0.312156	-0.284566
O24	O	1.326820	0.187844	0.215434
O25	O	0.936542	-0.403335	-0.477434
O26	O	1.436542	0.096665	0.022566
O27	O	0.826791	-0.403355	-0.367693
O28	O	1.326791	0.096645	0.132307
O29	O	1.019728	-0.312121	-0.477457
O30	O	1.519728	0.187879	0.022543
O31	O	1.019577	-0.523788	-0.284562
O32	O	1.519577	-0.023788	0.215438
O33	O	0.936456	-0.523759	-0.367690
O34	O	1.436456	-0.023759	0.132310
C35	C	0.802246	-0.357754	-0.326127
C36	C	1.302246	0.142246	0.173873
C37	C	0.727014	-0.357766	-0.326133
C38	C	1.227014	0.142234	0.173867
C39	C	0.691673	-0.405325	-0.369347
C40	C	1.191673	0.094675	0.130653
C41	C	0.620984	-0.405326	-0.369357
C42	C	1.120984	0.094674	0.130643
C43	C	0.585639	-0.357771	-0.326148
C44	C	1.085639	0.142229	0.173852
C45	C	0.620985	-0.310207	-0.282933
C46	C	1.120985	0.189793	0.217067
C47	C	0.691673	-0.310203	-0.282927
C48	C	1.191673	0.189797	0.217073
C49	C	0.335912	-0.310224	-0.282955
C50	C	0.835912	0.189776	0.217045
C51	C	0.265220	-0.310233	-0.282962
C52	C	0.765220	0.189767	0.217038
C53	C	0.265224	-0.405347	-0.369385
C54	C	0.765224	0.094653	0.130615
C55	C	0.335911	-0.405342	-0.369379
C56	C	0.835911	0.094658	0.130621
C57	C	0.371251	-0.357776	-0.326166
C58	C	0.871251	0.142224	0.173834
C59	C	0.447900	-0.357774	-0.326157
C60	C	0.947900	0.142226	0.173843
C61	C	0.508992	-0.357776	-0.326153
C62	C	1.008992	0.142224	0.173847
C63	C	0.978021	-0.550720	-0.326137
C64	C	1.478021	-0.050720	0.173863
C65	C	0.978048	-0.633266	-0.326155
C66	C	1.478048	-0.133266	0.173845
C67	C	0.932891	-0.832728	-0.371344
C68	C	1.432891	-0.332728	0.128656
C69	C	0.916392	-0.882167	-0.309581
C70	C	1.416392	-0.382167	0.190419
C71	C	0.978114	-0.784396	-0.326164
C72	C	1.478114	-0.284396	0.173836
C73	C	0.994646	-0.882039	-0.387934
C74	C	1.494646	-0.382039	0.112066
C75	C	0.978177	-0.930381	-0.326178
C76	C	1.478177	-0.430381	0.173822
C77	C	0.961583	-0.832748	-0.264368
C78	C	1.461583	-0.332748	0.235632
C79	C	1.039865	-0.832616	-0.342762
C80	C	1.539865	-0.332616	0.157238
C81	C	1.023390	-0.882033	-0.280957
C82	C	1.523390	-0.382033	0.219043
C83	C	0.978076	-0.700298	-0.326157
C84	C	1.478076	-0.200298	0.173843
C85	C	0.978215	-1.014478	-0.326178
C86	C	1.478215	-0.514478	0.173822
C87	C	1.154645	-0.357783	-0.326171
C88	C	1.654645	0.142217	0.173829
C89	C	1.229877	-0.357789	-0.326180
C90	C	1.729877	0.142211	0.173820
C91	C	0.978140	-0.357721	-0.502691
C92	C	1.478140	0.142279	-0.002691
C93	C	0.978156	-0.357701	-0.577923
C94	C	1.478156	0.142299	-0.077923
C95	C	0.978203	-0.164062	-0.326175
C96	C	1.478203	0.335938	0.173825
C97	C	0.978246	-0.081517	-0.326186
C98	C	1.478246	0.418483	0.173814
C99	C	1.021472	-0.310204	-0.613280
C100	C	1.521472	0.189796	-0.113280
C101	C	1.021479	-0.310182	-0.683969
C102	C	1.521479	0.189818	-0.183969
C103	C	0.978173	-0.357662	-0.719299
C104	C	1.478173	0.142338	-0.219299
C105	C	0.934852	-0.405162	-0.683937
C106	C	1.434852	0.094838	-0.183937
C107	C	0.934843	-0.405180	-0.613250
C108	C	1.434843	0.094820	-0.113250
C109	C	0.934891	-0.405093	-0.969010
C110	C	1.434891	0.094907	-0.469010
C111	C	0.934905	-0.405074	-1.039702
C112	C	1.434905	0.094926	-0.539702
C113	C	1.021527	-0.310096	-1.039729
C114	C	1.521527	0.189904	-0.539729
C115	C	1.021518	-0.310113	-0.969042
C116	C	1.521518	0.189887	-0.469042
C117	C	0.978195	-0.357609	-0.933686
C118	C	1.478195	0.142391	-0.433686
C119	C	0.978187	-0.357631	-0.857038
C120	C	1.478187	0.142369	-0.357038
C121	C	0.978184	-0.357645	-0.795946
C122	C	1.478184	0.142355	-0.295946
C123	C	0.978103	-0.357761	-0.150292
C124	C	1.478103	0.142239	0.349708
C125	C	0.978218	-0.357572	-0.075061
C126	C	1.478218	0.142428	0.424939
H127	H	0.364678	-0.271497	-0.247763
H128	H	0.864678	0.228503	0.252237
H129	H	1.056740	-0.271542	-0.584520
H130	H	1.556740	0.228458	-0.084520
H131	H	0.592202	-0.271484	-0.247754
H132	H	1.092202	0.228516	0.252246
H133	H	1.008603	-0.903691	-0.440167
H134	H	1.508603	-0.403691	0.059833
O135	O	0.854133	-0.908224	-0.292927
O136	O	1.354133	-0.408224	0.207073
C137	C	0.758462	-0.981680	-0.327139
C138	C	1.258462	-0.481680	0.172861
C139	C	0.828973	-0.952239	-0.346072
C140	C	1.328973	-0.452239	0.153928
H141	H	0.738093	-1.017259	-0.370102
H142	H	1.238093	-0.517259	0.129898
H143	H	0.762154	-1.016494	-0.279244
H144	H	1.262154	-0.516494	0.220756
H145	H	0.722918	-0.933030	-0.318068
H146	H	1.222918	-0.433030	0.181932
H147	H	0.864555	-1.000843	-0.355178
H148	H	1.364555	-0.500843	0.144822
H149	H	0.825228	-0.917402	-0.393949
H150	H	1.325228	-0.417402	0.106051
H151	H	0.899563	-0.443850	-0.584463
H152	H	1.399563	0.056150	-0.084463
H153	H	1.092045	-0.810837	-0.356819
H154	H	1.592045	-0.310837	0.143181
H155	H	1.056784	-0.271452	-0.940280
H156	H	1.556784	0.228548	-0.440280
O157	O	0.586575	-0.451563	-0.411236
O158	O	1.086575	0.048437	0.088764
C159	C	0.506757	-0.551874	-0.420179
C160	C	1.006757	-0.051874	0.079821
C161	C	0.545672	-0.499544	-0.372674
C162	C	1.045672	0.000456	0.127326
H163	H	0.473688	-0.590690	-0.389020
H164	H	0.973688	-0.090690	0.110980
H165	H	0.473647	-0.517873	-0.455617
H166	H	0.973647	-0.017873	0.044383
H167	H	0.544170	-0.585833	-0.451074
H168	H	1.044170	-0.085833	0.048926
H169	H	0.508308	-0.465573	-0.341735
H170	H	1.008308	0.034427	0.158265
H171	H	0.578793	-0.533587	-0.337280
H172	H	1.078793	-0.033587	0.162720
H173	H	0.720447	-0.271471	-0.247741
H174	H	1.220447	0.228529	0.252259
O175	O	0.887245	-0.806983	-0.416946
O176	O	1.387245	-0.306983	0.083054
C177	C	0.852357	-0.803870	-0.533459
C178	C	1.352357	-0.303870	-0.033459
C179	C	0.904089	-0.833091	-0.481889
C180	C	1.404089	-0.333091	0.018111
H181	H	0.865965	-0.824953	-0.585978
H182	H	1.365965	-0.324953	-0.085978
H183	H	0.799748	-0.824253	-0.519240
H184	H	1.299748	-0.324253	-0.019240
H185	H	0.853088	-0.740718	-0.533337
H186	H	1.353088	-0.240718	-0.033337
H187	H	0.903419	-0.896241	-0.481984
H188	H	1.403419	-0.396241	0.018016
H189	H	0.956675	-0.812651	-0.496126
H190	H	1.456675	-0.312651	0.003874
O191	O	0.230963	-0.264068	-0.240893
O192	O	0.730963	0.235932	0.259107
C193	C	0.209276	-0.227877	-0.125816
C194	C	0.709276	0.272123	0.374184
C195	C	0.248123	-0.280188	-0.173382
C196	C	0.748123	0.219812	0.326618
H197	H	0.223125	-0.240902	-0.071223
H198	H	0.723125	0.259098	0.428777
H199	H	0.223214	-0.167998	-0.137742
H200	H	0.723214	0.332002	0.362258
H201	H	0.152686	-0.236039	-0.133273
H202	H	0.652686	0.263961	0.366727
H203	H	0.304722	-0.272093	-0.165952
H204	H	0.804722	0.227907	0.334048
H205	H	0.234129	-0.340048	-0.161445
H206	H	0.734129	0.159952	0.338555
H207	H	0.364686	-0.444069	-0.404562
H208	H	0.864686	0.055931	0.095438
H209	H	1.056801	-0.271419	-1.068525
H210	H	1.556801	0.228581	-0.568525
O211	O	1.063623	-0.264022	-0.718210
O212	O	1.563623	0.235978	-0.218210
C213	C	1.149520	-0.169791	-0.710777
C214	C	1.649520	0.330209	-0.210777
C215	C	1.101837	-0.222044	-0.671916
C216	C	1.601837	0.277956	-0.171916
H217	H	1.180418	-0.135827	-0.673365
H218	H	1.680418	0.364173	-0.173365
H219	H	1.184941	-0.203848	-0.743856
H220	H	1.684941	0.296152	-0.243856
H221	H	1.118462	-0.130975	-0.743888
H222	H	1.618462	0.369025	-0.243888
H223	H	1.132840	-0.260870	-0.638769
H224	H	1.632840	0.239130	-0.138769
H225	H	1.066414	-0.187940	-0.638880
H226	H	1.566414	0.312060	-0.138880
H227	H	0.899637	-0.443740	-1.068466
H228	H	1.399637	0.056260	-0.568466
H229	H	0.947565	-0.811186	-0.212121
H230	H	1.447565	-0.311186	0.287879
H231	H	1.061661	-0.903545	-0.242711
H232	H	1.561661	-0.403545	0.257289
H233	H	0.899624	-0.443779	-0.940232
H234	H	1.399624	0.056221	-0.440232
O235	O	0.892847	-0.451260	-0.718359
O236	O	1.392847	0.048740	-0.218359
C237	C	0.854441	-0.493298	-0.827242
C238	C	1.354441	0.006702	-0.327242
C239	C	0.902058	-0.441065	-0.788346
C240	C	1.402058	0.058935	-0.288346
H241	H	0.861861	-0.485062	-0.883833
H242	H	1.361861	0.014938	-0.383833
H243	H	0.866293	-0.553202	-0.813386
H244	H	1.366293	-0.053202	-0.313386
H245	H	0.799876	-0.480261	-0.813294
H246	H	1.299876	0.019739	-0.313294
H247	H	0.956638	-0.454035	-0.802272
H248	H	1.456638	0.045965	-0.302272
H249	H	0.890148	-0.381176	-0.802204
H250	H	1.390148	0.118824	-0.302204
H251	H	0.720446	-0.444052	-0.404530
H252	H	1.220446	0.055948	0.095470
H253	H	0.236441	-0.444075	-0.404574
H254	H	0.736441	0.055925	0.095426
