data_functionalizedCrystal
_audit_creation_method	'MofGen! by Chris Wilmer'
_symmetry_space_group_name_H-M	'P1'
_symmetry_Int_Tables_number	1
_symmetry_cell_setting	triclinic
loop_
_symmetry_equiv_pos_as_xyz
  x,y,z
_cell_length_a	18.101395
_cell_length_b	16.959455
_cell_length_c	16.959447
_cell_angle_alpha	89.987476
_cell_angle_beta	89.970532
_cell_angle_gamma	90.031989
loop_
_atom_site_label
_atom_site_type_symbol
_atom_site_fract_x
_atom_site_fract_y
_atom_site_fract_z
Zn1	Zn	-0.294798	1.208323	-0.446875
Zn2	Zn	0.205202	1.708323	0.053125
Zn3	Zn	-0.418651	1.208220	-0.314699
Zn4	Zn	0.081349	1.708220	0.185301
Zn5	Zn	-0.294829	1.076152	-0.314717
Zn6	Zn	0.205171	1.576152	0.185283
Zn7	Zn	-0.418604	1.076091	-0.446842
Zn8	Zn	0.081396	1.576091	0.053158
O9	O	-0.356720	1.142197	-0.380783
O10	O	0.143280	1.642197	0.119217
O11	O	-0.311233	1.318920	-0.429348
O12	O	0.188767	1.818920	0.070652
O13	O	-0.402258	1.190683	-0.204090
O14	O	0.097742	1.690683	0.295910
O15	O	-0.191192	1.093753	-0.332270
O16	O	0.308808	1.593753	0.167730
O17	O	-0.402227	1.318845	-0.332239
O18	O	0.097773	1.818845	0.167761
O19	O	-0.191169	1.190859	-0.429366
O20	O	0.308831	1.690859	0.070634
O21	O	-0.311287	1.093653	-0.204104
O22	O	0.188713	1.593653	0.295896
O23	O	-0.311242	0.965533	-0.332237
O24	O	0.188758	1.465533	0.167763
O25	O	-0.402148	1.093649	-0.557457
O26	O	0.097852	1.593649	-0.057457
O27	O	-0.402178	0.965488	-0.429308
O28	O	0.097822	1.465488	0.070692
O29	O	-0.311188	1.190800	-0.557482
O30	O	0.188812	1.690800	-0.057482
O31	O	-0.522277	1.190625	-0.332206
O32	O	-0.022277	1.690625	0.167794
O33	O	-0.522243	1.093550	-0.429291
O34	O	-0.022243	1.593550	0.070709
C35	C	-0.549131	1.142091	-0.380760
C36	C	-0.049131	1.642091	0.119240
C37	C	-0.631445	1.142118	-0.380776
C38	C	-0.131445	1.642118	0.119224
C39	C	-0.356709	0.936830	-0.380772
C40	C	0.143291	1.436830	0.119228
C41	C	-0.356722	0.848974	-0.380785
C42	C	0.143278	1.348974	0.119215
C43	C	-0.356659	1.142229	-0.586952
C44	C	0.143341	1.642229	-0.086952
C45	C	-0.356633	1.142243	-0.674808
C46	C	0.143367	1.642243	-0.174808
C47	C	-0.930536	1.142291	-0.380819
C48	C	-0.430536	1.642291	0.119181
C49	C	-0.899220	1.081356	-0.442054
C50	C	-0.399220	1.581356	0.057946
C51	C	-0.813602	1.081066	-0.441862
C52	C	-0.313602	1.581066	0.058138
C53	C	-0.782153	1.142205	-0.380799
C54	C	-0.282153	1.642205	0.119201
C55	C	-0.813308	1.119658	-0.297495
C56	C	-0.313308	1.619658	0.202505
C57	C	-0.898953	1.119266	-0.297861
C58	C	-0.398953	1.619266	0.202139
C59	C	-0.898878	1.225907	-0.402155
C60	C	-0.398878	1.725907	0.097845
C61	C	-0.813226	1.225415	-0.403982
C62	C	-0.313226	1.725415	0.096018
C63	C	-0.698294	1.142158	-0.380782
C64	C	-0.198294	1.642158	0.119218
C65	C	-1.014395	1.142337	-0.380830
C66	C	-0.514395	1.642337	0.119170
C67	C	-0.163558	1.142324	-0.380824
C68	C	0.336442	1.642324	0.119176
C69	C	-0.081244	1.142379	-0.380841
C70	C	0.418756	1.642379	0.119159
C71	C	-0.356732	1.348365	-0.380795
C72	C	0.143268	1.848365	0.119205
C73	C	-0.356737	1.436221	-0.380801
C74	C	0.143263	1.936221	0.119199
C75	C	-0.404100	1.807660	-0.330226
C76	C	0.095900	2.307660	0.169774
C77	C	-0.309347	1.807734	-0.431347
C78	C	0.190653	2.307734	0.068653
C79	C	-0.309350	1.725188	-0.431352
C80	C	0.190650	2.225188	0.068648
C81	C	-0.356728	1.683874	-0.380792
C82	C	0.143272	2.183874	0.119208
C83	C	-0.404103	1.725106	-0.330228
C84	C	0.095897	2.225106	0.169772
C85	C	-0.261971	1.683950	-0.481910
C86	C	0.238029	2.183950	0.018090
C87	C	-0.261971	1.601399	-0.481916
C88	C	0.238029	2.101399	0.018084
C89	C	-0.309354	1.560083	-0.431360
C90	C	0.190646	2.060083	0.068640
C91	C	-0.356731	1.601321	-0.380794
C92	C	0.143269	2.101321	0.119206
C93	C	-0.404109	1.560007	-0.330234
C94	C	0.095891	2.060007	0.169766
C95	C	-0.451491	1.601243	-0.279672
C96	C	0.048509	2.101243	0.220328
C97	C	-0.451485	1.683791	-0.279671
C98	C	0.048515	2.183791	0.220329
C99	C	-0.309359	1.477535	-0.431360
C100	C	0.190641	1.977535	0.068640
C101	C	-0.404112	1.477453	-0.330236
C102	C	0.095888	1.977453	0.169764
C103	C	-0.403913	1.091756	-1.046274
C104	C	0.096087	1.591756	-0.546274
C105	C	-0.309196	1.192920	-1.046295
C106	C	0.190804	1.692920	-0.546295
C107	C	-0.309212	1.192899	-0.963749
C108	C	0.190788	1.692899	-0.463749
C109	C	-0.356580	1.142306	-0.922461
C110	C	0.143420	1.642306	-0.422461
C111	C	-0.403932	1.091735	-0.963720
C112	C	0.096068	1.591735	-0.463720
C113	C	-0.261866	1.243475	-0.922484
C114	C	0.238134	1.743475	-0.422484
C115	C	-0.261880	1.243456	-0.839933
C116	C	0.238120	1.743456	-0.339933
C117	C	-0.309245	1.192859	-0.798644
C118	C	0.190755	1.692859	-0.298644
C119	C	-0.356598	1.142285	-0.839908
C120	C	0.143402	1.642285	-0.339908
C121	C	-0.403966	1.091693	-0.798620
C122	C	0.096034	1.591693	-0.298620
C123	C	-0.451317	1.041115	-0.839883
C124	C	0.048683	1.541115	-0.339883
C125	C	-0.451297	1.041138	-0.922431
C126	C	0.048703	1.541138	-0.422431
C127	C	-0.309265	1.192836	-0.716096
C128	C	0.190735	1.692836	-0.216096
C129	C	-0.403985	1.091672	-0.716067
C130	C	0.096015	1.591672	-0.216067
C131	C	-0.356728	1.142209	-0.175417
C132	C	0.143272	1.642209	0.324583
C133	C	-0.356545	1.142348	-0.087561
C134	C	0.143455	1.642348	0.412439
H135	H	-0.792535	1.095172	-0.503631
H136	H	-0.292535	1.595172	-0.003631
H137	H	-0.918998	1.058143	-0.279787
H138	H	-0.418998	1.558143	0.220213
C139	C	-0.257242	1.432180	-0.486975
C140	C	0.242758	1.932180	0.013025
N141	N	-0.217986	1.398019	-0.528869
N142	N	0.282014	1.898019	-0.028869
C143	C	-0.455991	1.036117	-1.091662
C144	C	0.044009	1.536117	-0.591662
N145	N	-0.495215	0.994207	-1.125850
N146	N	0.004785	1.494207	-0.625850
H147	H	-0.442552	1.050466	-0.682457
H148	H	0.057448	1.550466	-0.182457
H149	H	-0.270771	1.841376	-0.472506
H150	H	0.229229	2.341376	0.027494
H151	H	-0.270715	1.234018	-0.682503
H152	H	0.229285	1.734018	-0.182503
C153	C	-0.784303	1.289994	-0.348118
C154	C	-0.284303	1.789994	0.151882
N155	N	-0.762520	1.338633	-0.306034
N156	N	-0.262520	1.838633	0.193966
H157	H	-0.223395	1.717593	-0.523069
H158	H	0.276605	2.217593	-0.023069
H159	H	-0.920423	1.246464	-0.461864
H160	H	-0.420423	1.746464	0.038136
C161	C	-0.209856	1.556047	-0.537541
C162	C	0.290144	2.056047	-0.037541
N163	N	-0.170605	1.521887	-0.579441
N164	N	0.329395	2.021887	-0.079441
C165	C	-0.926240	1.287240	-0.341907
C166	C	-0.426240	1.787240	0.158093
N167	N	-0.946854	1.333430	-0.296527
N168	N	-0.446854	1.833430	0.203473
C169	C	-0.926981	1.100216	-0.525773
C170	C	-0.426981	1.600216	-0.025773
N171	N	-0.947898	1.114422	-0.588831
N172	N	-0.447898	1.614422	-0.088831
H173	H	-0.490063	1.567594	-0.238503
H174	H	0.009937	2.067594	0.261497
C175	C	-0.928374	0.998132	-0.423197
C176	C	-0.428374	1.498132	0.076803
N177	N	-0.950331	0.935448	-0.408988
N178	N	-0.450331	1.435448	0.091012
H179	H	-0.442697	1.443822	-0.289067
H180	H	0.057303	1.943822	0.210933
C181	C	-0.786010	0.997323	-0.422828
C182	C	-0.286010	1.497323	0.077172
N183	N	-0.765228	0.934240	-0.408510
N184	N	-0.265228	1.434240	0.091490
C185	C	-0.503420	0.985465	-0.794456
C186	C	-0.003420	1.485465	-0.294456
N187	N	-0.542662	0.943550	-0.760237
N188	N	-0.042662	1.443550	-0.260237
C189	C	-0.785682	1.248405	-0.486788
C190	C	-0.285682	1.748405	0.013212
N191	N	-0.764922	1.265725	-0.549153
N192	N	-0.264922	1.765725	-0.049153
C193	C	-0.926945	1.176614	-0.234116
C194	C	-0.426945	1.676614	0.265884
N195	N	-0.948025	1.219804	-0.186100
N196	N	-0.448025	1.719804	0.313900
C197	C	-0.503591	1.729157	-0.224048
C198	C	-0.003591	2.229157	0.275952
N199	N	-0.542833	1.763329	-0.182148
N200	N	-0.042833	2.263329	0.317852
H201	H	-0.489849	0.999962	-0.956034
H202	H	0.010151	1.499962	-0.456034
C203	C	-0.257090	1.248563	-1.091713
C204	C	0.242910	1.748563	-0.591713
N205	N	-0.217837	1.290471	-1.125926
N206	N	0.282163	1.790471	-0.625926
H207	H	-0.791925	1.059184	-0.279097
H208	H	-0.291925	1.559184	0.220903
C209	C	-0.456214	1.853019	-0.274606
C210	C	0.043786	2.353019	0.225394
N211	N	-0.495465	1.887185	-0.232710
N212	N	0.004535	2.387185	0.267290
H213	H	-0.223306	1.284669	-0.956106
H214	H	0.276694	1.784669	-0.456106
C215	C	-0.785785	1.177725	-0.234174
C216	C	-0.285785	1.677725	0.265826
N217	N	-0.765052	1.221461	-0.186482
N218	N	-0.265052	1.721461	0.313518
C219	C	-0.209787	1.299085	-0.794552
C220	C	0.290213	1.799085	-0.294552
N221	N	-0.170546	1.340982	-0.760370
N222	N	0.329454	1.840982	-0.260370
