data_functionalizedCrystal
_audit_creation_method	'MofGen! by Chris Wilmer'
_symmetry_space_group_name_H-M	'P1'
_symmetry_Int_Tables_number	1
_symmetry_cell_setting	triclinic
loop_
_symmetry_equiv_pos_as_xyz
  x,y,z
_cell_length_a	17.917559
_cell_length_b	14.628931
_cell_length_c	14.628931
_cell_angle_alpha	60.000193
_cell_angle_beta	89.999740
_cell_angle_gamma	57.010160
loop_
_atom_site_label
_atom_site_type_symbol
_atom_site_fract_x
_atom_site_fract_y
_atom_site_fract_z
Zr1	Zr	0.754919	0.916393	-0.077871
O2	O	0.629792	1.121052	-0.230807
O3	O	0.793277	0.721410	-0.030988
O4	O	0.793277	0.912115	-0.221693
O5	O	0.629792	0.930347	0.110329
O6	O	0.922237	0.897734	-0.214503
O7	O	0.629792	0.930347	-0.040102
O8	O	0.922237	0.556598	0.126633
O9	O	0.629792	1.271484	-0.230807
O10	O	0.905878	0.787294	-0.005627
O11	O	0.809636	0.798026	0.101273
O12	O	0.809636	1.022557	-0.123258
O13	O	0.713395	1.033290	-0.016358
Zr14	Zr	0.960594	0.893458	0.173517
Zr15	Zr	0.960595	0.893457	-0.066404
Zr16	Zr	0.754919	0.916394	0.162050
Zr17	Zr	0.754919	1.156315	-0.077871
Zr18	Zr	0.960595	0.653536	0.173516
O19	O	0.922236	1.088441	0.126634
O20	O	0.922237	1.088440	-0.214503
O21	O	0.629792	1.121053	0.110330
O22	O	1.085721	0.688799	0.326453
O23	O	1.085722	0.688798	-0.014684
O24	O	0.793277	0.721411	0.310149
O25	O	1.085721	0.879504	-0.014684
O26	O	0.922236	0.897736	0.317339
O27	O	0.793277	0.912117	0.310149
O28	O	1.085721	0.879504	0.135748
O29	O	0.793277	1.253253	-0.221693
O30	O	0.922237	0.556598	0.317338
O31	O	1.085721	0.538367	0.326453
O32	O	1.085722	0.538367	0.135748
O33	O	0.629792	1.271484	-0.040102
O34	O	0.793277	1.253253	-0.030987
O35	O	0.905877	0.787294	0.218904
O36	O	1.002118	0.776562	0.112004
O37	O	0.905877	1.011825	-0.005627
O38	O	0.809636	1.022558	0.101273
C39	C	0.857757	0.604820	0.047822
C40	C	0.857757	0.502967	0.047822
C41	C	0.905498	0.346969	-0.005206
C42	C	0.905499	0.452239	-0.005207
C43	C	0.600488	0.933615	0.033480
C44	C	0.513173	0.943352	0.028612
C45	C	0.362181	0.848729	0.075921
C46	C	0.353340	0.961116	0.019728
C47	C	0.442280	0.951229	0.024673
C48	C	0.273234	0.858614	0.070977
C49	C	1.115026	0.876236	0.062166
C50	C	1.202340	0.866499	0.067034
C51	C	0.857757	0.904925	-0.252282
C52	C	0.857757	0.904924	-0.354135
C53	C	0.857756	1.205031	0.047823
C54	C	0.857756	1.306884	0.047823
C55	C	0.810015	1.021631	-0.457897
C56	C	0.810014	1.021633	-0.563168
C57	C	0.857756	0.904926	0.347928
C58	C	0.857756	0.904927	0.449780
C59	C	1.115026	0.576131	0.062166
C60	C	1.202341	0.464541	0.067033
C61	C	0.857757	0.604821	0.347927
C62	C	0.857757	0.502969	0.449780
C63	C	1.115026	0.576132	0.362270
C64	C	1.202340	0.464542	0.468991
C65	C	0.600488	1.233719	-0.266625
C66	C	0.513173	1.345309	-0.373345
C67	C	0.600488	1.233720	0.033480
C68	C	0.513173	1.345310	0.028612
C69	C	0.857757	1.205030	-0.252281
C70	C	0.857757	1.306883	-0.354134
C71	C	1.193108	0.417739	0.007907
C72	C	1.275142	0.312903	0.012458
C73	C	1.366407	0.254863	0.076143
C74	C	1.375638	0.301675	0.135270
C75	C	1.293605	0.406516	0.130712
C76	C	1.293590	0.406535	0.463308
C77	C	1.375639	0.301697	0.563575
C78	C	1.366437	0.254862	0.669523
C79	C	1.275178	0.312879	0.675203
C80	C	1.193131	0.417722	0.574938
C81	C	0.421924	1.403327	-0.367662
C82	C	0.339874	1.508195	-0.467929
C83	C	0.349077	1.555035	-0.573877
C84	C	0.440336	1.497012	-0.579558
C85	C	0.522383	1.392153	-0.479292
C86	C	0.522406	1.392122	0.087729
C87	C	0.440372	1.496985	0.083151
C88	C	0.349106	1.555027	0.019463
C89	C	0.339875	1.508211	-0.039660
C90	C	0.421908	1.403357	-0.035089
C91	C	0.905499	0.452236	0.553542
C92	C	0.905500	0.346965	0.658813
H93	H	0.946368	0.303360	-0.050612
F94	F	0.261807	1.666622	0.014610
H95	H	0.414377	1.365247	-0.083226
F96	F	1.265399	0.263019	0.787972
H97	H	0.816884	0.468478	0.093228
H98	H	0.946378	0.486726	-0.050603
F99	F	0.804335	0.363869	0.529528
F100	F	0.256140	1.096586	-0.048011
H101	H	0.447817	1.535163	-0.665833
H102	H	1.433196	0.169495	0.079846
F103	F	1.265297	0.263098	-0.050474
F104	F	0.804325	0.363896	0.107160
H105	H	1.301101	0.444653	0.377049
F106	F	0.459376	0.713269	0.143659
F107	F	0.911189	0.774323	-0.339881
F108	F	1.453768	0.143276	0.776227
H109	H	0.769147	1.121545	-0.468795
F110	F	1.096018	0.479441	0.581004
H111	H	1.449958	0.254404	0.187121
H112	H	1.118802	0.464993	-0.043965
F113	F	1.303447	0.456308	0.193654
H114	H	1.449939	0.254470	0.558929
H115	H	0.414413	1.365197	-0.281403
H116	H	0.265576	1.555421	-0.463282
H117	H	0.265556	1.555486	-0.091514
F118	F	0.261745	1.666637	-0.680581
H119	H	0.769135	1.121550	-0.652177
F120	F	0.619530	1.330370	0.155515
F121	F	0.619495	1.330408	-0.485358
H122	H	0.898627	0.805006	-0.461214
F123	F	0.450216	1.546786	0.146086
F124	F	0.958918	0.497333	0.567795
H125	H	0.946375	0.303355	0.747822
F126	F	0.804325	0.457886	0.435526
