data_functionalizedCrystal
_audit_creation_method	'MofGen! by Chris Wilmer'
_symmetry_space_group_name_H-M	'P1'
_symmetry_Int_Tables_number	1
_symmetry_cell_setting	triclinic
loop_
_symmetry_equiv_pos_as_xyz
  x,y,z
_cell_length_a	13.262397
_cell_length_b	13.101039
_cell_length_c	13.185407
_cell_angle_alpha	87.785773
_cell_angle_beta	111.130166
_cell_angle_gamma	102.509423
loop_
_atom_site_label
_atom_site_type_symbol
_atom_site_fract_x
_atom_site_fract_y
_atom_site_fract_z
O1	O	-1.326276	-0.284455	0.166715
O2	O	-0.826276	0.215545	0.666715
O3	O	-1.023587	-0.200086	0.176731
O4	O	-0.523587	0.299914	0.676731
O5	O	-1.226791	-0.256729	0.014232
O6	O	-0.726791	0.243271	0.514232
O7	O	-1.123072	-0.227812	0.329213
O8	O	-0.623072	0.272188	0.829213
O9	O	-1.212206	-0.423093	0.025911
O10	O	-0.712206	0.076907	0.525911
O11	O	-1.009002	-0.366450	0.188410
O12	O	-0.509002	0.133550	0.688410
O13	O	-1.311691	-0.450819	0.178393
O14	O	-0.811691	0.049181	0.678393
Zn15	Zn	-1.158031	-0.435048	0.185256
Zn16	Zn	-0.658031	0.064952	0.685256
Zn17	Zn	-1.177247	-0.215856	0.169868
Zn18	Zn	-0.677247	0.284144	0.669868
O19	O	-1.108487	-0.394176	0.340892
O20	O	-0.608487	0.105824	0.840892
C21	C	-0.978370	-0.272697	0.180933
C22	C	-0.478370	0.227303	0.680933
C23	C	-0.865371	-0.241201	0.176041
C24	C	-0.365371	0.258799	0.676041
C25	C	-0.820234	-0.135716	0.167375
C26	C	-0.320234	0.364284	0.667375
C27	C	-0.714061	-0.106124	0.162789
C28	C	-0.214061	0.393876	0.662789
C29	C	-0.653018	-0.182015	0.166860
C30	C	-0.153018	0.317985	0.666860
C31	C	-0.698158	-0.287503	0.175519
C32	C	-0.198158	0.212497	0.675519
C33	C	-0.804338	-0.317097	0.180114
C34	C	-0.304338	0.182903	0.680114
C35	C	-0.637123	-0.363396	0.179599
C36	C	-0.137123	0.136604	0.679599
C37	C	-0.682262	-0.468884	0.188258
C38	C	-0.182262	0.031116	0.688258
C39	C	-0.788432	-0.498473	0.192851
C40	C	-0.288432	0.001527	0.692851
C41	C	-0.849475	-0.422582	0.188780
C42	C	-0.349475	0.077418	0.688780
C43	C	-0.530943	-0.333802	0.175004
C44	C	-0.030943	0.166198	0.675004
C45	C	-0.515047	-0.515183	0.187743
C46	C	-0.015047	-0.015183	0.687743
C47	C	-0.621220	-0.544775	0.192329
C48	C	-0.121220	-0.044775	0.692329
N49	N	-1.144924	-0.584643	0.195757
N50	N	-0.644924	-0.084643	0.695757
C51	C	-1.127088	-0.788714	0.210054
C52	C	-0.627088	-0.288714	0.710054
C53	C	-1.208196	-0.862199	0.145066
C54	C	-0.708196	-0.362199	0.645066
C55	C	-1.198272	-0.975751	0.153021
C56	C	-0.698272	-0.475751	0.653021
C57	C	-1.137010	-0.675151	0.202100
C58	C	-0.637010	-0.175151	0.702100
C59	C	-0.356909	-0.378206	0.174190
C60	C	0.143091	0.121794	0.674190
C61	C	-0.469910	-0.409698	0.179077
C62	C	0.030090	0.090302	0.679077
C63	C	-1.230013	-0.342840	-0.020302
C64	C	-0.730013	0.157160	0.479698
C65	C	-1.261332	-0.351566	-0.140603
C66	C	-0.761332	0.148434	0.359397
N67	N	-1.190365	-0.066264	0.159359
N68	N	-0.690365	0.433736	0.659359
C69	C	-0.962436	-0.268245	-0.437108
C70	C	-0.462436	0.231755	0.062892
C71	C	-0.933007	-0.260036	-0.324080
C72	C	-0.433007	0.239964	0.175920
C73	C	-1.015086	-0.282918	-0.278205
C74	C	-0.515086	0.217082	0.221795
C75	C	-1.126598	-0.314010	-0.345370
C76	C	-0.626598	0.185990	0.154630
C77	C	-1.156030	-0.322213	-0.458410
C78	C	-0.656030	0.177787	0.041590
C79	C	-1.208680	-0.336885	-0.299506
C80	C	-0.708680	0.163115	0.200494
C81	C	-1.320193	-0.367978	-0.366671
C82	C	-0.820193	0.132022	0.133329
C83	C	-1.349619	-0.376179	-0.479700
C84	C	-0.849619	0.123821	0.020300
C85	C	-1.267541	-0.353297	-0.525575
C86	C	-0.767541	0.146703	-0.025575
C87	C	-1.179248	-0.328683	-0.186466
C88	C	-0.679248	0.171317	0.313534
C89	C	-1.372843	-0.382651	-0.207768
C90	C	-0.872843	0.117349	0.292232
C91	C	-1.402271	-0.390860	-0.320796
C92	C	-0.902271	0.109140	0.179204
C93	C	-1.105265	-0.308062	0.375426
C94	C	-0.605265	0.191938	0.875426
C95	C	-1.073946	-0.299330	0.495727
C96	C	-0.573946	0.200670	0.995727
H97	H	-0.566568	-0.157914	0.163126
H98	H	-0.066568	0.342086	0.663126
H99	H	-1.285088	-0.839830	0.083454
H100	H	-0.785088	-0.339830	0.583454
N101	N	-1.058980	-0.295178	-0.114034
N102	N	-0.558980	0.204822	0.385966
H103	H	-1.052783	-0.293456	-0.035465
H104	H	-0.552783	0.206544	0.464535
H105	H	-1.027252	-0.223157	-0.133463
H106	H	-0.527252	0.276843	0.366537
H107	H	-1.050202	-0.811079	0.271663
H108	H	-0.550202	-0.311079	0.771663
N109	N	-0.837113	-0.612243	0.202214
N110	N	-0.337113	-0.112243	0.702214
H111	H	-0.782335	-0.655831	0.204097
H112	H	-0.282335	-0.155831	0.704097
H113	H	-0.907719	-0.635977	0.137493
H114	H	-0.407719	-0.135977	0.637493
N115	N	-0.964004	-0.454486	0.193702
N116	N	-0.464004	0.045514	0.693702
H117	H	-0.965820	-0.418504	0.259204
H118	H	-0.465820	0.081496	0.759204
H119	H	-0.983286	-0.532832	0.199762
H120	H	-0.483286	-0.032832	0.699762
H121	H	-0.657988	-0.630664	0.199380
H122	H	-0.157988	-0.130664	0.699380
N123	N	-0.449216	-0.597043	0.192143
N124	N	0.050784	-0.097043	0.692143
H125	H	-0.374510	-0.562127	0.189434
H126	H	0.125490	-0.062127	0.689434
H127	H	-0.490481	-0.648499	0.127986
H128	H	0.009519	-0.148499	0.627986
H129	H	-0.991118	-0.276233	-0.186171
H130	H	-0.491118	0.223767	0.313829
N131	N	-0.812744	-0.226502	-0.251641
N132	N	-0.312744	0.273498	0.248359
H133	H	-0.765213	-0.213253	-0.297851
H134	H	-0.265213	0.286747	0.202149
H135	H	-0.790908	-0.283595	-0.199949
H136	H	-0.290908	0.216405	0.300051
H137	H	-0.895620	-0.249610	-0.474471
H138	H	-0.395620	0.250390	0.025529
H139	H	-1.439683	-0.401232	-0.170421
H140	H	-0.939683	0.098768	0.329579
H141	H	-1.291495	-0.359991	-0.617610
H142	H	-0.791495	0.140009	-0.117610
H143	H	-0.494200	-0.247913	0.167956
H144	H	0.005800	0.252087	0.667956
N145	N	-0.665385	0.007642	0.153436
N146	N	-0.165385	0.507642	0.653436
H147	H	-0.588862	0.014875	0.151146
H148	H	-0.088862	0.514875	0.651146
H149	H	-0.660519	0.049573	0.218365
H150	H	-0.160519	0.549573	0.718365
N151	N	-1.469891	-0.409704	-0.552146
N152	N	-0.969891	0.090296	-0.052146
H153	H	-1.517423	-0.422958	-0.505936
H154	H	-1.017423	0.077042	-0.005936
H155	H	-1.480905	-0.475955	-0.595179
H156	H	-0.980905	0.024045	-0.095179
N157	N	-1.522539	-0.424395	-0.393251
N158	N	-1.022539	0.075605	0.106749
H159	H	-1.544471	-0.367331	-0.444953
H160	H	-1.044471	0.132669	0.055047
H161	H	-1.569997	-0.437666	-0.346973
H162	H	-1.069997	0.062334	0.153027
H163	H	-0.869940	-0.073936	0.164069
H164	H	-0.369940	0.426064	0.664069
