data_functionalizedCrystal
_audit_creation_method	'MofGen! by Chris Wilmer'
_symmetry_space_group_name_H-M	'P1'
_symmetry_Int_Tables_number	1
_symmetry_cell_setting	triclinic
loop_
_symmetry_equiv_pos_as_xyz
  x,y,z
_cell_length_a	21.295420
_cell_length_b	21.295417
_cell_length_c	15.299128
_cell_angle_alpha	99.531213
_cell_angle_beta	80.201339
_cell_angle_gamma	90.025484
loop_
_atom_site_label
_atom_site_type_symbol
_atom_site_fract_x
_atom_site_fract_y
_atom_site_fract_z
Zn1	Zn	1.024534	-0.311521	-0.509992
Zn2	Zn	1.524534	0.188479	-0.009992
Zn3	Zn	1.006048	-0.398798	-0.359147
Zn4	Zn	1.506048	0.101202	0.140853
Zn5	Zn	0.900870	-0.293542	-0.359172
Zn6	Zn	1.400870	0.206458	0.140828
Zn7	Zn	0.919221	-0.416741	-0.509933
Zn8	Zn	1.419221	0.083259	-0.009933
O9	O	0.962668	-0.355151	-0.434561
O10	O	1.462668	0.144849	0.065439
O11	O	1.110173	-0.323113	-0.489996
O12	O	1.610173	0.176887	0.010004
O13	O	0.976679	-0.369803	-0.232927
O14	O	1.476679	0.130197	0.267073
O15	O	0.917331	-0.207842	-0.379214
O16	O	1.417331	0.292158	0.120786
O17	O	1.096591	-0.387236	-0.379171
O18	O	1.596591	0.112764	0.120829
O19	O	1.008186	-0.221051	-0.490021
O20	O	1.508186	0.278949	0.009979
O21	O	0.899406	-0.292472	-0.232946
O22	O	1.399406	0.207528	0.267054
O23	O	0.815213	-0.309870	-0.379157
O24	O	1.315213	0.190130	0.120843
O25	O	0.948607	-0.417817	-0.636164
O26	O	1.448607	0.082183	-0.136164
O27	O	0.828695	-0.400384	-0.489921
O28	O	1.328695	0.099616	0.010079
O29	O	1.025980	-0.340512	-0.636207
O30	O	1.525980	0.159488	-0.136207
O31	O	0.994473	-0.489264	-0.379114
O32	O	1.494473	0.010736	0.120886
O33	O	0.930682	-0.502446	-0.489896
O34	O	1.430682	-0.002446	0.010104
C35	C	0.799113	-0.355124	-0.434536
C36	C	1.299113	0.144876	0.065464
C37	C	0.729146	-0.355130	-0.434546
C38	C	1.229146	0.144870	0.065454
C39	C	0.236775	-0.321870	-0.492375
C40	C	0.736775	0.178130	0.007625
C41	C	0.302517	-0.321865	-0.492375
C42	C	0.802517	0.178135	0.007625
C43	C	0.328311	-0.355172	-0.434582
C44	C	0.828311	0.144828	0.065418
C45	C	0.288359	-0.388500	-0.376801
C46	C	0.788359	0.111500	0.123199
C47	C	0.222619	-0.388509	-0.376810
C48	C	0.722619	0.111491	0.123190
N49	N	0.421872	-0.350497	-0.355601
N50	N	0.921872	0.149503	0.144399
N51	N	0.484323	-0.350485	-0.355596
N52	N	0.984323	0.149515	0.144404
C53	C	0.526383	-0.355148	-0.434556
C54	C	1.026383	0.144852	0.065444
N55	N	0.503633	-0.359812	-0.513522
N56	N	1.003633	0.140188	-0.013522
N57	N	0.441176	-0.359821	-0.513526
N58	N	0.941176	0.140179	-0.013526
C59	C	0.399595	-0.355167	-0.434567
C60	C	0.899595	0.144833	0.065433
C61	C	0.637613	-0.321821	-0.492337
C62	C	1.137613	0.178179	0.007663
C63	C	0.703357	-0.321821	-0.492339
C64	C	1.203357	0.178179	0.007661
C65	C	0.689196	-0.388452	-0.376757
C66	C	1.189196	0.111548	0.123243
C67	C	0.623455	-0.388456	-0.376764
C68	C	1.123455	0.111544	0.123236
C69	C	0.597667	-0.355138	-0.434552
C70	C	1.097667	0.144862	0.065448
C71	C	0.962582	-0.518697	-0.434516
C72	C	1.462582	-0.018697	0.065484
C73	C	0.962607	-0.588666	-0.434526
C74	C	1.462607	-0.088666	0.065474
C75	C	1.009897	-0.628358	-0.492264
C76	C	1.509897	-0.128358	0.007736
C77	C	1.009922	-0.694104	-0.492287
C78	C	1.509922	-0.194104	0.007713
C79	C	0.962661	-0.720152	-0.434555
C80	C	1.462661	-0.220152	0.065445
C81	C	0.915363	-0.680452	-0.376812
C82	C	1.415363	-0.180452	0.123188
C83	C	0.915335	-0.614709	-0.376798
C84	C	1.415335	-0.114709	0.123202
N85	N	0.948278	-0.813998	-0.355615
N86	N	1.448278	-0.313998	0.144385
N87	N	0.948308	-0.876451	-0.355631
N88	N	1.448308	-0.376451	0.144369
C89	C	0.962740	-0.918232	-0.434595
C90	C	1.462740	-0.418232	0.065405
N91	N	0.977153	-0.895200	-0.513545
N92	N	1.477153	-0.395200	-0.013545
N93	N	0.977126	-0.832740	-0.513528
N94	N	1.477126	-0.332740	-0.013528
C95	C	0.962685	-0.791439	-0.434564
C96	C	1.462685	-0.291439	0.065436
C97	C	1.010060	-1.029213	-0.492363
C98	C	1.510060	-0.529213	0.007637
C99	C	1.010080	-1.094959	-0.492386
C100	C	1.510080	-0.594959	0.007614
C101	C	0.915524	-1.081305	-0.376904
C102	C	1.415524	-0.581305	0.123096
C103	C	0.915500	-1.015561	-0.376888
C104	C	1.415500	-0.515561	0.123112
C105	C	0.962772	-0.989518	-0.434616
C106	C	1.462772	-0.489518	0.065384
C107	C	1.126861	-0.355178	-0.434587
C108	C	1.626861	0.144822	0.065413
C109	C	1.196831	-0.355190	-0.434598
C110	C	1.696831	0.144810	0.065402
C111	C	0.991403	-0.383171	-0.669829
C112	C	1.491403	0.116829	-0.169829
C113	C	1.003648	-0.395112	-0.770086
C114	C	1.503648	0.104888	-0.270086
C115	C	0.962774	-0.190968	-0.434627
C116	C	1.462774	0.309032	0.065373
C117	C	0.962819	-0.121003	-0.434655
C118	C	1.462819	0.378997	0.065345
C119	C	0.934081	-0.327194	-0.200208
C120	C	1.434081	0.172806	0.299792
C121	C	0.921959	-0.315076	-0.099952
C122	C	1.421959	0.184924	0.400048
C123	C	0.875742	-0.269420	-0.052907
C124	C	1.375742	0.230580	0.447093
C125	C	0.864353	-0.258031	0.041289
C126	C	1.364353	0.241969	0.541289
C127	C	0.899175	-0.292300	0.088450
C128	C	1.399175	0.207700	0.588450
C129	C	0.945389	-0.337960	0.041405
C130	C	1.445389	0.162040	0.541405
C131	C	0.956783	-0.349347	-0.052800
C132	C	1.456783	0.150653	0.447200
C133	C	0.980217	-0.372227	0.088557
C134	C	1.480217	0.127773	0.588557
C135	C	1.026431	-0.417888	0.041512
C136	C	1.526431	0.082112	0.541512
C137	C	1.037822	-0.429273	-0.052684
C138	C	1.537822	0.070727	0.447316
C139	C	1.003000	-0.395003	-0.099845
C140	C	1.503000	0.104997	0.400155
C141	C	0.968823	-0.360841	0.182762
C142	C	1.468823	0.139159	0.682762
C143	C	1.049864	-0.440768	0.182869
C144	C	1.549864	0.059232	0.682869
C145	C	1.061253	-0.452157	0.088673
C146	C	1.561253	0.047843	0.588673
H147	H	0.215783	-0.294742	-0.539435
H148	H	0.715783	0.205258	-0.039435
H149	H	1.048387	-0.607157	-0.539272
H150	H	1.548387	-0.107157	-0.039272
H151	H	0.710198	-0.415577	-0.329708
H152	H	1.210198	0.084423	0.170292
H153	H	1.012267	-0.404277	-0.176547
H154	H	1.512267	0.095723	0.323453
H155	H	0.876994	-0.983241	-0.329868
H156	H	1.376994	-0.483241	0.170132
C157	C	0.813517	-0.207808	0.093031
C158	C	1.313517	0.292192	0.593031
N159	N	0.775224	-0.169978	0.132003
N160	N	1.275224	0.330022	0.632003
H161	H	1.048590	-1.127277	-0.539408
H162	H	1.548590	-0.627277	-0.039408
H163	H	1.078221	-0.468672	0.221267
H164	H	1.578221	0.031328	0.721267
H165	H	0.735880	-0.294690	-0.539394
H166	H	1.235880	0.205310	-0.039394
H167	H	0.931195	-0.323663	0.221056
H168	H	1.431195	0.176337	0.721056
C169	C	0.837447	-0.231726	-0.104790
C170	C	1.337447	0.268274	0.395210
N171	N	0.808600	-0.203331	-0.143870
N172	N	1.308600	0.296669	0.356130
H173	H	1.075458	-0.466447	-0.090985
H174	H	1.575458	0.033553	0.409015
H175	H	1.048427	-0.726428	-0.539315
H176	H	1.548427	-0.226428	-0.039315
C177	C	0.863396	-0.709102	-0.313272
C178	C	1.363396	-0.209102	0.186728
N179	N	0.824259	-0.730680	-0.265401
N180	N	1.324259	-0.230680	0.234599
H181	H	0.590931	-0.415586	-0.329711
H182	H	1.090931	0.084414	0.170289
C183	C	1.111991	-0.502480	0.036913
C184	C	1.611991	-0.002480	0.536913
N185	N	1.150172	-0.540418	-0.002074
N186	N	1.650172	-0.040418	0.497926
H187	H	0.876825	-0.582390	-0.329780
H188	H	1.376825	-0.082390	0.170220
H189	H	0.335045	-0.294729	-0.539423
H190	H	0.835045	0.205271	-0.039423
H191	H	0.309365	-0.415621	-0.329748
H192	H	0.809365	0.084379	0.170252
H193	H	0.190096	-0.415644	-0.329760
H194	H	0.690096	0.084356	0.170240
H195	H	1.048549	-1.008009	-0.539371
H196	H	1.548549	-0.508009	-0.039371
C197	C	0.863529	-1.109956	-0.313410
C198	C	1.363529	-0.609956	0.186590
N199	N	0.824362	-1.131540	-0.265590
N200	N	1.324362	-0.631540	0.234410
H201	H	0.616615	-0.294691	-0.539392
H202	H	1.116615	0.205309	-0.039392
C203	C	0.886641	-0.279774	0.192068
C204	C	1.386641	0.220226	0.692068
N205	N	0.877195	-0.270341	0.270118
N206	N	1.377195	0.229659	0.770118
