data_functionalizedCrystal
_audit_creation_method	'MofGen! by Chris Wilmer'
_symmetry_space_group_name_H-M	'P1'
_symmetry_Int_Tables_number	1
_symmetry_cell_setting	triclinic
loop_
_symmetry_equiv_pos_as_xyz
  x,y,z
_cell_length_a	14.908795
_cell_length_b	12.759400
_cell_length_c	12.759393
_cell_angle_alpha	90.029653
_cell_angle_beta	93.321808
_cell_angle_gamma	93.303773
loop_
_atom_site_label
_atom_site_type_symbol
_atom_site_fract_x
_atom_site_fract_y
_atom_site_fract_z
Zn1	Zn	1.379310	-0.325654	0.686899
Zn2	Zn	1.879310	0.174346	1.186899
Zn3	Zn	1.379222	-0.501376	0.511217
Zn4	Zn	1.879222	-0.001376	1.011217
Zn5	Zn	1.228437	-0.335830	0.501076
Zn6	Zn	1.728437	0.164170	1.001076
Zn7	Zn	1.228431	-0.511416	0.676701
Zn8	Zn	1.728431	-0.011416	1.176701
O9	O	1.303850	-0.418569	0.593973
O10	O	1.803850	0.081431	1.093973
O11	O	1.505546	-0.340503	0.672107
O12	O	2.005546	0.159497	1.172107
O13	O	1.359186	-0.479473	0.362848
O14	O	1.859186	0.020527	0.862848
O15	O	1.248489	-0.187457	0.525750
O16	O	1.748489	0.312543	1.025750
O17	O	1.505482	-0.469606	0.543034
O18	O	2.005482	0.030394	1.043034
O19	O	1.359335	-0.179980	0.662273
O20	O	1.859335	0.320020	1.162273
O21	O	1.248404	-0.357847	0.355398
O22	O	1.748404	0.142153	0.855398
O23	O	1.102188	-0.367583	0.515861
O24	O	1.602188	0.132417	1.015861
O25	O	1.248480	-0.486717	0.825077
O26	O	1.748480	0.013283	1.325077
O27	O	1.102184	-0.496585	0.644892
O28	O	1.602184	0.003415	1.144892
O29	O	1.359330	-0.350238	0.832570
O30	O	1.859330	0.149762	1.332570
O31	O	1.359181	-0.649732	0.533145
O32	O	1.859181	-0.149732	1.033145
O33	O	1.248395	-0.657108	0.654725
O34	O	1.748395	-0.157108	1.154725
C35	C	1.069452	-0.434278	0.578170
C36	C	1.569452	0.065722	1.078170
C37	C	0.969175	-0.441024	0.571434
C38	C	1.469175	0.058976	1.071434
C39	C	1.303803	-0.691540	0.593954
C40	C	1.803803	-0.191540	1.093954
C41	C	1.303865	-0.808312	0.593986
C42	C	1.803865	-0.308312	1.093986
C43	C	0.827808	-0.517636	0.494636
C44	C	1.327808	-0.017636	0.994636
C45	C	0.922027	-0.511302	0.500964
C46	C	1.422027	-0.011302	1.000964
C47	C	0.922098	-0.377073	0.635579
C48	C	1.422098	0.122927	1.135579
C49	C	0.827879	-0.383407	0.629251
C50	C	1.327879	0.116593	1.129251
C51	C	0.780738	-0.453692	0.558778
C52	C	1.280738	0.046308	1.058778
C53	C	0.686517	-0.460031	0.552455
C54	C	1.186517	0.039969	1.052455
C55	C	0.686590	-0.325796	0.687064
C56	C	1.186590	0.174204	1.187064
C57	C	0.780809	-0.319462	0.693393
C58	C	1.280809	0.180538	1.193393
C59	C	1.361554	-0.859203	0.665127
C60	C	1.861554	-0.359203	1.165127
C61	C	1.361596	-0.968924	0.665155
C62	C	1.861596	-0.468924	1.165155
C63	C	1.246258	-0.976854	0.522892
C64	C	1.746258	-0.476854	1.022892
C65	C	1.246212	-0.867135	0.522870
C66	C	1.746212	-0.367135	1.022870
C67	C	1.419207	-0.800380	0.736243
C68	C	1.919207	-0.300380	1.236243
C69	C	1.476901	-0.851271	0.807389
C70	C	1.976901	-0.351271	1.307389
C71	C	1.476943	-0.960993	0.807417
C72	C	1.976943	-0.460993	1.307417
C73	C	1.419291	-1.019823	0.736299
C74	C	1.919291	-0.519823	1.236299
C75	C	1.539164	-0.402799	0.609839
C76	C	2.039164	0.097201	1.109839
C77	C	1.639440	-0.396079	0.616600
C78	C	2.139440	0.103921	1.116600
C79	C	1.303914	-0.418463	0.868011
C80	C	1.803914	0.081537	1.368011
C81	C	1.303941	-0.418417	0.984790
C82	C	1.803941	0.081583	1.484790
C83	C	1.303922	-0.144531	0.594018
C84	C	1.803922	0.355469	1.094018
C85	C	1.303953	-0.027752	0.594037
C86	C	1.803953	0.472248	1.094037
C87	C	1.303838	-0.418596	0.321005
C88	C	1.803838	0.081404	0.821005
C89	C	1.303986	-0.418334	0.204239
C90	C	1.803986	0.081666	0.704239
C91	C	1.246295	-0.355033	1.145499
C92	C	1.746295	0.144967	1.645499
C93	C	1.246275	-0.355072	1.035774
C94	C	1.746275	0.144928	1.535774
C95	C	1.361638	-0.481720	1.043538
C96	C	1.861638	0.018280	1.543538
C97	C	1.361662	-0.481675	1.153261
C98	C	1.861662	0.018325	1.653261
C99	C	1.188619	-0.291692	1.196477
C100	C	1.688619	0.208308	1.696477
C101	C	1.130923	-0.228388	1.137736
C102	C	1.630923	0.271612	1.637736
C103	C	1.130902	-0.228427	1.028011
C104	C	1.630902	0.271573	1.528011
C105	C	1.188578	-0.291770	0.977026
C106	C	1.688578	0.208230	1.477026
H107	H	0.648136	-0.517264	0.495076
H108	H	1.148136	-0.017264	0.995076
H109	H	0.789424	-0.574874	0.437262
H110	H	1.289424	-0.074874	0.937262
Cl111	Cl	1.434137	-0.561347	0.979441
Cl112	Cl	1.934137	-0.061347	1.479441
H113	H	1.188627	-0.291655	1.285820
H114	H	1.688627	0.208345	1.785820
H115	H	1.419181	-0.711039	0.736225
H116	H	1.919181	-0.211039	1.236225
Cl117	Cl	1.434195	-0.561245	1.227112
Cl118	Cl	1.934195	-0.061245	1.727112
Cl119	Cl	0.981198	-0.591690	0.420322
Cl120	Cl	1.481198	-0.091690	0.920322
H121	H	0.960497	-0.319844	0.692948
H122	H	1.460497	0.180156	1.192948
H123	H	0.819205	-0.262235	0.750767
H124	H	1.319205	0.237765	1.250767
Cl125	Cl	1.173788	-1.050812	0.433493
Cl126	Cl	1.673788	-0.550812	0.933493
H127	H	1.083971	-0.176810	1.179256
H128	H	1.583971	0.323190	1.679256
H129	H	0.648255	-0.273729	0.739295
H130	H	1.148255	0.226271	1.239295
H131	H	1.523912	-1.002425	0.865355
H132	H	2.023912	-0.502425	1.365355
Cl133	Cl	1.549363	-0.777316	0.896799
Cl134	Cl	2.049363	-0.277316	1.396799
Cl135	Cl	1.188558	-0.291807	0.839084
Cl136	Cl	1.688558	0.208193	1.339084
Cl137	Cl	1.173691	-0.803152	0.433430
Cl138	Cl	1.673691	-0.303152	0.933430
Cl139	Cl	1.419482	-1.157750	0.736188
Cl140	Cl	1.919482	-0.657750	1.236188
H141	H	1.083930	-0.176873	0.980188
H142	H	1.583930	0.323127	1.480188
