data_functionalizedCrystal
_audit_creation_method	'MofGen! by Chris Wilmer'
_symmetry_space_group_name_H-M	'P1'
_symmetry_Int_Tables_number	1
_symmetry_cell_setting	triclinic
loop_
_symmetry_equiv_pos_as_xyz
  x,y,z
_cell_length_a	17.699077
_cell_length_b	17.699083
_cell_length_c	13.448316
_cell_angle_alpha	89.992503
_cell_angle_beta	89.993795
_cell_angle_gamma	83.281795
loop_
_atom_site_label
_atom_site_type_symbol
_atom_site_fract_x
_atom_site_fract_y
_atom_site_fract_z
O1	O	1.004081	0.095691	-0.082681
O2	O	1.504081	0.595691	0.417319
O3	O	0.783702	0.108149	-0.082686
O4	O	1.283702	0.608149	0.417314
O5	O	0.900118	-0.008269	-0.082674
O6	O	1.400118	0.491731	0.417326
O7	O	0.887665	0.212109	-0.082692
O8	O	1.387665	0.712109	0.417308
O9	O	0.900103	-0.008276	0.082710
O10	O	1.400103	0.491724	0.582710
O11	O	0.783687	0.108142	0.082698
O12	O	1.283687	0.608142	0.582698
O13	O	1.004066	0.095684	0.082703
O14	O	1.504066	0.595684	0.582703
Cu15	Cu	0.893876	0.101912	0.097801
Cu16	Cu	1.393876	0.601912	0.597801
Cu17	Cu	0.893893	0.101921	-0.097784
Cu18	Cu	1.393893	0.601921	0.402216
O19	O	0.887651	0.212102	0.082692
O20	O	1.387651	0.712102	0.582692
C21	C	0.755498	0.107700	0.000006
C22	C	1.255498	0.607700	0.500006
C23	C	0.671479	0.106363	0.000004
C24	C	1.171479	0.606363	0.500004
C25	C	0.632004	0.105729	0.090156
C26	C	1.132004	0.605729	0.590156
C27	C	0.553061	0.104461	0.090157
C28	C	1.053061	0.604461	0.590157
C29	C	0.513595	0.103832	0.000005
C30	C	1.013595	0.603832	0.500005
C31	C	0.553076	0.104463	-0.090154
C32	C	1.053076	0.604463	0.409846
C33	C	0.632018	0.105726	-0.090154
C34	C	1.132018	0.605726	0.409846
C35	C	0.234713	0.099370	-0.090155
C36	C	0.734713	0.599370	0.409845
C37	C	0.155765	0.098110	-0.090148
C38	C	0.655765	0.598110	0.409852
C39	C	0.155756	0.098105	0.090156
C40	C	0.655756	0.598105	0.590156
C41	C	0.234698	0.099367	0.090155
C42	C	0.734698	0.599367	0.590155
C43	C	0.274173	0.099995	-0.000003
C44	C	0.774173	0.599995	0.499997
C45	C	0.359772	0.101369	-0.000003
C46	C	0.859772	0.601369	0.499997
C47	C	0.427997	0.102464	0.000004
C48	C	0.927997	0.602464	0.500004
C49	C	0.899664	-0.036470	0.000018
C50	C	1.399664	0.463530	0.500018
C51	C	0.898326	-0.120488	0.000018
C52	C	1.398326	0.379512	0.500018
C53	C	0.966659	-0.169110	0.000021
C54	C	1.466659	0.330890	0.500021
C55	C	0.965397	-0.248054	0.000012
C56	C	1.465397	0.251946	0.500012
C57	C	0.895800	-0.278373	0.000008
C58	C	1.395800	0.221627	0.500008
C59	C	0.827461	-0.229744	0.000002
C60	C	1.327461	0.270256	0.500002
C61	C	0.828724	-0.150803	0.000003
C62	C	1.328724	0.349197	0.500003
C63	C	0.822366	-0.548107	-0.000007
C64	C	1.322366	-0.048107	0.499993
C65	C	0.821108	-0.627055	-0.000005
C66	C	1.321108	-0.127055	0.499995
C67	C	0.959039	-0.645358	0.000002
C68	C	1.459039	-0.145358	0.500002
C69	C	0.960302	-0.566417	0.000004
C70	C	1.460302	-0.066417	0.500004
C71	C	0.891963	-0.517795	-0.000007
C72	C	1.391963	-0.017795	0.499993
C73	C	0.893333	-0.432196	0.000001
C74	C	1.393333	0.067804	0.500001
C75	C	0.894430	-0.363971	0.000007
C76	C	1.394430	0.136029	0.500007
C77	C	1.032271	0.096133	0.000010
C78	C	1.532271	0.596133	0.500010
C79	C	1.116289	0.097470	0.000005
C80	C	1.616289	0.597470	0.500005
C81	C	0.888104	0.240303	-0.000002
C82	C	1.388104	0.740303	0.499998
C83	C	0.889443	0.324321	-0.000009
C84	C	1.389443	0.824321	0.499991
N85	N	0.893869	0.101906	0.235366
N86	N	1.393869	0.601906	0.735366
N87	N	0.893905	0.101921	-0.235348
N88	N	1.393905	0.601921	0.264652
C89	C	0.945434	0.050377	0.287411
C90	C	1.445434	0.550377	0.787411
C91	C	0.945438	0.050377	0.391514
C92	C	1.445438	0.550377	0.891514
C93	C	0.893881	0.101909	0.443570
C94	C	1.393881	0.601909	0.943570
C95	C	0.842311	0.153440	0.391518
C96	C	1.342311	0.653440	0.891518
C97	C	0.842303	0.153436	0.287416
C98	C	1.342303	0.653436	0.787416
C99	C	0.842332	0.153445	0.608498
C100	C	1.342332	0.653445	1.108498
C101	C	0.842341	0.153450	0.712606
C102	C	1.342341	0.653450	1.212606
C103	C	0.945467	0.050385	0.712596
C104	C	1.445467	0.550385	1.212596
C105	C	0.945459	0.050382	0.608495
C106	C	1.445459	0.550382	1.108495
C107	C	0.893890	0.101914	0.556449
C108	C	1.393890	0.601914	1.056449
H109	H	0.266844	0.099879	-0.163567
H110	H	0.766844	0.599879	0.336433
O111	O	0.674564	0.106412	0.187396
O112	O	1.174564	0.606412	0.687396
H113	H	0.736089	0.107405	0.172254
H114	H	1.236089	0.607405	0.672254
H115	H	1.014683	-0.684956	0.000006
H116	H	1.514683	-0.184956	0.500006
O117	O	0.748658	-0.495676	0.000006
O118	O	1.248658	0.004324	0.500006
H119	H	0.715343	-0.506439	-0.067394
H120	H	1.215343	-0.006439	0.432606
H121	H	0.520926	0.103932	0.163568
H122	H	1.020926	0.603932	0.663568
O123	O	0.755019	-0.098360	0.000010
O124	O	1.255019	0.401640	0.500010
H125	H	0.752296	-0.061954	-0.067401
H126	H	1.252296	0.438046	0.432599
O127	O	1.001039	-0.005207	0.231266
O128	O	1.501039	0.494793	0.731266
H129	H	1.036890	-0.041044	0.284950
H130	H	1.536890	0.458956	0.784950
H131	H	0.266827	0.099883	0.163566
H132	H	0.766827	0.599883	0.663566
H133	H	0.520937	0.103946	-0.163557
H134	H	1.020937	0.603946	0.336443
H135	H	0.764431	-0.651737	-0.000007
H136	H	1.264431	-0.151737	0.499993
H137	H	0.800329	0.195396	0.433908
H138	H	1.300329	0.695396	0.933908
H139	H	0.664157	0.106244	-0.163565
H140	H	1.164157	0.606244	0.336435
H141	H	1.016974	-0.541735	0.000013
H142	H	1.516974	-0.041735	0.500013
H143	H	0.800313	0.195395	0.245042
H144	H	1.300313	0.695395	0.745042
O145	O	1.001067	-0.005199	0.552348
O146	O	1.501067	0.494801	1.052348
H147	H	0.969270	-0.041939	0.504933
H148	H	1.469270	0.458061	1.004933
O149	O	0.752393	-0.262440	0.000007
O150	O	1.252393	0.237560	0.500007
H151	H	0.762993	-0.325502	0.000021
H152	H	1.262993	0.174498	0.500021
H153	H	0.800357	0.195412	0.754985
H154	H	1.300357	0.695412	1.254985
H155	H	0.800336	0.195406	0.566126
H156	H	1.300336	0.695406	1.066126
O157	O	1.001068	-0.005187	0.447653
O158	O	1.501068	0.494813	0.947653
H159	H	1.036928	-0.041009	0.393966
H160	H	1.536928	0.458991	0.893966
H161	H	0.987457	0.008426	0.754977
H162	H	1.487457	0.508426	1.254977
H163	H	1.021041	-0.287639	0.000017
H164	H	1.521041	0.212361	0.500017
O165	O	0.113014	0.097689	0.187302
O166	O	0.613014	0.597689	0.687302
H167	H	0.083758	0.045640	0.191777
H168	H	0.583758	0.545640	0.691777
O169	O	0.113196	0.097405	-0.187387
O170	O	0.613196	0.597405	0.312613
H171	H	0.153909	0.098039	-0.250080
H172	H	0.653909	0.598039	0.249920
O173	O	1.041725	-0.136409	0.000017
O174	O	1.541725	0.363591	0.500017
H175	H	1.089028	-0.183485	0.000004
H176	H	1.589028	0.316515	0.500004
