data_functionalizedCrystal
_audit_creation_method	'MofGen! by Chris Wilmer'
_symmetry_space_group_name_H-M	'P1'
_symmetry_Int_Tables_number	1
_symmetry_cell_setting	triclinic
loop_
_symmetry_equiv_pos_as_xyz
  x,y,z
_cell_length_a	33.428889
_cell_length_b	33.428139
_cell_length_c	33.424847
_cell_angle_alpha	60.004234
_cell_angle_beta	60.008465
_cell_angle_gamma	59.994972
loop_
_atom_site_label
_atom_site_type_symbol
_atom_site_fract_x
_atom_site_fract_y
_atom_site_fract_z
O1	O	0.055565	-0.584504	0.488714
O2	O	0.555565	-0.084504	0.988714
O3	O	0.020982	-0.455083	0.393778
O4	O	0.520982	0.044917	0.893778
O5	O	0.102943	-0.536959	0.393689
O6	O	0.602943	-0.036959	0.893689
O7	O	-0.026396	-0.502628	0.488803
O8	O	0.473604	-0.002628	0.988803
O9	O	0.130140	-0.509767	0.420792
O10	O	0.630140	-0.009767	0.920792
O11	O	0.048179	-0.427891	0.420881
O12	O	0.548179	0.072109	0.920881
O13	O	0.082762	-0.557312	0.515817
O14	O	0.582762	-0.057312	1.015817
Cu15	Cu	0.067954	-0.490119	0.470823
Cu16	Cu	0.567954	0.009881	0.970823
Cu17	Cu	0.035790	-0.522276	0.438771
Cu18	Cu	0.535790	-0.022276	0.938771
O19	O	0.000801	-0.475436	0.515906
O20	O	0.500801	0.024564	1.015906
N21	N	0.090577	-0.467504	0.493370
N22	N	0.590577	0.032496	0.993370
N23	N	0.013171	-0.544895	0.416225
N24	N	0.513171	-0.044895	0.916225
C25	C	0.143377	-0.280390	0.546067
C26	C	0.643377	0.219610	1.046067
C27	C	0.143515	-0.414755	0.680369
C28	C	0.643515	0.085245	1.180369
C29	C	0.143392	-0.414735	0.546069
C30	C	0.643392	0.085265	1.046069
C31	C	0.277766	-0.414702	0.545966
C32	C	0.777766	0.085298	1.045966
C33	C	0.158177	-0.324719	0.560828
C34	C	0.658177	0.175281	1.060828
C35	C	0.158255	-0.399967	0.636038
C36	C	0.658255	0.100033	1.136038
C37	C	0.233434	-0.399936	0.560773
C38	C	0.733434	0.100064	1.060773
C39	C	0.158186	-0.399955	0.560829
C40	C	0.658186	0.100045	1.060829
C41	C	0.124540	-0.223964	0.527278
C42	C	0.624540	0.276036	1.027278
C43	C	0.124565	-0.433545	0.527281
C44	C	0.624565	0.066455	1.027281
C45	C	0.177014	-0.381145	0.579617
C46	C	0.677014	0.118855	1.079617
C47	C	0.359814	-0.400540	0.502735
C48	C	0.859814	0.099460	1.002735
C49	C	0.411105	-0.417624	0.485606
C50	C	0.911105	0.082376	0.985606
C51	C	0.411136	-0.500620	0.517255
C52	C	0.911136	-0.000620	1.017255
C53	C	0.359845	-0.483534	0.534385
C54	C	0.859845	0.016466	1.034385
C55	C	0.136887	-0.198305	0.476855
C56	C	0.636887	0.301695	0.976855
C57	C	0.119761	-0.147011	0.459777
C58	C	0.619761	0.352989	0.959777
C59	C	0.077945	-0.147038	0.543547
C60	C	0.577945	0.352962	1.043547
C61	C	0.095072	-0.198332	0.560625
C62	C	0.595072	0.301668	1.060625
C63	C	0.074134	-0.421169	0.539710
C64	C	0.574134	0.078831	1.039710
C65	C	0.057023	-0.438269	0.522625
C66	C	0.557023	0.061731	1.022625
C67	C	0.140770	-0.480120	0.480694
C68	C	0.640770	0.019880	0.980694
C69	C	0.157883	-0.463020	0.497773
C70	C	0.657883	0.036980	0.997773
C71	C	0.074339	-0.421208	0.762475
C72	C	0.574339	0.078792	1.262475
C73	C	0.057288	-0.438323	0.813768
C74	C	0.557288	0.061677	1.313768
C75	C	0.141075	-0.480183	0.813699
C76	C	0.641075	0.019817	1.313699
C77	C	0.158125	-0.463069	0.762404
C78	C	0.658125	0.036931	1.262404
C79	C	0.124756	-0.433580	0.736794
C80	C	0.624756	0.066420	1.236794
C81	C	0.334186	-0.433494	0.527123
C82	C	0.834186	0.066506	1.027123
C83	C	-0.173769	-0.597444	0.363037
C84	C	0.326231	-0.097444	0.863037
C85	C	-0.039302	-0.597595	0.228856
C86	C	0.460698	-0.097595	0.728856
C87	C	-0.039496	-0.597587	0.363300
C88	C	0.460504	-0.097587	0.863300
C89	C	-0.039512	-0.731889	0.363237
C90	C	0.460488	-0.231889	0.863237
C91	C	-0.129442	-0.612265	0.348329
C92	C	0.370558	-0.112265	0.848329
C93	C	-0.054138	-0.612351	0.273187
C94	C	0.445862	-0.112351	0.773187
C95	C	-0.054257	-0.687554	0.348440
C96	C	0.445743	-0.187554	0.848440
C97	C	-0.054247	-0.612346	0.348477
C98	C	0.445753	-0.112346	0.848477
C99	C	-0.230191	-0.578579	0.381758
C100	C	0.269809	-0.078579	0.881758
C101	C	-0.020722	-0.578803	0.382168
C102	C	0.479278	-0.078803	0.882168
C103	C	-0.073020	-0.631130	0.329609
C104	C	0.426980	-0.131130	0.829609
C105	C	-0.053713	-0.813916	0.406386
C106	C	0.446287	-0.313916	0.906386
C107	C	-0.036654	-0.865210	0.423504
C108	C	0.463346	-0.365210	0.923504
C109	C	0.046338	-0.865293	0.391984
C110	C	0.546338	-0.365293	0.891984
C111	C	0.029278	-0.813999	0.374865
C112	C	0.529278	-0.313999	0.874865
C113	C	-0.255900	-0.590938	0.432169
C114	C	0.244100	-0.090938	0.932169
C115	C	-0.307191	-0.573786	0.449185
C116	C	0.192809	-0.073786	0.949185
C117	C	-0.307060	-0.531922	0.365377
C118	C	0.192940	-0.031922	0.865377
C119	C	-0.255769	-0.549074	0.348360
C120	C	0.244231	-0.049074	0.848360
C121	C	-0.033081	-0.528377	0.369764
C122	C	0.466919	-0.028377	0.869764
C123	C	-0.016014	-0.511306	0.386922
C124	C	0.483986	-0.011306	0.886922
C125	C	0.025770	-0.595083	0.428877
C126	C	0.525770	-0.095083	0.928877
C127	C	0.008703	-0.612156	0.411725
C128	C	0.508703	-0.112156	0.911725
C129	C	-0.032755	-0.528393	0.146761
C130	C	0.467245	-0.028393	0.646761
C131	C	-0.015585	-0.511324	0.095468
C132	C	0.484415	-0.011324	0.595468
C133	C	0.026262	-0.595106	0.095516
C134	C	0.526262	-0.095106	0.595516
C135	C	0.009094	-0.612174	0.146811
C136	C	0.509094	-0.112174	0.646811
C137	C	-0.020417	-0.578816	0.172432
C138	C	0.479583	-0.078816	0.672432
C139	C	-0.020748	-0.788312	0.382068
C140	C	0.479252	-0.288312	0.882068
N141	N	0.436037	-0.467415	0.493101
N142	N	0.936037	0.032585	0.993101
O143	O	0.592642	-0.471896	0.376066
O144	O	1.092642	0.028104	0.876066
O145	O	0.592838	-0.567146	0.505347
O146	O	1.092838	-0.067146	1.005347
O147	O	0.592754	-0.566928	0.423360
O148	O	1.092754	-0.066928	0.923360
O149	O	0.592727	-0.472113	0.458053
O150	O	1.092727	0.027887	0.958053
O151	O	0.511269	-0.539835	0.450606
O152	O	1.011269	-0.039835	0.950606
O153	O	0.511353	-0.540052	0.532594
O154	O	1.011353	-0.040052	1.032594
O155	O	0.511157	-0.444802	0.403312
O156	O	1.011157	0.055198	0.903312
Cu157	Cu	0.503815	-0.489954	0.470441
Cu158	Cu	1.003815	0.010046	0.970441
Cu159	Cu	0.600180	-0.521995	0.438219
Cu160	Cu	1.100180	-0.021995	0.938219
O161	O	0.511242	-0.445020	0.485300
O162	O	1.011242	0.054980	0.985300
N163	N	0.667959	-0.544533	0.415554
N164	N	1.167959	-0.044533	0.915554
N165	N	0.090544	-0.122107	0.493359
N166	N	0.590544	0.377893	0.993359
O167	O	-0.026406	0.034587	0.488773
O168	O	0.473594	0.534587	0.988773
O169	O	0.102877	0.034627	0.393499
O170	O	0.602877	0.534627	0.893499
O171	O	0.020848	0.034591	0.393771
O172	O	0.520848	0.534591	0.893771
O173	O	0.055623	0.034623	0.488500
O174	O	0.555623	0.534623	0.988500
O175	O	0.048051	-0.046899	0.420925
O176	O	0.548051	0.453101	0.920925
O177	O	0.130080	-0.046864	0.420653
O178	O	0.630080	0.453136	0.920653
O179	O	0.000796	-0.046903	0.515927
O180	O	0.500796	0.453097	1.015927
Cu181	Cu	0.067922	-0.054324	0.470769
Cu182	Cu	0.567922	0.445676	0.970769
Cu183	Cu	0.035752	0.042048	0.438656
Cu184	Cu	0.535752	0.542048	0.938656
O185	O	0.082825	-0.046867	0.515655
O186	O	0.582825	0.453133	1.015655
N187	N	0.013123	0.109830	0.416068
N188	N	0.513123	0.609830	0.916068
N189	N	0.090892	-0.467554	0.838649
N190	N	0.590892	0.032446	1.338649
O191	O	0.086330	-0.584488	0.995334
O192	O	0.586330	-0.084488	1.495334
O193	O	-0.008902	-0.455160	0.995379
O194	O	0.491098	0.044840	1.495379
O195	O	-0.008679	-0.537172	0.995355
O196	O	0.491321	-0.037172	1.495355
O197	O	0.086107	-0.502475	0.995358
O198	O	0.586107	-0.002475	1.495358
O199	O	0.018452	-0.509990	0.913868
O200	O	0.518452	-0.009990	1.413868
O201	O	0.018230	-0.427978	0.913891
O202	O	0.518230	0.072022	1.413891
O203	O	0.113461	-0.557306	0.913847
O204	O	0.613461	-0.057306	1.413847
Cu205	Cu	0.068323	-0.490160	0.906429
Cu206	Cu	0.568323	0.009840	1.406429
Cu207	Cu	0.036237	-0.522306	1.002797
Cu208	Cu	0.536237	-0.022306	1.502797
O209	O	0.113239	-0.475293	0.913870
O210	O	0.613239	0.024707	1.413870
N211	N	0.013667	-0.544916	1.070577
N212	N	0.513667	-0.044916	1.570577
C213	C	0.031339	-0.425179	0.394250
C214	C	0.531339	0.074821	0.894250
C215	C	0.132837	-0.526572	0.394139
C216	C	0.632837	-0.026572	0.894139
C217	C	0.072405	-0.587216	0.515344
C218	C	0.572405	-0.087216	1.015344
C219	C	-0.029093	-0.485823	0.515455
C220	C	0.470907	0.014177	1.015455
C221	C	0.552119	-0.566716	0.535258
C222	C	1.052119	-0.066716	1.035258
C223	C	0.552016	-0.566447	0.433726
C224	C	1.052016	-0.066447	0.933726
C225	C	0.551873	-0.445232	0.373402
C226	C	1.051873	0.054768	0.873402
C227	C	0.551980	-0.445502	0.474933
C228	C	1.051980	0.054498	0.974933
C229	C	0.132731	-0.006013	0.393923
C230	C	0.632731	0.493987	0.893923
C231	C	0.031182	-0.006158	0.394293
C232	C	0.531182	0.493842	0.894293
C233	C	-0.029092	-0.006163	0.515469
C234	C	0.470908	0.493837	1.015469
C235	C	0.072491	-0.006119	0.515133
C236	C	0.572491	0.493881	1.015133
C237	C	-0.008451	-0.425276	0.954641
C238	C	0.491549	0.074724	1.454641
C239	C	-0.008170	-0.526833	0.954596
C240	C	0.491830	-0.026833	1.454596
C241	C	0.113010	-0.587190	0.954585
C242	C	0.613010	-0.087190	1.454585
C243	C	0.112735	-0.485627	0.954611
C244	C	0.612735	0.014373	1.454611
H245	H	0.047163	-0.397193	0.741627
H246	H	0.547163	0.102807	1.241627
O247	O	0.148620	-0.631533	0.954588
O248	O	0.648620	-0.131533	1.454588
C249	C	0.171416	-0.712236	0.954527
C250	C	0.671416	-0.212236	1.454527
C251	C	0.131040	-0.662045	0.954536
C252	C	0.631040	-0.162045	1.454536
H253	H	0.157220	-0.736915	0.954474
H254	H	0.657220	-0.236915	1.454474
H255	H	0.182112	-0.729872	0.988632
H256	H	0.682112	-0.229872	1.488632
H257	H	0.204822	-0.707063	0.920428
H258	H	0.704822	-0.207063	1.420428
H259	H	0.097607	-0.667175	0.988611
H260	H	0.597607	-0.167175	1.488611
H261	H	0.120385	-0.644426	0.920407
H262	H	0.620385	-0.144426	1.420407
O263	O	0.552166	-0.602440	0.579532
O264	O	1.052166	-0.102440	1.079532
C265	C	0.552304	-0.685079	0.629701
C266	C	1.052304	-0.185079	1.129701
C267	C	0.552238	-0.644662	0.579545
C268	C	1.052238	-0.144662	1.079545
H269	H	0.552373	-0.719229	0.629725
H270	H	1.052373	-0.219229	1.129725
H271	H	0.518212	-0.671663	0.659662
H272	H	1.018212	-0.171663	1.159662
H273	H	0.586415	-0.694277	0.636838
H274	H	1.086415	-0.194277	1.136838
H275	H	0.518150	-0.635445	0.572361
H276	H	1.018150	-0.135445	1.072361
H277	H	0.586352	-0.658099	0.549611
H278	H	1.086352	-0.158099	1.049611
H279	H	0.169783	-0.005775	0.363939
H280	H	0.669783	0.494225	0.863939
H281	H	0.079939	-0.006110	0.544893
H282	H	0.579939	0.493890	1.044893
O283	O	-0.073349	-0.006259	0.551194
O284	O	0.426651	0.493741	1.051194
C285	C	-0.117055	-0.048467	0.632933
C286	C	0.382945	0.451533	1.132933
C287	C	-0.066904	-0.048426	0.592515
C288	C	0.433096	0.451574	1.092515
H289	H	-0.111860	-0.082551	0.666354
H290	H	0.388140	0.417449	1.166354
H291	H	-0.141788	-0.048511	0.618789
H292	H	0.358212	0.451489	1.118789
H293	H	-0.134646	-0.014345	0.643588
H294	H	0.365354	0.485655	1.143588
H295	H	-0.049270	-0.082543	0.581842
H296	H	0.450730	0.417457	1.081842
H297	H	-0.042206	-0.048357	0.606680
H298	H	0.457794	0.451643	1.106680
H299	H	-0.038348	-0.388133	0.954654
H300	H	0.461652	0.111867	1.454654
H301	H	-0.037935	-0.534246	0.954563
H302	H	0.462065	-0.034246	1.454563
H303	H	0.552029	-0.596233	0.426301
H304	H	1.052029	-0.096233	0.926301
H305	H	0.023949	-0.388000	0.364433
H306	H	0.523949	0.112000	0.864433
O307	O	0.552056	-0.409980	0.483733
O308	O	1.052056	0.090020	0.983733
C309	C	0.594209	-0.356462	0.460116
C310	C	1.094209	0.143538	0.960116
C311	C	0.594188	-0.396695	0.450104
C312	C	1.094188	0.103305	0.950104
H313	H	0.628263	-0.345702	0.432927
H314	H	1.128263	0.154298	0.932927
H315	H	0.594292	-0.370819	0.499022
H316	H	1.094292	0.129181	0.999022
H317	H	0.560062	-0.323054	0.455791
H318	H	1.060062	0.176946	0.955791
H319	H	0.628328	-0.430117	0.454402
H320	H	1.128328	0.069883	0.954402
H321	H	0.594079	-0.382299	0.411202
H322	H	1.094079	0.117701	0.911202
H323	H	0.551811	-0.415327	0.336274
H324	H	1.051811	0.084673	0.836274
O325	O	0.022232	-0.006203	0.358852
O326	O	0.522232	0.493797	0.858852
C327	C	-0.036007	-0.006235	0.336490
C328	C	0.463993	0.493765	0.836490
C329	C	-0.025936	-0.006185	0.376671
C330	C	0.474064	0.493815	0.876671
H331	H	-0.074953	-0.006210	0.350879
H332	H	0.425047	0.493790	0.850879
H333	H	-0.008908	-0.040350	0.325792
H334	H	0.491092	0.459650	0.825792
H335	H	-0.031623	0.027857	0.303036
H336	H	0.468377	0.527857	0.803036
H337	H	-0.030326	-0.040254	0.410152
H338	H	0.469674	0.459746	0.910152
H339	H	-0.053033	0.027953	0.387328
H340	H	0.446967	0.527953	0.887328
H341	H	0.079796	-0.624394	0.545162
H342	H	0.579796	-0.124394	1.045162
H343	H	0.142514	-0.478200	0.954606
H344	H	0.642514	0.021800	1.454606
H345	H	0.199181	-0.473148	0.741498
H346	H	0.699181	0.026852	1.241498
O347	O	0.008295	-0.426231	0.838635
O348	O	0.508295	0.073769	1.338635
C349	C	-0.073008	-0.382919	0.833283
C350	C	0.426992	0.117081	1.333283
C351	C	-0.017537	-0.396564	0.805061
C352	C	0.482463	0.103436	1.305061
H353	H	-0.093909	-0.358940	0.806151
H354	H	0.406091	0.141060	1.306151
H355	H	-0.083113	-0.362013	0.857285
H356	H	0.416887	0.137987	1.357285
H357	H	-0.083066	-0.417739	0.857311
H358	H	0.416934	0.082261	1.357311
H359	H	-0.007438	-0.361769	0.781006
H360	H	0.492562	0.138231	1.281006
H361	H	-0.007461	-0.417489	0.781090
H362	H	0.492539	0.082511	1.281090
H363	H	0.168250	-0.504186	0.834549
H364	H	0.668250	-0.004186	1.334549
H365	H	-0.057039	-0.501216	0.345698
H366	H	0.442961	-0.001216	0.845698
O367	O	-0.073389	-0.477189	0.551135
O368	O	0.426611	0.022811	1.051135
C369	C	-0.123628	-0.509448	0.633753
C370	C	0.376372	-0.009448	1.133753
C371	C	-0.073446	-0.519295	0.593386
C372	C	0.426554	-0.019295	1.093386
H373	H	-0.123688	-0.543480	0.667927
H374	H	0.376312	-0.043480	1.167927
H375	H	-0.153560	-0.500179	0.620302
H376	H	0.346440	-0.000179	1.120302
H377	H	-0.130778	-0.477375	0.642925
H378	H	0.369222	0.022625	1.142925
H379	H	-0.066250	-0.551373	0.584197
H380	H	0.433750	-0.051373	1.084197
H381	H	-0.043542	-0.528535	0.606858
H382	H	0.456458	-0.028535	1.106858
H383	H	0.015959	-0.428182	0.532734
H384	H	0.515959	0.071818	1.032734
O385	O	0.041703	-0.392521	0.568347
O386	O	0.541703	0.107479	1.068347
C387	C	-0.043171	-0.352834	0.608154
C388	C	0.456829	0.147166	1.108154
C389	C	-0.006496	-0.385272	0.575708
C390	C	0.493504	0.114728	1.075708
H391	H	-0.082147	-0.346971	0.614124
H392	H	0.417853	0.153029	1.114124
H393	H	-0.037315	-0.315913	0.589366
H394	H	0.462685	0.184087	1.089366
H395	H	-0.037197	-0.371634	0.645023
H396	H	0.462803	0.128366	1.145023
H397	H	-0.012447	-0.366515	0.538834
H398	H	0.487553	0.133485	1.038834
H399	H	-0.012361	-0.422191	0.594534
H400	H	0.487639	0.077809	1.094534
H401	H	0.167905	-0.504126	0.456671
H402	H	0.667905	-0.004126	0.956671
H403	H	0.338981	-0.510371	0.554246
H404	H	0.838981	-0.010371	1.054246
O405	O	0.206888	-0.475097	0.485667
O406	O	0.706888	0.024903	0.985667
C407	C	0.288149	-0.518370	0.442229
C408	C	0.788149	-0.018370	0.942229
C409	C	0.232665	-0.504743	0.455917
C410	C	0.732665	-0.004743	0.955917
H411	H	0.309006	-0.542332	0.418166
H412	H	0.809006	-0.042332	0.918166
H413	H	0.298320	-0.539288	0.476996
H414	H	0.798320	-0.039288	0.976996
H415	H	0.298195	-0.483542	0.421365
H416	H	0.798195	0.016458	0.921365
H417	H	0.222580	-0.539546	0.476769
H418	H	0.722580	-0.039546	0.976769
H419	H	0.222524	-0.483806	0.421133
H420	H	0.722524	0.016194	0.921133
H421	H	0.431972	-0.390789	0.465748
H422	H	0.931972	0.109211	0.965748
O423	O	0.435986	-0.549246	0.524366
O424	O	0.935986	-0.049246	1.024366
C425	C	0.430607	-0.629761	0.557536
C426	C	0.930607	-0.129761	1.057536
C427	C	0.402401	-0.574706	0.549527
C428	C	0.902401	-0.074706	1.049527
H429	H	0.403466	-0.650360	0.577870
H430	H	0.903466	-0.150360	1.077870
H431	H	0.454635	-0.644229	0.580091
H432	H	0.954635	-0.144229	1.080091
H433	H	0.454608	-0.635447	0.520539
H434	H	0.954608	-0.135447	1.020539
H435	H	0.378374	-0.568978	0.586501
H436	H	0.878374	-0.068978	1.086501
H437	H	0.378404	-0.560264	0.526950
H438	H	0.878404	-0.060264	1.026950
H439	H	0.338923	-0.359792	0.496821
H440	H	0.838923	0.140208	0.996821
O441	O	0.021107	-0.661174	0.171670
O442	O	0.521107	-0.161174	0.671670
C443	C	0.064444	-0.742472	0.166302
C444	C	0.564444	-0.242472	0.666302
C445	C	0.050868	-0.686994	0.138090
C446	C	0.550868	-0.186994	0.638090
H447	H	0.088516	-0.763364	0.139165
H448	H	0.588516	-0.263364	0.639165
H449	H	0.029633	-0.752553	0.190248
H450	H	0.529633	-0.252553	0.690248
H451	H	0.085260	-0.752570	0.190387
H452	H	0.585260	-0.252570	0.690387
H453	H	0.030064	-0.676857	0.113979
H454	H	0.530064	-0.176857	0.613979
H455	H	0.085697	-0.676944	0.114175
H456	H	0.585697	-0.176944	0.614175
O457	O	0.165488	-0.223126	0.444394
O458	O	0.665488	0.276874	0.944394
C459	C	0.205174	-0.217685	0.359501
C460	C	0.705174	0.282315	0.859501
C461	C	0.172769	-0.189512	0.396208
C462	C	0.672769	0.310488	0.896208
H463	H	0.211079	-0.190520	0.320534
H464	H	0.711079	0.309480	0.820534
H465	H	0.186390	-0.241696	0.365391
H466	H	0.686390	0.258304	0.865391
H467	H	0.242074	-0.241703	0.365409
H468	H	0.742074	0.258297	0.865409
H469	H	0.135864	-0.165468	0.390322
H470	H	0.635864	0.334532	0.890322
H471	H	0.191591	-0.165533	0.390308
H472	H	0.691591	0.334467	0.890308
H473	H	0.053957	-0.126168	0.570702
H474	H	0.553957	0.373832	1.070702
O475	O	0.083051	-0.223181	0.609623
O476	O	0.583051	0.276819	1.109623
C477	C	0.039740	-0.217792	0.690909
C478	C	0.539740	0.282208	1.190909
C479	C	0.053328	-0.189589	0.635431
C480	C	0.553328	0.310411	1.135431
H481	H	0.015699	-0.190646	0.711792
H482	H	0.515699	0.309354	1.211792
H483	H	0.074547	-0.241785	0.701008
H484	H	0.574547	0.258215	1.201008
H485	H	0.018886	-0.241829	0.700999
H486	H	0.518886	0.258171	1.200999
H487	H	0.074170	-0.165526	0.625302
H488	H	0.574170	0.334474	1.125302
H489	H	0.018503	-0.165627	0.625362
H490	H	0.518503	0.334373	1.125362
O491	O	-0.061353	-0.495967	0.171624
O492	O	0.438647	0.004033	0.671624
C493	C	-0.067939	-0.429590	0.187316
C494	C	0.432061	0.070410	0.687316
C495	C	-0.035499	-0.466293	0.159138
C496	C	0.464501	0.033707	0.659138
H497	H	-0.047053	-0.405582	0.177224
H498	H	0.452947	0.094418	0.677224
H499	H	-0.078084	-0.450421	0.228392
H500	H	0.421916	0.049579	0.728392
H501	H	-0.102716	-0.405572	0.177166
H502	H	0.397284	0.094428	0.677166
H503	H	-0.000701	-0.490320	0.169246
H504	H	0.499299	0.009680	0.669246
H505	H	-0.025394	-0.445431	0.118069
H506	H	0.474606	0.054569	0.618069
H507	H	0.129813	-0.126117	0.418717
H508	H	0.629813	0.373883	0.918717
O509	O	-0.027666	-0.462336	0.070558
O510	O	0.472334	0.037664	0.570558
C511	C	-0.092643	-0.385471	0.054784
C512	C	0.407357	0.114529	0.554784
C513	C	-0.079032	-0.440945	0.083015
C514	C	0.420968	0.059055	0.583015
H515	H	-0.134173	-0.368159	0.064853
H516	H	0.365827	0.131841	0.564853
H517	H	-0.075342	-0.378968	0.013716
H518	H	0.424658	0.121032	0.513716
H519	H	-0.078486	-0.368213	0.064908
H520	H	0.421514	0.131787	0.564908
H521	H	-0.093186	-0.458240	0.072932
H522	H	0.406814	0.041760	0.572932
H523	H	-0.096326	-0.447414	0.124076
H524	H	0.403674	0.052586	0.624076
H525	H	0.050281	-0.622271	0.074658
H526	H	0.550281	-0.122271	0.574658
H527	H	-0.026079	-0.470245	0.376824
H528	H	0.473921	0.029755	0.876824
H529	H	0.018765	-0.653217	0.421828
H530	H	0.518765	-0.153217	0.921828
O531	O	0.054337	-0.627552	0.457597
O532	O	0.554337	-0.127552	0.957597
C533	C	0.094011	-0.712452	0.497371
C534	C	0.594011	-0.212452	0.997371
C535	C	0.061648	-0.675738	0.464852
C536	C	0.561648	-0.175738	0.964852
H537	H	0.099941	-0.751418	0.503239
H538	H	0.599941	-0.251418	1.003239
H539	H	0.075181	-0.706561	0.534283
H540	H	0.575181	-0.206561	1.034283
H541	H	0.130903	-0.706552	0.478636
H542	H	0.630903	-0.206552	0.978636
H543	H	0.024751	-0.681616	0.483544
H544	H	0.524751	-0.181616	0.983544
H545	H	0.080517	-0.681638	0.427943
H546	H	0.580517	-0.181638	0.927943
H547	H	0.087072	-0.886205	0.386121
H548	H	0.587072	-0.386205	0.886121
O549	O	0.061365	-0.789206	0.351272
O550	O	0.561365	-0.289206	0.851272
C551	C	0.145488	-0.794709	0.321796
C552	C	0.645488	-0.294709	0.821796
C553	C	0.109199	-0.822848	0.348531
C554	C	0.609199	-0.322848	0.848531
H555	H	0.184171	-0.821897	0.319562
H556	H	0.684171	-0.321897	0.819562
H557	H	0.135209	-0.770705	0.342777
H558	H	0.635209	-0.270705	0.842777
H559	H	0.143949	-0.770688	0.283221
H560	H	0.643949	-0.270688	0.783221
H561	H	0.110719	-0.846896	0.387106
H562	H	0.610719	-0.346896	0.887106
H563	H	0.119490	-0.846821	0.327513
H564	H	0.619490	-0.346821	0.827513
H565	H	-0.063498	-0.886058	0.443304
H566	H	0.436502	-0.386058	0.943304
O567	O	-0.102320	-0.789038	0.413388
O568	O	0.397680	-0.289038	0.913388
C569	C	-0.182834	-0.794373	0.446450
C570	C	0.317166	-0.294373	0.946450
C571	C	-0.127800	-0.822605	0.438550
C572	C	0.372200	-0.322605	0.938550
H573	H	-0.203452	-0.821500	0.466804
H574	H	0.296548	-0.321500	0.966804
H575	H	-0.188503	-0.770383	0.409442
H576	H	0.311497	-0.270383	0.909442
H577	H	-0.197293	-0.770330	0.468984
H578	H	0.302707	-0.270330	0.968984
H579	H	-0.113304	-0.846675	0.416034
H580	H	0.386696	-0.346675	0.916034
H581	H	-0.122163	-0.846565	0.475576
H582	H	0.377837	-0.346565	0.975576
H583	H	-0.235077	-0.614964	0.459366
H584	H	0.264923	-0.114964	0.959366
O585	O	-0.332093	-0.585859	0.498172
O586	O	0.167907	-0.085859	0.998172
C587	C	-0.326810	-0.629181	0.579504
C588	C	0.173190	-0.129181	1.079504
C589	C	-0.298551	-0.615552	0.524040
C590	C	0.201449	-0.115552	1.024040
H591	H	-0.299704	-0.653181	0.600435
H592	H	0.200296	-0.153181	1.100435
H593	H	-0.350816	-0.650060	0.589573
H594	H	0.149184	-0.150060	1.089573
H595	H	-0.350838	-0.594356	0.589565
H596	H	0.149162	-0.094356	1.089565
H597	H	-0.274497	-0.650352	0.513939
H598	H	0.225503	-0.150352	1.013939
H599	H	-0.274576	-0.594654	0.514001
H600	H	0.225424	-0.094654	1.014001
H601	H	-0.327887	-0.507903	0.338181
H602	H	0.172113	-0.007903	0.838181
H603	H	0.169984	-0.533889	0.364272
H604	H	0.669984	-0.033889	0.864272
O605	O	-0.230873	-0.537040	0.299375
O606	O	0.269127	-0.037040	0.799375
C607	C	-0.236159	-0.493676	0.218044
C608	C	0.263841	0.006324	0.718044
C609	C	-0.264416	-0.507279	0.273509
C610	C	0.235584	-0.007279	0.773509
H611	H	-0.263266	-0.469604	0.197115
H612	H	0.236734	0.030396	0.697115
H613	H	-0.212160	-0.528478	0.207937
H614	H	0.287840	-0.028478	0.707937
H615	H	-0.212125	-0.472847	0.208018
H616	H	0.287875	0.027153	0.708018
H617	H	-0.288477	-0.528096	0.283574
H618	H	0.211523	-0.028096	0.783574
H619	H	-0.288383	-0.472460	0.283585
H620	H	0.211617	0.027540	0.783585
