data_functionalizedCrystal
_audit_creation_method	'MofGen! by Chris Wilmer'
_symmetry_space_group_name_H-M	'P1'
_symmetry_Int_Tables_number	1
_symmetry_cell_setting	triclinic
loop_
_symmetry_equiv_pos_as_xyz
  x,y,z
_cell_length_a	17.077404
_cell_length_b	12.759399
_cell_length_c	12.759386
_cell_angle_alpha	89.937142
_cell_angle_beta	89.955786
_cell_angle_gamma	90.015341
loop_
_atom_site_label
_atom_site_type_symbol
_atom_site_fract_x
_atom_site_fract_y
_atom_site_fract_z
Zn1	Zn	1.200289	-0.417878	-0.594066
Zn2	Zn	1.200157	-0.593691	-0.418384
Zn3	Zn	1.068964	-0.418028	-0.418395
Zn4	Zn	1.069006	-0.593516	-0.594017
O5	O	1.134604	-0.505778	-0.506216
O6	O	1.310118	-0.441210	-0.570777
O7	O	1.182681	-0.570525	-0.271365
O8	O	1.086422	-0.270987	-0.441724
O9	O	1.310021	-0.570380	-0.441705
O10	O	1.182905	-0.270877	-0.570788
O11	O	1.086294	-0.441466	-0.271373
O12	O	0.959122	-0.441296	-0.441676
O13	O	1.086494	-0.570081	-0.741044
O14	O	0.959154	-0.570226	-0.570704
O15	O	1.182947	-0.441040	-0.741081
O16	O	1.182722	-0.740689	-0.441657
O17	O	1.086366	-0.740560	-0.570693
C18	C	0.930656	-0.505759	-0.506187
C19	C	0.843406	-0.505776	-0.506199
C20	C	0.802453	-0.573012	-0.573276
C21	C	0.720472	-0.573014	-0.573293
C22	C	0.679447	-0.505785	-0.506227
C23	C	0.720406	-0.438542	-0.439146
C24	C	0.802385	-0.438536	-0.439136
C25	C	0.549536	-0.438563	-0.439172
C26	C	0.467551	-0.438571	-0.439181
C27	C	0.467623	-0.573042	-0.573329
C28	C	0.549602	-0.573035	-0.573318
C29	C	0.590556	-0.505793	-0.506237
C30	C	1.134556	-0.778746	-0.506192
C31	C	1.134607	-0.895522	-0.506217
C32	C	1.184837	-0.950416	-0.439104
C33	C	1.184887	-1.060140	-0.439139
C34	C	1.084471	-1.060066	-0.573403
C35	C	1.084425	-0.950344	-0.573372
C36	C	1.277530	-1.210039	-0.401755
C37	C	1.327753	-1.264937	-0.334626
C38	C	1.339800	-1.229454	-0.232116
C39	C	1.301613	-1.139075	-0.196715
C40	C	1.251384	-1.084183	-0.263838
C41	C	1.239352	-1.119664	-0.366363
C42	C	0.991782	-0.800443	-0.610745
C43	C	0.941548	-0.745549	-0.677864
C44	C	0.929493	-0.781030	-0.780376
C45	C	0.967667	-0.871413	-0.815773
C46	C	1.017900	-0.926307	-0.748654
C47	C	1.029956	-0.890818	-0.646144
C48	C	1.339348	-0.505798	-0.506245
C49	C	1.426598	-0.505807	-0.506258
C50	C	1.134740	-0.505524	-0.780249
C51	C	1.134798	-0.505416	-0.897026
C52	C	1.134673	-0.231745	-0.506263
C53	C	1.134703	-0.114968	-0.506283
C54	C	1.134514	-0.505955	-0.233248
C55	C	1.134608	-0.505767	-0.116472
C56	C	1.084107	-0.438978	-0.061663
C57	C	1.084204	-0.438800	0.048060
C58	C	1.185304	-0.572208	0.048158
C59	C	1.185211	-0.572381	-0.061564
C60	C	1.055643	-0.314933	0.197753
C61	C	1.005129	-0.248153	0.252565
C62	C	0.928424	-0.232818	0.217109
C63	C	0.902216	-0.284278	0.126843
C64	C	0.952725	-0.351065	0.072037
C65	C	1.029441	-0.366380	0.107491
C66	C	1.213764	-0.696249	-0.211259
C67	C	1.264269	-0.763043	-0.266067
C68	C	1.340976	-0.778389	-0.230613
C69	C	1.367182	-0.726948	-0.140344
C70	C	1.316676	-0.660154	-0.085535
C71	C	1.239970	-0.644806	-0.120997
H72	H	0.434275	-0.627789	-0.627953
C73	C	1.345507	-0.603563	0.013762
N74	N	1.367222	-0.560938	0.088551
H75	H	1.151304	-0.683751	-0.240141
H76	H	1.429642	-0.739445	-0.111474
H77	H	0.434150	-0.383815	-0.384582
H78	H	0.835850	-0.627761	-0.627886
C79	C	1.264286	-1.249076	-0.514524
N80	N	1.254309	-1.278485	-0.599462
C81	C	1.209384	-0.984767	-0.224905
N82	N	1.177755	-0.909880	-0.195579
C83	C	1.005040	-0.761406	-0.497975
N84	N	1.015021	-0.732003	-0.413036
H85	H	0.582878	-0.383798	-0.384556
H86	H	1.043614	-1.104716	-0.628077
H87	H	1.042906	-0.384734	-0.106366
H88	H	1.382096	-0.832784	-0.275245
H89	H	0.835728	-0.383780	-0.384520
C90	C	1.140026	-0.331788	0.236758
N91	N	1.203584	-0.344485	0.266143
H92	H	0.686996	-0.383799	-0.384544
C93	C	1.240958	-0.645487	0.108567
N94	N	1.282875	-0.700686	0.154066
H95	H	0.687132	-0.627765	-0.627913
H96	H	1.242926	-0.804928	-0.339570
C97	C	0.954407	-0.910445	-0.928543
N98	N	0.944417	-0.939841	-1.013482
H99	H	0.931386	-0.392963	-0.001456
H100	H	1.225699	-0.905783	-0.384423
H101	H	0.583003	-0.627784	-0.627924
C102	C	0.872863	-0.159351	0.277402
N103	N	0.831020	-0.104010	0.322815
H104	H	1.311419	-1.110198	-0.113236
H105	H	0.839751	-0.271795	0.097989
C106	C	1.395003	-1.289888	-0.158253
N107	N	1.436570	-1.335425	-0.102616
C108	C	0.874230	-0.720643	-0.854204
N109	N	0.832610	-0.675161	-0.909814
C110	C	1.059898	-1.025725	-0.787600
N111	N	1.091533	-1.100604	-0.816934
H112	H	1.358845	-1.338524	-0.363460
H113	H	0.910470	-0.671950	-0.649037
H114	H	1.026475	-0.206254	0.326060
