data_functionalizedCrystal
_audit_creation_method	'MofGen! by Chris Wilmer'
_symmetry_space_group_name_H-M	'P1'
_symmetry_Int_Tables_number	1
_symmetry_cell_setting	triclinic
loop_
_symmetry_equiv_pos_as_xyz
  x,y,z
_cell_length_a	15.538191
_cell_length_b	23.532407
_cell_length_c	14.185569
_cell_angle_alpha	76.924933
_cell_angle_beta	97.875798
_cell_angle_gamma	65.060386
loop_
_atom_site_label
_atom_site_type_symbol
_atom_site_fract_x
_atom_site_fract_y
_atom_site_fract_z
O1	O	1.230119	-0.167965	-0.083405
O2	O	0.955241	-0.102078	-0.083414
O3	O	1.100973	-0.219642	-0.083391
O4	O	1.084386	-0.050401	-0.083428
O5	O	1.144024	-0.254369	0.083451
O6	O	0.998292	-0.136805	0.083427
O7	O	1.273169	-0.202692	0.083436
Cu8	Cu	1.139661	-0.172919	0.098666
Cu9	Cu	1.088749	-0.131851	-0.098643
O10	O	1.127437	-0.085128	0.083413
C11	C	0.941606	-0.112548	0.000006
C12	C	0.836839	-0.092014	0.000003
C13	C	0.550965	-0.296010	0.000032
C14	C	0.452518	-0.276701	0.000027
C15	C	0.429052	-0.168092	0.000004
C16	C	0.527501	-0.187393	0.000014
C17	C	0.588450	-0.251353	0.000027
C18	C	0.564986	-0.142735	0.000008
C19	C	0.663425	-0.162034	0.000013
C20	C	0.724379	-0.225991	0.000023
C21	C	0.686889	-0.270652	0.000031
C22	C	0.504034	-0.078774	-0.000012
C23	C	0.541519	-0.034116	-0.000018
C24	C	0.639961	-0.053416	-0.000006
C25	C	0.700915	-0.117373	0.000004
C26	C	0.677451	-0.008755	-0.000015
C27	C	0.775890	-0.028054	-0.000010
C28	C	0.799355	-0.136672	0.000009
C29	C	1.122077	-0.258136	0.000032
C30	C	1.120810	-0.321097	0.000040
C31	C	1.199074	-0.736103	-0.000012
C32	C	1.197893	-0.795262	-0.000020
O33	O	1.270447	-0.846751	-0.000055
N34	N	1.111258	-0.800275	-0.000022
C35	C	1.025796	-0.746122	-0.000027
O36	O	0.951997	-0.755818	-0.000030
C37	C	1.026976	-0.686963	-0.000026
C38	C	1.113619	-0.681957	-0.000014
C39	C	1.285710	-0.731095	-0.000001
C40	C	1.286891	-0.671940	0.000008
C41	C	1.201436	-0.617794	0.000007
C42	C	1.114800	-0.622802	-0.000004
C43	C	0.941513	-0.632810	-0.000038
C44	C	0.942700	-0.573649	-0.000038
C45	C	1.029343	-0.568643	-0.000026
C46	C	1.030526	-0.509502	0.000003
N47	N	1.117161	-0.504489	0.000006
C48	C	1.202616	-0.558635	0.000007
C49	C	1.023323	-0.870361	-0.000030
C50	C	1.022144	-0.929521	-0.000023
C51	C	1.194241	-0.978656	-0.000018
C52	C	1.195421	-0.919497	-0.000017
C53	C	1.109958	-0.865349	-0.000027
C54	C	1.205090	-0.434404	0.000028
C55	C	1.206265	-0.375243	0.000042
C56	C	1.034167	-0.326112	0.000032
C57	C	1.032993	-0.385269	0.000023
C58	C	1.118462	-0.439415	0.000018
O59	O	0.958009	-0.457984	0.000034
O60	O	1.276399	-0.548925	-0.000003
C61	C	1.286804	-0.192222	0.000014
C62	C	1.391568	-0.212754	0.000010
C63	C	1.106332	-0.046633	-0.000012
C64	C	1.107598	0.016329	-0.000026
N65	N	1.175477	-0.201806	0.237443
N66	N	1.052941	-0.102970	-0.237420
C67	C	0.947714	-0.018124	0.605056
C68	C	0.974850	-0.040003	0.710082
C69	C	1.103922	-0.144083	0.710064
C70	C	1.076793	-0.122214	0.605036
C71	C	0.998689	-0.059234	0.552540
C72	C	1.127769	-0.163323	0.552520
C73	C	1.100645	-0.141454	0.447501
C74	C	1.022546	-0.078476	0.394998
C75	C	0.971565	-0.037365	0.447521
C76	C	1.205877	-0.226302	0.605017
C77	C	1.256852	-0.267411	0.552501
C78	C	1.229724	-0.245544	0.447480
C79	C	1.151625	-0.182566	0.394977
C80	C	1.280705	-0.286655	0.394957
C81	C	1.253581	-0.264786	0.289938
C82	C	1.124502	-0.160697	0.289959
H83	H	0.848985	-0.188756	0.000025
H84	H	0.951595	-0.933593	-0.000015
O85	O	1.040238	-0.092777	0.233315
H86	H	1.067327	-0.063272	0.185437
O87	O	0.816325	0.020112	-0.000012
H88	H	0.895013	-0.004053	-0.000016
H89	H	0.953727	-0.826275	-0.000029
O90	O	0.830558	-0.246810	0.000043
H91	H	0.866640	-0.298786	0.000051
O92	O	1.364952	-0.354577	0.451588
H93	H	1.395848	-0.379488	0.397426
H94	H	0.422003	-0.313071	0.000030
O95	O	1.299714	-0.369840	0.000039
H96	H	1.358931	-0.417430	0.000024
O97	O	0.848061	-0.638201	-0.000055
H98	H	0.788844	-0.590602	-0.000068
O99	O	0.850524	-0.515246	-0.000037
H100	H	0.790087	-0.528675	-0.000036
H101	H	0.491880	0.017961	-0.000033
O102	O	1.377888	-0.789493	0.000004
H103	H	1.399012	-0.831780	0.068005
H104	H	1.295092	-0.298262	0.247179
H105	H	0.907959	0.013917	0.404778
H106	H	0.600596	-0.348094	0.000049
O107	O	1.380343	-0.666547	0.000012
H108	H	1.366825	-0.616318	0.000022
O109	O	0.863451	0.049801	0.548443
H110	H	0.805460	0.045192	0.500628
H111	H	0.933333	-0.006521	0.752836
H112	H	1.265973	-0.915427	-0.000008
O113	O	1.286416	-1.037062	-0.000020
H114	H	1.272444	-1.051023	-0.068029
O115	O	0.752641	-0.339638	0.000048
H116	H	0.710040	-0.367452	0.000049
H117	H	0.379414	-0.116014	-0.000011
O118	O	1.188158	-0.212011	0.766684
H119	H	1.198453	-0.220315	0.848534
O120	O	0.397861	-0.057957	-0.000007
H121	H	0.359421	-0.062166	-0.067996
O122	O	1.235142	-0.249895	0.718289
H123	H	1.171889	-0.250254	0.746001
O124	O	1.341093	-0.335338	0.609120
H125	H	1.313986	-0.364840	0.656975
O126	O	0.611713	0.060227	-0.000024
H127	H	0.536966	0.066143	-0.000022
H128	H	1.274686	-0.478485	0.000020
H129	H	0.962449	-0.389350	0.000041
O130	O	0.941999	-0.267707	0.000028
H131	H	0.957382	-0.225731	0.000025
O132	O	0.993280	-0.054888	0.281726
H133	H	1.056538	-0.054544	0.254009
