data_functionalizedCrystal
_audit_creation_method	'MofGen! by Chris Wilmer'
_symmetry_space_group_name_H-M	'P1'
_symmetry_Int_Tables_number	1
_symmetry_cell_setting	triclinic
loop_
_symmetry_equiv_pos_as_xyz
  x,y,z
_cell_length_a	16.956995
_cell_length_b	17.000383
_cell_length_c	15.455313
_cell_angle_alpha	92.453043
_cell_angle_beta	87.515363
_cell_angle_gamma	75.827387
loop_
_atom_site_label
_atom_site_type_symbol
_atom_site_fract_x
_atom_site_fract_y
_atom_site_fract_z
O1	O	1.059473	0.029409	-0.072190
O2	O	1.559473	0.529409	0.427810
O3	O	0.825347	0.057481	-0.072178
O4	O	1.325347	0.557481	0.427822
O5	O	0.956946	-0.073377	-0.072181
O6	O	1.456946	0.426623	0.427819
O7	O	0.927874	0.160267	-0.072187
O8	O	1.427874	0.660267	0.427813
O9	O	0.949423	-0.065923	0.072081
O10	O	1.449423	0.434077	0.572081
O11	O	0.817824	0.064936	0.072084
O12	O	1.317824	0.564936	0.572084
O13	O	1.051950	0.036863	0.072072
O14	O	1.551950	0.536863	0.572072
Cu15	Cu	0.934200	0.051580	0.085251
Cu16	Cu	1.434200	0.551580	0.585251
Cu17	Cu	0.943097	0.042765	-0.085356
Cu18	Cu	1.443097	0.542765	0.414644
O19	O	0.920351	0.167722	0.072076
O20	O	1.420351	0.667722	0.572076
C21	C	0.791777	0.062646	-0.000045
C22	C	1.291777	0.562646	0.499955
C23	C	0.702957	0.066919	-0.000041
C24	C	1.202957	0.566919	0.499959
C25	C	0.954746	-0.099406	-0.000051
C26	C	1.454746	0.400594	0.499949
C27	C	0.959389	-0.188070	-0.000054
C28	C	1.459389	0.311930	0.499946
C29	C	0.201417	0.098886	-0.000074
C30	C	0.701417	0.598886	0.499926
C31	C	0.284874	0.094864	-0.000073
C32	C	0.784874	0.594864	0.499927
C33	C	0.341253	0.019382	-0.000065
C34	C	0.841253	0.519382	0.499935
C35	C	0.314173	-0.052084	-0.000066
C36	C	0.814173	0.447916	0.499934
C37	C	0.230718	-0.048063	-0.000073
C38	C	0.730718	0.451937	0.499927
C39	C	0.592421	-0.000525	-0.000049
C40	C	1.092421	0.499475	0.499951
C41	C	0.675881	-0.004541	-0.000039
C42	C	1.175881	0.495459	0.499961
C43	C	0.646576	0.142408	-0.000048
C44	C	1.146576	0.642408	0.499952
C45	C	0.563120	0.146423	-0.000050
C46	C	1.063120	0.646423	0.499950
C47	C	0.536047	0.074957	-0.000056
C48	C	1.036047	0.574957	0.499944
N49	N	0.426560	0.015270	-0.000061
N50	N	0.926560	0.515270	0.499939
N51	N	0.450742	0.079069	-0.000065
N52	N	0.950742	0.579069	0.499935
C53	C	0.989369	-0.690260	-0.000059
C54	C	1.489369	-0.190260	0.499941
C55	C	0.985000	-0.606949	-0.000054
C56	C	1.485000	-0.106949	0.499946
C57	C	0.909170	-0.550966	-0.000054
C58	C	1.409170	-0.050966	0.499946
C59	C	0.837704	-0.578296	-0.000051
C60	C	1.337704	-0.078296	0.499949
C61	C	0.842073	-0.661605	-0.000050
C62	C	1.342073	-0.161605	0.499950
C63	C	0.892292	-0.298709	-0.000050
C64	C	1.392292	0.201291	0.499950
C65	C	0.887928	-0.215396	-0.000054
C66	C	1.387928	0.284604	0.499946
C67	C	1.035225	-0.244055	-0.000055
C68	C	1.535225	0.255945	0.499945
C69	C	1.039588	-0.327365	-0.000060
C70	C	1.539588	0.172635	0.499940
C71	C	0.968122	-0.354687	-0.000052
C72	C	1.468122	0.145313	0.499948
C73	C	0.904702	-0.465809	-0.000051
C74	C	1.404702	0.034191	0.499949
C75	C	0.972590	-0.439843	-0.000049
C76	C	1.472590	0.060157	0.499951
C77	C	1.085520	0.031699	-0.000062
C78	C	1.585520	0.531699	0.499938
C79	C	1.174341	0.027425	-0.000072
C80	C	1.674341	0.527425	0.499928
C81	C	0.922551	0.193751	-0.000056
C82	C	1.422551	0.693751	0.499944
C83	C	0.917908	0.282415	-0.000059
C84	C	1.417908	0.782415	0.499941
N85	N	0.927948	0.057779	0.205246
N86	N	1.427948	0.557779	0.705246
N87	N	0.949356	0.036558	-0.205352
N88	N	1.449356	0.536558	0.294648
C89	C	0.983873	0.002204	0.250639
C90	C	1.483873	0.502204	0.750639
C91	C	0.979151	0.006899	0.341447
C92	C	1.479151	0.506899	0.841447
C93	C	0.918508	0.067174	0.386861
C94	C	1.418508	0.567174	0.886861
C95	C	0.862578	0.122752	0.341462
C96	C	1.362578	0.622752	0.841462
C97	C	0.867296	0.118053	0.250655
C98	C	1.367296	0.618053	0.750655
C99	C	0.898144	0.087437	0.658443
C100	C	1.398144	0.587437	1.158443
C101	C	0.893431	0.092134	0.749255
C102	C	1.393431	0.592134	1.249255
C103	C	1.010004	-0.023720	0.749235
C104	C	1.510004	0.476280	1.249235
C105	C	1.014720	-0.028412	0.658426
C106	C	1.514720	0.471588	1.158426
C107	C	0.958787	0.027164	0.613035
C108	C	1.458787	0.527164	1.113035
N109	N	0.913683	0.071976	0.479681
N110	N	1.413683	0.571976	0.979681
N111	N	0.963610	0.022357	0.520217
N112	N	1.463610	0.522357	1.020217
H113	H	0.155516	0.160352	-0.000074
H114	H	0.655516	0.660352	0.499926
H115	H	0.360085	-0.113544	-0.000064
H116	H	0.860085	0.386456	0.499936
F117	F	0.735884	-0.084884	-0.000032
F118	F	1.235884	0.415116	0.499968
F119	F	0.824001	-0.406221	-0.000056
F120	F	1.324001	0.093779	0.499944
H121	H	0.852602	0.132690	0.621492
H122	H	1.352602	0.632690	1.121492
H123	H	1.101337	-0.372942	-0.000056
H124	H	1.601337	0.127058	0.499944
H125	H	1.024689	-0.038355	0.378405
H126	H	1.524689	0.461645	0.878405
F127	F	0.756999	-0.518712	-0.000047
F128	F	1.256999	-0.018712	0.499953
H129	H	1.034330	-0.485428	-0.000044
H130	H	1.534330	0.014572	0.499956
F131	F	1.048421	-0.061946	0.202315
F132	F	1.548421	0.438054	0.702315
H133	H	1.064101	-0.077492	0.621452
H134	H	1.564101	0.422508	1.121452
H135	H	0.821756	0.163307	0.213697
H136	H	1.321756	0.663307	0.713697
H137	H	0.208675	-0.106254	-0.000074
H138	H	0.708675	0.393746	0.499926
H139	H	1.055542	-0.068968	0.786200
H140	H	1.555542	0.431032	1.286200
H141	H	1.051119	-0.735838	-0.000066
H142	H	1.551119	-0.235838	0.499934
F143	F	0.828883	0.156292	0.797582
F144	F	1.328883	0.656292	1.297582
F145	F	0.798033	0.186898	0.389795
F146	F	1.298033	0.686898	0.889795
H147	H	0.306914	0.153055	-0.000082
H148	H	0.806914	0.653055	0.499918
H149	H	0.517220	0.207889	-0.000059
H150	H	1.017220	0.707889	0.499941
F151	F	1.061060	-0.577873	-0.000071
F152	F	1.561060	-0.077873	0.499929
H153	H	0.668628	0.200592	-0.000044
H154	H	1.168628	0.700592	0.499956
F155	F	1.111279	-0.214969	-0.000061
F156	F	1.611279	0.285031	0.499939
F157	F	0.807216	-0.155814	-0.000051
F158	F	1.307216	0.344186	0.499949
F159	F	0.816231	-0.327778	-0.000049
F160	F	1.316231	0.172222	0.499951
F161	F	0.766015	-0.690685	-0.000045
F162	F	1.266015	-0.190685	0.499955
F163	F	0.563620	-0.076587	-0.000072
F164	F	1.063620	0.423413	0.499928
