data_functionalizedCrystal
_audit_creation_method	'MofGen! by Chris Wilmer'
_symmetry_space_group_name_H-M	'P1'
_symmetry_Int_Tables_number	1
_symmetry_cell_setting	triclinic
loop_
_symmetry_equiv_pos_as_xyz
  x,y,z
_cell_length_a	19.805407
_cell_length_b	29.839131
_cell_length_c	19.805399
_cell_angle_alpha	89.969027
_cell_angle_beta	89.983114
_cell_angle_gamma	90.041420
loop_
_atom_site_label
_atom_site_type_symbol
_atom_site_fract_x
_atom_site_fract_y
_atom_site_fract_z
Zn1	Zn	1.034647	-0.178858	-0.382710
Zn2	Zn	1.367980	0.154476	-0.049377
Zn3	Zn	1.701314	0.487809	0.283956
Zn4	Zn	1.034538	-0.253987	-0.269518
Zn5	Zn	1.367871	0.079346	0.063815
Zn6	Zn	1.701204	0.412680	0.397149
Zn7	Zn	0.921467	-0.178872	-0.269535
Zn8	Zn	1.254800	0.154462	0.063798
Zn9	Zn	1.588134	0.487795	0.397132
Zn10	Zn	0.921396	-0.253961	-0.382665
Zn11	Zn	1.254729	0.079372	-0.049332
Zn12	Zn	1.588062	0.412705	0.284002
O13	O	0.978012	-0.216419	-0.326107
O14	O	1.311345	0.116914	0.007226
O15	O	1.644679	0.450247	0.340560
O16	O	1.129349	-0.188828	-0.367707
O17	O	1.462682	0.144505	-0.034374
O18	O	1.796016	0.477838	0.298960
O19	O	1.019523	-0.244039	-0.174804
O20	O	1.352856	0.089294	0.158530
O21	O	1.686189	0.422627	0.491863
O22	O	0.936556	-0.116003	-0.284574
O23	O	1.269890	0.217331	0.048759
O24	O	1.603223	0.550664	0.382093
O25	O	1.129269	-0.244026	-0.284545
O26	O	1.462602	0.089308	0.048788
O27	O	1.795935	0.422641	0.382121
O28	O	1.019709	-0.115992	-0.367723
O29	O	1.353043	0.217341	-0.034390
O30	O	1.686376	0.550674	0.298943
O31	O	0.936450	-0.188853	-0.174816
O32	O	1.269784	0.144481	0.158517
O33	O	1.603117	0.477814	0.491851
O34	O	0.826741	-0.188828	-0.284530
O35	O	1.160074	0.144506	0.048804
O36	O	1.493408	0.477839	0.382137
O37	O	0.936435	-0.243982	-0.477388
O38	O	1.269768	0.089352	-0.144054
O39	O	1.603101	0.422685	0.189279
O40	O	0.826689	-0.243996	-0.367646
O41	O	1.160022	0.089338	-0.034313
O42	O	1.493355	0.422671	0.299021
O43	O	1.019640	-0.188803	-0.477421
O44	O	1.352973	0.144530	-0.144088
O45	O	1.686307	0.477863	0.189246
O46	O	1.019453	-0.316851	-0.284501
O47	O	1.352787	0.016483	0.048832
O48	O	1.686120	0.349816	0.382165
O49	O	0.936328	-0.316832	-0.367630
O50	O	1.269662	0.016502	-0.034296
O51	O	1.602995	0.349835	0.299037
C52	C	0.802156	-0.216411	-0.326085
C53	C	1.135489	0.116923	0.007248
C54	C	1.468823	0.450256	0.340582
C55	C	0.726924	-0.216418	-0.326092
C56	C	1.060257	0.116915	0.007241
C57	C	1.393591	0.450249	0.340575
C58	C	0.691570	-0.245187	-0.369300
C59	C	1.024903	0.088146	-0.035967
C60	C	1.358237	0.421480	0.297366
C61	C	0.620882	-0.245188	-0.369310
C62	C	0.954215	0.088145	-0.035977
C63	C	1.287548	0.421479	0.297357
C64	C	0.585548	-0.216421	-0.326107
C65	C	0.918882	0.116912	0.007226
C66	C	1.252215	0.450245	0.340560
C67	C	0.620907	-0.187649	-0.282897
C68	C	0.954240	0.145684	0.050437
C69	C	1.287574	0.479018	0.383770
C70	C	0.691594	-0.187646	-0.282891
C71	C	1.024928	0.145687	0.050442
C72	C	1.358261	0.479020	0.383776
C73	C	0.335834	-0.187659	-0.282919
C74	C	0.669167	0.145674	0.050414
C75	C	1.002500	0.479008	0.383748
C76	C	0.265142	-0.187665	-0.282927
C77	C	0.598475	0.145668	0.050407
C78	C	0.931808	0.479002	0.383740
C79	C	0.265121	-0.245201	-0.369338
C80	C	0.598455	0.088133	-0.036005
C81	C	0.931788	0.421466	0.297329
C82	C	0.335808	-0.245198	-0.369332
C83	C	0.669142	0.088136	-0.035999
C84	C	1.002475	0.421469	0.297334
C85	C	0.371161	-0.216424	-0.326125
C86	C	0.704494	0.116909	0.007209
C87	C	1.037828	0.450243	0.340542
C88	C	0.447809	-0.216423	-0.326116
C89	C	0.781143	0.116910	0.007218
C90	C	1.114476	0.450244	0.340551
C91	C	0.508901	-0.216424	-0.326112
C92	C	0.842234	0.116909	0.007221
C93	C	1.175568	0.450242	0.340555
C94	C	0.977890	-0.333142	-0.326073
C95	C	1.311223	0.000191	0.007260
C96	C	1.644556	0.333525	0.340593
C97	C	0.977899	-0.383076	-0.326082
C98	C	1.311233	-0.049743	0.007252
C99	C	1.644566	0.283590	0.340585
C100	C	1.021374	-0.692717	-0.282885
C101	C	1.354707	-0.359384	0.050448
C102	C	1.688040	-0.026050	0.383781
C103	C	1.021457	-0.880390	-0.282912
C104	C	1.354791	-0.547057	0.050422
C105	C	1.688124	-0.213723	0.383755
O106	O	1.058324	-0.904652	-0.246159
O107	O	1.391657	-0.571319	0.087175
O108	O	1.724990	-0.237986	0.420508
N109	N	0.978152	-0.903861	-0.326158
N110	N	1.311486	-0.570528	0.007175
N111	N	1.644819	-0.237195	0.340509
C112	C	0.934826	-0.880412	-0.369404
C113	C	1.268160	-0.547078	-0.036071
C114	C	1.601493	-0.213745	0.297262
O115	O	0.898000	-0.904682	-0.406194
O116	O	1.231333	-0.571348	-0.072860
O117	O	1.564666	-0.238015	0.260473
C118	C	0.934747	-0.692740	-0.369381
C119	C	1.268080	-0.359406	-0.036048
C120	C	1.601413	-0.026073	0.297286
C121	C	0.978050	-0.669271	-0.326127
C122	C	1.311383	-0.335937	0.007207
C123	C	1.644716	-0.002604	0.340540
C124	C	1.064674	-0.669248	-0.239635
C125	C	1.398007	-0.335915	0.093698
C126	C	1.731340	-0.002581	0.427031
C127	C	1.064650	-0.622332	-0.239626
C128	C	1.397983	-0.288999	0.093707
C129	C	1.731316	0.044334	0.427040
C130	C	1.021326	-0.598886	-0.282868
C131	C	1.354659	-0.265553	0.050465
C132	C	1.687993	0.067781	0.383799
C133	C	0.978026	-0.622355	-0.326118
C134	C	1.311359	-0.289022	0.007215
C135	C	1.644692	0.044312	0.340549
C136	C	0.891425	-0.669291	-0.412630
C137	C	1.224758	-0.335957	-0.079297
C138	C	1.558091	-0.002624	0.254037
C139	C	0.891410	-0.622370	-0.412621
C140	C	1.224743	-0.289036	-0.079288
C141	C	1.558077	0.044297	0.254045
C142	C	0.934713	-0.598901	-0.369367
C143	C	1.268046	-0.265567	-0.036034
C144	C	1.601380	0.067766	0.297299
C145	C	0.934678	-0.551993	-0.369351
C146	C	1.268011	-0.218660	-0.036017
C147	C	1.601345	0.114673	0.297316
N148	N	0.977983	-0.528522	-0.326104
N149	N	1.311316	-0.195188	0.007229
N150	N	1.644650	0.138145	0.340563
C151	C	1.021307	-0.551968	-0.282863
C152	C	1.354640	-0.218635	0.050471
C153	C	1.687974	0.114698	0.383804
C154	C	0.934870	-0.978942	-0.369412
C155	C	1.268204	-0.645609	-0.036079
C156	C	1.601537	-0.312276	0.297254
C157	C	0.934889	-1.025860	-0.369418
C158	C	1.268223	-0.692527	-0.036084
C159	C	1.601556	-0.359193	0.297249
C160	C	1.021521	-1.025835	-0.282926
C161	C	1.354855	-0.692502	0.050408
C162	C	1.688188	-0.359168	0.383741
C163	C	1.021498	-0.978916	-0.282918
C164	C	1.354832	-0.645583	0.050416
C165	C	1.688165	-0.312250	0.383749
C166	C	0.978175	-0.955471	-0.326166
C167	C	1.311509	-0.622138	0.007167
C168	C	1.644842	-0.288804	0.340501
C169	C	1.021253	-0.453442	-0.282847
C170	C	1.354586	-0.120109	0.050486
C171	C	1.687920	0.213224	0.383819
C172	C	1.021223	-0.406523	-0.282840
C173	C	1.354557	-0.073189	0.050493
C174	C	1.687890	0.260144	0.383826
C175	C	0.934594	-0.406552	-0.369334
C176	C	1.267927	-0.073219	-0.036001
C177	C	1.601261	0.260115	0.297332
C178	C	0.934621	-0.453467	-0.369339
C179	C	1.267954	-0.120134	-0.036006
C180	C	1.601288	0.213199	0.297328
C181	C	0.977956	-0.476911	-0.326093
C182	C	1.311289	-0.143578	0.007240
C183	C	1.644623	0.189755	0.340573
O184	O	0.897836	-0.527702	-0.406090
O185	O	1.231169	-0.194369	-0.072756
O186	O	1.564503	0.138965	0.260577
O187	O	1.058139	-0.527690	-0.246090
O188	O	1.391472	-0.194357	0.087244
O189	O	1.724805	0.138977	0.420577
C190	C	1.021398	-0.739632	-0.282894
C191	C	1.354731	-0.406299	0.050439
C192	C	1.688064	-0.072966	0.383773
C193	C	0.978098	-0.763101	-0.326144
C194	C	1.311431	-0.429768	0.007189
C195	C	1.644764	-0.096435	0.340522
C196	C	0.934774	-0.739655	-0.369386
C197	C	1.268107	-0.406322	-0.036052
C198	C	1.601440	-0.072988	0.297281
C199	C	0.978117	-0.810019	-0.326149
C200	C	1.311450	-0.476686	0.007184
C201	C	1.644783	-0.143353	0.340517
C202	C	1.021440	-0.833466	-0.282908
C203	C	1.354774	-0.500132	0.050425
C204	C	1.688107	-0.166799	0.383759
C205	C	1.064746	-0.809994	-0.239661
C206	C	1.398079	-0.476661	0.093672
C207	C	1.731412	-0.143328	0.427005
C208	C	1.064722	-0.763079	-0.239653
C209	C	1.398055	-0.429745	0.093681
C210	C	1.731388	-0.096412	0.427014
C211	C	0.891469	-0.763126	-0.412632
C212	C	1.224802	-0.429793	-0.079299
C213	C	1.558135	-0.096460	0.254035
C214	C	0.891496	-0.810042	-0.412637
C215	C	1.224829	-0.476709	-0.079303
C216	C	1.558162	-0.143375	0.254030
C217	C	0.934819	-0.833488	-0.369395
C218	C	1.268153	-0.500155	-0.036062
C219	C	1.601486	-0.166822	0.297271
C220	C	1.154555	-0.216428	-0.326129
C221	C	1.487888	0.116905	0.007204
C222	C	1.821221	0.450238	0.340537
C223	C	1.229787	-0.216432	-0.326139
C224	C	1.563120	0.116901	0.007194
C225	C	1.896453	0.450235	0.340528
C226	C	0.978042	-0.216388	-0.502650
C227	C	1.311375	0.116945	-0.169317
C228	C	1.644708	0.450278	0.164017
C229	C	0.978054	-0.216375	-0.577882
C230	C	1.311388	0.116958	-0.244549
C231	C	1.644721	0.450292	0.088785
C232	C	0.978153	-0.099241	-0.326156
C233	C	1.311486	0.234092	0.007178
C234	C	1.644820	0.567426	0.340511
C235	C	0.978213	-0.049307	-0.326176
C236	C	1.311546	0.284027	0.007157
C237	C	1.644880	0.617360	0.340490
C238	C	0.934811	-0.187636	-0.613232
C239	C	1.268144	0.145697	-0.279899
C240	C	1.601477	0.479030	0.053435
C241	C	0.934820	-0.187628	-0.683920
C242	C	1.268153	0.145706	-0.350587
C243	C	1.601487	0.479039	-0.017254
C244	C	0.978077	-0.216355	-0.719258
C245	C	1.311410	0.116978	-0.385924
C246	C	1.644743	0.450311	-0.052591
C247	C	1.021322	-0.245097	-0.683903
C248	C	1.354656	0.088236	-0.350569
C249	C	1.687989	0.421570	-0.017236
C250	C	1.021309	-0.245108	-0.613215
C251	C	1.354642	0.088226	-0.279882
C252	C	1.687976	0.421559	0.053451
C253	C	1.021376	-0.245055	-0.968976
C254	C	1.354709	0.088278	-0.635643
C255	C	1.688043	0.421612	-0.302309
C256	C	1.021387	-0.245041	-1.039668
C257	C	1.354721	0.088292	-0.706335
C258	C	1.688054	0.421625	-0.373001
C259	C	0.934887	-0.187575	-1.039681
C260	C	1.268220	0.145758	-0.706348
C261	C	1.601554	0.479092	-0.373014
C262	C	0.934874	-0.187586	-0.968994
C263	C	1.268207	0.145748	-0.635661
C264	C	1.601540	0.479081	-0.302327
C265	C	0.978116	-0.216329	-0.933645
C266	C	1.311450	0.117005	-0.600312
C267	C	1.644783	0.450338	-0.266978
C268	C	0.978105	-0.216339	-0.856997
C269	C	1.311438	0.116995	-0.523663
C270	C	1.644771	0.450328	-0.190330
C271	C	0.978092	-0.216344	-0.795905
C272	C	1.311426	0.116990	-0.462571
C273	C	1.644759	0.450323	-0.129238
C274	C	0.978021	-0.216418	-0.150251
C275	C	1.311355	0.116915	0.183082
C276	C	1.644688	0.450249	0.516416
C277	C	0.978140	-0.216305	-0.075019
C278	C	1.311473	0.117029	0.258314
C279	C	1.644806	0.450362	0.591647
H280	H	1.056486	-0.387416	-0.247615
H281	H	1.389819	-0.054082	0.085718
H282	H	1.723152	0.279251	0.419051
F283	F	0.373409	-0.275817	-0.415312
F284	F	0.706742	0.057517	-0.081979
F285	F	1.040076	0.390850	0.251355
H286	H	0.899652	-0.164191	-0.940226
H287	H	1.232985	0.169142	-0.606893
H288	H	1.566319	0.502476	-0.273559
F289	F	0.888756	-0.953995	-0.415446
F290	F	1.222089	-0.620662	-0.082112
F291	F	1.555423	-0.287329	0.251221
F292	F	0.888862	-0.156985	-1.077307
F293	F	1.222195	0.176348	-0.743974
F294	F	1.555528	0.509682	-0.410641
H295	H	1.056760	-0.959811	-0.247697
H296	H	1.390093	-0.626477	0.085636
H297	H	1.723426	-0.293144	0.418970
H298	H	0.899590	-0.164240	-0.584465
H299	H	1.232923	0.169093	-0.251132
H300	H	1.566256	0.502426	0.082201
H301	H	0.899621	-1.044965	-0.404633
H302	H	1.232955	-0.711631	-0.071300
H303	H	1.566288	-0.378298	0.262033
F304	F	0.227491	-0.275824	-0.415324
F305	F	0.560824	0.057509	-0.081991
F306	F	0.894158	0.390843	0.251342
H307	H	1.056542	-0.472525	-0.247634
H308	H	1.389875	-0.139192	0.085699
H309	H	1.723209	0.194142	0.419033
F310	F	1.110747	-0.597361	-0.193597
F311	F	1.444080	-0.264027	0.139737
F312	F	1.777414	0.069306	0.473070
F313	F	0.845341	-0.694258	-0.458674
F314	F	1.178674	-0.360925	-0.125340
F315	F	1.512007	-0.027591	0.207993
F316	F	0.845300	-0.597420	-0.458655
F317	F	1.178633	-0.264087	-0.125322
F318	F	1.511966	0.069247	0.208012
F319	F	0.583259	-0.275808	-0.415299
F320	F	0.916592	0.057525	-0.081965
F321	F	1.249925	0.390859	0.251368
F322	F	0.373450	-0.157034	-0.236935
F323	F	0.706783	0.176299	0.096398
F324	F	1.040116	0.509633	0.429731
H325	H	1.099957	-0.688333	-0.204423
H326	H	1.433290	-0.355000	0.128911
H327	H	1.766624	-0.021666	0.462244
F328	F	0.227539	-0.157046	-0.236943
F329	F	0.560872	0.176288	0.096391
F330	F	0.894205	0.509621	0.429724
F331	F	0.888769	-0.157057	-0.721539
F332	F	1.222103	0.176277	-0.388206
F333	F	1.555436	0.509610	-0.054873
H334	H	1.056614	-0.268437	-1.068438
H335	H	1.389947	0.064897	-0.735104
H336	H	1.723280	0.398230	-0.401771
H337	H	0.899362	-0.472577	-0.404562
H338	H	1.232696	-0.139243	-0.071229
H339	H	1.566029	0.194090	0.262104
F340	F	1.067402	-0.275644	-0.931364
F341	F	1.400736	0.057690	-0.598031
F342	F	1.734069	0.391023	-0.264697
F343	F	1.067628	-1.050796	-0.236903
F344	F	1.400962	-0.717463	0.096430
F345	F	1.734295	-0.384130	0.429764
F346	F	0.583301	-0.157031	-0.236921
F347	F	0.916634	0.176303	0.096412
F348	F	1.249967	0.509636	0.429746
F349	F	0.888490	-0.381590	-0.415355
F350	F	1.221823	-0.048257	-0.082021
F351	F	1.555156	0.285076	0.251312
F352	F	0.845355	-0.738179	-0.458659
F353	F	1.178689	-0.404846	-0.125325
F354	F	1.512022	-0.071513	0.208008
H355	H	1.099983	-0.743974	-0.204431
H356	H	1.433316	-0.410640	0.128902
H357	H	1.766650	-0.077307	0.462235
F358	F	1.067332	-0.275697	-0.575594
F359	F	1.400666	0.057637	-0.242260
F360	F	1.733999	0.390970	0.091073
H361	H	0.720333	-0.268614	-0.404479
H362	H	1.053667	0.064720	-0.071146
H363	H	1.387000	0.398053	0.262188
F364	F	0.729220	-0.157025	-0.236904
F365	F	1.062553	0.176308	0.096429
F366	F	1.395887	0.509641	0.429763
F367	F	1.110852	-0.834956	-0.193639
F368	F	1.444186	-0.501623	0.139695
F369	F	1.777519	-0.168289	0.473028
H370	H	0.856227	-0.829146	-0.447859
H371	H	1.189560	-0.495813	-0.114526
H372	H	1.522894	-0.162480	0.218808
F373	F	1.067355	-0.275674	-0.721513
F374	F	1.400689	0.057659	-0.388179
F375	F	1.734022	0.390992	-0.054846
