data_functionalizedCrystal
_audit_creation_method	'MofGen! by Chris Wilmer'
_symmetry_space_group_name_H-M	'P1'
_symmetry_Int_Tables_number	1
_symmetry_cell_setting	triclinic
loop_
_symmetry_equiv_pos_as_xyz
  x,y,z
_cell_length_a	19.377372
_cell_length_b	19.376993
_cell_length_c	21.606444
_cell_angle_alpha	52.466932
_cell_angle_beta	90.001711
_cell_angle_gamma	62.429694
loop_
_atom_site_label
_atom_site_type_symbol
_atom_site_fract_x
_atom_site_fract_y
_atom_site_fract_z
Zr1	Zr	0.316425	1.208310	-0.402667
O2	O	0.189977	1.346539	-0.512453
O3	O	0.382632	1.040386	-0.345185
O4	O	0.343048	1.221442	-0.508667
O5	O	0.229567	1.165479	-0.247118
O6	O	0.432573	1.265581	-0.532782
O7	O	0.229562	1.165482	-0.348972
O8	O	0.503382	0.941704	-0.240344
O9	O	0.158759	1.489355	-0.539556
O10	O	0.444523	1.153394	-0.367453
O11	O	0.377715	1.120451	-0.273443
O12	O	0.331110	1.333621	-0.465922
O13	O	0.264302	1.300678	-0.371912
Zr14	Zr	0.459217	1.278699	-0.278683
Zr15	Zr	0.459208	1.278705	-0.441129
Zr16	Zr	0.316434	1.208304	-0.240221
Zr17	Zr	0.266634	1.436086	-0.445893
Zr18	Zr	0.509007	1.050924	-0.235457
O19	O	0.393010	1.446623	-0.336165
O20	O	0.392997	1.446632	-0.567141
O21	O	0.189991	1.346530	-0.281477
O22	O	0.585664	1.140471	-0.168897
O23	O	0.585651	1.140479	-0.399873
O24	O	0.382645	1.040377	-0.114209
O25	O	0.546074	1.321531	-0.434232
O26	O	0.432594	1.265567	-0.172683
O27	O	0.343068	1.221429	-0.148568
O28	O	0.546080	1.321527	-0.332378
O29	O	0.272252	1.545310	-0.570128
O30	O	0.503389	0.941699	-0.111222
O31	O	0.616883	0.997654	-0.141794
O32	O	0.616876	0.997659	-0.270916
O33	O	0.158766	1.489350	-0.410434
O34	O	0.272260	1.545305	-0.441006
O35	O	0.444532	1.153388	-0.215428
O36	O	0.511339	1.186331	-0.309438
O37	O	0.397926	1.366558	-0.407907
O38	O	0.331119	1.333615	-0.313897
C39	C	0.450101	0.958592	-0.286606
C40	C	0.471238	0.861895	-0.268255
C41	C	0.567548	0.671243	-0.184636
C42	C	0.547679	0.762110	-0.201886
C43	C	0.414634	0.870845	-0.317398
C44	C	0.434490	0.779984	-0.300155
C45	C	0.510949	0.680188	-0.233773
C46	C	0.377891	0.788930	-0.349293
C47	C	0.397748	0.698077	-0.332054
C48	C	0.474204	0.598279	-0.265677
C49	C	0.530806	0.589336	-0.216534
C50	C	0.301435	0.888728	-0.415678
C51	C	0.244836	0.897673	-0.464816
C52	C	0.264690	0.806819	-0.447573
C53	C	0.341146	0.707021	-0.381196
C54	C	0.208088	0.815762	-0.496715
C55	C	0.227945	0.724910	-0.479476
C56	C	0.361003	0.616168	-0.363957
C57	C	0.209221	1.155451	-0.292565
C58	C	0.148606	1.125566	-0.276237
C59	C	-0.346744	1.497652	-0.479532
C60	C	-0.403686	1.469546	-0.464175
C61	C	-0.285282	1.281403	-0.361381
C62	C	-0.228329	1.309493	-0.376727
C63	C	-0.259067	1.417620	-0.435804
C64	C	-0.140652	1.229460	-0.332999
C65	C	-0.083704	1.257548	-0.348346
C66	C	-0.114434	1.365670	-0.407422
C67	C	-0.202120	1.445708	-0.451152
C68	C	-0.109916	1.121334	-0.273927
C69	C	-0.022239	1.041301	-0.230198
C70	C	0.034711	1.069389	-0.245541
C71	C	0.003981	1.177510	-0.304617
C72	C	0.122396	0.989351	-0.201812
C73	C	0.179344	1.017439	-0.217160
C74	C	0.060929	1.205599	-0.319965
C75	C	0.566421	1.331558	-0.388785
C76	C	0.627036	1.361443	-0.405113
C77	C	0.387809	1.243512	-0.543869
C78	C	0.387805	1.243515	-0.612832
C79	C	0.325541	1.528417	-0.394744
C80	C	0.304403	1.625114	-0.413095
C81	C	0.328605	1.337591	-0.696630
C82	C	0.328611	1.337590	-0.761425
C83	C	0.387815	1.243511	-0.742421
C84	C	0.447022	1.149428	-0.658615
C85	C	0.447018	1.149432	-0.593822
C86	C	0.447037	1.149412	-0.919916
C87	C	0.447034	1.149415	-0.984717
C88	C	0.328630	1.337571	-1.087520
C89	C	0.328626	1.337574	-1.022727
C90	C	0.387835	1.243494	-0.938928
C91	C	0.387829	1.243496	-0.868670
C92	C	0.387818	1.243506	-0.812676
C93	C	0.387833	1.243497	-0.137480
C94	C	0.387837	1.243494	-0.068518
C95	C	0.628701	1.046646	-0.334716
C96	C	0.710453	0.979834	-0.332693
C97	C	0.450113	0.958584	-0.083411
C98	C	0.471254	0.861885	0.003902
C99	C	0.628713	1.046638	-0.131521
C100	C	0.710469	0.979824	-0.060537
C101	C	0.146929	1.440371	-0.549829
C102	C	0.065173	1.507186	-0.620813
C103	C	0.146941	1.440363	-0.346634
C104	C	0.065188	1.507175	-0.348657
C105	C	0.325529	1.528425	-0.597939
C106	C	0.304388	1.625124	-0.685252
C107	C	0.713968	0.931266	-0.362034
C108	C	0.790775	0.868498	-0.360149
C109	C	0.864067	0.854295	-0.328919
C110	C	0.860550	0.902872	-0.299579
C111	C	0.783743	0.965644	-0.301469
C112	C	0.516060	0.833667	0.075195
C113	C	0.535919	0.742819	0.157239
C114	C	0.510977	0.680186	0.167988
C115	C	0.466165	0.708411	0.096687
C116	C	0.446301	0.799262	0.014645
C117	C	0.783742	0.965645	-0.076275
C118	C	0.860563	0.902881	-0.009587
C119	C	0.864112	0.854290	0.072839
C120	C	0.790830	0.868474	0.088577
C121	C	0.714009	0.931243	0.021888
C122	C	-0.008102	1.521375	-0.605077
C123	C	-0.084930	1.584167	-0.671770
C124	C	-0.088480	1.632763	-0.754198
C125	C	-0.015197	1.618574	-0.769934
C126	C	0.061627	1.555788	-0.703243
C127	C	0.061672	1.555753	-0.319325
C128	C	-0.015140	1.618545	-0.321232
C129	C	-0.088434	1.632752	-0.352465
C130	C	-0.084915	1.584171	-0.381801
C131	C	-0.008105	1.521386	-0.379900
C132	C	0.329343	1.687731	-0.695973
C133	C	0.309494	1.778585	-0.778008
C134	C	0.264685	1.806834	-0.849320
C135	C	0.239731	1.744218	-0.838595
C136	C	0.259585	1.653361	-0.756561
H137	H	0.593773	0.754814	-0.161866
Cl138	Cl	0.795178	0.807437	-0.397033
Cl139	Cl	0.016393	0.905376	-0.155934
Cl140	Cl	0.621901	0.949050	0.041690
Cl141	Cl	0.621838	0.949111	-0.401304
Cl142	Cl	-0.003697	1.460314	-0.416771
H143	H	0.365827	1.664747	-0.637916
H144	H	0.593062	0.508071	-0.162473
Cl145	Cl	0.153742	1.537952	-0.723039
H146	H	0.203245	1.767233	-0.896669
Cl147	Cl	0.952677	0.885059	-0.029389
H148	H	0.926604	0.803178	-0.327384
Cl149	Cl	0.239728	1.921061	-0.952444
H150	H	0.629804	0.589978	-0.130575
H151	H	0.285272	0.962703	-0.429713
H152	H	-0.150972	1.683878	-0.354009
Cl153	Cl	0.434818	0.629660	0.110215
H154	H	0.182585	0.978938	-0.518865
Cl155	Cl	0.521468	1.031135	-0.960820
H156	H	0.495225	1.072826	-0.525589
H157	H	0.352383	0.952110	-0.371448
H158	H	-0.260266	1.193366	-0.313283
Cl159	Cl	0.111978	0.941228	-0.580170
H160	H	0.423259	0.534904	-0.309896
H161	H	0.181857	0.732198	-0.519491
H162	H	0.409821	0.822225	-0.043400
Cl163	Cl	0.592257	0.707353	0.246861
Cl164	Cl	0.022291	1.341532	-0.394225
Cl165	Cl	0.952699	0.885000	-0.260315
H166	H	0.780893	1.005181	-0.277571
Cl167	Cl	0.228196	1.574672	-0.743098
H168	H	0.490377	0.524307	-0.251652
H169	H	-0.068061	1.388537	-0.419919
Cl170	Cl	-0.240758	1.581641	-0.525412
H171	H	-0.371776	1.585700	-0.527616
Cl172	Cl	-0.513915	1.570172	-0.519162
H173	H	-0.156290	1.098468	-0.261438
Cl174	Cl	-0.019543	1.679602	-0.284344
H175	H	-0.144602	1.595748	-0.407231
H176	H	0.536374	0.884654	0.066458
Cl177	Cl	0.779300	1.026729	-0.179892
H178	H	0.527156	0.606213	0.234797
Cl179	Cl	0.960695	0.775380	0.156669
H180	H	0.793732	0.828902	0.155697
H181	H	-0.018097	1.658148	-0.837054
Cl182	Cl	-0.003662	1.460292	-0.501460
Cl183	Cl	-0.177043	1.601986	-0.651968
Cl184	Cl	0.521443	1.031125	-0.814569
H185	H	-0.151040	1.683884	-0.808494
Cl186	Cl	0.340866	1.857290	-0.791470
Cl187	Cl	0.161026	0.853427	-0.127556
Cl188	Cl	0.289571	0.916826	-0.162190
H189	H	0.280390	1.414199	-0.712113
Cl190	Cl	0.254183	1.455862	-0.866771
Cl191	Cl	0.254187	1.455845	-1.046623
Cl192	Cl	0.254196	1.455846	-1.192874
Cl193	Cl	0.521451	1.031157	-0.634723
H194	H	0.121344	1.544192	-0.293886
