data_functionalizedCrystal
_audit_creation_method	'MofGen! by Chris Wilmer'
_symmetry_space_group_name_H-M	'P1'
_symmetry_Int_Tables_number	1
_symmetry_cell_setting	triclinic
loop_
_symmetry_equiv_pos_as_xyz
  x,y,z
_cell_length_a	17.699104
_cell_length_b	16.109304
_cell_length_c	14.586319
_cell_angle_alpha	89.997551
_cell_angle_beta	90.001431
_cell_angle_gamma	96.622929
loop_
_atom_site_label
_atom_site_type_symbol
_atom_site_fract_x
_atom_site_fract_y
_atom_site_fract_z
O1	O	1.004212	-0.105222	0.076252
O2	O	0.783856	-0.118883	0.076249
O3	O	0.900086	0.008989	0.076252
O4	O	0.887982	-0.233093	0.076248
O5	O	0.900086	0.008997	-0.076228
O6	O	0.783855	-0.118875	-0.076232
O7	O	1.004212	-0.105214	-0.076229
Cu8	Cu	0.894033	-0.112043	-0.090153
Cu9	Cu	0.894034	-0.112053	0.090173
O10	O	0.887981	-0.233085	-0.076233
C11	C	0.755658	-0.118386	0.000008
C12	C	0.671639	-0.116909	0.000007
C13	C	0.146864	-0.183635	0.000015
C14	C	0.225809	-0.185018	0.000018
C15	C	0.274319	-0.109953	0.000019
C16	C	0.243879	-0.033500	0.000027
C17	C	0.164935	-0.032117	0.000031
C18	C	0.562253	-0.039072	0.000012
C19	C	0.641203	-0.040460	0.000006
C20	C	0.623128	-0.191973	-0.000001
C21	C	0.544183	-0.190591	0.000003
C22	C	0.513750	-0.114138	0.000016
C23	C	0.428148	-0.112639	0.000015
C24	C	0.359920	-0.111451	0.000014
C25	C	0.899595	0.039967	0.000015
C26	C	0.898124	0.132259	0.000022
C27	C	0.894726	0.344587	0.083139
C28	C	0.893337	0.431305	0.083139
C29	C	0.893339	0.431310	-0.083104
C30	C	0.894723	0.344593	-0.083103
C31	C	0.895420	0.301234	0.000021
C32	C	0.892647	0.474669	0.000020
C33	C	0.891141	0.568693	0.000020
C34	C	0.896925	0.207205	0.000021
C35	C	1.032409	-0.105710	0.000014
C36	C	1.116429	-0.107188	0.000021
C37	C	0.888472	0.735937	0.000011
C38	C	0.889943	0.643644	0.000019
N39	N	0.894035	-0.112054	0.217005
N40	N	0.894038	-0.112036	-0.216985
C41	C	0.945602	-0.055542	0.452013
C42	C	0.945604	-0.055540	0.547994
C43	C	0.842469	-0.168554	0.548000
C44	C	0.842471	-0.168559	0.452021
C45	C	0.894037	-0.112049	0.404029
C46	C	0.894037	-0.112041	0.595990
C47	C	0.894039	-0.112040	0.700057
C48	C	0.894036	-0.112051	0.299956
H49	H	0.250585	-0.247269	0.000022
O50	O	0.497170	-0.263586	0.000043
C51	C	0.487575	-0.414018	-0.000010
C52	C	0.540903	-0.331412	-0.000039
H53	H	0.522912	-0.468876	-0.000096
H54	H	0.450182	-0.417217	0.063820
H55	H	0.450144	-0.417109	-0.063806
H56	H	0.578381	-0.328265	0.063713
H57	H	0.578244	-0.328247	-0.063912
H58	H	0.800480	-0.214578	0.412950
O59	O	0.995537	-0.000500	0.594636
C60	C	1.011686	0.113286	0.702720
C61	C	0.955084	0.050913	0.650018
H62	H	0.979002	0.154882	0.747494
H63	H	1.049489	0.077568	0.747790
H64	H	1.048477	0.153624	0.651830
H65	H	0.918243	0.010559	0.700842
H66	H	0.917334	0.086682	0.604934
O67	O	0.995726	-0.000767	0.405295
C68	C	1.099135	0.016848	0.296984
C69	C	1.042397	-0.045276	0.349813
H70	H	1.136893	-0.019113	0.252130
H71	H	1.066596	0.058409	0.251981
H72	H	1.135955	0.057249	0.347791
H73	H	1.005562	-0.085732	0.299073
H74	H	1.074982	-0.086779	0.394830
O75	O	0.892630	0.473541	0.163798
C76	C	0.890540	0.607135	0.237479
C77	C	0.891323	0.559404	0.146063
H78	H	0.889499	0.676566	0.223172
H79	H	0.837865	0.582428	0.278480
H80	H	0.943737	0.597745	0.278467
H81	H	0.838162	0.568774	0.105001
H82	H	0.944033	0.584120	0.105131
O83	O	0.892704	0.473566	-0.163764
C84	C	0.890542	0.607156	-0.237444
C85	C	0.891272	0.559410	-0.146029
H86	H	0.889367	0.676566	-0.223136
H87	H	0.943763	0.597879	-0.278437
H88	H	0.837894	0.582351	-0.278441
H89	H	0.943884	0.584183	-0.104958
H90	H	0.838015	0.568685	-0.105105
O91	O	0.895429	0.302608	-0.163931
C92	C	0.895236	0.311751	-0.328822
C93	C	0.894458	0.359405	-0.237358
H94	H	0.894435	0.357647	-0.388211
H95	H	0.948830	0.278886	-0.333038
H96	H	0.842960	0.263421	-0.332925
H97	H	0.946697	0.407774	-0.233193
H98	H	0.840830	0.392212	-0.233181
O99	O	0.688358	0.032440	-0.000147
C100	C	0.788009	0.118798	-0.079106
C101	C	0.734638	0.036223	-0.079058
H102	H	0.825451	0.121875	-0.142890
H103	H	0.752736	0.173711	-0.079152
H104	H	0.825389	0.121912	-0.015267
H105	H	0.697247	0.033026	-0.142887
H106	H	0.769956	-0.018652	-0.078965
O107	O	0.099852	-0.256632	0.000056
C108	C	0.090265	-0.407063	0.000003
C109	C	0.143589	-0.324454	-0.000026
H110	H	0.125605	-0.461919	-0.000082
H111	H	0.052872	-0.410264	0.063833
H112	H	0.052835	-0.410157	-0.063793
H113	H	0.181067	-0.321305	0.063727
H114	H	0.180931	-0.321288	-0.063898
O115	O	0.652817	-0.266169	0.000041
C116	C	0.766422	-0.335458	-0.000013
C117	C	0.732903	-0.251377	-0.000037
H118	H	0.831175	-0.323528	-0.000095
H119	H	0.746497	-0.372561	0.063813
H120	H	0.746397	-0.372540	-0.063813
H121	H	0.752912	-0.214228	0.063719
H122	H	0.752823	-0.214338	-0.063906
H123	H	0.537485	0.023180	0.000020
O124	O	0.291107	0.039343	-0.000012
C125	C	0.420733	0.104366	0.000033
C126	C	0.367338	0.021809	0.000060
H127	H	0.482377	0.090219	0.000111
H128	H	0.409720	0.142011	-0.063792
H129	H	0.409626	0.141993	0.063834
H130	H	0.378413	-0.015885	-0.063697
H131	H	0.378362	-0.015772	0.063928
O132	O	0.792405	-0.223360	0.594763
C133	C	0.746718	-0.273467	0.742626
C134	C	0.803448	-0.211344	0.689786
H135	H	0.755637	-0.263786	0.819462
H136	H	0.686121	-0.262579	0.723815
H137	H	0.756432	-0.340076	0.723711
H138	H	0.793804	-0.144711	0.708673
H139	H	0.864025	-0.222304	0.708601
H140	H	0.140157	0.030134	0.000037
H141	H	0.895291	0.309286	0.150824
