data_functionalizedCrystal
_audit_creation_method	'MofGen! by Chris Wilmer'
_symmetry_space_group_name_H-M	'P1'
_symmetry_Int_Tables_number	1
_symmetry_cell_setting	triclinic
loop_
_symmetry_equiv_pos_as_xyz
  x,y,z
_cell_length_a	15.537862
_cell_length_b	11.792254
_cell_length_c	14.185569
_cell_angle_alpha	76.752482
_cell_angle_beta	97.877082
_cell_angle_gamma	65.731516
loop_
_atom_site_label
_atom_site_type_symbol
_atom_site_fract_x
_atom_site_fract_y
_atom_site_fract_z
O1	O	1.226906	-0.333521	-0.083362
O2	O	0.953302	-0.202716	-0.083377
O3	O	1.096739	-0.436074	-0.083362
O4	O	1.083468	-0.100164	-0.083377
O5	O	1.139111	-0.505004	0.083477
O6	O	0.995674	-0.271647	0.083462
O7	O	1.269278	-0.402452	0.083477
Cu8	Cu	1.136345	-0.343343	0.098703
Cu9	Cu	1.086235	-0.261825	-0.098603
O10	O	1.125841	-0.169094	0.083462
C11	C	0.939461	-0.223495	0.000041
C12	C	0.835090	-0.182728	0.000035
C13	C	0.677308	-0.017485	0.000024
C14	C	0.775382	-0.055804	0.000028
C15	C	0.796742	-0.271384	0.000043
C16	C	0.698670	-0.233085	0.000043
C17	C	0.638960	-0.106133	0.000032
C18	C	0.660321	-0.321733	0.000052
C19	C	0.562256	-0.283434	0.000047
C20	C	0.502540	-0.156487	0.000033
C21	C	0.540895	-0.067834	0.000027
C22	C	0.720031	-0.448682	0.000055
C23	C	0.681683	-0.537330	0.000064
C24	C	0.583618	-0.499035	0.000066
C25	C	0.523901	-0.372087	0.000052
C26	C	0.545263	-0.587687	0.000071
C27	C	0.447198	-0.549388	0.000066
C28	C	0.425836	-0.333788	0.000047
C29	C	1.117089	-0.512479	0.000057
C30	C	1.114588	-0.637442	0.000056
C31	C	1.112554	-0.738925	0.000052
C32	C	1.110011	-0.866242	0.000043
C33	C	1.283119	-0.381672	0.000057
C34	C	1.387488	-0.422437	0.000056
C35	C	1.105490	-0.092688	0.000041
C36	C	1.107990	0.032278	0.000035
N37	N	1.171597	-0.400682	0.237478
N38	N	1.050990	-0.204498	-0.237378
C39	C	0.947420	-0.036085	0.605105
C40	C	0.974129	-0.079514	0.710129
C41	C	1.101169	-0.286106	0.710103
C42	C	1.074467	-0.242697	0.605077
C43	C	0.997593	-0.117685	0.552586
C44	C	1.124640	-0.324296	0.552558
C45	C	1.097943	-0.280888	0.447540
C46	C	1.021074	-0.155880	0.395042
C47	C	0.970896	-0.074276	0.447568
C48	C	1.201518	-0.449304	0.605050
C49	C	1.251691	-0.530904	0.552531
C50	C	1.224990	-0.487499	0.447512
C51	C	1.148121	-0.362491	0.395014
C52	C	1.275168	-0.569102	0.394986
C53	C	1.248471	-0.525694	0.289969
C54	C	1.121424	-0.319082	0.289997
H55	H	0.806602	0.016389	0.000033
H56	H	0.799876	-0.479853	0.000040
H57	H	1.337766	-0.670883	0.437738
Cl58	Cl	0.350770	-0.174197	0.000054
H59	H	0.593890	-0.691047	0.000070
Cl60	Cl	1.348333	-0.688055	0.618527
Cl61	Cl	0.379255	-0.108335	0.000023
H62	H	0.492279	0.035537	0.000032
Cl63	Cl	0.850765	0.121069	0.539112
Cl64	Cl	0.874241	0.082878	0.381576
H65	H	0.933266	-0.013053	0.752885
H66	H	1.163763	-0.387890	0.752853
Cl67	Cl	0.871814	-0.430976	0.000057
H68	H	0.730310	-0.640693	0.000069
Cl69	Cl	1.235081	-0.503866	0.737074
H70	H	0.628692	0.085886	0.000029
Cl71	Cl	0.398986	-0.660837	0.000087
H72	H	1.058819	-0.217291	0.247257
Cl73	Cl	0.987515	-0.101305	0.263018
Cl74	Cl	1.311551	-0.628278	0.223943
