data_functionalizedCrystal
_audit_creation_method	'MofGen! by Chris Wilmer'
_symmetry_space_group_name_H-M	'P1'
_symmetry_Int_Tables_number	1
_symmetry_cell_setting	triclinic
loop_
_symmetry_equiv_pos_as_xyz
  x,y,z
_cell_length_a	27.731988
_cell_length_b	10.654551
_cell_length_c	9.130313
_cell_angle_alpha	90.001552
_cell_angle_beta	89.994664
_cell_angle_gamma	96.448135
loop_
_atom_site_label
_atom_site_type_symbol
_atom_site_fract_x
_atom_site_fract_y
_atom_site_fract_z
O1	O	-0.641872	0.149055	-0.121601
O2	O	-0.501216	0.171851	-0.121644
O3	O	-0.574778	-0.022424	-0.121622
O4	O	-0.568310	0.343330	-0.121623
O5	O	-0.574777	-0.022419	0.121977
O6	O	-0.501215	0.171857	0.121955
O7	O	-0.641871	0.149060	0.121998
Cu8	Cu	-0.571543	0.160459	0.144219
Cu9	Cu	-0.571544	0.160453	-0.143865
O10	O	-0.568309	0.343335	0.121976
C11	C	-0.483205	0.171387	0.000150
C12	C	-0.429540	0.169981	0.000133
C13	C	-0.096765	0.161127	0.132985
C14	C	0.104927	0.155781	0.133007
O15	O	0.131004	0.155038	0.245937
N16	N	0.130145	0.155115	0.000222
C17	C	0.104937	0.155776	-0.132578
O18	O	0.131015	0.155073	-0.245519
C19	C	-0.096754	0.161113	-0.132599
C20	C	-0.121969	0.161792	0.000195
C21	C	-0.121981	0.161805	0.265767
C22	C	-0.172400	0.163148	0.265760
C23	C	-0.197605	0.163813	0.132971
C24	C	-0.172389	0.163135	0.000188
C25	C	-0.121962	0.161765	-0.265397
C26	C	-0.172388	0.163096	-0.265391
C27	C	-0.197603	0.163776	-0.132597
C28	C	-0.248013	0.165144	-0.132609
N29	N	-0.273231	0.165810	0.000176
C30	C	-0.248027	0.165145	0.132966
C31	C	0.210828	0.152977	-0.132557
C32	C	0.261251	0.151645	-0.132553
C33	C	0.261237	0.151648	0.133033
C34	C	0.210814	0.152989	0.133026
C35	C	0.185610	0.153643	0.000227
C36	C	-0.353912	0.167967	0.132941
C37	C	-0.404336	0.169316	0.132923
C38	C	-0.404318	0.169306	-0.132662
C39	C	-0.353898	0.167964	-0.132644
C40	C	-0.328697	0.167291	0.000169
O41	O	-0.274122	0.165873	-0.245479
O42	O	-0.274115	0.165820	0.245890
C43	C	-0.046346	0.159784	0.132992
C44	C	-0.021130	0.159106	0.000209
C45	C	-0.046334	0.159771	-0.132581
C46	C	0.029293	0.157774	0.000214
C47	C	0.054497	0.157109	0.133003
C48	C	0.029278	0.157775	0.265788
C49	C	-0.021141	0.159118	0.265781
C50	C	-0.021116	0.159104	-0.265366
C51	C	0.029304	0.157762	-0.265348
C52	C	0.054508	0.157097	-0.132558
C53	C	-0.574302	-0.069199	0.000174
C54	C	-0.572881	-0.208582	0.000164
C55	C	-0.572215	-0.274068	-0.132620
C56	C	-0.570876	-0.405031	-0.132614
C57	C	-0.570871	-0.405011	0.132971
C58	C	-0.572207	-0.274049	0.132963
C59	C	-0.572220	-0.274082	-0.285953
C60	C	-0.570881	-0.405045	-0.285947
C61	C	0.340119	0.149536	0.000208
C62	C	0.286455	0.150980	0.000237
C63	C	-0.568785	0.390110	0.000177
C64	C	-0.570206	0.529493	0.000178
N65	N	-0.571546	0.160462	0.346842
N66	N	-0.571545	0.160439	-0.346488
C67	C	-0.604127	0.074466	0.423503
C68	C	-0.604126	0.074451	0.576840
C69	C	-0.538960	0.246440	0.576840
C70	C	-0.538960	0.246448	0.423506
C71	C	-0.641752	-0.024827	0.423505
C72	C	-0.641750	-0.024842	0.576841
H73	H	-0.333399	0.167430	0.241091
N74	N	-0.626204	-0.145021	0.639820
H75	H	-0.596275	-0.124190	0.702089
H76	H	-0.618721	-0.203008	0.557385
H77	H	-0.678893	-0.004906	0.618470
N78	N	-0.524183	-0.442238	-0.348955
H79	H	-0.502606	-0.363885	-0.379413
H80	H	-0.531690	-0.498362	-0.437057
N81	N	-0.503816	0.339172	0.659537
H82	H	-0.522468	0.394432	0.723171
H83	H	-0.483183	0.393567	0.587611
H84	H	-0.572746	-0.220734	0.241088
H85	H	-0.607472	-0.246018	-0.333517
H86	H	-0.676844	0.004266	0.375957
N87	N	0.056498	0.157019	-0.408583
H88	H	0.081082	0.234329	-0.414524
H89	H	0.032844	0.157591	-0.492616
N90	N	-0.431532	0.170058	0.276155
H91	H	-0.407911	0.169430	0.360274
H92	H	-0.456116	0.092743	0.281946
H93	H	-0.192927	0.163694	0.373895
N94	N	-0.615130	-0.468261	-0.363879
H95	H	-0.614181	-0.562747	-0.363907
H96	H	-0.615450	-0.436712	-0.468144
H97	H	-0.512425	0.316462	0.361089
H98	H	-0.570321	-0.458330	0.241092
H99	H	-0.538819	-0.226379	-0.344843
H100	H	-0.101465	0.161260	0.373907
H101	H	-0.633499	-0.121008	0.381881
N102	N	0.183619	0.153724	0.276251
H103	H	0.207242	0.153104	0.360366
H104	H	0.159039	0.076401	0.282046
H105	H	0.281767	0.151109	0.241156
H106	H	0.281778	0.151112	-0.240686
N107	N	-0.431507	0.170009	-0.275882
H108	H	-0.419073	0.247641	-0.333952
H109	H	-0.467268	0.170906	-0.255605
N110	N	0.183654	0.153697	-0.275810
H111	H	0.166394	0.232123	-0.281740
H112	H	0.159100	0.076326	-0.281669
N113	N	-0.094773	0.161016	-0.408625
H114	H	-0.099888	0.239109	-0.466695
H115	H	-0.107227	0.083314	-0.466535
N116	N	-0.199572	0.163794	-0.408627
H117	H	-0.175944	0.163160	-0.492740
H118	H	-0.216831	0.242223	-0.414428
H119	H	-0.333366	0.167431	-0.240775
H120	H	-0.041667	0.159672	0.373916
N121	N	-0.048297	0.159812	-0.408596
H122	H	-0.024666	0.159183	-0.492703
H123	H	-0.065555	0.238243	-0.414395
N124	N	0.056469	0.157066	0.409013
H125	H	0.092313	0.157865	0.388859
H126	H	0.044458	0.078550	0.466118
