data_functionalizedCrystal
_audit_creation_method	'MofGen! by Chris Wilmer'
_symmetry_space_group_name_H-M	'P1'
_symmetry_Int_Tables_number	1
_symmetry_cell_setting	triclinic
loop_
_symmetry_equiv_pos_as_xyz
  x,y,z
_cell_length_a	14.044220
_cell_length_b	12.503552
_cell_length_c	14.044190
_cell_angle_alpha	86.163821
_cell_angle_beta	93.190328
_cell_angle_gamma	93.839891
loop_
_atom_site_label
_atom_site_type_symbol
_atom_site_fract_x
_atom_site_fract_y
_atom_site_fract_z
O1	O	1.282213	0.089227	0.225121
O2	O	1.005543	0.089254	0.216814
O3	O	1.139721	0.089220	0.082632
O4	O	1.148036	0.089261	0.359302
O5	O	1.129618	-0.089420	0.092732
O6	O	0.995440	-0.089386	0.226913
O7	O	1.272111	-0.089412	0.235221
Cu8	Cu	1.132853	-0.105711	0.231989
Cu9	Cu	1.144801	0.105552	0.220045
O10	O	1.137933	-0.089379	0.369402
C11	C	0.964870	-0.000063	0.218228
C12	C	0.858728	-0.000054	0.207383
N13	N	1.124457	-0.254301	0.240390
C14	C	1.165551	-0.526745	0.199276
C15	C	1.112113	-0.473407	0.252749
C16	C	1.118983	-0.351485	0.245871
C17	C	1.158682	-0.648678	0.206153
C18	C	0.664388	-0.000078	0.187558
C19	C	0.613260	-0.000071	0.264472
C20	C	0.505123	-0.000085	0.253441
C21	C	0.772535	-0.000065	0.198587
C22	C	1.312784	-0.000093	0.233806
C23	C	1.418927	-0.000095	0.244651
C24	C	1.131033	-0.000103	0.052060
C25	C	1.120185	-0.000111	-0.054082
N26	N	1.153204	0.254143	0.211637
C27	C	1.177287	-0.000075	-0.299543
C28	C	1.100371	-0.000075	-0.248417
C29	C	1.111398	-0.000095	-0.140279
C30	C	1.166262	-0.000054	-0.407691
C31	C	1.146621	-0.000053	0.399974
C32	C	1.157469	-0.000038	0.506116
H33	H	1.061205	-0.519310	0.303695
N34	N	1.229406	-0.469154	0.135371
N35	N	1.234964	-0.368757	0.129808
H36	H	1.280063	-0.328071	0.084677
H37	H	0.650703	-0.000055	0.338605
H38	H	0.626948	-0.000095	0.113431
H39	H	1.026239	-0.000061	-0.285862
N40	N	1.270274	-0.000091	-0.252563
N41	N	1.279210	-0.000108	-0.163510
H42	H	1.344881	-0.000122	-0.130319
