data_functionalizedCrystal
_audit_creation_method	'MofGen! by Chris Wilmer'
_symmetry_space_group_name_H-M	'P1'
_symmetry_Int_Tables_number	1
_symmetry_cell_setting	triclinic
loop_
_symmetry_equiv_pos_as_xyz
  x,y,z
_cell_length_a	27.732048
_cell_length_b	14.044220
_cell_length_c	13.101039
_cell_angle_alpha	86.332523
_cell_angle_beta	86.667932
_cell_angle_gamma	92.084234
loop_
_atom_site_label
_atom_site_type_symbol
_atom_site_fract_x
_atom_site_fract_y
_atom_site_fract_z
O1	O	0.648650	-0.107443	-0.085276
O2	O	0.508661	-0.124582	-0.085266
O3	O	0.576554	0.021941	-0.085261
O4	O	0.580757	-0.253965	-0.085281
O5	O	0.571684	0.011411	0.085169
O6	O	0.503790	-0.135112	0.085164
O7	O	0.643780	-0.117973	0.085154
Zn8	Zn	0.573012	-0.128214	0.112218
Zn9	Zn	0.579429	-0.114340	-0.112330
O10	O	0.575887	-0.264496	0.085148
C11	C	0.572279	0.051963	-0.000045
C12	C	0.566792	0.157109	-0.000044
C13	C	0.488202	-0.129487	-0.000050
C14	C	0.434496	-0.128404	-0.000045
C15	C	0.664239	-0.113067	-0.000065
C16	C	0.717945	-0.114150	-0.000076
C17	C	1.053016	-0.034387	-0.000035
C18	C	1.254864	-0.038406	-0.000032
O19	O	1.282695	0.034531	0.000018
N20	N	1.278065	-0.125288	-0.000041
C21	C	1.250801	-0.211171	-0.000045
O22	O	1.275166	-0.285162	-0.000042
C23	C	1.048953	-0.207151	-0.000040
C24	C	1.025755	-0.120263	-0.000041
C25	C	1.029817	0.052494	-0.000035
C26	C	0.979358	0.053498	-0.000041
C27	C	0.952098	-0.032378	-0.000047
C28	C	0.975296	-0.119259	-0.000048
C29	C	1.021690	-0.293033	-0.000037
C30	C	0.971225	-0.292021	-0.000033
C31	C	0.948027	-0.205133	-0.000034
C32	C	0.897577	-0.204131	-0.000061
N33	N	0.874376	-0.117250	-0.000051
C34	C	0.901636	-0.031373	-0.000045
C35	C	1.356774	-0.213275	-0.000049
C36	C	1.407236	-0.214280	-0.000052
C37	C	1.411295	-0.041515	-0.000037
C38	C	1.360833	-0.040511	-0.000041
C39	C	1.333573	-0.126394	-0.000040
C40	C	0.795669	-0.029271	-0.000059
C41	C	0.745205	-0.028274	-0.000069
C42	C	0.741150	-0.201038	-0.000079
C43	C	0.791609	-0.202035	-0.000074
C44	C	0.818868	-0.116144	-0.000060
O45	O	0.869715	-0.277030	-0.000098
O46	O	0.877261	0.042605	-0.000024
C47	C	1.103475	-0.035391	-0.000028
C48	C	1.126673	-0.122272	-0.000029
C49	C	1.099413	-0.208148	-0.000035
C50	C	1.177135	-0.123277	-0.000032
C51	C	1.204395	-0.037401	-0.000025
C52	C	1.181194	0.049481	-0.000015
C53	C	1.130735	0.050485	-0.000022
C54	C	1.122614	-0.295030	-0.000045
C55	C	1.173073	-0.296027	-0.000039
C56	C	1.200333	-0.210150	-0.000033
C57	C	0.580162	-0.294518	-0.000069
C58	C	0.585649	-0.399663	-0.000078
N59	N	0.568636	-0.137682	0.265466
C60	C	0.556761	0.349624	-0.000058
C61	C	0.595678	0.407828	-0.000064
C62	C	0.590096	0.514950	-0.000071
C63	C	0.562342	0.242492	-0.000050
N64	N	0.583808	-0.104865	-0.265578
C65	C	0.562682	-0.150572	0.474508
C66	C	0.589760	-0.091978	0.525386
C67	C	0.586448	-0.099150	0.641704
C68	C	0.565994	-0.143401	0.358180
H69	H	0.726320	0.042484	-0.000073
H70	H	0.633190	0.377210	-0.000135
H71	H	0.718946	-0.270956	-0.000089
H72	H	0.519254	0.380244	-0.000057
C73	C	0.620869	-0.024011	0.360810
C74	C	0.624302	-0.016784	0.466266
H75	H	0.642161	0.022466	0.324311
H76	H	0.588633	-0.013422	0.343430
H77	H	0.629492	-0.085977	0.343169
H78	H	0.615675	0.045180	0.483908
H79	H	0.656546	-0.027365	0.483653
H80	H	0.817857	0.040670	-0.000048
H81	H	0.537015	-0.206120	0.518303
H82	H	0.960475	0.124251	-0.000037
H83	H	1.203398	0.119405	-0.000016
C84	C	1.432810	0.110855	-0.087626
C85	C	1.441266	0.052882	-0.000025
H86	H	1.451317	0.169125	-0.087614
H87	H	1.399442	0.123896	-0.087616
H88	H	1.441945	0.078865	-0.147059
H89	H	1.432128	0.084869	0.059408
H90	H	1.474641	0.039844	-0.000025
H91	H	1.334583	-0.283215	-0.000049
C92	C	1.028748	0.223359	-0.000038
C93	C	1.059777	0.146901	-0.000036
H94	H	1.047243	0.281646	-0.000052
H95	H	1.007286	0.216484	0.059395
H96	H	1.010678	0.223807	-0.059471
H97	H	1.077845	0.146449	0.059400
H98	H	1.081247	0.153778	-0.059475
H99	H	1.341948	0.030241	-0.000041
H100	H	1.191956	-0.366786	-0.000046
C101	C	1.398142	-0.384947	-0.000059
C102	C	1.432732	-0.309789	-0.000060
H103	H	1.413881	-0.443912	-0.000053
H104	H	1.380246	-0.377288	-0.059488
H105	H	1.376844	-0.384620	0.059378
H106	H	1.454027	-0.310113	-0.059501
H107	H	1.450636	-0.317450	0.059375
H108	H	1.100423	-0.364962	-0.000049
H109	H	1.040569	-0.363786	-0.000040
H110	H	0.810498	-0.272786	-0.000074
C111	C	0.972285	-0.462895	-0.000044
C112	C	0.941262	-0.386428	-0.000040
H113	H	0.953787	-0.521175	-0.000057
H114	H	0.990348	-0.463363	0.059389
H115	H	0.993754	-0.456011	-0.059477
H116	H	0.919795	-0.393308	0.059397
H117	H	0.923191	-0.385962	-0.059479
H118	H	1.111852	0.121238	-0.000022
