data_functionalizedCrystal
_audit_creation_method	'MofGen! by Chris Wilmer'
_symmetry_space_group_name_H-M	'P1'
_symmetry_Int_Tables_number	1
_symmetry_cell_setting	triclinic
loop_
_symmetry_equiv_pos_as_xyz
  x,y,z
_cell_length_a	16.959455
_cell_length_b	16.120444
_cell_length_c	16.959447
_cell_angle_alpha	87.132720
_cell_angle_beta	90.014322
_cell_angle_gamma	92.923490
loop_
_atom_site_label
_atom_site_type_symbol
_atom_site_fract_x
_atom_site_fract_y
_atom_site_fract_z
Zn1	Zn	1.192388	-0.331959	0.462855
Zn2	Zn	1.525721	0.001375	0.796189
Zn3	Zn	1.859055	0.334708	1.129522
Zn4	Zn	1.185592	-0.471387	0.337374
Zn5	Zn	1.518926	-0.138054	0.670708
Zn6	Zn	1.852259	0.195279	1.004041
Zn7	Zn	1.060215	-0.331985	0.330694
Zn8	Zn	1.393549	0.001348	0.664027
Zn9	Zn	1.726882	0.334682	0.997361
Zn10	Zn	1.053466	-0.471325	0.469510
Zn11	Zn	1.386799	-0.137992	0.802843
Zn12	Zn	1.720132	0.195341	1.136177
O13	O	1.122915	-0.401664	0.400108
O14	O	1.456249	-0.068331	0.733442
O15	O	1.789582	0.265003	1.066775
O16	O	1.302097	-0.350469	0.446221
O17	O	1.635430	-0.017136	0.779554
O18	O	1.968763	0.316197	1.112887
O19	O	1.168941	-0.452932	0.225879
O20	O	1.502275	-0.119599	0.559212
O21	O	1.835608	0.213734	0.892546
O22	O	1.083417	-0.215316	0.342645
O23	O	1.416751	0.118018	0.675978
O24	O	1.750084	0.451351	1.009311
O25	O	1.297104	-0.452907	0.354030
O26	O	1.630437	-0.119574	0.687364
O27	O	1.963771	0.213760	1.020697
O28	O	1.180524	-0.215296	0.439743
O29	O	1.513857	0.118037	0.773076
O30	O	1.847191	0.451370	1.106409
O31	O	1.076827	-0.350514	0.220971
O32	O	1.410161	-0.017181	0.554304
O33	O	1.743494	0.316153	0.887638
O34	O	0.948710	-0.350454	0.349097
O35	O	1.282043	-0.017120	0.682431
O36	O	1.615377	0.316213	1.015764
O37	O	1.071914	-0.452801	0.579236
O38	O	1.405247	-0.119468	0.912570
O39	O	1.738580	0.213866	1.245903
O40	O	0.943751	-0.452826	0.451085
O41	O	1.277084	-0.119493	0.784418
O42	O	1.610418	0.213840	1.117752
O43	O	1.173979	-0.350409	0.574347
O44	O	1.507313	-0.017076	0.907680
O45	O	1.840646	0.316258	1.241014
O46	O	1.162397	-0.588045	0.360483
O47	O	1.495730	-0.254712	0.693817
O48	O	1.829063	0.078622	1.027150
O49	O	1.065324	-0.587999	0.457563
O50	O	1.398657	-0.254666	0.790896
O51	O	1.731991	0.078667	1.124230
C52	C	0.917550	-0.401637	0.400089
C53	C	1.250884	-0.068303	0.733422
C54	C	1.584217	0.265030	1.066756
C55	C	0.829693	-0.401645	0.400100
C56	C	1.163027	-0.068312	0.733434
C57	C	1.496360	0.265022	1.066767
C58	C	0.460777	-0.348315	0.347107
C59	C	0.794110	-0.014982	0.680440
C60	C	1.127443	0.318352	1.013774
C61	C	0.455654	-0.455082	0.453158
C62	C	0.788987	-0.121748	0.786492
C63	C	1.122321	0.211585	1.119825
C64	C	0.538200	-0.455070	0.453153
C65	C	0.871534	-0.121737	0.786486
C66	C	1.204867	0.211597	1.119820
C67	C	0.582039	-0.401681	0.400123
C68	C	0.915372	-0.068347	0.733456
C69	C	1.248705	0.264986	1.066790
C70	C	0.543331	-0.348303	0.347098
C71	C	0.876664	-0.014970	0.680432
C72	C	1.209997	0.318364	1.013765
C73	C	0.576914	-0.508452	0.506171
C74	C	0.910248	-0.175119	0.839505
C75	C	1.243581	0.158214	1.172838
C76	C	0.659466	-0.508443	0.506167
C77	C	0.992799	-0.175110	0.839501
C78	C	1.326132	0.158224	1.172834
C79	C	0.703306	-0.455049	0.453141
C80	C	1.036639	-0.121716	0.786474
C81	C	1.369972	0.211618	1.119807
C82	C	0.664593	-0.401669	0.400114
C83	C	0.997926	-0.068335	0.733448
C84	C	1.331260	0.264998	1.066781
C85	C	0.708431	-0.348279	0.347084
C86	C	1.041765	-0.014946	0.680418
C87	C	1.375098	0.318387	1.013751
C88	C	0.669720	-0.294894	0.294061
C89	C	1.003053	0.038439	0.627395
C90	C	1.336387	0.371772	0.960728
C91	C	0.587171	-0.294909	0.294071
C92	C	0.920504	0.038424	0.627405
C93	C	1.253838	0.371758	0.960738
C94	C	0.785855	-0.455034	0.453130
C95	C	1.119188	-0.121701	0.786464
C96	C	1.452522	0.211632	1.119797
C97	C	0.790985	-0.348268	0.347076
C98	C	1.124319	-0.014934	0.680409
C99	C	1.457652	0.318399	1.013742
C100	C	1.112412	-0.618272	0.410487
C101	C	1.445745	-0.284939	0.743821
C102	C	1.779078	0.048394	1.077154
C103	C	1.107991	-0.710938	0.414954
C104	C	1.441324	-0.377605	0.748287
C105	C	1.774657	-0.044271	1.081621
C106	C	1.146044	-0.921883	0.377108
C107	C	1.479377	-0.588549	0.710441
C108	C	1.812711	-0.255216	1.043774
C109	C	1.099933	-0.880594	0.423117
C110	C	1.433267	-0.547261	0.756451
C111	C	1.766600	-0.213928	1.089784
C112	C	1.104418	-0.786189	0.418574
C113	C	1.437751	-0.452855	0.751907
C114	C	1.771084	-0.119522	1.085241
C115	C	1.141560	-1.016297	0.381650
C116	C	1.474894	-0.682963	0.714983
C117	C	1.808227	-0.349630	1.048317
C118	C	1.329082	-0.401692	0.400128
C119	C	1.662416	-0.068359	0.733462
C120	C	1.995749	0.264974	1.066795
C121	C	1.416938	-0.401704	0.400137
C122	C	1.750272	-0.068371	0.733470
C123	C	2.083605	0.264962	1.066804
C124	C	1.122952	-0.401595	0.606273
C125	C	1.456285	-0.068262	0.939607
C126	C	1.789618	0.265072	1.272940
C127	C	1.122967	-0.401566	0.694129
C128	C	1.456300	-0.068232	1.027462
C129	C	1.789634	0.265101	1.360795
C130	C	1.133482	-0.184210	0.389706
C131	C	1.466815	0.149123	0.723039
C132	C	1.800148	0.482457	1.056373
C133	C	1.137984	-0.091544	0.385273
C134	C	1.471318	0.241789	0.718607
C135	C	1.804651	0.575122	1.051940
C136	C	1.122928	-0.401673	0.194743
C137	C	1.456261	-0.068339	0.528076
C138	C	1.789594	0.264994	0.861409
C139	C	1.123077	-0.401467	0.106877
C140	C	1.456410	-0.068134	0.440210
C141	C	1.789743	0.265199	0.773543
C142	C	1.069925	-0.454788	1.068148
C143	C	1.403258	-0.121455	1.401482
C144	C	1.736591	0.211878	1.734815
C145	C	1.176207	-0.348167	1.063052
C146	C	1.509540	-0.014834	1.396385
C147	C	1.842873	0.318500	1.729719
C148	C	1.176185	-0.348185	0.980507
C149	C	1.509518	-0.014851	1.313840
C150	C	1.842851	0.318482	1.647174
C151	C	1.123033	-0.401506	0.941779
C152	C	1.456366	-0.068173	1.275112
C153	C	1.789700	0.265161	1.608446
C154	C	1.069903	-0.454810	0.985596
C155	C	1.403236	-0.121476	1.318929
C156	C	1.736569	0.211857	1.652262
C157	C	1.229319	-0.294888	0.936684
C158	C	1.562653	0.038445	1.270018
C159	C	1.895986	0.371779	1.603351
C160	C	1.229300	-0.294904	0.854134
C161	C	1.562633	0.038429	1.187467
C162	C	1.895967	0.371762	1.520801
C163	C	1.176144	-0.348222	0.815404
C164	C	1.509477	-0.014889	1.148738
C165	C	1.842810	0.318445	1.482071
C166	C	1.123011	-0.401527	0.859226
C167	C	1.456344	-0.068194	1.192560
C168	C	1.789678	0.265140	1.525893
C169	C	1.069859	-0.454848	0.820498
C170	C	1.403192	-0.121515	1.153831
C171	C	1.736526	0.211818	1.487165
C172	C	1.016722	-0.508150	0.864318
C173	C	1.350055	-0.174816	1.197652
C174	C	1.683388	0.158517	1.530985
C175	C	1.016746	-0.508127	0.946866
C176	C	1.350080	-0.174794	1.280199
C177	C	1.683413	0.158539	1.613533
C178	C	1.176119	-0.348244	0.732857
C179	C	1.509452	-0.014911	1.066190
C180	C	1.842786	0.318422	1.399524
C181	C	1.069837	-0.454869	0.737946
C182	C	1.403170	-0.121536	1.071279
C183	C	1.736504	0.211797	1.404612
H184	H	0.705424	-0.251428	0.250881
H185	H	1.038757	0.081905	0.584214
H186	H	1.372091	0.415238	0.917548
Cl187	Cl	0.521799	-0.575592	0.572809
Cl188	Cl	0.855132	-0.242259	0.906142
Cl189	Cl	1.188466	0.091075	1.239476
H190	H	1.057089	-0.916147	0.465920
H191	H	1.390422	-0.582814	0.799253
H192	H	1.723755	-0.249480	1.132586
H193	H	1.219485	-0.304760	1.094590
H194	H	1.552818	0.028573	1.427923
H195	H	1.886151	0.361907	1.761257
H196	H	1.026660	-0.498183	1.103830
H197	H	1.359993	-0.164850	1.437164
H198	H	1.693326	0.168484	1.770497
Cl199	Cl	0.834517	-0.522146	0.519778
Cl200	Cl	1.167850	-0.188813	0.853111
Cl201	Cl	1.501184	0.144521	1.186444
Cl202	Cl	0.949956	-0.575133	1.001959
Cl203	Cl	1.283289	-0.241799	1.335292
Cl204	Cl	1.616623	0.091534	1.668625
Cl205	Cl	1.212187	-0.866995	0.311026
Cl206	Cl	1.545520	-0.533661	0.644359
Cl207	Cl	1.878853	-0.200328	0.977692
H208	H	1.026547	-0.498283	0.706419
H209	H	1.359880	-0.164950	1.039752
H210	H	1.693214	0.168384	1.373085
H211	H	0.826674	-0.304786	0.303896
H212	H	1.160007	0.028548	0.637229
H213	H	1.493340	0.361881	0.970563
Cl214	Cl	0.412114	-0.281202	0.280457
Cl215	Cl	0.745447	0.052132	0.613790
Cl216	Cl	1.078781	0.385465	0.947123
H217	H	0.973449	-0.551568	0.832775
H218	H	1.306782	-0.218234	1.166109
H219	H	1.640116	0.115099	1.499442
Cl220	Cl	1.296139	-0.227867	0.985375
Cl221	Cl	1.629473	0.105467	1.318708
Cl222	Cl	1.962806	0.438800	1.652041
H223	H	1.272567	-0.251502	0.818462
H224	H	1.605900	0.081831	1.151796
H225	H	1.939234	0.415164	1.485129
H226	H	0.555645	-0.251447	0.250902
H227	H	0.888978	0.081887	0.584235
H228	H	1.222311	0.415220	0.917569
Cl229	Cl	0.400541	-0.522214	0.519805
Cl230	Cl	0.733875	-0.188880	0.853138
Cl231	Cl	1.067208	0.144453	1.186472
Cl232	Cl	0.708124	-0.575552	0.572826
Cl233	Cl	1.041457	-0.242218	0.906159
Cl234	Cl	1.374790	0.091115	1.239492
H235	H	1.219384	-0.304849	0.697182
H236	H	1.552718	0.028484	1.030515
H237	H	1.886051	0.361817	1.363849
