data_functionalizedCrystal
_audit_creation_method	'MofGen! by Chris Wilmer'
_symmetry_space_group_name_H-M	'P1'
_symmetry_Int_Tables_number	1
_symmetry_cell_setting	triclinic
loop_
_symmetry_equiv_pos_as_xyz
  x,y,z
_cell_length_a	17.699077
_cell_length_b	10.654558
_cell_length_c	16.776229
_cell_angle_alpha	89.994314
_cell_angle_beta	89.993415
_cell_angle_gamma	83.884401
loop_
_atom_site_label
_atom_site_type_symbol
_atom_site_fract_x
_atom_site_fract_y
_atom_site_fract_z
O1	O	1.005094	0.158772	-0.066276
O2	O	1.505094	0.658772	0.433724
O3	O	0.784846	0.179441	-0.066280
O4	O	1.284846	0.679441	0.433720
O5	O	0.900031	-0.013720	-0.066274
O6	O	1.400031	0.486280	0.433726
O7	O	0.889909	0.351934	-0.066281
O8	O	1.389909	0.851934	0.433719
O9	O	0.900015	-0.013732	0.066302
O10	O	1.400015	0.486268	0.566302
O11	O	0.784831	0.179430	0.066297
O12	O	1.284831	0.679430	0.566297
O13	O	1.005078	0.158761	0.066300
O14	O	1.505078	0.658761	0.566300
Zn15	Zn	0.894952	0.169093	0.087348
Zn16	Zn	1.394952	0.669093	0.587348
Zn17	Zn	0.894972	0.169109	-0.087327
Zn18	Zn	1.394972	0.669109	0.412673
O19	O	0.889894	0.351922	0.066295
O20	O	1.389894	0.851922	0.566295
C21	C	0.756637	0.178696	0.000008
C22	C	1.256637	0.678696	0.500008
C23	C	0.672604	0.176478	0.000007
C24	C	1.172604	0.676478	0.500007
C25	C	0.633122	0.175427	0.072275
C26	C	1.133122	0.675427	0.572275
C27	C	0.554166	0.173322	0.072276
C28	C	1.054166	0.673322	0.572276
C29	C	0.514693	0.172279	0.000008
C30	C	1.014693	0.672279	0.500008
C31	C	0.554181	0.173327	-0.072266
C32	C	1.054181	0.673327	0.427734
C33	C	0.633137	0.175422	-0.072266
C34	C	1.133137	0.675422	0.427734
C35	C	0.235764	0.164876	-0.072268
C36	C	0.735764	0.664876	0.427732
C37	C	0.156803	0.162784	-0.072262
C38	C	0.656803	0.662784	0.427738
C39	C	0.156793	0.162776	0.072275
C40	C	0.656793	0.662776	0.572275
C41	C	0.235749	0.164871	0.072275
C42	C	0.735749	0.664871	0.572275
C43	C	0.275231	0.165913	0.000001
C44	C	0.775231	0.665913	0.500001
C45	C	0.360844	0.168192	0.000001
C46	C	0.860844	0.668192	0.500001
C47	C	0.429081	0.170009	0.000007
C48	C	0.929081	0.670009	0.500007
C49	C	0.899278	-0.060511	0.000013
C50	C	1.399278	0.439489	0.500013
C51	C	0.897051	-0.199915	0.000011
C52	C	1.397051	0.300085	0.500011
C53	C	0.895995	-0.265416	0.072277
C54	C	1.395995	0.234584	0.572277
C55	C	0.893908	-0.396402	0.072274
C56	C	1.393908	0.103598	0.572274
C57	C	0.893932	-0.396373	-0.072269
C58	C	1.393932	0.103627	0.427731
C59	C	0.896024	-0.265391	-0.072265
C60	C	1.396024	0.234609	0.427735
C61	C	0.897022	-0.199941	0.144552
C62	C	1.397022	0.300059	0.644552
C63	C	0.895965	-0.265442	0.216824
C64	C	1.395965	0.234558	0.716824
C65	C	0.893879	-0.396428	0.216821
C66	C	1.393879	0.103572	0.716821
C67	C	0.892850	-0.461913	0.144545
C68	C	1.392850	0.038087	0.644545
C69	C	1.033288	0.159506	0.000011
C70	C	1.533288	0.659506	0.500011
C71	C	1.117320	0.161724	0.000007
C72	C	1.617320	0.661724	0.500007
C73	C	0.890646	0.398713	0.000006
C74	C	1.390646	0.898713	0.500006
C75	C	0.892873	0.538117	0.000003
C76	C	1.392873	1.038117	0.500003
N77	N	0.894944	0.169082	0.206559
N78	N	1.394944	0.669082	0.706559
N79	N	0.894987	0.169110	-0.206538
N80	N	1.394987	0.669110	0.293462
C81	C	0.945963	0.083585	0.248279
C82	C	1.445963	0.583585	0.748279
C83	C	0.945967	0.083584	0.331731
C84	C	1.445967	0.583584	0.831731
C85	C	0.894955	0.169087	0.373462
C86	C	1.394955	0.669087	0.873462
C87	C	0.843930	0.254588	0.331737
C88	C	1.343930	0.754588	0.831737
C89	C	0.843923	0.254582	0.248286
C90	C	1.343923	0.754582	0.748286
C91	C	0.843958	0.254612	0.668284
C92	C	1.343958	0.754612	1.168284
C93	C	0.843970	0.254614	0.751741
C94	C	1.343970	0.754614	1.251741
C95	C	0.946002	0.083614	0.751729
C96	C	1.446002	0.583614	1.251729
C97	C	0.945995	0.083608	0.668278
C98	C	1.445995	0.583608	1.168278
C99	C	0.894967	0.169104	0.626560
C100	C	1.394967	0.669104	1.126560
C101	C	0.894963	0.169103	0.536072
C102	C	1.394963	0.669103	1.036072
C103	C	0.894963	0.169095	0.463949
C104	C	1.394963	0.669095	0.963949
H105	H	0.665254	0.176287	0.131124
H106	H	1.165254	0.676287	0.631124
O107	O	0.278314	0.166012	0.150226
O108	O	0.778314	0.666012	0.650226
H109	H	0.320591	0.081416	0.153691
H110	H	0.820591	0.581416	0.653691
H111	H	0.896884	-0.212058	-0.131110
H112	H	1.396884	0.287942	0.368890
O113	O	0.899348	-0.058681	0.144603
O114	O	1.399348	0.441319	0.644603
H115	H	0.951423	-0.035565	0.113423
H116	H	1.451423	0.464435	0.613423
H117	H	0.665282	0.176281	-0.131115
H118	H	1.165282	0.676281	0.368885
H119	H	0.891157	-0.568572	0.144549
H120	H	1.391157	-0.068572	0.644549
H121	H	0.896809	-0.212117	0.275668
H122	H	1.396809	0.287883	0.775668
O123	O	0.788949	0.346836	0.796759
O124	O	1.288949	0.846836	1.296759
H125	H	0.821139	0.407808	0.834755
H126	H	1.321139	0.907808	1.334755
H127	H	0.893093	-0.449701	-0.131112
H128	H	1.393093	0.050299	0.368888
O129	O	0.278343	0.166007	-0.150216
O130	O	0.778343	0.666007	0.349784
H131	H	0.256897	0.251174	-0.184867
H132	H	0.756897	0.751174	0.315133
H133	H	0.987536	0.013988	0.634303
H134	H	1.487536	0.513988	1.134303
O135	O	1.001011	-0.008616	0.376722
O136	O	1.501011	0.491384	0.876722
H137	H	0.990871	-0.106500	0.360709
H138	H	1.490871	0.393500	0.860709
O139	O	1.000981	-0.008642	0.203269
O140	O	1.500981	0.491358	0.703269
H141	H	1.036452	-0.068102	0.246303
H142	H	1.536452	0.431898	0.746303
H143	H	0.522037	0.172468	-0.131108
H144	H	1.022037	0.672468	0.368892
O145	O	0.892750	-0.467075	0.294769
O146	O	1.392750	0.032925	0.794769
H147	H	0.891134	-0.569159	0.282628
H148	H	1.391134	-0.069159	0.782628
H149	H	0.802411	0.324229	0.634324
H150	H	1.302411	0.824229	1.134324
H151	H	0.987549	0.013994	0.785704
H152	H	1.487549	0.513994	1.285704
H153	H	0.802377	0.324201	0.214319
H154	H	1.302377	0.824201	0.714319
H155	H	0.522024	0.172445	0.131124
H156	H	1.022024	0.672445	0.631124
H157	H	0.802391	0.324202	0.365719
H158	H	1.302391	0.824202	0.865719
H159	H	0.124667	0.161934	-0.131115
H160	H	0.624667	0.661934	0.368885
O161	O	0.114169	0.162231	0.150231
O162	O	0.614169	0.662231	0.650231
H163	H	0.052620	0.160801	0.138094
H164	H	0.552620	0.660801	0.638094
