data_functionalizedCrystal
_audit_creation_method	'MofGen! by Chris Wilmer'
_symmetry_space_group_name_H-M	'P1'
_symmetry_Int_Tables_number	1
_symmetry_cell_setting	triclinic
loop_
_symmetry_equiv_pos_as_xyz
  x,y,z
_cell_length_a	16.109301
_cell_length_b	10.654550
_cell_length_c	14.586319
_cell_angle_alpha	89.996358
_cell_angle_beta	89.999213
_cell_angle_gamma	83.973206
loop_
_atom_site_label
_atom_site_type_symbol
_atom_site_fract_x
_atom_site_fract_y
_atom_site_fract_z
O1	O	1.104091	0.161419	-0.076182
O2	O	0.862148	0.181507	-0.076197
O3	O	0.988682	-0.011352	-0.076183
O4	O	0.977557	0.354278	-0.076195
O5	O	0.988673	-0.011354	0.076298
O6	O	0.862139	0.181504	0.076284
O7	O	1.104082	0.161416	0.076299
Cu8	Cu	0.983110	0.171460	0.090214
Cu9	Cu	0.983120	0.171463	-0.090112
O10	O	0.977548	0.354275	0.076285
C11	C	0.831164	0.180692	0.000042
C12	C	0.738854	0.178253	0.000037
C13	C	0.517228	0.287019	0.000044
C14	C	0.430494	0.284717	0.000049
C15	C	0.449008	0.055896	0.000053
C16	C	0.535741	0.058199	0.000054
C17	C	0.569848	0.173764	0.000044
C18	C	0.396382	0.169159	0.000050
C19	C	0.302341	0.166662	0.000056
C20	C	0.663895	0.176262	0.000040
C21	C	0.987861	-0.058140	0.000057
C22	C	0.985417	-0.197550	0.000055
C23	C	1.059918	-0.278046	0.000059
C24	C	1.057616	-0.409036	0.000048
C25	C	0.906306	-0.379020	0.000032
C26	C	0.908608	-0.248033	0.000037
C27	C	1.145364	-0.606070	-0.053373
C28	C	1.219869	-0.686572	-0.053353
C29	C	1.287407	-0.657317	0.000086
C30	C	1.280443	-0.547563	0.053528
C31	C	1.205937	-0.467068	0.053516
C32	C	1.138402	-0.496322	0.000056
C33	C	0.820866	-0.050997	0.053465
C34	C	0.746359	0.029500	0.053460
C35	C	0.678814	0.000249	0.000026
C36	C	0.685770	-0.109507	-0.053402
C37	C	0.760277	-0.190004	-0.053397
C38	C	0.827822	-0.160745	0.000036
C39	C	1.135066	0.162231	0.000058
C40	C	1.227376	0.164671	0.000058
C41	C	0.978369	0.401063	0.000043
C42	C	0.980813	0.540473	0.000039
N43	N	0.983108	0.171457	0.217046
N44	N	0.983128	0.171457	-0.216944
C45	C	1.039156	0.086088	0.452058
C46	C	1.039159	0.086084	0.548040
C47	C	0.927074	0.256830	0.548037
C48	C	0.927068	0.256826	0.452058
C49	C	0.983114	0.171456	0.404071
C50	C	0.983122	0.171457	0.596031
C51	C	0.983124	0.171455	0.700099
C52	C	0.983111	0.171457	0.299997
H53	H	0.421227	-0.038193	0.000067
H54	H	0.544996	0.381119	0.000043
O55	O	0.831647	-0.427912	0.000143
C56	C	0.701631	-0.442401	0.079151
C57	C	0.786148	-0.386930	0.079127
H58	H	0.664828	-0.409310	0.143013
H59	H	0.664726	-0.409200	0.015378
H60	H	0.712800	-0.549846	0.079106
H61	H	0.775055	-0.279483	0.079205
H62	H	0.823026	-0.420229	0.142895
O63	O	0.379499	0.394848	0.000005
C64	C	0.370295	0.622049	0.000051
C65	C	0.428142	0.497414	0.000078
H66	H	0.409599	0.705006	0.000130
H67	H	0.329240	0.626782	-0.063775
H68	H	0.329210	0.626622	0.063851
H69	H	0.469278	0.492758	-0.063678
H70	H	0.469140	0.492734	0.063947
H71	H	0.578586	-0.034032	0.000057
H72	H	0.881444	0.326338	0.587118
O73	O	1.093642	0.003302	0.405381
C74	C	1.206933	-0.023492	0.296904
C75	C	1.145313	0.070423	0.349733
H76	H	1.248714	0.030737	0.251885
H77	H	1.247050	-0.084531	0.347628
H78	H	1.170608	-0.086225	0.252038
H79	H	1.181571	0.133238	0.394601
H80	H	1.105196	0.131373	0.298960
O81	O	1.093680	0.003112	0.594512
C82	C	1.204820	-0.166291	0.584379
C83	C	1.143132	-0.072368	0.531636
H84	H	1.244806	-0.227359	0.533567
H85	H	1.246723	-0.112118	0.629284
H86	H	1.168554	-0.228990	0.629344
H87	H	1.179331	-0.009645	0.486621
H88	H	1.101230	-0.126619	0.486789
H89	H	1.122460	-0.236948	0.000072
O90	O	1.199228	-0.360580	0.105551
C91	C	1.203970	-0.272573	0.257404
C92	C	1.211604	-0.393275	0.198587
H93	H	1.213956	-0.298966	0.332637
H94	H	1.253108	-0.209337	0.234958
H95	H	1.139129	-0.220055	0.248159
H96	H	1.276415	-0.445895	0.207803
H97	H	1.162419	-0.456419	0.221046
H98	H	1.335439	-0.523762	0.097050
H99	H	1.348071	-0.722871	0.000101
H100	H	0.618142	0.065794	0.000039
H101	H	1.090378	-0.629892	-0.096901
H102	H	1.225535	-0.775931	-0.096872
O103	O	0.872595	0.339881	0.405578
C104	C	0.761388	0.509186	0.415696
C105	C	0.823045	0.415226	0.468448
H106	H	0.721299	0.570109	0.466504
H107	H	0.797597	0.572021	0.370777
H108	H	0.719581	0.454917	0.370745
H109	H	0.864867	0.469392	0.513449
H110	H	0.786784	0.352391	0.513310
O111	O	0.766912	-0.296537	-0.105388
C112	C	0.698946	-0.425956	-0.211355
C113	C	0.691323	-0.305259	-0.152533
H114	H	0.637836	-0.433060	-0.249471
H115	H	0.751797	-0.422344	-0.262954
H116	H	0.712837	-0.511873	-0.165126
H117	H	0.677403	-0.219278	-0.198688
H118	H	0.638490	-0.308981	-0.100925
O119	O	0.620187	-0.137761	-0.105423
C120	C	0.525043	-0.072080	-0.227927
C121	C	0.599333	-0.039943	-0.169098
H122	H	0.508148	0.006999	-0.279409
H123	H	0.542787	-0.164307	-0.266180
H124	H	0.469151	-0.082693	-0.181691
H125	H	0.655255	-0.029264	-0.215268
H126	H	0.581519	0.052255	-0.130836
H127	H	0.740696	0.118862	0.096976
O128	O	0.886516	-0.022800	0.105407
C129	C	0.981643	-0.088413	0.227941
C130	C	0.907301	-0.120517	0.169180
H131	H	0.998459	-0.167386	0.279528
H132	H	1.037584	-0.077916	0.181750
H133	H	0.963881	0.003891	0.266089
H134	H	0.924982	-0.212831	0.131024
H135	H	0.851381	-0.130931	0.215418
