data_functionalizedCrystal
_audit_creation_method	'MofGen! by Chris Wilmer'
_symmetry_space_group_name_H-M	'P1'
_symmetry_Int_Tables_number	1
_symmetry_cell_setting	triclinic
loop_
_symmetry_equiv_pos_as_xyz
  x,y,z
_cell_length_a	17.019372
_cell_length_b	17.038272
_cell_length_c	14.472310
_cell_angle_alpha	90.000702
_cell_angle_beta	86.136601
_cell_angle_gamma	87.242864
loop_
_atom_site_label
_atom_site_type_symbol
_atom_site_fract_x
_atom_site_fract_y
_atom_site_fract_z
O1	O	1.053347	0.099574	-0.006902
O2	O	0.824540	0.112279	0.011291
O3	O	0.937584	-0.007888	0.002295
O4	O	0.940304	0.219741	0.002093
O5	O	0.937553	-0.007881	-0.151385
O6	O	0.824510	0.112286	-0.142389
O7	O	1.053317	0.099581	-0.160582
Cu8	Cu	0.938910	0.105934	-0.165518
Cu9	Cu	0.938947	0.105926	0.016226
O10	O	0.940273	0.219748	-0.151586
C11	C	0.795104	0.111802	-0.063210
C12	C	0.707439	0.110359	-0.056240
C13	C	0.211626	0.102174	-0.012554
C14	C	0.293997	0.103530	-0.019115
C15	C	0.335157	0.104217	-0.106168
C16	C	0.293943	0.103541	-0.186664
C17	C	0.211574	0.102180	-0.180101
C18	C	0.583857	0.108322	-0.130173
C19	C	0.666231	0.109686	-0.136730
C20	C	0.666279	0.109673	0.030819
C21	C	0.583909	0.108316	0.037374
C22	C	0.542702	0.107636	-0.043122
C23	C	0.419353	0.105605	-0.112877
C24	C	0.458508	0.106243	-0.036412
C25	C	0.935095	-0.037010	-0.074348
C26	C	0.927715	-0.123797	-0.073761
C27	C	0.995473	-0.173970	-0.079150
C28	C	0.988534	-0.255515	-0.078589
C29	C	0.913836	-0.286884	-0.072647
C30	C	0.846072	-0.236704	-0.067255
C31	C	0.853012	-0.155161	-0.067809
C32	C	0.889319	-0.532620	-0.070684
C33	C	0.882384	-0.614170	-0.070134
C34	C	1.024846	-0.632975	-0.081466
C35	C	1.031780	-0.551430	-0.082025
C36	C	0.964016	-0.501257	-0.076629
C37	C	0.906741	-0.370235	-0.072076
C38	C	0.971112	-0.417907	-0.077192
C39	C	1.082753	0.100058	-0.086079
C40	C	1.170418	0.101501	-0.093043
C41	C	0.942762	0.248870	-0.074941
C42	C	0.950142	0.335657	-0.075522
N43	N	0.938891	0.105939	-0.293347
C44	C	0.938945	0.105923	-0.667443
C45	C	0.878226	0.170006	-0.623445
C46	C	0.878392	0.170240	-0.516370
C47	C	0.938918	0.105931	-0.481849
C48	C	1.022413	0.123654	-0.527324
C49	C	1.022078	0.124109	-0.634419
C50	C	0.916891	0.023925	-0.626224
C51	C	0.915040	0.024474	-0.518949
C52	C	0.938907	0.105934	-0.376960
C53	C	0.938962	0.105921	-0.772332
N54	N	0.938972	0.105914	0.144055
H55	H	0.699741	0.110251	-0.207622
H56	H	0.845921	-0.395785	-0.067240
H57	H	0.816505	0.159694	-0.485194
N58	N	0.800357	0.156990	-0.649608
N59	N	0.788699	0.100335	-0.700989
H60	H	0.733702	0.091140	-0.719472
H61	H	1.056301	-0.148437	-0.083994
H62	H	1.080015	-0.673834	-0.085858
H63	H	1.031931	-0.392363	-0.082010
H64	H	0.834140	-0.491779	-0.066290
N65	N	1.057756	-0.306755	-0.084085
N66	N	1.124446	-0.278737	-0.089392
H67	H	1.173338	-0.314924	-0.093270
N68	N	0.896400	0.245910	-0.658649
N69	N	0.953876	0.253014	-0.716001
H70	H	0.966714	0.306620	-0.740866
N71	N	1.108089	-0.519403	-0.088097
N72	N	1.168583	-0.564210	-0.092906
H73	H	1.222478	-0.541592	-0.097196
N74	N	0.769775	-0.268757	-0.061174
N75	N	0.763587	-0.341563	-0.060680
H76	H	0.709701	-0.364200	-0.056387
H77	H	0.893045	0.231091	-0.491897
H78	H	1.040676	0.183907	-0.660869
H79	H	1.068903	0.078216	-0.505540
H80	H	0.178023	0.101639	-0.245645
H81	H	0.797836	-0.114310	-0.063421
N82	N	1.080815	0.067774	-0.671584
N83	N	1.121928	0.028250	-0.618414
H84	H	1.163414	-0.011535	-0.644658
H85	H	0.857032	0.006860	-0.648533
H86	H	1.041314	0.182769	-0.501985
H87	H	0.550317	0.107757	-0.195719
H88	H	0.853592	0.011022	-0.488682
N89	N	0.708359	0.110367	0.113048
N90	N	0.695595	0.165289	0.170167
H91	H	0.725313	0.165777	0.228247
N92	N	0.966387	-0.038140	-0.489436
N93	N	1.021666	-0.023684	-0.440365
H94	H	1.057936	-0.067904	-0.419521
H95	H	0.178119	0.101620	0.058334
N96	N	0.972361	-0.035893	-0.662416
N97	N	1.027916	-0.018320	-0.718323
H98	H	1.067094	-0.060561	-0.743889
H99	H	0.327546	0.104074	0.046428
H100	H	0.550402	0.107756	0.108261
H101	H	0.327463	0.104096	-0.257544
N102	N	0.416469	0.105524	0.052508
N103	N	0.374092	0.049679	0.074566
H104	H	0.344395	0.049172	0.137366
N105	N	0.806071	-0.646200	-0.064080
N106	N	0.745574	-0.601396	-0.059273
H107	H	0.691681	-0.624017	-0.055005
N108	N	0.461419	0.106328	-0.201784
N109	N	0.503801	0.162175	-0.223816
H110	H	0.533517	0.162687	-0.286605
