data_functionalizedCrystal
_audit_creation_method	'MofGen! by Chris Wilmer'
_symmetry_space_group_name_H-M	'P1'
_symmetry_Int_Tables_number	1
_symmetry_cell_setting	triclinic
loop_
_symmetry_equiv_pos_as_xyz
  x,y,z
_cell_length_a	16.959455
_cell_length_b	13.897448
_cell_length_c	13.897441
_cell_angle_alpha	90.029627
_cell_angle_beta	90.018627
_cell_angle_gamma	90.014639
loop_
_atom_site_label
_atom_site_type_symbol
_atom_site_fract_x
_atom_site_fract_y
_atom_site_fract_z
Zn1	Zn	1.208430	-0.384072	0.545382
Zn2	Zn	1.458430	-0.134072	0.795382
Zn3	Zn	1.708430	0.115928	1.045382
Zn4	Zn	1.958430	0.365928	1.295382
Zn5	Zn	1.208349	-0.545391	0.384083
Zn6	Zn	1.458349	-0.295391	0.634083
Zn7	Zn	1.708349	-0.045391	0.884083
Zn8	Zn	1.958349	0.204609	1.134083
Zn9	Zn	1.076249	-0.384103	0.384100
Zn10	Zn	1.326249	-0.134103	0.634100
Zn11	Zn	1.576249	0.115897	0.884100
Zn12	Zn	1.826249	0.365897	1.134100
Zn13	Zn	1.076229	-0.545318	0.545336
Zn14	Zn	1.326229	-0.295318	0.795336
Zn15	Zn	1.576229	-0.045318	1.045336
Zn16	Zn	1.826229	0.204682	1.295336
O17	O	1.142314	-0.464721	0.464725
O18	O	1.392314	-0.214721	0.714725
O19	O	1.642314	0.035279	0.964725
O20	O	1.892314	0.285279	1.214725
O21	O	1.319030	-0.405489	0.523998
O22	O	1.569030	-0.155489	0.773998
O23	O	1.819030	0.094511	1.023998
O24	O	2.069030	0.344511	1.273998
O25	O	1.190799	-0.524039	0.249104
O26	O	1.440799	-0.274039	0.499104
O27	O	1.690799	-0.024039	0.749104
O28	O	1.940799	0.225961	0.999104
O29	O	1.093826	-0.249117	0.405521
O30	O	1.343826	0.000883	0.655521
O31	O	1.593826	0.250883	0.905521
O32	O	1.843826	0.500883	1.155521
O33	O	1.318970	-0.524009	0.405492
O34	O	1.568970	-0.274009	0.655492
O35	O	1.818970	-0.024009	0.905492
O36	O	2.068970	0.225991	1.155492
O37	O	1.190939	-0.249094	0.524014
O38	O	1.440939	0.000906	0.774014
O39	O	1.690939	0.250906	1.024014
O40	O	1.940939	0.500906	1.274014
O41	O	1.093746	-0.405542	0.249116
O42	O	1.343746	-0.155542	0.499116
O43	O	1.593746	0.094458	0.749116
O44	O	1.843746	0.344458	0.999116
O45	O	0.965635	-0.405471	0.405476
O46	O	1.215635	-0.155471	0.655476
O47	O	1.465635	0.094529	0.905476
O48	O	1.715635	0.344529	1.155476
O49	O	1.093792	-0.523885	0.680324
O50	O	1.343792	-0.273885	0.930324
O51	O	1.593792	-0.023885	1.180324
O52	O	1.843792	0.226115	1.430324
O53	O	0.965621	-0.523915	0.523935
O54	O	1.215621	-0.273915	0.773935
O55	O	1.465621	-0.023915	1.023935
O56	O	1.715621	0.226085	1.273935
O57	O	1.190920	-0.405418	0.680358
O58	O	1.440920	-0.155418	0.930358
O59	O	1.690920	0.094582	1.180358
O60	O	1.940920	0.344582	1.430358
O61	O	1.190780	-0.680363	0.405447
O62	O	1.440780	-0.430363	0.655447
O63	O	1.690780	-0.180363	0.905447
O64	O	1.940780	0.069637	1.155447
O65	O	1.093712	-0.680309	0.523919
O66	O	1.343712	-0.430309	0.773919
O67	O	1.593712	-0.180309	1.023919
O68	O	1.843712	0.069691	1.273919
C69	C	0.936948	-0.464689	0.464703
C70	C	1.186948	-0.214689	0.714703
C71	C	1.436948	0.035311	0.964703
C72	C	1.686948	0.285311	1.214703
C73	C	0.849091	-0.464699	0.464717
C74	C	1.099091	-0.214699	0.714717
C75	C	1.349091	0.035301	0.964717
C76	C	1.599091	0.285301	1.214717
C77	C	1.142257	-0.715335	0.464697
C78	C	1.392257	-0.465335	0.714697
C79	C	1.642257	-0.215335	0.964697
C80	C	1.892257	0.034665	1.214697
C81	C	1.142304	-0.822549	0.464718
C82	C	1.392304	-0.572549	0.714718
C83	C	1.642304	-0.322549	0.964718
C84	C	1.892304	-0.072549	1.214718
C85	C	0.477599	-0.402997	0.403172
C86	C	0.727599	-0.152997	0.653172
C87	C	0.977599	0.097003	0.903172
C88	C	1.227599	0.347003	1.153172
C89	C	0.477633	-0.526525	0.526333
C90	C	0.727633	-0.276525	0.776333
C91	C	0.977633	-0.026525	1.026333
C92	C	1.227633	0.223475	1.276333
C93	C	0.560178	-0.526511	0.526327
C94	C	0.810178	-0.276511	0.776327
C95	C	1.060178	-0.026511	1.026327
C96	C	1.310178	0.223489	1.276327
C97	C	0.601438	-0.464740	0.464742
C98	C	0.851438	-0.214740	0.714742
C99	C	1.101438	0.035260	0.964742
C100	C	1.351438	0.285260	1.214742
C101	C	0.560153	-0.402983	0.403163
C102	C	0.810153	-0.152983	0.653163
C103	C	1.060153	0.097017	0.903163
C104	C	1.310153	0.347017	1.153163
C105	C	0.601471	-0.588274	0.587899
C106	C	0.851471	-0.338274	0.837899
C107	C	1.101471	-0.088274	1.087899
C108	C	1.351471	0.161726	1.337899
C109	C	0.684021	-0.588263	0.587895
C110	C	0.934021	-0.338263	0.837895
C111	C	1.184021	-0.088263	1.087895
C112	C	1.434021	0.161737	1.337895
C113	C	0.725283	-0.526487	0.526313
C114	C	0.975283	-0.276487	0.776313
C115	C	1.225283	-0.026487	1.026313
C116	C	1.475283	0.223513	1.276313
C117	C	0.683992	-0.464726	0.464732
C118	C	0.933992	-0.214726	0.714732
C119	C	1.183992	0.035274	0.964732
C120	C	1.433992	0.285274	1.214732
C121	C	0.725252	-0.402955	0.403147
C122	C	0.975252	-0.152955	0.653147
C123	C	1.225252	0.097045	0.903147
C124	C	1.475252	0.347045	1.153147
C125	C	0.683962	-0.341189	0.341570
C126	C	0.933962	-0.091189	0.591570
C127	C	1.183962	0.158811	0.841570
C128	C	1.433962	0.408811	1.091570
C129	C	0.601414	-0.341206	0.341581
C130	C	0.851414	-0.091206	0.591581
C131	C	1.101414	0.158794	0.841581
C132	C	1.351414	0.408794	1.091581
C133	C	0.807831	-0.526470	0.526302
C134	C	1.057831	-0.276470	0.776302
C135	C	1.307831	-0.026470	1.026302
C136	C	1.557831	0.223530	1.276302
C137	C	0.807805	-0.402942	0.403137
C138	C	1.057805	-0.152942	0.653137
C139	C	1.307805	0.097058	0.903137
C140	C	1.557805	0.347058	1.153137
C141	C	1.142387	-1.018844	0.464778
C142	C	1.392387	-0.768844	0.714778
C143	C	1.642387	-0.518844	0.964778
C144	C	1.892387	-0.268844	1.214778
C145	C	1.142339	-0.909612	0.464747
C146	C	1.392339	-0.659612	0.714747
C147	C	1.642339	-0.409612	0.964747
C148	C	1.892339	-0.159612	1.214747
C149	C	1.348482	-0.464754	0.464748
C150	C	1.598482	-0.214754	0.714748
C151	C	1.848482	0.035246	0.964748
C152	C	2.098482	0.285246	1.214748
C153	C	1.436339	-0.464768	0.464758
C154	C	1.686339	-0.214768	0.714758
C155	C	1.936339	0.035232	0.964758
C156	C	2.186339	0.285232	1.214758
C157	C	1.142363	-0.464640	0.716318
C158	C	1.392363	-0.214640	0.966318
C159	C	1.642363	0.035360	1.216318
C160	C	1.892363	0.285360	1.466318
C161	C	1.142383	-0.464605	0.823532
C162	C	1.392383	-0.214605	1.073532
C163	C	1.642383	0.035395	1.323532
C164	C	1.892383	0.285395	1.573532
C165	C	1.142394	-0.213128	0.464774
C166	C	1.392394	0.036872	0.714774
C167	C	1.642394	0.286872	0.964774
C168	C	1.892394	0.536872	1.214774
C169	C	1.142428	-0.105914	0.464795
C170	C	1.392428	0.144086	0.714795
C171	C	1.642428	0.394086	0.964795
C172	C	1.892428	0.644086	1.214795
C173	C	1.142312	-0.464732	0.214111
C174	C	1.392312	-0.214732	0.464111
C175	C	1.642312	0.035268	0.714111
C176	C	1.892312	0.285268	0.964111
C177	C	1.142444	-0.464495	0.106898
C178	C	1.392444	-0.214495	0.356898
C179	C	1.642444	0.035505	0.606898
C180	C	1.892444	0.285505	0.856898
C181	C	1.142399	-0.464578	0.910602
C182	C	1.392399	-0.214578	1.160602
C183	C	1.642399	0.035422	1.410602
C184	C	1.892399	0.285422	1.660602
C185	C	1.142422	-0.464535	1.019835
C186	C	1.392422	-0.214535	1.269835
C187	C	1.642422	0.035465	1.519835
C188	C	1.892422	0.285465	1.769835
H189	H	0.841394	-0.352634	0.352992
H190	H	1.091394	-0.102634	0.602992
H191	H	1.341394	0.147366	0.852992
H192	H	1.591394	0.397366	1.102992
Br193	Br	0.863864	-0.610296	0.609855
Br194	Br	1.113864	-0.360296	0.859855
Br195	Br	1.363864	-0.110296	1.109855
Br196	Br	1.613864	0.139704	1.359855
H197	H	0.717567	-0.290900	0.291423
H198	H	0.967567	-0.040900	0.541423
H199	H	1.217567	0.209100	0.791423
H200	H	1.467567	0.459100	1.041423
H201	H	0.567789	-0.290921	0.291448
H202	H	0.817789	-0.040921	0.541448
H203	H	1.067789	0.209079	0.791448
H204	H	1.317789	0.459079	1.041448
Br205	Br	0.421567	-0.319168	0.319615
Br206	Br	0.671567	-0.069168	0.569615
Br207	Br	0.921567	0.180832	0.819615
Br208	Br	1.171567	0.430832	1.069615
H209	H	0.444034	-0.576821	0.576468
H210	H	0.694034	-0.326821	0.826468
H211	H	0.944034	-0.076821	1.076468
H212	H	1.194034	0.173179	1.326468
Br213	Br	0.545472	-0.672136	0.671437
Br214	Br	0.795472	-0.422136	0.921437
Br215	Br	1.045472	-0.172136	1.171437
Br216	Br	1.295472	0.077864	1.421437
Br217	Br	0.740050	-0.672085	0.671462
Br218	Br	0.990050	-0.422085	0.921462
Br219	Br	1.240050	-0.172085	1.171462
Br220	Br	1.490050	0.077915	1.421462
