data_functionalizedCrystal
_audit_creation_method	'MofGen! by Chris Wilmer'
_symmetry_space_group_name_H-M	'P1'
_symmetry_Int_Tables_number	1
_symmetry_cell_setting	triclinic
loop_
_symmetry_equiv_pos_as_xyz
  x,y,z
_cell_length_a	12.645331
_cell_length_b	15.297327
_cell_length_c	12.645324
_cell_angle_alpha	99.640226
_cell_angle_beta	89.977038
_cell_angle_gamma	99.705957
loop_
_atom_site_label
_atom_site_type_symbol
_atom_site_fract_x
_atom_site_fract_y
_atom_site_fract_z
Zn1	Zn	1.547646	-0.359112	-0.672400
Zn2	Zn	1.516816	-0.510003	-0.525794
Zn3	Zn	1.370349	-0.359161	-0.495155
Zn4	Zn	1.339648	-0.509926	-0.702994
O5	O	1.443615	-0.434551	-0.599086
O6	O	1.691901	-0.379140	-0.652972
O7	O	1.497334	-0.490046	-0.373393
O8	O	1.419619	-0.232911	-0.493041
O9	O	1.669251	-0.489999	-0.545261
O10	O	1.549878	-0.232875	-0.623262
O11	O	1.389725	-0.379223	-0.350882
O12	O	1.217932	-0.379148	-0.522706
O13	O	1.367292	-0.489868	-0.847272
O14	O	1.195375	-0.489915	-0.675404
O15	O	1.520108	-0.379066	-0.824795
O16	O	1.467563	-0.636237	-0.574926
O17	O	1.337398	-0.636180	-0.705114
C18	C	1.395833	-0.668942	-0.646688
C19	C	1.375488	-0.769215	-0.667088
C20	C	1.168189	-0.434529	-0.599051
C21	C	1.050357	-0.434542	-0.599065
C22	C	1.589456	-1.051863	-0.453647
C23	C	1.608570	-0.957651	-0.434475
C24	C	1.550302	-0.910537	-0.492626
C25	C	1.472915	-0.957645	-0.569953
C26	C	1.453793	-1.051866	-0.589121
C27	C	1.414639	-0.910541	-0.628101
C28	C	1.337252	-0.957649	-0.705428
C29	C	1.318135	-1.051861	-0.724593
C30	C	1.376403	-1.098974	-0.666441
C31	C	1.433761	-0.816320	-0.608933
C32	C	1.298098	-0.816323	-0.744407
C33	C	1.278984	-0.910535	-0.763579
C34	C	0.897013	-0.364538	-0.503389
C35	C	1.019536	-0.364719	-0.503067
C36	C	0.986494	-0.529580	-0.587858
C37	C	0.863973	-0.529197	-0.587224
C38	C	0.888119	-0.410412	-0.706447
C39	C	1.011157	-0.408289	-0.705392
C40	C	1.720115	-0.434573	-0.599122
C41	C	1.837944	-0.434582	-0.599137
C42	C	1.443714	-0.434453	-0.875571
C43	C	1.443756	-0.434411	-0.993393
C44	C	1.491612	-0.199244	-0.551321
C45	C	1.512066	-0.098970	-0.530967
C46	C	1.540171	-0.364907	-1.146858
C47	C	1.539958	-0.364656	-1.024247
C48	C	1.337333	-0.408574	-1.032622
C49	C	1.337940	-0.408047	-1.155114
C50	C	1.452839	-0.529852	-1.179980
C51	C	1.455380	-0.529372	-1.057277
C52	C	1.443590	-0.434583	-0.323663
C53	C	1.443805	-0.434371	-0.205790
H54	H	1.565868	-0.833825	-0.477011
N55	N	1.553506	-0.553808	-1.025753
N56	N	1.551579	-0.623365	-0.985618
H57	H	1.620884	-0.640615	-0.963344
N58	N	1.052212	-0.384756	-0.402821
N59	N	1.120108	-0.329397	-0.343316
H60	H	1.143186	-0.343550	-0.272513
H61	H	1.535505	-0.293925	-0.980565
N62	N	1.065498	-0.320548	-0.716443
N63	N	1.012987	-0.258987	-0.721421
H64	H	1.051368	-0.197017	-0.729220
N65	N	1.239076	-1.099994	-0.803559
N66	N	1.160860	-1.152636	-0.776903
H67	H	1.105022	-1.186630	-0.832672
N68	N	1.245855	-0.470074	-1.008505
N69	N	1.175302	-0.441969	-0.949292
H70	H	1.110696	-0.485404	-0.932255
H71	H	1.215975	-0.948904	-0.826539
N72	N	0.878084	-0.275866	-0.509112
N73	N	0.820834	-0.263256	-0.583820
H74	H	0.807455	-0.200630	-0.587861
N75	N	1.687604	-0.909520	-0.355494
N76	N	1.765818	-0.856858	-0.382117
H77	H	1.821632	-0.822859	-0.326327
H78	H	1.328014	-0.338251	-1.169544
N79	N	1.324137	-0.321991	-0.976525
N80	N	1.392949	-0.279164	-0.907637
H81	H	1.383636	-0.218013	-0.868018
H82	H	1.636883	-1.090231	-0.406302
H83	H	1.619479	-0.380836	-0.997463
N84	N	1.246092	-0.468737	-1.204626
N85	N	1.181745	-0.511343	-1.148685
H86	H	1.116868	-0.554194	-1.183646
N87	N	1.640322	-0.384956	-1.187934
N88	N	1.641850	-0.450671	-1.261125
H89	H	1.712584	-0.464833	-1.290142
H90	H	1.535880	-0.294567	-1.163392
H91	H	1.012905	-0.550427	-0.510935
H92	H	1.250649	-0.777964	-0.791757
N93	N	1.356904	-1.195212	-0.686025
N94	N	1.408951	-1.237261	-0.634107
H95	H	1.395186	-1.305230	-0.647939
H96	H	1.063980	-0.294245	-0.507877
N97	N	0.854260	-0.384338	-0.403706
N98	N	0.757044	-0.384122	-0.385976
H99	H	0.726844	-0.398108	-0.315577
H100	H	0.831155	-0.549693	-0.509349
N101	N	1.547270	-0.559313	-1.224757
N102	N	1.637702	-0.514135	-1.196779
H103	H	1.704401	-0.534931	-1.228401
H104	H	1.388742	-0.583913	-1.037704
N105	N	1.364483	-0.594772	-1.229526
N106	N	1.295106	-0.570946	-1.283634
H107	H	1.232702	-0.616788	-1.318629
N108	N	0.813016	-0.596890	-0.672207
N109	N	0.867973	-0.644268	-0.731790
H110	H	0.831989	-0.692080	-0.791804
H111	H	1.496769	-0.777973	-0.545973
N112	N	1.037462	-0.467672	-0.797705
N113	N	1.085742	-0.530590	-0.786583
H114	H	1.104286	-0.572556	-0.851776
H115	H	1.004758	-0.583163	-0.656253
H116	H	0.848757	-0.461429	-0.777550
N117	N	0.866734	-0.324999	-0.723927
N118	N	0.772027	-0.312744	-0.732127
H119	H	0.756922	-0.252419	-0.744463
