data_functionalizedCrystal
_audit_creation_method	'MofGen! by Chris Wilmer'
_symmetry_space_group_name_H-M	'P1'
_symmetry_Int_Tables_number	1
_symmetry_cell_setting	triclinic
loop_
_symmetry_equiv_pos_as_xyz
  x,y,z
_cell_length_a	16.625548
_cell_length_b	19.805405
_cell_length_c	19.805399
_cell_angle_alpha	90.030709
_cell_angle_beta	89.984078
_cell_angle_gamma	89.972522
loop_
_atom_site_label
_atom_site_type_symbol
_atom_site_fract_x
_atom_site_fract_y
_atom_site_fract_z
Zn1	Zn	1.232621	0.269450	-0.382694
Zn2	Zn	1.232526	0.382641	-0.269502
Zn3	Zn	1.097794	0.269474	-0.269521
Zn4	Zn	1.097744	0.382605	-0.382651
O5	O	1.165172	0.326042	-0.326092
O6	O	1.345441	0.284471	-0.367689
O7	O	1.214635	0.367655	-0.174788
O8	O	1.115740	0.174754	-0.284559
O9	O	1.345371	0.367632	-0.284528
O10	O	1.214797	0.174737	-0.367707
O11	O	1.115648	0.284511	-0.174802
O12	O	0.984955	0.284475	-0.284517
O13	O	1.115655	0.367569	-0.477373
O14	O	0.984919	0.367592	-0.367634
O15	O	1.214749	0.284435	-0.477405
O16	O	1.214587	0.477353	-0.284486
O17	O	1.115563	0.477326	-0.367616
C18	C	1.165081	0.501899	-0.326059
C19	C	1.165116	0.577131	-0.326068
C20	C	0.955681	0.326033	-0.326073
C21	C	0.866060	0.326045	-0.326081
C22	C	1.165207	0.325996	-0.502635
C23	C	1.165222	0.325976	-0.577867
C24	C	0.537884	0.326049	-0.326110
C25	C	0.629192	0.326046	-0.326100
C26	C	0.701969	0.326048	-0.326095
C27	C	0.793283	0.326044	-0.326086
C28	C	1.375480	0.326053	-0.326111
C29	C	1.465102	0.326057	-0.326120
C30	C	1.165285	0.149500	-0.326140
C31	C	1.165333	0.074268	-0.326160
C32	C	1.216727	0.612466	-0.282828
C33	C	1.216762	0.683155	-0.282843
C34	C	1.165180	0.718506	-0.326095
C35	C	1.113566	0.683165	-0.369340
C36	C	1.113536	0.612478	-0.369328
C37	C	1.113685	0.968239	-0.369390
C38	C	1.113716	1.038931	-0.369398
C39	C	1.216910	1.038915	-0.282905
C40	C	1.216881	0.968228	-0.282893
C41	C	1.165270	0.932893	-0.326140
C42	C	1.165235	0.856245	-0.326124
C43	C	1.165210	0.795153	-0.326108
C44	C	1.113694	0.282678	-0.613218
C45	C	1.113705	0.282665	-0.683906
C46	C	1.165249	0.325946	-0.719243
C47	C	1.216779	0.369248	-0.683887
C48	C	1.216763	0.369264	-0.613200
C49	C	1.216843	0.369185	-0.968961
C50	C	1.216856	0.369164	-1.039653
C51	C	1.113785	0.282586	-1.039667
C52	C	1.113769	0.282602	-0.968979
C53	C	1.165296	0.325906	-0.933630
C54	C	1.165282	0.325921	-0.856982
C55	C	1.165267	0.325929	-0.795890
C56	C	1.165183	0.326040	-0.150236
C57	C	1.165324	0.325870	-0.075005
H58	H	1.258728	0.583688	-0.247604
H59	H	1.071570	0.711954	-0.404560
H60	H	1.258789	0.711922	-0.247631
N61	N	1.272416	0.415887	-0.930837
H62	H	1.305073	0.443300	-0.963948
H63	H	1.309740	0.388345	-0.901518
N64	N	1.058195	0.235890	-1.077796
H65	H	1.070745	0.187531	-1.065516
H66	H	1.066048	0.242509	-1.127925
H67	H	1.071510	0.583709	-0.404540
N68	N	1.058108	0.235990	-0.575107
H69	H	1.025467	0.208560	-0.608230
H70	H	1.020768	0.263543	-0.545765
H71	H	1.258937	1.067693	-0.247693
H72	H	1.071713	1.067712	-0.404624
H73	H	1.071743	0.247411	-0.712685
H74	H	1.071800	0.247356	-0.940212
H75	H	1.258743	0.404492	-0.712664
N76	N	1.058015	0.930133	-0.416027
H77	H	1.025340	0.963256	-0.443424
H78	H	1.020711	0.900851	-0.388439
N79	N	1.272452	0.415848	-1.077768
H80	H	1.305090	0.443285	-1.044649
H81	H	1.239612	0.447157	-1.107087
N82	N	1.272342	0.415966	-0.575075
H83	H	1.329962	0.405454	-0.587384
H84	H	1.264444	0.409392	-0.524945
N85	N	1.272517	0.930099	-0.236244
H86	H	1.305222	0.963211	-0.208855
H87	H	1.309794	0.900727	-0.263826
