data_functionalizedCrystal
_audit_creation_method	'MofGen! by Chris Wilmer'
_symmetry_space_group_name_H-M	'P1'
_symmetry_Int_Tables_number	1
_symmetry_cell_setting	triclinic
loop_
_symmetry_equiv_pos_as_xyz
  x,y,z
_cell_length_a	17.699077
_cell_length_b	15.995362
_cell_length_c	16.776229
_cell_angle_alpha	90.001972
_cell_angle_beta	90.005198
_cell_angle_gamma	96.611022
loop_
_atom_site_label
_atom_site_type_symbol
_atom_site_fract_x
_atom_site_fract_y
_atom_site_fract_z
O1	O	1.004260	-0.105857	0.066268
O2	O	1.504260	0.394143	0.566268
O3	O	0.783905	-0.119638	0.066271
O4	O	1.283905	0.380362	0.566271
O5	O	0.900101	0.009152	0.066275
O6	O	1.400101	0.509152	0.566275
O7	O	0.888064	-0.234647	0.066264
O8	O	1.388064	0.265353	0.566264
O9	O	0.900088	0.009152	-0.066301
O10	O	1.400088	0.509152	0.433699
O11	O	0.783892	-0.119638	-0.066306
O12	O	1.283892	0.380362	0.433694
O13	O	1.004247	-0.105857	-0.066308
O14	O	1.504247	0.394143	0.433692
Zn15	Zn	0.894067	-0.112747	-0.087356
Zn16	Zn	1.394067	0.387253	0.412644
Zn17	Zn	0.894085	-0.112748	0.087319
Zn18	Zn	1.394085	0.387252	0.587319
O19	O	0.888051	-0.234646	-0.066313
O20	O	1.388051	0.265354	0.433687
C21	C	0.755700	-0.119145	-0.000017
C22	C	1.255700	0.380855	0.499983
C23	C	0.671680	-0.117666	-0.000015
C24	C	1.171680	0.382334	0.499985
C25	C	0.632204	-0.116969	-0.072284
C26	C	1.132204	0.383031	0.427716
C27	C	0.553259	-0.115566	-0.072284
C28	C	1.053259	0.384434	0.427716
C29	C	0.513790	-0.114866	-0.000016
C30	C	1.013790	0.385134	0.499984
C31	C	0.553272	-0.115561	0.072258
C32	C	1.053272	0.384439	0.572258
C33	C	0.632216	-0.116958	0.072258
C34	C	1.132216	0.383042	0.572258
C35	C	0.234899	-0.109926	0.072259
C36	C	0.734899	0.390074	0.572259
C37	C	0.155949	-0.108532	0.072254
C38	C	0.655949	0.391468	0.572254
C39	C	0.155942	-0.108535	-0.072283
C40	C	0.655942	0.391465	0.427717
C41	C	0.234886	-0.109931	-0.072283
C42	C	0.734886	0.390069	0.427717
C43	C	0.274361	-0.110621	-0.000009
C44	C	0.774361	0.389379	0.499991
C45	C	0.359962	-0.112141	-0.000009
C46	C	0.859962	0.387859	0.499991
C47	C	0.428190	-0.113353	-0.000015
C48	C	0.928190	0.386647	0.499985
C49	C	0.899596	0.040346	-0.000010
C50	C	1.399596	0.540346	0.499990
C51	C	0.898099	0.133292	-0.000001
C52	C	1.398099	0.633292	0.499999
C53	C	0.892723	0.471027	0.000015
C54	C	1.392723	0.971027	0.500015
C55	C	0.809968	0.423423	0.000311
C56	C	1.309968	0.923423	0.500311
C57	C	0.811465	0.326736	0.000007
C58	C	1.311465	0.826736	0.500007
C59	C	0.895389	0.303473	0.000007
C60	C	1.395389	0.803473	0.500007
C61	C	0.936199	0.344634	-0.075697
C62	C	1.436199	0.844634	0.424303
C63	C	0.934116	0.441265	-0.075756
C64	C	1.434116	0.941265	0.424244
C65	C	0.935841	0.441626	0.075009
C66	C	1.435841	0.941626	0.575009
C67	C	0.935825	0.344682	0.076004
C68	C	1.435825	0.844682	0.576004
C69	C	0.896901	0.208779	0.000001
C70	C	1.396901	0.708779	0.500001
C71	C	0.891214	0.565721	0.000016
C72	C	1.391214	1.065721	0.500016
C73	C	1.032452	-0.106350	-0.000019
C74	C	1.532452	0.393650	0.499981
C75	C	1.116473	-0.107829	-0.000015
C76	C	1.616473	0.392171	0.499985
N77	N	0.894061	-0.112746	-0.206568
N78	N	1.394061	0.387254	0.293432
C79	C	0.888547	0.734158	-0.000013
C80	C	1.388547	1.234158	0.499987
C81	C	0.890014	0.641207	0.000023
C82	C	1.390014	1.141207	0.500023
C83	C	0.939963	-0.163466	-0.248284
C84	C	1.439963	0.336534	0.251716
C85	C	0.939971	-0.163463	-0.331736
C86	C	1.439971	0.336537	0.168264
C87	C	0.894073	-0.112744	-0.373471
C88	C	1.394073	0.387256	0.126529
C89	C	0.848170	-0.062018	-0.331748
C90	C	1.348170	0.437982	0.168252
C91	C	0.848166	-0.062017	-0.248297
C92	C	1.348166	0.437983	0.251703
C93	C	0.848185	-0.062019	-0.668295
C94	C	1.348185	0.437981	-0.168295
C95	C	0.848191	-0.062026	-0.751752
C96	C	1.348191	0.437974	-0.251752
C97	C	0.939990	-0.163465	-0.751734
C98	C	1.439990	0.336535	-0.251734
C99	C	0.939986	-0.163464	-0.668284
C100	C	1.439986	0.336536	-0.168284
C101	C	0.894086	-0.112735	-0.626568
C102	C	1.394086	0.387265	-0.126568
C103	C	0.894079	-0.112738	-0.536080
C104	C	1.394079	0.387262	-0.036080
C105	C	0.894076	-0.112745	-0.463957
C106	C	1.394076	0.387255	0.036043
N107	N	0.894097	-0.112742	0.206530
N108	N	1.394097	0.387258	0.706530
H109	H	0.267031	-0.110485	0.131109
H110	H	0.767031	0.389515	0.631109
H111	H	0.521123	-0.114985	-0.131133
H112	H	1.021123	0.385015	0.368867
H113	H	0.994873	0.473638	-0.079187
H114	H	1.494873	0.973638	0.420813
O115	O	0.277456	-0.110705	-0.150228
O116	O	0.777456	0.389295	0.349772
H117	H	0.236742	-0.109984	-0.200483
H118	H	0.736742	0.390016	0.299517
O119	O	0.798672	-0.007311	-0.376766
O120	O	1.298672	0.492689	0.123234
H121	H	0.815150	0.059636	-0.360753
H122	H	1.315150	0.559636	0.139247
O123	O	1.016896	0.324506	0.082060
O124	O	1.516896	0.824506	0.582060
H125	H	1.043739	0.354528	0.136310
H126	H	1.543739	0.854528	0.636310
O127	O	0.768677	0.289734	-0.072005
O128	O	1.268677	0.789734	0.427995
H129	H	0.769591	0.220468	-0.072470
H130	H	1.269591	0.720468	0.427530
O131	O	0.674766	-0.117729	-0.150235
O132	O	1.174766	0.382271	0.349765
H133	H	0.736292	-0.118827	-0.138097
H134	H	1.236292	0.381173	0.361903
O135	O	0.989479	-0.218172	-0.376727
O136	O	1.489479	0.281828	0.123273
H137	H	0.981781	-0.209646	-0.441767
H138	H	1.481781	0.290354	0.058233
O139	O	0.989488	-0.218169	-0.623268
O140	O	1.489488	0.281831	-0.123268
H141	H	1.021413	-0.253434	-0.666297
H142	H	1.521413	0.246566	-0.166297
O143	O	0.113322	-0.108176	-0.150239
O144	O	0.613322	0.391824	0.349761
H145	H	0.051780	-0.107222	-0.138102
H146	H	0.551780	0.392778	0.361898
H147	H	0.777032	0.442949	-0.053676
H148	H	1.277032	0.942949	0.446324
H149	H	0.664356	-0.117527	0.131106
H150	H	1.164356	0.382473	0.631106
H151	H	0.779386	0.298248	0.054275
H152	H	1.279386	0.798248	0.554275
H153	H	0.521131	-0.114985	0.131100
H154	H	1.021131	0.385015	0.631100
O155	O	0.113378	-0.107748	0.150203
O156	O	0.613378	0.392252	0.650203
H157	H	0.154091	-0.108446	0.200460
H158	H	0.654091	0.391554	0.700460
H159	H	0.977333	-0.204773	-0.214310
H160	H	1.477333	0.295227	0.285690
O161	O	0.896359	0.308437	0.150193
O162	O	1.396359	0.808437	0.650193
H163	H	0.925271	0.337883	0.203637
H164	H	1.425271	0.837883	0.703637
H165	H	0.997855	0.330635	-0.078512
H166	H	1.497855	0.830635	0.421488
H167	H	0.776896	0.441886	0.054602
H168	H	1.276896	0.941886	0.554602
H169	H	0.977366	-0.204769	-0.785709
H170	H	1.477366	0.295231	-0.285709
H171	H	0.810814	-0.020721	-0.785729
H172	H	1.310814	0.479279	-0.285729
O173	O	0.894674	0.465436	-0.150711
O174	O	1.394674	0.965436	0.349289
H175	H	0.877261	0.408133	-0.186574
H176	H	1.377261	0.908133	0.313426
H177	H	0.907844	0.316195	-0.132039
H178	H	1.407844	0.816195	0.367961
H179	H	0.908788	0.462110	0.132391
H180	H	1.408788	0.962110	0.632391
O181	O	1.016663	0.483857	0.075700
O182	O	1.516663	0.983857	0.575700
H183	H	1.016273	0.553156	0.077984
H184	H	1.516273	1.053156	0.577984
O185	O	0.798673	-0.007317	-0.623306
O186	O	1.298673	0.492683	-0.123306
H187	H	0.766752	0.027940	-0.666349
H188	H	1.266752	0.527940	-0.166349
H189	H	0.810788	-0.020716	-0.214333
H190	H	1.310788	0.479284	0.285667
