data_functionalizedCrystal
_audit_creation_method	'MofGen! by Chris Wilmer'
_symmetry_space_group_name_H-M	'P1'
_symmetry_Int_Tables_number	1
_symmetry_cell_setting	triclinic
loop_
_symmetry_equiv_pos_as_xyz
  x,y,z
_cell_length_a	15.944551
_cell_length_b	19.288865
_cell_length_c	18.366186
_cell_angle_alpha	89.989632
_cell_angle_beta	89.995406
_cell_angle_gamma	83.317493
loop_
_atom_site_label
_atom_site_type_symbol
_atom_site_fract_x
_atom_site_fract_y
_atom_site_fract_z
O1	O	-1.114185	-0.089582	0.060482
O2	O	-0.614185	0.410418	0.560482
O3	O	-0.869593	-0.100627	0.060501
O4	O	-0.369593	0.399373	0.560501
O5	O	-0.998956	0.006007	0.060477
O6	O	-0.498956	0.506007	0.560477
O7	O	-0.984821	-0.196216	0.060507
O8	O	-0.484821	0.303784	0.560507
O9	O	-0.998934	0.006010	-0.060622
O10	O	-0.498934	0.506010	0.439378
O11	O	-0.869570	-0.100624	-0.060598
O12	O	-0.369570	0.399376	0.439402
O13	O	-1.114162	-0.089579	-0.060617
O14	O	-0.614162	0.410421	0.439383
Zn15	Zn	-0.991863	-0.095101	-0.079835
Zn16	Zn	-0.491863	0.404899	0.420165
Zn17	Zn	-0.991892	-0.095105	0.079719
Zn18	Zn	-0.491892	0.404895	0.579719
O19	O	-0.984799	-0.196213	-0.060593
O20	O	-0.484799	0.303787	0.439407
C21	C	-0.838289	-0.100167	-0.000046
C22	C	-0.338289	0.399833	0.499954
C23	C	-0.745048	-0.098792	-0.000039
C24	C	-0.245048	0.401208	0.499961
C25	C	-0.998490	0.031887	-0.000075
C26	C	-0.498490	0.531887	0.499925
C27	C	-0.997125	0.108994	-0.000081
C28	C	-0.497125	0.608994	0.499919
C29	C	-1.145466	-0.090039	-0.000068
C30	C	-0.645466	0.409961	0.499932
C31	C	-1.238706	-0.091414	-0.000070
C32	C	-0.738706	0.408586	0.499930
C33	C	-0.530459	-0.029410	-0.000064
C34	C	-0.030459	0.470590	0.499936
C35	C	-0.469326	-0.061630	0.059649
C36	C	0.030674	0.438370	0.559649
C37	C	-0.574332	-0.096305	-0.000048
C38	C	-0.074332	0.403695	0.499952
C39	C	-0.469326	-0.061643	-0.059745
C40	C	0.030674	0.438357	0.440255
C41	C	-0.409429	-0.093898	-0.000060
C42	C	0.090571	0.406102	0.499940
C43	C	-0.514427	-0.128544	0.059714
C44	C	-0.014427	0.371456	0.559714
C45	C	-0.514434	-0.128547	-0.059734
C46	C	-0.014434	0.371453	0.440266
C47	C	-0.453318	-0.160816	-0.000006
C48	C	0.046682	0.339184	0.499994
C49	C	-0.669329	-0.097690	-0.000041
C50	C	-0.169329	0.402310	0.499959
C51	C	-0.314433	-0.092519	-0.000062
C52	C	0.185567	0.407481	0.499938
C53	C	-0.985265	-0.222092	-0.000039
C54	C	-0.485265	0.277908	0.499961
C55	C	-0.986630	-0.299199	-0.000028
C56	C	-0.486630	0.200801	0.499972
N57	N	-0.991849	-0.095098	-0.188726
N58	N	-0.491849	0.404902	0.311274
C59	C	-1.073030	0.153490	-0.000091
C60	C	-0.573030	0.653490	0.499909
C61	C	-1.071747	0.225941	-0.000079
C62	C	-0.571747	0.725941	0.499921
C63	C	-0.994555	0.253891	-0.000073
C64	C	-0.494555	0.753891	0.499927
C65	C	-0.918641	0.209385	-0.000059
C66	C	-0.418641	0.709385	0.499941
C67	C	-0.919925	0.136936	-0.000063
C68	C	-0.419925	0.636936	0.499937
C69	C	-0.933866	0.362340	-0.042486
C70	C	-0.433866	0.862340	0.457514
C71	C	-0.932584	0.434788	-0.042486
C72	C	-0.432584	0.934788	0.457514
C73	C	-0.990589	0.477347	-0.000056
C74	C	-0.490589	0.977347	0.499944
C75	C	-1.049890	0.447452	0.042365
C76	C	-0.549890	0.947452	0.542365
C77	C	-1.051175	0.375003	0.042361
C78	C	-0.551175	0.875003	0.542361
C79	C	-0.993153	0.332449	-0.000067
C80	C	-0.493153	0.832449	0.499933
C81	C	-1.065108	0.600404	-0.000052
C82	C	-0.565108	1.100404	0.499948
C83	C	-1.063822	0.672855	-0.000036
C84	C	-0.563822	1.172855	0.499964
C85	C	-0.910714	0.656298	-0.000023
C86	C	-0.410714	1.156298	0.499977
C87	C	-0.912002	0.583848	-0.000032
C88	C	-0.412002	1.083848	0.499968
C89	C	-0.989201	0.555906	-0.000050
C90	C	-0.489201	1.055906	0.499950
C91	C	-1.042624	-0.137255	-0.226818
C92	C	-0.542624	0.362745	0.273182
C93	C	-1.042638	-0.137253	-0.303046
C94	C	-0.542638	0.362747	0.196954
C95	C	-0.991861	-0.095102	-0.341178
C96	C	-0.491861	0.404898	0.158822
C97	C	-0.941082	-0.052936	-0.303077
C98	C	-0.441082	0.447064	0.196923
C99	C	-0.941076	-0.052934	-0.226851
C100	C	-0.441076	0.447066	0.273149
C101	C	-0.916145	-0.093146	-0.461954
C102	C	-0.416145	0.406854	0.038046
C103	C	-0.916149	-0.093153	-0.538179
C104	C	-0.416149	0.406847	-0.038179
C105	C	-0.991879	-0.095104	-0.576286
C106	C	-0.491879	0.404896	-0.076286
C107	C	-1.067607	-0.097063	-0.538159
C108	C	-0.567607	0.402937	-0.038159
C109	C	-1.067601	-0.097061	-0.461932
C110	C	-0.567601	0.402939	0.038068
C111	C	-0.991862	-0.095099	-0.423833
C112	C	-0.491862	0.404901	0.076167
C113	C	-1.042674	-0.137262	-0.697033
C114	C	-0.542674	0.362738	-0.197033
C115	C	-1.042689	-0.137255	-0.773262
C116	C	-0.542689	0.362745	-0.273262
C117	C	-0.941126	-0.052942	-0.773292
C118	C	-0.441126	0.447058	-0.273292
C119	C	-0.941118	-0.052944	-0.697065
C120	C	-0.441118	0.447056	-0.197065
C121	C	-0.991891	-0.095108	-0.658939
C122	C	-0.491891	0.404892	-0.158939
N123	N	-0.991913	-0.095102	0.188610
N124	N	-0.491913	0.404898	0.688610
H125	H	-0.564006	0.026108	0.000002
H126	H	-0.064006	0.526108	0.500002
C127	C	-1.098525	-0.183632	-0.655089
C128	C	-0.598525	0.316368	-0.155089
H129	H	-1.091241	-0.177601	-0.604235
H130	H	-0.591241	0.322399	-0.104235
H131	H	-1.156045	-0.170758	-0.667573
H132	H	-0.656045	0.329242	-0.167573
H133	H	-1.082732	-0.231152	-0.667575
H134	H	-0.582732	0.268848	-0.167575
C135	C	-0.541478	-0.166739	-0.127920
C136	C	-0.041478	0.333261	0.372080
H137	H	-0.567859	-0.206278	-0.113574
H138	H	-0.067859	0.293722	0.386426
H139	H	-0.580080	-0.136028	-0.155551
H140	H	-0.080080	0.363972	0.344449
H141	H	-0.493173	-0.181481	-0.156700
H142	H	0.006827	0.318519	0.343300
H143	H	-1.125636	0.709084	-0.000039
H144	H	-0.625636	1.209084	0.499961
C145	C	-0.541284	-0.166736	0.127991
C146	C	-0.041284	0.333264	0.627991
H147	H	-0.492839	-0.181824	0.156467
H148	H	0.007161	0.318176	0.656467
H149	H	-0.579443	-0.135906	0.155897
H150	H	-0.079443	0.364094	0.655897
H151	H	-0.568128	-0.206049	0.113726
H152	H	-0.068128	0.293951	0.613726
H153	H	-1.084043	-0.171583	-0.804275
H154	H	-0.584043	0.328417	-0.304275
C155	C	-0.442309	-0.023411	0.127833
C156	C	0.057691	0.476589	0.627833
H157	H	-0.468989	0.023270	0.127754
H158	H	0.031011	0.523270	0.627754
H159	H	-0.458507	-0.046725	0.170238
H160	H	0.041493	0.453275	0.670238
H161	H	-0.382761	-0.023185	0.127560
H162	H	0.117239	0.476815	0.627560
C163	C	-0.832859	-0.090969	-0.580112
C164	C	-0.332859	0.409031	-0.080112
H165	H	-0.787759	-0.089784	-0.546502
H166	H	-0.287759	0.410216	-0.046502
H167	H	-0.822486	-0.131344	-0.609851
H168	H	-0.322486	0.368656	-0.109851
H169	H	-0.836943	-0.050409	-0.609846
H170	H	-0.336943	0.449591	-0.109846
C171	C	-0.832840	-0.090987	-0.420040
C172	C	-0.332840	0.409013	0.079960
H173	H	-0.843683	-0.091256	-0.369183
H174	H	-0.343683	0.408744	0.130817
H175	H	-0.794519	-0.130647	-0.432524
H176	H	-0.294519	0.369353	0.067476
H177	H	-0.808935	-0.049711	-0.432550
H178	H	-0.308935	0.450289	0.067450
C179	C	-0.442328	-0.023407	-0.127942
C180	C	0.057672	0.476593	0.372058
H181	H	-0.469024	0.023269	-0.127870
H182	H	0.030976	0.523269	0.372130
H183	H	-0.382784	-0.023178	-0.127691
H184	H	0.117216	0.476822	0.372309
H185	H	-0.458539	-0.046715	-0.170340
H186	H	0.041461	0.453285	0.329660
H187	H	-0.899740	-0.018615	-0.334130
H188	H	-0.399740	0.481385	0.165870
H189	H	-1.097123	0.482103	0.076917
H190	H	-0.597123	0.982103	0.576917
H191	H	-0.855790	0.232147	-0.000052
H192	H	-0.355790	0.732147	0.499948
C193	C	-0.408226	-0.235889	0.000049
C194	C	0.091774	0.264111	0.500049
H195	H	-0.423653	-0.259538	0.042505
H196	H	0.076347	0.240462	0.542505
H197	H	-0.424352	-0.259826	-0.041960
H198	H	0.075648	0.240174	0.458040
H199	H	-0.348845	-0.234614	-0.000349
H200	H	0.151155	0.265386	0.499651
H201	H	-1.135891	0.130744	-0.000103
H202	H	-0.635891	0.630744	0.499897
H203	H	-1.099458	0.350666	0.076903
H204	H	-0.599458	0.850666	0.576903
H205	H	-1.129262	-0.098655	-0.430892
H206	H	-0.629262	0.401345	0.069108
C207	C	-1.155245	0.274895	-0.000095
C208	C	-0.655245	0.774895	0.499905
H209	H	-1.201405	0.247877	-0.000110
H210	H	-0.701405	0.747877	0.499890
H211	H	-1.157939	0.303497	0.042134
H212	H	-0.657939	0.803497	0.542134
H213	H	-1.157908	0.303506	-0.042331
H214	H	-0.657908	0.803506	0.457669
C215	C	-0.885202	-0.006577	-0.184945
C216	C	-0.385202	0.493423	0.315055
H217	H	-0.892468	-0.012616	-0.134086
H218	H	-0.392468	0.487384	0.365914
H219	H	-0.827689	-0.019461	-0.197450
H220	H	-0.327689	0.480539	0.302550
H221	H	-0.900985	0.040947	-0.197436
H222	H	-0.400985	0.540947	0.302564
H223	H	-1.127969	0.577652	-0.000063
H224	H	-0.627969	1.077652	0.499937
H225	H	-0.899783	-0.018620	-0.804340
H226	H	-0.399783	0.481380	-0.304340
C227	C	-0.825804	0.687035	-0.000013
C228	C	-0.325804	1.187035	0.499987
H229	H	-0.835909	0.736557	-0.000015
H230	H	-0.335909	1.236557	0.499985
H231	H	-0.794569	0.671750	0.042218
H232	H	-0.294569	1.171750	0.542218
H233	H	-0.794554	0.671771	-0.042247
H234	H	-0.294554	1.171771	0.457753
C235	C	-0.828506	0.534900	-0.000034
C236	C	-0.328506	1.034900	0.499966
H237	H	-0.782348	0.561921	-0.000034
H238	H	-0.282348	1.061921	0.499966
H239	H	-0.825829	0.506282	0.042193
H240	H	-0.325829	1.006282	0.542193
H241	H	-0.825821	0.506306	-0.042272
H242	H	-0.325821	1.006306	0.457728
C243	C	-0.867356	0.467669	-0.089143
C244	C	-0.367356	0.967669	0.410857
H245	H	-0.874904	0.516913	-0.083071
H246	H	-0.374904	1.016913	0.416929
H247	H	-0.811999	0.449785	-0.074216
H248	H	-0.311999	0.949785	0.425784
H249	H	-0.874936	0.456604	-0.138934
H250	H	-0.374936	0.956604	0.361066
H251	H	-0.886629	0.327692	-0.077042
H252	H	-0.386629	0.827692	0.422958
C253	C	-0.836427	0.087988	-0.000060
C254	C	-0.336427	0.587988	0.499940
H255	H	-0.790268	0.115008	-0.000058
H256	H	-0.290268	0.615008	0.499942
H257	H	-0.833753	0.059369	0.042166
H258	H	-0.333753	0.559369	0.542166
H259	H	-0.833740	0.059395	-0.042299
H260	H	-0.333740	0.559395	0.457701
C261	C	-1.098479	-0.183628	-0.184884
C262	C	-0.598479	0.316372	0.315116
H263	H	-1.128726	-0.208731	-0.218492
H264	H	-0.628726	0.291269	0.281508
H265	H	-1.063936	-0.215575	-0.155143
H266	H	-0.563936	0.284425	0.344857
H267	H	-1.137247	-0.155179	-0.155152
H268	H	-0.637247	0.344821	0.344848
H269	H	-1.083985	-0.171585	-0.334066
H270	H	-0.583985	0.328415	0.165934
C271	C	-0.885232	-0.006600	-0.655158
C272	C	-0.385232	0.493400	-0.155158
H273	H	-0.892496	-0.012639	-0.604300
H274	H	-0.392496	0.487361	-0.104300
H275	H	-0.827722	-0.019494	-0.667666
H276	H	-0.327722	0.480506	-0.167666
H277	H	-0.901004	0.040925	-0.667647
H278	H	-0.401004	0.540925	-0.167647
H279	H	-1.129274	-0.098656	-0.569183
H280	H	-0.629274	0.401344	-0.069183
