data_functionalizedCrystal
_audit_creation_method	'MofGen! by Chris Wilmer'
_symmetry_space_group_name_H-M	'P1'
_symmetry_Int_Tables_number	1
_symmetry_cell_setting	triclinic
loop_
_symmetry_equiv_pos_as_xyz
  x,y,z
_cell_length_a	19.805407
_cell_length_b	17.640280
_cell_length_c	19.805399
_cell_angle_alpha	78.776890
_cell_angle_beta	89.980427
_cell_angle_gamma	78.800112
loop_
_atom_site_label
_atom_site_type_symbol
_atom_site_fract_x
_atom_site_fract_y
_atom_site_fract_z
Zn1	Zn	1.089281	-0.314680	-0.328317
Zn2	Zn	1.112106	-0.446853	-0.192279
Zn3	Zn	0.976099	-0.314701	-0.215138
Zn4	Zn	0.998962	-0.446811	-0.305433
O5	O	1.044112	-0.380761	-0.260292
O6	O	1.187026	-0.332221	-0.310282
O7	O	1.094048	-0.429350	-0.100590
O8	O	0.971992	-0.204095	-0.249296
O9	O	1.203796	-0.429329	-0.210335
O10	O	1.055146	-0.204079	-0.332448
O11	O	0.994125	-0.332258	-0.117385
O12	O	0.884414	-0.332218	-0.227105
O13	O	1.010958	-0.429257	-0.403190
O14	O	0.901211	-0.429278	-0.293444
O15	O	1.077315	-0.332180	-0.420003
O16	O	1.116217	-0.557452	-0.188145
O17	O	1.033091	-0.557421	-0.271278
C18	C	0.868253	-0.380746	-0.260272
C19	C	0.793023	-0.380759	-0.260277
C20	C	1.079630	-0.586114	-0.224762
C21	C	1.094887	-0.673965	-0.209586
C22	C	0.766456	-0.431374	-0.294736
C23	C	0.695768	-0.431376	-0.294746
C24	C	0.651649	-0.380765	-0.260291
C25	C	0.678220	-0.330144	-0.225831
C26	C	0.748906	-0.330139	-0.225826
C27	C	0.393149	-0.330161	-0.225850
C28	C	0.322459	-0.330172	-0.225856
C29	C	0.340012	-0.431398	-0.294770
C30	C	0.410698	-0.431393	-0.294765
C31	C	0.437262	-0.380770	-0.260308
C32	C	0.513910	-0.380768	-0.260299
C33	C	0.575003	-0.380770	-0.260295
C34	C	0.928484	-0.962953	-0.375835
C35	C	0.942822	-1.045502	-0.361553
C36	C	1.029435	-1.045469	-0.275073
C37	C	1.015107	-0.962918	-0.289351
C38	C	0.964630	-0.921667	-0.339732
C39	C	1.051253	-0.921632	-0.253247
C40	C	1.036924	-0.839088	-0.267522
C41	C	0.986448	-0.797831	-0.317899
C42	C	0.950301	-0.839123	-0.354006
C43	C	1.101726	-0.962885	-0.202863
C44	C	1.137872	-0.921598	-0.166760
C45	C	1.123546	-0.839053	-0.181037
C46	C	1.073071	-0.797796	-0.231415
C47	C	1.159693	-0.797761	-0.144930
C48	C	1.145364	-0.715217	-0.159204
C49	C	1.058741	-0.715252	-0.245689
C50	C	1.220657	-0.380777	-0.260311
C51	C	1.295890	-0.380784	-0.260320
C52	C	1.044141	-0.380712	-0.436843
C53	C	1.044154	-0.380690	-0.512079
C54	C	1.008473	-0.174606	-0.295974
C55	C	0.993286	-0.086756	-0.311180
C56	C	1.078706	-0.330140	-0.556179
C57	C	1.078709	-0.330117	-0.626872
C58	C	1.044163	-0.380649	-0.653462
C59	C	1.009606	-0.431202	-0.609356
C60	C	1.009600	-0.431220	-0.538666
C61	C	1.009632	-0.431128	-0.894442
C62	C	1.009643	-0.431107	-0.965138
C63	C	1.078741	-0.330025	-0.982648
C64	C	1.078735	-0.330043	-0.911958
C65	C	1.044175	-0.380593	-0.867859
C66	C	1.044171	-0.380616	-0.791206
C67	C	1.044171	-0.380631	-0.730112
C68	C	1.044112	-0.380754	-0.084437
C69	C	1.044192	-0.380553	-0.009240
H70	H	0.674141	-0.472593	-0.322805
H71	H	1.106847	-0.288956	-0.662776
H72	H	1.017643	-0.681663	-0.286719
C73	C	1.147032	-0.230115	-0.936370
C74	C	1.116705	-0.274494	-0.882732
H75	H	1.170468	-0.195816	-0.918327
H76	H	1.178879	-0.264545	-0.957983
H77	H	1.112310	-0.199876	-0.969172
H78	H	1.151428	-0.304738	-0.849932
H79	H	1.084855	-0.240060	-0.861108
C80	C	0.948715	-0.679630	-0.273938
C81	C	0.970695	-0.707096	-0.333592
H82	H	0.938995	-0.623615	-0.283627
H83	H	0.908297	-0.698347	-0.258962
H84	H	0.983954	-0.698293	-0.238772
H85	H	0.935454	-0.688438	-0.368757
H86	H	1.011118	-0.688372	-0.348578
C87	C	0.368689	-0.230101	-0.157732
C88	C	0.422343	-0.274518	-0.187974
H89	H	0.386716	-0.195750	-0.134346
H90	H	0.335909	-0.199923	-0.192490
H91	H	0.347062	-0.264510	-0.125841
H92	H	0.443967	-0.240109	-0.219868
H93	H	0.455135	-0.304698	-0.153212
H94	H	1.178968	-0.955196	-0.125737
C95	C	0.526848	-0.476331	-0.325358
C96	C	0.459194	-0.487024	-0.332641
H97	H	0.556786	-0.510677	-0.348741
H98	H	0.529247	-0.423245	-0.344520
H99	H	0.540396	-0.487832	-0.277873
H100	H	0.445643	-0.475516	-0.380126
H101	H	0.456792	-0.540122	-0.313481
C102	C	1.148464	-1.070810	-0.237828
C103	C	1.084915	-1.090822	-0.219695
H104	H	1.182714	-1.098807	-0.203637
H105	H	1.160679	-1.084310	-0.280974
H106	H	1.145100	-1.015740	-0.241159
H107	H	1.088278	-1.145891	-0.216369
H108	H	1.072698	-1.077327	-0.176536
C109	C	0.239448	-0.476354	-0.325392
C110	C	0.310809	-0.487038	-0.332656
H111	H	0.221422	-0.510701	-0.348783
H112	H	0.229834	-0.487853	-0.277916
H113	H	0.218691	-0.423263	-0.344562
H114	H	0.331566	-0.540128	-0.313481
H115	H	0.320428	-0.475545	-0.380141
C116	C	1.018623	-0.537409	-1.026224
C117	C	0.971666	-0.486657	-0.994364
H118	H	0.995180	-0.571705	-1.044262
H119	H	1.039199	-0.507302	-1.062602
H120	H	1.053331	-0.567650	-0.993408
H121	H	0.936960	-0.456412	-1.027181
H122	H	0.951079	-0.516768	-0.957981
C123	C	0.776698	-0.531429	-0.362865
C124	C	0.814949	-0.487006	-0.332614
H125	H	0.806634	-0.565768	-0.386255
H126	H	0.754340	-0.561619	-0.328113
H127	H	0.743184	-0.497023	-0.394755
H128	H	0.848459	-0.521411	-0.300720
H129	H	0.837318	-0.456813	-0.367370
C130	C	0.241017	-0.319062	-0.136743
C131	C	0.273967	-0.274538	-0.187973
H132	H	0.211086	-0.284719	-0.113352
H133	H	0.215077	-0.349199	-0.157266
H134	H	0.274545	-0.353453	-0.104859
H135	H	0.240440	-0.240150	-0.219859
H136	H	0.299908	-0.244387	-0.167449
C137	C	1.018582	-0.537471	-0.796550
C138	C	0.971644	-0.486696	-0.845980
H139	H	0.995125	-0.571774	-0.766630
H140	H	1.053298	-0.567695	-0.818897
H141	H	1.039145	-0.507375	-0.770593
H142	H	0.951084	-0.516792	-0.871941
H143	H	0.936915	-0.456469	-0.823631
H144	H	0.642291	-0.288932	-0.197781
H145	H	0.770534	-0.288918	-0.197770
H146	H	1.106879	-0.288863	-1.018563
H147	H	0.909202	-0.805534	-0.395037
H148	H	0.981475	-0.472343	-0.631011
H149	H	0.887386	-0.929364	-0.416866
C150	C	0.949468	-1.138298	-0.436541
C151	C	0.903089	-1.090890	-0.401241
H152	H	0.924938	-1.166322	-0.461036
H153	H	0.973337	-1.106057	-0.468036
H154	H	0.981578	-1.174676	-0.404488
H155	H	0.870982	-1.054508	-0.433295
H156	H	0.879210	-1.123134	-0.369743
H157	H	1.113393	-1.030097	-0.191244
C158	C	0.941319	-0.531158	-0.528449
C159	C	0.971632	-0.486800	-0.490185
H160	H	0.917885	-0.565476	-0.498517
H161	H	0.909472	-0.496716	-0.561970
H162	H	0.976047	-0.561376	-0.550800
H163	H	0.936904	-0.456578	-0.467838
H164	H	1.003483	-0.521247	-0.456651
H165	H	1.200787	-0.831360	-0.103905
H166	H	1.174797	-0.681601	-0.129804
C167	C	1.147003	-0.230213	-0.580597
C168	C	1.116679	-0.274591	-0.526956
H169	H	1.170441	-0.195914	-0.562556
H170	H	1.178850	-0.264644	-0.602210
H171	H	1.112281	-0.199975	-0.613398
H172	H	1.151402	-0.304834	-0.494157
H173	H	1.084830	-0.240155	-0.505331
