data_functionalizedCrystal
_audit_creation_method	'MofGen! by Chris Wilmer'
_symmetry_space_group_name_H-M	'P1'
_symmetry_Int_Tables_number	1
_symmetry_cell_setting	triclinic
loop_
_symmetry_equiv_pos_as_xyz
  x,y,z
_cell_length_a	10.686220
_cell_length_b	16.625546
_cell_length_c	10.685314
_cell_angle_alpha	94.331126
_cell_angle_beta	98.357559
_cell_angle_gamma	94.404440
loop_
_atom_site_label
_atom_site_type_symbol
_atom_site_fract_x
_atom_site_fract_y
_atom_site_fract_z
Zn1	Zn	1.885442	-0.256274	-0.568984
Zn2	Zn	2.385442	0.243726	-0.068984
Zn3	Zn	1.901561	-0.379948	-0.356739
Zn4	Zn	2.401561	0.120052	0.143261
Zn5	Zn	1.689452	-0.256341	-0.373019
Zn6	Zn	2.189452	0.243659	0.126981
Zn7	Zn	1.673142	-0.402281	-0.585175
Zn8	Zn	2.173142	0.097719	-0.085175
O9	O	1.787400	-0.323711	-0.470979
O10	O	2.287400	0.176289	0.029021
O11	O	2.065197	-0.263306	-0.527240
O12	O	2.565197	0.236694	-0.027240
O13	O	1.886997	-0.354233	-0.181286
O14	O	2.386997	0.145767	0.318714
O15	O	1.715531	-0.143497	-0.399051
O16	O	2.215531	0.356503	0.100949
O17	O	2.077040	-0.354168	-0.371305
O18	O	2.577040	0.145832	0.128695
O19	O	1.859524	-0.143448	-0.543026
O20	O	2.359524	0.356552	-0.043026
O21	O	1.731161	-0.263419	-0.193246
O22	O	2.231161	0.236581	0.306754
O23	O	1.509672	-0.285074	-0.414751
O24	O	2.009672	0.214926	0.085249
O25	O	1.687732	-0.392231	-0.760640
O26	O	2.187732	0.107769	-0.260640
O27	O	1.497689	-0.392296	-0.570621
O28	O	1.997689	0.107704	-0.070621
O29	O	1.843708	-0.284961	-0.748745
O30	O	2.343708	0.215039	-0.248745
O31	O	1.871181	-0.495745	-0.387004
O32	O	2.371181	0.004255	0.112996
O33	O	1.703363	-0.512153	-0.554835
O34	O	2.203363	-0.012153	-0.054835
C35	C	1.457626	-0.341116	-0.496210
C36	C	1.957626	0.158884	0.003790
C37	C	1.316546	-0.348583	-0.507034
C38	C	1.816546	0.151417	-0.007034
C39	C	1.787284	-0.533205	-0.470935
C40	C	2.287284	-0.033205	0.029065
C41	C	1.787347	-0.622824	-0.470950
C42	C	2.287347	-0.122824	0.029050
C43	C	1.787558	-0.950995	-0.471065
C44	C	2.287558	-0.450995	0.028935
C45	C	1.787495	-0.859688	-0.471037
C46	C	2.287495	-0.359688	0.028963
C47	C	1.787451	-0.786912	-0.471007
C48	C	2.287451	-0.286912	0.028993
C49	C	1.787390	-0.695600	-0.470980
C50	C	2.287390	-0.195600	0.029020
C51	C	2.118460	-0.306238	-0.445650
C52	C	2.618460	0.193762	0.054350
C53	C	2.259539	-0.298793	-0.434857
C54	C	2.759539	0.201207	0.065143
C55	C	1.762103	-0.341080	-0.802033
C56	C	2.262103	0.158920	-0.302033
C57	C	1.751323	-0.348481	-0.943109
C58	C	2.251323	0.151519	-0.443109
C59	C	1.787549	-0.113398	-0.471048
C60	C	2.287549	0.386602	0.028952
C61	C	1.787612	-0.023775	-0.471078
C62	C	2.287612	0.476225	0.028922
C63	C	1.812671	-0.306348	-0.141207
C64	C	2.312671	0.193652	0.358793
C65	C	1.823697	-0.298706	-0.000114
C66	C	2.323697	0.201294	0.499886
H67	H	1.257415	-0.396931	-0.577107
H68	H	1.757415	0.103069	-0.077107
O69	O	1.667641	-0.406185	-1.013484
O70	O	2.167641	0.093815	-0.513484
C71	C	1.602905	-0.548714	-1.058996
C72	C	2.102905	-0.048714	-0.558996
C73	C	1.697742	-0.483445	-0.979182
C74	C	2.197742	0.016555	-0.479182
H75	H	1.627223	-0.611195	-1.031311
H76	H	2.127223	-0.111195	-0.531311
H77	H	1.502511	-0.538675	-1.040824
H78	H	2.002511	-0.038675	-0.540824
H79	H	1.608823	-0.544586	-1.164019
H80	H	2.108823	-0.044586	-0.664019
H81	H	1.691938	-0.487534	-0.874134
H82	H	2.191938	0.012466	-0.374134
H83	H	1.798095	-0.493505	-0.997462
H84	H	2.298095	0.006495	-0.497462
H85	H	1.893899	-0.250419	-0.940986
H86	H	2.393899	0.249581	-0.440986
H87	H	1.318663	-0.250453	-0.364780
H88	H	1.818663	0.249547	0.135220
