data_functionalizedCrystal
_audit_creation_method	'MofGen! by Chris Wilmer'
_symmetry_space_group_name_H-M	'P1'
_symmetry_Int_Tables_number	1
_symmetry_cell_setting	triclinic
loop_
_symmetry_equiv_pos_as_xyz
  x,y,z
_cell_length_a	14.519709
_cell_length_b	10.654541
_cell_length_c	9.130307
_cell_angle_alpha	90.003083
_cell_angle_beta	89.995905
_cell_angle_gamma	84.082037
loop_
_atom_site_label
_atom_site_type_symbol
_atom_site_fract_x
_atom_site_fract_y
_atom_site_fract_z
O1	O	-1.224716	-0.164621	-0.121608
O2	O	-0.724716	0.335379	0.378392
O3	O	-0.956340	-0.184008	-0.121653
O4	O	-0.456340	0.315992	0.378347
O5	O	-1.096700	0.008484	-0.121620
O6	O	-0.596700	0.508484	0.378380
O7	O	-1.084356	-0.357113	-0.121640
O8	O	-0.584356	0.142887	0.378360
O9	O	-1.096695	0.008486	0.121979
O10	O	-0.596695	0.508486	0.621979
O11	O	-0.956335	-0.184006	0.121946
O12	O	-0.456335	0.315994	0.621946
O13	O	-1.224712	-0.164619	0.121991
O14	O	-0.724712	0.335381	0.621991
Cu15	Cu	-1.090523	-0.174313	0.144211
Cu16	Cu	-0.590523	0.325687	0.644211
Cu17	Cu	-1.090528	-0.174315	-0.143873
Cu18	Cu	-0.590528	0.325685	0.356127
O19	O	-1.084352	-0.357112	0.121959
O20	O	-0.584352	0.142888	0.621959
C21	C	-1.095791	0.055275	0.000178
C22	C	-0.595791	0.555275	0.500178
C23	C	-1.093081	0.194692	0.000175
C24	C	-0.593081	0.694692	0.500175
C25	C	-0.921973	-0.183103	0.000141
C26	C	-0.421973	0.316897	0.500141
C27	C	-0.819578	-0.180396	0.000124
C28	C	-0.319578	0.319604	0.500124
C29	C	-1.259078	-0.165524	0.000194
C30	C	-0.759078	0.334476	0.500194
C31	C	-1.361474	-0.168231	0.000201
C32	C	-0.861474	0.331769	0.500201
C33	C	-0.444630	-0.170429	0.000192
C34	C	0.055370	0.329571	0.500192
C35	C	-0.548952	-0.173197	0.000172
C36	C	-0.048952	0.326803	0.500172
C37	C	-0.632101	-0.175412	0.000157
C38	C	-0.132101	0.324588	0.500157
C39	C	-0.736429	-0.178181	0.000140
C40	C	-0.236429	0.321819	0.500140
C41	C	-1.085260	-0.403902	0.000157
C42	C	-0.585260	0.096098	0.500157
C43	C	-1.087970	-0.543319	0.000150
C44	C	-0.587970	-0.043319	0.500150
N45	N	-1.090526	-0.174310	0.346834
N46	N	-0.590526	0.325690	0.846834
C47	C	-1.260920	0.224277	0.000222
C48	C	-0.760920	0.724277	0.500222
C49	C	-1.343562	0.304566	0.000248
C50	C	-0.843562	0.804566	0.500248
C51	C	-1.341010	0.435559	0.000243
C52	C	-0.841010	0.935559	0.500243
C53	C	-1.255806	0.486265	0.000207
C54	C	-0.755806	0.986265	0.500207
C55	C	-1.173164	0.405976	0.000181
C56	C	-0.673164	0.905976	0.500181
C57	C	-1.175725	0.274981	0.000191
C58	C	-0.675725	0.774981	0.500191
C59	C	-1.005328	0.376392	0.000124
C60	C	-0.505328	0.876392	0.500124
C61	C	-1.007878	0.245398	0.000140
C62	C	-0.507878	0.745398	0.500140
C63	C	-0.920124	0.427098	0.000089
C64	C	-0.420124	0.927098	0.500089
C65	C	-0.837480	0.346809	0.000073
C66	C	-0.337480	0.846809	0.500073
C67	C	-0.840036	0.215808	0.000080
C68	C	-0.340036	0.715808	0.500080
C69	C	-0.925236	0.165109	0.000114
C70	C	-0.425236	0.665109	0.500114
N71	N	-1.090533	-0.174307	-0.346496
N72	N	-0.590533	0.325693	0.153504
C73	C	-1.214866	-0.003908	0.346853
C74	C	-0.714866	0.496092	0.846853
C75	C	-1.277042	0.081290	0.423529
C76	C	-0.777042	0.581290	0.923529
C77	C	-1.277051	0.081291	0.576862
C78	C	-0.777051	0.581291	1.076862
C79	C	-1.214876	-0.003913	0.653523
C80	C	-0.714876	0.496087	1.153523
C81	C	-1.152699	-0.089110	0.576847
C82	C	-0.652699	0.410890	1.076847
C83	C	-1.152699	-0.089104	0.423510
C84	C	-0.652699	0.410896	0.923510
C85	C	-1.028357	-0.259505	0.576828
C86	C	-0.528357	0.240495	1.076828
C87	C	-1.028350	-0.259514	0.423495
C88	C	-0.528350	0.240486	0.923495
C89	C	-0.966181	-0.344708	0.653489
C90	C	-0.466181	0.155292	1.153489
C91	C	-0.904008	-0.429914	0.576813
C92	C	-0.404008	0.070086	1.076813
C93	C	-0.904002	-0.429912	0.423471
C94	C	-0.404002	0.070088	0.923471
C95	C	-0.966174	-0.344711	0.346819
C96	C	-0.466174	0.155289	0.846819
H97	H	-1.263006	0.117616	0.000246
H98	H	-0.763006	0.617616	0.500246
H99	H	-1.412933	0.263266	0.000290
H100	H	-0.912933	0.763266	0.500290
H101	H	-0.966187	-0.344699	0.778342
H102	H	-0.466187	0.155301	1.278342
H103	H	-0.853385	-0.499275	0.639240
H104	H	-0.353385	0.000725	1.139240
F105	F	-0.752075	0.130367	0.000042
F106	F	-0.252075	0.630367	0.500042
H107	H	-0.918052	0.533761	0.000076
H108	H	-0.418052	1.033761	0.500076
F109	F	-1.428966	0.521011	0.000259
F110	F	-0.928966	1.021011	0.500259
F111	F	-0.837820	-0.520587	0.341878
F112	F	-0.337820	-0.020587	0.841878
F113	F	-1.253094	0.625681	0.000122
F114	F	-0.753094	1.125681	0.500122
H115	H	-0.927325	0.058449	0.000128
H116	H	-0.427325	0.558449	0.500128
F117	F	-0.966177	-0.344707	0.183627
F118	F	-0.466177	0.155293	0.683627
H119	H	-0.768114	0.388105	0.000035
H120	H	-0.268114	0.888105	0.500035
F121	F	-1.214873	-0.003914	0.183661
F122	F	-0.714873	0.496086	0.683661
H123	H	-1.327663	0.150665	0.361098
H124	H	-0.827663	0.650665	0.861098
F125	F	-1.343221	0.171974	0.658467
F126	F	-0.843221	0.671974	1.158467
F127	F	-1.214877	-0.003895	0.816715
F128	F	-0.714877	0.496105	1.316715
