data_functionalizedCrystal
_audit_creation_method	'MofGen! by Chris Wilmer'
_symmetry_space_group_name_H-M	'P1'
_symmetry_Int_Tables_number	1
_symmetry_cell_setting	triclinic
loop_
_symmetry_equiv_pos_as_xyz
  x,y,z
_cell_length_a	29.839134
_cell_length_b	16.994747
_cell_length_c	29.839125
_cell_angle_alpha	89.991363
_cell_angle_beta	90.021980
_cell_angle_gamma	90.005924
loop_
_atom_site_label
_atom_site_type_symbol
_atom_site_fract_x
_atom_site_fract_y
_atom_site_fract_z
Zn1	Zn	0.686814	-0.314247	0.254207
Zn2	Zn	0.686786	-0.446127	0.179112
Zn3	Zn	0.611697	-0.314229	0.179077
Zn4	Zn	0.611685	-0.446101	0.254200
O5	O	0.649246	-0.380176	0.216649
O6	O	0.749678	-0.331759	0.244263
O7	O	0.676819	-0.428635	0.116240
O8	O	0.621679	-0.203850	0.189031
O9	O	0.749657	-0.428651	0.189091
O10	O	0.676867	-0.203863	0.244230
O11	O	0.621651	-0.331730	0.116214
O12	O	0.548828	-0.331704	0.189025
O13	O	0.621657	-0.428606	0.317068
O14	O	0.548819	-0.428589	0.244217
O15	O	0.676855	-0.331734	0.317074
O16	O	0.676807	-0.556505	0.189084
O17	O	0.621630	-0.556486	0.244251
C18	C	0.532523	-0.380143	0.216617
C19	C	0.482589	-0.380147	0.216613
C20	C	0.649220	-0.585116	0.216669
C21	C	0.649223	-0.674438	0.216668
Zn22	Zn	0.611710	-0.945316	0.179064
Zn23	Zn	0.686834	-0.945312	0.254188
Zn24	Zn	0.611700	-0.813493	0.254193
Zn25	Zn	0.686795	-0.813382	0.179097
O26	O	0.649260	-0.879376	0.216635
O27	O	0.621696	-1.055697	0.189014
O28	O	0.676880	-0.927870	0.317055
O29	O	0.548834	-0.831028	0.244215
O30	O	0.676890	-1.055693	0.244206
O31	O	0.548842	-0.927877	0.189019
O32	O	0.621679	-0.831024	0.317059
O33	O	0.621641	-0.703097	0.244247
O34	O	0.676822	-0.830839	0.116226
O35	O	0.676812	-0.703016	0.189075
O36	O	0.621658	-0.927770	0.116202
O37	O	0.749696	-0.927763	0.244238
O38	O	0.749667	-0.830835	0.189070
C39	C	0.172950	-0.430699	0.245353
C40	C	-0.014723	-0.430721	0.245373
O41	O	-0.038984	-0.473665	0.269789
N42	N	-0.038196	-0.380205	0.216683
C43	C	-0.014749	-0.329676	0.187988
O44	O	-0.039020	-0.286704	0.163589
C45	C	0.172924	-0.329650	0.187971
C46	C	0.196395	-0.380176	0.216659
C47	C	0.196421	-0.481219	0.274039
C48	C	0.243337	-0.481216	0.274032
C49	C	0.266781	-0.430693	0.245339
C50	C	0.243310	-0.380172	0.216652
C51	C	0.196371	-0.279118	0.159279
C52	C	0.243292	-0.279115	0.159278
C53	C	0.266762	-0.329640	0.187966
C54	C	0.313670	-0.329646	0.187952
N55	N	0.337143	-0.380162	0.216642
C56	C	0.313699	-0.430686	0.245335
C57	C	-0.113279	-0.329694	0.187999
C58	C	-0.160197	-0.329701	0.188002
C59	C	-0.160168	-0.430746	0.245388
C60	C	-0.113250	-0.430742	0.245381
C61	C	-0.089806	-0.380210	0.216688
C62	C	0.412225	-0.430676	0.245318
C63	C	0.459144	-0.430671	0.245307
C64	C	0.459111	-0.329624	0.187924
C65	C	0.412196	-0.329632	0.187933
C66	C	0.388754	-0.380160	0.216633
O67	O	0.337960	-0.286719	0.163552
O68	O	0.337979	-0.473639	0.269737
C69	C	0.126035	-0.430702	0.245360
C70	C	0.102564	-0.380182	0.216673
C71	C	0.126008	-0.329658	0.187980
C72	C	0.055646	-0.380189	0.216677
C73	C	0.032201	-0.430712	0.245371
C74	C	0.055675	-0.481228	0.274060
C75	C	0.102590	-0.481225	0.274053
C76	C	0.102535	-0.279142	0.159290
C77	C	0.055619	-0.279150	0.159299
C78	C	0.032175	-0.329673	0.187992
C79	C	0.766424	-0.380210	0.216682
C80	C	0.816358	-0.380225	0.216696
C81	C	0.649258	-0.380169	0.333827
C82	C	0.649263	-0.380166	0.383762
C83	C	0.649274	-0.174436	0.216626
C84	C	0.649288	-0.085114	0.216617
C85	C	0.649259	-0.380126	0.099927
C86	C	0.649341	-0.379907	0.049992
C87	C	0.678035	-0.329592	0.693411
C88	C	0.678057	-0.329525	0.881084
O89	O	0.702486	-0.286600	0.905354
N90	N	0.649323	-0.379955	0.904547
C91	C	0.620579	-0.430401	0.881089
O92	O	0.596136	-0.473287	0.905352
C93	C	0.620554	-0.430464	0.693417
C94	C	0.649294	-0.380037	0.669956
C95	C	0.706771	-0.279168	0.669951
C96	C	0.706767	-0.279189	0.623035
C97	C	0.678026	-0.329633	0.599580
C98	C	0.649290	-0.380057	0.623041
C99	C	0.591809	-0.480906	0.669959
C100	C	0.591804	-0.480916	0.623038
C101	C	0.620544	-0.430488	0.599578
C102	C	0.620545	-0.430521	0.552670
N103	N	0.649279	-0.380092	0.529207
C104	C	0.678020	-0.329648	0.552662
C105	C	0.620594	-0.430366	0.979620
C106	C	0.620601	-0.430351	1.026537
C107	C	0.678078	-0.329474	1.026530
C108	C	0.678074	-0.329493	0.979611
C109	C	0.649328	-0.379936	0.956157
C110	C	0.678009	-0.329695	0.454136
C111	C	0.678004	-0.329722	0.407217
C112	C	0.620525	-0.430596	0.407229
C113	C	0.620531	-0.430572	0.454144
C114	C	0.649275	-0.380115	0.477597
O115	O	0.596125	-0.473418	0.528372
O116	O	0.702452	-0.286755	0.528391
C117	C	0.678039	-0.329572	0.740327
C118	C	0.649302	-0.379996	0.763787
C119	C	0.620561	-0.430440	0.740332
C120	C	0.649309	-0.379981	0.810705
C121	C	0.678049	-0.329537	0.834160
C122	C	0.706784	-0.279107	0.810697
C123	C	0.706779	-0.279128	0.763782
C124	C	0.591827	-0.480870	0.763795
C125	C	0.591834	-0.480846	0.810711
C126	C	0.620575	-0.430402	0.834166
C127	C	0.765982	-0.879289	0.216658
C128	C	0.815917	-0.879274	0.216681
C129	C	0.649237	-0.879293	0.099457
C130	C	0.649227	-0.879257	0.049523
C131	C	0.532081	-0.879465	0.216614
C132	C	0.482147	-0.879504	0.216605
C133	C	0.649251	-0.879503	0.333358
C134	C	0.649135	-0.879690	0.383292
C135	C	0.839369	-0.929780	0.245392
C136	C	0.886287	-0.929782	0.245413
C137	C	0.909753	-0.879274	0.216726
C138	C	0.886298	-0.828766	0.188012
C139	C	0.839380	-0.828769	0.187989
C140	C	0.620497	-0.929708	0.026058
C141	C	0.620479	-0.929675	-0.020861
C142	C	0.649193	-0.879194	-0.044314
C143	C	0.677923	-0.828738	-0.020846
C144	C	0.677939	-0.828768	0.026072
C145	C	0.458691	-0.829091	0.245338
C146	C	0.411772	-0.829111	0.245330
C147	C	0.388311	-0.879549	0.216589
C148	C	0.411770	-0.929964	0.187852
C149	C	0.458688	-0.929939	0.187859
C150	C	0.620547	-0.828988	0.406724
C151	C	0.620430	-0.829163	0.453643
C152	C	0.648904	-0.880035	0.477128
C153	C	0.677494	-0.930741	0.453693
C154	C	0.677608	-0.930570	0.406775
H155	H	0.393144	-0.471819	0.268690
O156	O	0.705320	-0.979901	0.383995
C157	C	0.711090	-1.086247	0.330908
C158	C	0.679653	-1.030438	0.356682
H159	H	0.690351	-1.127109	0.308812
H160	H	0.731412	-1.122687	0.355736
H161	H	0.734786	-1.050217	0.309071
H162	H	0.655930	-1.066407	0.378520
H163	H	0.659363	-0.993996	0.331829
H164	H	0.700675	-0.972161	0.472822
H165	H	0.597149	-0.787868	0.472717
O166	O	0.734672	-0.230053	0.692680
C167	C	0.756494	-0.095877	0.707018
C168	C	0.724870	-0.151411	0.681248
H169	H	0.748574	-0.032282	0.697792
H170	H	0.792720	-0.109686	0.697789
H171	H	0.751578	-0.104557	0.744581
H172	H	0.729745	-0.142762	0.643679
H173	H	0.688655	-0.137589	0.690514
O174	O	0.173520	-0.230024	0.131466
C175	C	0.120551	-0.123517	0.125484
C176	C	0.146398	-0.179066	0.157040
H177	H	0.098625	-0.082292	0.146148
H178	H	0.098550	-0.159655	0.101981
H179	H	0.145372	-0.087442	0.104959
H180	H	0.121610	-0.215152	0.177594
H181	H	0.168406	-0.142882	0.180513
O182	O	0.481520	-0.978959	0.160012
C183	C	0.534470	-1.085473	0.153967
C184	C	0.508653	-1.029990	0.185556
H185	H	0.556406	-1.126756	0.174607
H186	H	0.556458	-1.049286	0.130488
H187	H	0.509629	-1.121487	0.133419
H188	H	0.533461	-0.993964	0.206133
H189	H	0.486657	-1.066222	0.209006
H190	H	0.905378	-0.970911	0.268798
O191	O	0.705902	-0.280798	0.384358
C192	C	0.731342	-0.236059	0.312079
C193	C	0.699738	-0.291523	0.337908
H194	H	0.726363	-0.244699	0.274519
H195	H	0.767578	-0.249907	0.321282
H196	H	0.723461	-0.172464	0.321320
H197	H	0.707579	-0.355137	0.328681
H198	H	0.663511	-0.277608	0.328703
H199	H	0.947957	-0.879279	0.216750
H200	H	0.568391	-0.521985	0.603944
O201	O	0.816586	-0.779818	0.160045
C202	C	0.763622	-0.769077	0.099371
C203	C	0.789409	-0.824601	0.130990
H204	H	0.741635	-0.805260	0.075879
H205	H	0.788442	-0.733004	0.078843
H206	H	0.741673	-0.727850	0.120011
H207	H	0.811358	-0.865876	0.110385
H208	H	0.764565	-0.860619	0.151520
H209	H	0.701336	-0.787687	0.045173
H210	H	0.701301	-0.787639	-0.039948
H211	H	0.036513	-0.238007	0.135933
O212	O	0.592559	-0.978772	-0.043582
C213	C	0.535577	-1.078876	-0.038634
C214	C	0.567179	-1.023325	-0.012849
H215	H	0.515042	-1.114900	-0.013798
H216	H	0.556184	-1.120140	-0.060591
H217	H	0.512086	-1.042664	-0.060609
H218	H	0.590677	-1.059473	0.009150
H219	H	0.546544	-0.982058	0.009080
O220	O	0.734737	-0.230246	0.740972
C221	C	0.795366	-0.219634	0.687993
C222	C	0.763741	-0.275091	0.713801
H223	H	0.818817	-0.255869	0.666012
H224	H	0.815938	-0.183588	0.712799
H225	H	0.774728	-0.178379	0.666037
H226	H	0.784344	-0.316394	0.735758
H227	H	0.743167	-0.311082	0.688971
H228	H	0.121619	-0.237999	0.135924
H229	H	0.820269	-0.970909	0.268755
O230	O	0.734659	-0.230128	0.833555
C231	C	0.760146	-0.185432	0.905838
C232	C	0.728553	-0.240929	0.880005
H233	H	0.755227	-0.194157	0.943397
H234	H	0.752263	-0.121812	0.896633
H235	H	0.796366	-0.199282	0.896604
H236	H	0.692323	-0.227150	0.889225
H237	H	0.736474	-0.304532	0.889212
H238	H	0.701414	-0.288605	0.473226
H239	H	0.478252	-0.471817	0.268669
H240	H	0.121696	-0.522368	0.297415
O241	O	0.734613	-0.230140	0.600205
C242	C	0.740645	-0.123585	0.547263
C243	C	0.709064	-0.179114	0.573074
H244	H	0.720001	-0.082306	0.525328
H245	H	0.764132	-0.159735	0.525274
H246	H	0.761186	-0.087568	0.572108
H247	H	0.688493	-0.215143	0.548261
H248	H	0.685606	-0.142919	0.595070
H249	H	0.568432	-0.521917	0.829808
O250	O	0.909027	-0.779681	0.160104
C251	C	0.904100	-0.679450	0.103187
C252	C	0.878303	-0.735013	0.134761
H253	H	0.879271	-0.643310	0.082696
H254	H	0.926055	-0.715578	0.079658
H255	H	0.926077	-0.638288	0.123860
H256	H	0.856301	-0.776186	0.114124
H257	H	0.856375	-0.698835	0.158292
O258	O	0.592840	-0.779548	0.383986
C259	C	0.536238	-0.678800	0.388903
C260	C	0.567591	-0.734761	0.414705
H261	H	0.515823	-0.642563	0.413728
H262	H	0.512629	-0.714618	0.366846
H263	H	0.557079	-0.637747	0.367026
H264	H	0.546787	-0.775825	0.436606
H265	H	0.591202	-0.698894	0.436734
O266	O	0.266063	-0.530316	0.301946
C267	C	0.261123	-0.630565	0.358848
C268	C	0.235333	-0.574987	0.327263
H269	H	0.236288	-0.666708	0.379319
H270	H	0.283087	-0.594450	0.382397
H271	H	0.283090	-0.671725	0.338186
H272	H	0.213341	-0.533816	0.347889
H273	H	0.213397	-0.611151	0.303713
H274	H	0.177338	-0.522362	0.297407
H275	H	0.649176	-0.879179	-0.082517
H276	H	0.568423	-0.521949	0.744703
H277	H	0.392660	-0.971027	0.164452
H278	H	0.597115	-0.970817	0.045147
O279	O	0.388920	-0.780168	0.273208
C280	C	0.316647	-0.735541	0.298702
C281	C	0.342468	-0.790992	0.267100
H282	H	0.279086	-0.744284	0.293782
H283	H	0.325832	-0.671908	0.290829
H284	H	0.325912	-0.749418	0.334919
H285	H	0.333217	-0.777186	0.230872
H286	H	0.333282	-0.854609	0.275012
O287	O	-0.090472	-0.479732	0.273316
C288	C	-0.076112	-0.518254	0.349705
C289	C	-0.101924	-0.462711	0.318117
H290	H	-0.085369	-0.504523	0.385932
H291	H	-0.038545	-0.509572	0.344817
H292	H	-0.085337	-0.581832	0.341743
H293	H	-0.092737	-0.399111	0.326060
H294	H	-0.139485	-0.471461	0.323011
O295	O	0.481546	-0.780163	0.273242
C296	C	0.553820	-0.735368	0.298710
C297	C	0.527997	-0.790839	0.267094
H298	H	0.591380	-0.743969	0.293743
H299	H	0.544637	-0.749245	0.334942
H300	H	0.544554	-0.671777	0.290827
H301	H	0.537249	-0.854449	0.274936
H302	H	0.537183	-0.776895	0.230871
H303	H	-0.179265	-0.471884	0.268751
H304	H	0.701475	-0.288429	0.960512
H305	H	0.648807	-0.880165	0.515331
O306	O	-0.182924	-0.280553	0.160116
C307	C	-0.177988	-0.180362	0.103181
C308	C	-0.152196	-0.235974	0.134745
H309	H	-0.153156	-0.144317	0.082653
H310	H	-0.199931	-0.139119	0.123818
H311	H	-0.199978	-0.216525	0.079681
H312	H	-0.130182	-0.199874	0.158251
H313	H	-0.130282	-0.277219	0.114080
O314	O	0.705930	-0.280380	1.049337
C315	C	0.711978	-0.173900	1.102312
C316	C	0.680391	-0.229440	1.076501
H317	H	0.691343	-0.132712	1.124288
H318	H	0.732506	-0.137793	1.077507
H319	H	0.735477	-0.210122	1.124273
H320	H	0.656865	-0.193279	1.054539
H321	H	0.659895	-0.265550	1.101330
O322	O	-0.090488	-0.280526	0.160186
C323	C	-0.037504	-0.174030	0.154207
C324	C	-0.063292	-0.229647	0.185758
H325	H	-0.015503	-0.132891	0.174869
H326	H	-0.062324	-0.137875	0.133712
H327	H	-0.015571	-0.210196	0.130677
H328	H	-0.085226	-0.193542	0.209316
H329	H	-0.038448	-0.265805	0.206222
O330	O	0.265994	-0.230006	0.131359
C331	C	0.261010	-0.129753	0.074460
C332	C	0.235245	-0.185335	0.106049
H333	H	0.236160	-0.093610	0.053996
H334	H	0.282948	-0.165865	0.050907
H335	H	0.283001	-0.088594	0.095120
H336	H	0.213229	-0.226506	0.085425
H337	H	0.213335	-0.149174	0.129604
O338	O	0.342734	-0.879718	0.216590
C339	C	0.275418	-0.955369	0.228152
C340	C	0.327032	-0.955293	0.228153
H341	H	0.262707	-1.016460	0.237508
H342	H	0.262638	-0.939035	0.193363
H343	H	0.262698	-0.910641	0.253616
H344	H	0.339790	-1.000021	0.202711
H345	H	0.339781	-0.971591	0.262958
H346	H	0.393085	-0.288492	0.164571
H347	H	0.036578	-0.522369	0.297422
O348	O	0.481941	-0.280658	0.160031
C349	C	0.534872	-0.269883	0.099369
C350	C	0.509051	-0.325429	0.130933
H351	H	0.556790	-0.306059	0.075830
H352	H	0.556879	-0.228712	0.120006
H353	H	0.510034	-0.233750	0.078884
H354	H	0.533857	-0.361613	0.151425
H355	H	0.487037	-0.366548	0.110271
O356	O	0.592644	-0.479368	1.049255
C357	C	0.535652	-0.579455	1.044298
C358	C	0.567285	-0.523974	1.018517
H359	H	0.515147	-0.615545	1.019458
H360	H	0.512137	-0.543267	1.066238
H361	H	0.556279	-0.620669	1.066289
H362	H	0.546694	-0.482749	0.996502
H363	H	0.590800	-0.560211	0.996605
H364	H	0.568406	-0.521969	0.689053
O365	O	0.592733	-0.479413	0.956791
C366	C	0.586662	-0.585973	0.903871
C367	C	0.618263	-0.530461	0.929684
H368	H	0.607290	-0.627270	0.881955
H369	H	0.563176	-0.549811	0.881862
H370	H	0.566120	-0.621972	0.928714
H371	H	0.638833	-0.494450	0.904873
H372	H	0.641719	-0.566668	0.951699
H373	H	0.597134	-0.471641	0.473247
H374	H	0.597126	-0.471669	0.388123
