data_functionalizedCrystal
_audit_creation_method	'MofGen! by Chris Wilmer'
_symmetry_space_group_name_H-M	'P1'
_symmetry_Int_Tables_number	1
_symmetry_cell_setting	triclinic
loop_
_symmetry_equiv_pos_as_xyz
  x,y,z
_cell_length_a	19.805407
_cell_length_b	18.101395
_cell_length_c	19.805399
_cell_angle_alpha	90.025118
_cell_angle_beta	90.019573
_cell_angle_gamma	90.031104
loop_
_atom_site_label
_atom_site_type_symbol
_atom_site_fract_x
_atom_site_fract_y
_atom_site_fract_z
Zn1	Zn	1.034714	-0.294847	0.382731
Zn2	Zn	1.284714	-0.044847	0.632731
Zn3	Zn	1.534714	0.205153	0.882731
Zn4	Zn	1.784714	0.455153	1.132731
Zn5	Zn	1.034619	-0.418690	0.269548
Zn6	Zn	1.284619	-0.168690	0.519548
Zn7	Zn	1.534619	0.081310	0.769548
Zn8	Zn	1.784619	0.331310	1.019548
Zn9	Zn	0.921528	-0.294867	0.269556
Zn10	Zn	1.171528	-0.044867	0.519556
Zn11	Zn	1.421528	0.205133	0.769556
Zn12	Zn	1.671528	0.455133	1.019556
Zn13	Zn	0.921482	-0.418651	0.382695
Zn14	Zn	1.171482	-0.168651	0.632695
Zn15	Zn	1.421482	0.081349	0.882695
Zn16	Zn	1.671482	0.331349	1.132695
O17	O	0.978086	-0.356764	0.326132
O18	O	1.228086	-0.106764	0.576132
O19	O	1.478086	0.143236	0.826132
O20	O	1.728086	0.393236	1.076132
O21	O	1.129418	-0.311283	0.367729
O22	O	1.379418	-0.061283	0.617729
O23	O	1.629418	0.188717	0.867729
O24	O	1.879418	0.438717	1.117729
O25	O	1.019597	-0.402290	0.174832
O26	O	1.269597	-0.152290	0.424832
O27	O	1.519597	0.097710	0.674832
O28	O	1.769597	0.347710	0.924832
O29	O	0.936601	-0.191232	0.284587
O30	O	1.186601	0.058768	0.534587
O31	O	1.436601	0.308768	0.784587
O32	O	1.686601	0.558768	1.034587
O33	O	1.129348	-0.402270	0.284574
O34	O	1.379348	-0.152270	0.534574
O35	O	1.629348	0.097730	0.784574
O36	O	1.879348	0.347730	1.034574
O37	O	1.019758	-0.191217	0.367737
O38	O	1.269758	0.058783	0.617737
O39	O	1.519758	0.308783	0.867737
O40	O	1.769758	0.558783	1.117737
O41	O	0.936510	-0.311318	0.174838
O42	O	1.186510	-0.061318	0.424838
O43	O	1.436510	0.188682	0.674838
O44	O	1.686510	0.438682	0.924838
O45	O	0.826806	-0.311279	0.284552
O46	O	1.076806	-0.061279	0.534552
O47	O	1.326806	0.188721	0.784552
O48	O	1.576806	0.438721	1.034552
O49	O	0.936523	-0.402203	0.477416
O50	O	1.186523	-0.152203	0.727416
O51	O	1.436523	0.097797	0.977416
O52	O	1.686523	0.347797	1.227416
O53	O	0.826772	-0.402223	0.367674
O54	O	1.076772	-0.152223	0.617674
O55	O	1.326772	0.097777	0.867674
O56	O	1.576772	0.347777	1.117674
O57	O	1.019714	-0.311245	0.477443
O58	O	1.269714	-0.061245	0.727443
O59	O	1.519714	0.188755	0.977443
O60	O	1.769714	0.438755	1.227443
O61	O	1.019553	-0.522318	0.284538
O62	O	1.269553	-0.272318	0.534538
O63	O	1.519553	-0.022318	0.784538
O64	O	1.769553	0.227682	1.034538
O65	O	0.936432	-0.522289	0.367667
O66	O	1.186432	-0.272289	0.617667
O67	O	1.436432	-0.022289	0.867667
O68	O	1.686432	0.227711	1.117667
C69	C	0.802230	-0.356750	0.326110
C70	C	1.052230	-0.106750	0.576110
C71	C	1.302230	0.143250	0.826110
C72	C	1.552230	0.393250	1.076110
C73	C	0.726998	-0.356761	0.326117
C74	C	0.976998	-0.106761	0.576117
C75	C	1.226998	0.143239	0.826117
C76	C	1.476998	0.393239	1.076117
C77	C	0.691654	-0.404187	0.369329
C78	C	0.941654	-0.154187	0.619329
C79	C	1.191654	0.095813	0.869329
C80	C	1.441654	0.345813	1.119329
C81	C	0.620965	-0.404188	0.369339
C82	C	0.870965	-0.154188	0.619339
C83	C	1.120965	0.095812	0.869339
C84	C	1.370965	0.345812	1.119339
C85	C	0.585622	-0.356767	0.326132
C86	C	0.835622	-0.106767	0.576132
C87	C	1.085622	0.143233	0.826132
C88	C	1.335622	0.393233	1.076132
C89	C	0.620971	-0.309336	0.282919
C90	C	0.870971	-0.059336	0.532919
C91	C	1.120971	0.190664	0.782919
C92	C	1.370971	0.440664	1.032919
C93	C	0.691658	-0.309332	0.282913
C94	C	0.941658	-0.059332	0.532913
C95	C	1.191658	0.190668	0.782913
C96	C	1.441658	0.440668	1.032913
C97	C	0.335898	-0.309353	0.282941
C98	C	0.585898	-0.059353	0.532941
C99	C	0.835898	0.190647	0.782941
C100	C	1.085898	0.440647	1.032941
C101	C	0.265206	-0.309363	0.282948
C102	C	0.515206	-0.059363	0.532948
C103	C	0.765206	0.190637	0.782948
C104	C	1.015206	0.440637	1.032948
C105	C	0.265205	-0.404209	0.369367
C106	C	0.515205	-0.154209	0.619367
C107	C	0.765205	0.095791	0.869367
C108	C	1.015205	0.345791	1.119367
C109	C	0.335892	-0.404205	0.369361
C110	C	0.585892	-0.154205	0.619361
C111	C	0.835892	0.095795	0.869361
C112	C	1.085892	0.345795	1.119361
C113	C	0.371235	-0.356771	0.326150
C114	C	0.621235	-0.106771	0.576150
C115	C	0.871235	0.143229	0.826150
C116	C	1.121235	0.393229	1.076150
C117	C	0.447883	-0.356770	0.326141
C118	C	0.697883	-0.106770	0.576141
C119	C	0.947883	0.143230	0.826141
C120	C	1.197883	0.393230	1.076141
C121	C	0.508975	-0.356772	0.326137
C122	C	0.758975	-0.106772	0.576137
C123	C	1.008975	0.143228	0.826137
C124	C	1.258975	0.393228	1.076137
C125	C	0.977995	-0.549174	0.326112
C126	C	1.227995	-0.299174	0.576112
C127	C	1.477995	-0.049174	0.826112
C128	C	1.727995	0.200826	1.076112
C129	C	0.978018	-0.631489	0.326127
C130	C	1.228018	-0.381489	0.576127
C131	C	1.478018	-0.131489	0.826127
C132	C	1.728018	0.118511	1.076127
C133	C	0.978167	-0.930579	0.326163
C134	C	1.228167	-0.680579	0.576163
C135	C	1.478167	-0.430579	0.826163
C136	C	1.728167	-0.180579	1.076163
C137	C	0.925991	-0.899267	0.378595
C138	C	1.175991	-0.649267	0.628595
C139	C	1.425991	-0.399267	0.878595
C140	C	1.675991	-0.149267	1.128595
C141	C	0.925743	-0.813649	0.378431
C142	C	1.175743	-0.563649	0.628431
C143	C	1.425743	-0.313649	0.878431
C144	C	1.675743	-0.063649	1.128431
C145	C	0.978093	-0.782197	0.326146
C146	C	1.228093	-0.532197	0.576146
C147	C	1.478093	-0.282197	0.826146
C148	C	1.728093	-0.032197	1.076146
C149	C	0.958782	-0.813345	0.254811
C150	C	1.208782	-0.563345	0.504811
C151	C	1.458782	-0.313345	0.754811
C152	C	1.708782	-0.063345	1.004811
C153	C	0.958446	-0.898990	0.255125
C154	C	1.208446	-0.648990	0.505125
C155	C	1.458446	-0.398990	0.755125
C156	C	1.708446	-0.148990	1.005125
C157	C	1.049768	-0.898924	0.344438
C158	C	1.299768	-0.648924	0.594438
C159	C	1.549768	-0.398924	0.844438
C160	C	1.799768	-0.148924	1.094438
C161	C	1.049347	-0.813273	0.346002
C162	C	1.299347	-0.563273	0.596002
C163	C	1.549347	-0.313273	0.846002
C164	C	1.799347	-0.063273	1.096002
C165	C	0.978053	-0.698337	0.326131
C166	C	1.228053	-0.448337	0.576131
C167	C	1.478053	-0.198337	0.826131
C168	C	1.728053	0.051663	1.076131
C169	C	0.978206	-1.014439	0.326173
C170	C	1.228206	-0.764439	0.576173
C171	C	1.478206	-0.514439	0.826173
C172	C	1.728206	-0.264439	1.076173
C173	C	1.154629	-0.356779	0.326155
C174	C	1.404629	-0.106779	0.576155
C175	C	1.654629	0.143221	0.826155
C176	C	1.904629	0.393221	1.076155
C177	C	1.229861	-0.356785	0.326164
C178	C	1.479861	-0.106785	0.576164
C179	C	1.729861	0.143215	0.826164
C180	C	1.979861	0.393215	1.076164
C181	C	0.978124	-0.356717	0.502675
C182	C	1.228124	-0.106717	0.752675
C183	C	1.478124	0.143283	1.002675
C184	C	1.728124	0.393283	1.252675
C185	C	0.978140	-0.356697	0.577907
C186	C	1.228140	-0.106697	0.827907
C187	C	1.478140	0.143303	1.077907
C188	C	1.728140	0.393303	1.327907
C189	C	0.978195	-0.163602	0.326167
C190	C	1.228195	0.086398	0.576167
C191	C	1.478195	0.336398	0.826167
C192	C	1.728195	0.586398	1.076167
C193	C	0.978242	-0.081288	0.326182
C194	C	1.228242	0.168712	0.576182
C195	C	1.478242	0.418712	0.826182
C196	C	1.728242	0.668712	1.076182
C197	C	0.978087	-0.356757	0.150276
C198	C	1.228087	-0.106757	0.400276
C199	C	1.478087	0.143243	0.650276
C200	C	1.728087	0.393243	0.900276
C201	C	0.978202	-0.356568	0.075045
C202	C	1.228202	-0.106568	0.325045
C203	C	1.478202	0.143432	0.575045
C204	C	1.728202	0.393432	0.825045
C205	C	1.021458	-0.309333	0.613266
C206	C	1.271458	-0.059333	0.863266
C207	C	1.521458	0.190667	1.113266
C208	C	1.771458	0.440667	1.363266
C209	C	1.021465	-0.309311	0.683955
C210	C	1.271465	-0.059311	0.933955
C211	C	1.521465	0.190689	1.183955
C212	C	1.771465	0.440689	1.433955
C213	C	0.978157	-0.356659	0.719283
C214	C	1.228157	-0.106659	0.969283
C215	C	1.478157	0.143341	1.219283
C216	C	1.728157	0.393341	1.469283
C217	C	0.934834	-0.404025	0.683919
C218	C	1.184834	-0.154025	0.933919
C219	C	1.434834	0.095975	1.183919
C220	C	1.684834	0.345975	1.433919
C221	C	0.934824	-0.404042	0.613231
C222	C	1.184824	-0.154042	0.863231
C223	C	1.434824	0.095958	1.113231
C224	C	1.684824	0.345958	1.363231
C225	C	0.934872	-0.403956	0.968992
C226	C	1.184872	-0.153956	1.218992
C227	C	1.434872	0.096044	1.468992
C228	C	1.684872	0.346044	1.718992
C229	C	0.934887	-0.403937	1.039684
C230	C	1.184887	-0.153937	1.289684
C231	C	1.434887	0.096063	1.539684
C232	C	1.684887	0.346063	1.789684
C233	C	1.021513	-0.309225	1.039716
C234	C	1.271513	-0.059225	1.289716
C235	C	1.521513	0.190775	1.539716
C236	C	1.771513	0.440775	1.789716
C237	C	1.021503	-0.309242	0.969028
C238	C	1.271503	-0.059242	1.219028
C239	C	1.521503	0.190758	1.469028
C240	C	1.771503	0.440758	1.719028
C241	C	0.978178	-0.356606	0.933670
C242	C	1.228178	-0.106606	1.183670
C243	C	1.478178	0.143394	1.433670
C244	C	1.728178	0.393394	1.683670
C245	C	0.978170	-0.356628	0.857022
C246	C	1.228170	-0.106628	1.107022
C247	C	1.478170	0.143372	1.357022
C248	C	1.728170	0.393372	1.607022
C249	C	0.978168	-0.356641	0.795930
C250	C	1.228168	-0.106641	1.045930
C251	C	1.478168	0.143359	1.295930
C252	C	1.728168	0.393359	1.545930
H253	H	0.937825	-0.792587	0.431325
H254	H	1.187825	-0.542587	0.681325
H255	H	1.437825	-0.292587	0.931325
H256	H	1.687825	-0.042587	1.181325
Br257	Br	0.383855	-0.468568	0.427996
Br258	Br	0.633855	-0.218568	0.677996
Br259	Br	0.883855	0.031432	0.927996
Br260	Br	1.133855	0.281432	1.177996
H261	H	0.236420	-0.442829	0.404554
H262	H	0.486420	-0.192829	0.654554
H263	H	0.736420	0.057171	0.904554
H264	H	0.986420	0.307171	1.154554
H265	H	1.056741	-0.270744	0.712741
H266	H	1.306741	-0.020744	0.962741
H267	H	1.556741	0.229256	1.212741
H268	H	1.806741	0.479256	1.462741
Br269	Br	1.080285	-0.244987	0.921087
Br270	Br	1.330285	0.005013	1.171087
Br271	Br	1.580285	0.255013	1.421087
Br272	Br	1.830285	0.505013	1.671087
H273	H	0.899617	-0.442494	1.068446
H274	H	1.149617	-0.192494	1.318446
H275	H	1.399617	0.057506	1.568446
H276	H	1.649617	0.307506	1.818446
Br277	Br	1.117573	-0.777575	0.286998
Br278	Br	1.367573	-0.527575	0.536998
Br279	Br	1.617573	-0.277575	0.786998
Br280	Br	1.867573	-0.027575	1.036998
Br281	Br	0.876053	-0.468279	0.731863
Br282	Br	1.126053	-0.218279	0.981863
Br283	Br	1.376053	0.031721	1.231863
Br284	Br	1.626053	0.281721	1.481863
Br285	Br	1.114563	-0.932687	0.280800
Br286	Br	1.364563	-0.682687	0.530800
Br287	Br	1.614563	-0.432687	0.780800
Br288	Br	1.864563	-0.182687	1.030800
Br289	Br	0.945923	-0.933519	0.467045
Br290	Br	1.195923	-0.683519	0.717045
Br291	Br	1.445923	-0.433519	0.967045
Br292	Br	1.695923	-0.183519	1.217045
Br293	Br	0.217240	-0.245001	0.224307
Br294	Br	0.467240	0.004999	0.474307
Br295	Br	0.717240	0.254999	0.724307
Br296	Br	0.967240	0.504999	0.974307
H297	H	0.592189	-0.270722	0.247742
H298	H	0.842189	-0.020722	0.497742
H299	H	1.092189	0.229278	0.747742
H300	H	1.342189	0.479278	0.997742
Br301	Br	0.383854	-0.244975	0.224301
Br302	Br	0.633854	0.005025	0.474301
Br303	Br	0.883854	0.255025	0.724301
Br304	Br	1.133854	0.505025	0.974301
Br305	Br	1.080312	-0.244944	1.087705
Br306	Br	1.330312	0.005056	1.337705
Br307	Br	1.580312	0.255056	1.587705
Br308	Br	1.830312	0.505056	1.837705
Br309	Br	0.739626	-0.244962	0.224270
Br310	Br	0.989626	0.005038	0.474270
Br311	Br	1.239626	0.255038	0.724270
Br312	Br	1.489626	0.505038	0.974270
Br313	Br	0.876072	-0.468234	0.921015
Br314	Br	1.126072	-0.218234	1.171015
Br315	Br	1.376072	0.031766	1.421015
Br316	Br	1.626072	0.281766	1.671015
Br317	Br	1.080242	-0.245078	0.565328
Br318	Br	1.330242	0.004922	0.815328
Br319	Br	1.580242	0.254922	1.065328
Br320	Br	1.830242	0.504922	1.315328
H321	H	0.906106	-0.919033	0.239644
H322	H	1.156106	-0.669033	0.489644
H323	H	1.406106	-0.419033	0.739644
H324	H	1.656106	-0.169033	0.989644
Br325	Br	0.838073	-0.935264	0.358692
Br326	Br	1.088073	-0.685264	0.608692
Br327	Br	1.338073	-0.435264	0.858692
Br328	Br	1.588073	-0.185264	1.108692
H329	H	0.899543	-0.442604	0.584443
H330	H	1.149543	-0.192604	0.834443
H331	H	1.399543	0.057396	1.084443
H332	H	1.649543	0.307396	1.334443
H333	H	0.720425	-0.442805	0.404510
H334	H	0.970425	-0.192805	0.654510
H335	H	1.220425	0.057195	0.904510
H336	H	1.470425	0.307195	1.154510
Br337	Br	1.073622	-0.779340	0.433504
Br338	Br	1.323622	-0.529340	0.683504
Br339	Br	1.573622	-0.279340	0.933504
Br340	Br	1.823622	-0.029340	1.183504
Br341	Br	0.837283	-0.779601	0.358260
Br342	Br	1.087283	-0.529601	0.608260
Br343	Br	1.337283	-0.279601	0.858260
Br344	Br	1.587283	-0.029601	1.108260
H345	H	0.592192	-0.442808	0.404525
H346	H	0.842192	-0.192808	0.654525
H347	H	1.092192	0.057192	0.904525
H348	H	1.342192	0.307192	1.154525
Br349	Br	1.019031	-0.933523	0.187788
Br350	Br	1.269031	-0.683523	0.437788
Br351	Br	1.519031	-0.433523	0.687788
Br352	Br	1.769031	-0.183523	0.937788
Br353	Br	1.020129	-0.779396	0.187919
Br354	Br	1.270129	-0.529396	0.437919
Br355	Br	1.520129	-0.279396	0.687919
Br356	Br	1.770129	-0.029396	0.937919
H357	H	0.906997	-0.791960	0.239053
H358	H	1.156997	-0.541960	0.489053
H359	H	1.406997	-0.291960	0.739053
H360	H	1.656997	-0.041960	0.989053
H361	H	1.067374	-0.920474	0.395569
H362	H	1.317374	-0.670474	0.645569
H363	H	1.567374	-0.420474	0.895569
H364	H	1.817374	-0.170474	1.145569
