data_functionalizedCrystal
_audit_creation_method	'MofGen! by Chris Wilmer'
_symmetry_space_group_name_H-M	'P1'
_symmetry_Int_Tables_number	1
_symmetry_cell_setting	triclinic
loop_
_symmetry_equiv_pos_as_xyz
  x,y,z
_cell_length_a	16.109302
_cell_length_b	17.019294
_cell_length_c	14.586319
_cell_angle_alpha	86.117240
_cell_angle_beta	89.994552
_cell_angle_gamma	83.427801
loop_
_atom_site_label
_atom_site_type_symbol
_atom_site_fract_x
_atom_site_fract_y
_atom_site_fract_z
O1	O	1.103039	0.101398	-0.084285
O2	O	1.603039	0.601398	0.415715
O3	O	0.860966	0.114015	-0.085274
O4	O	1.360966	0.614015	0.414726
O5	O	0.988756	-0.007128	-0.075709
O6	O	1.488756	0.492872	0.424291
O7	O	0.975249	0.222541	-0.093849
O8	O	1.475249	0.722541	0.406151
O9	O	0.988747	-0.007130	0.076772
O10	O	1.488747	0.492870	0.576772
O11	O	0.860957	0.114014	0.067207
O12	O	1.360957	0.614014	0.567207
O13	O	1.103030	0.101396	0.068196
O14	O	1.603030	0.601396	0.568196
Cu15	Cu	0.981993	0.107704	0.081624
Cu16	Cu	1.481993	0.607704	0.581624
Cu17	Cu	0.982003	0.107707	-0.098702
Cu18	Cu	1.482003	0.607707	0.401298
O19	O	0.975240	0.222539	0.058631
O20	O	1.475240	0.722539	0.558631
C21	C	0.829987	0.113503	-0.008992
C22	C	1.329987	0.613503	0.491008
C23	C	0.737693	0.111971	-0.008868
C24	C	1.237693	0.611971	0.491132
C25	C	0.525351	0.108426	0.074520
C26	C	1.025351	0.608426	0.574520
C27	C	0.438632	0.106977	0.074631
C28	C	0.938632	0.606977	0.574631
C29	C	0.438652	0.106983	-0.091612
C30	C	0.938652	0.606983	0.408388
C31	C	0.525370	0.108426	-0.091722
C32	C	1.025370	0.608426	0.408278
C33	C	0.568716	0.109151	-0.008654
C34	C	1.068716	0.609151	0.491346
C35	C	0.395280	0.106260	-0.008432
C36	C	0.895280	0.606260	0.491568
C37	C	0.301255	0.104689	-0.008313
C38	C	0.801255	0.604689	0.491687
C39	C	0.662747	0.110720	-0.008773
C40	C	1.162747	0.610720	0.491227
C41	C	0.988239	-0.036518	0.002850
C42	C	1.488239	0.463482	0.502850
C43	C	0.986703	-0.124088	0.009761
C44	C	1.486703	0.375912	0.509761
C45	C	0.985988	-0.165223	-0.070109
C46	C	1.485988	0.334777	0.429891
C47	C	0.984539	-0.247504	-0.063612
C48	C	1.484539	0.252496	0.436388
C49	C	0.983811	-0.288648	0.022755
C50	C	1.483811	0.211352	0.522755
C51	C	0.984524	-0.247507	0.102631
C52	C	1.484524	0.252493	0.602631
C53	C	0.985966	-0.165227	0.096134
C54	C	1.485966	0.334773	0.596134
C55	C	0.979449	-0.537080	0.046531
C56	C	1.479449	-0.037080	0.546531
C57	C	0.978008	-0.619366	0.053023
C58	C	1.478008	-0.119366	0.553023
C59	C	0.978022	-0.619357	-0.113221
C60	C	1.478022	-0.119357	0.386779
C61	C	0.979470	-0.537076	-0.119711
C62	C	1.479470	-0.037076	0.380289
C63	C	0.980178	-0.495941	-0.039835
C64	C	1.480178	0.004059	0.460165
C65	C	0.982333	-0.372753	0.029398
C66	C	1.482333	0.127247	0.529398
C67	C	0.981650	-0.411838	-0.046479
C68	C	1.481650	0.088162	0.453521
C69	C	1.134009	0.101908	-0.008088
C70	C	1.634009	0.601908	0.491912
C71	C	1.226303	0.103440	-0.008218
C72	C	1.726303	0.603440	0.491782
C73	C	0.975757	0.251929	-0.019930
C74	C	1.475757	0.751929	0.480070
C75	C	0.977293	0.339499	-0.026847
C76	C	1.477293	0.839499	0.473153
N77	N	0.981991	0.107702	0.208456
N78	N	1.481991	0.607702	0.708456
N79	N	0.982011	0.107702	-0.225534
N80	N	1.482011	0.607702	0.274466
C81	C	1.038595	0.054078	0.447696
C82	C	1.538595	0.554078	0.947696
C83	C	1.038598	0.054076	0.543678
C84	C	1.538598	0.554076	1.043678
C85	C	0.925401	0.161329	0.535219
C86	C	1.425401	0.661329	1.035219
C87	C	0.925395	0.161327	0.439240
C88	C	1.425395	0.661327	0.939240
C89	C	0.981997	0.107702	0.395481
C90	C	1.481997	0.607702	0.895481
C91	C	0.982005	0.107703	0.587442
C92	C	1.482005	0.607703	1.087442
C93	C	0.982008	0.107701	0.691509
C94	C	1.482008	0.607701	1.191509
C95	C	0.981994	0.107703	0.291407
C96	C	1.481994	0.607703	0.791407
H97	H	0.986585	-0.131729	-0.140438
H98	H	1.486585	0.368271	0.359562
C99	C	0.390932	0.106188	0.166128
C100	C	0.890932	0.606188	0.666128
N101	N	0.355005	0.105596	0.235047
N102	N	0.855005	0.605596	0.735047
C103	C	0.863167	0.220356	0.381797
C104	C	1.363167	0.720356	0.881797
N105	N	0.816312	0.264827	0.338529
N106	N	1.316312	0.764827	0.838529
H107	H	0.560641	0.109016	0.142160
H108	H	1.060641	0.609016	0.642160
H109	H	0.403348	0.106393	-0.159244
H110	H	0.903348	0.606393	0.340756
C111	C	1.100852	-0.004917	0.399565
C112	C	1.600852	0.495083	0.899565
N113	N	1.147744	-0.049356	0.363316
N114	N	1.647744	0.450644	0.863316
H115	H	0.560680	0.109015	-0.159456
H116	H	1.060680	0.609015	0.340544
H117	H	0.980064	-0.503581	-0.190041
H118	H	1.480064	-0.003581	0.309959
H119	H	0.983960	-0.280993	-0.128651
H120	H	1.483960	0.219007	0.371349
C121	C	0.986755	-0.119979	0.183997
C122	C	1.486755	0.380021	0.683997
N123	N	0.987347	-0.085900	0.250179
N124	N	1.487347	0.414100	0.750179
C125	C	0.977234	-0.664610	-0.201079
C126	C	1.477234	-0.164610	0.298921
N127	N	0.976636	-0.698695	-0.267257
N128	N	1.476636	-0.198695	0.232743
H129	H	0.977411	-0.652863	0.123357
H130	H	1.477411	-0.152863	0.623357
H131	H	0.879318	0.204990	0.570858
H132	H	1.379318	0.704990	1.070858
H133	H	0.982237	-0.378333	-0.116799
H134	H	1.482237	0.121667	0.383201
C135	C	0.980231	-0.491843	0.134398
C136	C	1.480231	0.008157	0.634398
N137	N	0.980822	-0.457768	0.200584
N138	N	1.480822	0.042232	0.700584
C139	C	0.983717	-0.292769	0.197636
C140	C	1.483717	0.207231	0.697636
N141	N	0.983111	-0.326859	0.269196
N142	N	1.483111	0.173141	0.769196
H143	H	0.981743	-0.406262	0.099718
H144	H	1.481743	0.093738	0.599718
C145	C	1.100854	-0.004921	0.601111
C146	C	1.600854	0.495079	1.101111
N147	N	1.147745	-0.049363	0.644370
N148	N	1.647745	0.450637	1.144370
