data_functionalizedCrystal
_audit_creation_method	'MofGen! by Chris Wilmer'
_symmetry_space_group_name_H-M	'P1'
_symmetry_Int_Tables_number	1
_symmetry_cell_setting	triclinic
loop_
_symmetry_equiv_pos_as_xyz
  x,y,z
_cell_length_a	14.044220
_cell_length_b	14.044191
_cell_length_c	12.503572
_cell_angle_alpha	93.847901
_cell_angle_beta	93.835250
_cell_angle_gamma	86.809673
loop_
_atom_site_label
_atom_site_type_symbol
_atom_site_fract_x
_atom_site_fract_y
_atom_site_fract_z
O1	O	-1.282205	0.225118	-0.089189
O2	O	-0.782205	0.725118	0.410811
O3	O	-1.005535	0.216811	-0.089217
O4	O	-0.505535	0.716811	0.410783
O5	O	-1.139713	0.082628	-0.089206
O6	O	-0.639713	0.582628	0.410794
O7	O	-1.148026	0.359301	-0.089201
O8	O	-0.648026	0.859301	0.410799
O9	O	-1.129624	0.092738	0.089435
O10	O	-0.629624	0.592738	0.589435
O11	O	-0.995445	0.226920	0.089424
O12	O	-0.495445	0.726920	0.589424
O13	O	-1.272115	0.235228	0.089452
O14	O	-0.772115	0.735228	0.589452
Cu15	Cu	-1.132859	0.231997	0.105749
Cu16	Cu	-0.632859	0.731997	0.605749
Cu17	Cu	-1.144791	0.220041	-0.105515
Cu18	Cu	-0.644791	0.720041	0.394485
O19	O	-1.137936	0.369410	0.089440
O20	O	-0.637936	0.869410	0.589440
C21	C	-0.964868	0.218230	0.000100
C22	C	-0.464868	0.718230	0.500100
C23	C	-0.858726	0.207385	0.000089
C24	C	-0.358726	0.707385	0.500089
C25	C	-1.131032	0.052061	0.000112
C26	C	-0.631032	0.552061	0.500112
C27	C	-1.120185	-0.054083	0.000102
C28	C	-0.620185	0.445917	0.500102
C29	C	-1.312782	0.233809	0.000132
C30	C	-0.812782	0.733809	0.500132
C31	C	-1.418925	0.244654	0.000136
C32	C	-0.918925	0.744654	0.500136
C33	C	-1.146618	0.399978	0.000120
C34	C	-0.646618	0.899978	0.500120
C35	C	-1.157465	0.506121	0.000123
C36	C	-0.657465	1.006121	0.500123
C37	C	-0.664386	0.187559	0.000110
C38	C	-0.164386	0.687559	0.500110
C39	C	-0.613258	0.264474	0.000115
C40	C	-0.113258	0.764474	0.500115
C41	C	-0.505121	0.253443	0.000127
C42	C	-0.005121	0.753443	0.500127
C43	C	-0.772533	0.198589	0.000098
C44	C	-0.272533	0.698589	0.500098
N45	N	-1.124473	0.240406	0.254341
N46	N	-0.624473	0.740406	0.754341
C47	C	-1.100365	0.751579	0.000108
C48	C	-0.600365	1.251579	0.500108
C49	C	-1.177281	0.700454	0.000117
C50	C	-0.677281	1.200454	0.500117
C51	C	-1.166252	0.592317	0.000120
C52	C	-0.666252	1.092317	0.500120
C53	C	-1.111392	0.859725	0.000105
C54	C	-0.611392	1.359725	0.500105
N55	N	-1.153183	0.211625	-0.254106
N56	N	-0.653183	0.711625	0.245894
C57	C	-1.112139	0.252784	0.473455
C58	C	-0.612139	0.752784	0.973455
C59	C	-1.165515	0.199250	0.526786
C60	C	-0.665515	0.699250	1.026786
C61	C	-1.158652	0.206138	0.648709
C62	C	-0.658652	0.706138	1.148709
C63	C	-1.119001	0.245898	0.351521
C64	C	-0.619001	0.745898	0.851521
H65	H	-0.626947	0.113432	0.000114
H66	H	-0.126947	0.613432	0.500114
C67	C	-0.726054	0.370363	-0.091772
C68	C	-0.226054	0.870363	0.408228
C69	C	-0.663786	0.364558	0.000080
C70	C	-0.163786	0.864558	0.500080
H71	H	-0.757243	0.432151	-0.091803
H72	H	-0.257243	0.932151	0.408197
H73	H	-0.772345	0.323568	-0.091758
H74	H	-0.272345	0.823568	0.408242
H75	H	-0.690796	0.359323	-0.154048
H76	H	-0.190796	0.859323	0.345952
H77	H	-0.699045	0.375591	0.062357
H78	H	-0.199045	0.875591	0.562357
H79	H	-0.617489	0.411367	0.000076
H80	H	-0.117489	0.911367	0.500076
H81	H	-1.061292	0.303786	0.519358
H82	H	-0.561292	0.803786	1.019358
C83	C	-1.321828	0.729728	0.091978
C84	C	-0.821828	1.229728	0.591978
C85	C	-1.277359	0.750993	0.000136
C86	C	-0.777359	1.250993	0.500136
H87	H	-1.383611	0.760929	0.091987
H88	H	-0.883611	1.260929	0.591987
H89	H	-1.284602	0.751200	0.154254
H90	H	-0.784602	1.251200	0.654254
H91	H	-1.327441	0.662633	0.091968
H92	H	-0.827441	1.162633	0.591968
H93	H	-1.271740	0.818088	0.000151
H94	H	-0.771740	1.318088	0.500151
H95	H	-1.314594	0.729526	-0.062156
H96	H	-0.814594	1.229526	0.437844
H97	H	-1.216367	0.148247	0.480878
H98	H	-0.716367	0.648247	0.980878
H99	H	-1.026239	0.714137	0.000103
H100	H	-0.526239	1.214137	0.500103
