data_functionalizedCrystal
_audit_creation_method	'MofGen! by Chris Wilmer'
_symmetry_space_group_name_H-M	'P1'
_symmetry_Int_Tables_number	1
_symmetry_cell_setting	triclinic
loop_
_symmetry_equiv_pos_as_xyz
  x,y,z
_cell_length_a	18.101395
_cell_length_b	12.759401
_cell_length_c	12.759393
_cell_angle_alpha	90.018496
_cell_angle_beta	89.966555
_cell_angle_gamma	89.968735
loop_
_atom_site_label
_atom_site_type_symbol
_atom_site_fract_x
_atom_site_fract_y
_atom_site_fract_z
Zn1	Zn	-0.294783	-1.606136	-0.593968
Zn2	Zn	-0.418644	-1.605980	-0.418282
Zn3	Zn	-0.294822	-1.430438	-0.418307
Zn4	Zn	-0.418587	-1.430376	-0.593923
O5	O	-0.356709	-1.518232	-0.506120
O6	O	-0.311221	-1.753136	-0.570671
O7	O	-0.402259	-1.582654	-0.271264
O8	O	-0.191183	-1.453835	-0.441638
O9	O	-0.402221	-1.753021	-0.441595
O10	O	-0.191155	-1.582920	-0.570695
O11	O	-0.311287	-1.453684	-0.271283
O12	O	-0.311232	-1.283408	-0.441595
O13	O	-0.402124	-1.453730	-0.740950
O14	O	-0.402162	-1.283363	-0.570619
O15	O	-0.311166	-1.582860	-0.740983
O16	O	-0.522270	-1.582594	-0.441552
O17	O	-0.522228	-1.453579	-0.570595
C18	C	-0.356695	-1.245265	-0.506106
C19	C	-0.356707	-1.128488	-0.506125
C20	C	-0.549120	-1.518092	-0.506089
C21	C	-0.631434	-1.518128	-0.506111
C22	C	-0.356634	-1.518306	-0.780153
C23	C	-0.356602	-1.518337	-0.896930
C24	C	-0.930525	-1.518358	-0.506168
C25	C	-0.899204	-1.437374	-0.587559
C26	C	-0.813586	-1.436989	-0.587305
C27	C	-0.782142	-1.518244	-0.506140
C28	C	-0.813302	-1.488263	-0.395415
C29	C	-0.898947	-1.487741	-0.395903
C30	C	-0.898866	-1.629501	-0.534526
C31	C	-0.813215	-1.628847	-0.536954
C32	C	-0.698283	-1.518181	-0.506118
C33	C	-1.014384	-1.518418	-0.506182
C34	C	-0.163547	-1.518402	-0.506174
C35	C	-0.081233	-1.518474	-0.506197
C36	C	-0.356723	-1.792265	-0.506135
C37	C	-0.356729	-1.909042	-0.506141
C38	C	-0.404131	-1.073630	-0.573197
C39	C	-0.404140	-0.963906	-0.573208
C40	C	-0.309301	-0.963908	-0.439066
C41	C	-0.309288	-1.073630	-0.439061
C42	C	-0.451550	-1.128488	-0.640260
C43	C	-0.498977	-1.073630	-0.707337
C44	C	-0.498987	-0.963906	-0.707348
C45	C	-0.451568	-0.909040	-0.640283
C46	C	-0.309236	-1.585584	-0.951811
C47	C	-0.309209	-1.585609	-1.061535
C48	C	-0.403922	-1.451137	-1.061488
C49	C	-0.403944	-1.451108	-0.951766
C50	C	-0.261894	-1.652814	-0.896975
C51	C	-0.214524	-1.720068	-0.951856
C52	C	-0.214497	-1.720092	-1.061580
C53	C	-0.261840	-1.652864	-1.116423
C54	C	-0.356730	-1.518219	-0.233153
C55	C	-0.356553	-1.518392	-0.116376
H56	H	-0.792516	-1.455746	-0.669407
Cl57	Cl	-0.249696	-0.894933	-0.354759
H58	H	-0.270667	-1.118297	-0.384453
Cl59	Cl	-0.261794	-1.652883	-1.254364
H60	H	-0.919120	-1.689837	-0.475245
H61	H	-0.175974	-1.774796	-0.907195
H62	H	-0.791806	-1.692377	-0.481993
H63	H	-0.537599	-0.919243	-0.761972
H64	H	-0.919669	-1.544168	-0.333192
Cl65	Cl	-0.451543	-1.266427	-0.640247
H66	H	-0.261912	-1.652803	-0.807632
Cl67	Cl	-0.154950	-1.804641	-1.130570
Cl68	Cl	-0.781767	-1.663758	-0.662765
Cl69	Cl	-0.558581	-1.142602	-0.791648
Cl70	Cl	-0.451576	-0.771100	-0.640308
Cl71	Cl	-0.930921	-1.466039	-0.714733
Cl72	Cl	-0.463438	-1.366632	-1.130435
Cl73	Cl	-0.929898	-1.362306	-0.358815
Cl74	Cl	-0.932549	-1.310959	-0.558947
Cl75	Cl	-0.782051	-1.309797	-0.558308
H76	H	-0.920408	-1.656833	-0.613890
Cl77	Cl	-0.781861	-1.576463	-0.299229
H78	H	-0.442503	-1.396333	-0.907081
H79	H	-0.791919	-1.407879	-0.370962
