data_functionalizedCrystal
_audit_creation_method	'MofGen! by Chris Wilmer'
_symmetry_space_group_name_H-M	'P1'
_symmetry_Int_Tables_number	1
_symmetry_cell_setting	triclinic
loop_
_symmetry_equiv_pos_as_xyz
  x,y,z
_cell_length_a	19.077105
_cell_length_b	29.839131
_cell_length_c	19.077569
_cell_angle_alpha	87.673679
_cell_angle_beta	85.299277
_cell_angle_gamma	87.737628
loop_
_atom_site_label
_atom_site_type_symbol
_atom_site_fract_x
_atom_site_fract_y
_atom_site_fract_z
Zn1	Zn	1.093625	-0.195626	-0.441828
Zn2	Zn	1.593625	0.304374	0.058172
Zn3	Zn	1.088771	-0.273652	-0.323930
Zn4	Zn	1.588771	0.226348	0.176070
Zn5	Zn	0.971007	-0.195633	-0.319224
Zn6	Zn	1.471007	0.304367	0.180776
Zn7	Zn	0.975670	-0.267822	-0.437050
Zn8	Zn	1.475670	0.232178	0.062950
O9	O	1.032268	-0.233183	-0.380508
O10	O	1.532268	0.266817	0.119492
O11	O	1.191630	-0.208413	-0.430158
O12	O	1.691630	0.291587	0.069842
O13	O	1.069167	-0.265745	-0.224654
O14	O	1.569167	0.234255	0.275346
O15	O	0.987353	-0.132766	-0.335518
O16	O	1.487353	0.367234	0.164482
O17	O	1.188064	-0.265739	-0.343538
O18	O	1.688064	0.234261	0.156462
O19	O	1.077440	-0.132761	-0.425595
O20	O	1.577440	0.367239	0.074405
O21	O	0.982646	-0.208424	-0.221196
O22	O	1.482646	0.291576	0.278804
O23	O	0.872977	-0.202772	-0.330885
O24	O	1.372977	0.297228	0.169115
O25	O	0.995300	-0.255803	-0.536336
O26	O	1.495300	0.244197	-0.036336
O27	O	0.876403	-0.255809	-0.417451
O28	O	1.376403	0.244191	0.082549
O29	O	1.081961	-0.202761	-0.539846
O30	O	1.581961	0.297239	-0.039846
O31	O	1.073688	-0.335745	-0.338905
O32	O	1.573688	0.164255	0.161095
O33	O	0.990593	-0.331462	-0.422014
O34	O	1.490593	0.168538	0.077986
C35	C	0.849111	-0.228659	-0.373139
C36	C	1.349111	0.271341	0.126861
C37	C	0.770756	-0.226734	-0.370003
C38	C	1.270756	0.273266	0.129997
C39	C	1.032140	-0.349904	-0.380468
C40	C	1.532140	0.150096	0.119532
C41	C	1.032150	-0.399838	-0.380477
C42	C	1.532150	0.100162	0.119523
C43	C	0.735744	-0.253488	-0.413530
C44	C	1.235744	0.246512	0.086470
C45	C	0.662122	-0.251674	-0.410587
C46	C	1.162122	0.248326	0.089413
C47	C	0.623512	-0.223106	-0.364113
C48	C	1.123512	0.276894	0.135887
C49	C	0.658529	-0.196349	-0.320585
C50	C	1.158529	0.303651	0.179415
C51	C	0.732151	-0.198162	-0.323532
C52	C	1.232151	0.301838	0.176468
C53	C	0.403135	-0.214716	-0.350478
C54	C	0.903135	0.285284	0.149522
C55	C	0.329509	-0.212907	-0.347532
C56	C	0.829509	0.287093	0.152468
C57	C	0.333106	-0.268231	-0.437535
C58	C	0.833106	0.231769	0.062465
C59	C	0.406728	-0.270043	-0.440475
C60	C	0.906728	0.229957	0.059525
C61	C	0.441739	-0.243284	-0.396950
C62	C	0.941739	0.256716	0.103050
N63	N	0.548258	-0.221252	-0.361103
N64	N	1.048258	0.278748	0.138897
N65	N	0.516992	-0.245137	-0.399965
N66	N	1.016992	0.254863	0.100035
C67	C	1.075620	-0.711701	-0.337302
C68	C	1.575620	-0.211701	0.162698
C69	C	1.075709	-0.899376	-0.337333
C70	C	1.575709	-0.399376	0.162667
O71	O	1.112566	-0.925527	-0.300594
O72	O	1.612566	-0.425527	0.199406
N73	N	1.032417	-0.920628	-0.380567
N74	N	1.532417	-0.420628	0.119433
C75	C	0.989103	-0.894957	-0.423800
C76	C	1.489103	-0.394957	0.076200
O77	O	0.952288	-0.917340	-0.460579
O78	O	1.452288	-0.417340	0.039421
C79	C	0.989019	-0.707284	-0.423772
C80	C	1.489019	-0.207284	0.076228
C81	C	1.032309	-0.686035	-0.380530
C82	C	1.532309	-0.186035	0.119470
C83	C	1.118907	-0.690452	-0.294064
C84	C	1.618907	-0.190452	0.205936
C85	C	1.118882	-0.643536	-0.294054
C86	C	1.618882	-0.143536	0.205946
C87	C	1.075570	-0.617870	-0.337282
C88	C	1.575570	-0.117870	0.162718
C89	C	1.032283	-0.639119	-0.380520
C90	C	1.532283	-0.139119	0.119480
C91	C	0.945710	-0.681615	-0.467008
C92	C	1.445710	-0.181615	0.032992
C93	C	0.945694	-0.634693	-0.466998
C94	C	1.445694	-0.134693	0.033002
C95	C	0.988984	-0.613444	-0.423757
C96	C	1.488984	-0.113444	0.076243
C97	C	0.988946	-0.566537	-0.423738
C98	C	1.488946	-0.066537	0.076262
N99	N	1.032238	-0.545285	-0.380504
N100	N	1.532238	-0.045285	0.119496
C101	C	1.075550	-0.570952	-0.337276
C102	C	1.575550	-0.070952	0.162724
C103	C	0.989149	-0.993489	-0.423810
C104	C	1.489149	-0.493489	0.076190
C105	C	0.989169	-1.040407	-0.423816
C106	C	1.489169	-0.540407	0.076184
C107	C	1.075776	-1.044822	-0.337351
C108	C	1.575776	-0.544822	0.162649
C109	C	1.075752	-0.997903	-0.337341
C110	C	1.575752	-0.497903	0.162659
C111	C	1.032441	-0.972237	-0.380576
C112	C	1.532441	-0.472237	0.119424
C113	C	1.075493	-0.472425	-0.337258
C114	C	1.575493	0.027575	0.162742
C115	C	1.075462	-0.425505	-0.337249
C116	C	1.575462	0.074495	0.162751
C117	C	0.988858	-0.421093	-0.423717
C118	C	1.488858	0.078907	0.076283
C119	C	0.988887	-0.468010	-0.423723
C120	C	1.488887	0.031990	0.076277
C121	C	1.032210	-0.493674	-0.380491
C122	C	1.532210	0.006326	0.119509
O123	O	0.952114	-0.540358	-0.460464
O124	O	1.452114	-0.040358	0.039536
O125	O	1.112371	-0.548561	-0.300514
O126	O	1.612371	-0.048561	0.199486
C127	C	1.075646	-0.758617	-0.337312
C128	C	1.575646	-0.258617	0.162688
C129	C	1.032359	-0.779867	-0.380550
C130	C	1.532359	-0.279867	0.119450
C131	C	0.989047	-0.754200	-0.423778
C132	C	1.489047	-0.254200	0.076222
C133	C	1.032379	-0.826785	-0.380556
C134	C	1.532379	-0.326785	0.119444
C135	C	1.075691	-0.852451	-0.337329
C136	C	1.575691	-0.352451	0.162671
C137	C	1.118983	-0.831200	-0.294095
C138	C	1.618983	-0.331200	0.205905
C139	C	1.118957	-0.784284	-0.294085
C140	C	1.618957	-0.284284	0.205915
C141	C	0.945756	-0.775451	-0.467012
C142	C	1.445756	-0.275451	0.032988
C143	C	0.945784	-0.822368	-0.467018
C144	C	1.445784	-0.322368	0.032982
C145	C	0.989096	-0.848034	-0.423790
C146	C	1.489096	-0.348034	0.076210
C147	C	1.216141	-0.237725	-0.387906
C148	C	1.716141	0.262275	0.112094
C149	C	1.294496	-0.239661	-0.391059
C150	C	1.794496	0.260339	0.108941
C151	C	1.039692	-0.228631	-0.564385
C152	C	1.539692	0.271369	-0.064385
C153	C	1.042856	-0.226691	-0.642743
C154	C	1.542856	0.273309	-0.142743
C155	C	1.032417	-0.116007	-0.380564
C156	C	1.532417	0.383993	0.119436
C157	C	1.032481	-0.066074	-0.380589
C158	C	1.532481	0.433926	0.119411
C159	C	0.999223	-0.253394	-0.677729
C160	C	1.499223	0.246606	-0.177729
C161	C	1.002202	-0.251571	-0.751354
C162	C	1.502202	0.248429	-0.251354
C163	C	1.048809	-0.223043	-0.789993
C164	C	1.548809	0.276957	-0.289993
C165	C	1.092447	-0.196339	-0.755002
C166	C	1.592447	0.303661	-0.255002
C167	C	1.089471	-0.198164	-0.681378
C168	C	1.589471	0.301836	-0.181378
C169	C	1.062549	-0.214625	-1.010381
C170	C	1.562549	0.285375	-0.510381
C171	C	1.065520	-0.212800	-1.084010
C172	C	1.565520	0.287200	-0.584010
C173	C	0.975275	-0.268033	-1.080358
C174	C	1.475275	0.231967	-0.580358
C175	C	0.972301	-0.269854	-1.006732
C176	C	1.472301	0.230146	-0.506732
C177	C	1.015941	-0.243152	-0.971748
C178	C	1.515941	0.256848	-0.471748
N179	N	1.051853	-0.221178	-0.865250
N180	N	1.551853	0.278822	-0.365250
N181	N	1.012900	-0.245019	-0.896492
N182	N	1.512900	0.254981	-0.396492
C183	C	1.024914	-0.237686	-0.197348
C184	C	1.524914	0.262314	0.302652
C185	C	1.021887	-0.239503	-0.118996
C186	C	1.521887	0.260497	0.381004
H187	H	0.767175	-0.276753	-0.451371
H188	H	1.267175	0.223247	0.048629
H189	H	1.154134	-0.626238	-0.258845
H190	H	1.654134	-0.126238	0.241155
C191	C	0.907201	-0.560811	-0.505392
C192	C	1.407201	-0.060811	-0.005392
C193	C	0.898084	-0.606482	-0.514524
C194	C	1.398084	-0.106482	-0.014524
H195	H	0.877811	-0.543396	-0.534734
H196	H	1.377811	-0.043396	-0.034734
H197	H	0.895001	-0.554061	-0.457608
H198	H	1.395001	-0.054061	0.042392
H199	H	0.954974	-0.554003	-0.517650
H200	H	1.454974	-0.054003	-0.017650
H201	H	0.850312	-0.613291	-0.502260
H202	H	1.350312	-0.113291	-0.002260
H203	H	0.910280	-0.613234	-0.562318
H204	H	1.410280	-0.113234	-0.062318
H205	H	0.953639	-0.485311	-0.458937
H206	H	1.453639	0.014689	0.041063
H207	H	0.934359	-0.293092	-0.975279
H208	H	1.434359	0.206908	-0.475279
C209	C	0.215054	-0.185547	-0.303079
C210	C	0.715054	0.314453	0.196921
C211	C	0.287067	-0.181489	-0.296467
C212	C	0.787067	0.318511	0.203533
H213	H	0.188854	-0.166151	-0.271557
H214	H	0.688854	0.333849	0.228443
H215	H	0.204933	-0.177564	-0.349985
H216	H	0.704933	0.322436	0.150015
H217	H	0.202536	-0.215680	-0.292168
H218	H	0.702536	0.284320	0.207832
H219	H	0.299586	-0.151357	-0.307383
H220	H	0.799586	0.348643	0.192617
H221	H	0.297193	-0.189470	-0.249551
H222	H	0.797193	0.310530	0.250449
H223	H	0.633618	-0.273460	-0.446030
H224	H	1.133618	0.226540	0.053970
C225	C	1.152041	-0.159842	-1.021396
C226	C	1.652041	0.340158	-0.521396
C227	C	1.110511	-0.185270	-0.971932
C228	C	1.610511	0.314730	-0.471932
H229	H	1.181648	-0.141717	-0.997656
H230	H	1.681648	0.358283	-0.497656
H231	H	1.180141	-0.179370	-1.051187
H232	H	1.680141	0.320630	-0.551187
H233	H	1.122498	-0.141190	-1.048885
H234	H	1.622498	0.358810	-0.548885
H235	H	1.140054	-0.203924	-0.944447
H236	H	1.640054	0.296076	-0.444447
H237	H	1.082409	-0.165740	-0.942129
H238	H	1.582409	0.334260	-0.442129
H239	H	0.438159	-0.293307	-0.478317
H240	H	0.938159	0.206693	0.021683
H241	H	1.154247	-0.852106	-0.258895
H242	H	1.654247	-0.352106	0.241105
C243	C	0.254159	-0.270177	-0.529033
C244	C	0.754159	0.229823	-0.029033
C245	C	0.294619	-0.297638	-0.485384
C246	C	0.794619	0.202362	0.014616
H247	H	0.230403	-0.288332	-0.558578
H248	H	0.730403	0.211668	-0.058578
H249	H	0.220633	-0.252909	-0.500931
H250	H	0.720633	0.247091	-0.000931
H251	H	0.284006	-0.250670	-0.557200
H252	H	0.784006	0.249330	-0.057200
H253	H	0.264772	-0.317143	-0.457212
H254	H	0.764772	0.182857	0.042788
H255	H	0.328149	-0.314913	-0.513489
H256	H	0.828149	0.185087	-0.013489
C257	C	1.081777	-0.947750	-0.242905
C258	C	1.581777	-0.447750	0.257095
C259	C	1.123339	-0.974549	-0.289812
C260	C	1.623339	-0.474549	0.210188
H261	H	1.111159	-0.933336	-0.213559
H262	H	1.611159	-0.433336	0.286441
H263	H	1.055991	-0.925747	-0.268649
H264	H	1.555991	-0.425747	0.231351
H265	H	1.050002	-0.965994	-0.214686
H266	H	1.550002	-0.465994	0.285314
H267	H	1.155111	-0.956304	-0.318034
H268	H	1.655111	-0.456304	0.181966
H269	H	1.149137	-0.996554	-0.264065
H270	H	1.649137	-0.496554	0.235935
H271	H	1.125001	-0.176420	-0.652893
H272	H	1.625001	0.323580	-0.152893
H273	H	0.953912	-1.057704	-0.459021
H274	H	1.453912	-0.557704	0.040979
H275	H	1.130399	-0.173113	-0.786467
H276	H	1.630399	0.326887	-0.286467
C277	C	0.894680	-0.938209	-0.429710
C278	C	1.394680	-0.438209	0.070290
C279	C	0.941534	-0.965278	-0.471332
C280	C	1.441534	-0.465278	0.028668
H281	H	0.865286	-0.920792	-0.459048
H282	H	1.365286	-0.420792	0.040952
H283	H	0.866513	-0.956633	-0.397894
H284	H	1.366513	-0.456633	0.102106
H285	H	0.920466	-0.918837	-0.403968
H286	H	1.420466	-0.418837	0.096032
H287	H	0.915748	-0.984653	-0.497071
H288	H	1.415748	-0.484653	0.002929
H289	H	0.969704	-0.946852	-0.503160
H290	H	1.469704	-0.446852	-0.003160
C291	C	0.392174	-0.159849	-0.261220
C292	C	0.892174	0.340151	0.238780
C293	C	0.441613	-0.185304	-0.302634
C294	C	0.941613	0.314696	0.197366
H295	H	0.415932	-0.141692	-0.231680
H296	H	0.915932	0.358308	0.268320
H297	H	0.364724	-0.141232	-0.290838
H298	H	0.864724	0.358768	0.209162
H299	H	0.362344	-0.179363	-0.233046
H300	H	0.862344	0.320637	0.266954
H301	H	0.471439	-0.165789	-0.330811
H302	H	0.971439	0.334211	0.169189
H303	H	0.469075	-0.203923	-0.273012
H304	H	0.969075	0.296077	0.226988
C305	C	0.959254	-0.402833	-0.541676
C306	C	1.459254	0.097167	-0.041676
C307	C	0.941259	-0.392874	-0.471239
C308	C	1.441259	0.107126	0.028761
H309	H	0.929869	-0.385411	-0.571016
H310	H	1.429869	0.114589	-0.071016
H311	H	1.007023	-0.396025	-0.553919
H312	H	1.507023	0.103975	-0.053919
H313	H	0.953061	-0.433816	-0.547865
H314	H	1.453061	0.066184	-0.047865
H315	H	0.947457	-0.361891	-0.465049
H316	H	1.447457	0.138109	0.034951
H317	H	0.893478	-0.399678	-0.458992
H318	H	1.393478	0.100322	0.041008
C319	C	0.544077	-0.169004	-0.276105
C320	C	1.044077	0.330996	0.223895
C321	C	0.616092	-0.164945	-0.269503
C322	C	1.116092	0.335055	0.230497
H323	H	0.517881	-0.149618	-0.244564
H324	H	1.017881	0.350382	0.255436
H325	H	0.533946	-0.161008	-0.323003
H326	H	1.033946	0.338992	0.176997
H327	H	0.531565	-0.199140	-0.265212
H328	H	1.031565	0.300860	0.234788
H329	H	0.628605	-0.134810	-0.280401
H330	H	1.128605	0.365190	0.219599
H331	H	0.626228	-0.172939	-0.222594
H332	H	1.126228	0.327061	0.277406
C333	C	1.204498	-0.690091	-0.208591
C334	C	1.704498	-0.190091	0.291409
C335	C	1.166516	-0.718660	-0.246538
C336	C	1.666516	-0.218660	0.253462
H337	H	1.233886	-0.707504	-0.179242
H338	H	1.733886	-0.207504	0.320758
H339	H	1.232671	-0.671674	-0.240412
H340	H	1.732671	-0.171674	0.259588
H341	H	1.172695	-0.671725	-0.180373
H342	H	1.672695	-0.171725	0.319627
H343	H	1.198320	-0.737024	-0.274760
H344	H	1.698320	-0.237024	0.225240
H345	H	1.138341	-0.737085	-0.214713
H346	H	1.638341	-0.237085	0.285287
C347	C	0.721205	-0.143302	-0.234262
C348	C	1.221205	0.356698	0.265738
C349	C	0.770639	-0.168756	-0.275680
C350	C	1.270639	0.331244	0.224320
H351	H	0.744966	-0.125150	-0.204717
H352	H	1.244966	0.374850	0.295283
H353	H	0.693759	-0.124678	-0.263876
H354	H	1.193759	0.375322	0.236124
H355	H	0.691370	-0.162815	-0.206093
H356	H	1.191370	0.337185	0.293907
H357	H	0.800470	-0.149242	-0.303853
H358	H	1.300470	0.350758	0.196147
H359	H	0.798096	-0.187381	-0.246062
H360	H	1.298096	0.312619	0.253938
H361	H	1.110713	-0.408205	-0.302034
H362	H	1.610713	0.091795	0.197966
C363	C	1.161089	-0.472063	-0.251780
C364	C	1.661089	0.027937	0.248220
C365	C	1.123109	-0.500631	-0.289731
C366	C	1.623109	-0.000631	0.210269
H367	H	1.190478	-0.489478	-0.222434
H368	H	1.690478	0.010522	0.277566
H369	H	1.189260	-0.453644	-0.283599
H370	H	1.689260	0.046356	0.216401
H371	H	1.129285	-0.453700	-0.223559
H372	H	1.629285	0.046300	0.276441
H373	H	1.154913	-0.518992	-0.317957
H374	H	1.654913	-0.018992	0.182043
H375	H	1.094935	-0.519058	-0.257909
H376	H	1.594935	-0.019058	0.242091
H377	H	1.111042	-1.065728	-0.302153
H378	H	1.611042	-0.565728	0.197847
C379	C	0.860121	-0.672518	-0.552487
C380	C	1.360121	-0.172518	-0.052487
C381	C	0.898129	-0.704963	-0.514547
C382	C	1.398129	-0.204963	-0.014547
H383	H	0.830749	-0.686932	-0.581841
H384	H	1.330749	-0.186932	-0.081841
H385	H	0.831931	-0.654342	-0.520662
H386	H	1.331931	-0.154342	-0.020662
H387	H	0.891909	-0.654279	-0.580699
H388	H	1.391909	-0.154279	-0.080699
H389	H	0.866341	-0.723200	-0.486331
H390	H	1.366341	-0.223200	0.013669
H391	H	0.926321	-0.723146	-0.546376
H392	H	1.426321	-0.223146	-0.046376
H393	H	1.154208	-0.766987	-0.258873
H394	H	1.654208	-0.266987	0.241127
H395	H	0.961262	-0.276619	-0.646275
H396	H	1.461262	0.223381	-0.146275
C397	C	0.860183	-0.813279	-0.552496
C398	C	1.360183	-0.313279	-0.052496
C399	C	0.898197	-0.845721	-0.514556
C400	C	1.398197	-0.345721	-0.014556
H401	H	0.830813	-0.827696	-0.581849
H402	H	1.330813	-0.327696	-0.081849
H403	H	0.831990	-0.795105	-0.520671
H404	H	1.331990	-0.295105	-0.020671
H405	H	0.891967	-0.795038	-0.580709
H406	H	1.391967	-0.295038	-0.080709
H407	H	0.866412	-0.863960	-0.486339
H408	H	1.366412	-0.363960	0.013661
H409	H	0.926392	-0.863902	-0.546386
H410	H	1.426392	-0.363902	-0.046386
H411	H	0.910487	-0.754557	-0.502214
H412	H	1.410487	-0.254557	-0.002214
H413	H	0.966672	-0.273316	-0.779837
H414	H	1.466672	0.226684	-0.279837
C415	C	1.163699	-0.206856	-1.170626
C416	C	1.663699	0.293144	-0.670626
C417	C	1.116761	-0.181444	-1.126482
C418	C	1.616761	0.318556	-0.626482
H419	H	1.195329	-0.187497	-1.196848
H420	H	1.695329	0.312503	-0.696848
H421	H	1.189474	-0.227805	-1.142980
H422	H	1.689474	0.272195	-0.642980
H423	H	1.138127	-0.222493	-1.201996
H424	H	1.638127	0.277507	-0.701996
H425	H	1.142334	-0.165808	-1.095108
H426	H	1.642334	0.334192	-0.595108
H427	H	1.090985	-0.160486	-1.154130
H428	H	1.590985	0.339514	-0.654130
H429	H	0.939746	-0.289773	-1.108850
H430	H	1.439746	0.210227	-0.608850
