data_functionalizedCrystal
_audit_creation_method	'MofGen! by Chris Wilmer'
_symmetry_space_group_name_H-M	'P1'
_symmetry_Int_Tables_number	1
_symmetry_cell_setting	triclinic
loop_
_symmetry_equiv_pos_as_xyz
  x,y,z
_cell_length_a	27.732048
_cell_length_b	19.288859
_cell_length_c	17.766277
_cell_angle_alpha	89.989768
_cell_angle_beta	89.998625
_cell_angle_gamma	97.111810
loop_
_atom_site_label
_atom_site_type_symbol
_atom_site_fract_x
_atom_site_fract_y
_atom_site_fract_z
O1	O	-0.060286	0.920980	-0.062596
O2	O	0.273048	1.254313	0.270737
O3	O	0.606381	1.587646	0.604070
O4	O	-0.068423	0.718668	-0.062593
O5	O	0.264910	1.052001	0.270741
O6	O	0.598244	1.385334	0.604074
O7	O	0.006023	0.826107	-0.062605
O8	O	0.339357	1.159440	0.270729
O9	O	0.672690	1.492774	0.604062
O10	O	-0.134732	0.813540	-0.062584
O11	O	0.198601	1.146874	0.270749
O12	O	0.531934	1.480207	0.604082
O13	O	0.006027	0.826088	0.062584
O14	O	0.339361	1.159422	0.395917
O15	O	0.672694	1.492755	0.729251
O16	O	-0.068419	0.718649	0.062596
O17	O	0.264914	1.051982	0.395929
O18	O	0.598247	1.385316	0.729262
O19	O	-0.060282	0.920961	0.062592
O20	O	0.273051	1.254294	0.395926
O21	O	0.606385	1.587628	0.729259
Cu22	Cu	-0.064350	0.819803	0.074025
Cu23	Cu	0.268983	1.153137	0.407358
Cu24	Cu	0.602316	1.486470	0.740691
Cu25	Cu	-0.064355	0.819825	-0.074025
Cu26	Cu	0.268979	1.153159	0.259308
Cu27	Cu	0.602312	1.486492	0.592641
O28	O	-0.134728	0.813522	0.062604
O29	O	0.198605	1.146855	0.395937
O30	O	0.531938	1.480188	0.729271
C31	C	-0.068160	0.692783	0.000002
C32	C	0.265173	1.026117	0.333335
C33	C	0.598507	1.359450	0.666668
C34	C	-0.067375	0.615685	0.000002
C35	C	0.265958	0.949018	0.333336
C36	C	0.599291	1.282351	0.666669
C37	C	-0.105750	0.051404	0.000007
C38	C	0.227583	0.384738	0.333340
C39	C	0.560916	0.718071	0.666673
C40	C	-0.106492	0.123846	0.000003
C41	C	0.226842	0.457180	0.333336
C42	C	0.560175	0.790513	0.666670
C43	C	-0.062810	0.168826	-0.000002
C44	C	0.270524	0.502159	0.333331
C45	C	0.603857	0.835492	0.666665
C46	C	-0.018383	0.141358	-0.000022
C47	C	0.314950	0.474691	0.333311
C48	C	0.648283	0.808024	0.666644
C49	C	-0.017643	0.068917	-0.000026
C50	C	0.315690	0.402250	0.333307
C51	C	0.649024	0.735584	0.666641
C52	C	-0.030231	0.290293	0.043855
C53	C	0.303103	0.623626	0.377189
C54	C	0.636436	0.956959	0.710522
C55	C	-0.030973	0.362732	0.043864
C56	C	0.302361	0.696065	0.377197
C57	C	0.635694	1.029398	0.710530
C58	C	-0.065091	0.392257	0.000006
C59	C	0.268243	0.725591	0.333339
C60	C	0.601576	1.058924	0.666673
C61	C	-0.098475	0.349333	-0.043850
C62	C	0.234859	0.682667	0.289483
C63	C	0.568192	1.016000	0.622817
C64	C	-0.097735	0.276893	-0.043854
C65	C	0.235599	0.610226	0.289480
C66	C	0.568932	0.943559	0.622813
C67	C	-0.063607	0.247376	0.000002
C68	C	0.269726	0.580710	0.333335
C69	C	0.603059	0.914043	0.666668
C70	C	-0.110318	0.498267	0.000017
C71	C	0.223015	0.831600	0.333350
C72	C	0.556348	1.164933	0.666684
C73	C	-0.111058	0.570710	0.000008
C74	C	0.222276	0.904044	0.333342
C75	C	0.555609	1.237377	0.666675
C76	C	-0.022948	0.588220	-0.000009
C77	C	0.310385	0.921554	0.333324
C78	C	0.643719	1.254887	0.666657
C79	C	-0.022210	0.515778	-0.000008
C80	C	0.311124	0.849111	0.333325
C81	C	0.644457	1.182445	0.666658
C82	C	-0.065896	0.470805	0.000008
C83	C	0.267437	0.804139	0.333342
C84	C	0.600770	1.137472	0.666675
C85	C	-0.152738	0.813795	0.000012
C86	C	0.180595	1.147128	0.333346
C87	C	0.513929	1.480461	0.666679
C88	C	-0.206395	0.814589	0.000020
C89	C	0.126938	1.147922	0.333353
C90	C	0.460271	1.481256	0.666686
C91	C	-0.545035	0.756100	-0.000016
C92	C	-0.211701	1.089433	0.333318
C93	C	0.121632	1.422767	0.666651
C94	C	-0.746703	0.759047	-0.000025
C95	C	-0.413370	1.092381	0.333309
C96	C	-0.080036	1.425714	0.666642
O97	O	-0.777798	0.705563	-0.000057
O98	O	-0.444465	1.038897	0.333277
O99	O	-0.111131	1.372230	0.666610
N100	N	-0.766018	0.822754	-0.000025
N101	N	-0.432685	1.156088	0.333309
N102	N	-0.099352	1.489421	0.666642
C103	C	-0.734913	0.885729	-0.000027
C104	C	-0.401580	1.219063	0.333306
C105	C	-0.068246	1.552396	0.666639
O106	O	-0.755969	0.939984	-0.000035
O107	O	-0.422636	1.273317	0.333298
O108	O	-0.089302	1.606650	0.666631
C109	C	-0.533245	0.882781	-0.000024
C110	C	-0.199912	1.216115	0.333310
C111	C	0.133421	1.549448	0.666643
C112	C	-0.513933	0.819070	-0.000016
C113	C	-0.180600	1.152403	0.333317
C114	C	0.152733	1.485737	0.666651
C115	C	-0.525722	0.692394	-0.000009
C116	C	-0.192389	1.025727	0.333325
C117	C	0.140945	1.359061	0.666658
C118	C	-0.475308	0.691658	-0.000002
C119	C	-0.141974	1.024991	0.333331
C120	C	0.191359	1.358325	0.666664
C121	C	-0.444206	0.754628	-0.000003
C122	C	-0.110873	1.087961	0.333330
C123	C	0.222460	1.421295	0.666664
C124	C	-0.463519	0.818334	-0.000010
C125	C	-0.130186	1.151667	0.333324
C126	C	0.203148	1.485001	0.666657
C127	C	-0.502141	0.945755	-0.000032
C128	C	-0.168808	1.279089	0.333302
C129	C	0.164526	1.612422	0.666635
C130	C	-0.451721	0.945013	-0.000033
C131	C	-0.118388	1.278346	0.333301
C132	C	0.214945	1.611679	0.666634
C133	C	-0.432409	0.881302	-0.000025
C134	C	-0.099076	1.214635	0.333308
C135	C	0.234257	1.547968	0.666642
C136	C	-0.382003	0.880568	-0.000004
C137	C	-0.048670	1.213901	0.333330
C138	C	0.284663	1.547234	0.666663
N139	N	-0.362688	0.816861	-0.000004
N140	N	-0.029355	1.150194	0.333330
N141	N	0.303978	1.483527	0.666663
C142	C	-0.393790	0.753891	-0.000003
C143	C	-0.060456	1.087224	0.333330
C144	C	0.272877	1.420557	0.666663
C145	C	-0.840792	0.887272	-0.000028
C146	C	-0.507458	1.220606	0.333306
C147	C	-0.174125	1.553939	0.666639
C148	C	-0.891208	0.888010	-0.000027
C149	C	-0.557875	1.221343	0.333306
C150	C	-0.224542	1.554676	0.666639
C151	C	-0.902995	0.761327	-0.000026
C152	C	-0.569662	1.094661	0.333307
C153	C	-0.236328	1.427994	0.666641
C154	C	-0.852577	0.760591	-0.000021
C155	C	-0.519244	1.093924	0.333312
C156	C	-0.185911	1.427258	0.666646
C157	C	-0.821476	0.823565	-0.000028
C158	C	-0.488143	1.156899	0.333306
C159	C	-0.154810	1.490232	0.666639
C160	C	-0.287916	0.752350	0.000011
C161	C	0.045417	1.085683	0.333344
C162	C	0.378751	1.419016	0.666677
C163	C	-0.237497	0.751619	0.000020
C164	C	0.095837	1.084952	0.333354
C165	C	0.429170	1.418286	0.666687
C166	C	-0.225714	0.878301	0.000015
C167	C	0.107619	1.211634	0.333348
C168	C	0.440952	1.544968	0.666682
C169	C	-0.276129	0.879032	0.000009
C170	C	0.057204	1.212365	0.333343
C171	C	0.390538	1.545699	0.666676
C172	C	-0.307229	0.816051	0.000005
C173	C	0.026104	1.149384	0.333338
C174	C	0.359438	1.482717	0.666671
O175	O	-0.350880	0.934023	0.000020
O176	O	-0.017547	1.267356	0.333353
O177	O	0.315787	1.600690	0.666687
O178	O	-0.372724	0.699644	-0.000012
O179	O	-0.039391	1.032978	0.333321
O180	O	0.293943	1.366311	0.666655
C181	C	-0.595449	0.756836	-0.000022
C182	C	-0.262115	1.090170	0.333311
C183	C	0.071218	1.423503	0.666645
C184	C	-0.614762	0.820542	-0.000029
C185	C	-0.281428	1.153876	0.333305
C186	C	0.051905	1.487209	0.666638
C187	C	-0.583660	0.883512	-0.000029
C188	C	-0.250327	1.216846	0.333304
C189	C	0.083007	1.550179	0.666638
C190	C	-0.665178	0.821279	-0.000028
C191	C	-0.331845	1.154613	0.333305
C192	C	0.001489	1.487946	0.666638
C193	C	-0.696280	0.758310	-0.000028
C194	C	-0.362946	1.091643	0.333305
C195	C	-0.029613	1.424976	0.666639
C196	C	-0.676964	0.694602	-0.000028
C197	C	-0.343631	1.027936	0.333305
C198	C	-0.010298	1.361269	0.666639
C199	C	-0.626550	0.693866	-0.000022
C200	C	-0.293217	1.027200	0.333312
C201	C	0.040116	1.360533	0.666645
C202	C	-0.602975	0.947219	-0.000029
C203	C	-0.269642	1.280553	0.333304
C204	C	0.063691	1.613886	0.666638
C205	C	-0.653390	0.947950	-0.000035
C206	C	-0.320057	1.281284	0.333299
C207	C	0.013277	1.614617	0.666632
C208	C	-0.684491	0.884980	-0.000034
C209	C	-0.351158	1.218314	0.333299
C210	C	-0.017825	1.551647	0.666632
C211	C	0.024033	0.825834	-0.000014
C212	C	0.357366	1.159167	0.333319
C213	C	0.690700	1.492501	0.666652
C214	C	0.077690	0.825040	-0.000027
C215	C	0.411024	1.158373	0.333307
C216	C	0.744357	1.491706	0.666640
C217	C	-0.060545	0.946845	-0.000004
C218	C	0.272788	1.280179	0.333330
C219	C	0.606122	1.613512	0.666663
C220	C	-0.061330	1.023944	-0.000009
C221	C	0.272004	1.357277	0.333324
C222	C	0.605337	1.690611	0.666657
N223	N	-0.064347	0.819793	0.178155
N224	N	0.268987	1.153126	0.511488
N225	N	0.602320	1.486459	0.844822
N226	N	-0.064354	0.819841	-0.178156
N227	N	0.268979	1.153175	0.155178
N228	N	0.602312	1.486508	0.488511
C229	C	-0.031398	0.867382	0.217537
C230	C	0.301935	1.200715	0.550870
C231	C	0.635269	1.534049	0.884203
C232	C	-0.031396	0.867386	0.296339
C233	C	0.301938	1.200719	0.629672
C234	C	0.635271	1.534053	0.963005
C235	C	-0.064351	0.819807	0.335756
C236	C	0.268983	1.153141	0.669089
C237	C	0.602316	1.486474	1.002422
C238	C	-0.097302	0.772209	0.296364
C239	C	0.236031	1.105543	0.629698
C240	C	0.569365	1.438876	0.963031
C241	C	-0.097300	0.772202	0.217564
C242	C	0.236033	1.105535	0.550897
C243	C	0.569367	1.438869	0.884231
C244	C	-0.108393	0.810234	0.460600
C245	C	0.224940	1.143567	0.793933
C246	C	0.558273	1.476901	1.127267
C247	C	-0.108396	0.810246	0.539399
C248	C	0.224937	1.143579	0.872732
C249	C	0.558271	1.476913	1.206065
C250	C	-0.064356	0.819826	0.578802
C251	C	0.268977	1.153159	0.912135
C252	C	0.602310	1.486493	1.245469
C253	C	-0.020312	0.829408	0.539397
C254	C	0.313021	1.162742	0.872730
C255	C	0.646354	1.496075	1.206063
C256	C	-0.020311	0.829401	0.460596
C257	C	0.313023	1.162734	0.793930
C258	C	0.646356	1.496068	1.127263
C259	C	-0.064356	0.819810	0.421201
C260	C	0.268977	1.153143	0.754535
C261	C	0.602310	1.486476	1.087868
C262	C	-0.031402	0.867422	0.703630
C263	C	0.301931	1.200756	1.036963
C264	C	0.635264	1.534089	1.370296
C265	C	-0.031400	0.867421	0.782433
C266	C	0.301934	1.200755	1.115766
C267	C	0.635267	1.534088	1.449100
C268	C	-0.097310	0.772248	0.782457
C269	C	0.236023	1.105581	1.115791
C270	C	0.569357	1.438914	1.449124
C271	C	-0.097309	0.772245	0.703655
C272	C	0.236025	1.105579	1.036989
C273	C	0.569358	1.438912	1.370322
C274	C	-0.064355	0.819836	0.664246
C275	C	0.268978	1.153170	0.997580
C276	C	0.602311	1.486503	1.330913
H277	H	-0.142665	0.146209	0.000023
H278	H	0.190668	0.479542	0.333356
H279	H	0.524001	0.812876	0.666690
Cl280	Cl	-0.526406	1.025855	-0.000059
Cl281	Cl	-0.193073	1.359188	0.333274
Cl282	Cl	0.140260	1.692521	0.666607
Cl283	Cl	0.012689	0.253188	0.098952
Cl284	Cl	0.346022	0.586521	0.432285
Cl285	Cl	0.679355	0.919854	0.765618
H286	H	-0.004568	0.906172	0.671541
H287	H	0.328765	1.239505	1.004875
H288	H	0.662098	1.572838	1.338208
Cl289	Cl	-0.141374	0.386441	-0.098981
Cl290	Cl	0.191960	0.719775	0.234353
Cl291	Cl	0.525293	1.053108	0.567686
Cl292	Cl	-0.166906	0.605231	0.000020
Cl293	Cl	0.166427	0.938565	0.333354
Cl294	Cl	0.499760	1.271898	0.666687
Cl295	Cl	-0.138736	0.712429	0.832005
Cl296	Cl	0.194598	1.045763	1.165338
Cl297	Cl	0.527931	1.379096	1.498671
H298	H	-0.003792	0.397674	0.079578
H299	H	0.329542	0.731008	0.412911
H300	H	0.662875	1.064341	0.746245
Cl301	Cl	-0.165237	0.441726	0.000035
Cl302	Cl	0.168096	0.775060	0.333368
Cl303	Cl	0.501430	1.108393	0.666701
Cl304	Cl	0.031967	0.644759	-0.000027
Cl305	Cl	0.365300	0.978092	0.333306
Cl306	Cl	0.698634	1.311426	0.666640
H307	H	-0.221776	0.699736	0.000030
H308	H	0.111557	1.033069	0.333363
H309	H	0.444891	1.366402	0.666697
H310	H	-0.669109	0.999835	-0.000035
H311	H	-0.335775	1.333169	0.333298
H312	H	-0.002442	1.666502	0.666632
H313	H	-0.313232	0.701064	0.000007
H314	H	0.020101	1.034398	0.333340
H315	H	0.353435	1.367731	0.666673
Cl316	Cl	-0.451037	0.611559	-0.000002
Cl317	Cl	-0.117704	0.944893	0.333331
Cl318	Cl	0.215629	1.278226	0.666664
H319	H	0.017183	0.177984	-0.000028
H320	H	0.350516	0.511318	0.333305
H321	H	0.683849	0.844651	0.666638
Cl322	Cl	0.010029	0.927219	0.345855
Cl323	Cl	0.343362	1.260552	0.679189
Cl324	Cl	0.676696	1.593885	1.012522
H325	H	-0.124916	0.241947	-0.079564
H326	H	0.208417	0.575280	0.253769
H327	H	0.541750	0.908614	0.587102
H328	H	0.015549	0.837209	0.571477
H329	H	0.348882	1.170542	0.904810
H330	H	0.682215	1.503876	1.238144
H331	H	0.013962	0.493420	-0.000017
H332	H	0.347296	0.826754	0.333317
H333	H	0.680629	1.160087	0.666650
H334	H	-0.004566	0.906172	0.814498
H335	H	0.328767	1.239506	1.147831
H336	H	0.662101	1.572839	1.481165
H337	H	-0.124141	0.733496	0.671589
H338	H	0.209193	1.066830	1.004922
H339	H	0.542526	1.400163	1.338255
H340	H	0.018531	0.046560	-0.000039
H341	H	0.351864	0.379894	0.333294
H342	H	0.685197	0.713227	0.666627
H343	H	-0.124134	0.733469	0.328462
H344	H	0.209200	1.066802	0.661795
H345	H	0.542533	1.400135	0.995128
H346	H	-0.928327	0.710055	-0.000022
H347	H	-0.594993	1.043388	0.333311
H348	H	-0.261660	1.376721	0.666644
H349	H	-0.551040	0.641113	-0.000011
H350	H	-0.217707	0.974447	0.333322
H351	H	0.115626	1.307780	0.666656
H352	H	0.015551	0.837202	0.428516
H353	H	0.348885	1.170535	0.761849
H354	H	0.682218	1.503868	1.095182
H355	H	-0.144258	0.802421	0.428524
H356	H	0.189075	1.135754	0.761858
H357	H	0.522409	1.469087	1.095191
H358	H	-0.836857	0.708712	-0.000012
H359	H	-0.503524	1.042045	0.333322
H360	H	-0.170191	1.375378	0.666655
H361	H	-0.906927	0.939890	-0.000022
H362	H	-0.573594	1.273223	0.333312
H363	H	-0.240261	1.606556	0.666645
Cl364	Cl	-0.563883	1.026390	-0.000027
Cl365	Cl	-0.230550	1.359724	0.333307
Cl366	Cl	0.102783	1.693057	0.666640
H367	H	-0.815473	0.938557	-0.000032
H368	H	-0.482140	1.271890	0.333301
H369	H	-0.148806	1.605223	0.666635
Cl370	Cl	-0.160670	-0.005129	0.000017
Cl371	Cl	0.172663	0.328204	0.333351
Cl372	Cl	0.505996	0.661538	0.666684
H373	H	-0.426401	0.996295	-0.000042
H374	H	-0.093068	1.329629	0.333291
H375	H	0.240266	1.662962	0.666625
H376	H	-0.144259	0.802448	0.571477
H377	H	0.189074	1.135781	0.904810
H378	H	0.522408	1.469114	1.238143
H379	H	-0.291854	0.930911	0.000014
H380	H	0.041480	1.264244	0.333347
H381	H	0.374813	1.597577	0.666681
Cl382	Cl	0.010030	0.927206	0.167994
Cl383	Cl	0.343364	1.260539	0.501328
Cl384	Cl	0.676697	1.593872	0.834661
H385	H	-0.200383	0.929569	0.000018
H386	H	0.132951	1.262903	0.333352
H387	H	0.466284	1.596236	0.666685
H388	H	-0.610831	0.641986	-0.000015
H389	H	-0.277498	0.975319	0.333319
H390	H	0.055835	1.308653	0.666652
Cl391	Cl	-0.138725	0.712371	0.168052
Cl392	Cl	0.194608	1.045705	0.501386
Cl393	Cl	0.527941	1.379038	0.834719
H394	H	-0.702296	0.643330	-0.000023
H395	H	-0.368963	0.976663	0.333310
H396	H	-0.035629	1.309997	0.666644
