data_functionalizedCrystal
_audit_creation_method	'MofGen! by Chris Wilmer'
_symmetry_space_group_name_H-M	'P1'
_symmetry_Int_Tables_number	1
_symmetry_cell_setting	triclinic
loop_
_symmetry_equiv_pos_as_xyz
  x,y,z
_cell_length_a	8.597340
_cell_length_b	11.792241
_cell_length_c	7.088668
_cell_angle_alpha	96.929045
_cell_angle_beta	89.217760
_cell_angle_gamma	84.766049
loop_
_atom_site_label
_atom_site_type_symbol
_atom_site_fract_x
_atom_site_fract_y
_atom_site_fract_z
O1	O	2.067312	0.157356	-0.181568
O2	O	2.400645	0.490689	0.151765
O3	O	2.733979	0.824022	0.485098
O4	O	1.617247	0.175277	-0.107422
O5	O	1.950581	0.508611	0.225912
O6	O	2.283914	0.841944	0.559245
O7	O	1.853200	0.001099	-0.146308
O8	O	2.186534	0.334433	0.187026
O9	O	2.519867	0.667766	0.520359
O10	O	1.831359	0.331534	-0.142682
O11	O	2.164692	0.664867	0.190651
O12	O	2.498026	0.998200	0.523984
O13	O	1.824658	-0.019713	-0.459597
O14	O	2.157991	0.313620	-0.126263
O15	O	2.491325	0.646953	0.207070
O16	O	1.588705	0.154465	-0.420711
O17	O	1.922038	0.487798	-0.087377
O18	O	2.255372	0.821132	0.245956
O19	O	2.038770	0.136543	-0.494857
O20	O	2.372103	0.469876	-0.161524
O21	O	2.705436	0.803210	0.171809
Cu22	Cu	1.811131	0.143604	-0.486390
Cu23	Cu	2.144465	0.476937	-0.153057
Cu24	Cu	2.477798	0.810270	0.180277
Cu25	Cu	1.844886	0.168217	-0.115889
Cu26	Cu	2.178219	0.501550	0.217444
Cu27	Cu	2.511552	0.834883	0.550777
O28	O	1.802817	0.310721	-0.455972
O29	O	2.136150	0.644055	-0.122638
O30	O	2.469483	0.977388	0.210695
C31	C	1.545358	0.164106	-0.254574
C32	C	1.878691	0.497439	0.078759
C33	C	2.212025	0.830773	0.412093
C34	C	1.373674	0.161812	-0.226290
C35	C	1.707007	0.495145	0.107043
C36	C	2.040340	0.828479	0.440377
C37	C	1.837557	-0.051592	-0.302725
C38	C	2.170890	0.281741	0.030608
C39	C	2.504224	0.615075	0.363941
C40	C	1.833450	-0.177588	-0.302047
C41	C	2.166784	0.155745	0.031286
C42	C	2.500117	0.489078	0.364620
C43	C	1.825901	-0.408267	-0.300771
C44	C	2.159235	-0.074934	0.032562
C45	C	2.492568	0.258400	0.365895
C46	C	1.830096	-0.279900	-0.301480
C47	C	2.163429	0.053433	0.031854
C48	C	2.496762	0.386766	0.365187
C49	C	2.110660	0.147715	-0.347701
C50	C	2.443993	0.481048	-0.014368
C51	C	2.777326	0.814381	0.318966
C52	C	2.282345	0.150010	-0.375973
C53	C	2.615678	0.483343	-0.042639
C54	C	2.949011	0.816676	0.290694
C55	C	1.818460	0.363413	-0.299549
C56	C	2.151794	0.696746	0.033784
C57	C	2.485127	1.030080	0.367117
C58	C	1.822568	0.489410	-0.300216
C59	C	2.155902	0.822743	0.033118
C60	C	2.489235	1.156077	0.366451
N61	N	1.787402	0.126291	-0.746982
N62	N	2.120735	0.459625	-0.413649
N63	N	2.454068	0.792958	-0.080315
N64	N	1.868628	0.185520	0.144701
N65	N	2.201961	0.518853	0.478034
N66	N	2.535294	0.852187	0.811368
H67	H	1.335498	0.141651	-0.525768
H68	H	1.668832	0.474985	-0.192435
H69	H	2.002165	0.808318	0.140898
H70	H	1.952779	0.246895	-0.787457
H71	H	2.286112	0.580228	-0.454124
H72	H	2.619446	0.913562	-0.120791
H73	H	1.320514	0.170163	-0.076485
H74	H	1.653848	0.503496	0.256849
H75	H	1.987181	0.836829	0.590182
H76	H	1.703265	0.064914	-0.814817
H77	H	2.036598	0.398247	-0.481483
H78	H	2.369932	0.731581	-0.148150
