data_functionalizedCrystal
_audit_creation_method	'MofGen! by Chris Wilmer'
_symmetry_space_group_name_H-M	'P1'
_symmetry_Int_Tables_number	1
_symmetry_cell_setting	triclinic
loop_
_symmetry_equiv_pos_as_xyz
  x,y,z
_cell_length_a	8.559649
_cell_length_b	10.540510
_cell_length_c	7.088929
_cell_angle_alpha	83.716686
_cell_angle_beta	95.325015
_cell_angle_gamma	77.145988
loop_
_atom_site_label
_atom_site_type_symbol
_atom_site_fract_x
_atom_site_fract_y
_atom_site_fract_z
O1	O	2.103408	-0.028387	-0.158958
O2	O	1.638942	0.037098	-0.158965
O3	O	1.881796	-0.181465	-0.158961
O4	O	1.860554	0.190177	-0.158962
O5	O	1.914251	-0.210733	0.159015
O6	O	1.671396	0.007830	0.159011
O7	O	2.135863	-0.057654	0.159018
Cu8	Cu	1.906593	-0.027584	0.188048
Cu9	Cu	1.868212	0.007028	-0.187995
O10	O	1.893008	0.160909	0.159013
C11	C	1.595695	0.027427	0.000022
C12	C	1.418481	0.042199	0.000019
C13	C	1.896440	-0.243237	0.000023
C14	C	1.891703	-0.383690	0.000012
C15	C	2.060487	-0.618876	0.000742
C16	C	2.065465	-0.472742	0.000016
C17	C	1.784221	-0.402423	-0.181565
C18	C	1.780385	-0.548770	-0.181708
C19	C	1.813673	-0.581483	0.179890
C20	C	1.822159	-0.436225	0.182280
C21	C	2.179109	-0.047983	0.000026
C22	C	2.356321	-0.062753	0.000017
C23	C	1.878364	0.222681	0.000025
C24	C	1.883100	0.363135	0.000024
N25	N	1.933600	-0.051931	0.452536
N26	N	1.841217	0.031363	-0.452484
H27	H	2.148347	-0.462665	0.130175
N28	N	2.167776	-0.699701	0.173235
H29	H	2.102444	-0.748771	0.252589
H30	H	2.258593	-0.764502	0.129774
H31	H	2.029361	-0.138246	0.534194
H32	H	1.827320	-0.582857	-0.317438
H33	H	1.438677	-0.163908	0.000008
N34	N	1.309427	0.176209	0.000073
H35	H	1.318542	0.236007	-0.117783
H36	H	1.194091	0.168031	0.000158
N37	N	1.641032	-0.592877	0.181544
H38	H	1.573580	-0.540963	0.061803
H39	H	1.636923	-0.688194	0.186585
H40	H	2.114577	-0.657510	-0.128737
H41	H	2.122158	-0.439664	-0.130368
H42	H	1.649582	-0.557401	-0.189936
H43	H	1.745474	0.117680	0.465868
N44	N	1.655577	-0.355003	0.196763
H45	H	1.660742	-0.260922	0.204841
H46	H	1.580423	-0.358734	0.080003
N47	N	1.613858	-0.321098	-0.190528
H48	H	1.604692	-0.271207	-0.076700
H49	H	1.586522	-0.257003	-0.312223
N50	N	1.847767	-0.353652	-0.360568
H51	H	1.946116	-0.319394	-0.324457
H52	H	1.878013	-0.428233	-0.438367
N53	N	1.905015	-0.662093	0.362204
H54	H	1.992333	-0.735340	0.330042
H55	H	1.955569	-0.604126	0.440992
H56	H	1.900592	-0.426753	0.316610
