data_functionalizedCrystal
_audit_creation_method	'MofGen! by Chris Wilmer'
_symmetry_space_group_name_H-M	'P1'
_symmetry_Int_Tables_number	1
_symmetry_cell_setting	triclinic
loop_
_symmetry_equiv_pos_as_xyz
  x,y,z
_cell_length_a	19.121073
_cell_length_b	10.685727
_cell_length_c	10.686551
_cell_angle_alpha	80.924363
_cell_angle_beta	91.789296
_cell_angle_gamma	91.727883
loop_
_atom_site_label
_atom_site_type_symbol
_atom_site_fract_x
_atom_site_fract_y
_atom_site_fract_z
Zn1	Zn	-0.325871	-1.972378	0.889373
Zn2	Zn	-0.450944	-1.946995	0.685977
Zn3	Zn	-0.325900	-1.743810	0.660888
Zn4	Zn	-0.434250	-1.752321	0.880746
O5	O	-0.384241	-1.853876	0.779246
O6	O	-0.349437	-2.146140	0.876502
O7	O	-0.441355	-1.905858	0.505516
O8	O	-0.228208	-1.781192	0.684308
O9	O	-0.441327	-2.127491	0.727068
O10	O	-0.228187	-1.949120	0.852174
O11	O	-0.349485	-1.756579	0.487083
O12	O	-0.333298	-1.567811	0.675943
O13	O	-0.412875	-1.795697	1.059024
O14	O	-0.412902	-1.574064	0.837471
O15	O	-0.333250	-1.957372	1.065362
O16	O	-0.546417	-1.914110	0.718703
O17	O	-0.534152	-1.771083	0.861799
C18	C	-0.371292	-1.525010	0.753049
C19	C	-0.365768	-1.384321	0.741873
C20	C	-0.565614	-1.840802	0.792068
C21	C	-0.643209	-1.835328	0.797604
C22	C	-1.081750	-1.800680	0.832756
C23	C	-1.008842	-1.805822	0.827540
C24	C	-0.978753	-1.882925	0.750492
C25	C	-1.021576	-1.954900	0.678666
C26	C	-1.094483	-1.949764	0.683890
C27	C	-0.758939	-1.902167	0.731002
C28	C	-0.686027	-1.907295	0.725780
C29	C	-0.673298	-1.758219	0.874657
C30	C	-0.746207	-1.753084	0.879868
C31	C	-0.789024	-1.825063	0.808047
C32	C	-0.904229	-1.888180	0.745156
C33	C	-0.863546	-1.819815	0.813392
C34	C	-0.202160	-1.867038	0.766405
C35	C	-0.124568	-1.872647	0.760933
C36	C	-0.371197	-1.880315	1.109405
C37	C	-0.365638	-1.891582	1.250100
C38	C	-0.397237	-1.184026	0.805534
C39	C	-0.402764	-1.324715	0.816704
C40	C	-0.397187	-1.827617	0.450373
C41	C	-0.402559	-1.816609	0.309685
H42	H	-0.329864	-1.327722	0.669266
N43	N	-0.318130	-1.988038	1.325085
H44	H	-0.346665	-2.048991	1.386609
H45	H	-0.281619	-1.943186	1.373479
N46	N	-1.114199	-1.717524	0.915866
H47	H	-1.166882	-1.725185	0.908278
H48	H	-1.098730	-1.626450	0.887989
H49	H	-0.438665	-1.381322	0.889327
H50	H	-0.879724	-1.950956	0.682419
N51	N	-0.450068	-1.720170	1.234697
H52	H	-0.447439	-1.725521	1.141448
H53	H	-0.434743	-1.632379	1.249771
N54	N	-0.962663	-1.728191	0.905001
H55	H	-0.932185	-1.667584	0.846677
H56	H	-0.932119	-1.786502	0.965623
H57	H	-0.770700	-1.690283	0.942593
N58	N	-0.627119	-1.680585	0.952116
H59	H	-0.576366	-1.695534	0.937118
H60	H	-0.637026	-1.706562	1.045007
H61	H	-0.793792	-1.960774	0.672515
N62	N	-0.653571	-1.990448	0.642664
H63	H	-0.691758	-2.035267	0.597957
H64	H	-0.623536	-2.055244	0.696722
H65	H	-1.129344	-2.008370	0.625407
N66	N	-0.989127	-2.038072	0.595574
H67	H	-0.936443	-2.030405	0.603159
H68	H	-1.004708	-2.010303	0.504508
N69	N	-0.896002	-1.736654	0.896481
H70	H	-0.880590	-1.645540	0.868637
H71	H	-0.880469	-1.764477	0.987564
