data_functionalizedCrystal
_audit_creation_method	'MofGen! by Chris Wilmer'
_symmetry_space_group_name_H-M	'P1'
_symmetry_Int_Tables_number	1
_symmetry_cell_setting	triclinic
loop_
_symmetry_equiv_pos_as_xyz
  x,y,z
_cell_length_a	16.992694
_cell_length_b	27.732048
_cell_length_c	15.455313
_cell_angle_alpha	92.637842
_cell_angle_beta	87.142206
_cell_angle_gamma	86.655439
loop_
_atom_site_label
_atom_site_type_symbol
_atom_site_fract_x
_atom_site_fract_y
_atom_site_fract_z
O1	O	1.042606	0.100467	-0.072038
O2	O	0.814336	0.099342	-0.072063
O3	O	0.935560	0.029815	-0.072033
O4	O	0.921382	0.169994	-0.072068
O5	O	0.928628	0.033773	0.072227
O6	O	0.807404	0.103301	0.072197
O7	O	1.035674	0.104425	0.072223
Cu8	Cu	0.920906	0.104225	0.085382
Cu9	Cu	0.929104	0.099543	-0.085222
O10	O	0.914450	0.173953	0.072193
C11	C	0.781675	0.099876	0.000064
C12	C	0.694684	0.095561	0.000055
C13	C	0.643939	0.137184	0.000046
C14	C	0.562201	0.133129	0.000059
C15	C	0.531209	0.087449	0.000075
C16	C	0.581960	0.045823	0.000087
C17	C	0.663696	0.049880	0.000080
C18	C	0.287814	0.070637	0.000102
C19	C	0.206071	0.066583	0.000106
C20	C	0.186318	0.153889	0.000080
C21	C	0.268057	0.157941	0.000068
C22	C	0.318800	0.116315	0.000084
N23	N	0.447660	0.083302	0.000086
N24	N	0.402347	0.120463	0.000080
C25	C	0.931796	0.013774	0.000100
C26	C	0.930900	-0.039919	0.000107
C27	C	0.996895	-0.375882	0.000069
C28	C	0.993571	-0.577686	0.000057
O29	O	1.053919	-0.606333	0.000026
N30	N	0.921689	-0.599917	0.000050
C31	C	0.850634	-0.571695	0.000040
O32	O	0.789419	-0.595235	0.000025
C33	C	0.853960	-0.369892	0.000046
C34	C	0.925846	-0.347663	0.000062
C35	C	1.068775	-0.353652	0.000084
C36	C	1.069605	-0.303204	0.000092
C37	C	0.998556	-0.274986	0.000085
C38	C	0.926676	-0.297215	0.000070
C39	C	0.782906	-0.341671	0.000030
C40	C	0.783744	-0.291218	0.000030
C41	C	0.855630	-0.268989	0.000046
C42	C	0.856457	-0.218549	0.000071
N43	N	0.928338	-0.196317	0.000078
C44	C	0.999387	-0.224535	0.000085
C45	C	0.848893	-0.677644	0.000038
C46	C	0.848061	-0.728095	0.000038
C47	C	0.990998	-0.734082	0.000054
C48	C	0.991829	-0.683630	0.000060
C49	C	0.920775	-0.655413	0.000046
C50	C	1.001126	-0.118591	0.000102
C51	C	1.001949	-0.068138	0.000114
C52	C	0.859013	-0.062155	0.000094
C53	C	0.858189	-0.112603	0.000087
C54	C	0.929251	-0.140820	0.000088
O55	O	0.796141	-0.189872	0.000092
O56	O	1.060595	-0.200987	0.000081
C57	C	0.996065	-0.426330	0.000062
C58	C	0.924185	-0.448559	0.000047
C59	C	0.853136	-0.420341	0.000039
C60	C	0.923354	-0.499010	0.000047
C61	C	0.994403	-0.527228	0.000054
C62	C	1.066285	-0.504997	0.000061
C63	C	1.067115	-0.454549	0.000069
C64	C	0.781254	-0.442573	0.000032
C65	C	0.780430	-0.493021	0.000025
C66	C	0.851480	-0.521240	0.000033
C67	C	1.068335	0.103892	0.000094
C68	C	1.155327	0.108206	0.000097
C69	C	0.918214	0.189993	0.000058
C70	C	0.919111	0.243687	0.000046
N71	N	0.915146	0.107517	0.205376
N72	N	0.934870	0.096247	-0.205217
C73	C	0.966664	0.077992	0.250783
C74	C	0.962315	0.080486	0.341590
C75	C	0.906451	0.112509	0.386988
C76	C	0.854928	0.142036	0.341575
C77	C	0.859274	0.139538	0.250770
C78	C	0.887693	0.123276	0.658565
C79	C	0.883353	0.125773	0.749377
C80	C	0.990739	0.064222	0.749385
C81	C	0.995083	0.061730	0.658578
C82	C	0.943557	0.091254	0.613173
N83	N	0.902006	0.115061	0.479807
N84	N	0.947999	0.088700	0.520356
H85	H	1.058992	-0.141559	0.000100
C86	C	1.047410	0.031742	0.799331
C87	C	1.042634	0.034484	0.899213
C88	C	1.099306	0.002001	0.949158
C89	C	1.160752	-0.033224	0.899221
C90	C	1.165530	-0.035967	0.799333
C91	C	1.108859	-0.003484	0.749388
H92	H	0.997146	0.060561	0.936185
H93	H	1.095769	0.004032	1.023102
H94	H	1.202704	-0.057270	0.936193
H95	H	1.211018	-0.062044	0.762361
H96	H	1.112396	-0.005515	0.675444
C97	C	1.056530	0.026503	0.608637
C98	C	1.055290	-0.028223	0.621139
C99	C	1.116738	-0.063448	0.571195
C100	C	1.179426	-0.043948	0.508749
C101	C	1.180668	0.010781	0.496244
C102	C	1.119220	0.046006	0.546189
H103	H	1.008882	-0.042661	0.667367
H104	H	1.115818	-0.103962	0.580451
H105	H	1.224914	-0.070023	0.471777
H106	H	1.227076	0.025219	0.450016
H107	H	1.120140	0.086520	0.536932
C108	C	0.802604	0.172018	0.200820
C109	C	0.741182	0.207261	0.250753
C110	C	0.684508	0.239739	0.200804
C111	C	0.689256	0.236976	0.100922
C112	C	0.750681	0.201732	0.050983
C113	C	0.807355	0.169253	0.100932
H114	H	0.737665	0.209308	0.324697
H115	H	0.639037	0.265830	0.237773
H116	H	0.647302	0.261018	0.063947
H117	H	0.754197	0.199684	-0.022961
H118	H	0.852825	0.143163	0.063963
H119	H	0.669166	0.174382	0.000032
H120	H	0.837859	0.151851	0.786336
H121	H	0.520888	0.167023	0.000050
H122	H	0.724370	-0.359761	0.000012
C123	C	0.302135	0.208193	0.000059
C124	C	0.279150	0.245700	0.074966
C125	C	0.313225	0.295953	0.074957
C126	C	0.370284	0.308699	0.000041
C127	C	0.393272	0.271191	-0.074871
C128	C	0.359198	0.220938	-0.074862
H129	H	0.236909	0.236265	0.130428
H130	H	0.296207	0.323718	0.130412
H131	H	0.395507	0.345899	0.000034
H132	H	0.435513	0.280626	-0.130334
H133	H	0.376215	0.193173	-0.130317
H134	H	0.144995	0.187778	0.000068
H135	H	0.180842	0.029383	0.000119
H136	H	0.705012	0.015986	0.000088
C137	C	1.070903	-0.659181	0.000069
C138	C	1.087539	-0.623272	0.074980
C139	C	1.166617	-0.598825	0.074988
C140	C	1.229060	-0.610288	0.000084
C141	C	1.212426	-0.646199	-0.074833
C142	C	1.133348	-0.670645	-0.074840
H143	H	1.041314	-0.614785	0.130434
H144	H	1.178931	-0.572242	0.130446
H145	H	1.287599	-0.592191	0.000089
H146	H	1.258652	-0.654686	-0.130286
H147	H	1.121035	-0.697229	-0.130299
C148	C	0.343622	0.024847	0.000108
C149	C	0.336936	-0.009670	0.075024
C150	C	0.392747	-0.055463	0.075027
C151	C	0.455243	-0.066738	0.000114
C152	C	0.461931	-0.032220	-0.074807
C153	C	0.406121	0.013573	-0.074810
H154	H	0.290670	-0.001324	0.130483
H155	H	0.387795	-0.081015	0.130489
H156	H	0.496557	-0.100637	0.000117
H157	H	0.508197	-0.040566	-0.130266
H158	H	0.411072	0.039125	-0.130271
H159	H	1.126636	-0.376623	0.000087
C160	C	1.148684	-0.278759	0.000093
C161	C	1.203939	-0.286124	0.075000
C162	C	1.283023	-0.261684	0.074993
C163	C	1.306852	-0.229878	0.000080
C164	C	1.251596	-0.222512	-0.074833
C165	C	1.172512	-0.246952	-0.074827
H166	H	1.186300	-0.309670	0.130460
H167	H	1.323927	-0.267137	0.130449
H168	H	1.365395	-0.211786	0.000075
H169	H	1.269235	-0.198966	-0.130293
H170	H	1.131608	-0.241499	-0.130282
H171	H	0.556720	0.008630	0.000113
H172	H	1.012157	0.051917	0.213826
H173	H	1.125651	-0.436454	0.000081
H174	H	0.845740	0.147317	0.621603
C175	C	0.770725	-0.646610	0.000034
C176	C	0.715244	-0.653132	-0.074875
C177	C	0.637075	-0.622100	-0.074873
C178	C	0.614387	-0.584546	0.000039
C179	C	0.669869	-0.578022	0.074955
C180	C	0.748038	-0.609054	0.074952
H181	H	0.732038	-0.680933	-0.130335
H182	H	0.596003	-0.626929	-0.130331
H183	H	0.556521	-0.561574	0.000041
H184	H	0.653075	-0.550221	0.130414
H185	H	0.789110	-0.604224	0.130410
H186	H	1.004264	0.056444	0.378560
H187	H	1.060489	-0.050041	0.000129
C188	C	0.705581	-0.260178	0.000017
C189	C	0.650111	-0.266695	-0.074905
C190	C	0.571949	-0.235656	-0.074916
C191	C	0.549258	-0.198102	-0.000005
C192	C	0.604730	-0.191584	0.074921
C193	C	0.682891	-0.222622	0.074932
H194	H	0.666907	-0.294497	-0.130363
H195	H	0.530886	-0.240482	-0.130382
H196	H	0.491398	-0.175125	-0.000013
H197	H	0.587933	-0.163782	0.130380
H198	H	0.723955	-0.217797	0.130399
C199	C	0.703092	-0.411537	0.000033
C200	C	0.647610	-0.418055	-0.074877
C201	C	0.569442	-0.387022	-0.074868
C202	C	0.546755	-0.349472	0.000050
C203	C	0.602238	-0.342953	0.074966
C204	C	0.680407	-0.373986	0.074958
H205	H	0.664404	-0.445853	-0.130341
H206	H	0.528370	-0.391848	-0.130327
H207	H	0.488890	-0.326500	0.000057
H208	H	0.585445	-0.315155	0.130431
H209	H	0.721479	-0.369160	0.130416
H210	H	0.809439	0.168108	0.378544
H211	H	1.048849	-0.757066	0.000060
H212	H	0.789524	-0.746189	0.000040
H213	H	0.799653	-0.130703	0.000098
H214	H	0.801166	-0.039170	0.000091
H215	H	0.721887	-0.511115	0.000020
H216	H	1.124135	-0.527981	0.000070
