data_functionalizedCrystal
_audit_creation_method	'MofGen! by Chris Wilmer'
_symmetry_space_group_name_H-M	'P1'
_symmetry_Int_Tables_number	1
_symmetry_cell_setting	triclinic
loop_
_symmetry_equiv_pos_as_xyz
  x,y,z
_cell_length_a	12.645331
_cell_length_b	10.685594
_cell_length_c	10.686551
_cell_angle_alpha	89.698963
_cell_angle_beta	94.390409
_cell_angle_gamma	94.383843
loop_
_atom_site_label
_atom_site_type_symbol
_atom_site_fract_x
_atom_site_fract_y
_atom_site_fract_z
Zn1	Zn	1.640304	-0.444949	0.747406
Zn2	Zn	1.613165	-0.670859	0.553729
Zn3	Zn	1.448456	-0.461107	0.537680
Zn4	Zn	1.450545	-0.654663	0.763455
O5	O	1.538117	-0.557894	0.650568
O6	O	1.785050	-0.474932	0.721714
O7	O	1.579084	-0.656575	0.376059
O8	O	1.484388	-0.283416	0.552067
O9	O	1.765111	-0.640907	0.579421
O10	O	1.625338	-0.271545	0.706152
O11	O	1.458072	-0.502471	0.364267
O12	O	1.300387	-0.486767	0.567630
O13	O	1.487949	-0.613304	0.936868
O14	O	1.301922	-0.628972	0.733506
O15	O	1.627364	-0.459228	0.925076
O16	O	1.581110	-0.844258	0.594983
O17	O	1.461634	-0.832359	0.749068
C18	C	1.262690	-0.557866	0.650569
C19	C	1.144861	-0.557882	0.650601
C20	C	1.518684	-0.883824	0.675536
C21	C	1.510471	-1.023255	0.686260
C22	C	0.978231	-0.647913	0.754489
C23	C	1.100838	-0.647567	0.754868
C24	C	1.110736	-0.422980	0.676589
C25	C	0.988150	-0.423523	0.677314
C26	C	0.966396	-0.601711	0.520337
C27	C	1.088880	-0.604545	0.521275
C28	C	1.814621	-0.557924	0.650567
C29	C	1.932450	-0.557937	0.650567
C30	C	1.560917	-0.532657	0.977761
C31	C	1.570633	-0.521903	1.117191
C32	C	1.557657	-0.230690	0.625529
C33	C	1.565984	-0.091255	0.614859
C34	C	1.515473	-0.582943	0.324640
C35	C	1.505983	-0.593344	0.185184
H36	H	1.456660	-1.071712	0.755602
C37	C	1.655458	-0.428159	1.182650
H38	H	1.651081	-0.432980	1.270919
H39	H	1.724111	-0.448160	1.162636
H40	H	1.643497	-0.345496	1.154791
C41	C	0.928400	-0.783036	0.734445
H42	H	0.879222	-0.785793	0.662525
H43	H	0.982776	-0.837409	0.722393
H44	H	0.892433	-0.809262	0.806051
H45	H	1.138338	-0.617790	0.851567
C46	C	1.638669	-1.025810	0.521182
H47	H	1.634831	-0.937540	0.526010
H48	H	1.709928	-1.045720	0.541214
H49	H	1.616070	-1.053777	0.438514
H50	H	1.123521	-0.747286	0.739744
H51	H	0.955534	-0.618467	0.850638
C52	C	0.913941	-0.733044	0.485779
H53	H	0.935467	-0.757687	0.406891
H54	H	0.935214	-0.791561	0.548213
H55	H	0.838771	-0.730901	0.480899
H56	H	0.968006	-0.387589	0.772216
C57	C	0.947766	-0.329137	0.578799
H58	H	1.006284	-0.290625	0.538519
H59	H	0.899351	-0.371860	0.518193
H60	H	0.912766	-0.266673	0.618926
H61	H	1.139570	-0.353677	0.602816
H62	H	1.149850	-0.386608	0.770400
H63	H	1.118146	-0.544577	0.440510
C64	C	1.117824	-0.738707	0.494528
H65	H	1.163834	-0.766177	0.561885
H66	H	1.054863	-0.793447	0.486310
H67	H	1.152665	-0.739252	0.418889
H68	H	0.936602	-0.536296	0.443031
C69	C	1.421165	-0.687086	1.119730
H70	H	1.425536	-0.682253	1.031460
H71	H	1.433116	-0.769744	1.147592
H72	H	1.352507	-0.667075	1.139737
