data_functionalizedCrystal
_audit_creation_method	'MofGen! by Chris Wilmer'
_symmetry_space_group_name_H-M	'P1'
_symmetry_Int_Tables_number	1
_symmetry_cell_setting	triclinic
loop_
_symmetry_equiv_pos_as_xyz
  x,y,z
_cell_length_a	14.971486
_cell_length_b	14.472310
_cell_length_c	14.971486
_cell_angle_alpha	90.001268
_cell_angle_beta	83.614129
_cell_angle_gamma	90.008074
loop_
_atom_site_label
_atom_site_type_symbol
_atom_site_fract_x
_atom_site_fract_y
_atom_site_fract_z
O1	O	1.186956	0.076735	0.116557
O2	O	0.926556	0.076760	0.130515
O3	O	1.063736	0.076740	-0.006664
O4	O	1.049777	0.076755	0.253736
O5	O	1.063700	-0.076942	-0.006656
O6	O	0.926521	-0.076922	0.130523
O7	O	1.186921	-0.076947	0.116565
Cu8	Cu	1.056718	-0.090967	0.123545
Cu9	Cu	1.056760	0.090780	0.123535
O10	O	1.049742	-0.076927	0.253744
C11	C	0.893214	-0.000077	0.129895
C12	C	0.793917	-0.000068	0.128024
N13	N	1.056695	-0.218798	0.123551
C14	C	0.736691	-0.000065	0.208614
C15	C	0.643392	-0.000079	0.206850
C16	C	0.607320	-0.000089	0.124497
C17	C	0.664552	-0.000095	0.043902
C18	C	0.757850	-0.000088	0.045666
C19	C	0.470090	-0.000108	0.040231
C20	C	0.376786	-0.000114	0.038466
C21	C	0.355632	-0.000099	0.201415
C22	C	0.448930	-0.000092	0.203179
C23	C	0.506156	-0.000096	0.122584
C24	C	1.056758	-0.592889	0.123532
C25	C	0.983110	-0.553712	0.196687
C26	C	0.983280	-0.446624	0.196954
C27	C	1.056726	-0.407298	0.123541
C28	C	1.150076	-0.446143	0.144025
C29	C	1.149662	-0.553264	0.144545
C30	C	1.037890	-0.553421	0.029676
C31	C	1.035750	-0.446293	0.030299
C32	C	1.056714	-0.302410	0.123545
C33	C	1.056777	-0.697777	0.123530
C34	C	1.220263	-0.000107	0.117185
C35	C	1.319561	-0.000110	0.119056
C36	C	1.063094	-0.000100	-0.039985
C37	C	1.061223	-0.000099	-0.139282
N38	N	1.056790	0.218611	0.123522
C39	C	1.141812	-0.000108	-0.196507
C40	C	1.140049	-0.000098	-0.289807
C41	C	1.057696	-0.000087	-0.325879
C42	C	0.977101	-0.000076	-0.268646
C43	C	0.978865	-0.000078	-0.175349
C44	C	0.973430	-0.000072	-0.463109
C45	C	0.971665	-0.000071	-0.556413
C46	C	1.134614	-0.000092	-0.577567
C47	C	1.136378	-0.000094	-0.484269
C48	C	1.055782	-0.000085	-0.427043
C49	C	1.050383	-0.000084	0.287065
C50	C	1.052254	-0.000079	0.386362
H51	H	0.596802	-0.000075	0.272474
C52	C	1.173056	-0.409894	0.235447
C53	C	1.187787	-0.478320	0.311202
C54	C	1.210762	-0.442074	0.402626
C55	C	1.219006	-0.337402	0.418294
C56	C	1.204275	-0.268970	0.342536
C57	C	1.181301	-0.305216	0.251113
H58	H	1.181684	-0.555811	0.299605
H59	H	1.221666	-0.492733	0.458706
H60	H	1.236013	-0.310571	0.485971
H61	H	1.210378	-0.191480	0.354133
H62	H	1.170396	-0.254557	0.195032
C63	C	0.884775	-0.000062	-0.400156
C64	C	0.817334	0.079746	-0.404252
C65	C	0.728683	0.079751	-0.341299
C66	C	0.707474	-0.000051	-0.274249
C67	C	0.774917	-0.079864	-0.270151
C68	C	0.863568	-0.079870	-0.333104
H69	H	0.833032	0.138825	-0.453889
H70	H	0.678757	0.138835	-0.344334
H71	H	0.641849	-0.000047	-0.227647
H72	H	0.759219	-0.138944	-0.220514
H73	H	0.913494	-0.138954	-0.330069
H74	H	0.478296	-0.000074	0.270239
H75	H	0.995003	-0.580619	0.265941
H76	H	0.347419	-0.000123	-0.028593
H77	H	0.516682	-0.000113	-0.025399
C78	C	0.624874	-0.000107	-0.046688
C79	C	0.563633	-0.079912	-0.070302
C80	C	0.523956	-0.079920	-0.160893
C81	C	0.545521	-0.000122	-0.227871
C82	C	0.606765	0.079689	-0.204259
C83	C	0.646441	0.079697	-0.113667
H84	H	0.547667	-0.138989	-0.020719
H85	H	0.478619	-0.139003	-0.178372
H86	H	0.516150	-0.000128	-0.294932
H87	H	0.622731	0.138766	-0.253842
H88	H	0.691778	0.138780	-0.096189
H89	H	1.203437	-0.000110	-0.454903
C90	C	0.889541	-0.411138	0.180469
C91	C	0.814004	-0.480272	0.166966
C92	C	0.720259	-0.444792	0.150488
C93	C	0.702050	-0.340176	0.147513
C94	C	0.777588	-0.271036	0.161016
C95	C	0.871334	-0.306516	0.177494
H96	H	0.827482	-0.557721	0.169168
H97	H	0.664340	-0.495975	0.140492
H98	H	0.632653	-0.313912	0.135316
H99	H	0.764111	-0.193587	0.158815
H100	H	0.927253	-0.255333	0.187490
C101	C	0.942984	-0.411988	0.009299
C102	C	0.924876	-0.307647	0.002246
C103	C	0.832111	-0.273330	-0.018749
C104	C	0.757455	-0.343354	-0.032691
C105	C	0.775562	-0.447701	-0.025638
C106	C	0.868327	-0.482018	-0.004643
H107	H	0.980142	-0.255806	0.012567
H108	H	0.818708	-0.196085	-0.023969
H109	H	0.688785	-0.317950	-0.048232
H110	H	0.720295	-0.499542	-0.035959
H111	H	0.881730	-0.559263	0.000578
H112	H	1.085900	-0.419527	-0.026698
C113	C	1.228701	-0.000110	-0.352751
C114	C	1.296134	-0.079926	-0.348652
C115	C	1.384791	-0.079936	-0.411595
C116	C	1.406017	-0.000131	-0.478637
C117	C	1.338583	0.079691	-0.482739
C118	C	1.249925	0.079701	-0.419796
H119	H	1.280423	-0.139008	-0.299021
H120	H	1.434710	-0.139026	-0.408558
H121	H	1.471646	-0.000138	-0.525231
H122	H	1.354294	0.138773	-0.532370
H123	H	1.200006	0.138791	-0.422833
H124	H	0.971292	-0.580483	0.010004
C125	C	0.999571	-0.411981	0.291041
C126	C	1.012472	-0.481788	0.366165
C127	C	1.028765	-0.447145	0.460256
C128	C	1.032157	-0.342696	0.479222
C129	C	1.019256	-0.272882	0.404095
C130	C	1.002963	-0.307525	0.310004
H131	H	1.009961	-0.559114	0.352127
H132	H	1.038315	-0.498826	0.515869
H133	H	1.044218	-0.317051	0.548873
H134	H	1.021767	-0.195556	0.418133
H135	H	0.993413	-0.255844	0.254391
H136	H	0.804443	-0.000090	-0.019958
H137	H	0.766054	-0.000056	0.275675
H138	H	1.091597	-0.578755	-0.024765
C139	C	0.889067	-0.588547	0.180463
C140	C	0.806098	-0.558942	0.244110
C141	C	0.712053	-0.593785	0.227885
C142	C	0.700977	-0.658232	0.148013
C143	C	0.783949	-0.687841	0.084361
C144	C	0.877994	-0.652998	0.100586
H145	H	0.814295	-0.511231	0.303241
H146	H	0.650632	-0.571866	0.275005
H147	H	0.631359	-0.684025	0.136002
H148	H	0.775752	-0.735552	0.025230
H149	H	0.939415	-0.674916	0.053466
H150	H	1.206183	-0.579178	0.093369
H151	H	1.208874	-0.000123	-0.167145
H152	H	1.166274	-0.578238	0.212997
H153	H	1.200238	-0.000096	-0.624165
H154	H	0.910047	-0.000061	-0.298024
H155	H	0.904606	-0.000076	-0.585780
C156	C	1.225895	-0.411726	0.073973
C157	C	1.203873	-0.347797	-0.002832
C158	C	1.279691	-0.313378	-0.072884
C159	C	1.377531	-0.342889	-0.066133
C160	C	1.399557	-0.406821	0.010675
C161	C	1.323739	-0.441240	0.080728
H162	H	1.131443	-0.325948	-0.007832
H163	H	1.263385	-0.266051	-0.129743
H164	H	1.433656	-0.317410	-0.117990
H165	H	1.471988	-0.428670	0.015676
H166	H	1.340045	-0.488567	0.137586
H167	H	0.309033	-0.000100	0.267039
H168	H	0.913240	-0.000071	-0.128756
