data_functionalizedCrystal
_audit_creation_method	'MofGen! by Chris Wilmer'
_symmetry_space_group_name_H-M	'P1'
_symmetry_Int_Tables_number	1
_symmetry_cell_setting	triclinic
loop_
_symmetry_equiv_pos_as_xyz
  x,y,z
_cell_length_a	10.654550
_cell_length_b	14.750779
_cell_length_c	10.654550
_cell_angle_alpha	102.764087
_cell_angle_beta	84.484929
_cell_angle_gamma	77.230523
loop_
_atom_site_label
_atom_site_type_symbol
_atom_site_fract_x
_atom_site_fract_y
_atom_site_fract_z
O1	O	1.640842	0.079748	0.203384
O2	O	1.275358	0.079765	0.220195
O3	O	1.466503	0.079757	0.029050
O4	O	1.449697	0.079756	0.394529
O5	O	1.520537	-0.079896	-0.024978
O6	O	1.329392	-0.079888	0.166167
O7	O	1.694877	-0.079905	0.149355
Zn8	Zn	1.520714	-0.105245	0.149183
Zn9	Zn	1.449521	0.105105	0.220368
O10	O	1.503732	-0.079897	0.340500
C11	C	1.255576	-0.000059	0.191948
C12	C	1.116131	-0.000053	0.188258
N13	N	1.569310	-0.248802	0.100600
C14	C	1.036646	-0.000055	0.300799
C15	C	0.905631	-0.000072	0.297317
C16	C	0.933597	-0.000079	0.068745
C17	C	1.064612	-0.000069	0.072226
C18	C	1.265211	-0.600608	0.404568
C19	C	1.299274	-0.701108	0.370533
C20	C	1.468569	-0.701078	0.201338
C21	C	1.434516	-0.600575	0.235354
C22	C	1.332838	-0.550348	0.336972
C23	C	1.502142	-0.550316	0.167758
C24	C	1.468097	-0.449822	0.201777
C25	C	1.366425	-0.399588	0.303392
C26	C	1.298792	-0.449854	0.370991
C27	C	1.603826	-0.600545	0.066147
C28	C	1.671453	-0.550286	-0.001450
C29	C	1.637401	-0.449790	0.032563
C30	C	1.535729	-0.399556	0.134178
C31	C	1.705034	-0.399524	-0.035036
C32	C	1.670988	-0.299030	-0.001017
C33	C	1.501684	-0.299062	0.168197
C34	C	1.714657	-0.000079	0.177603
C35	C	1.854101	-0.000079	0.181295
C36	C	1.492285	-0.000067	-0.044761
C37	C	1.488591	-0.000061	-0.184202
N38	N	1.400935	0.248662	0.268940
C39	C	1.453923	0.086959	-0.351294
C40	C	1.457402	0.086965	-0.220272
C41	C	1.516315	-0.087097	-0.279165
C42	C	1.512844	-0.087102	-0.410185
C43	C	1.477948	-0.000071	0.414312
C44	C	1.481641	-0.000071	0.553755
H45	H	1.078591	-0.000049	0.395277
H46	H	0.840920	-0.000077	0.388958
H47	H	1.244197	-0.742024	0.425589
Br48	Br	1.419793	0.205082	-0.091414
Br49	Br	0.863668	-0.000098	-0.088719
Br50	Br	1.411579	0.205072	-0.400229
H51	H	1.418878	-0.258165	0.250935
Br52	Br	1.558655	-0.205205	-0.230216
Br53	Br	1.606563	-0.769249	0.063438
Br54	Br	1.550477	-0.205223	-0.539060
Br55	Br	1.320226	-0.263201	0.349572
Br56	Br	1.160779	-0.381683	0.508886
Br57	Br	1.172498	-0.000077	-0.080523
H58	H	1.182406	-0.559711	0.487307
Br59	Br	1.843039	-0.467698	-0.172923
H60	H	1.631546	-0.682374	0.038457
Br61	Br	1.762777	-0.230817	-0.092751
Br62	Br	1.809447	-0.618457	-0.139350
