data_functionalizedCrystal
_audit_creation_method	'MofGen! by Chris Wilmer'
_symmetry_space_group_name_H-M	'P1'
_symmetry_Int_Tables_number	1
_symmetry_cell_setting	triclinic
loop_
_symmetry_equiv_pos_as_xyz
  x,y,z
_cell_length_a	6.817900
_cell_length_b	15.301126
_cell_length_c	10.992410
_cell_angle_alpha	93.551656
_cell_angle_beta	108.764651
_cell_angle_gamma	104.177575
loop_
_atom_site_label
_atom_site_type_symbol
_atom_site_fract_x
_atom_site_fract_y
_atom_site_fract_z
V1	V	-4.090843	-0.124759	-0.400984
O2	O	-4.073501	0.005995	-0.392949
O3	O	-4.045418	-0.247376	-0.398628
O4	O	-4.068795	-0.122840	-0.575690
O5	O	-4.049962	-0.119403	-0.214660
V6	V	-4.570670	-0.109119	-0.378651
O7	O	-4.360207	-0.159066	-0.449972
O8	O	-4.751504	-0.074812	-0.329662
O9	O	-4.392889	0.013498	-0.381007
O10	O	-4.705409	-0.239873	-0.386686
O11	O	-4.728948	-0.114475	-0.564974
O12	O	-4.369512	-0.111038	-0.203944
C13	C	-3.890289	-0.277267	-0.392402
C14	C	-3.934612	-0.377508	-0.391640
C15	C	-4.138640	-0.429194	-0.397705
C16	C	-4.180278	-0.523382	-0.396997
C17	C	-4.017879	-0.565880	-0.390214
C18	C	-3.813835	-0.514188	-0.384153
C19	C	-3.772205	-0.420003	-0.384870
C20	C	-3.900616	-0.710499	-0.382654
C21	C	-3.942247	-0.804689	-0.381934
C22	C	-4.308689	-0.813877	-0.394781
C23	C	-4.267059	-0.719692	-0.395499
C24	C	-4.063016	-0.668006	-0.389434
C25	C	-3.920108	-0.118408	-0.618261
C26	C	-3.983385	-0.117650	-0.761087
C27	C	-3.851803	-0.110746	-0.956188
C28	C	-3.786035	-0.111908	-0.807709
C29	C	-4.164721	-0.206559	-0.838469
C30	C	-4.229182	-0.205773	-0.987033
C31	C	-4.139246	-0.033613	-0.948462
C32	C	-4.068616	-0.033192	-0.799448
C33	C	-4.211358	0.043384	-0.387229
C34	C	-4.146276	0.143624	-0.387999
C35	C	-4.181539	-0.115473	-0.161367
C36	C	-4.097501	-0.116226	-0.018540
H37	H	-3.649573	-0.047979	-0.754168
O38	O	-4.442196	-0.673842	-0.402812
H39	H	-4.475618	-0.640774	-0.491448
H40	H	-3.937701	0.032579	-0.746884
O41	O	-4.019721	0.055827	-0.975136
H42	H	-3.843953	0.062669	-0.938903
O43	O	-3.638678	-0.560024	-0.376854
H44	H	-3.605191	-0.593081	-0.288209
H45	H	-4.474820	-0.855963	-0.399700
H46	H	-4.210925	-0.032148	-0.766933
O47	O	-3.552148	-0.364252	-0.378339
H48	H	-3.480750	-0.311483	-0.290362
O49	O	-3.680536	-0.654755	-0.376114
H50	H	-3.696463	-0.621262	-0.464147
O51	O	-3.712523	-0.025495	-0.980877
H52	H	-3.816919	0.013883	-1.037858
H53	H	-4.270884	-0.394598	-0.403216
O54	O	-4.362082	-0.216377	-0.800361
H55	H	-4.487721	-0.279695	-0.856412
H56	H	-3.815729	-0.170104	-1.004367
H57	H	-4.107195	-0.269265	-0.813060
O58	O	-4.400334	-0.579123	-0.403520
H59	H	-4.523876	-0.572868	-0.494734
H60	H	-3.810024	-0.839293	-0.376450
O61	O	-3.695340	-0.191626	-0.775069
H62	H	-3.698360	-0.229503	-0.865401
H63	H	-4.201884	-0.268325	-1.033499
O64	O	-4.468339	-0.216017	-1.043553
H65	H	-4.537487	-0.221517	-0.964753
H66	H	-4.317624	-0.036845	-0.989313
