data_functionalizedCrystal
_audit_creation_method	'MofGen! by Chris Wilmer'
_symmetry_space_group_name_H-M	'P1'
_symmetry_Int_Tables_number	1
_symmetry_cell_setting	triclinic
loop_
_symmetry_equiv_pos_as_xyz
  x,y,z
_cell_length_a	14.044220
_cell_length_b	14.044220
_cell_length_c	10.868271
_cell_angle_alpha	89.993930
_cell_angle_beta	90.000690
_cell_angle_gamma	93.188878
loop_
_atom_site_label
_atom_site_type_symbol
_atom_site_fract_x
_atom_site_fract_y
_atom_site_fract_z
O1	O	1.277168	0.230168	-0.102196
O2	O	1.000496	0.221862	-0.102227
O3	O	1.134679	0.087679	-0.102200
O4	O	1.142985	0.364351	-0.102223
O5	O	1.134667	0.087673	0.102445
O6	O	1.000484	0.221856	0.102417
O7	O	1.277155	0.230161	0.102448
Zn8	Zn	1.138817	0.226007	0.134925
Zn9	Zn	1.138834	0.226016	-0.134704
O10	O	1.142972	0.364344	0.102421
C11	C	0.964868	0.218223	0.000091
C12	C	0.858725	0.207379	0.000080
C13	C	0.664388	0.187553	0.000106
C14	C	0.613258	0.264467	0.000105
C15	C	0.505122	0.253435	0.000119
C16	C	0.772534	0.198583	0.000091
C17	C	1.131037	0.052054	0.000122
C18	C	1.120193	-0.054088	0.000123
C19	C	1.100366	-0.248426	0.000103
C20	C	1.177281	-0.299556	0.000108
C21	C	1.166249	-0.407692	0.000097
C22	C	1.111397	-0.140280	0.000114
C23	C	1.312783	0.233800	0.000127
C24	C	1.418926	0.244645	0.000131
C25	C	1.146614	0.399969	0.000096
C26	C	1.157459	0.506112	0.000088
N27	N	1.138813	0.226001	0.318939
N28	N	1.138845	0.226015	-0.318718
C29	C	1.138829	0.226014	0.569945
C30	C	1.138817	0.226010	0.430267
H31	H	0.626951	0.113425	0.000119
C32	C	1.277433	-0.248979	0.000136
N33	N	1.352864	-0.210881	0.000164
H34	H	1.026239	-0.285863	0.000091
H35	H	0.650697	0.338600	0.000092
