data_functionalizedCrystal
_audit_creation_method	'MofGen! by Chris Wilmer'
_symmetry_space_group_name_H-M	'P1'
_symmetry_Int_Tables_number	1
_symmetry_cell_setting	triclinic
loop_
_symmetry_equiv_pos_as_xyz
  x,y,z
_cell_length_a	17.699083
_cell_length_b	17.699077
_cell_length_c	16.776229
_cell_angle_alpha	90.005198
_cell_angle_beta	90.004308
_cell_angle_gamma	83.281795
loop_
_atom_site_label
_atom_site_type_symbol
_atom_site_fract_x
_atom_site_fract_y
_atom_site_fract_z
O1	O	0.095688	1.004080	0.066279
O2	O	0.429021	1.337414	0.399613
O3	O	0.762355	1.670747	0.732946
O4	O	0.108145	0.783701	0.066283
O5	O	0.441479	1.117035	0.399617
O6	O	0.774812	1.450368	0.732950
O7	O	-0.008273	0.900117	0.066274
O8	O	0.325061	1.233450	0.399607
O9	O	0.658394	1.566784	0.732941
O10	O	0.212106	0.887664	0.066288
O11	O	0.545439	1.220998	0.399622
O12	O	0.878773	1.554331	0.732955
O13	O	-0.008273	0.900104	-0.066302
O14	O	0.325060	1.233437	0.267031
O15	O	0.658394	1.566770	0.600364
O16	O	0.108145	0.783688	-0.066293
O17	O	0.441478	1.117021	0.267040
O18	O	0.774812	1.450355	0.600373
O19	O	0.095688	1.004067	-0.066297
O20	O	0.429021	1.337400	0.267036
O21	O	0.762354	1.670734	0.600369
Zn22	Zn	0.101916	0.893875	-0.087345
Zn23	Zn	0.435250	1.227209	0.245989
Zn24	Zn	0.768583	1.560542	0.579322
Zn25	Zn	0.101917	0.893893	0.087331
Zn26	Zn	0.435250	1.227226	0.420664
Zn27	Zn	0.768583	1.560559	0.753997
O28	O	0.212106	0.887651	-0.066288
O29	O	0.545439	1.220985	0.267045
O30	O	0.878772	1.554318	0.600379
C31	C	0.107700	0.755498	-0.000004
C32	C	0.441033	1.088831	0.333329
C33	C	0.774366	1.422164	0.666662
C34	C	0.106363	0.671479	-0.000003
C35	C	0.439696	1.004813	0.333330
C36	C	0.773029	1.338146	0.666664
C37	C	-0.036470	0.899664	-0.000014
C38	C	0.296864	1.232998	0.333319
C39	C	0.630197	1.566331	0.666652
C40	C	-0.120488	0.898326	-0.000015
C41	C	0.212845	1.231659	0.333319
C42	C	0.546179	1.564992	0.666652
C43	C	0.105733	0.632005	-0.072271
C44	C	0.439066	0.965338	0.261062
C45	C	0.772399	1.298671	0.594395
C46	C	0.104464	0.553062	-0.072272
C47	C	0.437798	0.886395	0.261061
C48	C	0.771131	1.219729	0.594394
C49	C	0.103832	0.513595	-0.000004
C50	C	0.437165	0.846928	0.333329
C51	C	0.770498	1.180262	0.666663
C52	C	0.104460	0.553075	0.072270
C53	C	0.437793	0.886409	0.405603
C54	C	0.771126	1.219742	0.738936
C55	C	0.105722	0.632017	0.072270
C56	C	0.439056	0.965350	0.405603
C57	C	0.772389	1.298684	0.738937
C58	C	0.099366	0.234712	0.072271
C59	C	0.432700	0.568045	0.405604
C60	C	0.766033	0.901379	0.738938
C61	C	0.098106	0.155764	0.072265
C62	C	0.431439	0.489098	0.405599
C63	C	0.764772	0.822431	0.738932
C64	C	0.098108	0.155757	-0.072271
C65	C	0.431442	0.489090	0.261062
C66	C	0.764775	0.822424	0.594395
C67	C	0.099371	0.234699	-0.072271
C68	C	0.432704	0.568032	0.261062
C69	C	0.766038	0.901365	0.594395
C70	C	0.099995	0.274173	0.000002
C71	C	0.433328	0.607506	0.333336
C72	C	0.766662	0.940840	0.666669
C73	C	0.101369	0.359772	0.000002
C74	C	0.434702	0.693105	0.333336
C75	C	0.768035	1.026438	0.666669
C76	C	0.102464	0.427997	-0.000003
C77	C	0.435797	0.761330	0.333330
C78	C	0.769130	1.094664	0.666663
C79	C	-0.169110	0.966659	-0.000017
C80	C	0.164223	1.299993	0.333316
C81	C	0.497556	1.633326	0.666650
C82	C	-0.248054	0.965397	-0.000010
C83	C	0.085280	1.298730	0.333323
C84	C	0.418613	1.632064	0.666657
C85	C	-0.278373	0.895800	-0.000006
C86	C	0.054960	1.229134	0.333327
C87	C	0.388294	1.562467	0.666661
C88	C	-0.229744	0.827461	-0.000001
C89	C	0.103589	1.160795	0.333332
C90	C	0.436922	1.494128	0.666665
C91	C	-0.150803	0.828724	-0.000003
C92	C	0.182531	1.162058	0.333331
C93	C	0.515864	1.495391	0.666664
C94	C	-0.548107	0.822366	0.000005
C95	C	-0.214774	1.155699	0.333339
C96	C	0.118559	1.489033	0.666672
C97	C	-0.627055	0.821108	0.000004
C98	C	-0.293722	1.154442	0.333338
C99	C	0.039612	1.487775	0.666671
C100	C	-0.645358	0.959039	-0.000002
C101	C	-0.312025	1.292372	0.333331
C102	C	0.021308	1.625705	0.666665
C103	C	-0.566417	0.960302	-0.000003
C104	C	-0.233083	1.293635	0.333330
C105	C	0.100250	1.626968	0.666663
C106	C	-0.517795	0.891963	0.000006
C107	C	-0.184461	1.225297	0.333339
C108	C	0.148872	1.558630	0.666672
C109	C	-0.432196	0.893333	-0.000000
C110	C	-0.098862	1.226666	0.333333
C111	C	0.234471	1.559999	0.666666
C112	C	-0.363971	0.894430	-0.000006
C113	C	-0.030637	1.227763	0.333328
C114	C	0.302696	1.561097	0.666661
C115	C	0.240303	0.888104	0.000002
C116	C	0.573636	1.221437	0.333335
C117	C	0.906969	1.554771	0.666669
C118	C	0.324321	0.889443	0.000008
C119	C	0.657654	1.222776	0.333341
C120	C	0.990988	1.556109	0.666674
C121	C	0.096133	1.032271	-0.000008
C122	C	0.429467	1.365604	0.333326
C123	C	0.762800	1.698937	0.666659
C124	C	0.097470	1.116289	-0.000004
C125	C	0.430804	1.449622	0.333329
C126	C	0.764137	1.782956	0.666663
N127	N	0.101916	0.893869	-0.206556
N128	N	0.435249	1.227202	0.126777
N129	N	0.768582	1.560536	0.460111
C130	C	0.147763	0.939684	-0.248267
C131	C	0.481097	1.273018	0.085066
C132	C	0.814430	1.606351	0.418399
C133	C	0.147760	0.939693	-0.331719
C134	C	0.481094	1.273026	0.001614
C135	C	0.814427	1.606359	0.334947
C136	C	0.101913	0.893881	-0.373459
C137	C	0.435247	1.227215	-0.040125
C138	C	0.768580	1.560548	0.293208
C139	C	0.056060	0.848064	-0.331742
C140	C	0.389394	1.181398	0.001592
C141	C	0.722727	1.514731	0.334925
C142	C	0.056060	0.848061	-0.248291
C143	C	0.389393	1.181394	0.085042
C144	C	0.722726	1.514727	0.418376
C145	C	0.056061	0.848080	-0.668289
C146	C	0.389395	1.181413	-0.334955
C147	C	0.722728	1.514746	-0.001622
C148	C	0.056067	0.848085	-0.751745
C149	C	0.389401	1.181419	-0.418412
C150	C	0.722734	1.514752	-0.085079
C151	C	0.147762	0.939712	-0.751717
C152	C	0.481095	1.273045	-0.418384
C153	C	0.814429	1.606378	-0.085051
C154	C	0.147761	0.939708	-0.668267
C155	C	0.481095	1.273041	-0.334933
C156	C	0.814428	1.606375	-0.001600
C157	C	0.101906	0.893894	-0.626557
C158	C	0.435239	1.227228	-0.293223
C159	C	0.768572	1.560561	0.040110
C160	C	0.101908	0.893887	-0.536068
C161	C	0.435242	1.227220	-0.202735
C162	C	0.768575	1.560553	0.130598
C163	C	0.101914	0.893884	-0.463946
C164	C	0.435248	1.227218	-0.130612
C165	C	0.768581	1.560551	0.202721
N166	N	0.101911	0.893905	0.206542
N167	N	0.435245	1.227238	0.539875
N168	N	0.768578	1.560572	0.873209
H169	H	0.106254	0.664132	-0.131121
H170	H	0.439587	0.997466	0.202213
H171	H	0.772921	1.330799	0.535546
H172	H	0.018726	0.810753	-0.214331
H173	H	0.352059	1.144086	0.119003
H174	H	0.685393	1.477420	0.452336
H175	H	-0.651737	0.764431	0.000006
H176	H	-0.318404	1.097764	0.333339
H177	H	0.014929	1.431098	0.666672
Cl178	Cl	0.103636	0.503463	0.163122
Cl179	Cl	0.436970	0.836796	0.496455
Cl180	Cl	0.770303	1.170129	0.829789
Cl181	Cl	0.097309	0.106149	0.163124
Cl182	Cl	0.430642	0.439483	0.496457
Cl183	Cl	0.763976	0.772816	0.829791
H184	H	0.099872	0.266843	0.131120
H185	H	0.433205	0.600176	0.464454
H186	H	0.766538	0.933509	0.797787
H187	H	-0.541735	1.016974	-0.000010
H188	H	-0.208402	1.350308	0.333323
H189	H	0.124931	1.683641	0.666656
H190	H	0.018730	0.810779	-0.785727
H191	H	0.352064	1.144112	-0.452394
H192	H	0.685397	1.477445	-0.119060
H193	H	0.185098	0.977018	-0.785688
H194	H	0.518431	1.310351	-0.452354
H195	H	0.851765	1.643684	-0.119021
H196	H	0.106237	0.664156	0.131118
H197	H	0.439570	0.997489	0.464452
H198	H	0.772904	1.330823	0.797785
H199	H	-0.684956	1.014683	-0.000005
H200	H	-0.351623	1.348016	0.333328
H201	H	-0.018289	1.681350	0.666661
H202	H	-0.287639	1.021041	-0.000014
H203	H	0.045694	1.354374	0.333320
H204	H	0.379027	1.687708	0.666653
Cl205	Cl	0.103686	0.503438	-0.163128
Cl206	Cl	0.437019	0.836772	0.170205
Cl207	Cl	0.770353	1.170105	0.503538
H208	H	0.018723	0.810776	-0.634339
H209	H	0.352056	1.144109	-0.301005
H210	H	0.685389	1.477442	0.032328
Cl211	Cl	-0.131003	1.054157	-0.000030
Cl212	Cl	0.202330	1.387491	0.333303
Cl213	Cl	0.535664	1.720824	0.666637
H214	H	-0.508528	0.766721	0.000012
H215	H	-0.175195	1.100054	0.333346
H216	H	0.158138	1.433387	0.666679
Cl217	Cl	0.100171	0.284310	-0.163126
Cl218	Cl	0.433504	0.617643	0.170207
Cl219	Cl	0.766837	0.950977	0.503540
Cl220	Cl	0.097320	0.106128	-0.163131
Cl221	Cl	0.430654	0.439462	0.170202
Cl222	Cl	0.763987	0.772795	0.503536
Cl223	Cl	-0.267860	0.739968	0.000013
Cl224	Cl	0.065473	1.073301	0.333347
Cl225	Cl	0.398807	1.406634	0.666680
Cl226	Cl	-0.001578	0.790474	-0.384214
Cl227	Cl	0.331756	1.123807	-0.050881
Cl228	Cl	0.665089	1.457141	0.282453
Cl229	Cl	-0.089676	0.742816	0.000003
Cl230	Cl	0.243657	1.076149	0.333337
Cl231	Cl	0.576990	1.409482	0.666670
Cl232	Cl	0.205404	0.997278	-0.195803
Cl233	Cl	0.538737	1.330612	0.137530
Cl234	Cl	0.872071	1.663945	0.470863
Cl235	Cl	0.205402	0.997290	-0.384153
Cl236	Cl	0.538735	1.330623	-0.050820
Cl237	Cl	0.872069	1.663957	0.282514
H238	H	0.185098	0.977009	-0.634287
H239	H	0.518431	1.310343	-0.300953
H240	H	0.851764	1.643676	0.032380
