data_functionalizedCrystal
_audit_creation_method	'MofGen! by Chris Wilmer'
_symmetry_space_group_name_H-M	'P1'
_symmetry_Int_Tables_number	1
_symmetry_cell_setting	triclinic
loop_
_symmetry_equiv_pos_as_xyz
  x,y,z
_cell_length_a	16.109318
_cell_length_b	10.723023
_cell_length_c	9.798715
_cell_angle_alpha	90.002376
_cell_angle_beta	89.999870
_cell_angle_gamma	83.968055
loop_
_atom_site_label
_atom_site_type_symbol
_atom_site_fract_x
_atom_site_fract_y
_atom_site_fract_z
O1	O	1.104066	0.160493	0.113374
O2	O	0.862123	0.180431	0.113402
O3	O	0.988676	-0.011188	0.113382
O4	O	0.977513	0.352112	0.113394
O5	O	0.988667	-0.011189	-0.113600
O6	O	0.862114	0.180430	-0.113581
O7	O	1.104057	0.160492	-0.113608
Zn8	Zn	0.983084	0.170460	-0.149633
Zn9	Zn	0.983096	0.170462	0.149426
O10	O	0.977505	0.352110	-0.113588
C11	C	0.831139	0.179619	-0.000086
C12	C	0.738830	0.177186	-0.000076
C13	C	0.439715	0.169330	0.123628
C14	C	0.526450	0.171607	0.123637
C15	C	0.526459	0.171589	-0.123832
C16	C	0.439727	0.169302	-0.123839
C17	C	0.396357	0.168179	-0.000105
C18	C	0.569824	0.172743	-0.000089
C19	C	0.663865	0.175213	-0.000081
C20	C	0.302309	0.165708	-0.000113
C21	C	0.987859	-0.057677	-0.000108
C22	C	0.985429	-0.196200	-0.000103
C23	C	0.984350	-0.257950	0.117482
C24	C	0.981839	-0.401120	0.117490
C25	C	1.135041	0.161304	-0.000117
C26	C	1.227350	0.163737	-0.000119
C27	C	0.978321	0.398600	-0.000095
C28	C	0.980751	0.537122	-0.000091
N29	N	0.983082	0.170458	-0.353732
C30	C	1.036350	0.089829	-0.578672
C31	C	1.036339	0.089830	-0.421510
N32	N	0.983104	0.170454	0.353526
H33	H	0.404423	0.168364	-0.224603
H34	H	0.985283	-0.204824	0.218146
O35	O	0.568713	0.172751	-0.243899
C36	C	0.654566	0.174988	-0.217364
H37	H	0.663191	0.214787	-0.111026
H38	H	0.682597	0.236401	-0.296383
H39	H	0.687333	0.075591	-0.223226
H40	H	0.981683	-0.409782	-0.100766
O41	O	0.980760	-0.464275	0.237717
C42	C	0.982229	-0.379039	0.347041
H43	H	1.010142	-0.291401	0.310899
H44	H	1.021850	-0.424677	0.433537
H45	H	0.915886	-0.352117	0.385088
O46	O	0.984193	-0.259675	-0.120117
C47	C	0.910979	-0.320782	-0.127414
H48	H	0.886684	-0.335433	-0.019952
H49	H	0.925529	-0.415552	-0.179658
H50	H	0.861523	-0.260777	-0.188531
H51	H	1.081947	0.020804	-0.636974
O52	O	1.090579	0.007334	-0.351867
C53	C	1.045493	-0.069591	-0.269334
H54	H	0.980745	-0.019800	-0.248024
H55	H	1.080009	-0.089384	-0.168813
H56	H	1.039268	-0.161791	-0.324424
O57	O	0.928658	0.252643	-0.423423
C58	C	0.877015	0.185737	-0.506061
H59	H	0.909568	0.088080	-0.527324
H60	H	0.864233	0.237726	-0.606599
H61	H	0.815484	0.177303	-0.451087
O62	O	0.928823	0.252862	-0.576781
C63	C	0.973843	0.329799	-0.494145
H64	H	1.038618	0.280089	-0.472869
H65	H	0.939309	0.349450	-0.393613
H66	H	0.980004	0.422067	-0.549128
H67	H	0.404406	0.168414	0.224380
H68	H	0.561749	0.172542	0.224392
