data_functionalizedCrystal
_audit_creation_method	'MofGen! by Chris Wilmer'
_symmetry_space_group_name_H-M	'P1'
_symmetry_Int_Tables_number	1
_symmetry_cell_setting	triclinic
loop_
_symmetry_equiv_pos_as_xyz
  x,y,z
_cell_length_a	12.827893
_cell_length_b	18.050589
_cell_length_c	12.827885
_cell_angle_alpha	89.970449
_cell_angle_beta	89.980538
_cell_angle_gamma	90.028191
loop_
_atom_site_label
_atom_site_type_symbol
_atom_site_fract_x
_atom_site_fract_y
_atom_site_fract_z
Zn1	Zn	1.597578	-0.295624	-0.590850
Zn2	Zn	1.930912	0.037709	-0.257517
Zn3	Zn	2.264245	0.371043	0.075816
Zn4	Zn	1.597433	-0.419832	-0.416111
Zn5	Zn	1.930766	-0.086499	-0.082778
Zn6	Zn	2.264099	0.246835	0.250555
Zn7	Zn	1.422819	-0.295660	-0.416124
Zn8	Zn	1.756153	0.037673	-0.082791
Zn9	Zn	2.089486	0.371006	0.250543
Zn10	Zn	1.422766	-0.419777	-0.590811
Zn11	Zn	1.756099	-0.086443	-0.257478
Zn12	Zn	2.089433	0.246890	0.075855
O13	O	1.510149	-0.357723	-0.503474
O14	O	1.843482	-0.024390	-0.170141
O15	O	2.176816	0.308943	0.163192
O16	O	1.743795	-0.312109	-0.567682
O17	O	2.077128	0.021225	-0.234349
O18	O	2.410462	0.354558	0.098985
O19	O	1.574231	-0.403399	-0.269877
O20	O	1.907565	-0.070065	0.063456
O21	O	2.240898	0.263268	0.396790
O22	O	1.446085	-0.191731	-0.439323
O23	O	1.779418	0.141603	-0.105990
O24	O	2.112751	0.474936	0.227343
O25	O	1.743688	-0.403364	-0.439302
O26	O	2.077021	-0.070030	-0.105969
O27	O	2.410355	0.263303	0.227365
O28	O	1.574479	-0.191704	-0.567694
O29	O	1.907813	0.141629	-0.234361
O30	O	2.241146	0.474962	0.098973
O31	O	1.445943	-0.312170	-0.269886
O32	O	1.779277	0.021163	0.063447
O33	O	2.112610	0.354497	0.396780
O34	O	1.276576	-0.312117	-0.439286
O35	O	1.609909	0.021217	-0.105952
O36	O	1.943243	0.354550	0.227381
O37	O	1.445994	-0.403269	-0.737053
O38	O	1.779327	-0.069936	-0.403719
O39	O	2.112661	0.263397	-0.070386
O40	O	1.276537	-0.403304	-0.567628
O41	O	1.609870	-0.069971	-0.234294
O42	O	1.943204	0.263362	0.099039
O43	O	1.574428	-0.312055	-0.737081
O44	O	1.907761	0.021278	-0.403748
O45	O	2.241094	0.354612	-0.070415
O46	O	1.574180	-0.523749	-0.439264
O47	O	1.907513	-0.190416	-0.105931
O48	O	2.240846	0.142917	0.227403
O49	O	1.445853	-0.523709	-0.567615
O50	O	1.779186	-0.190375	-0.234282
O51	O	2.112519	0.142958	0.099051
C52	C	1.238639	-0.357709	-0.503454
C53	C	1.571973	-0.024376	-0.170121
C54	C	1.905306	0.308958	0.163212
C55	C	1.122486	-0.357721	-0.503471
C56	C	1.455819	-0.024387	-0.170137
C57	C	1.789153	0.308946	0.163196
C58	C	1.510023	-0.550675	-0.503457
C59	C	1.843356	-0.217342	-0.170124
C60	C	2.176690	0.115991	0.163210
C61	C	1.510065	-0.633221	-0.503484
C62	C	1.843398	-0.299888	-0.170151
C63	C	2.176731	0.033445	0.163182
C64	C	1.070710	-0.402914	-0.566880
C65	C	1.404043	-0.069580	-0.233547
C66	C	1.737376	0.263753	0.099786
C67	C	0.950659	-0.402927	-0.566899
C68	C	1.283993	-0.069594	-0.233565
C69	C	1.617326	0.263740	0.099768
C70	C	1.440349	-0.832677	-0.573257
C71	C	1.773682	-0.499343	-0.239924
C72	C	2.107016	-0.166010	0.093409
C73	C	1.414872	-0.882124	-0.477900
C74	C	1.748205	-0.548791	-0.144567
C75	C	2.081539	-0.215457	0.188766
C76	C	1.510167	-0.784351	-0.503498
C77	C	1.843501	-0.451018	-0.170165
C78	C	2.176834	-0.117685	0.163169
C79	C	1.535696	-0.881986	-0.598866
C80	C	1.869029	-0.548652	-0.265533
C81	C	2.202362	-0.215319	0.067801
C82	C	1.510264	-0.930337	-0.503520
C83	C	1.843598	-0.597003	-0.170186
C84	C	2.176931	-0.263670	0.163147
C85	C	1.484640	-0.832712	-0.408091
C86	C	1.817973	-0.499378	-0.074757
C87	C	2.151307	-0.166045	0.258576
C88	C	1.605508	-0.832569	-0.529120
C89	C	1.938841	-0.499236	-0.195787
C90	C	2.272175	-0.165902	0.137546
C91	C	1.580067	-0.881994	-0.433698
C92	C	1.913401	-0.548661	-0.100364
C93	C	2.246734	-0.215327	0.232969
C94	C	1.510109	-0.700253	-0.503487
C95	C	1.843442	-0.366920	-0.170154
C96	C	2.176775	-0.033587	0.163180
C97	C	1.510323	-1.014433	-0.503520
C98	C	1.843657	-0.681100	-0.170187
C99	C	2.176990	-0.347766	0.163147
C100	C	1.782719	-0.357738	-0.503495
C101	C	2.116053	-0.024405	-0.170161
C102	C	2.449386	0.308929	0.163172
C103	C	1.898872	-0.357745	-0.503504
C104	C	2.232206	-0.024411	-0.170170
C105	C	2.565539	0.308922	0.163163
C106	C	1.510221	-0.357652	-0.776045
C107	C	1.843554	-0.024319	-0.442711
C108	C	2.176888	0.309015	-0.109378
C109	C	1.510252	-0.357622	-0.892198
C110	C	1.843585	-0.024288	-0.558864
C111	C	2.176919	0.309045	-0.225531
C112	C	1.510304	-0.164018	-0.503515
C113	C	1.843638	0.169316	-0.170181
C114	C	2.176971	0.502649	0.163152
C115	C	1.510370	-0.081472	-0.503532
C116	C	1.843704	0.251862	-0.170198
C117	C	2.177037	0.585195	0.163135
C118	C	1.446791	-0.312470	-0.943987
C119	C	1.780125	0.020863	-0.610654
C120	C	2.113458	0.354197	-0.277320
C121	C	1.446822	-0.312438	-1.064038
C122	C	1.780155	0.020896	-0.730704
C123	C	2.113488	0.354229	-0.397371
C124	C	1.510137	-0.357741	-0.231964
C125	C	1.843471	-0.024407	0.101369
C126	C	2.176804	0.308926	0.434702
C127	C	1.510309	-0.357562	-0.115812
C128	C	1.843643	-0.024229	0.217522
C129	C	2.176976	0.309105	0.550855
H130	H	1.115259	-0.441593	-0.621158
H131	H	1.448592	-0.108260	-0.287825
H132	H	1.781925	0.225074	0.045509
H133	H	1.639152	-0.903512	-0.374645
H134	H	1.972485	-0.570179	-0.041312
H135	H	2.305819	-0.236845	0.292021
H136	H	1.381219	-0.811021	-0.632167
H137	H	1.714552	-0.477688	-0.298834
H138	H	2.047886	-0.144355	0.034499
H139	H	1.686071	-0.810788	-0.550818
H140	H	2.019404	-0.477455	-0.217485
H141	H	2.352738	-0.144121	0.115849
H142	H	1.564647	-0.396217	-1.071281
H143	H	1.897980	-0.062884	-0.737948
H144	H	2.231314	0.270450	-0.404614
H145	H	1.557249	-0.903630	-0.679509
H146	H	1.890582	-0.570297	-0.346176
H147	H	2.223916	-0.236964	-0.012842
H148	H	1.077937	-0.319036	-0.449201
H149	H	1.411270	0.014297	-0.115868
H150	H	1.744604	0.347631	0.217466
H151	H	1.334291	-0.903907	-0.456249
H152	H	1.667624	-0.570574	-0.122915
H153	H	2.000957	-0.237241	0.210418
H154	H	0.906133	-0.441621	-0.621183
H155	H	1.239466	-0.108287	-0.287850
H156	H	1.572799	0.225046	0.045484
H157	H	1.564604	-0.396254	-0.936736
H158	H	1.897937	-0.062921	-0.603402
H159	H	2.231271	0.270412	-0.270069
H160	H	1.392434	-0.273841	-0.899449
H161	H	1.725767	0.059492	-0.566116
H162	H	2.059100	0.392826	-0.232782
H163	H	1.462994	-0.811157	-0.327426
H164	H	1.796327	-0.477823	0.005908
H165	H	2.129660	-0.144490	0.339241
H166	H	0.943392	-0.319054	-0.449210
H167	H	1.276726	0.014280	-0.115876
H168	H	1.610059	0.347613	0.217457
H169	H	1.392495	-0.273778	-1.108575
H170	H	1.725828	0.059555	-0.775242
H171	H	2.059162	0.392888	-0.441908
