data_functionalizedCrystal
_audit_creation_method	'MofGen! by Chris Wilmer'
_symmetry_space_group_name_H-M	'P1'
_symmetry_Int_Tables_number	1
_symmetry_cell_setting	triclinic
loop_
_symmetry_equiv_pos_as_xyz
  x,y,z
_cell_length_a	18.101398
_cell_length_b	18.101397
_cell_length_c	10.686551
_cell_angle_alpha	85.588535
_cell_angle_beta	85.611812
_cell_angle_gamma	90.016023
loop_
_atom_site_label
_atom_site_type_symbol
_atom_site_fract_x
_atom_site_fract_y
_atom_site_fract_z
Zn1	Zn	1.164327	-0.262755	-0.713149
Zn2	Zn	1.154732	-0.396121	-0.502124
Zn3	Zn	1.030976	-0.272285	-0.502192
Zn4	Zn	1.040458	-0.386552	-0.713103
O5	O	1.097623	-0.329428	-0.607642
O6	O	1.266687	-0.280463	-0.685147
O7	O	1.130332	-0.387687	-0.325552
O8	O	1.048712	-0.167386	-0.530224
O9	O	1.259638	-0.378446	-0.530108
O10	O	1.146685	-0.160384	-0.685213
O11	O	1.039408	-0.296705	-0.325602
O12	O	0.928601	-0.287427	-0.530179
O13	O	1.064874	-0.362137	-0.889690
O14	O	0.935568	-0.371378	-0.685134
O15	O	1.155880	-0.271184	-0.889724
O16	O	1.139527	-0.498487	-0.530063
O17	O	1.055570	-0.491456	-0.685068
C18	C	0.905214	-0.329398	-0.607660
C19	C	0.822901	-0.329402	-0.607697
C20	C	0.523808	-0.329448	-0.607644
C21	C	0.559519	-0.382566	-0.704656
C22	C	0.645156	-0.382368	-0.705055
C23	C	0.672192	-0.329426	-0.607671
C24	C	0.642761	-0.249784	-0.644017
C25	C	0.557147	-0.250098	-0.644707
C26	C	0.549336	-0.355294	-0.474052
C27	C	0.635019	-0.356974	-0.474765
C28	C	0.756052	-0.329409	-0.607683
C29	C	0.439948	-0.329460	-0.607635
C30	C	1.097557	-0.521842	-0.607581
C31	C	1.097599	-0.604155	-0.607597
C32	C	1.097698	-0.903241	-0.607712
C33	C	1.150350	-0.876320	-0.509926
C34	C	1.150559	-0.790690	-0.510179
C35	C	1.097649	-0.754861	-0.607654
C36	C	1.124801	-0.779870	-0.740656
C37	C	1.125219	-0.865539	-0.740124
C38	C	1.017794	-0.873280	-0.573647
C39	C	1.018047	-0.787765	-0.570678
C40	C	1.097620	-0.671003	-0.607629
C41	C	1.097729	-0.987099	-0.607746
C42	C	1.290784	-0.329459	-0.607625
C43	C	1.373098	-0.329472	-0.607618
C44	C	1.112505	-0.314530	-0.936772
C45	C	1.118846	-0.308182	-1.077028
C46	C	1.097711	-0.136262	-0.607731
C47	C	1.097749	-0.053947	-0.607769
C48	C	1.082842	-0.344215	-0.279792
C49	C	1.076644	-0.350355	-0.139537
H50	H	0.525811	-0.316676	-0.401769
C51	C	1.203133	-0.749093	-0.780265
H52	H	1.219086	-0.764543	-0.860866
H53	H	1.236347	-0.767255	-0.720618
H54	H	1.202294	-0.696502	-0.783750
H55	H	1.088876	-0.882863	-0.815491
C56	C	1.126683	-0.768377	-0.376953
H57	H	1.116770	-0.811685	-0.322186
H58	H	1.083248	-0.739031	-0.379531
H59	H	1.165314	-0.740660	-0.346934
H60	H	0.665134	-0.441239	-0.682274
C61	C	0.530309	-0.462335	-0.674242
H62	H	0.496068	-0.463961	-0.602113
H63	H	0.570548	-0.494437	-0.658013
H64	H	0.506270	-0.477815	-0.743837
H65	H	1.035664	-0.391320	-1.085754
H66	H	1.209089	-0.896787	-0.532204
C67	C	0.678883	-0.358611	-0.838765
H68	H	0.640240	-0.349036	-0.893049
H69	H	0.709380	-0.397140	-0.868891
H70	H	0.707829	-0.314983	-0.836849
C71	C	1.174218	-0.252844	-1.149682
H72	H	1.171360	-0.255690	-1.237581
H73	H	1.223007	-0.264655	-1.128128
H74	H	1.162436	-0.204043	-1.128171
H75	H	1.132815	-0.901424	-0.411011
C76	C	0.964692	-0.896314	-0.669847
H77	H	0.916501	-0.878046	-0.648775
H78	H	0.962923	-0.948822	-0.668458
H79	H	0.981894	-0.876272	-0.751663
C80	C	0.536464	-0.359076	-0.837606
H81	H	0.505171	-0.317036	-0.834249
H82	H	0.510602	-0.398709	-0.868459
H83	H	0.579401	-0.346975	-0.892128
C84	C	0.536121	-0.221447	-0.776640
H85	H	0.579880	-0.209729	-0.829314
H86	H	0.506614	-0.178307	-0.770383
H87	H	0.508909	-0.258642	-0.811632
C88	C	0.525024	-0.194377	-0.553440
H89	H	0.564307	-0.171645	-0.516113
H90	H	0.492973	-0.219597	-0.489556
H91	H	0.497984	-0.157499	-0.598364
H92	H	0.660031	-0.208873	-0.575563
H93	H	0.994251	-0.899238	-0.478344
H94	H	0.976222	-0.763398	-0.636686
C95	C	0.677628	-0.220772	-0.774517
H96	H	0.659474	-0.172538	-0.795675
H97	H	0.664942	-0.253082	-0.835592
H98	H	0.729982	-0.218788	-0.772785
C99	C	0.518143	-0.432830	-0.429427
H100	H	0.489255	-0.450165	-0.491862
H101	H	0.488021	-0.430187	-0.353130
H102	H	0.557916	-0.465981	-0.415794
C103	C	1.230351	-0.761564	-0.540633
H104	H	1.262764	-0.802080	-0.552910
H105	H	1.245051	-0.735506	-0.472707
H106	H	1.232469	-0.729145	-0.615094
C107	C	0.660777	-0.436188	-0.437730
H108	H	0.638098	-0.452542	-0.357251
H109	H	0.713101	-0.436474	-0.434902
H110	H	0.647012	-0.468422	-0.498187
C111	C	0.659270	-0.309149	-0.371872
H112	H	0.692528	-0.271585	-0.408787
H113	H	0.683260	-0.339444	-0.310895
H114	H	0.616979	-0.286898	-0.332469
H115	H	1.183804	-0.884161	-0.768982
H116	H	1.087885	-0.756133	-0.815473
H117	H	0.997682	-0.771920	-0.472799
