data_functionalizedCrystal
_audit_creation_method	'MofGen! by Chris Wilmer'
_symmetry_space_group_name_H-M	'P1'
_symmetry_Int_Tables_number	1
_symmetry_cell_setting	triclinic
loop_
_symmetry_equiv_pos_as_xyz
  x,y,z
_cell_length_a	18.101395
_cell_length_b	12.759401
_cell_length_c	12.759393
_cell_angle_alpha	90.020895
_cell_angle_beta	89.966555
_cell_angle_gamma	89.970274
loop_
_atom_site_label
_atom_site_type_symbol
_atom_site_fract_x
_atom_site_fract_y
_atom_site_fract_z
Zn1	Zn	-0.294813	-1.606136	-0.594035
Zn2	Zn	-0.418675	-1.605980	-0.418349
Zn3	Zn	-0.294849	-1.430438	-0.418367
Zn4	Zn	-0.418614	-1.430376	-0.593983
O5	O	-0.356738	-1.518232	-0.506184
O6	O	-0.311254	-1.753136	-0.570744
O7	O	-0.402289	-1.582654	-0.271330
O8	O	-0.191211	-1.453835	-0.441699
O9	O	-0.402255	-1.753021	-0.441668
O10	O	-0.191185	-1.582920	-0.570761
O11	O	-0.311314	-1.453684	-0.271343
O12	O	-0.311256	-1.283408	-0.441649
O13	O	-0.402152	-1.453730	-0.741011
O14	O	-0.402186	-1.283363	-0.570673
O15	O	-0.311196	-1.582860	-0.741049
O16	O	-0.522300	-1.582594	-0.441618
O17	O	-0.522255	-1.453579	-0.570656
C18	C	-0.356719	-1.245265	-0.506158
C19	C	-0.356729	-1.128488	-0.506172
C20	C	-0.404053	-0.963843	-0.438886
C21	C	-0.404040	-1.073567	-0.438871
C22	C	-0.309423	-1.073679	-0.573485
C23	C	-0.309433	-0.963957	-0.573494
C24	C	-0.451373	-0.908928	-0.371589
C25	C	-0.498678	-0.963729	-0.304274
C26	C	-0.498664	-1.073453	-0.304259
C27	C	-0.451346	-1.128376	-0.371558
C28	C	-0.549148	-1.518092	-0.506153
C29	C	-0.631462	-1.518128	-0.506175
C30	C	-0.930553	-1.518358	-0.506231
C31	C	-0.899231	-1.437374	-0.587620
C32	C	-0.813613	-1.436989	-0.587365
C33	C	-0.782171	-1.518244	-0.506204
C34	C	-0.813330	-1.488263	-0.395478
C35	C	-0.898975	-1.487741	-0.395965
C36	C	-0.898897	-1.629501	-0.534594
C37	C	-0.813245	-1.628847	-0.537022
C38	C	-0.698311	-1.518181	-0.506182
C39	C	-1.014413	-1.518418	-0.506246
C40	C	-0.163576	-1.518402	-0.506238
C41	C	-0.081262	-1.518474	-0.506261
C42	C	-0.356663	-1.518306	-0.780217
C43	C	-0.356631	-1.518337	-0.896994
C44	C	-0.356754	-0.792265	-0.506204
C45	C	-0.356752	-0.909042	-0.506196
C46	C	-0.309266	-1.585584	-0.951877
C47	C	-0.309239	-1.585609	-1.061601
C48	C	-0.403949	-1.451137	-1.061549
C49	C	-0.403972	-1.451108	-0.951827
C50	C	-0.261925	-1.652814	-0.897044
C51	C	-0.214556	-1.720068	-0.951928
C52	C	-0.214530	-1.720092	-1.061652
C53	C	-0.261871	-1.652864	-1.116492
C54	C	-0.356759	-1.518219	-0.233216
C55	C	-0.356582	-1.518392	-0.116440
H56	H	-0.919773	-1.455945	-0.669988
H57	H	-0.537199	-0.919004	-0.249477
N58	N	-0.261840	-1.652907	-1.228573
N59	N	-0.277312	-1.734861	-1.277549
H60	H	-0.277292	-1.734896	-1.356706
N61	N	-0.451379	-0.796849	-0.371622
N62	N	-0.466922	-0.747911	-0.453549
H63	H	-0.466925	-0.668754	-0.453577
N64	N	-0.261947	-1.652809	-0.784965
N65	N	-0.219679	-1.712840	-0.736016
H66	H	-0.219696	-1.712839	-0.656860
H67	H	-0.176008	-1.774796	-0.907269
N68	N	-0.787683	-1.657249	-0.639233
N69	N	-0.806291	-1.743011	-0.678527
H70	H	-0.788231	-1.763072	-0.750711
N71	N	-0.452315	-1.382480	-1.117558
N72	N	-0.520654	-1.389375	-1.105276
H73	H	-0.554815	-1.340883	-1.144829
H74	H	-0.442530	-1.396333	-0.907140
H75	H	-0.537177	-1.118070	-0.249441
H76	H	-0.451333	-1.217721	-0.371533
N77	N	-0.261095	-1.129794	-0.642216
N78	N	-0.261093	-1.227759	-0.642197
H79	H	-0.226961	-1.267392	-0.690741
N80	N	-0.261126	-0.907988	-0.642274
N81	N	-0.218896	-0.957029	-0.702376
H82	H	-0.184782	-0.917501	-0.750961
H83	H	-0.792543	-1.455746	-0.669467
N84	N	-0.166134	-1.788781	-1.117699
N85	N	-0.123869	-1.848793	-1.068724
H86	H	-0.089688	-1.897310	-1.108305
H87	H	-0.920818	-1.355493	-0.569069
H88	H	-0.919019	-1.406496	-0.371938
N89	N	-0.787998	-1.333638	-0.563800
N90	N	-0.833373	-1.261570	-0.547481
H91	H	-0.815284	-1.188573	-0.530836
N92	N	-0.924991	-1.558501	-0.317288
N93	N	-0.992827	-1.570716	-0.303628
H94	H	-1.011199	-1.620683	-0.248059
N95	N	-0.924308	-1.705214	-0.460255
N96	N	-0.905275	-1.799007	-0.468878
H97	H	-0.923225	-1.852475	-0.416375
H98	H	-0.792965	-1.545393	-0.333184
H99	H	-0.791946	-1.407879	-0.371021
H100	H	-0.791838	-1.692377	-0.482064
N101	N	-0.925929	-1.663783	-0.634154
N102	N	-0.968861	-1.606709	-0.685419
H103	H	-0.987955	-1.630911	-0.755737
