data_functionalizedCrystal
_audit_creation_method	'MofGen! by Chris Wilmer'
_symmetry_space_group_name_H-M	'P1'
_symmetry_Int_Tables_number	1
_symmetry_cell_setting	triclinic
loop_
_symmetry_equiv_pos_as_xyz
  x,y,z
_cell_length_a	12.594516
_cell_length_b	12.827893
_cell_length_c	12.827885
_cell_angle_alpha	89.980918
_cell_angle_beta	89.971946
_cell_angle_gamma	90.016214
loop_
_atom_site_label
_atom_site_type_symbol
_atom_site_fract_x
_atom_site_fract_y
_atom_site_fract_z
Zn1	Zn	-0.423686	1.597665	-0.590856
Zn2	Zn	-0.601702	1.597557	-0.416122
Zn3	Zn	-0.423738	1.422906	-0.416130
Zn4	Zn	-0.601623	1.422889	-0.590822
O5	O	-0.512687	1.510254	-0.503482
O6	O	-0.447311	1.743887	-0.567688
O7	O	-0.578150	1.574351	-0.269887
O8	O	-0.274786	1.446140	-0.439326
O9	O	-0.578099	1.743807	-0.439311
O10	O	-0.274747	1.574535	-0.567696
O11	O	-0.447400	1.446036	-0.269893
O12	O	-0.447324	1.276668	-0.439293
O13	O	-0.577965	1.446112	-0.737063
O14	O	-0.578016	1.276656	-0.567638
O15	O	-0.447235	1.574519	-0.737088
O16	O	-0.750637	1.574335	-0.439278
O17	O	-0.750580	1.446007	-0.567630
C18	C	-0.512668	1.238744	-0.503463
C19	C	-0.512685	1.122591	-0.503480
C20	C	-0.577473	0.950784	-0.566907
C21	C	-0.577456	1.070834	-0.566892
C22	C	-0.789228	1.510186	-0.503472
C23	C	-0.907534	1.510252	-0.503503
C24	C	-0.976794	1.440448	-0.573264
C25	C	-1.047663	1.414986	-0.477909
C26	C	-1.047464	1.535809	-0.598874
C27	C	-0.976844	1.484740	-0.408097
C28	C	-0.976639	1.605607	-0.529127
C29	C	-1.047476	1.580182	-0.433706
C30	C	-0.235067	1.510352	-0.503516
C31	C	-0.116761	1.510393	-0.503530
C32	C	-0.512585	1.510325	-0.776053
C33	C	-0.512542	1.510356	-0.892206
C34	C	-0.512708	1.782824	-0.503502
C35	C	-0.512717	1.898978	-0.503510
C36	C	-0.447840	1.573902	-0.944003
C37	C	-0.447793	1.573935	-1.064053
C38	C	-0.512712	1.510244	-0.231973
C39	C	-0.512456	1.510416	-0.115820
H40	H	-0.457238	1.078046	-0.449205
H41	H	-0.567857	1.456012	-1.071282
Cl42	Cl	-0.663108	0.882052	-0.650712
Cl43	Cl	-1.095093	1.671417	-0.342540
H44	H	-0.945758	1.381312	-0.632173
Cl45	Cl	-0.598011	1.426386	-0.960950
Cl46	Cl	-0.427104	0.967710	-0.419684
Cl47	Cl	-1.095826	1.290580	-0.444453
Cl48	Cl	-0.362271	1.657942	-1.132820
H49	H	-0.392477	1.628279	-0.899472
H50	H	-0.632891	1.115386	-0.621173
H51	H	-0.945422	1.686164	-0.550823
Cl52	Cl	-1.095363	1.569095	-0.723379
Cl53	Cl	-0.929155	1.451311	-0.283553
