data_functionalizedCrystal
_audit_creation_method	'MofGen! by Chris Wilmer'
_symmetry_space_group_name_H-M	'P1'
_symmetry_Int_Tables_number	1
_symmetry_cell_setting	triclinic
loop_
_symmetry_equiv_pos_as_xyz
  x,y,z
_cell_length_a	23.532355
_cell_length_b	23.532407
_cell_length_c	13.596369
_cell_angle_alpha	89.985528
_cell_angle_beta	90.000488
_cell_angle_gamma	82.838123
loop_
_atom_site_label
_atom_site_type_symbol
_atom_site_fract_x
_atom_site_fract_y
_atom_site_fract_z
O1	O	0.755279	0.068995	-0.081676
O2	O	0.589412	0.079029	-0.081709
O3	O	0.677347	-0.008921	-0.081664
O4	O	0.667344	0.156945	-0.081721
O5	O	0.677339	-0.008925	0.081919
O6	O	0.589403	0.079025	0.081874
O7	O	0.755271	0.068990	0.081907
Zn8	Zn	0.672335	0.074007	0.107863
Zn9	Zn	0.672347	0.074013	-0.107665
O10	O	0.667335	0.156940	0.081862
C11	C	0.568191	0.078776	0.000078
C12	C	0.504972	0.078022	0.000067
C13	C	0.112954	0.073281	0.089278
C14	C	0.053554	0.072564	0.089282
O15	O	0.022832	0.072171	0.165116
N16	N	0.023850	0.072211	0.000114
C17	C	0.053550	0.072569	-0.089065
O18	O	0.022830	0.072202	-0.164909
C19	C	0.112949	0.073282	-0.089068
C20	C	0.142649	0.073641	0.000107
C21	C	0.142654	0.073640	0.178446
C22	C	0.202049	0.074358	0.178441
C23	C	0.231744	0.074718	0.089270
C24	C	0.202044	0.074360	0.000102
C25	C	0.142648	0.073637	-0.178245
C26	C	0.202051	0.074350	-0.178240
C27	C	0.231751	0.074709	-0.089066
C28	C	0.291134	0.075439	-0.089074
N29	N	0.320838	0.075792	0.000095
C30	C	0.291143	0.075432	0.089267
C31	C	-0.071192	0.071070	-0.089051
C32	C	-0.130590	0.070361	-0.089049
C33	C	-0.130581	0.070355	0.089298
C34	C	-0.071183	0.071068	0.089295
C35	C	-0.041488	0.071423	0.000117
C36	C	0.415877	0.076941	0.089251
C37	C	0.475277	0.077662	0.089238
C38	C	0.475264	0.077665	-0.089109
C39	C	0.415868	0.076947	-0.089097
C40	C	0.386177	0.076583	0.000091
O41	O	0.321895	0.075829	-0.164869
O42	O	0.321871	0.075791	0.165098
C43	C	0.677088	-0.030139	0.000133
C44	C	0.676322	-0.093356	0.000147
C45	C	0.621125	-0.359513	0.000075
C46	C	0.621837	-0.300113	0.000082
O47	O	0.578050	-0.263360	0.000042
N48	N	0.674114	-0.277496	0.000104
C49	C	0.725684	-0.314283	0.000109
O50	O	0.770216	-0.289592	0.000127
C51	C	0.724972	-0.373682	0.000094
C52	C	0.672691	-0.396295	0.000082
C53	C	0.568849	-0.382126	0.000062
C54	C	0.568137	-0.441522	0.000056
C55	C	0.619703	-0.478305	0.000063
C56	C	0.671980	-0.455691	0.000076
C57	C	0.776541	-0.410468	0.000091
C58	C	0.775824	-0.469871	0.000076
C59	C	0.723543	-0.492484	0.000064
C60	C	0.722834	-0.551870	0.000077
N61	N	0.670556	-0.574486	0.000055
C62	C	0.618991	-0.537704	0.000048
C63	C	0.727175	-0.189541	0.000138
C64	C	0.727888	-0.130143	0.000160
C65	C	0.624041	-0.115977	0.000132
C66	C	0.623329	-0.175376	0.000117
C67	C	0.674898	-0.212158	0.000116
C68	C	0.617501	-0.662440	0.000037
C69	C	0.616795	-0.721842	0.000035
C70	C	0.720642	-0.736004	0.000058
C71	C	0.721349	-0.676607	0.000065
C72	C	0.669774	-0.639826	0.000051
O73	O	0.766598	-0.588657	0.000113
O74	O	0.574467	-0.562403	0.000017
C75	C	0.776492	0.069244	0.000118
C76	C	0.839710	0.069998	0.000123
C77	C	0.667594	0.178158	0.000063
C78	C	0.668360	0.241375	0.000042
N79	N	0.672332	0.074002	0.254955
N80	N	0.672355	0.074013	-0.254757
C81	C	0.672346	0.074013	0.656246
C82	C	0.672340	0.074012	0.544594
C83	C	0.672339	0.074008	0.455604
C84	C	0.672333	0.074006	0.343945
H85	H	-0.047018	0.071365	-0.161675
N86	N	0.828498	-0.507450	0.000070
N87	N	0.839690	-0.542164	-0.068887
H88	H	0.876889	-0.568704	-0.068889
N89	N	0.232390	0.074720	-0.269328
N90	N	0.285423	0.075362	-0.269328
H91	H	0.306850	0.075626	-0.333657
N92	N	0.112328	0.073274	-0.269345
N93	N	0.138861	0.073593	-0.348947
H94	H	0.117449	0.073337	-0.413293
H95	H	0.526855	-0.352183	0.000052
N96	N	0.514734	-0.464617	0.000010
N97	N	0.502755	-0.496162	-0.068961
H98	H	0.465036	-0.512470	-0.068999
N99	N	0.505615	0.078015	0.180333
N100	N	0.544240	0.038263	0.200246
H101	H	0.565665	0.038510	0.264580
N102	N	0.774756	-0.653514	0.000102
N103	N	0.820792	-0.686365	0.000119
H104	H	0.858513	-0.670060	0.000141
H105	H	0.580757	-0.193783	0.000111
H106	H	0.391708	0.076650	0.161876
H107	H	0.499452	0.077961	-0.161710
N108	N	0.385535	0.076588	-0.180193
N109	N	0.412058	0.076911	-0.259803
H110	H	0.390640	0.076652	-0.324142
N111	N	0.571371	-0.078390	0.000105
N112	N	0.560197	-0.043651	-0.068851
H113	H	0.523002	-0.017103	-0.068871
N114	N	0.564826	-0.624866	0.000018
N115	N	0.553635	-0.590127	-0.068933
H116	H	0.516434	-0.563589	-0.068941
H117	H	0.226226	0.074647	0.251056
N118	N	0.829951	-0.387389	0.000104
N119	N	0.875982	-0.420248	0.000101
H120	H	0.913706	-0.403951	0.000108
H121	H	0.574219	-0.740250	0.000030
N122	N	0.781297	-0.107058	0.000195
N123	N	0.827331	-0.139913	0.000207
H124	H	0.865053	-0.123612	0.000228
N125	N	0.112336	0.073268	0.269549
N126	N	0.138873	0.073586	0.349148
H127	H	0.117465	0.073327	0.413497
N128	N	0.779861	-0.227103	0.000142
N129	N	0.826530	-0.206896	0.000162
H130	H	0.863740	-0.233421	0.000163
N131	N	-0.160922	0.069988	-0.180140
N132	N	-0.188580	0.029434	-0.200026
H133	H	-0.210000	0.029167	-0.264362
N134	N	0.773312	-0.773582	0.000082
N135	N	0.784495	-0.808323	0.069033
H136	H	0.821694	-0.834865	0.069046
N137	N	-0.040857	0.071442	0.180392
N138	N	-0.067386	0.071128	0.259999
H139	H	-0.045972	0.071394	0.324341
H140	H	-0.154770	0.070060	0.161907
