data_functionalizedCrystal
_audit_creation_method	'MofGen! by Chris Wilmer'
_symmetry_space_group_name_H-M	'P1'
_symmetry_Int_Tables_number	1
_symmetry_cell_setting	triclinic
loop_
_symmetry_equiv_pos_as_xyz
  x,y,z
_cell_length_a	19.288840
_cell_length_b	14.519709
_cell_length_c	17.766277
_cell_angle_alpha	90.014774
_cell_angle_beta	89.983415
_cell_angle_gamma	96.596921
loop_
_atom_site_label
_atom_site_type_symbol
_atom_site_fract_x
_atom_site_fract_y
_atom_site_fract_z
O1	O	0.921778	-0.114935	-0.062734
O2	O	1.255111	0.218398	0.270600
O3	O	1.588444	0.551732	0.603933
O4	O	0.719571	-0.130478	-0.062710
O5	O	1.052904	0.202855	0.270624
O6	O	1.386237	0.536188	0.603957
O7	O	0.826035	0.011566	-0.062701
O8	O	1.159369	0.344900	0.270632
O9	O	1.492702	0.678233	0.603965
O10	O	0.815313	-0.256980	-0.062742
O11	O	1.148646	0.076354	0.270591
O12	O	1.481980	0.409687	0.603925
O13	O	0.826017	0.011574	0.062487
O14	O	1.159350	0.344907	0.395821
O15	O	1.492683	0.678240	0.729154
O16	O	0.719552	-0.130471	0.062479
O17	O	1.052885	0.202862	0.395812
O18	O	1.386219	0.536195	0.729146
O19	O	0.921759	-0.114928	0.062455
O20	O	1.255092	0.218406	0.395788
O21	O	1.588426	0.551739	0.729121
Cu22	Cu	0.820654	-0.122699	0.073898
Cu23	Cu	1.153987	0.210634	0.407231
Cu24	Cu	1.487320	0.543968	0.740564
Cu25	Cu	0.820676	-0.122707	-0.074152
Cu26	Cu	1.154009	0.210626	0.259181
Cu27	Cu	1.487343	0.543959	0.592514
O28	O	0.815294	-0.256973	0.062446
O29	O	1.148628	0.076361	0.395780
O30	O	1.481961	0.409694	0.729113
C31	C	0.693683	-0.129979	-0.000112
C32	C	1.027016	0.203355	0.333221
C33	C	1.360349	0.536688	0.666555
C34	C	0.616573	-0.128489	-0.000102
C35	C	0.949906	0.204845	0.333232
C36	C	1.283239	0.538178	0.666565
C37	C	0.580377	-0.127777	-0.068344
C38	C	0.913710	0.205556	0.264990
C39	C	1.247044	0.538890	0.598323
C40	C	0.507925	-0.126367	-0.068353
C41	C	0.841258	0.206966	0.264981
C42	C	1.174592	0.540300	0.598314
C43	C	0.471673	-0.125650	-0.000116
C44	C	0.805007	0.207683	0.333218
C45	C	1.138340	0.541017	0.666551
C46	C	0.507878	-0.126367	0.068135
C47	C	0.841211	0.206966	0.401469
C48	C	1.174544	0.540299	0.734802
C49	C	0.580327	-0.127787	0.068142
C50	C	0.913661	0.205547	0.401476
C51	C	1.246994	0.538880	0.734809
C52	C	0.362135	-0.069381	0.052161
C53	C	0.695469	0.263952	0.385495
C54	C	1.028802	0.597285	0.718828
C55	C	0.289688	-0.067956	0.052151
C56	C	0.623021	0.265377	0.385485
C57	C	0.956354	0.598710	0.718818
C58	C	0.248214	-0.121276	-0.000135
C59	C	0.581547	0.212057	0.333199
C60	C	0.914881	0.545390	0.666532
C61	C	0.279198	-0.176010	-0.052424
C62	C	0.612532	0.157323	0.280910
C63	C	0.945865	0.490657	0.614243
C64	C	0.351648	-0.177429	-0.052417
C65	C	0.684981	0.155904	0.280917
C66	C	1.018315	0.489237	0.614250
C67	C	0.393114	-0.124112	-0.000116
C68	C	0.726447	0.209222	0.333217
C69	C	1.059781	0.542555	0.666551
C70	C	0.133457	-0.119037	-0.068391
C71	C	0.466791	0.214296	0.264942
C72	C	0.800124	0.547630	0.598275
C73	C	0.061003	-0.117633	-0.068397
C74	C	0.394337	0.215701	0.264936
C75	C	0.727670	0.549034	0.598269
C76	C	0.060958	-0.117624	0.068093
C77	C	0.394292	0.215710	0.401426
C78	C	0.727625	0.549043	0.734759
C79	C	0.133410	-0.119037	0.068097
C80	C	0.466743	0.214296	0.401430
C81	C	0.800077	0.547629	0.734763
C82	C	0.169656	-0.119740	-0.000147
C83	C	0.502989	0.213594	0.333186
C84	C	0.836322	0.546927	0.666519
C85	C	0.825526	0.045927	-0.000103
C86	C	1.158860	0.379260	0.333230
C87	C	1.492193	0.712593	0.666563
C88	C	0.824029	0.148298	-0.000092
C89	C	1.157362	0.481631	0.333242
C90	C	1.490696	0.814965	0.666575
C91	C	0.818516	0.523158	-0.000071
C92	C	1.151849	0.856492	0.333263
C93	C	1.485183	1.189825	0.666596
C94	C	0.820047	0.418860	-0.000076
C95	C	1.153380	0.752194	0.333257
C96	C	1.486714	1.085527	0.666590
C97	C	0.821272	0.335732	-0.000080
C98	C	1.154606	0.669065	0.333253
C99	C	1.487939	1.002398	0.666586
C100	C	0.822804	0.231427	-0.000087
C101	C	1.156137	0.564760	0.333246
C102	C	1.489470	0.898094	0.666579
C103	C	0.947647	-0.115428	-0.000145
C104	C	1.280980	0.217906	0.333189
C105	C	1.614314	0.551239	0.666522
C106	C	1.024757	-0.116917	-0.000160
C107	C	1.358090	0.216416	0.333174
C108	C	1.691423	0.549749	0.666507
C109	C	0.815803	0.708667	-0.000127
C110	C	1.149137	1.042001	0.333207
C111	C	1.482470	1.375334	0.666540
C112	C	0.817301	0.606296	-0.000063
C113	C	1.150634	0.939629	0.333270
C114	C	1.483967	1.272962	0.666603
N115	N	0.820643	-0.122692	0.178028
N116	N	1.153977	0.210641	0.511361
N117	N	1.487310	0.543974	0.844695
N118	N	0.820692	-0.122707	-0.178283
N119	N	1.154025	0.210627	0.155051
N120	N	1.487359	0.543960	0.488384
C121	C	0.867801	-0.059826	0.217418
C122	C	1.201134	0.273508	0.550752
C123	C	1.534468	0.606841	0.884085
C124	C	0.867805	-0.059821	0.296220
C125	C	1.201138	0.273512	0.629554
C126	C	1.534472	0.606845	0.962887
C127	C	0.820658	-0.122700	0.335628
C128	C	1.153991	0.210634	0.668962
C129	C	1.487325	0.543967	1.002295
C130	C	0.773491	-0.185571	0.296228
C131	C	1.106824	0.147762	0.629562
C132	C	1.440158	0.481095	0.962895
C133	C	0.773484	-0.185568	0.217428
C134	C	1.106817	0.147766	0.550761
C135	C	1.440150	0.481099	0.884095
C136	C	0.811661	-0.206729	0.460454
C137	C	1.144995	0.126604	0.793788
C138	C	1.478328	0.459938	1.127121
C139	C	0.811673	-0.206734	0.539253
C140	C	1.145007	0.126600	0.872587
C141	C	1.478340	0.459933	1.205920
C142	C	0.820676	-0.122711	0.578675
C143	C	1.154010	0.210623	0.912008
C144	C	1.487343	0.543956	1.245341
C145	C	0.829682	-0.038679	0.539288
C146	C	1.163015	0.294654	0.872621
C147	C	1.496349	0.627987	1.205954
C148	C	0.829675	-0.038676	0.460487
C149	C	1.163008	0.294658	0.793821
C150	C	1.496341	0.627991	1.127154
C151	C	0.820660	-0.122710	0.421074
C152	C	1.153994	0.210623	0.754407
C153	C	1.487327	0.543956	1.087741
C154	C	0.867841	-0.059834	0.703511
C155	C	1.201175	0.273499	1.036845
C156	C	1.534508	0.606833	1.370178
C157	C	0.867840	-0.059829	0.782314
C158	C	1.201174	0.273505	1.115648
C159	C	1.534507	0.606838	1.448981
C160	C	0.773530	-0.185587	0.782321
C161	C	1.106863	0.147747	1.115654
C162	C	1.440196	0.481080	1.448988
C163	C	0.773527	-0.185584	0.703519
C164	C	1.106861	0.147749	1.036853
C165	C	1.440194	0.481083	1.370186
C166	C	0.820687	-0.122709	0.664119
C167	C	1.154020	0.210625	0.997452
C168	C	1.487353	0.543958	1.330786
H169	H	0.162969	-0.119619	-0.123960
H170	H	0.496302	0.213715	0.209374
H171	H	0.829636	0.547048	0.542707
Cl172	Cl	0.840987	0.066959	0.410975
Cl173	Cl	1.174320	0.400292	0.744308
Cl174	Cl	1.507654	0.733625	1.077642
H175	H	0.609884	-0.128349	-0.123913
H176	H	0.943217	0.204984	0.209420
H177	H	1.276550	0.538318	0.542753
H178	H	0.906240	-0.008630	0.814387
H179	H	1.239573	0.324703	1.147720
H180	H	1.572907	0.658037	1.481054
Cl181	Cl	0.462305	-0.125472	0.153919
Cl182	Cl	0.795638	0.207861	0.487252
Cl183	Cl	1.128971	0.541195	0.820586
Cl184	Cl	0.390597	-0.246238	-0.118145
Cl185	Cl	0.723931	0.087096	0.215189
Cl186	Cl	1.057264	0.420429	0.548522
Cl187	Cl	0.462412	-0.125471	-0.154149
Cl188	Cl	0.795745	0.207862	0.179184
Cl189	Cl	1.129079	0.541196	0.512517
Cl190	Cl	0.015391	-0.116732	0.153877
Cl191	Cl	0.348724	0.216602	0.487211
Cl192	Cl	0.682058	0.549935	0.820544
Cl193	Cl	0.178916	-0.119926	0.153892
Cl194	Cl	0.512250	0.213407	0.487225
Cl195	Cl	0.845583	0.546740	0.820559
H196	H	0.245431	-0.219432	-0.094998
H197	H	0.578765	0.113901	0.238336
H198	H	0.912098	0.447235	0.571669
H199	H	0.735102	-0.236766	0.328318
H200	H	1.068435	0.096567	0.661652
H201	H	1.401768	0.429900	0.994985
H202	H	0.735139	-0.236780	0.814407
H203	H	1.068472	0.096554	1.147740
H204	H	1.401805	0.429887	1.481073
Cl205	Cl	0.015499	-0.116746	-0.154196
Cl206	Cl	0.348832	0.216588	0.179137
Cl207	Cl	0.682165	0.549921	0.512471
H208	H	0.906239	-0.008634	0.671430
H209	H	1.239573	0.324699	1.004764
H210	H	1.572906	0.658032	1.338097
H211	H	0.735081	-0.236762	0.185355
H212	H	1.068414	0.096571	0.518689
H213	H	1.401748	0.429905	0.852022
H214	H	0.264467	-0.023385	0.094725
H215	H	0.597800	0.309949	0.428058
H216	H	0.931133	0.643282	0.761391
Cl217	Cl	0.414267	-0.002345	0.117900
Cl218	Cl	0.747600	0.330989	0.451233
Cl219	Cl	1.080933	0.664322	0.784567
Cl220	Cl	0.625833	-0.128680	0.153940
Cl221	Cl	0.959166	0.204653	0.487273
Cl222	Cl	1.292500	0.537986	0.820606
Cl223	Cl	0.841006	0.066957	0.588837
Cl224	Cl	1.174339	0.400291	0.922170
Cl225	Cl	1.507673	0.733624	1.255504
Cl226	Cl	0.714244	-0.264625	0.653995
Cl227	Cl	1.047577	0.068708	0.987328
Cl228	Cl	1.380910	0.402042	1.320662
Cl229	Cl	0.800357	-0.312372	0.588760
Cl230	Cl	1.133691	0.020962	0.922093
Cl231	Cl	1.467024	0.354295	1.255427
Cl232	Cl	0.927082	0.019220	0.167887
Cl233	Cl	1.260416	0.352554	0.501221
Cl234	Cl	1.593749	0.685887	0.834554
Cl235	Cl	0.800407	-0.312371	0.410904
Cl236	Cl	1.133741	0.020963	0.744237
Cl237	Cl	1.467074	0.354296	1.077571
H238	H	0.906208	-0.008626	0.328298
H239	H	1.239541	0.324708	0.661631
H240	H	1.572875	0.658041	0.994965
