data_functionalizedCrystal
_audit_creation_method	'MofGen! by Chris Wilmer'
_symmetry_space_group_name_H-M	'P1'
_symmetry_Int_Tables_number	1
_symmetry_cell_setting	triclinic
loop_
_symmetry_equiv_pos_as_xyz
  x,y,z
_cell_length_a	10.686220
_cell_length_b	25.639239
_cell_length_c	10.686551
_cell_angle_alpha	85.590528
_cell_angle_beta	90.308082
_cell_angle_gamma	94.420676
loop_
_atom_site_label
_atom_site_type_symbol
_atom_site_fract_x
_atom_site_fract_y
_atom_site_fract_z
Zn1	Zn	1.972159	-0.127472	-0.562366
Zn2	Zn	1.955834	-0.222109	-0.352592
Zn3	Zn	1.746264	-0.140848	-0.368681
Zn4	Zn	1.762265	-0.221050	-0.578370
O5	O	1.859130	-0.177870	-0.465502
O6	O	2.145540	-0.134872	-0.521108
O7	O	1.914505	-0.217371	-0.179180
O8	O	1.776365	-0.065903	-0.394409
O9	O	2.133546	-0.204401	-0.366988
O10	O	1.942329	-0.056076	-0.536709
O11	O	1.760535	-0.157668	-0.191000
O12	O	1.572839	-0.156641	-0.409928
O13	O	1.803636	-0.202595	-0.751793
O14	O	1.584595	-0.215565	-0.563985
O15	O	1.957844	-0.133844	-0.740035
O16	O	1.930021	-0.295139	-0.382506
O17	O	1.787807	-0.294361	-0.548384
C18	C	1.533200	-0.187440	-0.490440
C19	C	1.393768	-0.191545	-0.501138
C20	C	1.858915	-0.313720	-0.465461
C21	C	1.858941	-0.371833	-0.465476
C22	C	1.933401	-0.732571	-0.379250
C23	C	1.933451	-0.787174	-0.379263
O24	O	1.996536	-0.815738	-0.305904
N25	N	1.859357	-0.814099	-0.465568
C26	C	1.785218	-0.786419	-0.551874
O27	O	1.722201	-0.814336	-0.625286
C28	C	1.785176	-0.731818	-0.551866
C29	C	1.859265	-0.704895	-0.465547
C30	C	2.007485	-0.705649	-0.292939
C31	C	2.007433	-0.651050	-0.292925
C32	C	1.933297	-0.623374	-0.379222
C33	C	1.859213	-0.650297	-0.465533
C34	C	1.711045	-0.704138	-0.638177
C35	C	1.711010	-0.649533	-0.638162
C36	C	1.785099	-0.622611	-0.551843
C37	C	1.785025	-0.568023	-0.551816
N38	N	1.859119	-0.541097	-0.465510
C39	C	1.933255	-0.568773	-0.379213
C40	C	1.785314	-0.901087	-0.551887
C41	C	1.785349	-0.955688	-0.551890
C42	C	1.933583	-0.956438	-0.379280
C43	C	1.933541	-0.901836	-0.379272
C44	C	1.859408	-0.874161	-0.465581
C45	C	1.933139	-0.454112	-0.379189
C46	C	1.933077	-0.399509	-0.379179
C47	C	1.784847	-0.398763	-0.551793
C48	C	1.784904	-0.453362	-0.551799
C49	C	1.859060	-0.481035	-0.465493
O50	O	1.721976	-0.539424	-0.625140
O51	O	1.996274	-0.540849	-0.305825
C52	C	2.186333	-0.168263	-0.440468
C53	C	2.325768	-0.164169	-0.429800
C54	C	1.884346	-0.166610	-0.792704
C55	C	1.895092	-0.161811	-0.932138
C56	C	1.859383	-0.041486	-0.465568
C57	C	1.859490	0.016632	-0.465597
C58	C	1.834084	-0.189046	-0.139567
C59	C	1.823582	-0.193690	-0.000116
H60	H	1.993527	-0.476637	-0.308913
H61	H	1.993954	-0.978981	-0.309016
C62	C	1.987817	-0.120505	-0.996530
C63	C	2.051652	-0.092067	-0.905875
C64	C	2.137089	-0.054016	-0.965145
H65	H	1.943907	-0.097342	-1.051326
H66	H	2.046401	-0.137151	-1.043420
H67	H	1.993077	-0.075421	-0.859006
H68	H	2.095587	-0.115215	-0.851075
H69	H	2.195673	-0.070662	-1.012035
H70	H	2.093169	-0.030858	-1.019939
H71	H	2.180420	-0.034720	-0.903645
C72	C	1.390520	-0.128808	-0.337363
C73	C	1.459512	-0.158942	-0.251152
C74	C	1.519200	-0.126385	-0.165990
H75	H	1.329302	-0.112171	-0.293910
H76	H	1.445450	-0.102922	-0.381532
H77	H	1.404587	-0.184819	-0.206986
H78	H	1.520751	-0.175578	-0.294568
H79	H	1.574131	-0.100499	-0.210159
H80	H	1.457974	-0.109750	-0.122546
H81	H	1.566028	-0.146825	-0.107492
H82	H	1.345309	-0.218129	-0.570396
C83	C	2.087825	-0.735782	-0.199258
C84	C	2.010754	-0.772054	-0.124234
C85	C	2.084743	-0.799830	-0.037957
H86	H	2.131999	-0.711999	-0.147734
H87	H	2.146112	-0.753812	-0.243156
H88	H	1.952489	-0.754025	-0.080339
H89	H	1.966581	-0.795848	-0.175723
H90	H	2.143030	-0.817860	-0.081856
H91	H	2.128913	-0.776043	0.013558
H92	H	2.032462	-0.824447	0.012949
H93	H	1.993408	-0.377591	-0.308884
H94	H	2.067766	-0.629133	-0.222640
C95	C	2.014120	-0.872700	-0.285500
C96	C	2.079068	-0.908630	-0.209950
C97	C	2.153325	-0.881812	-0.123562
H98	H	1.962080	-0.854716	-0.234344
H99	H	2.072497	-0.848124	-0.329312
H100	H	2.020698	-0.933197	-0.166141
H101	H	2.131130	-0.926616	-0.261072
H102	H	2.211702	-0.857235	-0.167374
H103	H	2.101276	-0.863829	-0.072415
H104	H	2.197410	-0.906185	-0.072299
C105	C	1.704860	-0.984817	-0.645741
C106	C	1.639953	-0.948885	-0.721325
C107	C	1.565812	-0.975696	-0.807813
H108	H	1.646454	-1.009408	-0.602047
H109	H	1.757013	-1.002782	-0.696850
H110	H	1.587805	-0.930929	-0.670222
H111	H	1.698328	-0.924293	-0.765047
H112	H	1.617964	-0.993661	-0.858923
H113	H	1.507414	-1.000286	-0.764109
H114	H	1.521773	-0.951320	-0.859115
C115	C	1.630572	-0.733261	-0.732044
C116	C	1.565680	-0.697324	-0.807632
C117	C	1.491546	-0.724131	-0.894134
H118	H	1.572157	-0.757851	-0.688362
H119	H	1.682728	-0.751226	-0.783151
H120	H	1.513528	-0.679368	-0.756532
H121	H	1.624064	-0.672733	-0.851342
H122	H	1.543702	-0.742096	-0.945241
H123	H	1.433139	-0.748720	-0.850441
H124	H	1.447517	-0.699752	-0.945438
C125	C	1.705026	-0.871003	-0.645728
C126	C	1.782156	-0.834769	-0.720789
C127	C	1.708244	-0.807054	-0.807260
H128	H	1.646671	-0.852945	-0.602021
H129	H	1.660936	-0.894843	-0.697194
H130	H	1.826226	-0.810932	-0.669330
H131	H	1.840510	-0.852813	-0.764524
H132	H	1.664154	-0.830894	-0.858726
H133	H	1.649892	-0.788999	-0.763543
H134	H	1.760567	-0.782470	-0.858207
C135	C	1.730795	-0.234952	-0.935673
C136	C	1.609119	-0.226141	-0.976980
C137	C	1.523615	-0.264147	-0.917650
H138	H	1.735462	-0.232840	-0.847397
H139	H	1.750656	-0.268825	-0.955704
H140	H	1.589264	-0.192276	-0.956941
H141	H	1.604412	-0.228258	-1.065248
H142	H	1.543476	-0.298020	-0.937681
H143	H	1.528294	-0.262032	-0.829376
H144	H	1.441050	-0.258177	-0.945677
C145	C	1.630739	-0.619446	-0.732010
C146	C	1.707882	-0.583210	-0.807055
C147	C	1.633983	-0.555490	-0.893528
H148	H	1.572380	-0.601388	-0.688306
H149	H	1.586652	-0.643282	-0.783488
H150	H	1.751947	-0.559377	-0.755584
H151	H	1.766239	-0.601254	-0.850787
H152	H	1.589896	-0.579327	-0.945005
H153	H	1.575628	-0.537436	-0.849813
H154	H	1.686314	-0.530905	-0.944463
H155	H	1.724483	-0.376221	-0.622052
C156	C	1.704426	-0.482498	-0.645654
C157	C	1.639512	-0.446570	-0.721243
C158	C	1.565387	-0.473384	-0.807737
H159	H	1.646025	-0.507092	-0.601965
H160	H	1.756590	-0.500459	-0.696760
H161	H	1.587351	-0.428617	-0.670143
H162	H	1.697882	-0.421974	-0.764959
H163	H	1.617552	-0.491346	-0.858844
H164	H	1.506994	-0.497978	-0.764038
H165	H	1.521343	-0.449011	-0.859042
