data_functionalizedCrystal
_audit_creation_method	'MofGen! by Chris Wilmer'
_symmetry_space_group_name_H-M	'P1'
_symmetry_Int_Tables_number	1
_symmetry_cell_setting	triclinic
loop_
_symmetry_equiv_pos_as_xyz
  x,y,z
_cell_length_a	16.956984
_cell_length_b	16.992695
_cell_length_c	16.053802
_cell_angle_alpha	87.258926
_cell_angle_beta	92.389299
_cell_angle_gamma	83.360821
loop_
_atom_site_label
_atom_site_type_symbol
_atom_site_fract_x
_atom_site_fract_y
_atom_site_fract_z
O1	O	1.063242	0.028849	0.069433
O2	O	1.396575	0.362182	0.402767
O3	O	1.729909	0.695515	0.736100
O4	O	0.832831	0.056264	0.069434
O5	O	1.166165	0.389598	0.402768
O6	O	1.499498	0.722931	0.736101
O7	O	0.947113	-0.071526	0.069427
O8	O	1.280446	0.261807	0.402761
O9	O	1.613779	0.595141	0.736094
O10	O	0.948961	0.156639	0.069441
O11	O	1.282294	0.489972	0.402774
O12	O	1.615627	0.823306	0.736107
O13	O	0.940821	-0.064519	-0.069431
O14	O	1.274154	0.268814	0.263902
O15	O	1.607487	0.602147	0.597235
O16	O	0.826539	0.063271	-0.069424
O17	O	1.159873	0.396604	0.263909
O18	O	1.493206	0.729938	0.597243
O19	O	1.056950	0.035855	-0.069425
O20	O	1.390283	0.369189	0.263908
O21	O	1.723617	0.702522	0.597241
Zn22	Zn	0.940746	0.050676	-0.091471
Zn23	Zn	1.274079	0.384009	0.241862
Zn24	Zn	1.607412	0.717342	0.575195
Zn25	Zn	0.949036	0.041444	0.091481
Zn26	Zn	1.282369	0.374777	0.424814
Zn27	Zn	1.615702	0.708111	0.758147
O28	O	0.942669	0.163646	-0.069418
O29	O	1.276002	0.496979	0.263915
O30	O	1.609335	0.830312	0.597249
C31	C	0.800067	0.061171	0.000005
C32	C	1.133400	0.394505	0.333339
C33	C	1.466733	0.727838	0.666672
C34	C	0.711812	0.065345	0.000006
C35	C	1.045145	0.398679	0.333339
C36	C	1.378479	0.732012	0.666672
C37	C	0.941590	-0.097081	-0.000002
C38	C	1.274924	0.236252	0.333331
C39	C	1.608257	0.569585	0.666665
C40	C	0.934500	-0.183666	-0.000002
C41	C	1.267833	0.149668	0.333332
C42	C	1.601166	0.483001	0.666665
C43	C	0.675280	-0.004440	-0.000000
C44	C	1.008614	0.328893	0.333333
C45	C	1.341947	0.662227	0.666667
C46	C	0.592356	-0.000514	0.000006
C47	C	0.925689	0.332820	0.333340
C48	C	1.259022	0.666153	0.666673
C49	C	0.545964	0.073198	0.000012
C50	C	0.879297	0.406532	0.333345
C51	C	1.212630	0.739865	0.666679
C52	C	0.582501	0.142989	0.000020
C53	C	0.915834	0.476322	0.333353
C54	C	1.249168	0.809655	0.666687
C55	C	0.665424	0.139062	0.000020
C56	C	0.998758	0.472395	0.333353
C57	C	1.332091	0.805728	0.666686
C58	C	0.297430	0.092637	0.000019
C59	C	0.630764	0.425970	0.333352
C60	C	0.964097	0.759304	0.666686
C61	C	0.214501	0.096559	0.000017
C62	C	0.547834	0.429892	0.333350
C63	C	0.881168	0.763226	0.666683
C64	C	0.224362	-0.046944	0.000004
C65	C	0.557695	0.286389	0.333338
C66	C	0.891028	0.619723	0.666671
C67	C	0.307286	-0.050864	-0.000001
C68	C	0.640620	0.282469	0.333332
C69	C	0.973953	0.615802	0.666666
C70	C	0.343816	0.018925	0.000012
C71	C	0.677150	0.352259	0.333345
C72	C	1.010483	0.685592	0.666678
N73	N	0.461201	0.077213	0.000016
N74	N	0.794535	0.410547	0.333349
N75	N	1.127868	0.743880	0.666682
N76	N	0.428578	0.014909	0.000014
N77	N	0.761911	0.348243	0.333347
N78	N	1.095244	0.681576	0.666680
C79	C	1.002914	-0.238341	-0.000003
C80	C	1.336248	0.094993	0.333331
C81	C	1.669581	0.428326	0.666664
C82	C	0.996248	-0.319696	0.000005
C83	C	1.329581	0.013638	0.333338
C84	C	1.662914	0.346971	0.666672
C85	C	0.921165	-0.346374	0.000008
C86	C	1.254498	-0.013040	0.333342
C87	C	1.587832	0.320293	0.666675
C88	C	0.852745	-0.291692	0.000012
C89	C	1.186078	0.041641	0.333345
C90	C	1.519412	0.374975	0.666679
C91	C	0.859413	-0.210339	0.000010
C92	C	1.192746	0.122994	0.333343
C93	C	1.526080	0.456328	0.666677
C94	C	0.893530	-0.588181	0.000020
C95	C	1.226863	-0.254847	0.333353
C96	C	1.560197	0.078486	0.666687
C97	C	0.886867	-0.669540	0.000019
C98	C	1.220200	-0.336207	0.333353
C99	C	1.553534	-0.002873	0.666686
C100	C	1.030371	-0.697538	0.000014
C101	C	1.363704	-0.364205	0.333347
C102	C	1.697037	-0.030872	0.666681
C103	C	1.037031	-0.616182	0.000007
C104	C	1.370365	-0.282849	0.333340
C105	C	1.703698	0.050484	0.666674
C106	C	0.968612	-0.561508	0.000015
C107	C	1.301945	-0.228175	0.333349
C108	C	1.635278	0.105159	0.666682
N109	N	0.914349	-0.429531	0.000014
N110	N	1.247682	-0.096197	0.333347
N111	N	1.581015	0.237136	0.666680
N112	N	0.975429	-0.478353	0.000016
N113	N	1.308762	-0.145019	0.333349
N114	N	1.642096	0.188314	0.666682
C115	C	1.089715	0.030948	0.000006
C116	C	1.423048	0.364281	0.333339
C117	C	1.756381	0.697615	0.666673
C118	C	1.177970	0.026774	0.000011
C119	C	1.511303	0.360107	0.333344
C120	C	1.844636	0.693441	0.666678
C121	C	0.948191	0.189201	0.000013
C122	C	1.281524	0.522534	0.333346
C123	C	1.614858	0.855867	0.666680
C124	C	0.955282	0.275785	0.000018
C125	C	1.288615	0.609118	0.333352
C126	C	1.621949	0.942452	0.666685
N127	N	0.935094	0.056975	-0.216331
N128	N	1.268427	0.390308	0.117002
N129	N	1.601760	0.723642	0.450335
C130	C	0.983741	0.002617	-0.260028
C131	C	1.317074	0.335950	0.073305
C132	C	1.650407	0.669284	0.406638
C133	C	0.979795	0.007031	-0.347435
C134	C	1.313128	0.340364	-0.014102
C135	C	1.646461	0.673697	0.319232
C136	C	0.927206	0.065806	-0.391143
C137	C	1.260539	0.399140	-0.057809
C138	C	1.593872	0.732473	0.275524
C139	C	0.878553	0.120167	-0.347440
C140	C	1.211887	0.453500	-0.014106
C141	C	1.545220	0.786834	0.319227
C142	C	0.882496	0.115749	-0.260035
C143	C	1.215829	0.449083	0.073299
C144	C	1.549162	0.782416	0.406632
C145	C	0.909984	0.085081	-0.652551
C146	C	1.243317	0.418414	-0.319218
C147	C	1.576650	0.751747	0.014115
C148	C	0.906047	0.089496	-0.739962
C149	C	1.239380	0.422829	-0.406629
C150	C	1.572713	0.756163	-0.073296
C151	C	1.007288	-0.023642	-0.739952
C152	C	1.340621	0.309691	-0.406618
C153	C	1.673954	0.643025	-0.073285
C154	C	1.011229	-0.028051	-0.652545
C155	C	1.344562	0.305282	-0.319212
C156	C	1.677895	0.638615	0.014122
C157	C	0.962573	0.026307	-0.608849
C158	C	1.295907	0.359640	-0.275516
C159	C	1.629240	0.692973	0.057817
N160	N	0.923173	0.070321	-0.480486
N161	N	1.256506	0.403654	-0.147153
N162	N	1.589839	0.736987	0.186180
N163	N	0.966603	0.021788	-0.519508
N164	N	1.299936	0.355122	-0.186174
N165	N	1.633269	0.688455	0.147159
N166	N	0.954694	0.035138	0.216341
N167	N	1.288027	0.368471	0.549674
N168	N	1.621360	0.701804	0.883007
H169	H	0.713047	-0.064464	-0.000008
H170	H	1.046381	0.268869	0.333325
H171	H	1.379714	0.602202	0.666658
Cl172	Cl	0.821333	0.184086	-0.205102
Cl173	Cl	1.154666	0.517419	0.128231
Cl174	Cl	1.488000	0.850753	0.461564
Cl175	Cl	0.773402	-0.141604	0.000015
Cl176	Cl	1.106735	0.191730	0.333348
Cl177	Cl	1.440068	0.525063	0.666681
Cl178	Cl	1.049860	-0.071273	-0.205090
Cl179	Cl	1.383194	0.262060	0.128243
Cl180	Cl	1.716527	0.595394	0.461576
Cl181	Cl	1.077342	-0.101941	-0.597598
Cl182	Cl	1.410676	0.231393	-0.264264
Cl183	Cl	1.744009	0.564726	0.069069
H184	H	1.046900	-0.067898	-0.775536
H185	H	1.380233	0.265435	-0.442203
H186	H	1.713566	0.598768	-0.108870
H187	H	1.098172	-0.594468	0.000004
H188	H	1.431505	-0.261135	0.333338
H189	H	1.764838	0.072198	0.666671
Cl190	Cl	1.097309	-0.204812	-0.000015
Cl191	Cl	1.430642	0.128522	0.333318
Cl192	Cl	1.763975	0.461855	0.666651
Cl193	Cl	0.812436	0.194054	-0.402385
Cl194	Cl	1.145769	0.527388	-0.069052
Cl195	Cl	1.479103	0.860721	0.264282
Cl196	Cl	0.758355	-0.325230	0.000026
Cl197	Cl	1.091689	0.008103	0.333360
Cl198	Cl	1.425022	0.341436	0.666693
H199	H	0.863220	0.137361	-0.775545
H200	H	1.196553	0.470695	-0.442212
H201	H	1.529887	0.804028	-0.108879
H202	H	0.870368	0.129343	-0.616981
H203	H	1.203701	0.462676	-0.283648
H204	H	1.537035	0.796009	0.049685
Cl205	Cl	0.792470	-0.703075	0.000018
Cl206	Cl	1.125803	-0.369742	0.333352
Cl207	Cl	1.459137	-0.036409	0.666685
H208	H	0.695167	0.195888	0.000021
H209	H	1.028500	0.529222	0.333354
H210	H	1.361833	0.862555	0.666687
Cl211	Cl	1.082260	-0.388427	0.000001
Cl212	Cl	1.415593	-0.055094	0.333334
Cl213	Cl	1.748926	0.278239	0.666668
Cl214	Cl	1.116378	-0.766275	0.000006
Cl215	Cl	1.449711	-0.432942	0.333340
Cl216	Cl	1.783045	-0.099609	0.666673
Cl217	Cl	0.546435	-0.088249	0.000023
Cl218	Cl	0.879768	0.245084	0.333356
Cl219	Cl	1.213102	0.578417	0.666690
Cl220	Cl	0.365602	-0.143535	-0.000014
Cl221	Cl	0.698935	0.189798	0.333319
Cl222	Cl	1.032268	0.523132	0.666652
Cl223	Cl	0.524180	0.235656	0.000035
Cl224	Cl	0.857513	0.568989	0.333369
Cl225	Cl	1.190846	0.902323	0.666702
Cl226	Cl	0.343343	0.180374	0.000033
Cl227	Cl	0.676676	0.513707	0.333367
Cl228	Cl	1.010010	0.847040	0.666700
H229	H	0.837817	-0.543674	0.000026
H230	H	1.171151	-0.210340	0.333360
H231	H	1.504484	0.122993	0.666693
Cl232	Cl	0.178434	-0.134674	-0.000006
Cl233	Cl	0.511767	0.198659	0.333327
Cl234	Cl	0.845100	0.531992	0.666660
H235	H	0.176730	0.156588	0.000017
H236	H	0.510063	0.489921	0.333351
H237	H	0.843397	0.823254	0.666684
Cl238	Cl	1.040951	-0.061307	-0.402370
Cl239	Cl	1.374284	0.272026	-0.069036
Cl240	Cl	1.707618	0.605360	0.264297
