data_functionalizedCrystal
_audit_creation_method	'MofGen! by Chris Wilmer'
_symmetry_space_group_name_H-M	'P1'
_symmetry_Int_Tables_number	1
_symmetry_cell_setting	triclinic
loop_
_symmetry_equiv_pos_as_xyz
  x,y,z
_cell_length_a	16.625548
_cell_length_b	12.759399
_cell_length_c	12.759401
_cell_angle_alpha	89.991679
_cell_angle_beta	90.008727
_cell_angle_gamma	89.983816
loop_
_atom_site_label
_atom_site_type_symbol
_atom_site_fract_x
_atom_site_fract_y
_atom_site_fract_z
Zn1	Zn	1.232627	0.418420	0.594067
Zn2	Zn	1.232576	0.594066	0.418386
Zn3	Zn	1.097817	0.418405	0.418397
Zn4	Zn	1.097777	0.594060	0.594017
O5	O	1.165199	0.506238	0.506217
O6	O	1.345453	0.441728	0.570778
O7	O	1.214695	0.570760	0.271366
O8	O	1.115738	0.271386	0.441725
O9	O	1.345415	0.570775	0.441706
O10	O	1.214783	0.271397	0.570789
O11	O	1.115688	0.441703	0.271374
O12	O	0.984979	0.441698	0.441677
O13	O	1.115670	0.570765	0.741045
O14	O	0.984950	0.570751	0.570705
O15	O	1.214744	0.441723	0.741081
O16	O	1.214656	0.741086	0.441658
O17	O	1.115620	0.741082	0.570694
C18	C	0.955708	0.506223	0.506187
C19	C	0.866087	0.506242	0.506200
C20	C	1.165150	0.779205	0.506193
C21	C	1.165202	0.895982	0.506218
C22	C	1.165208	0.506245	0.780250
C23	C	1.165212	0.506248	0.897026
C24	C	0.537912	0.506249	0.506244
C25	C	0.629220	0.506244	0.506229
C26	C	0.701997	0.506246	0.506221
C27	C	0.793311	0.506240	0.506207
C28	C	1.375508	0.506254	0.506247
C29	C	1.465129	0.506260	0.506260
C30	C	1.165271	0.232204	0.506264
C31	C	1.165301	0.115428	0.506284
C32	C	1.216829	0.950811	0.439105
C33	C	1.216881	1.060535	0.439140
C34	C	1.113672	1.060591	0.573404
C35	C	1.113625	0.950869	0.573373
C36	C	1.216793	0.439066	0.951909
C37	C	1.216786	0.439064	1.061633
C38	C	1.113615	0.573435	1.061582
C39	C	1.113618	0.573430	0.951860
C40	C	1.165190	0.506254	1.233249
C41	C	1.165202	0.506250	1.116473
H42	H	1.258828	0.906124	0.384425
H43	H	1.071610	0.628134	1.106241
H44	H	1.258788	0.384357	1.106314
H45	H	1.071608	0.628137	0.907174
H46	H	1.258922	1.105172	0.384492
H47	H	1.071678	1.105293	0.628077
H48	H	1.071584	0.906224	0.628029
H49	H	1.258802	0.384359	0.907266
