data_functionalizedCrystal
_audit_creation_method	'MofGen! by Chris Wilmer'
_symmetry_space_group_name_H-M	'P1'
_symmetry_Int_Tables_number	1
_symmetry_cell_setting	triclinic
loop_
_symmetry_equiv_pos_as_xyz
  x,y,z
_cell_length_a	19.805405
_cell_length_b	19.805407
_cell_length_c	11.169409
_cell_angle_alpha	89.975883
_cell_angle_beta	89.960143
_cell_angle_gamma	90.026410
loop_
_atom_site_label
_atom_site_type_symbol
_atom_site_fract_x
_atom_site_fract_y
_atom_site_fract_z
Zn1	Zn	-0.269408	1.034766	-0.678617
Zn2	Zn	-0.382618	1.034672	-0.477908
Zn3	Zn	-0.269448	0.921572	-0.477937
Zn4	Zn	-0.382561	0.921544	-0.678538
O5	O	-0.326009	0.978138	-0.578250
O6	O	-0.284433	1.129470	-0.652014
O7	O	-0.367646	1.019641	-0.309962
O8	O	-0.174726	0.936638	-0.504603
O9	O	-0.367607	1.129401	-0.504554
O10	O	-0.174697	1.019801	-0.652042
O11	O	-0.284500	0.936547	-0.309983
O12	O	-0.284445	0.826852	-0.504526
O13	O	-0.367511	0.936591	-0.846498
O14	O	-0.367549	0.826831	-0.651906
O15	O	-0.284378	1.019775	-0.846557
O16	O	-0.477327	1.019614	-0.504477
O17	O	-0.477285	0.936500	-0.651878
C18	C	-0.501865	0.978062	-0.578192
C19	C	-0.577097	0.978092	-0.578207
C20	C	-0.325996	0.802282	-0.578211
C21	C	-0.326006	0.727050	-0.578223
C22	C	-0.325933	0.978190	-0.891293
C23	C	-0.325901	0.978213	-1.024693
C24	C	-0.612440	1.021411	-0.501535
C25	C	-0.683128	1.021440	-0.501562
C26	C	-0.718472	0.978145	-0.578255
C27	C	-0.683124	0.934824	-0.654935
C28	C	-0.612437	0.934799	-0.654914
C29	C	-0.968197	0.934923	-0.655024
C30	C	-1.038889	0.934950	-0.655037
C31	C	-1.038889	1.021565	-0.501672
C32	C	-0.968202	1.021540	-0.501651
C33	C	-0.932860	0.978221	-0.578335
C34	C	-0.856211	0.978191	-0.578307
C35	C	-0.795119	0.978171	-0.578278
C36	C	-0.149466	0.978233	-0.578335
C37	C	-0.074234	0.978274	-0.578371
C38	C	-0.369344	0.691713	-0.654840
C39	C	-0.369345	0.621025	-0.654857
C40	C	-0.326012	0.585675	-0.578250
C41	C	-0.282670	0.621017	-0.501630
C42	C	-0.282666	0.691704	-0.501620
C43	C	-0.282685	0.335944	-0.501669
C44	C	-0.282694	0.265251	-0.501683
C45	C	-0.369364	0.265265	-0.654907
C46	C	-0.369360	0.335952	-0.654897
C47	C	-0.326016	0.371288	-0.578281
C48	C	-0.326014	0.447936	-0.578266
C49	C	-0.326016	0.509028	-0.578259
C50	C	-0.326022	1.154681	-0.578290
C51	C	-0.326028	1.229913	-0.578307
C52	C	-0.326035	0.978126	-0.266425
C53	C	-0.325876	0.978235	-0.133026
H54	H	-0.583668	1.056664	-0.439078
H55	H	-0.247396	0.364705	-0.439275
O56	O	-0.240608	0.586752	-0.427049
C57	C	-0.207650	0.565045	-0.223004
C58	C	-0.255315	0.603902	-0.307335
H59	H	-0.219532	0.578886	-0.126197
H60	H	-0.153073	0.578982	-0.244158
H61	H	-0.215088	0.508457	-0.236234
H62	H	-0.247937	0.660499	-0.294153
H63	H	-0.309873	0.589909	-0.286161
O64	O	-0.717425	0.892840	-0.729609
C65	C	-0.738953	0.859907	-0.933710
C66	C	-0.700078	0.907508	-0.849281
H67	H	-0.724932	0.871740	-1.030481
H68	H	-0.795554	0.867367	-0.920657
H69	H	-0.725117	0.805335	-0.912479
H70	H	-0.713858	0.962098	-0.870459
H71	H	-0.643487	0.899990	-0.862350
O72	O	-1.073117	1.063673	-0.427075
C73	C	-1.065653	1.149610	-0.274998
C74	C	-1.026809	1.101950	-0.359398
H75	H	-1.028231	1.180580	-0.220277
H76	H	-1.098786	1.118599	-0.212122
H77	H	-1.098708	1.184972	-0.330186
H78	H	-0.993718	1.066579	-0.304307
H79	H	-0.993719	1.133004	-0.422278
H80	H	-0.711902	1.056715	-0.439127
O81	O	-0.411428	0.231011	-0.729513
C82	C	-0.444385	0.209401	-0.933569
C83	C	-0.396717	0.248246	-0.849218
H84	H	-0.432498	0.223310	-1.030369
H85	H	-0.498960	0.223282	-0.912414
H86	H	-0.436954	0.152811	-0.920363
H87	H	-0.404088	0.304845	-0.862377
H88	H	-0.342160	0.234309	-0.870394
O89	O	-0.933794	0.892808	-0.729333
C90	C	-0.854083	0.801366	-0.745291
C91	C	-0.892996	0.849032	-0.661002
H92	H	-0.821099	0.765952	-0.690078
H93	H	-0.820888	0.832373	-0.808073
H94	H	-0.891497	0.770454	-0.800133
H95	H	-0.855630	0.879955	-0.606083
H96	H	-0.926201	0.817987	-0.598300
H97	H	-0.247402	0.236471	-0.439300
H98	H	-0.247373	0.720474	-0.439237
O99	O	-0.578070	0.892815	-0.729519
C100	C	-0.498158	0.883641	-0.891469
C101	C	-0.537048	0.931262	-0.807066
H102	H	-0.464972	0.914706	-0.954171
H103	H	-0.535528	0.852711	-0.946378
H104	H	-0.465148	0.848241	-0.836275
H105	H	-0.570059	0.966703	-0.862167
H106	H	-0.499642	0.962145	-0.752154
H107	H	-0.939427	1.056792	-0.439196
H108	H	-0.404633	0.720491	-0.717218
O109	O	-1.073119	0.892873	-0.729662
C110	C	-1.065664	0.806937	-0.881748
C111	C	-1.026815	0.854562	-0.797325
H112	H	-1.028244	0.775940	-0.936458
H113	H	-1.098685	0.837979	-0.944635
H114	H	-1.098831	0.771600	-0.826580
H115	H	-0.993611	0.889909	-0.852396
H116	H	-0.993836	0.823479	-0.734435
H117	H	-0.404635	0.592257	-0.717245
H118	H	-0.404648	0.364730	-0.717274
