data_functionalizedCrystal
_audit_creation_method	'MofGen! by Chris Wilmer'
_symmetry_space_group_name_H-M	'P1'
_symmetry_Int_Tables_number	1
_symmetry_cell_setting	triclinic
loop_
_symmetry_equiv_pos_as_xyz
  x,y,z
_cell_length_a	10.967874
_cell_length_b	9.565339
_cell_length_c	11.026607
_cell_angle_alpha	89.999834
_cell_angle_beta	83.619819
_cell_angle_gamma	102.125973
loop_
_atom_site_label
_atom_site_type_symbol
_atom_site_fract_x
_atom_site_fract_y
_atom_site_fract_z
O1	O	1.693957	0.524357	-0.170501
O2	O	1.334332	0.437720	-0.186826
O3	O	1.484339	0.473853	-0.001762
O4	O	1.543950	0.488224	-0.355564
O5	O	1.484349	0.241336	-0.001768
O6	O	1.334342	0.205203	-0.186831
O7	O	1.693966	0.291840	-0.170506
Zn8	Zn	1.514156	0.211604	-0.178670
Zn9	Zn	1.514143	0.517956	-0.178662
O10	O	1.543960	0.255707	-0.355570
C11	C	1.287582	0.310198	-0.185641
C12	C	1.148262	0.276634	-0.182089
C13	C	1.086145	0.382122	-0.180502
C14	C	0.942151	0.347435	-0.176830
N15	N	1.514173	0.002529	-0.178674
C16	C	1.583576	-0.071919	-0.093094
C17	C	1.465304	-0.193583	-0.068540
C18	C	1.632383	-0.153378	-0.203148
C19	C	1.395832	-0.117100	-0.154065
C20	C	1.562997	-0.076866	-0.288722
C21	C	1.444653	-0.198505	-0.264214
C22	C	1.740717	0.419365	-0.171691
C23	C	1.880036	0.452938	-0.175243
C24	C	1.473347	0.354947	0.043537
C25	C	1.440564	0.347054	0.178524
N26	N	1.514133	0.727033	-0.178649
C27	C	1.554952	0.374616	-0.400869
C28	C	1.587735	0.382518	-0.535856
C29	C	1.531083	0.368863	0.251577
C30	C	1.497203	0.360706	0.391093
H31	H	1.094841	0.160643	-0.180735
H32	H	0.888735	0.231436	-0.175477
C33	C	1.262392	-0.094956	-0.126540
C34	C	1.189856	-0.160693	-0.215777
C35	C	1.066932	-0.140309	-0.190468
H36	H	1.227439	-0.136029	-0.048662
H37	H	1.263165	0.004550	-0.126740
H38	H	1.189077	-0.260179	-0.215565
H39	H	1.224769	-0.119633	-0.293663
H40	H	1.067705	-0.040804	-0.190668
H41	H	1.031992	-0.181383	-0.112588
H42	H	1.017704	-0.184897	-0.251016
H43	H	1.690321	0.407337	0.423407
H44	H	1.139567	0.498113	-0.181868
C45	C	1.661533	0.001319	0.003636
C46	C	1.609834	-0.058324	0.118676
C47	C	1.681596	0.009120	0.207815
H48	H	1.745211	-0.011792	-0.012824
H49	H	1.661585	0.100646	0.002539
H50	H	1.609795	-0.157628	0.119771
H51	H	1.526165	-0.045215	0.135175
H52	H	1.681648	0.108448	0.206718
H53	H	1.765270	-0.003995	0.191343
H54	H	1.646522	-0.031329	0.285881
H55	H	1.732370	-0.170257	-0.223860
C56	C	1.366390	-0.271352	-0.360876
C57	C	1.416700	-0.209902	-0.475657
C58	C	1.344624	-0.276963	-0.564722
H59	H	1.367311	-0.370430	-0.360957
H60	H	1.282446	-0.259423	-0.343359
H61	H	1.500622	-0.221844	-0.493169
H62	H	1.415777	-0.110829	-0.475616
H63	H	1.260680	-0.265033	-0.547205
H64	H	1.345549	-0.376039	-0.564791
H65	H	1.378741	-0.235270	-0.642609
H66	H	1.337985	0.322351	0.219268
H67	H	1.423985	-0.244469	0.024535
C68	C	1.618371	-0.008968	-0.412733
C69	C	1.742224	-0.026275	-0.437896
C70	C	1.793295	0.036277	-0.552116
H71	H	1.570053	-0.053844	-0.473802
H72	H	1.617339	0.090098	-0.412067
H73	H	1.743249	-0.125321	-0.438572
H74	H	1.790573	0.018606	-0.376857
H75	H	1.792262	0.135343	-0.551449
H76	H	1.744967	-0.008605	-0.613175
H77	H	1.877337	0.024555	-0.569198
C78	C	1.360360	0.327527	0.445235
C79	C	1.301040	0.193627	0.406274
C80	C	1.174980	0.163026	0.456112
H81	H	1.355590	0.326311	0.531784
H82	H	1.319849	0.398810	0.418900
H83	H	1.341539	0.122362	0.432615
H84	H	1.305774	0.194809	0.319732
H85	H	1.134469	0.234309	0.429778
H86	H	1.170223	0.161817	0.542660
H87	H	1.134713	0.072179	0.429676
H88	H	0.933452	0.568938	-0.176611
H89	H	1.633662	0.393567	0.210832
