data_functionalizedCrystal
_audit_creation_method	'MofGen! by Chris Wilmer'
_symmetry_space_group_name_H-M	'P1'
_symmetry_Int_Tables_number	1
_symmetry_cell_setting	triclinic
loop_
_symmetry_equiv_pos_as_xyz
  x,y,z
_cell_length_a	13.033808
_cell_length_b	13.031981
_cell_length_c	12.827885
_cell_angle_alpha	82.783254
_cell_angle_beta	97.153975
_cell_angle_gamma	105.194505
loop_
_atom_site_label
_atom_site_type_symbol
_atom_site_fract_x
_atom_site_fract_y
_atom_site_fract_z
Zn1	Zn	1.570119	-0.216338	-0.364242
Zn2	Zn	1.903453	0.116995	-0.030909
Zn3	Zn	2.236786	0.450329	0.302424
Zn4	Zn	1.547455	-0.394034	-0.169784
Zn5	Zn	1.880788	-0.060700	0.163550
Zn6	Zn	2.214121	0.272633	0.496883
Zn7	Zn	1.392495	-0.238984	-0.209160
Zn8	Zn	1.725828	0.094349	0.124173
Zn9	Zn	2.059162	0.427683	0.457506
Zn10	Zn	1.369940	-0.416537	-0.364132
Zn11	Zn	1.703273	-0.083203	-0.030799
Zn12	Zn	2.036607	0.250130	0.302534
O13	O	1.470002	-0.316473	-0.276830
O14	O	1.803336	0.016860	0.056504
O15	O	2.136669	0.350194	0.389837
O16	O	1.715740	-0.221015	-0.322014
O17	O	2.049073	0.112318	0.011320
O18	O	2.382406	0.445652	0.344653
O19	O	1.526853	-0.373526	-0.028769
O20	O	1.860187	-0.040192	0.304564
O21	O	2.193520	0.293141	0.637898
O22	O	1.434982	-0.087307	-0.246258
O23	O	1.768315	0.246026	0.087075
O24	O	2.101649	0.579359	0.420409
O25	O	1.699088	-0.351567	-0.179146
O26	O	2.032421	-0.018234	0.154188
O27	O	2.365755	0.315100	0.487521
O28	O	1.565482	-0.070669	-0.360196
O29	O	1.898815	0.262664	-0.026863
O30	O	2.232148	0.595997	0.306471
O31	O	1.413005	-0.259611	-0.057699
O32	O	1.746338	0.073722	0.275634
O33	O	2.079672	0.407055	0.608968
O34	O	1.240876	-0.281432	-0.246151
O35	O	1.574210	0.051902	0.087182
O36	O	1.907543	0.385235	0.420516
O37	O	1.396540	-0.389920	-0.510385
O38	O	1.729873	-0.056587	-0.177052
O39	O	2.063207	0.276746	0.156282
O40	O	1.224305	-0.411879	-0.360008
O41	O	1.557638	-0.078546	-0.026675
O42	O	1.890972	0.254788	0.306658
O43	O	1.543611	-0.242835	-0.510466
O44	O	1.876944	0.090498	-0.177132
O45	O	2.210277	0.423831	0.156201
O46	O	1.504982	-0.545691	-0.179039
O47	O	1.838316	-0.212358	0.154294
O48	O	2.171649	0.120975	0.487628
O49	O	1.374563	-0.562224	-0.321826
O50	O	1.707896	-0.228891	0.011507
O51	O	2.041230	0.104442	0.344841
C52	C	1.194053	-0.351555	-0.307341
C53	C	1.527387	-0.018222	0.025992
C54	C	1.860720	0.315111	0.359325
C55	C	1.075998	-0.366589	-0.320416
C56	C	1.409331	-0.033256	0.012917
C57	C	1.742665	0.300077	0.346251
C58	C	1.434895	-0.592503	-0.246167
C59	C	1.768228	-0.259170	0.087166
C60	C	2.101561	0.074163	0.420499
C61	C	1.419973	-0.710578	-0.233074
C62	C	1.753306	-0.377245	0.100259
C63	C	2.086639	-0.043911	0.433593
C64	C	0.909533	-0.324183	-0.283537
C65	C	1.242866	0.009151	0.049797
C66	C	1.576200	0.342484	0.383130
C67	C	1.031549	-0.308645	-0.270019
C68	C	1.364883	0.024688	0.063314
C69	C	1.698216	0.358021	0.396647
C70	C	1.477847	-0.754909	-0.283678
C71	C	1.811180	-0.421576	0.049655
C72	C	2.144513	-0.088243	0.382989
C73	C	1.462425	-0.876945	-0.270147
C74	C	1.795759	-0.543612	0.063187
C75	C	2.129092	-0.210279	0.396520
C76	C	1.747029	-0.281255	-0.246200
C77	C	2.080362	0.052079	0.087134
C78	C	2.413695	0.385412	0.420467
C79	C	1.865081	-0.266247	-0.233147
C80	C	2.198414	0.067087	0.100186
C81	C	2.531748	0.400420	0.433520
C82	C	1.470087	-0.316362	-0.549403
C83	C	1.803421	0.016971	-0.216070
C84	C	2.136754	0.350305	0.117263
C85	C	1.470124	-0.316315	-0.665558
C86	C	1.803457	0.017019	-0.332225
C87	C	2.136790	0.350352	0.001109
C88	C	1.505276	-0.039361	-0.307632
C89	C	1.838609	0.293972	0.025702
C90	C	2.171943	0.627305	0.359035
C91	C	1.520307	0.078727	-0.320757
C92	C	1.853641	0.412061	0.012576
C93	C	2.186974	0.745394	0.345909
C94	C	1.542908	-0.243519	-0.717383
C95	C	1.876241	0.089815	-0.384050
C96	C	2.209574	0.423148	-0.050717
C97	C	1.542947	-0.243468	-0.837435
C98	C	1.876280	0.089865	-0.504102
C99	C	2.209614	0.423199	-0.170769
C100	C	1.469988	-0.316499	-0.005318
C101	C	1.803322	0.016834	0.328015
C102	C	2.136655	0.350167	0.661348
C103	C	1.470196	-0.316221	0.110825
C104	C	1.803529	0.017112	0.444159
C105	C	2.136862	0.350445	0.777492
H106	H	0.857257	-0.385291	-0.336680
H107	H	1.190591	-0.051958	-0.003346
H108	H	1.523924	0.281376	0.329987
H109	H	1.407883	-0.378551	-0.844612
H110	H	1.741216	-0.045218	-0.511279
H111	H	2.074549	0.288115	-0.177945
H112	H	1.359003	-0.762972	-0.179738
H113	H	1.692336	-0.429638	0.153595
H114	H	2.025669	-0.096305	0.486929
C115	C	1.627051	-0.159367	-0.657260
C116	C	1.960385	0.173966	-0.323927
C117	C	2.293718	0.507299	0.009406
N118	N	1.690431	-0.095982	-0.611977
N119	N	2.023764	0.237351	-0.278644
N120	N	2.357097	0.570684	0.054690
H121	H	1.023727	-0.427700	-0.373566
H122	H	1.357061	-0.094366	-0.040233
H123	H	1.690394	0.238967	0.293101
H124	H	1.605263	-0.181148	-0.882003
H125	H	1.938596	0.152186	-0.548670
H126	H	2.271930	0.485519	-0.215336
C127	C	1.102163	-0.226087	-0.198217
C128	C	1.435496	0.107247	0.135117
C129	C	1.768830	0.440580	0.468450
N130	N	1.155351	-0.163902	-0.144139
N131	N	1.488684	0.169431	0.189194
N132	N	1.822018	0.502764	0.522528
C133	C	0.935698	-0.183692	-0.161348
C134	C	1.269031	0.149641	0.171985
C135	C	1.602364	0.482974	0.505319
N136	N	0.988886	-0.121508	-0.107270
N137	N	1.322219	0.211825	0.226063
N138	N	1.655552	0.545159	0.559396
C139	C	1.560211	-0.684133	-0.355741
C140	C	1.893544	-0.350800	-0.022407
C141	C	2.226877	-0.017466	0.310926
N142	N	1.622251	-0.630825	-0.410018
N143	N	1.955585	-0.297492	-0.076685
N144	N	2.288918	0.035841	0.256649
C145	C	1.385974	-0.400460	-0.725682
C146	C	1.719308	-0.067126	-0.392349
C147	C	2.052641	0.266207	-0.059016
N148	N	1.322590	-0.463840	-0.770967
N149	N	1.655923	-0.130507	-0.437634
N150	N	1.989257	0.202827	-0.104300
H151	H	1.581273	-0.868885	-0.374107
H152	H	1.914606	-0.535551	-0.040774
H153	H	2.247939	-0.202218	0.292559
C154	C	1.380083	-0.947715	-0.198051
C155	C	1.713417	-0.614381	0.135282
C156	C	2.046750	-0.281048	0.468615
N157	N	1.318075	-1.001018	-0.143739
N158	N	1.651408	-0.667685	0.189595
N159	N	1.984742	-0.334352	0.522928
