data_functionalizedCrystal
_audit_creation_method	'MofGen! by Chris Wilmer'
_symmetry_space_group_name_H-M	'P1'
_symmetry_Int_Tables_number	1
_symmetry_cell_setting	triclinic
loop_
_symmetry_equiv_pos_as_xyz
  x,y,z
_cell_length_a	21.295419
_cell_length_b	21.295417
_cell_length_c	12.759387
_cell_angle_alpha	89.960308
_cell_angle_beta	89.978804
_cell_angle_gamma	90.045308
loop_
_atom_site_label
_atom_site_type_symbol
_atom_site_fract_x
_atom_site_fract_y
_atom_site_fract_z
Zn1	Zn	0.962335	-0.250320	-0.594016
Zn2	Zn	1.462335	0.249680	-0.094016
Zn3	Zn	0.962243	-0.355605	-0.418312
Zn4	Zn	1.462243	0.144395	0.081688
Zn5	Zn	0.857064	-0.250381	-0.418345
Zn6	Zn	1.357064	0.249619	0.081655
Zn7	Zn	0.857027	-0.355583	-0.593944
Zn8	Zn	1.357027	0.144417	-0.093944
O9	O	0.909667	-0.302972	-0.506154
O10	O	1.409667	0.197028	-0.006154
O11	O	1.050412	-0.264270	-0.570724
O12	O	1.550412	0.235730	-0.070724
O13	O	0.948268	-0.341682	-0.271295
O14	O	1.448268	0.158318	0.228705
O15	O	0.871082	-0.162284	-0.441692
O16	O	1.371082	0.337716	0.058308
O17	O	1.050345	-0.341623	-0.441636
O18	O	1.550345	0.158377	0.058364
O19	O	0.948424	-0.162239	-0.570756
O20	O	1.448424	0.337761	-0.070756
O21	O	0.870993	-0.264374	-0.271320
O22	O	1.370993	0.235626	0.228680
O23	O	0.768970	-0.264352	-0.441623
O24	O	1.268970	0.235648	0.058377
O25	O	0.871020	-0.341585	-0.740975
O26	O	1.371020	0.158415	-0.240975
O27	O	0.768943	-0.341644	-0.570634
O28	O	1.268943	0.158356	-0.070634
O29	O	0.948389	-0.264249	-0.741027
O30	O	1.448389	0.235751	-0.241027
O31	O	0.948233	-0.443692	-0.441567
O32	O	1.448233	0.056308	0.058433
O33	O	0.870931	-0.443675	-0.570602
O34	O	1.370931	0.056325	-0.070602
C35	C	0.746116	-0.303003	-0.506125
C36	C	1.246116	0.196997	-0.006125
C37	C	0.676148	-0.303031	-0.506137
C38	C	1.176148	0.196969	-0.006137
C39	C	0.909585	-0.466524	-0.506096
C40	C	1.409585	0.033476	-0.006096
C41	C	0.909607	-0.536492	-0.506106
C42	C	1.409607	-0.036492	-0.006106
C43	C	0.643339	-0.262819	-0.573457
C44	C	1.143339	0.237181	-0.073457
C45	C	0.577596	-0.262802	-0.573461
C46	C	1.077596	0.237198	-0.073461
C47	C	0.544665	-0.303008	-0.506156
C48	C	1.044665	0.196992	-0.006156
C49	C	0.577482	-0.343222	-0.438823
C50	C	1.077482	0.156778	0.061177
C51	C	0.643224	-0.343234	-0.438813
C52	C	1.143224	0.156766	0.061187
N53	N	0.441390	-0.358087	-0.497945
N54	N	0.941390	0.141913	0.002055
N55	N	0.378939	-0.358074	-0.497960
N56	N	0.878939	0.141926	0.002040
C57	C	0.346591	-0.302975	-0.506179
C58	C	0.846591	0.197025	-0.006179
N59	N	0.379053	-0.247888	-0.514403
N60	N	0.879053	0.252112	-0.014403
N61	N	0.441510	-0.247902	-0.514393
N62	N	0.941510	0.252098	-0.014393
C63	C	0.473380	-0.303000	-0.506159
C64	C	0.973380	0.197000	-0.006159
C65	C	0.242496	-0.262742	-0.573508
C66	C	0.742496	0.237258	-0.073508
C67	C	0.176752	-0.262724	-0.573504
C68	C	0.676752	0.237276	-0.073504
C69	C	0.176640	-0.343150	-0.438871
C70	C	0.676640	0.156850	0.061129
C71	C	0.242382	-0.343162	-0.438869
C72	C	0.742382	0.156838	0.061131
C73	C	0.275306	-0.302959	-0.506193
C74	C	0.775306	0.197041	-0.006193
C75	C	0.949894	-0.569346	-0.438986
C76	C	1.449894	-0.069346	0.061014
C77	C	0.949923	-0.635089	-0.439010
C78	C	1.449923	-0.135089	0.060990
C79	C	0.909655	-0.667975	-0.506143
C80	C	1.409655	-0.167975	-0.006143
C81	C	0.869365	-0.635112	-0.573276
C82	C	1.369365	-0.135112	-0.073276
C83	C	0.869342	-0.569371	-0.573258
C84	C	1.369342	-0.069371	-0.073258
N85	N	0.854588	-0.771254	-0.514142
N86	N	1.354588	-0.271254	-0.014142
N87	N	0.854612	-0.833705	-0.514153
N88	N	1.354612	-0.333705	-0.014153
C89	C	0.909725	-0.866049	-0.506203
C90	C	1.409725	-0.366049	-0.006203
N91	N	0.964815	-0.833582	-0.498220
N92	N	1.464815	-0.333582	0.001780
N93	N	0.964789	-0.771125	-0.498204
N94	N	1.464789	-0.271125	0.001796
C95	C	0.909677	-0.739260	-0.506170
C96	C	1.409677	-0.239260	-0.006170
C97	C	0.950048	-0.970189	-0.439105
C98	C	1.450048	-0.470189	0.060895
C99	C	0.950078	-1.035933	-0.439136
C100	C	1.450078	-0.535933	0.060864
C101	C	0.869515	-1.035955	-0.573396
C102	C	1.369515	-0.535955	-0.073396
C103	C	0.869490	-0.970212	-0.573371
C104	C	1.369490	-0.470212	-0.073371
C105	C	0.909755	-0.937333	-0.506219
C106	C	1.409755	-0.437333	-0.006219
C107	C	1.073858	-0.302942	-0.506184
C108	C	1.573858	0.197058	-0.006184
C109	C	1.143826	-0.302930	-0.506197
C110	C	1.643826	0.197070	-0.006197
C111	C	0.909767	-0.138782	-0.506236
C112	C	1.409767	0.361218	-0.006236
C113	C	0.909810	-0.068814	-0.506270
C114	C	1.409810	0.431186	-0.006270
C115	C	0.909710	-0.302907	-0.780188
C116	C	1.409710	0.197093	-0.280188
C117	C	0.909728	-0.302880	-0.896965
C118	C	1.409728	0.197120	-0.396965
C119	C	0.829267	-0.222374	-0.897009
C120	C	1.329267	0.277626	-0.397009
C121	C	0.789049	-0.182108	-0.951892
C122	C	1.289049	0.317892	-0.451892
C123	C	0.789067	-0.182085	-1.061613
C124	C	1.289067	0.317915	-0.561613
C125	C	0.829308	-0.222334	-1.116455
C126	C	1.329308	0.277666	-0.616455
C127	C	0.869527	-0.262599	-1.061572
C128	C	1.369527	0.237401	-0.561572
C129	C	0.869505	-0.262616	-0.951848
C130	C	1.369505	0.237384	-0.451848
C131	C	0.949984	-0.343107	-1.061528
C132	C	1.449984	0.156893	-0.561528
C133	C	0.949969	-0.343128	-0.951806
C134	C	1.449969	0.156872	-0.451806
C135	C	0.990225	-0.383356	-1.116369
C136	C	1.490225	0.116644	-0.616369
C137	C	1.030448	-0.423619	-1.061486
C138	C	1.530448	0.076381	-0.561486
C139	C	1.030428	-0.423640	-0.951758
C140	C	1.530428	0.076360	-0.451758
C141	C	0.990188	-0.383394	-0.896923
C142	C	1.490188	0.116606	-0.396923
C143	C	0.909661	-0.302992	-0.233187
C144	C	1.409661	0.197008	0.266813
C145	C	0.909765	-0.302842	-0.116411
C146	C	1.409765	0.197158	0.383589
H147	H	0.670141	-0.230082	-0.628277
H148	H	1.170141	0.269918	-0.128277
C149	C	0.278474	-0.387403	-0.364827
C150	C	0.778474	0.112597	0.135173
H151	H	0.249448	-0.411350	-0.324748
H152	H	0.749448	0.088650	0.175252
H153	H	0.304132	-0.363297	-0.319121
H154	H	0.804132	0.136703	0.180879
H155	H	0.304102	-0.414865	-0.404938
H156	H	0.804102	0.085135	0.095062
H157	H	1.063181	-0.456427	-0.907079
H158	H	1.563181	0.043573	-0.407079
H159	H	0.836730	-1.062730	-0.628062
H160	H	1.336730	-0.562730	-0.128062
H161	H	0.150040	-0.229975	-0.628323
H162	H	0.650040	0.270025	-0.128323
H163	H	0.269304	-0.230002	-0.628320
H164	H	0.769304	0.269998	-0.128320
H165	H	0.836535	-0.542620	-0.627916
H166	H	1.336535	-0.042620	-0.127916
C167	C	1.074710	-0.467885	-1.121806
C168	C	1.574710	0.032115	-0.621806
H169	H	1.098661	-0.491869	-1.073409
H170	H	1.598661	0.008131	-0.573409
H171	H	1.102157	-0.443793	-1.164632
H172	H	1.602157	0.056207	-0.664632
H173	H	1.050614	-0.495312	-1.164583
H174	H	1.550614	0.004688	-0.664583
C175	C	0.994191	-0.533183	-0.365135
C176	C	1.494191	-0.033183	0.134865
H177	H	1.018193	-0.562170	-0.325170
H178	H	1.518193	-0.062170	0.174830
H179	H	0.970121	-0.507586	-0.319314
H180	H	1.470121	-0.007586	0.180686
H181	H	1.021600	-0.507489	-0.405369
H182	H	1.521600	-0.007489	0.094631
C183	C	0.744789	-0.137836	-0.891565
C184	C	1.244789	0.362164	-0.391565
H185	H	0.750541	-0.143610	-0.818358
H186	H	1.250541	0.356390	-0.318358
H187	H	0.702490	-0.147045	-0.909535
H188	H	1.202490	0.352955	-0.409535
H189	H	0.754042	-0.095535	-0.909577
H190	H	1.254042	0.404465	-0.409577
H191	H	0.990170	-0.383404	-0.807582
H192	H	1.490170	0.116596	-0.307582
C193	C	0.825070	-0.671284	-0.647118
C194	C	1.325070	-0.171284	-0.147118
H195	H	0.830849	-0.715143	-0.637508
H196	H	1.330849	-0.215143	-0.137508
H197	H	0.834255	-0.660464	-0.717720
H198	H	1.334255	-0.160464	-0.217720
H199	H	0.782774	-0.660565	-0.631667
H200	H	1.282774	-0.160565	-0.131667
H201	H	0.982837	-0.943418	-0.384429
H202	H	1.482837	-0.443418	0.115571
H203	H	0.829253	-0.222383	-0.807667
H204	H	1.329253	0.277617	-0.307667
H205	H	0.829314	-0.222317	-1.205796
H206	H	1.329314	0.277683	-0.705796
C207	C	0.744827	-0.137799	-1.121991
C208	C	1.244827	0.362201	-0.621991
H209	H	0.750600	-0.143556	-1.195191
H210	H	1.250600	0.356444	-0.695191
H211	H	0.754061	-0.095505	-1.104042
H212	H	1.254061	0.404495	-0.604042
H213	H	0.702520	-0.147025	-1.104002
H214	H	1.202520	0.352975	-0.604002
C215	C	0.541495	-0.218571	-0.647518
C216	C	1.041495	0.281429	-0.147518
H217	H	0.497627	-0.224321	-0.637876
H218	H	0.997627	0.275679	-0.137876
H219	H	0.552279	-0.227837	-0.718077
H220	H	1.052279	0.272163	-0.218077
H221	H	0.552303	-0.176263	-0.632272
H222	H	1.052303	0.323737	-0.132272
H223	H	0.982888	-1.062682	-0.384480
H224	H	1.482888	-0.562682	0.115520
H225	H	0.982732	-0.661844	-0.384353
H226	H	1.482732	-0.161844	0.115647
C227	C	0.825166	-0.934071	-0.647190
C228	C	1.325166	-0.434071	-0.147190
H229	H	0.801183	-0.963070	-0.687170
H230	H	1.301183	-0.463070	-0.187170
H231	H	0.849218	-0.908371	-0.692998
H232	H	1.349218	-0.408371	-0.192998
H233	H	0.797740	-0.908480	-0.606940
H234	H	1.297740	-0.408480	-0.106940
C235	C	0.541261	-0.387450	-0.364794
C236	C	1.041261	0.112550	0.135206
H237	H	0.497409	-0.381690	-0.374449
H238	H	0.997409	0.118310	0.125551
H239	H	0.552022	-0.378193	-0.294229
H240	H	1.052022	0.121807	0.205771
H241	H	0.552001	-0.429760	-0.380046
H242	H	1.052001	0.070240	0.119954
C243	C	0.679315	-0.387474	-0.364767
C244	C	1.179315	0.112526	0.135233
H245	H	0.650290	-0.411420	-0.324685
H246	H	1.150290	0.088580	0.175315
H247	H	0.704976	-0.363370	-0.319063
H248	H	1.204976	0.136630	0.180937
H249	H	0.704941	-0.414937	-0.404881
H250	H	1.204941	0.085063	0.095119
C251	C	0.140424	-0.387379	-0.364842
C252	C	0.640424	0.112621	0.135158
H253	H	0.096571	-0.381617	-0.374493
H254	H	0.596571	0.118383	0.125507
H255	H	0.151187	-0.378124	-0.294277
H256	H	0.651187	0.121876	0.205723
H257	H	0.151162	-0.429688	-0.380099
H258	H	0.651162	0.070312	0.119901
C259	C	0.990061	-0.383522	-1.237058
C260	C	1.490061	0.116478	-0.737058
H261	H	1.019725	-0.413318	-1.261856
H262	H	1.519725	0.086682	-0.761856
H263	H	1.000923	-0.342952	-1.262237
H264	H	1.500923	0.157048	-0.762237
H265	H	0.949376	-0.394466	-1.261539
H266	H	1.449376	0.105534	-0.761539
