data_functionalizedCrystal
_audit_creation_method	'MofGen! by Chris Wilmer'
_symmetry_space_group_name_H-M	'P1'
_symmetry_Int_Tables_number	1
_symmetry_cell_setting	triclinic
loop_
_symmetry_equiv_pos_as_xyz
  x,y,z
_cell_length_a	13.897449
_cell_length_b	13.897447
_cell_length_c	12.827885
_cell_angle_alpha	90.031004
_cell_angle_beta	90.022760
_cell_angle_gamma	90.020357
loop_
_atom_site_label
_atom_site_type_symbol
_atom_site_fract_x
_atom_site_fract_y
_atom_site_fract_z
Zn1	Zn	1.474684	-0.383947	0.590937
Zn2	Zn	1.974684	0.116053	1.090937
Zn3	Zn	1.474575	-0.545273	0.416194
Zn4	Zn	1.974575	-0.045273	0.916194
Zn5	Zn	1.313375	-0.383996	0.416200
Zn6	Zn	1.813375	0.116004	0.916200
Zn7	Zn	1.313350	-0.545204	0.590883
Zn8	Zn	1.813350	-0.045204	1.090883
O9	O	1.393996	-0.464605	0.503553
O10	O	1.893996	0.035395	1.003553
O11	O	1.609651	-0.405356	0.567777
O12	O	2.109651	0.094644	1.067777
O13	O	1.453156	-0.523929	0.269958
O14	O	1.953156	-0.023929	0.769958
O15	O	1.334830	-0.249008	0.439405
O16	O	1.834830	0.250992	0.939405
O17	O	1.609571	-0.523881	0.439394
O18	O	2.109571	-0.023881	0.939394
O19	O	1.453343	-0.248972	0.567783
O20	O	1.953343	0.251028	1.067783
O21	O	1.334723	-0.405440	0.269963
O22	O	1.834723	0.094560	0.769963
O23	O	1.178390	-0.405372	0.439352
O24	O	1.678390	0.094628	0.939352
O25	O	1.334787	-0.523763	0.737126
O26	O	1.834787	-0.023763	1.237126
O27	O	1.178372	-0.523811	0.567691
O28	O	1.678372	-0.023811	1.067691
O29	O	1.453318	-0.405288	0.737166
O30	O	1.953318	0.094712	1.237166
O31	O	1.453132	-0.680246	0.439341
O32	O	1.953132	-0.180246	0.939341
O33	O	1.334680	-0.680195	0.567685
O34	O	1.834680	-0.180195	1.067685
C35	C	1.143382	-0.464590	0.503517
C36	C	1.643382	0.035410	1.003517
C37	C	1.036168	-0.464607	0.503526
C38	C	1.536168	0.035393	1.003526
C39	C	0.949098	-0.464610	0.503544
C40	C	1.449098	0.035390	1.003544
C41	C	0.839866	-0.464617	0.503575
C42	C	1.339866	0.035383	1.003575
C43	C	1.393918	-0.715219	0.503529
C44	C	1.893918	-0.215219	1.003529
C45	C	1.393972	-0.822433	0.503554
C46	C	1.893972	-0.322433	1.003554
C47	C	1.394019	-0.909503	0.503578
C48	C	1.894019	-0.409503	1.003578
C49	C	1.394087	-1.018736	0.503605
C50	C	1.894087	-0.518736	1.003605
C51	C	1.645589	-0.464621	0.503591
C52	C	2.145589	0.035379	1.003591
C53	C	1.752803	-0.464627	0.503607
C54	C	2.252803	0.035373	1.003607
C55	C	1.394062	-0.464512	0.776124
C56	C	1.894062	0.035488	1.276124
C57	C	1.394090	-0.464473	0.892277
C58	C	1.894090	0.035527	1.392277
C59	C	1.394101	-0.213012	0.503601
C60	C	1.894101	0.286988	1.003601
C61	C	1.394146	-0.105798	0.503621
C62	C	1.894146	0.394202	1.003621
C63	C	1.393986	-0.464628	0.232044
C64	C	1.893986	0.035372	0.732044
C65	C	1.394145	-0.464395	0.115891
C66	C	1.894145	0.035605	0.615891
C67	C	1.452749	-0.405836	0.944081
C68	C	1.952749	0.094164	1.444081
C69	C	1.452780	-0.405794	1.064132
C70	C	1.952780	0.094206	1.564132
H71	H	1.503003	-0.355596	1.108682
H72	H	2.003003	0.144404	1.608682
H73	H	1.502944	-0.355663	0.899556
H74	H	2.002944	0.144337	1.399556
H75	H	1.343925	-0.514603	1.071347
H76	H	1.843925	-0.014603	1.571347
H77	H	1.343885	-0.514636	0.936802
H78	H	1.843885	-0.014636	1.436802
