data_functionalizedCrystal
_audit_creation_method	'MofGen! by Chris Wilmer'
_symmetry_space_group_name_H-M	'P1'
_symmetry_Int_Tables_number	1
_symmetry_cell_setting	triclinic
loop_
_symmetry_equiv_pos_as_xyz
  x,y,z
_cell_length_a	13.339070
_cell_length_b	12.811453
_cell_length_c	11.892095
_cell_angle_alpha	99.334023
_cell_angle_beta	94.950121
_cell_angle_gamma	80.233851
loop_
_atom_site_label
_atom_site_type_symbol
_atom_site_fract_x
_atom_site_fract_y
_atom_site_fract_z
O1	O	0.119853	-1.444863	-0.242117
O2	O	0.619853	-0.944863	0.257883
O3	O	0.136809	-1.142001	-0.211071
O4	O	0.636809	-0.642001	0.288929
O5	O	-0.018834	-1.258673	-0.223028
O6	O	0.481166	-0.758673	0.276972
O7	O	0.275496	-1.328191	-0.230161
O8	O	0.775496	-0.828191	0.269839
O9	O	-0.005877	-1.248939	-0.034023
O10	O	0.494123	-0.748939	0.465977
O11	O	0.149767	-1.132267	-0.022067
O12	O	0.649767	-0.632267	0.477933
O13	O	0.132810	-1.435129	-0.053112
O14	O	0.632810	-0.935129	0.446888
Zn15	Zn	0.143346	-1.282153	-0.007581
Zn16	Zn	0.643346	-0.782153	0.492419
Zn17	Zn	0.126274	-1.294977	-0.256603
Zn18	Zn	0.626274	-0.794977	0.243397
O19	O	0.288454	-1.318457	-0.041156
O20	O	0.788454	-0.818457	0.458844
C21	C	0.142734	-1.097579	-0.112514
C22	C	0.642734	-0.597579	0.387486
C23	C	0.141071	-0.979714	-0.100432
C24	C	0.641071	-0.479714	0.399568
C25	C	0.123837	-0.768847	-0.283804
C26	C	0.623837	-0.268847	0.216196
C27	C	0.122274	-0.658103	-0.272457
C28	C	0.622274	-0.158103	0.227543
C29	C	0.136390	-0.647481	-0.066392
C30	C	0.636390	-0.147481	0.433608
C31	C	0.137952	-0.758225	-0.077739
C32	C	0.637952	-0.258225	0.422261
C33	C	0.131674	-0.818904	-0.186449
C34	C	0.631674	-0.318904	0.313551
C35	C	0.133230	-0.929649	-0.197795
C36	C	0.633230	-0.429649	0.302205
C37	C	0.147352	-0.919026	0.008269
C38	C	0.647352	-0.419026	0.508269
C39	C	0.145790	-0.808282	0.019616
C40	C	0.645790	-0.308282	0.519616
C41	C	-0.050012	-1.242063	-0.127323
C42	C	0.449988	-0.742063	0.372677
C43	C	-0.162215	-1.207061	-0.123740
C44	C	0.337785	-0.707061	0.376260
C45	C	-0.527776	-1.479223	-0.151638
C46	C	-0.027776	-0.979223	0.348362
C47	C	-0.422355	-1.512113	-0.154999
C48	C	0.077645	-1.012113	0.345001
C49	C	-0.357315	-1.435853	-0.147185
C50	C	0.142685	-0.935853	0.352815
C51	C	-0.397706	-1.326697	-0.136008
C52	C	0.102294	-0.826697	0.363992
C53	C	-0.503136	-1.293804	-0.132638
C54	C	-0.003136	-0.793804	0.367362
C55	C	-0.332676	-1.250433	-0.128185
C56	C	0.167324	-0.750433	0.371815
C57	C	-0.373066	-1.141278	-0.117009
C58	C	0.126934	-0.641278	0.382991
C59	C	-0.478487	-1.108390	-0.113640
C60	C	0.021513	-0.608390	0.386360
C61	C	-0.543527	-1.184650	-0.121454
C62	C	-0.043527	-0.684650	0.378546
C63	C	-0.227245	-1.283326	-0.131555
C64	C	0.272755	-0.783326	0.368445
C65	C	-0.202606	-1.097907	-0.112556
C66	C	0.297394	-0.597907	0.387444
C67	C	-0.308026	-1.065017	-0.109195
C68	C	0.191974	-0.565017	0.390805
C69	C	0.319631	-1.335067	-0.136863
C70	C	0.819631	-0.835067	0.363137
C71	C	0.431834	-1.370070	-0.140454
C72	C	0.931834	-0.870070	0.359546
N73	N	0.154996	-1.273408	0.162370
N74	N	0.654996	-0.773408	0.662370
C75	C	0.126886	-0.479551	-0.151670
C76	C	0.626886	0.020449	0.348330
C77	C	0.128549	-0.597416	-0.163755
C78	C	0.628549	-0.097416	0.336245
N79	N	0.114615	-1.303728	-0.426554
N80	N	0.614615	-0.803728	0.073446
C81	C	0.033488	-1.364562	0.389676
C82	C	0.533488	-0.864562	0.889676
C83	C	0.041639	-1.358460	0.508643
C84	C	0.541639	-0.858460	1.008643
C85	C	0.179443	-1.255093	0.519274
C86	C	0.679443	-0.755093	1.019274
C87	C	0.171292	-1.261196	0.400307
C88	C	0.671292	-0.761196	0.900307
C89	C	0.098313	-1.315934	0.335512
C90	C	0.598313	-0.815934	0.835512
C91	C	0.090168	-1.322043	0.216542
C92	C	0.590168	-0.822043	0.716542
C93	C	0.227967	-1.218670	0.227175
C94	C	0.727967	-0.718670	0.727175
C95	C	0.236118	-1.212567	0.346143
C96	C	0.736118	-0.712567	0.846143
H97	H	0.141510	-0.598059	0.022114
H98	H	0.641510	-0.098059	0.522114
H99	H	0.118720	-0.818253	-0.372319
H100	H	0.618720	-0.318253	0.127681
Br101	Br	-0.008869	-1.396335	0.128606
Br102	Br	0.491131	-0.896335	0.628606
H103	H	-0.511368	-1.019508	-0.104531
H104	H	-0.011368	-0.519508	0.395469
Br105	Br	-0.367547	-1.660247	-0.170189
Br106	Br	0.132453	-1.160247	0.329811
H107	H	-0.025927	-1.409141	0.336918
H108	H	0.474073	-0.909141	0.836918
Br109	Br	0.111645	-0.590172	-0.404587
Br110	Br	0.611645	-0.090172	0.095413
H111	H	0.150905	-0.758863	0.108124
H112	H	0.650905	-0.258863	0.608124
Br113	Br	0.157967	-0.986962	0.140403
Br114	Br	0.657967	-0.486962	0.640403
Br115	Br	-0.114345	-0.994402	-0.101937
Br116	Br	0.385655	-0.494402	0.398063
H117	H	-0.340928	-0.976141	-0.100094
H118	H	0.159072	-0.476141	0.399906
Br119	Br	0.278467	-1.180792	0.607223
Br120	Br	0.778467	-0.680792	1.107223
Br121	Br	-0.046346	-1.424452	0.582151
Br122	Br	0.453654	-0.924452	1.082151
Br123	Br	-0.214242	-1.480490	-0.151749
Br124	Br	0.285758	-0.980490	0.348251
Br125	Br	-0.616044	-1.582705	-0.162214
Br126	Br	-0.116044	-1.082705	0.337786
H127	H	-0.194370	-1.372201	-0.140654
H128	H	0.305630	-0.872201	0.359346
Br129	Br	-0.686615	-1.140025	-0.117047
Br130	Br	-0.186615	-0.640025	0.382953
Br131	Br	0.335152	-1.138277	0.434086
Br132	Br	0.835152	-0.638277	0.934086
Br133	Br	0.315957	-1.152684	0.153655
Br134	Br	0.815957	-0.652684	0.653655
H135	H	0.128117	-0.979053	-0.286311
H136	H	0.628117	-0.479053	0.213689
