data_functionalizedCrystal
_audit_creation_method	'MofGen! by Chris Wilmer'
_symmetry_space_group_name_H-M	'P1'
_symmetry_Int_Tables_number	1
_symmetry_cell_setting	triclinic
loop_
_symmetry_equiv_pos_as_xyz
  x,y,z
_cell_length_a	18.050591
_cell_length_b	18.215405
_cell_length_c	18.215399
_cell_angle_alpha	89.969449
_cell_angle_beta	89.974300
_cell_angle_gamma	90.020891
loop_
_atom_site_label
_atom_site_type_symbol
_atom_site_fract_x
_atom_site_fract_y
_atom_site_fract_z
Zn1	Zn	1.135345	-0.293070	-0.416218
Zn2	Zn	1.135252	-0.416141	-0.293146
Zn3	Zn	1.011154	-0.293085	-0.293152
Zn4	Zn	1.011119	-0.416091	-0.416158
O5	O	1.073217	-0.354597	-0.354669
O6	O	1.239257	-0.309411	-0.399914
O7	O	1.118766	-0.399845	-0.190162
O8	O	1.027681	-0.190099	-0.309505
O9	O	1.239189	-0.399831	-0.309494
O10	O	1.118924	-0.190088	-0.399921
O11	O	1.027591	-0.309436	-0.190167
O12	O	0.907224	-0.309387	-0.309447
O13	O	1.027622	-0.399745	-0.519150
O14	O	0.907199	-0.399759	-0.399819
O15	O	1.118890	-0.309362	-0.519194
O16	O	1.118733	-0.519119	-0.309436
O17	O	1.027533	-0.519082	-0.399813
C18	C	1.073139	-0.545803	-0.354633
C19	C	1.073173	-0.627602	-0.354643
C20	C	0.880265	-0.354569	-0.354628
C21	C	0.797720	-0.354575	-0.354628
C22	C	1.120773	-0.815791	-0.307670
C23	C	1.120806	-0.892650	-0.307688
C24	C	1.025757	-0.892651	-0.401720
C25	C	1.025728	-0.815794	-0.401705
C26	C	1.073235	-0.777365	-0.354676
C27	C	1.073297	-0.931082	-0.354709
C28	C	1.073333	-1.014415	-0.354728
C29	C	1.073201	-0.694027	-0.354657
C30	C	0.598261	-0.305374	-0.305597
C31	C	0.548844	-0.372499	-0.287483
C32	C	0.646589	-0.354598	-0.354661
C33	C	0.548925	-0.287496	-0.372773
C34	C	0.500604	-0.354613	-0.354692
C35	C	0.598259	-0.421758	-0.336512
C36	C	0.598344	-0.336710	-0.421833
C37	C	0.548949	-0.403881	-0.403745
C38	C	0.730687	-0.354588	-0.354642
C39	C	0.416508	-0.354631	-0.354712
C40	C	1.266923	-0.354625	-0.354710
C41	C	1.349469	-0.354637	-0.354727
C42	C	1.073263	-0.354546	-0.546622
C43	C	1.073282	-0.354524	-0.628420
C44	C	1.073316	-0.162644	-0.354720
C45	C	1.073359	-0.080845	-0.354742
C46	C	1.120822	-0.307418	-0.816639
C47	C	1.120831	-0.307397	-0.893497
C48	C	1.025794	-0.401517	-0.893440
C49	C	1.025782	-0.401534	-0.816583
C50	C	1.073300	-0.354486	-0.778184
C51	C	1.073321	-0.354447	-0.931900
C52	C	1.073331	-0.354424	-1.015234
C53	C	1.073290	-0.354508	-0.694845
C54	C	1.073215	-0.354594	-0.163462
C55	C	1.073340	-0.354409	-0.081664
H56	H	1.159457	-0.784504	-0.269377
H57	H	1.159517	-0.923932	-0.269412
O58	O	0.979538	-0.447155	-0.779191
C59	C	0.879286	-0.457062	-0.692348
C60	C	0.931597	-0.405318	-0.734661
H61	H	0.840523	-0.423259	-0.656324
H62	H	0.845275	-0.490677	-0.732961
H63	H	0.913374	-0.495567	-0.656395
H64	H	0.897566	-0.366769	-0.770615
H65	H	0.965610	-0.371755	-0.694009
H66	H	0.987078	-0.923948	-0.440008
O67	O	0.979477	-0.778576	-0.447393
C68	C	0.885238	-0.786681	-0.540695
C69	C	0.937560	-0.828921	-0.488980
H70	H	0.851345	-0.827367	-0.574342
H71	H	0.846364	-0.750770	-0.506895
H72	H	0.919312	-0.750627	-0.579171
H73	H	0.903546	-0.865015	-0.450493
H74	H	0.976435	-0.864786	-0.522825
O75	O	0.623873	-0.489536	-0.318188
C76	C	0.592624	-0.613706	-0.284555
C77	C	0.563515	-0.536991	-0.305317
H78	H	0.543840	-0.652090	-0.274128
H79	H	0.627818	-0.636266	-0.331370
H80	H	0.627774	-0.609535	-0.232743
H81	H	0.528334	-0.541098	-0.357110
H82	H	0.528362	-0.514458	-0.258460
O83	O	0.624062	-0.255849	-0.255948
C84	C	0.628068	-0.218762	-0.129049
C85	C	0.598814	-0.274906	-0.185196
H86	H	0.607654	-0.234141	-0.071835
H87	H	0.691222	-0.218844	-0.129805
H88	H	0.606942	-0.161698	-0.143954
H89	H	0.619885	-0.331997	-0.170329
H90	H	0.535662	-0.274760	-0.184429
H91	H	0.527102	-0.387640	-0.230690
H92	H	0.527434	-0.445563	-0.445250
H93	H	1.159513	-0.269106	-0.785376
O94	O	1.166923	-0.261697	-0.930965
C95	C	1.209084	-0.219976	-1.049392
C96	C	1.156837	-0.271761	-1.007052
H97	H	1.200960	-0.228105	-1.110915
H98	H	1.196065	-0.160622	-1.034344
H99	H	1.268952	-0.232899	-1.034253
H100	H	1.096952	-0.258904	-1.022167
H101	H	1.169920	-0.331099	-1.022103
O102	O	0.624274	-0.318497	-0.489544
C103	C	0.628565	-0.227159	-0.585196
C104	C	0.599163	-0.247696	-0.508501
H105	H	0.608262	-0.169922	-0.600553
H106	H	0.691717	-0.227808	-0.584674
H107	H	0.607441	-0.268575	-0.627166
H108	H	0.620233	-0.206300	-0.466489
H109	H	0.536012	-0.247069	-0.509085
H110	H	0.987108	-0.439824	-0.924714
O111	O	0.523159	-0.219736	-0.390953
C112	C	0.518957	-0.091275	-0.359712
C113	C	0.548198	-0.167970	-0.339057
H114	H	0.539177	-0.049404	-0.317757
H115	H	0.540189	-0.075556	-0.416542
H116	H	0.455807	-0.092101	-0.360105
H117	H	0.611346	-0.167203	-0.338622
H118	H	0.526910	-0.183659	-0.282241
