data_functionalizedCrystal
_audit_creation_method	'MofGen! by Chris Wilmer'
_symmetry_space_group_name_H-M	'P1'
_symmetry_Int_Tables_number	1
_symmetry_cell_setting	triclinic
loop_
_symmetry_equiv_pos_as_xyz
  x,y,z
_cell_length_a	15.944551
_cell_length_b	15.944551
_cell_length_c	14.421503
_cell_angle_alpha	89.996660
_cell_angle_beta	89.996859
_cell_angle_gamma	96.501262
loop_
_atom_site_label
_atom_site_type_symbol
_atom_site_fract_x
_atom_site_fract_y
_atom_site_fract_z
O1	O	1.114529	-0.108320	-0.077017
O2	O	0.869980	-0.121677	-0.077040
O3	O	0.998933	0.007276	-0.077020
O4	O	0.985576	-0.237273	-0.077038
O5	O	0.998911	0.007257	0.077204
O6	O	0.869958	-0.121696	0.077183
O7	O	1.114508	-0.108340	0.077206
Cu8	Cu	0.992231	-0.115020	0.091277
Cu9	Cu	0.992256	-0.114997	-0.091110
O10	O	0.985555	-0.237293	0.077186
C11	C	0.838675	-0.121132	0.000069
C12	C	0.745429	-0.119470	0.000060
C13	C	0.530572	-0.035565	0.000084
C14	C	0.469563	-0.074518	-0.075959
C15	C	0.574703	-0.116462	0.000071
C16	C	0.469564	-0.074556	0.076093
C17	C	0.409790	-0.113551	0.000086
C18	C	0.514922	-0.155437	-0.076035
C19	C	0.514929	-0.155464	0.076086
C20	C	0.453937	-0.194476	0.000024
C21	C	0.669705	-0.118137	0.000062
C22	C	0.314789	-0.111883	0.000089
C23	C	0.998367	0.038561	0.000092
C24	C	0.996705	0.131807	0.000093
C25	C	1.145813	-0.108885	0.000096
C26	C	1.239059	-0.110547	0.000098
C27	C	0.986120	-0.268577	0.000072
C28	C	0.987782	-0.361823	0.000066
N29	N	0.992219	-0.115035	0.219558
C30	C	0.912801	0.346663	0.000072
C31	C	0.951753	0.407671	0.076117
C32	C	0.993698	0.302533	0.000085
C33	C	0.951793	0.407674	-0.075935
C34	C	0.990787	0.467445	0.000074
C35	C	1.032672	0.362312	0.076193
C36	C	1.032701	0.362308	-0.075927
C37	C	1.071711	0.423298	0.000136
C38	C	0.995372	0.207530	0.000092
C39	C	0.989119	0.562446	0.000073
N40	N	0.992275	-0.114975	-0.219392
C41	C	0.932581	-0.174636	0.469202
C42	C	1.008481	-0.190943	0.531011
C43	C	0.992240	-0.115015	0.408719
C44	C	0.916359	-0.098727	0.531005
C45	C	0.992253	-0.114997	0.591441
C46	C	1.068178	-0.131360	0.469167
C47	C	0.976007	-0.039111	0.469156
C48	C	1.051961	-0.055386	0.530936
C49	C	0.992231	-0.115027	0.303458
C50	C	0.992270	-0.114985	0.696700
H51	H	0.449469	-0.040333	0.140379
H52	H	0.845652	0.313356	0.000141
O53	O	0.872469	-0.234765	0.436697
C54	C	0.804678	-0.301713	0.302249
C55	C	0.872764	-0.233572	0.338937
H56	H	0.804906	-0.300782	0.223205
H57	H	0.740083	-0.288479	0.328674
H58	H	0.818681	-0.366370	0.327716
H59	H	0.858841	-0.168887	0.313485
H60	H	0.937337	-0.246878	0.312518
O61	O	1.151944	0.462719	0.000241
C62	C	1.300395	0.446606	0.001072
C63	C	1.209577	0.401861	0.000965
H64	H	1.347017	0.397423	0.001638
H65	H	1.310525	0.488157	0.065333
H66	H	1.310876	0.487375	-0.063748
H67	H	1.199033	0.361049	0.065742
H68	H	1.199490	0.360362	-0.063338
O69	O	0.910860	0.431532	-0.152606
C70	C	0.780807	0.419311	-0.239207
C71	C	0.827075	0.392213	-0.152357
H72	H	0.713054	0.387548	-0.239024
H73	H	0.814582	0.399729	-0.304038
H74	H	0.780521	0.490777	-0.238825
H75	H	0.827374	0.320752	-0.152649
H76	H	0.793284	0.411857	-0.087565
H77	H	0.962240	0.025051	0.441965
H78	H	0.917527	0.427771	0.140401
O79	O	1.073390	0.338314	0.152950
C80	C	1.120679	0.222961	0.239037
C81	C	1.074535	0.250024	0.152083
H82	H	1.121636	0.151580	0.238356
H83	H	1.086418	0.241964	0.303789
H84	H	1.188204	0.255323	0.239307
H85	H	1.007009	0.217675	0.151723
H86	H	1.108861	0.231036	0.087371
O87	O	0.538918	-0.196157	-0.152790
C88	C	0.654268	-0.243450	-0.238878
C89	C	0.627208	-0.197303	-0.151926
H90	H	0.725650	-0.244407	-0.238198
H91	H	0.635264	-0.209191	-0.303631
H92	H	0.621906	-0.310975	-0.239145
H93	H	0.659557	-0.129777	-0.151569
H94	H	0.646197	-0.231627	-0.087212
O95	O	1.024735	-0.267569	0.563388
C96	C	0.980269	-0.417053	0.568622
C97	C	0.961759	-0.330324	0.531916
H98	H	0.929374	-0.467816	0.543176
H99	H	0.980687	-0.416169	0.647667
H100	H	1.044494	-0.431384	0.542144
H101	H	0.897532	-0.315938	0.558326
H102	H	0.961396	-0.331252	0.452873
O103	O	0.839730	-0.082394	0.563296
C104	C	0.690246	-0.126849	0.568591
C105	C	0.776974	-0.145426	0.531947
H106	H	0.639486	-0.177807	0.543276
H107	H	0.675845	-0.062663	0.542058
H108	H	0.691212	-0.126350	0.647633
H109	H	0.776072	-0.145969	0.452909
H110	H	0.791340	-0.209598	0.558551
H111	H	1.102474	-0.004956	0.557872
O112	O	0.570282	0.044551	-0.000164
C113	C	0.592315	0.177700	-0.080588
C114	C	0.547301	0.086990	-0.080426
H115	H	0.573737	0.212044	-0.145463
H116	H	0.663563	0.175730	-0.079988
H117	H	0.572922	0.212501	-0.016386
H118	H	0.566624	0.052137	-0.144617
H119	H	0.476061	0.089021	-0.080978
O120	O	0.445524	-0.033833	-0.152722
C121	C	0.362402	-0.043234	-0.292649
C122	C	0.389562	-0.089421	-0.205767
H123	H	0.317138	-0.088152	-0.335551
H124	H	0.420428	-0.020769	-0.335981
H125	H	0.329486	0.013440	-0.270696
H126	H	0.422460	-0.146127	-0.227637
H127	H	0.331505	-0.111824	-0.162457
O128	O	0.414410	-0.274665	-0.000192
C129	C	0.392740	-0.407864	-0.080533
C130	C	0.437544	-0.317069	-0.080410
H131	H	0.411441	-0.442180	-0.145373
H132	H	0.321467	-0.406069	-0.079977
H133	H	0.412189	-0.442580	-0.016295
H134	H	0.418164	-0.282300	-0.144638
H135	H	0.508808	-0.318925	-0.080918
O136	O	1.073374	0.338317	-0.152713
C137	C	1.076754	0.333998	-0.319680
C138	C	1.030608	0.361198	-0.232789
H139	H	1.042206	0.352502	-0.384443
H140	H	1.078134	0.262673	-0.318634
H141	H	1.144130	0.366736	-0.320283
H142	H	0.963212	0.328520	-0.232129
H143	H	1.029296	0.432531	-0.233868
H144	H	1.132368	-0.145205	0.442119
H145	H	0.535052	-0.189660	0.140373
