data_functionalizedCrystal
_audit_creation_method	'MofGen! by Chris Wilmer'
_symmetry_space_group_name_H-M	'P1'
_symmetry_Int_Tables_number	1
_symmetry_cell_setting	triclinic
loop_
_symmetry_equiv_pos_as_xyz
  x,y,z
_cell_length_a	18.101398
_cell_length_b	16.625546
_cell_length_c	16.625539
_cell_angle_alpha	90.028532
_cell_angle_beta	89.977600
_cell_angle_gamma	89.982266
loop_
_atom_site_label
_atom_site_type_symbol
_atom_site_fract_x
_atom_site_fract_y
_atom_site_fract_z
Zn1	Zn	1.132151	0.321117	-0.456013
Zn2	Zn	1.632151	0.821117	0.043987
Zn3	Zn	1.132070	0.455956	-0.321175
Zn4	Zn	1.632070	0.955956	0.178825
Zn5	Zn	1.008314	0.321129	-0.321180
Zn6	Zn	1.508314	0.821129	0.178820
Zn7	Zn	1.008280	0.455900	-0.455952
Zn8	Zn	1.508280	0.955900	0.044048
O9	O	1.070204	0.388525	-0.388580
O10	O	1.570204	0.888525	0.111420
O11	O	1.235773	0.339021	-0.438149
O12	O	1.735773	0.839021	0.061851
O13	O	1.115634	0.438099	-0.208343
O14	O	1.615634	0.938099	0.291657
O15	O	1.024790	0.208295	-0.339094
O16	O	1.524790	0.708295	0.160906
O17	O	1.235714	0.438087	-0.339084
O18	O	1.735714	0.938087	0.160916
O19	O	1.115773	0.208286	-0.438154
O20	O	1.615773	0.708286	0.061846
O21	O	1.024711	0.339043	-0.208347
O22	O	1.524711	0.839043	0.291653
O23	O	0.904677	0.338989	-0.339035
O24	O	1.404677	0.838989	0.160965
O25	O	1.024731	0.437992	-0.568793
O26	O	1.524731	0.937992	-0.068793
O27	O	0.904651	0.438004	-0.438051
O28	O	1.404651	0.938004	0.061949
O29	O	1.115739	0.338968	-0.568837
O30	O	1.615739	0.838968	-0.068837
O31	O	1.115600	0.568781	-0.339026
O32	O	1.615600	1.068781	0.160974
O33	O	1.024652	0.568740	-0.438046
O34	O	1.524652	1.068740	0.061954
C35	C	1.070134	0.598016	-0.388546
C36	C	1.570134	1.098016	0.111454
C37	C	1.070172	0.687637	-0.388559
C38	C	1.570172	1.187637	0.111441
C39	C	0.877793	0.388493	-0.388538
C40	C	1.377793	0.888493	0.111462
C41	C	0.795479	0.388498	-0.388539
C42	C	1.295479	0.888498	0.111461
C43	C	1.070240	0.388472	-0.598889
C44	C	1.570240	0.888472	-0.098889
C45	C	1.070256	0.388450	-0.688510
C46	C	1.570256	0.888450	-0.188510
C47	C	0.496388	0.388548	-0.388607
C48	C	0.996388	0.888548	0.111393
C49	C	0.527705	0.325939	-0.326612
C50	C	1.027705	0.825939	0.173388
C51	C	0.613323	0.326107	-0.326348
C52	C	1.113323	0.826107	0.173652
C53	C	0.644771	0.388523	-0.388573
C54	C	1.144771	0.888523	0.111427
C55	C	0.613665	0.473459	-0.365354
C56	C	1.113665	0.973459	0.134646
C57	C	0.528020	0.473111	-0.364923
C58	C	1.028020	0.973111	0.135077
C59	C	0.527997	0.366960	-0.473966
C60	C	1.027997	0.866960	0.026034
C61	C	0.613648	0.365068	-0.473500
C62	C	1.113648	0.865068	0.026500
C63	C	0.728630	0.388514	-0.388556
C64	C	1.228630	0.888514	0.111444
C65	C	0.412529	0.388563	-0.388622
C66	C	0.912529	0.888563	0.111378
C67	C	1.263366	0.388559	-0.388623
C68	C	1.763366	0.888559	0.111377
C69	C	1.345680	0.388573	-0.388641
C70	C	1.845680	0.888573	0.111359
C71	C	1.070294	0.178217	-0.388632
C72	C	1.570294	0.678217	0.111368
C73	C	1.070333	0.088595	-0.388654
C74	C	1.570333	0.588595	0.111346
C75	C	1.070301	1.015813	-0.388643
C76	C	1.570301	1.515813	0.111357
C77	C	1.070262	0.924505	-0.388622
C78	C	1.570262	1.424505	0.111378
C79	C	1.070236	0.851728	-0.388600
C80	C	1.570236	1.351728	0.111400
C81	C	1.070198	0.760414	-0.388580
C82	C	1.570198	1.260414	0.111420
C83	C	1.070268	0.388432	-0.761293
C84	C	1.570268	0.888432	-0.261293
C85	C	1.070285	0.388402	-0.852601
C86	C	1.570285	0.888402	-0.352601
C87	C	1.070302	0.388373	-0.925378
C88	C	1.570302	0.888373	-0.425378
C89	C	1.070321	0.388344	-1.016692
C90	C	1.570321	0.888344	-0.516692
C91	C	1.070210	0.388520	-0.179089
C92	C	1.570210	0.888520	0.320911
C93	C	1.070338	0.388316	-0.089469
C94	C	1.570338	0.888316	0.410531
H95	H	0.507125	0.262763	-0.341007
H96	H	1.007125	0.762763	0.158993
N97	N	0.502578	0.424158	-0.531914
N98	N	1.002578	0.924158	-0.031914
N99	N	0.464984	0.401317	-0.590688
N100	N	0.964984	0.901317	-0.090688
H101	H	0.447027	0.441717	-0.631606
H102	H	0.947027	0.941717	-0.131606
N103	N	0.639005	0.344007	-0.247006
N104	N	1.139005	0.844007	0.252994
N105	N	0.678572	0.294526	-0.210308
N106	N	1.178572	0.794526	0.289692
H107	H	0.696710	0.307169	-0.154270
H108	H	1.196710	0.807169	0.345730
N109	N	0.640538	0.496820	-0.287917
N110	N	1.140538	0.996820	0.212083
N111	N	0.682589	0.451061	-0.249696
N112	N	1.182589	0.951061	0.250304
H113	H	0.701568	0.467555	-0.195003
H114	H	1.201568	0.967555	0.304997
H115	H	0.506159	0.340050	-0.263730
H116	H	1.006159	0.840050	0.236270
H117	H	0.508013	0.491420	-0.302521
H118	H	1.008013	0.991420	0.197479
N119	N	0.639700	0.247087	-0.344582
N120	N	1.139700	0.747087	0.155418
N121	N	0.594856	0.191426	-0.357592
N122	N	1.094856	0.691426	0.142408
H123	H	0.613481	0.135612	-0.370459
H124	H	1.113481	0.635612	0.129541
H125	H	0.506416	0.306102	-0.495077
H126	H	1.006416	0.806102	0.004923
N127	N	0.640498	0.418121	-0.534542
N128	N	1.140498	0.918121	-0.034542
N129	N	0.677414	0.390878	-0.591979
N130	N	1.177414	0.890878	-0.091979
H131	H	0.696377	0.428363	-0.635081
H132	H	1.196377	0.928363	-0.135081
N133	N	0.502037	0.533618	-0.419093
N134	N	1.002037	1.033618	0.080907
N135	N	0.547159	0.575971	-0.457093
N136	N	1.047159	1.075971	0.042907
H137	H	0.528812	0.618708	-0.495346
H138	H	1.028812	1.118708	0.004654
N139	N	0.639219	0.533542	-0.420231
N140	N	1.139219	1.033542	0.079769
N141	N	0.680742	0.514387	-0.477200
N142	N	1.180742	1.014387	0.022800
H143	H	0.698791	0.556819	-0.515959
H144	H	1.198791	1.056819	-0.015959
N145	N	0.639156	0.286655	-0.495455
N146	N	1.139156	0.786655	0.004545
N147	N	0.680107	0.248144	-0.448773
N148	N	1.180107	0.748144	0.051227
H149	H	0.698127	0.192764	-0.464276
H150	H	1.198127	0.692764	0.035724
