data_functionalizedCrystal
_audit_creation_method	'MofGen! by Chris Wilmer'
_symmetry_space_group_name_H-M	'P1'
_symmetry_Int_Tables_number	1
_symmetry_cell_setting	triclinic
loop_
_symmetry_equiv_pos_as_xyz
  x,y,z
_cell_length_a	16.120530
_cell_length_b	12.594516
_cell_length_c	16.120256
_cell_angle_alpha	92.878055
_cell_angle_beta	90.128265
_cell_angle_gamma	87.107535
loop_
_atom_site_label
_atom_site_type_symbol
_atom_site_fract_x
_atom_site_fract_y
_atom_site_fract_z
Zn1	Zn	1.247525	-0.539271	-0.534594
Zn2	Zn	1.254502	-0.708709	-0.395545
Zn3	Zn	1.115512	-0.521279	-0.388511
Zn4	Zn	1.108458	-0.707734	-0.527514
O5	O	1.181499	-0.619249	-0.461541
O6	O	1.364818	-0.569685	-0.522056
O7	O	1.241937	-0.676725	-0.278245
O8	O	1.133056	-0.374724	-0.407908
O9	O	1.369944	-0.694171	-0.419896
O10	O	1.230045	-0.387942	-0.515235
O11	O	1.139822	-0.539021	-0.273077
O12	O	0.998209	-0.538075	-0.401043
O13	O	1.121034	-0.692509	-0.644820
O14	O	0.993027	-0.675063	-0.503169
O15	O	1.223205	-0.568740	-0.650021
O16	O	1.235097	-0.857522	-0.413031
O17	O	1.127799	-0.856806	-0.509989
C18	C	0.965445	-0.604512	-0.450575
C19	C	0.873015	-0.598234	-0.445903
C20	C	1.181462	-0.895786	-0.461525
C21	C	1.181520	-1.014097	-0.461549
C22	C	0.703784	-0.586748	-0.437381
C23	C	0.660053	-0.651831	-0.485761
C24	C	0.565886	-0.645440	-0.481020
C25	C	0.797958	-0.593137	-0.442122
C26	C	1.239941	-1.083709	-0.408876
C27	C	1.256413	-1.160466	-0.485804
C28	C	1.165150	-1.148149	-0.384675
C29	C	1.198029	-1.089301	-0.538519
C30	C	1.106733	-1.076972	-0.437337
C31	C	1.123174	-1.153698	-0.514315
C32	C	1.398397	-0.634044	-0.472550
C33	C	1.490826	-0.640349	-0.477242
C34	C	1.170554	-0.632523	-0.678437
C35	C	1.165890	-0.638179	-0.770865
C36	C	1.181559	-0.341634	-0.461577
C37	C	1.181585	-0.223331	-0.461592
C38	C	1.205821	-0.589723	-0.983846
C39	C	1.157347	-0.648461	-0.940085
C40	C	1.162102	-0.642738	-0.845922
C41	C	1.201067	-0.595444	-1.078018
C42	C	1.192450	-0.605953	-0.245491
C43	C	1.197275	-0.600007	-0.153072
H44	H	0.693334	-0.712349	-0.530743
C45	C	0.658833	-0.504995	-0.376614
C46	C	0.675418	-0.508496	-0.282653
C47	C	0.630457	-0.426745	-0.221886
C48	C	0.568910	-0.341493	-0.255080
C49	C	0.552322	-0.337988	-0.349046
C50	C	0.597283	-0.419740	-0.409813
H51	H	0.720982	-0.571608	-0.258077
H52	H	0.642737	-0.429340	-0.152326
H53	H	0.535627	-0.280976	-0.210097
H54	H	0.506758	-0.274877	-0.373623
H55	H	0.585002	-0.417145	-0.479373
C56	C	1.266713	-0.515993	-0.938928
C57	C	1.259380	-0.395235	-0.950410
C58	C	1.320274	-0.321511	-0.905480
C59	C	1.388500	-0.368546	-0.849069
C60	C	1.395836	-0.489311	-0.837585
C61	C	1.334942	-0.563035	-0.882515
H62	H	1.208872	-0.360411	-0.992171
H63	H	1.314843	-0.232112	-0.913982
H64	H	1.433577	-0.313972	-0.815809
H65	H	1.446344	-0.524135	-0.795823
H66	H	1.340373	-0.652433	-0.874013
C67	C	1.306685	-1.042174	-0.348759
C68	C	1.377071	-0.977289	-0.381391
C69	C	1.443816	-0.935753	-0.321279
C70	C	1.440175	-0.959102	-0.228535
C71	C	1.369786	-1.023990	-0.195898
C72	C	1.303041	-1.065526	-0.256010
H73	H	1.379769	-0.960003	-0.450049
H74	H	1.495923	-0.887719	-0.345439
H75	H	1.489584	-0.928354	-0.184037
H76	H	1.367089	-1.041277	-0.127240
H77	H	1.250935	-1.113561	-0.231850
C78	C	1.341887	-1.209734	-0.513507
C79	C	1.420139	-1.183610	-0.463057
C80	C	1.505616	-1.232870	-0.490755
C81	C	1.512840	-1.308254	-0.568904
C82	C	1.434585	-1.334382	-0.619359
C83	C	1.349108	-1.285122	-0.591660
H84	H	1.414794	-1.127802	-0.405203
H85	H	1.563545	-1.213528	-0.453405
H86	H	1.576114	-1.344719	-0.589408
H87	H	1.439930	-1.390189	-0.677213
H88	H	1.291179	-1.304464	-0.629011
C89	C	1.216877	-1.054306	-0.626400
C90	C	1.220361	-0.935153	-0.642609
C91	C	1.239212	-0.900156	-0.730487
C92	C	1.254578	-0.984312	-0.802157
C93	C	1.251094	-1.103473	-0.785951
C94	C	1.232244	-1.138469	-0.698073
H95	H	1.208985	-0.872849	-0.589552
H96	H	1.241791	-0.811945	-0.742484
H97	H	1.268533	-0.958405	-0.867210
H98	H	1.262470	-1.165777	-0.839008
H99	H	1.229665	-1.226680	-0.686076
C100	C	1.056465	-1.194979	-0.574583
C101	C	1.061083	-1.173009	-0.667532
C102	C	0.994379	-1.214294	-0.727802
C103	C	0.923057	-1.277548	-0.695123
C104	C	0.918436	-1.299522	-0.602170
C105	C	0.985140	-1.258237	-0.541900
H106	H	1.113882	-1.126182	-0.691727
H107	H	0.997800	-1.198027	-0.796612
H108	H	0.873678	-1.308110	-0.739738
H109	H	0.865637	-1.346349	-0.577975
H110	H	0.981719	-1.274504	-0.473089
H111	H	1.151277	-1.174199	-0.319646
C112	C	1.021283	-1.027666	-0.409613
C113	C	0.987483	-1.047830	-0.322833
C114	C	0.902032	-0.998523	-0.295099
C115	C	0.850382	-0.929051	-0.354145
C116	C	0.884181	-0.908884	-0.440930
C117	C	0.969631	-0.958192	-0.468664
H118	H	1.025719	-1.099260	-0.279119
H119	H	0.877013	-1.013452	-0.230854
H120	H	0.787126	-0.892551	-0.333614
H121	H	0.845945	-0.857454	-0.484644
H122	H	0.994651	-0.943262	-0.532909
C123	C	1.096462	-0.722212	-0.985002
C124	C	1.091735	-0.727912	-1.080532
C125	C	1.030856	-0.801664	-1.125453
C126	C	0.974704	-0.869716	-1.074845
C127	C	0.979429	-0.864019	-0.979309
C128	C	1.040308	-0.790267	-0.934388
H129	H	1.133304	-0.677533	-1.118001
H130	H	1.027359	-0.805881	-1.196175
H131	H	0.929638	-0.924312	-1.108098
H132	H	0.937860	-0.914398	-0.941840
H133	H	1.043805	-0.786050	-0.863666
