data_functionalizedCrystal
_audit_creation_method	'MofGen! by Chris Wilmer'
_symmetry_space_group_name_H-M	'P1'
_symmetry_Int_Tables_number	1
_symmetry_cell_setting	triclinic
loop_
_symmetry_equiv_pos_as_xyz
  x,y,z
_cell_length_a	13.032831
_cell_length_b	19.805405
_cell_length_c	19.805399
_cell_angle_alpha	90.030709
_cell_angle_beta	82.812902
_cell_angle_gamma	97.169491
loop_
_atom_site_label
_atom_site_type_symbol
_atom_site_fract_x
_atom_site_fract_y
_atom_site_fract_z
Zn1	Zn	1.597543	0.401078	-0.513858
Zn2	Zn	2.097543	0.901078	-0.013858
Zn3	Zn	1.597419	0.514259	-0.400656
Zn4	Zn	2.097419	1.014259	0.099344
Zn5	Zn	1.422799	0.386704	-0.386338
Zn6	Zn	1.922799	0.886704	0.113662
Zn7	Zn	1.422735	0.499829	-0.499463
Zn8	Zn	1.922735	0.999829	0.000537
O9	O	1.510124	0.450467	-0.450079
O10	O	2.010124	0.950467	0.049921
O11	O	1.743763	0.428146	-0.510859
O12	O	2.243763	0.928146	-0.010859
O13	O	1.574231	0.497361	-0.304038
O14	O	2.074231	0.997361	0.195962
O15	O	1.446058	0.293900	-0.403286
O16	O	1.946058	0.793900	0.096714
O17	O	1.743672	0.511300	-0.427690
O18	O	2.243672	1.011300	0.072310
O19	O	1.574441	0.304461	-0.496974
O20	O	2.074441	0.804461	0.003026
O21	O	1.445939	0.403647	-0.293518
O22	O	1.945939	0.903647	0.206482
O23	O	1.276554	0.389655	-0.389327
O24	O	1.776554	0.889655	0.110673
O25	O	1.445948	0.486706	-0.596091
O26	O	1.945948	0.986706	-0.096091
O27	O	1.276507	0.472768	-0.472440
O28	O	1.776507	0.972768	0.027560
O29	O	1.574379	0.414154	-0.606667
O30	O	2.074379	0.914154	-0.106667
O31	O	1.574168	0.607055	-0.413731
O32	O	2.074168	1.107055	0.086269
O33	O	1.445829	0.596453	-0.486324
O34	O	1.945829	1.096453	0.013676
C35	C	1.238613	0.428087	-0.427768
C36	C	1.738613	0.928087	0.072232
C37	C	1.122459	0.418529	-0.418239
C38	C	1.622459	0.918529	0.081761
C39	C	1.510006	0.626314	-0.450036
C40	C	2.010006	1.126314	0.049964
C41	C	1.510052	0.701549	-0.450049
C42	C	2.010052	1.201549	0.049951
C43	C	1.510170	0.450424	-0.626625
C44	C	2.010170	0.950424	-0.126625
C45	C	1.510189	0.450406	-0.701859
C46	C	2.010189	0.950406	-0.201859
C47	C	1.070678	0.455456	-0.455052
C48	C	1.570678	0.955456	0.044948
C49	C	0.950627	0.445578	-0.445204
C50	C	1.450627	0.945578	0.054796
C51	C	1.782695	0.472936	-0.472477
C52	C	2.282695	0.972936	0.027523
C53	C	1.898849	0.482510	-0.482022
C54	C	2.398849	0.982510	0.017978
C55	C	1.510271	0.273937	-0.450139
C56	C	2.010271	0.773937	0.049861
C57	C	1.510333	0.198710	-0.450164
C58	C	2.010333	0.698710	0.049836
C59	C	1.576943	0.742397	-0.412300
C60	C	2.076943	1.242397	0.087700
C61	C	1.576988	0.813089	-0.412319
C62	C	2.076988	1.313089	0.087681
C63	C	1.510134	0.842932	-0.450083
C64	C	2.010134	1.342932	0.049917
C65	C	1.443240	0.802079	-0.487835
C66	C	1.943240	1.302079	0.012165
C67	C	1.443202	0.731389	-0.487820
C68	C	1.943202	1.231389	0.012180
C69	C	1.443394	1.087165	-0.487898
C70	C	1.943394	1.587165	0.012102
C71	C	1.443435	1.157861	-0.487909
C72	C	1.943435	1.657861	0.012091
C73	C	1.577180	1.168865	-0.412397
C74	C	2.077180	1.668865	0.087603
C75	C	1.577142	1.098175	-0.412382
C76	C	2.077142	1.598175	0.087618
C77	C	1.510252	1.057329	-0.450137
C78	C	2.010252	1.557329	0.049863
C79	C	1.510206	0.980677	-0.450118
C80	C	2.010206	1.480677	0.049882
C81	C	1.510174	0.919582	-0.450099
C82	C	2.010174	1.419582	0.049901
C83	C	1.443407	0.401606	-0.731726
C84	C	1.943407	0.901606	-0.231726
C85	C	1.443421	0.401594	-0.802416
C86	C	1.943421	0.901594	-0.302416
C87	C	1.510224	0.450379	-0.843238
C88	C	2.010224	0.950379	-0.343238
C89	C	1.577010	0.499184	-0.813365
C90	C	2.077010	0.999184	-0.313365
C91	C	1.576990	0.499198	-0.742677
C92	C	2.076990	0.999198	-0.242677
C93	C	1.577093	0.499127	-1.098446
C94	C	2.077093	0.999127	-0.598446
C95	C	1.577110	0.499108	-1.169139
C96	C	2.077110	0.999108	-0.669139
C97	C	1.443524	0.401523	-1.158185
C98	C	1.943524	0.901523	-0.658185
C99	C	1.443504	0.401538	-1.087496
C100	C	1.943504	0.901538	-0.587496
C101	C	1.510285	0.450344	-1.057630
C102	C	2.010285	0.950344	-0.557630
C103	C	1.510267	0.450357	-0.980980
C104	C	2.010267	0.950357	-0.480980
C105	C	1.510248	0.450364	-0.919887
C106	C	2.010248	0.950364	-0.419887
C107	C	1.510139	0.450466	-0.274224
C108	C	2.010139	0.950466	0.225776
C109	C	1.510322	0.450311	-0.199007
C110	C	2.010322	0.950311	0.300993
H111	H	1.115224	0.494381	-0.493861
H112	H	1.615224	0.994381	0.006139
H113	H	1.388928	1.053914	-0.518639
H114	H	1.888928	1.553914	-0.018639
H115	H	0.943389	0.521437	-0.520836
H116	H	1.443389	1.021437	-0.020836
Cl117	Cl	1.359387	1.195377	-0.535388
Cl118	Cl	1.859387	1.695377	-0.035388
H119	H	1.388812	0.826384	-0.518586
H120	H	1.888812	1.326384	-0.018586
H121	H	1.631576	1.073879	-0.381629
H122	H	2.131576	1.573879	0.118371
Cl123	Cl	1.053693	0.358421	-0.358326
Cl124	Cl	1.553693	0.858421	0.141674
Cl125	Cl	1.359425	0.340270	-0.680415
Cl126	Cl	1.859425	0.840270	-0.180415
H127	H	0.906086	0.406645	-0.406397
H128	H	1.406086	0.906645	0.093603
Cl129	Cl	1.661055	0.560480	-1.060909
Cl130	Cl	2.161055	1.060480	-0.560909
Cl131	Cl	1.660986	0.704886	-0.364818
Cl132	Cl	2.160986	1.204886	0.135182
Cl133	Cl	1.661087	0.864437	-0.364864
Cl134	Cl	2.161087	1.364437	0.135136
Cl135	Cl	1.661278	1.220219	-0.364936
Cl136	Cl	2.161278	1.720219	0.135064
H137	H	1.388733	0.698132	-0.518560
H138	H	1.888733	1.198132	-0.018560
Cl139	Cl	1.660986	0.560518	-0.864683
Cl140	Cl	2.160986	1.060518	-0.364683
H141	H	1.389036	0.361859	-0.826730
H142	H	1.889036	0.861859	-0.326730
Cl143	Cl	1.359523	0.340204	-1.036182
Cl144	Cl	1.859523	0.840204	-0.536182
H145	H	1.389144	0.361785	-1.182510
H146	H	1.889144	0.861785	-0.682510
Cl147	Cl	1.661097	0.560444	-1.220457
Cl148	Cl	2.161097	1.060444	-0.720457
Cl149	Cl	1.660944	0.560552	-0.705129
Cl150	Cl	2.160944	1.060552	-0.205129
