data_functionalizedCrystal
_audit_creation_method	'MofGen! by Chris Wilmer'
_symmetry_space_group_name_H-M	'P1'
_symmetry_Int_Tables_number	1
_symmetry_cell_setting	triclinic
loop_
_symmetry_equiv_pos_as_xyz
  x,y,z
_cell_length_a	12.645330
_cell_length_b	19.077105
_cell_length_c	19.077271
_cell_angle_alpha	89.912562
_cell_angle_beta	87.708706
_cell_angle_gamma	87.714233
loop_
_atom_site_label
_atom_site_type_symbol
_atom_site_fract_x
_atom_site_fract_y
_atom_site_fract_z
Zn1	Zn	-0.513030	1.058228	0.440441
Zn2	Zn	-0.179697	1.391561	0.773774
Zn3	Zn	0.153637	1.724894	1.107108
Zn4	Zn	-0.683435	1.062902	0.322944
Zn5	Zn	-0.350102	1.396236	0.656277
Zn6	Zn	-0.016769	1.729569	0.989610
Zn7	Zn	-0.498782	0.945467	0.318234
Zn8	Zn	-0.165448	1.278800	0.651568
Zn9	Zn	0.167885	1.612134	0.984901
Zn10	Zn	-0.682840	0.940703	0.435695
Zn11	Zn	-0.349506	1.274037	0.769029
Zn12	Zn	-0.016173	1.607370	1.102362
O13	O	-0.594522	1.001825	0.379329
O14	O	-0.261188	1.335158	0.712662
O15	O	0.072145	1.668492	1.045995
O16	O	-0.541847	1.157179	0.428811
O17	O	-0.208514	1.490513	0.762145
O18	O	0.124820	1.823846	1.095478
O19	O	-0.653227	1.051275	0.223988
O20	O	-0.319894	1.384608	0.557322
O21	O	0.013440	1.717941	0.890655
O22	O	-0.352328	0.960462	0.334460
O23	O	-0.018994	1.293796	0.667794
O24	O	0.314339	1.627129	1.001127
O25	O	-0.667043	1.160614	0.342487
O26	O	-0.333710	1.493947	0.675820
O27	O	-0.000376	1.827281	1.009154
O28	O	-0.362796	1.043307	0.424245
O29	O	-0.029463	1.376640	0.757578
O30	O	0.303871	1.709974	1.090912
O31	O	-0.517563	0.964995	0.220528
O32	O	-0.184229	1.298329	0.553862
O33	O	0.149104	1.631662	0.887195
O34	O	-0.516985	0.846504	0.329859
O35	O	-0.183652	1.179837	0.663192
O36	O	0.149682	1.513170	0.996526
O37	O	-0.666028	0.952343	0.534656
O38	O	-0.332694	1.285676	0.867989
O39	O	0.000639	1.619010	1.201322
O40	O	-0.652211	0.843004	0.416157
O41	O	-0.318878	1.176337	0.749491
O42	O	0.014455	1.509670	1.082824
O43	O	-0.541269	1.038688	0.538142
O44	O	-0.207936	1.372021	0.871475
O45	O	0.125397	1.705354	1.204809
O46	O	-0.831700	1.046655	0.337885
O47	O	-0.498367	1.379988	0.671219
O48	O	-0.165034	1.713322	1.004552
O49	O	-0.831263	0.956876	0.420724
O50	O	-0.497929	1.290209	0.754057
O51	O	-0.164596	1.623543	1.087390
C52	C	-0.582988	0.819257	0.371983
C53	C	-0.249655	1.152591	0.705316
C54	C	0.083678	1.485924	1.038649
C55	C	-0.578081	0.741153	0.368857
C56	C	-0.244747	1.074487	0.702190
C57	C	0.088586	1.407820	1.035523
C58	C	-0.646278	0.702659	0.412248
C59	C	-0.312945	1.035992	0.745581
C60	C	0.020388	1.369326	1.078915
C61	C	-0.641653	0.629272	0.409314
C62	C	-0.308320	0.962605	0.742648
C63	C	0.025013	1.295939	1.075981
C64	C	-0.568835	0.594381	0.362985
C65	C	-0.235502	0.927714	0.696318
C66	C	0.097831	1.261047	1.029652
C67	C	-0.500630	0.632880	0.319592
C68	C	-0.167297	0.966214	0.652925
C69	C	0.166036	1.299547	0.986258
C70	C	-0.505251	0.706266	0.322529
C71	C	-0.171917	1.039599	0.655863
C72	C	0.161416	1.372933	0.989196
C73	C	-0.547451	0.375094	0.349391
C74	C	-0.214118	0.708428	0.682725
C75	C	0.119216	1.041761	1.016058
C76	C	-0.542838	0.301703	0.346455
C77	C	-0.209504	0.635037	0.679788
C78	C	0.123829	0.968370	1.013122
C79	C	-0.683860	0.298100	0.436179
C80	C	-0.350527	0.631433	0.769513
C81	C	-0.017193	0.964767	1.102846
C82	C	-0.688479	0.371487	0.439110
C83	C	-0.355145	0.704821	0.772443
C84	C	-0.021812	1.038154	1.105777
C85	C	-0.620270	0.409980	0.395719
C86	C	-0.286937	0.743314	0.729053
C87	C	0.046397	1.076647	1.062386
N88	N	-0.564108	0.519367	0.359983
N89	N	-0.230775	0.852701	0.693317
N90	N	0.102558	1.186034	1.026650
N91	N	-0.624992	0.484992	0.398725
N92	N	-0.291659	0.818326	0.732058
N93	N	0.041674	1.151659	1.065392
C94	C	-0.869948	1.001774	0.379317
C95	C	-0.536614	1.335108	0.712650
C96	C	-0.203281	1.668441	1.045983
C97	C	-0.987781	1.001816	0.379338
C98	C	-0.654448	1.335149	0.712671
C99	C	-0.321115	1.668482	1.046004
C100	C	-1.155138	0.945553	0.431628
C101	C	-0.821805	1.278886	0.764961
C102	C	-0.488471	1.612219	1.098294
C103	C	-1.032551	0.945283	0.431441
C104	C	-0.699218	1.278617	0.764775
C105	C	-0.365884	1.611950	1.098108
C106	C	-1.026777	0.984764	0.304480
C107	C	-0.693443	1.318097	0.637813
C108	C	-0.360110	1.651430	0.971147
C109	C	-1.149374	0.984420	0.304797
C110	C	-0.816040	1.317753	0.638131
C111	C	-0.482707	1.651087	0.971464
C112	C	-1.160676	1.075486	0.401318
C113	C	-0.827343	1.408820	0.734651
C114	C	-0.494010	1.742153	1.067985
C115	C	-1.038135	1.074965	0.402919
C116	C	-0.704802	1.408298	0.736252
C117	C	-0.371469	1.741631	1.069586
C118	C	-0.318022	1.001895	0.379357
C119	C	0.015311	1.335228	0.712690
C120	C	0.348644	1.668561	1.046023
C121	C	-0.200195	1.001924	0.379369
C122	C	0.133139	1.335258	0.712702
C123	C	0.466472	1.668591	1.046035
C124	C	-0.605171	0.994462	0.562608
C125	C	-0.271838	1.327796	0.895941
C126	C	0.061495	1.661129	1.229275
C127	C	-0.609710	0.991325	0.640711
C128	C	-0.276376	1.324658	0.974044
C129	C	0.056957	1.657992	1.307377
C130	C	-0.606101	1.185106	0.386704
C131	C	-0.272768	1.518439	0.720037
C132	C	0.060566	1.851772	1.053370
C133	C	-0.611035	1.263209	0.389847
C134	C	-0.277702	1.596542	0.723180
C135	C	0.055631	1.929876	1.056513
C136	C	-0.546890	1.034804	0.679220
C137	C	-0.213556	1.368137	1.012553
C138	C	0.119777	1.701470	1.345886
C139	C	-0.551149	1.031847	0.752605
C140	C	-0.217816	1.365180	1.085938
C141	C	0.115517	1.698514	1.419272
C142	C	-0.618235	0.985415	0.787480
C143	C	-0.284902	1.318748	1.120814
C144	C	0.048432	1.652082	1.454147
C145	C	-0.681057	0.941931	0.748966
C146	C	-0.347724	1.275265	1.082299
C147	C	-0.014391	1.608598	1.415633
C148	C	-0.676791	0.944885	0.675582
C149	C	-0.343458	1.278218	1.008915
C150	C	-0.010125	1.611552	1.342248
C151	C	-0.637953	0.971758	1.006761
C152	C	-0.304620	1.305091	1.340094
C153	C	0.028714	1.638424	1.673427
C154	C	-0.642216	0.968809	1.080150
C155	C	-0.308883	1.302142	1.413483
C156	C	0.024450	1.635476	1.746817
C157	C	-0.512306	1.058724	1.083784
C158	C	-0.178973	1.392058	1.417118
C159	C	0.154360	1.725391	1.750451
C160	C	-0.508051	1.061677	1.010399
C161	C	-0.174718	1.395010	1.343732
C162	C	0.158616	1.728343	1.677065
C163	C	-0.570869	1.018190	0.971891
C164	C	-0.237536	1.351524	1.305224
C165	C	0.095797	1.684857	1.638557
N166	N	-0.622593	0.982393	0.862492
N167	N	-0.289260	1.315727	1.195825
N168	N	0.044074	1.649060	1.529159
N169	N	-0.566505	1.021209	0.896880
N170	N	-0.233172	1.354542	1.230213
N171	N	0.100162	1.687876	1.563547
C172	C	-0.583936	1.009153	1.196762
C173	C	-0.250603	1.342486	1.530095
C174	C	0.082730	1.675820	1.863429
C175	C	-0.579396	1.012288	1.118659
C176	C	-0.246063	1.345621	1.451993
C177	C	0.087270	1.678954	1.785326
H178	H	-0.697188	0.597933	0.444648
H179	H	-0.363855	0.931266	0.777981
H180	H	-0.030522	1.264599	1.111314
F181	F	-0.743650	0.898607	0.634598
F182	F	-0.410317	1.231940	0.967931
F183	F	-0.076984	1.565274	1.301264
H184	H	-0.999106	0.890688	0.416665
H185	H	-0.665773	1.224021	0.749998
H186	H	-0.332439	1.557354	1.083331
F187	F	-1.198876	1.130336	0.351624
F188	F	-0.865542	1.463669	0.684958
F189	F	-0.532209	1.797002	1.018291
F190	F	-0.981089	0.915347	0.280278
F191	F	-0.647755	1.248681	0.613612
F192	F	-0.314422	1.582014	0.946945
F193	F	-1.181171	0.914250	0.280947
F194	F	-0.847838	1.247584	0.614280
F195	F	-0.514504	1.580917	0.947613
H196	H	-0.747777	0.399891	0.476835
H197	H	-0.414444	0.733224	0.810168
H198	H	-0.081111	1.066557	1.143501
F199	F	-0.998369	0.958773	0.503871
F200	F	-0.665036	1.292106	0.837204
F201	F	-0.331702	1.625440	1.170537
F202	F	-0.423125	0.595744	0.270288
F203	F	-0.089791	0.929078	0.603622
F204	F	0.243542	1.262411	0.936955
H205	H	-1.188558	0.955752	0.487216
H206	H	-0.855225	1.289086	0.820550
H207	H	-0.521892	1.622419	1.153883
F208	F	-0.723787	0.739786	0.461555
F209	F	-0.390454	1.073120	0.794889
F210	F	-0.057121	1.406453	1.128222
F211	F	-0.713617	0.919384	1.117265
F212	F	-0.380284	1.252717	1.450599
F213	F	-0.046950	1.586051	1.783932
F214	F	-0.475493	1.084227	0.642110
F215	F	-0.142159	1.417561	0.975443
F216	F	0.191174	1.750894	1.308776
F217	F	-1.190084	0.874635	0.412553
F218	F	-0.856751	1.207968	0.745887
F219	F	-0.523418	1.541301	1.079220
H220	H	-0.453426	1.099489	0.982008
H221	H	-0.120092	1.432822	1.315342
H222	H	0.213241	1.766155	1.648675
H223	H	-0.689120	0.936358	0.975416
H224	H	-0.355787	1.269692	1.308750
H225	H	-0.022454	1.603025	1.642083
F226	F	-0.756449	0.257128	0.482354
F227	F	-0.423116	0.590461	0.815687
F228	F	-0.089782	0.923795	1.149021
H229	H	-0.461162	1.094127	1.115145
H230	H	-0.127829	1.427461	1.448479
H231	H	0.205505	1.760794	1.781812
H232	H	-1.178956	1.023859	0.264372
H233	H	-0.845622	1.357193	0.597706
H234	H	-0.512289	1.690526	0.931039
F235	F	-0.752451	0.892511	0.786084
F236	F	-0.419118	1.225845	1.119418
F237	F	-0.085784	1.559178	1.452751
H238	H	-0.483528	0.273297	0.308732
H239	H	-0.150195	0.606631	0.642066
H240	H	0.183138	0.939964	0.975399
F241	F	-0.474854	0.416052	0.303212
F242	F	-0.141521	0.749386	0.636546
F243	F	0.191813	1.082719	0.969879
F244	F	-0.988628	1.036900	0.252023
F245	F	-0.655295	1.370234	0.585356
F246	F	-0.321961	1.703567	0.918690
H247	H	-0.449711	0.737607	0.287199
H248	H	-0.116378	1.070941	0.620532
H249	H	0.216955	1.404274	0.953866
H250	H	-1.195781	1.091627	0.455134
H251	H	-0.862447	1.424960	0.788467
H252	H	-0.529114	1.758293	1.121800
F253	F	-1.005451	1.091846	0.474947
F254	F	-0.672118	1.425180	0.808280
F255	F	-0.338784	1.758513	1.141613
F256	F	-0.998756	1.132441	0.357106
F257	F	-0.665423	1.465775	0.690439
F258	F	-0.332090	1.799108	1.023772
H259	H	-0.499997	1.067254	0.783956
H260	H	-0.166664	1.400587	1.117289
H261	H	0.166670	1.733921	1.450623
