data_functionalizedCrystal
_audit_creation_method	'MofGen! by Chris Wilmer'
_symmetry_space_group_name_H-M	'P1'
_symmetry_Int_Tables_number	1
_symmetry_cell_setting	triclinic
loop_
_symmetry_equiv_pos_as_xyz
  x,y,z
_cell_length_a	19.288864
_cell_length_b	9.198806
_cell_length_c	19.288865
_cell_angle_alpha	89.991591
_cell_angle_beta	96.863755
_cell_angle_gamma	90.017783
loop_
_atom_site_label
_atom_site_type_symbol
_atom_site_fract_x
_atom_site_fract_y
_atom_site_fract_z
O1	O	0.921348	0.121375	-0.086646
O2	O	0.719087	0.121278	-0.098335
O3	O	0.826062	0.121301	0.008640
O4	O	0.814373	0.121353	-0.193621
O5	O	0.826054	-0.120484	0.008640
O6	O	0.719079	-0.120507	-0.098335
O7	O	0.921339	-0.120410	-0.086646
Cu8	Cu	0.820208	-0.142535	-0.092490
Cu9	Cu	0.820218	0.143403	-0.092491
O10	O	0.814365	-0.120432	-0.193621
C11	C	0.693207	0.000373	-0.097959
C12	C	0.616103	0.000334	-0.096830
N13	N	0.820206	-0.343649	-0.092490
C14	C	0.571407	0.000373	-0.159598
C15	C	0.498960	0.000389	-0.158537
C16	C	0.471212	0.000395	-0.094705
C17	C	0.515918	0.000348	-0.031929
C18	C	0.588364	0.000317	-0.032991
C19	C	0.362953	0.085139	-0.044526
C20	C	0.290509	0.085178	-0.043466
C21	C	0.247767	0.000482	-0.091425
C22	C	0.277476	-0.084235	-0.140456
C23	C	0.349922	-0.084265	-0.141519
C24	C	0.392658	0.000427	-0.093546
C25	C	0.124514	0.000536	-0.153047
C26	C	0.052066	0.000543	-0.151984
C27	C	0.069026	0.000516	-0.025374
C28	C	0.141473	0.000495	-0.026439
C29	C	0.169212	0.000512	-0.090278
C30	C	0.865124	-0.415837	-0.047378
C31	C	0.865135	-0.583249	-0.047376
C32	C	0.947220	0.000499	-0.087022
C33	C	1.024324	0.000547	-0.088151
C34	C	0.825682	0.000404	0.034516
C35	C	0.824553	0.000390	0.111620
N36	N	0.820226	0.344517	-0.092486
C37	C	0.814745	0.000468	-0.219497
C38	C	0.815874	0.000491	-0.296601
C39	C	0.887321	0.000413	0.156316
C40	C	0.886260	0.000436	0.228763
C41	C	0.822428	0.000406	0.256511
C42	C	0.759652	0.000391	0.211805
C43	C	0.760714	0.000383	0.139359
C44	C	0.772245	-0.084310	0.364798
C45	C	0.771185	-0.084311	0.437243
C46	C	0.819148	0.000437	0.479956
C47	C	0.868182	0.085167	0.450218
C48	C	0.869245	0.085160	0.377773
C49	C	0.821269	0.000416	0.335065
C50	C	0.880770	0.000486	0.603209
C51	C	0.879707	0.000518	0.675657
C52	C	0.753097	0.000459	0.658697
C53	C	0.754162	0.000442	0.586250
C54	C	0.818000	0.000449	0.558511
H55	H	0.593987	0.000390	-0.211580
H56	H	0.903570	-0.353703	-0.008756
H57	H	0.703049	0.000415	0.549857
H58	H	0.462561	0.000417	-0.209652
F59	F	0.769947	-0.424860	-0.142967
F60	F	0.915405	-0.664386	0.003104
H61	H	0.046435	0.000611	0.026600
F62	F	0.189044	0.000461	0.040368
H63	H	0.266324	0.154166	-0.003545
F64	F	0.769961	-0.574355	-0.142974
F65	F	0.955264	0.000452	0.126798
H66	H	0.731256	-0.153295	0.461449
F67	F	0.635935	0.000276	0.033818
H68	H	0.493322	0.000373	0.020044
F69	F	0.953069	0.000463	0.276341
H70	H	0.397749	0.154118	-0.005470
F71	F	0.381539	-0.174428	-0.193697
F72	F	0.685161	0.000434	0.688223
F73	F	0.921426	0.175340	0.346125
F74	F	0.919232	0.175372	0.495672
H75	H	0.733186	-0.153330	0.330026
F76	F	0.948712	0.000487	0.573684
F77	F	0.946517	0.000552	0.723227
H78	H	0.707679	0.000370	0.234401
H79	H	0.709599	0.000364	0.102967
H80	H	0.147101	0.000529	-0.205028
F81	F	0.004496	0.000577	-0.218794
F82	F	0.231993	-0.174381	-0.191503
