data_functionalizedCrystal
_audit_creation_method	'MofGen! by Chris Wilmer'
_symmetry_space_group_name_H-M	'P1'
_symmetry_Int_Tables_number	1
_symmetry_cell_setting	triclinic
loop_
_symmetry_equiv_pos_as_xyz
  x,y,z
_cell_length_a	11.169417
_cell_length_b	12.759400
_cell_length_c	11.169409
_cell_angle_alpha	89.966206
_cell_angle_beta	89.980176
_cell_angle_gamma	90.015563
loop_
_atom_site_label
_atom_site_type_symbol
_atom_site_fract_x
_atom_site_fract_y
_atom_site_fract_z
Zn1	Zn	1.834926	-0.418157	-0.678531
Zn2	Zn	2.334926	0.081843	-0.178531
Zn3	Zn	1.834800	-0.593882	-0.477842
Zn4	Zn	2.334800	-0.093882	0.022158
Zn5	Zn	1.634212	-0.418221	-0.477865
Zn6	Zn	2.134212	0.081779	0.022135
Zn7	Zn	1.634204	-0.593797	-0.678487
Zn8	Zn	2.134204	-0.093797	-0.178487
O9	O	1.734536	-0.506014	-0.578181
O10	O	2.234536	-0.006014	-0.078181
O11	O	2.002859	-0.441476	-0.651918
O12	O	2.502859	0.058524	-0.151918
O13	O	1.808142	-0.570643	-0.309896
O14	O	2.308142	-0.070643	0.190104
O15	O	1.660893	-0.271191	-0.504511
O16	O	2.160893	0.228809	-0.004511
O17	O	2.002767	-0.570581	-0.504473
O18	O	2.502767	-0.070581	-0.004473
O19	O	1.808357	-0.271144	-0.651939
O20	O	2.308357	0.228856	-0.151939
O21	O	1.660771	-0.441585	-0.309912
O22	O	2.160771	0.058415	0.190088
O23	O	1.466261	-0.441502	-0.504469
O24	O	1.966261	0.058498	-0.004469
O25	O	1.660880	-0.570435	-0.846443
O26	O	2.160880	-0.070435	-0.346443
O27	O	1.466256	-0.570497	-0.651866
O28	O	1.966256	-0.070497	-0.151866
O29	O	1.808349	-0.441393	-0.846475
O30	O	2.308349	0.058607	-0.346475
O31	O	1.808135	-0.740892	-0.504431
O32	O	2.308135	-0.240892	-0.004431
O33	O	1.660758	-0.740829	-0.651844
O34	O	2.160758	-0.240829	-0.151844
C35	C	1.422711	-0.505998	-0.578166
C36	C	1.922711	-0.005998	-0.078166
C37	C	1.289311	-0.506017	-0.578188
C38	C	1.789311	-0.006017	-0.078188
C39	C	1.734464	-0.778981	-0.578156
C40	C	2.234464	-0.278981	-0.078156
C41	C	1.734544	-0.895758	-0.578186
C42	C	2.234544	-0.395758	-0.078186
C43	C	1.811368	-0.950618	-0.501513
C44	C	2.311368	-0.450618	-0.001513
C45	C	1.811442	-1.060342	-0.501550
C46	C	2.311442	-0.560342	-0.001550
C47	C	1.657857	-1.060337	-0.654936
C48	C	2.157857	-0.560337	-0.154936
C49	C	1.657790	-0.950615	-0.654904
C50	C	2.157790	-0.450615	-0.154904
C51	C	1.888122	-0.895761	-0.424794
C52	C	2.388122	-0.395761	0.075206
C53	C	1.964952	-0.950621	-0.348114
C54	C	2.464952	-0.450621	0.151886
C55	C	1.965025	-1.060345	-0.348151
C56	C	2.465025	-0.560345	0.151849
C57	C	1.888270	-1.115209	-0.424868
C58	C	2.388270	-0.615209	0.075132
C59	C	2.047578	-0.506031	-0.578198
C60	C	2.547578	-0.006031	-0.078198
C61	C	2.180978	-0.506038	-0.578204
C62	C	2.680978	-0.006038	-0.078204
C63	C	1.734628	-0.505897	-0.891224
C64	C	2.234628	-0.005897	-0.391224
C65	C	1.734667	-0.505848	-1.024624
C66	C	2.234667	-0.005848	-0.524624
C67	C	1.734640	-0.231981	-0.578233
C68	C	2.234640	0.268019	-0.078233
C69	C	1.734684	-0.115204	-0.578255
C70	C	2.234684	0.384796	-0.078255
C71	C	1.734513	-0.506054	-0.266357
C72	C	2.234513	-0.006054	0.233643
C73	C	1.734706	-0.505808	-0.132957
C74	C	2.234706	-0.005808	0.367043
H75	H	1.888067	-0.806419	-0.424752
H76	H	2.388067	-0.306419	0.075248
C77	C	1.573261	-0.890265	-0.739231
C78	C	2.073261	-0.390265	-0.239231
N79	N	1.509588	-0.844810	-0.802744
N80	N	2.009588	-0.344810	-0.302744
H81	H	2.027451	-0.905945	-0.285660
H82	H	2.527451	-0.405945	0.214340
C83	C	1.573420	-1.120691	-0.739308
C84	C	2.073420	-0.620691	-0.239308
N85	N	1.509815	-1.166151	-0.802852
N86	N	2.009815	-0.666151	-0.302852
H87	H	2.027592	-1.105009	-0.285723
H88	H	2.527592	-0.605009	0.214277
H89	H	1.888345	-1.204554	-0.424902
H90	H	2.388345	-0.704554	0.075098
