data_functionalizedCrystal
_audit_creation_method	'MofGen! by Chris Wilmer'
_symmetry_space_group_name_H-M	'P1'
_symmetry_Int_Tables_number	1
_symmetry_cell_setting	triclinic
loop_
_symmetry_equiv_pos_as_xyz
  x,y,z
_cell_length_a	11.792241
_cell_length_b	10.868271
_cell_length_c	11.792241
_cell_angle_alpha	90.001559
_cell_angle_beta	95.806584
_cell_angle_gamma	90.000490
loop_
_atom_site_label
_atom_site_type_symbol
_atom_site_fract_x
_atom_site_fract_y
_atom_site_fract_z
O1	O	-1.506909	0.102185	0.155562
O2	O	-1.173576	0.435518	0.488896
O3	O	-0.840242	0.768852	0.822229
O4	O	-1.176568	0.102218	0.171595
O5	O	-0.843235	0.435551	0.504929
O6	O	-0.509901	0.768884	0.838262
O7	O	-1.349755	0.102192	-0.001592
O8	O	-1.016422	0.435525	0.331742
O9	O	-0.683088	0.768858	0.665075
O10	O	-1.333722	0.102211	0.328749
O11	O	-1.000389	0.435544	0.662083
O12	O	-0.667055	0.768877	0.995416
O13	O	-1.349739	-0.102453	-0.001586
O14	O	-1.016406	0.230880	0.331747
O15	O	-0.683073	0.564214	0.665080
O16	O	-1.176552	-0.102427	0.171601
O17	O	-0.843219	0.230906	0.504934
O18	O	-0.509886	0.564240	0.838267
O19	O	-1.506893	-0.102460	0.155568
O20	O	-1.173560	0.230874	0.488901
O21	O	-0.840227	0.564207	0.822235
Zn22	Zn	-1.341720	-0.134935	0.163585
Zn23	Zn	-1.008387	0.198398	0.496919
Zn24	Zn	-0.675054	0.531731	0.830252
Zn25	Zn	-1.341741	0.134693	0.163578
Zn26	Zn	-1.008408	0.468026	0.496911
Zn27	Zn	-0.675074	0.801360	0.830245
O28	O	-1.333706	-0.102434	0.328755
O29	O	-1.000373	0.230899	0.662088
O30	O	-0.667040	0.564233	0.995422
C31	C	-1.134269	-0.000101	0.170591
C32	C	-0.800936	0.333233	0.503924
C33	C	-0.467603	0.666566	0.837258
C34	C	-1.008255	-0.000088	0.167576
C35	C	-0.674922	0.333245	0.500910
C36	C	-0.341589	0.666578	0.834243
N37	N	-1.341714	-0.318949	0.163590
N38	N	-1.008381	0.014384	0.496923
N39	N	-0.675048	0.347717	0.830256
C40	C	-0.777543	-0.000121	0.162034
C41	C	-0.444210	0.333212	0.495367
C42	C	-0.110877	0.666546	0.828700
C43	C	-0.905928	-0.000103	0.165113
C44	C	-0.572595	0.333230	0.498447
C45	C	-0.239262	0.666564	0.831780
C46	C	-0.549192	-0.000136	0.156572
C47	C	-0.215859	0.333197	0.489906
C48	C	0.117475	0.666531	0.823239
C49	C	-0.675206	-0.000131	0.159587
C50	C	-0.341873	0.333202	0.492920
C51	C	-0.008539	0.666536	0.826253
C52	C	-1.341723	-0.430287	0.163590
C53	C	-1.008390	-0.096954	0.496923
C54	C	-0.675057	0.236380	0.830257
C55	C	-1.341738	-0.569964	0.163579
C56	C	-1.008405	-0.236631	0.496913
C57	C	-0.675071	0.096702	0.830246
C58	C	-1.348740	-0.000130	-0.043880
C59	C	-1.015407	0.333203	0.289453
C60	C	-0.682073	0.666537	0.622787
C61	C	-1.345726	-0.000129	-0.169894
C62	C	-1.012392	0.333205	0.163440
C63	C	-0.679059	0.666538	0.496773
N64	N	-1.341756	0.318707	0.163565
N65	N	-1.008423	0.652040	0.496898
N66	N	-0.675089	0.985374	0.830231
C67	C	-1.340183	-0.000107	-0.400606
C68	C	-1.006849	0.333226	-0.067272
C69	C	-0.673516	0.666559	0.266061
C70	C	-1.343262	-0.000119	-0.272221
C71	C	-1.009929	0.333214	0.061113
C72	C	-0.676596	0.666548	0.394446
C73	C	-1.334721	-0.000109	0.371043
C74	C	-1.001388	0.333224	0.704376
C75	C	-0.668055	0.666557	1.037710
C76	C	-1.337736	-0.000103	0.497057
C77	C	-1.004402	0.333230	0.830390
C78	C	-0.671069	0.666564	1.163723
