data_functionalizedCrystal
_audit_creation_method	'MofGen! by Chris Wilmer'
_symmetry_space_group_name_H-M	'P1'
_symmetry_Int_Tables_number	1
_symmetry_cell_setting	triclinic
loop_
_symmetry_equiv_pos_as_xyz
  x,y,z
_cell_length_a	9.065218
_cell_length_b	9.065218
_cell_length_c	7.540329
_cell_angle_alpha	90.011032
_cell_angle_beta	90.003038
_cell_angle_gamma	85.015918
loop_
_atom_site_label
_atom_site_type_symbol
_atom_site_fract_x
_atom_site_fract_y
_atom_site_fract_z
O1	O	-1.960399	-0.216355	-0.147521
O2	O	-1.627065	0.116979	0.185812
O3	O	-1.293732	0.450312	0.519145
O4	O	-1.531114	-0.234101	-0.147526
O5	O	-1.197780	0.099232	0.185807
O6	O	-0.864447	0.432566	0.519140
O7	O	-1.754629	-0.010585	-0.147478
O8	O	-1.421296	0.322748	0.185855
O9	O	-1.087963	0.656081	0.519188
O10	O	-1.736883	-0.439870	-0.147569
O11	O	-1.403550	-0.106537	0.185764
O12	O	-1.070216	0.226796	0.519097
O13	O	-1.754616	-0.010583	0.147487
O14	O	-1.421282	0.322751	0.480820
O15	O	-1.087949	0.656084	0.814153
O16	O	-1.531100	-0.234098	0.147439
O17	O	-1.197767	0.099235	0.480772
O18	O	-0.864434	0.432568	0.814105
O19	O	-1.960385	-0.216352	0.147444
O20	O	-1.627052	0.116982	0.480777
O21	O	-1.293718	0.450315	0.814111
Cu22	Cu	-1.745741	-0.225225	0.174374
Cu23	Cu	-1.412408	0.108109	0.507707
Cu24	Cu	-1.079075	0.441442	0.841041
Cu25	Cu	-1.745757	-0.225228	-0.174456
Cu26	Cu	-1.412424	0.108105	0.158877
Cu27	Cu	-1.079091	0.441439	0.492210
O28	O	-1.736870	-0.439867	0.147396
O29	O	-1.403536	-0.106534	0.480729
O30	O	-1.070203	0.226799	0.814062
C31	C	-1.476120	-0.232394	-0.000044
C32	C	-1.142787	0.100939	0.333289
C33	C	-0.809454	0.434273	0.666623
C34	C	-1.312277	-0.227294	-0.000044
C35	C	-0.978944	0.106039	0.333290
C36	C	-0.645611	0.439372	0.666623
C37	C	-1.752917	0.044403	0.000012
C38	C	-1.419584	0.377736	0.333345
C39	C	-1.086250	0.711069	0.666679
C40	C	-1.747817	0.208245	0.000035
C41	C	-1.414484	0.541579	0.333369
C42	C	-1.081151	0.874912	0.666702
C43	C	-2.015378	-0.218059	-0.000043
C44	C	-1.682045	0.115275	0.333291
C45	C	-1.348712	0.448608	0.666624
C46	C	-2.179221	-0.223158	-0.000054
C47	C	-1.845888	0.110175	0.333279
C48	C	-1.512555	0.443508	0.666612
N49	N	-1.745741	-0.225222	0.419722
N50	N	-1.412408	0.108112	0.753056
N51	N	-1.079074	0.441445	1.086389
C52	C	-1.738582	0.505145	-0.000050
C53	C	-1.405248	0.838478	0.333284
C54	C	-1.071915	1.171811	0.666617
C55	C	-1.743681	0.341302	0.000061
C56	C	-1.410348	0.674635	0.333394
C57	C	-1.077014	1.007968	0.666728
N58	N	-1.745769	-0.225220	-0.419805
N59	N	-1.412436	0.108114	-0.086472
N60	N	-1.079103	0.441447	0.246862
