data_functionalizedCrystal
_audit_creation_method	'MofGen! by Chris Wilmer'
_symmetry_space_group_name_H-M	'P1'
_symmetry_Int_Tables_number	1
_symmetry_cell_setting	triclinic
loop_
_symmetry_equiv_pos_as_xyz
  x,y,z
_cell_length_a	12.759401
_cell_length_b	10.686285
_cell_length_c	12.759393
_cell_angle_alpha	94.397013
_cell_angle_beta	90.020938
_cell_angle_gamma	85.633237
loop_
_atom_site_label
_atom_site_type_symbol
_atom_site_fract_x
_atom_site_fract_y
_atom_site_fract_z
Zn1	Zn	1.638400	-0.502237	0.562006
Zn2	Zn	2.138400	-0.002237	1.062006
Zn3	Zn	1.651794	-0.713276	0.372873
Zn4	Zn	2.151794	-0.213276	0.872873
Zn5	Zn	1.462703	-0.502304	0.386337
Zn6	Zn	1.962703	-0.002304	0.886337
Zn7	Zn	1.476188	-0.713187	0.548516
Zn8	Zn	1.976188	-0.213187	1.048516
O9	O	1.557272	-0.607751	0.467433
O10	O	2.057272	-0.107751	0.967433
O11	O	1.787199	-0.530240	0.536928
O12	O	2.287199	-0.030240	1.036928
O13	O	1.626673	-0.685355	0.227634
O14	O	2.126673	-0.185355	0.727634
O15	O	1.474761	-0.325719	0.420919
O16	O	1.974761	0.174281	0.920919
O17	O	1.797039	-0.685290	0.397973
O18	O	2.297039	-0.185290	0.897973
O19	O	1.603845	-0.325669	0.549983
O20	O	2.103845	0.174331	1.049983
O21	O	1.487749	-0.530355	0.237525
O22	O	1.987749	-0.030355	0.737525
O23	O	1.317471	-0.530269	0.407839
O24	O	1.817471	-0.030269	0.907839
O25	O	1.497744	-0.685139	0.697331
O26	O	1.997744	-0.185139	1.197331
O27	O	1.327378	-0.685204	0.526992
O28	O	1.827378	-0.185204	1.026992
O29	O	1.616921	-0.530155	0.707241
O30	O	2.116921	-0.030155	1.207241
O31	O	1.639748	-0.889840	0.384893
O32	O	2.139748	-0.389840	0.884893
O33	O	1.510731	-0.889775	0.513937
O34	O	2.010731	-0.389775	1.013937
C35	C	1.284303	-0.607735	0.467413
C36	C	1.784303	-0.107735	0.967413
C37	C	1.167528	-0.607759	0.467427
C38	C	1.667528	-0.107759	0.967427
C39	C	1.117860	-0.688557	0.529357
C40	C	1.617860	-0.188557	1.029357
C41	C	1.008136	-0.688562	0.529377
C42	C	1.508136	-0.188562	1.029377
C43	C	0.997758	-0.526968	0.405531
C44	C	1.497758	-0.026968	0.905531
C45	C	1.107479	-0.526957	0.405516
C46	C	1.607479	-0.026957	0.905516
C47	C	1.578185	-0.935592	0.446513
C48	C	2.078185	-0.435592	0.946513
C49	C	1.587228	-1.075844	0.437599
C50	C	2.087228	-0.575844	0.937599
C51	C	1.831306	-0.607767	0.467453
C52	C	2.331306	-0.107767	0.967453
C53	C	1.948083	-0.607774	0.467462
C54	C	2.448083	-0.107774	0.967462
C55	C	1.557342	-0.607630	0.741474
C56	C	2.057342	-0.107630	1.241474
C57	C	1.557373	-0.607578	0.858254
C58	C	2.057373	-0.107578	1.358254
C59	C	1.536305	-0.278630	0.488457
C60	C	2.036305	0.221370	0.988457
C61	C	1.527370	-0.138378	0.497417
C62	C	2.027370	0.361622	0.997417
C63	C	1.557256	-0.607780	0.194464
C64	C	2.057256	-0.107780	0.694464
C65	C	1.557406	-0.607477	0.077707
C66	C	2.057406	-0.107477	0.577707
C67	C	1.619432	-0.526865	0.918279
C68	C	2.119432	-0.026865	1.418279
C69	C	1.619446	-0.526810	1.028007
C70	C	2.119446	-0.026810	1.528007
C71	C	1.495340	-0.688194	1.017674
C72	C	1.995340	-0.188194	1.517674
C73	C	1.495320	-0.688241	0.907949
C74	C	1.995320	-0.188241	1.407949
H75	H	0.967702	-0.754353	0.579808
H76	H	1.467702	-0.254353	1.079808
H77	H	1.469206	-1.084620	0.555451
H78	H	1.969206	-0.584620	1.055451
H79	H	1.147919	-0.461154	0.355087
H80	H	1.647919	0.038846	0.855087
H81	H	1.444776	-0.753966	0.859075
H82	H	1.944776	-0.253966	1.359075
H83	H	0.948853	-0.461184	0.355123
H84	H	1.448853	0.038816	0.855123
O85	O	1.664295	-1.147044	0.360730
O86	O	2.164295	-0.647044	0.860730
H87	H	1.659555	-1.249726	0.365561
H88	H	2.159555	-0.749726	0.865561
H89	H	1.669956	-0.461180	0.877821
H90	H	2.169956	0.038820	1.377821
H91	H	1.669980	-0.461083	1.076875
H92	H	2.169980	0.038917	1.576875
H93	H	1.444821	-0.753869	1.058149
H94	H	1.944821	-0.253869	1.558149
H95	H	1.166749	-0.754348	0.579772
H96	H	1.666749	-0.254348	1.079772
