data_functionalizedCrystal
_audit_creation_method	'MofGen! by Chris Wilmer'
_symmetry_space_group_name_H-M	'P1'
_symmetry_Int_Tables_number	1
_symmetry_cell_setting	triclinic
loop_
_symmetry_equiv_pos_as_xyz
  x,y,z
_cell_length_a	9.065218
_cell_length_b	15.995343
_cell_length_c	7.540329
_cell_angle_alpha	89.991687
_cell_angle_beta	89.996962
_cell_angle_gamma	84.252535
loop_
_atom_site_label
_atom_site_type_symbol
_atom_site_fract_x
_atom_site_fract_y
_atom_site_fract_z
O1	O	1.957501	0.122771	-0.147509
O2	O	1.527979	0.132841	-0.147513
O3	O	1.754488	0.006007	-0.147478
O4	O	1.730993	0.249605	-0.147544
O5	O	1.754474	0.006005	0.147487
O6	O	1.527966	0.132839	0.147452
O7	O	1.957488	0.122769	0.147456
Cu8	Cu	1.742726	0.127804	0.174387
Cu9	Cu	1.742741	0.127806	-0.174443
O10	O	1.730980	0.249603	0.147421
C11	C	1.473009	0.131872	-0.000031
C12	C	1.309234	0.128978	-0.000031
C13	C	1.753512	-0.025196	0.000009
C14	C	1.750606	-0.118169	0.000023
C15	C	1.745331	-0.288395	-0.000017
C16	C	1.581827	-0.312981	-0.000023
C17	C	1.578750	-0.409682	-0.000712
C18	C	1.740136	-0.455995	-0.000055
C19	C	1.822357	-0.426271	-0.168155
C20	C	1.824296	-0.329464	-0.168276
C21	C	1.826674	-0.329552	0.167166
C22	C	1.820638	-0.426093	0.169356
C23	C	1.737209	-0.550715	-0.000082
C24	C	1.748263	-0.193675	-0.000002
C25	C	2.012459	0.123738	-0.000030
C26	C	2.176233	0.126631	-0.000041
C27	C	1.731956	0.280806	-0.000070
C28	C	1.734861	0.373779	-0.000095
N29	N	1.742725	0.127802	0.419735
N30	N	1.742754	0.127801	-0.419792
H31	H	1.514375	-0.429195	0.119754
H32	H	1.518445	-0.285460	0.120509
C33	C	1.370137	-0.475719	-0.109440
C34	C	1.492297	-0.435232	-0.164344
H35	H	1.316761	-0.491488	-0.210468
H36	H	1.403543	-0.524447	-0.043086
H37	H	1.307245	-0.438673	-0.037553
H38	H	1.555195	-0.472280	-0.236221
H39	H	1.458891	-0.386498	-0.230728
H40	H	1.947019	-0.314619	0.168800
C41	C	1.740206	-0.539298	0.341798
C42	C	1.739796	-0.451761	0.337239
H43	H	1.690294	-0.555143	0.445442
H44	H	1.691009	-0.557548	0.239769
H45	H	1.839598	-0.564569	0.343304
H46	H	1.640404	-0.426490	0.335720
H47	H	1.788990	-0.433503	0.439295
H48	H	1.768032	-0.303099	-0.294413
H49	H	1.519489	-0.284464	-0.120391
H50	H	1.941132	-0.457216	-0.173935
C51	C	2.080949	-0.383207	-0.183673
C52	C	1.986153	-0.308555	-0.177988
H53	H	2.180868	-0.370299	-0.189696
H54	H	2.067460	-0.415217	-0.079870
H55	H	2.058822	-0.414728	-0.285332
H56	H	2.008272	-0.277037	-0.076321
H57	H	1.999649	-0.276532	-0.281802
H58	H	1.765952	-0.446783	-0.293737
H59	H	1.775082	-0.301680	0.294626
H60	H	1.938401	-0.458149	0.180013
