data_functionalizedCrystal
_audit_creation_method	'MofGen! by Chris Wilmer'
_symmetry_space_group_name_H-M	'P1'
_symmetry_Int_Tables_number	1
_symmetry_cell_setting	triclinic
loop_
_symmetry_equiv_pos_as_xyz
  x,y,z
_cell_length_a	19.121102
_cell_length_b	25.639239
_cell_length_c	25.639234
_cell_angle_alpha	89.975095
_cell_angle_beta	87.540927
_cell_angle_gamma	87.592882
loop_
_atom_site_label
_atom_site_type_symbol
_atom_site_fract_x
_atom_site_fract_y
_atom_site_fract_z
Zn1	Zn	1.073656	-0.242337	-0.329673
Zn2	Zn	1.073539	-0.329761	-0.242233
Zn3	Zn	0.956204	-0.238609	-0.238525
Zn4	Zn	0.956145	-0.326005	-0.325913
O5	O	1.014886	-0.284178	-0.284086
O6	O	1.171924	-0.257066	-0.321199
O7	O	1.057950	-0.317682	-0.168576
O8	O	0.971859	-0.165941	-0.250637
O9	O	1.171838	-0.321296	-0.256958
O10	O	1.058150	-0.168680	-0.317603
O11	O	0.971745	-0.250713	-0.165851
O12	O	0.857913	-0.247070	-0.246992
O13	O	0.971758	-0.314894	-0.399578
O14	O	0.857870	-0.311280	-0.311196
O15	O	1.058093	-0.253424	-0.402340
O16	O	1.057892	-0.402426	-0.253312
O17	O	0.971644	-0.399666	-0.314792
C18	C	0.832408	-0.278363	-0.278284
C19	C	0.754343	-0.275888	-0.275814
C20	C	0.717663	-0.308206	-0.308029
C21	C	0.644313	-0.305874	-0.305711
C22	C	0.607643	-0.271226	-0.271175
C23	C	0.644327	-0.238904	-0.238959
C24	C	0.717677	-0.241234	-0.241280
C25	C	0.386176	-0.262513	-0.262499
C26	C	0.312822	-0.260186	-0.260179
C27	C	0.312812	-0.327155	-0.326932
C28	C	0.386163	-0.329485	-0.329248
C29	C	0.422841	-0.297161	-0.297034
C30	C	0.532667	-0.268842	-0.268803
C31	C	0.497815	-0.299543	-0.299408
C32	C	1.014768	-0.420017	-0.284059
C33	C	1.014782	-0.478131	-0.284066
C34	C	1.059913	-0.839926	-0.252135
C35	C	1.059940	-0.894531	-0.252143
O36	O	1.098190	-0.923981	-0.224963
N37	N	1.015010	-0.920421	-0.284125
C38	C	0.970054	-0.891703	-0.316105
O39	O	0.931840	-0.918739	-0.343310
C40	C	0.970031	-0.837099	-0.316100
C41	C	1.014959	-0.811212	-0.284111
C42	C	1.104838	-0.814039	-0.220149
C43	C	1.104810	-0.759437	-0.220141
C44	C	1.059856	-0.730723	-0.252118
C45	C	1.014931	-0.756610	-0.284103
C46	C	0.925079	-0.808382	-0.348083
C47	C	0.925060	-0.753775	-0.348075
C48	C	0.969989	-0.727887	-0.316086
C49	C	0.969949	-0.673295	-0.316071
N50	N	1.014880	-0.647405	-0.284089
C51	C	1.059833	-0.676119	-0.252112
C52	C	0.970107	-1.006375	-0.316115
C53	C	0.970126	-1.060978	-0.316118
C54	C	1.060013	-1.063803	-0.252156
C55	C	1.059990	-1.009199	-0.252150
C56	C	1.015037	-0.980485	-0.284133
C57	C	1.059770	-0.561452	-0.252097
C58	C	1.059735	-0.506846	-0.252089
C59	C	0.969851	-0.504026	-0.316053
C60	C	0.969883	-0.558628	-0.316059
C61	C	1.014848	-0.587339	-0.284079
O62	O	0.931721	-0.643811	-0.343239
O63	O	1.098047	-0.649077	-0.224917
C64	C	1.198077	-0.290016	-0.289911
C65	C	1.276142	-0.292504	-0.292394
C66	C	1.014932	-0.284156	-0.420461
C67	C	1.014951	-0.284146	-0.478575
C68	C	1.015024	-0.147809	-0.284126
C69	C	1.015083	-0.089697	-0.284143
C70	C	0.970084	-0.249214	-0.837526
C71	C	0.970088	-0.249204	-0.892131
O72	O	0.931905	-0.219560	-0.919165
N73	N	1.014975	-0.284065	-0.920859
C74	C	1.059856	-0.318941	-0.894980
O75	O	1.098035	-0.348592	-0.924429
C76	C	1.059848	-0.318952	-0.840376
C77	C	1.014963	-0.284086	-0.811651
C78	C	0.925203	-0.214351	-0.808801
C79	C	0.925200	-0.214359	-0.754200
C80	C	0.970079	-0.249231	-0.728325
C81	C	1.014960	-0.284095	-0.757050
C82	C	1.104724	-0.353830	-0.814498
C83	C	1.104712	-0.353839	-0.759891
C84	C	1.059828	-0.318972	-0.731165
C85	C	1.059837	-0.318975	-0.676574
N86	N	1.014950	-0.284115	-0.647846
C87	C	0.970071	-0.249243	-0.673721
C88	C	1.059868	-0.318915	-1.009651
C89	C	1.059880	-0.318901	-1.064254
C90	C	0.970111	-0.249165	-1.061401
C91	C	0.970103	-0.249177	-1.006797
C92	C	1.014981	-0.284054	-0.980923
C93	C	0.970069	-0.249264	-0.559056
C94	C	0.970072	-0.249274	-0.504451
C95	C	1.059838	-0.319012	-0.507308
C96	C	1.059838	-0.319000	-0.561909
C97	C	1.014948	-0.284124	-0.587781
O98	O	1.097998	-0.348606	-0.649504
O99	O	0.931891	-0.219601	-0.644265
C100	C	1.014881	-0.284164	-0.148244
C101	C	1.014998	-0.284031	-0.090134
H102	H	0.416014	-0.357700	-0.357369
H103	H	0.933554	-0.220785	-0.983412
H104	H	1.141396	-0.738363	-0.194095
H105	H	0.888647	-0.185970	-0.730816
Br106	Br	0.909151	-0.201929	-0.594160
H107	H	0.282941	-0.353470	-0.353159
Br108	Br	0.908848	-0.465047	-0.359450
H109	H	0.933522	-0.220879	-0.481065
H110	H	1.141449	-0.837412	-0.194110
Br111	Br	0.864276	-0.167025	-0.843906
H112	H	1.096321	-0.485770	-0.226039
H113	H	1.096575	-0.988125	-0.226103
Br114	Br	0.767457	-0.197369	-0.197561
H115	H	0.933568	-0.220771	-1.082478
H116	H	1.096437	-0.347287	-1.087638
Br117	Br	0.909089	-0.967413	-0.359520
Br118	Br	0.263056	-0.213166	-0.213300
Br119	Br	1.165618	-0.401178	-0.724778
H120	H	1.096619	-1.087192	-0.226120
H121	H	0.502802	-0.240632	-0.240683
H122	H	1.096386	-0.584823	-0.226057
H123	H	1.096421	-0.347313	-0.988588
Br124	Br	0.435944	-0.218642	-0.218783
Br125	Br	0.909139	-1.096104	-0.359524
H126	H	1.141274	-0.382223	-0.837877
Br127	Br	0.864109	-0.843501	-0.391504
Br128	Br	0.864052	-0.714810	-0.391484
Br129	Br	0.908891	-0.593761	-0.359458
Br130	Br	0.594562	-0.191876	-0.192093
H131	H	1.096380	-0.347402	-0.486231
Br132	Br	0.767422	-0.355235	-0.354897
Br133	Br	0.594536	-0.349735	-0.349434
H134	H	0.527675	-0.327751	-0.327529
Br135	Br	1.120767	-0.366308	-0.600895
