data_functionalizedCrystal
_audit_creation_method	'MofGen! by Chris Wilmer'
_symmetry_space_group_name_H-M	'P1'
_symmetry_Int_Tables_number	1
_symmetry_cell_setting	triclinic
loop_
_symmetry_equiv_pos_as_xyz
  x,y,z
_cell_length_a	18.215405
_cell_length_b	25.639242
_cell_length_c	25.639234
_cell_angle_alpha	89.969217
_cell_angle_beta	90.024291
_cell_angle_gamma	89.981154
loop_
_atom_site_label
_atom_site_type_symbol
_atom_site_fract_x
_atom_site_fract_y
_atom_site_fract_z
Zn1	Zn	-0.293127	-0.799316	0.295764
Zn2	Zn	-0.416187	-0.799251	0.208330
Zn3	Zn	-0.293128	-0.711882	0.208326
Zn4	Zn	-0.416145	-0.711860	0.295717
O5	O	-0.354647	-0.755577	0.252035
O6	O	-0.309468	-0.872473	0.284187
O7	O	-0.399881	-0.787643	0.135164
O8	O	-0.190144	-0.723516	0.219943
O9	O	-0.399879	-0.872425	0.219949
O10	O	-0.190143	-0.787754	0.284184
O11	O	-0.309470	-0.723453	0.135162
O12	O	-0.309430	-0.638714	0.219898
O13	O	-0.399809	-0.723480	0.368889
O14	O	-0.399810	-0.638698	0.284104
O15	O	-0.309427	-0.787733	0.368923
O16	O	-0.519166	-0.787623	0.219904
O17	O	-0.519135	-0.723417	0.284107
C18	C	-0.354616	-0.619735	0.251996
C19	C	-0.354621	-0.561621	0.251991
C20	C	-0.545853	-0.755525	0.252012
C21	C	-0.627652	-0.755550	0.252020
C22	C	-0.892701	-0.789080	0.218660
C23	C	-0.815842	-0.789058	0.218648
C24	C	-0.815851	-0.722140	0.285445
C25	C	-0.892709	-0.722159	0.285454
C26	C	-0.931131	-0.755632	0.252062
C27	C	-0.777415	-0.755591	0.252041
C28	C	-0.694082	-0.755568	0.252028
C29	C	-1.014470	-0.755655	0.252074
C30	C	-0.354613	-0.755611	0.388408
C31	C	-0.354599	-0.755626	0.446522
C32	C	-0.162694	-0.755644	0.252069
C33	C	-0.080895	-0.755673	0.252083
C34	C	-0.401780	-0.201258	0.285421
C35	C	-0.401783	-0.146654	0.285428
O36	O	-0.441847	-0.118418	0.313828
N37	N	-0.354659	-0.119338	0.252053
C38	C	-0.307523	-0.146630	0.218672
O39	O	-0.267440	-0.118381	0.190285
C40	C	-0.307516	-0.201233	0.218668
C41	C	-0.354648	-0.228546	0.252042
C42	C	-0.448908	-0.228572	0.318792
C43	C	-0.448905	-0.283172	0.318785
C44	C	-0.401773	-0.310460	0.285406
C45	C	-0.354645	-0.283146	0.252034
C46	C	-0.260376	-0.228523	0.185291
C47	C	-0.260373	-0.283130	0.185290
C48	C	-0.307506	-0.310443	0.218664
C49	C	-0.307511	-0.365034	0.218648
N50	N	-0.354635	-0.392350	0.252023
C51	C	-0.401766	-0.365063	0.285402
C52	C	-0.307540	-0.031959	0.218684
C53	C	-0.307550	0.022643	0.218684
C54	C	-0.401810	0.022615	0.285441
C55	C	-0.401803	-0.031988	0.285437
C56	C	-0.354664	-0.059275	0.252059
C57	C	-0.401757	-0.479728	0.285383
C58	C	-0.401752	-0.534333	0.285370
C59	C	-0.307490	-0.534300	0.218616
C60	C	-0.307497	-0.479700	0.218626
C61	C	-0.354633	-0.452415	0.252014
O62	O	-0.267466	-0.393305	0.190264
O63	O	-0.441836	-0.393318	0.313789
C64	C	-0.354675	0.108050	0.252068
C65	C	-0.354679	0.049936	0.252066
C66	C	-0.354627	-0.755574	0.116192
C67	C	-0.354434	-0.755660	0.058078
C68	C	-0.307434	-0.722217	0.806889
C69	C	-0.307421	-0.722219	0.861493
O70	O	-0.267401	-0.693787	0.889734
N71	N	-0.354483	-0.755643	0.888804
C72	C	-0.401568	-0.789063	0.861508
O73	O	-0.441597	-0.817492	0.889752
C74	C	-0.401584	-0.789057	0.806905
C75	C	-0.354513	-0.755634	0.779597
C76	C	-0.260368	-0.688797	0.779581
C77	C	-0.260380	-0.688795	0.724980
C78	C	-0.307459	-0.722213	0.697688
C79	C	-0.354526	-0.755632	0.724996
C80	C	-0.448671	-0.822473	0.779609
C81	C	-0.448684	-0.822464	0.725002
C82	C	-0.401613	-0.789042	0.697694
C83	C	-0.401617	-0.789048	0.643103
N84	N	-0.354555	-0.755625	0.615792
C85	C	-0.307476	-0.722207	0.643085
C86	C	-0.401530	-0.789072	0.976179
C87	C	-0.401511	-0.789080	1.030781
C88	C	-0.307365	-0.722237	1.030763
C89	C	-0.307381	-0.722231	0.976159
C90	C	-0.354468	-0.755648	0.948868
C91	C	-0.307505	-0.722205	0.528419
C92	C	-0.307520	-0.722208	0.473814
C93	C	-0.401668	-0.789050	0.473837
C94	C	-0.401651	-0.789049	0.528438
C95	C	-0.354567	-0.755623	0.555728
O96	O	-0.441619	-0.817464	0.614828
O97	O	-0.267460	-0.693777	0.614834
H98	H	-0.923983	-0.816336	0.191470
H99	H	-0.924000	-0.694919	0.312655
H100	H	-0.269155	-0.054172	0.191499
H101	H	-0.222030	-0.661581	0.801797
H102	H	-0.439869	-0.816290	0.953961
H103	H	-0.269119	-0.556527	0.191438
Cl104	Cl	-0.460847	-0.831061	0.439517
H105	H	-0.221998	-0.206294	0.158113
Cl106	Cl	-0.461056	-0.066319	0.327395
H107	H	-0.784560	-0.694887	0.312632
H108	H	-0.269178	0.044877	0.191503
Cl109	Cl	-0.767533	-0.831110	0.176655
Cl110	Cl	-0.461010	-0.568666	0.327328
Cl111	Cl	-0.460814	-0.831075	0.562769
H112	H	-0.269052	-0.695016	0.953929
Cl113	Cl	-0.201108	-0.317430	0.143327
H114	H	-0.269119	-0.457460	0.191450
Cl115	Cl	-0.461016	-0.445436	0.327355
Cl116	Cl	-0.508156	-0.317500	0.360746
Cl117	Cl	-0.508167	-0.194277	0.360760
H118	H	-0.440185	0.044842	0.312622
Cl119	Cl	-0.248339	-0.680189	0.439487
Cl120	Cl	-0.507856	-0.864488	0.813926
Cl121	Cl	-0.248308	-0.680187	0.562718
Cl122	Cl	-0.507884	-0.864476	0.690697
H123	H	-0.222053	-0.661577	0.702751
H124	H	-0.269031	-0.695026	1.052994
Cl125	Cl	-0.460679	-0.831105	1.065105
