data_functionalizedCrystal
_audit_creation_method	'MofGen! by Chris Wilmer'
_symmetry_space_group_name_H-M	'P1'
_symmetry_Int_Tables_number	1
_symmetry_cell_setting	triclinic
loop_
_symmetry_equiv_pos_as_xyz
  x,y,z
_cell_length_a	13.635800
_cell_length_b	17.982783
_cell_length_c	9.582880
_cell_angle_alpha	86.497178
_cell_angle_beta	68.792966
_cell_angle_gamma	102.448572
loop_
_atom_site_label
_atom_site_type_symbol
_atom_site_fract_x
_atom_site_fract_y
_atom_site_fract_z
V1	V	-2.055801	-0.105090	0.467221
O2	O	-2.051322	0.005381	0.457687
O3	O	-2.028796	-0.208694	0.464640
O4	O	-2.051230	-0.103328	0.670711
O5	O	-2.028733	-0.100714	0.250190
V6	V	-2.295435	-0.091894	0.441187
O7	O	-2.191097	-0.134038	0.524327
O8	O	-2.385238	-0.062946	0.384081
O9	O	-2.210837	0.011710	0.443768
O10	O	-2.358613	-0.202364	0.450721
O11	O	-2.381202	-0.096269	0.658218
O12	O	-2.188403	-0.093655	0.237697
C13	C	-1.949979	-0.233955	0.457428
C14	C	-1.968674	-0.318652	0.456674
V15	V	-1.555801	-0.105090	0.467221
O16	O	-1.551322	0.005381	0.457687
O17	O	-1.528796	-0.208694	0.464640
O18	O	-1.551230	-0.103328	0.670711
O19	O	-1.528733	-0.100714	0.250190
V20	V	-1.795435	-0.091894	0.441187
O21	O	-1.691097	-0.134038	0.524327
O22	O	-1.885238	-0.062946	0.384081
O23	O	-1.710837	0.011710	0.443768
O24	O	-1.858613	-0.202364	0.450721
O25	O	-1.881202	-0.096269	0.658218
O26	O	-1.688403	-0.093655	0.237697
C27	C	-1.944398	-0.347656	0.319211
C28	C	-1.961974	-0.427239	0.318508
C29	C	-2.003819	-0.477815	0.455270
C30	C	-2.028100	-0.448805	0.592744
C31	C	-2.010531	-0.369225	0.593446
C32	C	-2.098955	-0.769745	0.589916
C33	C	-2.116519	-0.849330	0.589204
C34	C	-2.050397	-0.827759	0.314979
C35	C	-2.032829	-0.748179	0.315681
C36	C	-2.057116	-0.719176	0.453154
C37	C	-2.038060	-0.632884	0.453915
C38	C	-2.022868	-0.564105	0.454510
C39	C	-1.978595	-0.099550	0.720290
C40	C	-2.015481	-0.098795	0.886649
C41	C	-2.121324	0.036967	0.450976
C42	C	-2.092250	0.121663	0.451739
C43	C	-2.092708	-0.097436	0.188110
C44	C	-2.045441	-0.098187	0.021750
C45	C	-1.449979	-0.233955	0.457428
C46	C	-1.468674	-0.318652	0.456674
C47	C	-1.478595	-0.099550	0.720290
C48	C	-1.515481	-0.098795	0.886649
C49	C	-1.621324	0.036967	0.450976
C50	C	-1.592250	0.121663	0.451739
C51	C	-1.592708	-0.097436	0.188110
C52	C	-1.545441	-0.098187	0.021750
C53	C	-1.569147	-0.362306	0.463821
C54	C	-1.586732	-0.441890	0.463136
C55	C	-1.503840	-0.477817	0.455293
C56	C	-1.403360	-0.434157	0.448151
C57	C	-1.385779	-0.354576	0.448847
C58	C	-1.664271	0.165317	0.444597
C59	C	-1.636958	0.244900	0.445290
C60	C	-1.537627	0.280827	0.453135
C61	C	-1.465600	0.237168	0.460273
C62	C	-1.492910	0.157587	0.459570
H63	H	-1.910315	-0.306481	0.207843
H64	H	-2.118719	-0.746141	0.701855
C65	C	-1.716204	0.292912	0.437455
C66	C	-1.831393	0.274878	0.561814
C67	C	-1.910640	0.322886	0.553982
C68	C	-1.874698	0.388928	0.421792
C69	C	-1.759503	0.406965	0.297424
C70	C	-1.680256	0.358957	0.305255
H71	H	-1.858004	0.225987	0.659678
H72	H	-1.995915	0.309534	0.646049
H73	H	-1.933361	0.424467	0.415995
H74	H	-1.732892	0.455856	0.199560
H75	H	-1.594981	0.372310	0.213189
H76	H	-2.030627	-0.851382	0.203041
C77	C	-2.074130	-0.504437	0.743186
C78	C	-2.093451	-0.591973	0.742422
C79	C	-2.139478	-0.647602	0.892867
C80	C	-2.166184	-0.615695	1.044076
C81	C	-2.146863	-0.528155	1.044846
C82	C	-2.100836	-0.472526	0.894400
H83	H	-2.073681	-0.615596	0.630483
H84	H	-2.153780	-0.712405	0.892297
H85	H	-2.200256	-0.656876	1.155445
H86	H	-2.166633	-0.504532	1.156785
H87	H	-2.086534	-0.407722	0.894971
H88	H	-1.942207	-0.450850	0.206572
H89	H	-1.998750	-0.707002	0.204315
C90	C	-2.162563	-0.904967	0.739652
C91	C	-2.189287	-0.873069	0.890870
C92	C	-2.235329	-0.928705	1.041309
C93	C	-2.254648	-1.016240	1.040529
C94	C	-2.227925	-1.048143	0.889305
C95	C	-2.181882	-0.992507	0.738867
H96	H	-2.174986	-0.808266	0.891452
H97	H	-2.255112	-0.905088	1.153254
H98	H	-2.288732	-1.057426	1.151893
H99	H	-2.242226	-1.112946	0.888723
H100	H	-2.162100	-1.016124	0.626921
C101	C	-2.037231	-0.337316	0.744657
C102	C	-1.979582	-0.353460	0.850546
C103	C	-2.006289	-0.321552	1.001762
C104	C	-2.090645	-0.273500	1.047089
C105	C	-2.148300	-0.257353	0.941197
C106	C	-2.121593	-0.289261	0.789981
H107	H	-1.917131	-0.389033	0.816995
H108	H	-1.963608	-0.333505	1.080150
H109	H	-2.110416	-0.249880	1.159028
H110	H	-2.210751	-0.221780	0.974749
H111	H	-2.164274	-0.277308	0.711594
H112	H	-1.303960	-0.319038	0.443020
H113	H	-1.335875	-0.463422	0.441767
H114	H	-1.518170	-0.542618	0.454728
H115	H	-1.636652	-0.333064	0.470197
H116	H	-1.668553	-0.477426	0.468948
H117	H	-1.745156	0.136076	0.438210
H118	H	-1.515403	0.345628	0.453706
H119	H	-1.384723	0.266433	0.466659
H120	H	-1.434260	0.122049	0.465399
