data_functionalizedCrystal
_audit_creation_method	'MofGen! by Chris Wilmer'
_symmetry_space_group_name_H-M	'P1'
_symmetry_Int_Tables_number	1
_symmetry_cell_setting	triclinic
loop_
_symmetry_equiv_pos_as_xyz
  x,y,z
_cell_length_a	19.805407
_cell_length_b	16.959454
_cell_length_c	19.805399
_cell_angle_alpha	89.977613
_cell_angle_beta	89.980427
_cell_angle_gamma	90.020075
loop_
_atom_site_label
_atom_site_type_symbol
_atom_site_fract_x
_atom_site_fract_y
_atom_site_fract_z
Zn1	Zn	1.034765	-0.314700	-0.382744
Zn2	Zn	1.034693	-0.446882	-0.269566
Zn3	Zn	0.921580	-0.314722	-0.269569
Zn4	Zn	0.921556	-0.446840	-0.382713
O5	O	0.978149	-0.380786	-0.326148
O6	O	1.129472	-0.332243	-0.367743
O7	O	1.019668	-0.429378	-0.174850
O8	O	0.936635	-0.204108	-0.284596
O9	O	1.129419	-0.429356	-0.284591
O10	O	1.019792	-0.204092	-0.367745
O11	O	0.936564	-0.332280	-0.174852
O12	O	0.826860	-0.332239	-0.284565
O13	O	0.936594	-0.429285	-0.477434
O14	O	0.826843	-0.429306	-0.367692
O15	O	1.019768	-0.332202	-0.477457
O16	O	1.019645	-0.557488	-0.284561
O17	O	0.936524	-0.557457	-0.367690
C18	C	0.802293	-0.380771	-0.326126
C19	C	0.727061	-0.380783	-0.326133
C20	C	0.691725	-0.431402	-0.369347
C21	C	0.621037	-0.431404	-0.369356
C22	C	0.585685	-0.380790	-0.326148
C23	C	0.621026	-0.330165	-0.282932
C24	C	0.691713	-0.330160	-0.282926
C25	C	0.335952	-0.330183	-0.282954
C26	C	0.265260	-0.330193	-0.282962
C27	C	0.265276	-0.431426	-0.369384
C28	C	0.335963	-0.431421	-0.369379
C29	C	0.371298	-0.380794	-0.326166
C30	C	0.447946	-0.380792	-0.326157
C31	C	0.509038	-0.380795	-0.326153
C32	C	0.978092	-0.586152	-0.326136
C33	C	0.978130	-0.674009	-0.326154
C34	C	0.934930	-1.045498	-0.369428
C35	C	1.021555	-1.045470	-0.282937
C36	C	1.021532	-0.962925	-0.282930
C37	C	0.978206	-0.921662	-0.326173
C38	C	0.934904	-0.962945	-0.369422
C39	C	1.064828	-0.921635	-0.239677
C40	C	1.064806	-0.839085	-0.239669
C41	C	1.021483	-0.797820	-0.282915
C42	C	0.978180	-0.839108	-0.326167
C43	C	0.934854	-0.797845	-0.369409
C44	C	0.891553	-0.839132	-0.412665
C45	C	0.891581	-0.921680	-0.412669
C46	C	1.021455	-0.715272	-0.282911
C47	C	0.934827	-0.715292	-0.369403
C48	C	1.154691	-0.380802	-0.326170
C49	C	1.229923	-0.380808	-0.326180
C50	C	0.978187	-0.380736	-0.502691
C51	C	0.978203	-0.380715	-0.577923
C52	C	0.978224	-0.174618	-0.326174
C53	C	0.978256	-0.086761	-0.326186
C54	C	1.021513	-0.330161	-0.613280
C55	C	1.021520	-0.330138	-0.683968
C56	C	0.978220	-0.380674	-0.719298
C57	C	0.934905	-0.431230	-0.683936
C58	C	0.934895	-0.431248	-0.613249
C59	C	0.934943	-0.431156	-0.969010
C60	C	0.934958	-0.431135	-1.039702
C61	C	1.021568	-0.330046	-1.039729
C62	C	1.021558	-0.330065	-0.969042
C63	C	0.978241	-0.380617	-0.933686
C64	C	0.978233	-0.380641	-0.857037
C65	C	0.978230	-0.380655	-0.795946
C66	C	0.978150	-0.380779	-0.150292
C67	C	0.978265	-0.380577	-0.075060
H68	H	0.720503	-0.472621	-0.404530
O69	O	0.370341	-0.281119	-0.240940
C70	C	0.450072	-0.270333	-0.149531
C71	C	0.411179	-0.325988	-0.197084
H72	H	0.483087	-0.306588	-0.114052
H73	H	0.483233	-0.229054	-0.180622
H74	H	0.412644	-0.234148	-0.118682
H75	H	0.448558	-0.362224	-0.227943
H76	H	0.378007	-0.367215	-0.165954
H77	H	0.236479	-0.288972	-0.247776
H78	H	0.899549	-0.681701	-0.404619
O79	O	1.063546	-0.280856	-0.934758
C80	C	1.096465	-0.146406	-0.913201
C81	C	1.048863	-0.202052	-0.952052
H82	H	1.084620	-0.082682	-0.927180
H83	H	1.089020	-0.155028	-0.856596
H84	H	1.151036	-0.160325	-0.927101
H85	H	0.994274	-0.188168	-0.938209
H86	H	1.056366	-0.193420	-1.008648
O87	O	0.849539	-0.961908	-0.454614
C88	C	0.811212	-1.089094	-0.492973
C89	C	0.858849	-1.043631	-0.445428
H90	H	0.818733	-1.155175	-0.485572
H91	H	0.756623	-1.072972	-0.481031
H92	H	0.823050	-1.072781	-0.547555
H93	H	0.847073	-1.059919	-0.390830
H94	H	0.913424	-1.059756	-0.457428
O95	O	1.106831	-0.961839	-0.197679
C96	C	1.145096	-1.089003	-0.159198
C97	C	1.097541	-1.043567	-0.206846
H98	H	1.137591	-1.155088	-0.166583
H99	H	1.199705	-1.072830	-0.171051
H100	H	1.133162	-1.072719	-0.104643
H101	H	1.109413	-1.059827	-0.261416
H102	H	1.042945	-1.059744	-0.194935
O103	O	0.586685	-0.480468	-0.411405
C104	C	0.506892	-0.491267	-0.502758
C105	C	0.545762	-0.435609	-0.455188
H106	H	0.473785	-0.455022	-0.538159
H107	H	0.544275	-0.527429	-0.533682
H108	H	0.473804	-0.532567	-0.471610
H109	H	0.578851	-0.394262	-0.486284
H110	H	0.508343	-0.399503	-0.424262
H111	H	0.364743	-0.472639	-0.404561
O112	O	1.106934	-0.799105	-0.197636
C113	C	1.192834	-0.807796	-0.111823
C114	C	1.145167	-0.853172	-0.159399
H115	H	1.223747	-0.851490	-0.080885
H116	H	1.228240	-0.769128	-0.142899
H117	H	1.161761	-0.769169	-0.076429
H118	H	1.176186	-0.891843	-0.194803
H119	H	1.109758	-0.891791	-0.128280
O120	O	0.892876	-0.480429	-0.718180
C121	C	0.860002	-0.614877	-0.739813
C122	C	0.907629	-0.559244	-0.700980
H123	H	0.871922	-0.678611	-0.725933
H124	H	0.805416	-0.601060	-0.725895
H125	H	0.867438	-0.606141	-0.796406
H126	H	0.900253	-0.567949	-0.644379
H127	H	0.962198	-0.573075	-0.714955
H128	H	0.899678	-1.079117	-0.404647
O129	O	0.892932	-0.480371	-0.934708
C130	C	0.859963	-0.614818	-0.913102
C131	C	0.907603	-0.559174	-0.951978
H132	H	0.871798	-0.678541	-0.927062
H133	H	0.867379	-0.606226	-0.856501
H134	H	0.805404	-0.600873	-0.927000
H135	H	0.962180	-0.573085	-0.938137
H136	H	0.900128	-0.567776	-1.008570
H137	H	1.056836	-0.288881	-1.068524
O138	O	0.726145	-0.281017	-0.241010
C139	C	0.835037	-0.236174	-0.202672
C140	C	0.796129	-0.291861	-0.250185
H141	H	0.891626	-0.244934	-0.210063
H142	H	0.821210	-0.172440	-0.214654
H143	H	0.821073	-0.249962	-0.148082
H144	H	0.810072	-0.278144	-0.304791
H145	H	0.809960	-0.355578	-0.238145
H146	H	1.056707	-0.681660	-0.247691
O147	O	0.892988	-0.480311	-1.074051
C148	C	0.883854	-0.586977	-1.153872
C149	C	0.931456	-0.531348	-1.115003
H150	H	0.914936	-0.628243	-1.187001
H151	H	0.852904	-0.623168	-1.116490
H152	H	0.848472	-0.550656	-1.186938
H153	H	0.966879	-0.567607	-1.081936
H154	H	0.962358	-0.495155	-1.152422
O155	O	0.586760	-0.281037	-0.240867
C156	C	0.565058	-0.242522	-0.125790
C157	C	0.603917	-0.298196	-0.173355
H158	H	0.578904	-0.256387	-0.071196
H159	H	0.578988	-0.178790	-0.137713
H160	H	0.508470	-0.251210	-0.133252
H161	H	0.660514	-0.289578	-0.165920
H162	H	0.589930	-0.361908	-0.161420
H163	H	0.899621	-0.472406	-0.584462
H164	H	0.236498	-0.472646	-0.404573
O165	O	1.063492	-0.280939	-0.718339
C166	C	1.072643	-0.174213	-0.798176
C167	C	1.025033	-0.229879	-0.759285
H168	H	1.041569	-0.132928	-0.831301
H169	H	1.103574	-0.138045	-0.760808
H170	H	1.108043	-0.210503	-0.831248
H171	H	0.989593	-0.193650	-0.726213
H172	H	0.994150	-0.266050	-0.796691
O173	O	0.849531	-0.798923	-0.454647
C174	C	0.811073	-0.671755	-0.492925
C175	C	0.858707	-0.717196	-0.445360
H176	H	0.818466	-0.605671	-0.485423
H177	H	0.822933	-0.687876	-0.547532
H178	H	0.756515	-0.688086	-0.481000
H179	H	0.913282	-0.700889	-0.457224
H180	H	0.846789	-0.701071	-0.390767
O181	O	1.063597	-0.280996	-0.579068
C182	C	1.149532	-0.180754	-0.586564
C183	C	1.101896	-0.236384	-0.625390
H184	H	1.180519	-0.144682	-0.623999
H185	H	1.118500	-0.139376	-0.553488
H186	H	1.184877	-0.217067	-0.553454
H187	H	1.066541	-0.200134	-0.658537
H188	H	1.132970	-0.277764	-0.658423
H189	H	1.056825	-1.079072	-0.247726
