data_functionalizedCrystal
_audit_creation_method	'MofGen! by Chris Wilmer'
_symmetry_space_group_name_H-M	'P1'
_symmetry_Int_Tables_number	1
_symmetry_cell_setting	triclinic
loop_
_symmetry_equiv_pos_as_xyz
  x,y,z
_cell_length_a	14.853567
_cell_length_b	14.853569
_cell_length_c	13.930277
_cell_angle_alpha	90.001614
_cell_angle_beta	89.995012
_cell_angle_gamma	83.635248
loop_
_atom_site_label
_atom_site_type_symbol
_atom_site_fract_x
_atom_site_fract_y
_atom_site_fract_z
O1	O	1.196370	0.117701	-0.079769
O2	O	0.933910	0.131722	-0.079782
O3	O	1.072150	-0.006518	-0.079779
O4	O	1.058130	0.255941	-0.079773
O5	O	1.072130	-0.006516	0.079883
O6	O	0.933890	0.131725	0.079880
O7	O	1.196349	0.117703	0.079892
Zn8	Zn	1.065116	0.124714	0.105236
Zn9	Zn	1.065143	0.124711	-0.105125
O10	O	1.058110	0.255944	0.079889
C11	C	0.900311	0.131088	0.000047
C12	C	0.800228	0.129184	0.000042
C13	C	1.071504	-0.040106	0.000049
C14	C	1.069600	-0.140189	0.000040
C15	C	1.229948	0.118337	0.000061
C16	C	1.330032	0.120241	0.000060
N17	N	1.065105	0.124716	0.248802
C18	C	1.742566	0.210407	0.000045
C19	C	1.763846	0.046174	0.000042
C20	C	1.669813	0.044384	0.000047
C21	C	1.612151	0.125606	0.000050
C22	C	1.648523	0.208619	0.000047
C23	C	1.633433	-0.038627	0.000039
C24	C	1.539394	-0.040421	0.000044
C25	C	1.481731	0.040803	0.000053
C26	C	1.518108	0.123819	0.000052
C27	C	1.460447	0.205041	0.000055
C28	C	1.496823	0.288058	0.000061
C29	C	1.590860	0.289843	0.000057
C30	C	1.387693	0.039019	0.000057
C31	C	1.366404	0.203254	0.000058
C32	C	1.058755	0.289531	0.000059
C33	C	1.060660	0.389615	0.000062
C34	C	1.143670	0.425991	0.000068
C35	C	0.979438	0.447281	0.000050
C36	C	0.981224	0.541315	0.000047
C37	C	1.064235	0.577691	0.000054
C38	C	1.145460	0.520034	0.000063
C39	C	0.900002	0.598979	0.000028
C40	C	0.901785	0.693020	0.000025
C41	C	0.984797	0.729398	0.000038
C42	C	1.066024	0.671734	0.000048
C43	C	1.149035	0.708111	0.000055
C44	C	1.230264	0.650448	0.000072
C45	C	1.228472	0.556412	0.000076
C46	C	0.986589	0.823434	0.000034
C47	C	1.150824	0.802153	0.000050
N48	N	1.065162	0.124702	-0.248692
C49	C	1.010364	0.069937	0.299061
C50	C	1.119857	0.179491	0.299048
C51	C	1.119868	0.179491	0.399544
C52	C	1.065128	0.124711	0.449803
C53	C	1.010376	0.069932	0.399566
C54	C	1.174625	0.234262	0.449788
C55	C	1.174640	0.234263	0.550290
C56	C	1.119894	0.179487	0.600551
C57	C	1.065139	0.124707	0.550308
C58	C	1.010399	0.069927	0.600567
C59	C	0.955638	0.015151	0.550326
C60	C	0.955630	0.015157	0.449827
C61	C	1.119902	0.179481	0.701050
C62	C	1.010410	0.069923	0.701072
H63	H	1.319461	0.269396	0.000066
O64	O	1.227934	0.287367	0.401016
C65	C	1.379696	0.322880	0.370276
C66	C	1.319430	0.262657	0.425555
H67	H	1.453680	0.302937	0.390111
H68	H	1.370359	0.313473	0.289804
H69	H	1.359648	0.396869	0.390038
H70	H	1.339439	0.188647	0.405873
H71	H	1.328774	0.272142	0.506013
O72	O	1.310977	0.685639	0.000032
C73	C	1.473689	0.654621	0.000107
C74	C	1.382349	0.614643	0.000133
H75	H	1.531416	0.597241	0.000209
H76	H	1.478699	0.698070	-0.066735
H77	H	1.478566	0.698161	0.066902
H78	H	1.377410	0.571063	-0.066617
H79	H	1.377377	0.571246	0.067018
H80	H	1.358080	-0.028572	0.000046
O81	O	0.819313	0.563755	0.000143
C82	C	0.678395	0.553142	0.082860
C83	C	0.769739	0.593113	0.082839
H84	H	0.638296	0.576847	0.149722
H85	H	0.638209	0.576897	0.016077
H86	H	0.691088	0.476028	0.082823
H87	H	0.757128	0.670228	0.082909
H88	H	0.809895	0.569287	0.149616
H89	H	0.835643	0.739961	0.000011
H90	H	0.920454	0.870378	0.000015
O91	O	1.626242	0.370454	-0.000110
C92	C	1.720121	0.467753	-0.082797
C93	C	1.680088	0.376442	-0.082737
H94	H	1.763679	0.472616	-0.149584
H95	H	1.662797	0.525540	-0.082852
H96	H	1.763576	0.472676	-0.015950
H97	H	1.636643	0.371430	-0.149572
H98	H	1.737454	0.318699	-0.082632
O99	O	1.227931	0.287339	0.599130
C100	C	1.349638	0.292770	0.712614
C101	C	1.289364	0.232552	0.657346
H102	H	1.399308	0.248502	0.759710
H103	H	1.388827	0.331900	0.659470
H104	H	1.305348	0.342505	0.759632
H105	H	1.333588	0.182767	0.610327
H106	H	1.250169	0.193486	0.710542
H107	H	1.772188	0.277997	0.000053
H108	H	0.965777	0.025342	0.258150
H109	H	0.911073	-0.029454	0.591260
H110	H	1.449863	0.354189	0.000058
O111	O	0.957210	0.016625	0.749742
C112	C	0.848559	-0.091993	0.739152
C113	C	0.908780	-0.031695	0.683914
H114	H	0.809374	-0.131061	0.685954
H115	H	0.892799	-0.141771	0.786161
H116	H	0.798872	-0.047730	0.786247
H117	H	0.958475	-0.075885	0.636767
H118	H	0.864483	0.018089	0.636966
H119	H	0.911049	-0.029440	0.408912
H120	H	1.164490	0.224076	0.741951
H121	H	1.164429	0.224085	0.258121
H122	H	1.680387	-0.104754	0.000032
O123	O	1.503913	-0.120980	0.000001
C124	C	1.368477	-0.196525	0.000069
C125	C	1.408541	-0.105230	0.000092
H126	H	1.291364	-0.183822	0.000163
H127	H	1.392151	-0.236682	-0.066768
H128	H	1.392269	-0.236665	0.066869
H129	H	1.384768	-0.065016	-0.066662
H130	H	1.384872	-0.065141	0.066973
O131	O	0.898749	0.412056	0.000166
C132	C	0.757837	0.401436	0.082892
C133	C	0.849181	0.441406	0.082869
H134	H	0.717744	0.425134	0.149760
H135	H	0.717646	0.425198	0.016114
H136	H	0.770530	0.324322	0.082846
H137	H	0.836571	0.518521	0.082948
H138	H	0.889343	0.417573	0.149640
H139	H	1.810799	-0.019954	0.000033
H140	H	1.294603	0.509455	0.000090
H141	H	1.218422	0.831763	0.000060
H142	H	1.209805	0.379039	0.000086
