data_functionalizedCrystal
_audit_creation_method	'MofGen! by Chris Wilmer'
_symmetry_space_group_name_H-M	'P1'
_symmetry_Int_Tables_number	1
_symmetry_cell_setting	triclinic
loop_
_symmetry_equiv_pos_as_xyz
  x,y,z
_cell_length_a	12.759401
_cell_length_b	13.897448
_cell_length_c	12.759393
_cell_angle_alpha	89.966654
_cell_angle_beta	89.981504
_cell_angle_gamma	90.017853
loop_
_atom_site_label
_atom_site_type_symbol
_atom_site_fract_x
_atom_site_fract_y
_atom_site_fract_z
Zn1	Zn	1.606234	-0.383954	-0.593968
Zn2	Zn	1.606119	-0.545283	-0.418283
Zn3	Zn	1.430536	-0.384004	-0.418308
Zn4	Zn	1.430515	-0.545209	-0.593924
O5	O	1.518351	-0.464613	-0.506121
O6	O	1.753239	-0.405365	-0.570671
O7	O	1.582788	-0.523942	-0.271265
O8	O	1.453899	-0.249016	-0.441638
O9	O	1.753155	-0.523893	-0.441596
O10	O	1.582983	-0.248979	-0.570695
O11	O	1.453788	-0.405451	-0.271283
O12	O	1.283512	-0.405379	-0.441596
O13	O	1.453864	-0.523766	-0.740951
O14	O	1.283497	-0.523815	-0.570621
O15	O	1.582964	-0.405293	-0.740984
O16	O	1.582768	-0.680255	-0.441554
O17	O	1.453753	-0.680201	-0.570597
C18	C	1.245383	-0.464595	-0.506107
C19	C	1.128607	-0.464611	-0.506125
C20	C	1.518274	-0.715227	-0.506090
C21	C	1.518337	-0.822441	-0.506113
C22	C	1.073764	-0.526379	-0.573198
C23	C	0.964040	-0.526391	-0.573209
C24	C	0.964011	-0.402864	-0.439067
C25	C	1.073733	-0.402847	-0.439062
C26	C	1.073780	-0.597700	-0.650640
C27	C	0.964056	-0.597712	-0.650652
C28	C	1.518448	-1.018736	-0.506178
C29	C	1.518383	-0.909503	-0.506145
C30	C	1.792384	-0.464631	-0.506136
C31	C	1.909161	-0.464639	-0.506142
C32	C	1.518424	-0.464515	-0.780154
C33	C	1.518456	-0.464474	-0.896931
C34	C	1.518456	-0.213020	-0.506174
C35	C	1.518501	-0.105806	-0.506197
C36	C	1.585687	-0.402779	-0.951812
C37	C	1.585712	-0.402744	-1.061536
C38	C	1.451271	-0.526107	-1.061489
C39	C	1.451242	-0.526137	-0.951767
C40	C	1.663309	-0.331559	-0.951839
C41	C	1.663334	-0.331524	-1.061564
C42	C	1.518338	-0.464640	-0.233154
C43	C	1.518510	-0.464410	-0.116377
H44	H	0.919319	-0.352578	-0.384467
H45	H	1.634224	-0.260546	-1.095614
H46	H	0.934257	-0.672400	-0.628717
C47	C	1.773245	-0.358566	-1.101814
C48	C	1.787903	-0.448195	-1.171188
C49	C	1.897806	-0.475240	-1.211443
C50	C	1.993050	-0.412655	-1.182325
C51	C	1.978395	-0.323021	-1.112947
C52	C	1.868492	-0.295976	-1.072691
H53	H	1.717395	-0.494529	-1.192746
H54	H	1.908654	-0.541594	-1.262801
H55	H	2.074407	-0.432676	-1.212124
H56	H	2.048903	-0.276687	-1.091388
H57	H	1.857644	-0.229622	-1.021333
H58	H	1.740579	-0.358339	-0.917803
H59	H	1.107791	-0.668626	-0.621353
C60	C	1.134053	-0.334900	-0.365277
C61	C	1.118984	-0.225256	-0.374059
C62	C	1.179301	-0.157308	-0.300265
C63	C	1.254687	-0.199004	-0.217689
C64	C	1.269760	-0.308653	-0.208904
C65	C	1.209443	-0.376601	-0.282698
H66	H	1.063176	-0.194386	-0.435189
H67	H	1.168143	-0.076138	-0.306769
H68	H	1.299338	-0.148705	-0.163063
H69	H	1.325568	-0.339524	-0.147773
H70	H	1.220601	-0.457771	-0.276193
C71	C	0.918118	-0.561691	-0.755145
C72	C	0.991798	-0.530811	-0.844673
C73	C	0.945857	-0.494786	-0.949161
C74	C	0.826236	-0.489641	-0.964121
C75	C	0.752548	-0.520521	-0.874590
C76	C	0.798489	-0.556546	-0.770102
H77	H	1.080356	-0.534619	-0.833601
H78	H	1.000407	-0.471926	-1.015437
H79	H	0.792227	-0.462973	-1.041469
H80	H	0.663990	-0.516714	-0.885661
H81	H	0.743939	-0.579406	-0.703825
C82	C	1.377267	-0.593994	-0.891411
C83	C	1.257843	-0.586086	-0.906517
C84	C	1.183858	-0.653945	-0.846167
C85	C	1.229297	-0.729713	-0.770712
C86	C	1.348727	-0.737625	-0.755602
C87	C	1.422711	-0.669766	-0.815952
H88	H	1.224201	-0.529995	-0.962376
H89	H	1.095448	-0.648088	-0.857352
H90	H	1.174529	-0.779947	-0.726037
H91	H	1.382369	-0.793716	-0.699743
H92	H	1.511122	-0.675623	-0.804767
C93	C	1.377343	-0.593938	-1.121811
C94	C	1.377369	-0.593908	-1.242501
C95	C	1.303440	-0.661741	-1.302821
C96	C	1.229486	-0.729605	-1.242450
C97	C	1.229458	-0.729639	-1.121754
C98	C	1.303387	-0.661805	-1.061434
H99	H	1.432116	-0.543668	-1.287197
H100	H	1.303461	-0.661716	-1.392169
H101	H	1.174760	-0.779820	-1.287102
H102	H	1.174710	-0.779878	-1.077058
H103	H	1.303365	-0.661830	-0.972086
C104	C	1.633899	-0.230649	-0.911633
C105	C	1.702146	-0.143235	-0.940821
C106	C	1.672736	-0.042328	-0.900614
C107	C	1.575078	-0.028836	-0.831221
C108	C	1.506825	-0.116253	-0.802030
C109	C	1.536236	-0.217159	-0.842236
H110	H	1.774443	-0.153220	-0.992193
H111	H	1.723261	0.022383	-0.922224
H112	H	1.553307	0.045861	-0.801458
H113	H	1.434528	-0.106268	-0.750657
H114	H	1.485710	-0.281871	-0.820626
H115	H	1.103590	-0.577777	-0.732048
