data_functionalizedCrystal
_audit_creation_method	'MofGen! by Chris Wilmer'
_symmetry_space_group_name_H-M	'P1'
_symmetry_Int_Tables_number	1
_symmetry_cell_setting	triclinic
loop_
_symmetry_equiv_pos_as_xyz
  x,y,z
_cell_length_a	14.853567
_cell_length_b	23.532407
_cell_length_c	22.610064
_cell_angle_alpha	89.990850
_cell_angle_beta	89.987687
_cell_angle_gamma	83.241804
loop_
_atom_site_label
_atom_site_type_symbol
_atom_site_fract_x
_atom_site_fract_y
_atom_site_fract_z
O1	O	1.195566	0.074352	-0.049150
O2	O	0.933009	0.083209	-0.049161
O3	O	1.072205	-0.004117	-0.049144
O4	O	1.056370	0.161678	-0.049167
O5	O	1.072164	-0.004117	0.049225
O6	O	0.932969	0.083209	0.049208
O7	O	1.195525	0.074352	0.049219
Zn8	Zn	1.064241	0.078780	0.064832
Zn9	Zn	1.064294	0.078780	-0.064774
O10	O	1.056330	0.161677	0.049203
C11	C	0.899405	0.082808	0.000022
C12	C	0.799334	0.081605	0.000019
C13	C	0.387423	0.024648	0.000040
C14	C	0.365008	0.128393	0.000025
C15	C	0.459029	0.129524	0.000023
C16	C	0.517252	0.078216	0.000028
C17	C	0.481454	0.025777	0.000036
C18	C	0.494835	0.181961	0.000010
C19	C	0.588861	0.183094	0.000007
C20	C	0.647086	0.131786	0.000017
C21	C	0.611283	0.079345	0.000025
C22	C	0.669506	0.028037	0.000030
C23	C	0.633704	-0.024404	0.000042
C24	C	0.539679	-0.025531	0.000045
C25	C	0.741111	0.132913	0.000013
C26	C	0.763536	0.029166	0.000026
C27	C	1.071782	-0.025335	0.000042
C28	C	1.070569	-0.088557	0.000046
C29	C	1.145338	-0.487334	0.000017
C30	C	1.144212	-0.546739	0.000012
O31	O	1.213524	-0.583181	-0.000007
N32	N	1.061460	-0.569726	0.000009
C33	C	0.979829	-0.533305	0.000005
O34	O	0.909339	-0.558312	0.000001
C35	C	0.980957	-0.473901	0.000005
C36	C	1.063714	-0.450917	0.000014
C37	C	1.228089	-0.464349	0.000025
C38	C	1.229214	-0.404948	0.000031
C39	C	1.147590	-0.368531	0.000028
C40	C	1.064839	-0.391516	0.000020
C41	C	0.899327	-0.437481	-0.000003
C42	C	0.900461	-0.378073	-0.000004
C43	C	0.983218	-0.355089	0.000005
C44	C	0.984341	-0.295698	0.000023
N45	N	1.067092	-0.272711	0.000026
C46	C	1.148717	-0.309128	0.000029
C47	C	0.977469	-0.658058	0.000003
C48	C	0.976340	-0.717461	0.000007
C49	C	1.140723	-0.730890	0.000014
C50	C	1.141851	-0.671486	0.000014
C51	C	1.060220	-0.635070	0.000006
C52	C	1.151075	-0.184380	0.000041
C53	C	1.152194	-0.124974	0.000049
C54	C	0.987811	-0.111549	0.000039
C55	C	0.986692	-0.170951	0.000034
C56	C	1.068331	-0.207365	0.000033
O57	O	0.915065	-0.259221	0.000039
O58	O	1.219196	-0.284112	0.000024
C59	C	1.229130	0.074753	0.000034
C60	C	1.329200	0.075956	0.000034
C61	C	1.056753	0.182895	0.000015
C62	C	1.057966	0.246118	0.000007
N63	N	1.064211	0.078780	0.153284
N64	N	1.064331	0.078776	-0.153226
C65	C	1.118661	0.113378	0.561923
C66	C	1.118672	0.113377	0.623843
O67	O	1.164931	0.142790	0.655860
N68	N	1.064311	0.078774	0.654822
C69	C	1.009943	0.044166	0.623877
O70	O	0.963707	0.014733	0.655912
C71	C	1.009937	0.044165	0.561958
C72	C	1.064294	0.078774	0.530983
C73	C	1.173014	0.147984	0.530948
C74	C	1.173001	0.147986	0.469033
C75	C	1.118635	0.113382	0.438092
C76	C	1.064281	0.078776	0.469067
C77	C	0.955574	0.009554	0.531014
C78	C	0.955574	0.009555	0.469091
C79	C	1.009931	0.044165	0.438116
C80	C	1.009902	0.044174	0.376211
N81	N	1.064263	0.078777	0.345233
C82	C	1.118629	0.113381	0.376173
C83	C	1.009961	0.044170	0.753910
C84	C	1.009961	0.044174	0.815828
C85	C	1.118691	0.113385	0.815790
C86	C	1.118686	0.113383	0.753871
C87	C	1.064321	0.078773	0.722932
C88	C	1.118597	0.113383	0.246146
C89	C	1.118577	0.113384	0.184225
C90	C	1.009851	0.044172	0.184268
C91	C	1.009867	0.044173	0.246184
C92	C	1.064248	0.078780	0.277121
O93	O	0.963669	0.014774	0.344155
O94	O	1.164866	0.142803	0.344131
H95	H	1.217554	-0.214023	0.000038
N96	N	0.305552	0.180805	0.000026
N97	N	0.337528	0.227620	0.000023
H98	H	0.295535	0.264639	0.000025
N99	N	0.954415	0.008828	0.847455
N100	N	0.905877	-0.022062	0.819815
H101	H	0.866648	-0.047028	0.842149
H102	H	1.217290	0.176163	0.556133
N103	N	0.954420	0.008811	0.722318
N104	N	0.905895	-0.022082	0.749990
H105	H	0.866672	-0.047057	0.727681
H106	H	0.911312	-0.018630	0.556223
N107	N	1.174231	0.148721	0.722232
N108	N	1.234034	0.126546	0.687679
H109	H	1.273269	0.151502	0.665335
H110	H	0.911303	-0.018629	0.443903
N111	N	1.174213	0.148736	0.847411
N112	N	1.174201	0.148729	0.902695
H113	H	1.213406	0.173697	0.925030
H114	H	0.447423	0.223733	-0.000001
H115	H	0.831937	-0.456183	-0.000014
H116	H	1.209239	-0.652777	0.000021
H117	H	0.618003	0.225795	-0.000003
H118	H	0.358269	-0.018049	0.000052
H119	H	0.965594	0.015998	0.271405
H120	H	0.921355	-0.081888	0.000039
N121	N	1.174125	0.148746	0.277741
N122	N	1.138585	0.186362	0.312288
H123	H	1.177796	0.211341	0.334602
N124	N	0.894080	-0.620861	-0.000008
N125	N	0.838940	-0.622996	-0.041476
H126	H	0.780047	-0.596729	-0.041486
H127	H	0.965584	0.015999	0.159065
N128	N	0.817066	-0.340884	-0.000019
N129	N	0.743190	-0.361418	-0.000030
H130	H	0.684292	-0.335155	-0.000041
N131	N	0.902152	-0.194422	0.000043
N132	N	0.829280	-0.161898	0.000050
H133	H	0.769571	-0.178470	0.000055
N134	N	1.174107	0.148743	0.152595
N135	N	1.222645	0.179635	0.180232
H136	H	1.261864	0.204607	0.157896
N137	N	0.503121	-0.079099	0.000059
N138	N	0.521113	-0.113707	0.041528
H139	H	0.495292	-0.151539	0.041537
H140	H	0.810936	-0.012615	0.000033
N141	N	0.693169	-0.076818	0.000055
N142	N	0.661200	-0.123636	0.000070
H143	H	0.703199	-0.160653	0.000080
H144	H	1.207187	-0.760552	0.000013
N145	N	0.777668	0.186478	-0.000004
N146	N	0.725674	0.232284	-0.000014
H147	H	0.751490	0.270118	-0.000026
H148	H	1.219587	-0.106264	0.000058
N149	N	1.313751	-0.381477	0.000045
N150	N	1.368640	-0.392620	0.041511
H151	H	1.428349	-0.376047	0.041520
N152	N	1.311482	-0.501534	0.000024
N153	N	1.385353	-0.480993	0.000029
H154	H	1.444256	-0.507251	0.000032
H155	H	0.908951	-0.736168	0.000010
N156	N	1.228521	0.183350	0.437406
N157	N	1.277047	0.214245	0.465049
H158	H	1.316258	0.239225	0.442717
