data_functionalizedCrystal
_audit_creation_method	'MofGen! by Chris Wilmer'
_symmetry_space_group_name_H-M	'P1'
_symmetry_Int_Tables_number	1
_symmetry_cell_setting	triclinic
loop_
_symmetry_equiv_pos_as_xyz
  x,y,z
_cell_length_a	6.817900
_cell_length_b	11.102288
_cell_length_c	11.168136
_cell_angle_alpha	91.983489
_cell_angle_beta	108.508683
_cell_angle_gamma	108.605689
loop_
_atom_site_label
_atom_site_type_symbol
_atom_site_fract_x
_atom_site_fract_y
_atom_site_fract_z
V1	V	-4.110388	-0.175858	-0.393699
O2	O	-4.069442	0.008431	-0.386205
O3	O	-4.087173	-0.348678	-0.391007
O4	O	-4.086671	-0.173162	-0.565405
O5	O	-4.069948	-0.168301	-0.210599
V6	V	-4.587554	-0.153814	-0.371799
O7	O	-4.385590	-0.224214	-0.441739
O8	O	-4.762549	-0.105458	-0.323759
O9	O	-4.387563	0.019006	-0.374492
O10	O	-4.745897	-0.338103	-0.379294
O11	O	-4.745391	-0.161372	-0.554899
O12	O	-4.388065	-0.156511	-0.200093
C13	C	-3.937502	-0.390808	-0.384796
C14	C	-3.999972	-0.532091	-0.383739
C15	C	-4.213310	-0.604939	-0.389542
C16	C	-4.272001	-0.737691	-0.388559
C17	C	-3.903991	-0.724732	-0.375964
C18	C	-3.845308	-0.591984	-0.376957
C19	C	-3.936860	-0.166917	-0.607257
C20	C	-3.998918	-0.165856	-0.747627
C21	C	-4.201443	-0.171411	-0.816319
C22	C	-4.265588	-0.170315	-0.961399
C23	C	-4.200576	0.061129	-0.380699
C24	C	-4.117346	0.202410	-0.381764
C25	C	-4.201217	-0.162759	-0.158235
C26	C	-4.118396	-0.163814	-0.017863
H27	H	-3.671579	-0.532669	-0.372235
H28	H	-4.445718	-0.796999	-0.393287
H29	H	-3.778076	-0.773513	-0.370439
H30	H	-4.339250	-0.556178	-0.395064
H31	H	-4.327338	-0.176970	-0.767720
F32	F	-4.492368	-0.176538	-1.038579
H33	H	-3.944901	-0.159066	-0.958822
H34	H	-3.873014	-0.160280	-0.796223
