data_functionalizedCrystal
_audit_creation_method	'MofGen! by Chris Wilmer'
_symmetry_space_group_name_H-M	'P1'
_symmetry_Int_Tables_number	1
_symmetry_cell_setting	triclinic
loop_
_symmetry_equiv_pos_as_xyz
  x,y,z
_cell_length_a	12.645330
_cell_length_b	11.169417
_cell_length_c	11.169409
_cell_angle_alpha	90.021649
_cell_angle_beta	89.967722
_cell_angle_gamma	89.984086
loop_
_atom_site_label
_atom_site_type_symbol
_atom_site_fract_x
_atom_site_fract_y
_atom_site_fract_z
Zn1	Zn	-0.422004	-1.834901	-0.678602
Zn2	Zn	-0.599315	-1.834765	-0.477919
Zn3	Zn	-0.422060	-1.634187	-0.477930
Zn4	Zn	-0.599220	-1.634169	-0.678557
O5	O	-0.510650	-1.734505	-0.578252
O6	O	-0.445540	-2.002833	-0.651995
O7	O	-0.575865	-1.808108	-0.309970
O8	O	-0.273705	-1.660877	-0.504572
O9	O	-0.575810	-2.002732	-0.504554
O10	O	-0.273664	-1.808341	-0.652005
O11	O	-0.445637	-1.660745	-0.309978
O12	O	-0.445545	-1.466235	-0.504529
O13	O	-0.575649	-1.660846	-0.846513
O14	O	-0.575704	-1.466221	-0.651929
O15	O	-0.445449	-1.808323	-0.846546
O16	O	-0.747649	-1.808090	-0.504511
O17	O	-0.747580	-1.660713	-0.651919
C18	C	-0.510621	-1.422681	-0.578226
C19	C	-0.510634	-1.289281	-0.578244
C20	C	-0.786079	-1.734418	-0.578235
C21	C	-0.903909	-1.734490	-0.578268
C22	C	-1.071474	-1.642158	-0.671288
C23	C	-0.948914	-1.641685	-0.670989
C24	C	-0.948517	-1.700247	-0.451784
C25	C	-1.071115	-1.699683	-0.452349
C26	C	-1.070999	-1.861631	-0.610706
C27	C	-0.948391	-1.860852	-0.613471
C28	C	-0.234144	-1.734626	-0.578295
C29	C	-0.116314	-1.734677	-0.578313
C30	C	-0.510532	-1.734597	-0.891294
C31	C	-0.510482	-1.734637	-1.024694
C32	C	-0.510669	-1.047548	-0.578270
C33	C	-0.510651	-1.180948	-0.578257
C34	C	-0.510690	-1.734483	-0.266427
C35	C	-0.510442	-1.734676	-0.133028
H36	H	-0.918750	-1.663110	-0.764776
C37	C	-1.109885	-1.574311	-0.415287
C38	C	-1.179761	-1.559179	-0.303336
C39	C	-1.218523	-1.433803	-0.266276
C40	C	-1.187410	-1.323560	-0.341167
C41	C	-1.117530	-1.338690	-0.453124
C42	C	-1.078768	-1.464065	-0.490184
H43	H	-1.202796	-1.640790	-0.247892
H44	H	-1.270253	-1.422604	-0.183398
H45	H	-1.216105	-1.230750	-0.313733
H46	H	-1.094495	-1.257078	-0.508569
H47	H	-1.027038	-1.475264	-0.573063
H48	H	-1.100876	-1.663386	-0.765383
C49	C	-0.909413	-1.514541	-0.641990
C50	C	-0.939708	-1.454962	-0.522436
C51	C	-0.900209	-1.327812	-0.493432
C52	C	-0.830415	-1.260241	-0.583982
C53	C	-0.800116	-1.319821	-0.703544
C54	C	-0.839615	-1.446971	-0.732549
H55	H	-0.991377	-1.504981	-0.455398
H56	H	-0.922638	-1.283707	-0.404923
H57	H	-0.801175	-1.166117	-0.562511
H58	H	-0.748447	-1.269801	-0.770582
H59	H	-0.817185	-1.491075	-0.821057
H60	H	-1.102374	-1.548628	-0.650103
H61	H	-1.100783	-1.764146	-0.380713
C62	C	-1.112644	-1.903836	-0.733189
C63	C	-1.232372	-1.918766	-0.753382
C64	C	-1.274018	-1.960956	-0.875870
C65	C	-1.195935	-1.988216	-0.978164
C66	C	-1.076199	-1.973287	-0.957974
C67	C	-1.034554	-1.931096	-0.835486
H68	H	-1.290180	-1.898586	-0.677655
H69	H	-1.362655	-1.972007	-0.890815
H70	H	-1.226764	-2.019448	-1.068837
H71	H	-1.018391	-1.993467	-1.033701
H72	H	-0.945917	-1.920045	-0.820541
C73	C	-0.909141	-1.788386	-0.355633
C74	C	-0.835848	-1.892730	-0.390934
C75	C	-0.796471	-1.980871	-0.294785
C76	C	-0.830385	-1.964667	-0.163335
C77	C	-0.903681	-1.860318	-0.128028
C78	C	-0.943059	-1.772177	-0.224177
H79	H	-0.810739	-1.904729	-0.488246
H80	H	-0.742212	-2.058117	-0.320922
H81	H	-0.801235	-2.029914	-0.092159
H82	H	-0.928790	-1.848318	-0.030715
H83	H	-0.997318	-1.694931	-0.198039
H84	H	-1.099996	-1.930560	-0.542988
C85	C	-0.907181	-1.576176	-0.414040
C86	C	-0.833009	-1.505828	-0.497756
C87	C	-0.791676	-1.381754	-0.460019
C88	C	-0.824513	-1.328027	-0.338567
C89	C	-0.898688	-1.398375	-0.254843
C90	C	-0.940022	-1.522449	-0.292579
H91	H	-0.808697	-1.545599	-0.587669
H92	H	-0.736766	-1.329678	-0.521998
H93	H	-0.793915	-1.236180	-0.310632
H94	H	-0.923000	-1.358604	-0.164930
H95	H	-0.994932	-1.574525	-0.230601
H96	H	-0.919231	-1.886676	-0.706557
H97	H	-0.917750	-1.933414	-0.550684
