data_functionalizedCrystal
_audit_creation_method	'MofGen! by Chris Wilmer'
_symmetry_space_group_name_H-M	'P1'
_symmetry_Int_Tables_number	1
_symmetry_cell_setting	triclinic
loop_
_symmetry_equiv_pos_as_xyz
  x,y,z
_cell_length_a	17.052733
_cell_length_b	20.919287
_cell_length_c	20.919327
_cell_angle_alpha	83.690433
_cell_angle_beta	51.172407
_cell_angle_gamma	51.170522
loop_
_atom_site_label
_atom_site_type_symbol
_atom_site_fract_x
_atom_site_fract_y
_atom_site_fract_z
Zr1	Zr	1.123971	0.437767	-0.303877
O2	O	1.338191	0.305524	-0.436115
O3	O	0.909749	0.502825	-0.238822
O4	O	1.123968	0.474851	-0.408145
O5	O	1.123975	0.327672	-0.161114
O6	O	1.123969	0.580529	-0.413972
O7	O	1.123972	0.333497	-0.266791
O8	O	0.740769	0.630569	-0.111083
O9	O	1.507175	0.277633	-0.464003
O10	O	0.997863	0.579815	-0.245046
O11	O	0.997865	0.496602	-0.161832
O12	O	1.250081	0.463667	-0.361189
O13	O	1.250083	0.380454	-0.277976
Zr14	Zr	1.123977	0.597021	-0.144627
Zr15	Zr	1.123972	0.606311	-0.313169
Zr16	Zr	1.123976	0.428477	-0.135335
Zr17	Zr	1.393480	0.393285	-0.348356
Zr18	Zr	0.854468	0.641504	-0.100148
O19	O	1.338199	0.531963	-0.209682
O20	O	1.338192	0.545172	-0.449327
O21	O	1.338198	0.292315	-0.196470
O22	O	0.909757	0.729264	-0.012389
O23	O	0.909750	0.742473	-0.252034
O24	O	0.909755	0.489616	0.000823
O25	O	1.123973	0.707116	-0.287390
O26	O	1.123979	0.559937	-0.040358
O27	O	1.123979	0.454259	-0.034532
O28	O	1.123976	0.701291	-0.181713
O29	O	1.507175	0.411603	-0.471390
O30	O	0.740773	0.623185	0.022886
O31	O	0.740773	0.757155	0.015500
O32	O	0.740770	0.764539	-0.118469
O33	O	1.507178	0.270249	-0.330035
O34	O	1.507179	0.404219	-0.337421
O35	O	0.997867	0.571121	-0.087315
O36	O	0.997865	0.654335	-0.170528
O37	O	1.250083	0.538186	-0.286672
O38	O	1.250085	0.454973	-0.203458
C39	C	0.786860	0.573034	-0.168615
C40	C	0.672446	0.591918	-0.149732
C41	C	0.525597	0.671170	-0.070487
C42	C	0.418102	0.688908	-0.052746
C43	C	0.457445	0.627401	-0.114251
C44	C	0.604297	0.548151	-0.193500
C45	C	0.711802	0.530407	-0.211240
C46	C	0.643651	0.486637	-0.255003
C47	C	0.790502	0.407387	-0.334253
C48	C	0.897995	0.389647	-0.351990
C49	C	0.858652	0.451155	-0.290485
C50	C	0.536145	0.504381	-0.237264
C51	C	0.722351	0.363618	-0.378016
C52	C	0.829846	0.345880	-0.395758
C53	C	1.123973	0.306571	-0.212629
C54	C	1.123973	0.235019	-0.208684
C55	C	1.123975	0.204612	-0.265051
C56	C	1.123967	0.137385	-0.261339
C57	C	1.123967	0.100562	-0.201265
C58	C	1.123961	0.130975	-0.144892
C59	C	1.123958	0.198206	-0.148599
C60	C	1.123966	-0.102587	-0.187154
C61	C	1.123973	-0.169824	-0.183453
C62	C	1.123977	-0.163408	-0.299900
C63	C	1.123983	-0.096181	-0.303606
C64	C	1.123968	-0.065770	-0.247229
C65	C	1.123964	0.031843	-0.197472
C66	C	1.123961	0.002953	-0.251018
C67	C	1.461088	0.461754	-0.279889
C68	C	1.575502	0.442870	-0.298772
C69	C	1.123968	0.529014	-0.435072
C70	C	1.123966	0.532958	-0.506623
C71	C	1.123975	0.728217	-0.235875
C72	C	1.123975	0.799769	-0.239820
C73	C	1.123963	0.476594	-0.537030
C74	C	1.123974	0.480299	-0.604265
C75	C	1.123977	0.540374	-0.641088
C76	C	1.123984	0.596739	-0.610678
C77	C	1.123984	0.593029	-0.543449
C78	C	1.123988	0.554486	-0.844242
C79	C	1.123985	0.558194	-0.911474
C80	C	1.123977	0.441752	-0.905058
C81	C	1.123968	0.438051	-0.837823
C82	C	1.123983	0.494413	-0.807423
C83	C	1.123984	0.544165	-0.709811
C84	C	1.123986	0.490617	-0.738706
C85	C	1.123980	0.505774	-0.013432
C86	C	1.123982	0.501830	0.058119
C87	C	0.786861	0.783858	-0.180238
C88	C	0.672447	0.874293	-0.165300
C89	C	0.786865	0.561415	0.042205
C90	C	0.672454	0.576355	0.132639
C91	C	0.786866	0.772238	0.030582
C92	C	0.672455	0.858730	0.117071
C93	C	1.461081	0.262550	-0.479086
C94	C	1.575493	0.176059	-0.565574
C95	C	1.461087	0.250930	-0.268266
C96	C	1.575501	0.160495	-0.283204
C97	C	1.461082	0.473374	-0.490709
C98	C	1.575494	0.458433	-0.581142
C99	C	0.618716	0.877865	-0.197190
C100	C	0.511228	0.962830	-0.183172
C101	C	0.457465	1.044224	-0.137259
C102	C	0.511207	1.040649	-0.105370
C103	C	0.618701	0.955684	-0.119394
C104	C	0.618727	0.622269	0.214011
C105	C	0.511240	0.636301	0.298987
C106	C	0.457475	0.604424	0.302589
C107	C	0.511213	0.558503	0.221207
C108	C	0.618705	0.544466	0.136232
C109	C	0.618726	0.942790	0.114249
C110	C	0.511239	1.024063	0.195505
C111	C	0.457477	1.021274	0.279582
C112	C	0.511217	0.937203	0.282400
C113	C	0.618709	0.855932	0.201144
C114	C	1.629235	0.091995	-0.562755
C115	C	1.736755	0.010718	-0.644017
C116	C	1.790523	0.013506	-0.728095
C117	C	1.736776	0.097578	-0.730912
C118	C	1.629265	0.178852	-0.649653
C119	C	1.629243	0.156922	-0.251323
C120	C	1.736761	0.071953	-0.265365
C121	C	1.790528	-0.009442	-0.311281
C122	C	1.736781	-0.005867	-0.343165
C123	C	1.629272	0.079101	-0.329130
C124	C	1.629224	0.490323	-0.584714
C125	C	1.736712	0.476302	-0.669678
C126	C	1.790474	0.430386	-0.751070
C127	C	1.736733	0.398498	-0.747495
C128	C	1.629240	0.412524	-0.662531
H129	H	0.493582	0.721238	-0.020415
H130	H	0.467495	1.092509	0.193195
F131	F	0.675866	0.951898	-0.085442
F132	F	0.343058	1.134647	-0.122339
H133	H	0.467417	1.106932	-0.067987
F134	F	1.572043	0.243538	-0.202456
F135	F	0.675923	0.656206	0.210199
F136	F	1.793975	0.349624	-0.834128
F137	F	1.123968	-0.007353	-0.133538
F138	F	0.343070	0.619371	0.393034
H139	H	1.123968	0.112629	-0.307237
H140	H	0.467422	0.532552	0.224154
F141	F	1.123984	-0.056992	-0.367544
H142	H	0.416586	0.568907	-0.172737
F143	F	0.675868	0.495603	0.049634
F144	F	1.123985	0.243791	-0.328996
F145	F	1.123966	0.381769	-0.937418
F146	F	1.904946	-0.073002	-0.814572
F147	F	1.793938	0.068168	-0.231420
H148	H	1.585463	0.089709	-0.494302
H149	H	0.662483	0.945079	0.045798
H150	H	1.780457	0.502271	-0.672571
H151	H	1.878002	0.418971	-0.820246
F152	F	0.454064	0.685177	0.385589
H153	H	0.369913	0.641848	-0.099800
F154	F	0.261822	0.773246	0.031597
F155	F	1.572078	0.378570	-0.658745
H156	H	1.123953	0.032940	-0.299927
F157	F	1.904948	-0.099866	-0.326211
F158	F	1.123974	0.420310	-0.636628
F159	F	1.123956	-0.070229	-0.127157
H160	H	0.946175	0.436719	-0.304928
H161	H	1.123983	0.593080	-0.739796
F162	F	0.986143	0.261538	-0.480098
F163	F	1.054285	0.305293	-0.436326
H164	H	0.754392	0.313534	-0.428099
F165	F	1.794015	-0.092501	-0.392029
F166	F	0.343072	1.107779	0.366056
H167	H	1.123986	-0.188174	-0.345798
F168	F	1.793934	-0.078747	-0.640999
F169	F	1.123991	0.426680	-0.699519
H170	H	1.123974	-0.199804	-0.134531
F171	F	0.453984	0.934249	0.371890
H172	H	1.123952	0.100994	-0.095973
H173	H	0.662442	0.787490	0.203455
H174	H	1.585509	0.247298	-0.651958
F175	F	1.123949	0.230569	-0.088602
F176	F	1.794012	0.100531	-0.820402
F177	F	1.123950	0.412659	-0.497841
H178	H	1.585518	0.081998	-0.355089
H179	H	1.123965	0.389134	-0.807843
F180	F	1.123985	0.622139	-0.950659
H181	H	1.123997	0.600380	-0.819494
F182	F	1.123998	0.660671	-0.649873
F183	F	1.123993	0.653016	-0.511092
H184	H	0.662489	0.811597	-0.234587
F185	F	0.454047	0.966616	-0.217113
H186	H	1.585468	0.527709	-0.518450
