data_functionalizedCrystal
_audit_creation_method	'MofGen! by Chris Wilmer'
_symmetry_space_group_name_H-M	'P1'
_symmetry_Int_Tables_number	1
_symmetry_cell_setting	triclinic
loop_
_symmetry_equiv_pos_as_xyz
  x,y,z
_cell_length_a	26.374263
_cell_length_b	26.373608
_cell_length_c	26.370205
_cell_angle_alpha	60.005297
_cell_angle_beta	60.010839
_cell_angle_gamma	59.993700
loop_
_atom_site_label
_atom_site_type_symbol
_atom_site_fract_x
_atom_site_fract_y
_atom_site_fract_z
O1	O	0.070152	-0.740800	0.619517
O2	O	0.570152	-0.240800	1.119517
O3	O	0.026377	-0.576764	0.499159
O4	O	0.526377	-0.076764	0.999159
O5	O	0.130245	-0.680560	0.499088
O6	O	0.630245	-0.180560	0.999088
O7	O	-0.033715	-0.637003	0.619589
O8	O	0.466285	-0.137003	1.119589
O9	O	0.164701	-0.646107	0.533470
O10	O	0.664701	-0.146107	1.033470
O11	O	0.060833	-0.542310	0.533541
O12	O	0.560833	-0.042310	1.033541
O13	O	0.104608	-0.706346	0.653899
O14	O	0.604608	-0.206346	1.153899
Cu15	Cu	0.085867	-0.621182	0.596859
Cu16	Cu	0.585867	-0.121182	1.096859
Cu17	Cu	0.045119	-0.661927	0.556199
Cu18	Cu	0.545119	-0.161927	1.056199
O19	O	0.000741	-0.602549	0.653971
O20	O	0.500741	-0.102549	1.153971
N21	N	0.114528	-0.592529	0.625461
N22	N	0.614528	-0.092529	1.125461
N23	N	0.016463	-0.690587	0.527598
N24	N	0.516463	-0.190587	1.027598
C25	C	0.181428	-0.355400	0.692330
C26	C	0.681428	0.144600	1.192330
C27	C	0.181530	-0.525690	0.862573
C28	C	0.681530	-0.025690	1.362573
C29	C	0.181440	-0.525667	0.692313
C30	C	0.681440	-0.025667	1.192313
C31	C	0.351736	-0.525673	0.692271
C32	C	0.851736	-0.025673	1.192271
C33	C	0.200174	-0.411588	0.711047
C34	C	0.700174	0.088412	1.211047
C35	C	0.200232	-0.506954	0.806384
C36	C	0.700232	-0.006954	1.306384
C37	C	0.295546	-0.506943	0.711016
C38	C	0.795546	-0.006943	1.211016
C39	C	0.200182	-0.506940	0.711037
C40	C	0.700182	-0.006940	1.211037
C41	C	0.157567	-0.283881	0.668507
C42	C	0.657567	0.216119	1.168507
C43	C	0.157587	-0.549500	0.668479
C44	C	0.657587	-0.049500	1.168479
C45	C	0.224035	-0.483107	0.734871
C46	C	0.724035	0.016893	1.234871
C47	C	0.455739	-0.507754	0.637520
C48	C	0.955739	-0.007754	1.137520
C49	C	0.520749	-0.529425	0.615835
C50	C	1.020749	-0.029425	1.115835
C51	C	0.520768	-0.634611	0.655947
C52	C	1.020768	-0.134611	1.155947
C53	C	0.455759	-0.612939	0.677633
C54	C	0.955759	-0.112939	1.177633
C55	C	0.173240	-0.251367	0.604595
C56	C	0.673240	0.248633	1.104595
C57	C	0.151546	-0.186351	0.582941
C58	C	0.651546	0.313649	1.082941
C59	C	0.098512	-0.186369	0.689113
C60	C	0.598512	0.313631	1.189113
C61	C	0.120206	-0.251385	0.710768
C62	C	0.620206	0.248615	1.210768
C63	C	0.093669	-0.533798	0.684205
C64	C	0.593669	-0.033798	1.184205
C65	C	0.071992	-0.555464	0.662532
C66	C	0.571992	-0.055464	1.162532
C67	C	0.178144	-0.608536	0.609422
C68	C	0.678144	-0.108536	1.109422
C69	C	0.199825	-0.586869	0.631088
C70	C	0.699825	-0.086869	1.131088
C71	C	0.093821	-0.533842	0.966616
C72	C	0.593821	-0.033842	1.466616
C73	C	0.072187	-0.555526	1.031630
C74	C	0.572187	-0.055526	1.531630
C75	C	0.178370	-0.608608	1.031591
C76	C	0.678370	-0.108608	1.531591
C77	C	0.200004	-0.586926	0.966576
C78	C	0.700004	-0.086926	1.466576
C79	C	0.157728	-0.549541	0.934090
C80	C	0.657728	-0.049541	1.434090
C81	C	0.423247	-0.549509	0.668416
C82	C	0.923247	-0.049509	1.168416
C83	C	-0.097522	-0.709158	0.508557
C84	C	0.402478	-0.209158	1.008557
C85	C	-0.002050	-0.709295	0.413344
C86	C	0.497950	-0.209295	0.913344
C87	C	-0.002241	-0.804604	0.508735
C88	C	0.497759	-0.304604	1.008735
C89	C	-0.002225	-0.709288	0.508793
C90	C	0.497775	-0.209288	1.008793
C91	C	-0.026009	-0.733087	0.484858
C92	C	0.473991	-0.233087	0.984858
N93	N	0.552340	-0.592538	0.625346
N94	N	1.052340	-0.092538	1.125346
O95	O	0.750867	-0.598274	0.477076
O96	O	1.250867	-0.098274	0.977076
O97	O	0.751048	-0.718989	0.640960
O98	O	1.251048	-0.218989	1.140960
O99	O	0.750981	-0.718715	0.537020
O100	O	1.250981	-0.218715	1.037020
O101	O	0.750934	-0.598547	0.581017
O102	O	1.250934	-0.098547	1.081017
O103	O	0.647701	-0.684348	0.571512
O104	O	1.147701	-0.184348	1.071512
O105	O	0.647768	-0.684622	0.675452
O106	O	1.147768	-0.184622	1.175452
O107	O	0.647587	-0.563907	0.511569
O108	O	1.147587	-0.063907	1.011569
Cu109	Cu	0.638247	-0.621127	0.596660
Cu110	Cu	1.138247	-0.121127	1.096660
Cu111	Cu	0.760388	-0.661769	0.555869
Cu112	Cu	1.260388	-0.161769	1.055869
O113	O	0.647654	-0.564181	0.615509
O114	O	1.147654	-0.064181	1.115509
N115	N	0.846295	-0.690358	0.527176
N116	N	1.346295	-0.190358	1.027176
N117	N	0.114503	-0.154778	0.625499
N118	N	0.614503	0.345222	1.125499
O119	O	-0.033701	0.043855	0.619632
O120	O	0.466299	0.543855	1.119632
O121	O	0.130190	0.043858	0.498933
O122	O	0.630190	0.543858	0.998933
O123	O	0.026233	0.043841	0.499224
O124	O	0.526233	0.543841	0.999224
O125	O	0.070257	0.043872	0.619341
O126	O	0.570257	0.543872	1.119341
O127	O	0.060690	-0.059448	0.533654
O128	O	0.560690	0.440552	1.033654
O129	O	0.164647	-0.059431	0.533363
O130	O	0.664647	0.440569	1.033363
O131	O	0.000756	-0.059434	0.654062
O132	O	0.500756	0.440566	1.154062
Cu133	Cu	0.085848	-0.068863	0.596857
Cu134	Cu	0.585848	0.431137	1.096857
Cu135	Cu	0.045099	0.053287	0.556138
Cu136	Cu	0.545099	0.553287	1.056138
O137	O	0.104714	-0.059417	0.653771
O138	O	0.604714	0.440583	1.153771
N139	N	0.016435	0.139202	0.527497
N140	N	0.516435	0.639202	1.027497
N141	N	0.114760	-0.592585	1.063190
N142	N	0.614760	-0.092585	1.563190
O143	O	0.108896	-0.740779	1.261808
O144	O	0.608896	-0.240779	1.761808
O145	O	-0.011787	-0.576838	1.261822
O146	O	0.488213	-0.076838	1.761822
O147	O	-0.011509	-0.680779	1.261780
O148	O	0.488491	-0.180779	1.761780
O149	O	0.108618	-0.636838	1.261850
O150	O	0.608618	-0.136838	1.761850
O151	O	0.022916	-0.646341	1.158496
O152	O	0.522916	-0.146341	1.658496
O153	O	0.022638	-0.542399	1.158538
O154	O	0.522638	-0.042399	1.658538
O155	O	0.143321	-0.706341	1.158524
O156	O	0.643321	-0.206341	1.658524
Cu157	Cu	0.086123	-0.621225	1.149100
Cu158	Cu	0.586123	-0.121225	1.649100
Cu159	Cu	0.045411	-0.661953	1.271246
Cu160	Cu	0.545411	-0.161953	1.771246
O161	O	0.143044	-0.602399	1.158566
O162	O	0.643044	-0.102399	1.658566
N163	N	0.016774	-0.690600	1.357156
N164	N	0.516774	-0.190600	1.857156
C165	C	0.039504	-0.538867	0.499769
C166	C	0.539504	-0.038867	0.999769
C167	C	0.168130	-0.667407	0.499680
C168	C	0.668130	-0.167407	0.999680
C169	C	0.091482	-0.744243	0.653289
C170	C	0.591482	-0.244243	1.153289
C171	C	-0.037145	-0.615703	0.653378
C172	C	0.462855	-0.115703	1.153378
C173	C	0.699429	-0.718429	0.678853
C174	C	1.199429	-0.218429	1.178853
C175	C	0.699348	-0.718091	0.550135
C176	C	1.199348	-0.218091	1.050135
C177	C	0.699202	-0.564465	0.473677
C178	C	1.199202	-0.064465	0.973677
C179	C	0.699287	-0.564805	0.602393
C180	C	1.199287	-0.064805	1.102393
C181	C	0.168023	-0.007659	0.499484
C182	C	0.668023	0.492341	0.999484
C183	C	0.039327	-0.007807	0.499887
C184	C	0.539327	0.492193	0.999887
C185	C	-0.037119	-0.007789	0.653468
C186	C	0.462881	0.492211	1.153468
C187	C	0.091620	-0.007770	0.653109
C188	C	0.591620	0.492230	1.153109
C189	C	-0.011194	-0.538964	1.210181
C190	C	0.488806	-0.038964	1.710181
C191	C	-0.010843	-0.667676	1.210109
C192	C	0.489157	-0.167676	1.710109
C193	C	0.142729	-0.744214	1.210165
C194	C	0.642729	-0.244214	1.710165
C195	C	0.142386	-0.615494	1.210214
C196	C	0.642386	-0.115494	1.710214
H197	H	0.059391	-0.503396	0.940172
H198	H	0.559391	-0.003396	1.440172
O199	O	0.187472	-0.604396	1.210256
O200	O	0.687472	-0.104396	1.710256
C201	C	0.241068	-0.657728	1.210238
C202	C	0.741068	-0.157728	1.710238
H203	H	0.227509	-0.700421	1.229779
H204	H	0.727509	-0.200421	1.729779
H205	H	0.274835	-0.652718	1.160688
H206	H	0.774835	-0.152718	1.660688
C207	C	0.288967	-0.612648	1.226753
C208	C	0.788967	-0.112648	1.726753
C209	C	0.272313	-0.665084	1.250759
C210	C	0.772313	-0.165084	1.750759
H211	H	0.308243	-0.617185	1.251746
H212	H	0.808243	-0.117185	1.751746
H213	H	0.252860	-0.576716	1.226763
H214	H	0.752860	-0.076716	1.726763
H215	H	0.317104	-0.608479	1.185462
H216	H	0.817104	-0.108479	1.685462
H217	H	0.244172	-0.669248	1.292046
H218	H	0.744172	-0.169248	1.792046
H219	H	0.308417	-0.701018	1.250757
H220	H	0.808417	-0.201018	1.750757
O221	O	0.010085	-0.540184	1.063124
O222	O	0.510085	-0.040184	1.563124
C223	C	-0.022583	-0.502548	1.020506
C224	C	0.477417	-0.002548	1.520506
H225	H	0.008406	-0.478911	0.974160
H226	H	0.508406	0.021089	1.474160
H227	H	-0.036609	-0.532534	1.013591
H228	H	0.463391	-0.032534	1.513591
C229	C	-0.119246	-0.481890	1.102820
C230	C	0.380754	0.018110	1.602820
C231	C	-0.081186	-0.452855	1.045899
C232	C	0.418814	0.047145	1.545899
H233	H	-0.155397	-0.451239	1.118485
H234	H	0.344603	0.048761	1.618485
H235	H	-0.097238	-0.507248	1.131534
H236	H	0.402762	-0.007248	1.631534
H237	H	-0.130927	-0.506878	1.097050
H238	H	0.369073	-0.006878	1.597050
H239	H	-0.069499	-0.427875	1.051671
H240	H	0.430501	0.072125	1.551671
H241	H	-0.103194	-0.427492	1.017187
H242	H	0.396806	0.072508	1.517187
O243	O	0.224082	-0.007285	0.454219
O244	O	0.724082	0.492715	0.954219
C245	C	0.262707	-0.007173	0.476532
C246	C	0.762707	0.492827	0.976532
H247	H	0.232834	0.012181	0.516539
H248	H	0.732834	0.512181	1.016539
H249	H	0.294300	-0.056660	0.493560
H250	H	0.794300	0.443340	0.993560
C251	C	0.339266	0.009884	0.374720
C252	C	0.839266	0.509884	0.874720
C253	C	0.302575	0.033660	0.423855
C254	C	0.802575	0.533660	0.923855
H255	H	0.363861	0.035069	0.342227
H256	H	0.863861	0.535069	0.842227
H257	H	0.313245	0.009806	0.359688
H258	H	0.813245	0.509806	0.859688
H259	H	0.365588	-0.031354	0.388919
H260	H	0.865588	0.468646	0.888919
H261	H	0.276248	0.074895	0.409658
H262	H	0.776248	0.574895	0.909658
H263	H	0.328593	0.033746	0.438883
H264	H	0.828593	0.533746	0.938883
H265	H	0.212798	-0.639038	1.058038
H266	H	0.712798	-0.139038	1.558038
O267	O	0.699394	-0.763206	0.539001
O268	O	1.199394	-0.263206	1.039001
C269	C	0.699444	-0.816804	0.592321
C270	C	1.199444	-0.316804	1.092321
H271	H	0.719017	-0.816266	0.621964
H272	H	1.219017	-0.316266	1.121964
H273	H	0.649912	-0.817577	0.620372
H274	H	1.149912	-0.317577	1.120372
C275	C	0.715928	-0.875696	0.536219
C276	C	1.215928	-0.375696	1.036219
C277	C	0.739972	-0.875038	0.572625
C278	C	1.239972	-0.375038	1.072625
H279	H	0.740925	-0.911618	0.524071
H280	H	1.240925	-0.411618	1.024071
H281	H	0.715892	-0.839586	0.500297
H282	H	1.215892	-0.339586	1.000297
H283	H	0.674652	-0.876337	0.559601
H284	H	1.174652	-0.376337	1.059601
H285	H	0.781244	-0.874389	0.549241
H286	H	1.281244	-0.374389	1.049241
H287	H	0.740016	-0.911150	0.608543
H288	H	1.240016	-0.411150	1.108543
O289	O	0.028466	-0.482681	0.454609
O290	O	0.528466	0.017319	0.954609
C291	C	0.081822	-0.482545	0.401057
C292	C	0.581822	0.017455	0.901057
H293	H	0.124482	-0.519276	0.414687
H294	H	0.624482	-0.019276	0.914687
H295	H	0.076814	-0.493357	0.367308
H296	H	0.576814	0.006643	0.867308
C297	C	0.036845	-0.373060	0.352992
C298	C	0.536845	0.126940	0.852992
C299	C	0.089243	-0.418170	0.369735
C300	C	0.589243	0.081830	0.869735
H301	H	0.041422	-0.333351	0.333669
H302	H	0.541422	0.166649	0.833669
H303	H	0.000898	-0.373152	0.389070
H304	H	0.500898	0.126848	0.889070
H305	H	0.032677	-0.382079	0.324871
H306	H	0.532677	0.117921	0.824871
H307	H	0.093405	-0.409156	0.397861
H308	H	0.593405	0.090844	0.897861
H309	H	0.125191	-0.418076	0.333660
H310	H	0.625191	0.081924	0.833660
H311	H	0.699142	-0.526565	0.426612
H312	H	1.199142	-0.026565	0.926612
O313	O	0.699243	-0.519827	0.613733
O314	O	1.199243	-0.019827	1.113733
C315	C	0.699314	-0.542457	0.674764
C316	C	1.199314	-0.042457	1.174764
H317	H	0.679803	-0.582342	0.704146
H318	H	1.179803	-0.082342	1.204146
H319	H	0.748875	-0.559755	0.673820
H320	H	1.248875	-0.059755	1.173820
C321	C	0.682764	-0.440943	0.666926
C322	C	1.182764	0.059057	1.166926
C323	C	0.658796	-0.489927	0.703016
C324	C	1.158796	0.010073	1.203016
H325	H	0.657773	-0.408540	0.684354
H326	H	1.157773	0.091460	1.184354
H327	H	0.682718	-0.425697	0.625808
H328	H	1.182718	0.074303	1.125808
H329	H	0.724064	-0.455367	0.666143
H330	H	1.224064	0.044633	1.166143
H331	H	0.617500	-0.475505	0.703793
H332	H	1.117500	0.024495	1.203793
H333	H	0.658834	-0.505169	0.744136
H334	H	1.158834	-0.005169	1.244136
H335	H	0.252044	-0.599714	0.940097
H336	H	0.752044	-0.099714	1.440097
H337	H	0.029900	-0.007810	0.462151
H338	H	0.529900	0.492190	0.962151
O339	O	-0.093349	-0.604519	0.698466
O340	O	0.406651	-0.104519	1.198466
C341	C	-0.131941	-0.543500	0.676006
C342	C	0.368059	-0.043500	1.176006
H343	H	-0.102032	-0.514013	0.636124
H344	H	0.397968	-0.014013	1.136124
H345	H	-0.163303	-0.544442	0.658757
H346	H	0.336697	-0.044442	1.158757
C347	C	-0.208865	-0.551622	0.777630
C348	C	0.291135	-0.051622	1.277630
C349	C	-0.172131	-0.515404	0.728650
C350	C	0.327869	-0.015404	1.228650
H351	H	-0.233658	-0.534292	0.810103
H352	H	0.266342	-0.034292	1.310103
H353	H	-0.182867	-0.592733	0.792762
H354	H	0.317133	-0.092733	1.292762
H355	H	-0.234995	-0.552405	0.763248
H356	H	0.265005	-0.052405	1.263248
H357	H	-0.145997	-0.514629	0.743030
H358	H	0.354003	-0.014629	1.243030
H359	H	-0.198126	-0.474293	0.713521
H360	H	0.301874	0.025707	1.213521
O361	O	-0.093317	-0.007750	0.698596
O362	O	0.406683	0.492250	1.198596
C363	C	-0.131973	-0.007772	0.676254
C364	C	0.368027	0.492228	1.176254
H365	H	-0.115164	0.011766	0.623355
H366	H	0.384836	0.511766	1.123355
H367	H	-0.130297	-0.057325	0.692056
H368	H	0.369703	0.442675	1.192056
C369	C	-0.219811	0.008751	0.766934
C370	C	0.280189	0.508751	1.266934
C371	C	-0.199170	0.032754	0.701962
C372	C	0.300830	0.532754	1.201962
H373	H	-0.261262	0.033747	0.782793
H374	H	0.238738	0.533747	1.282793
H375	H	-0.193768	0.008764	0.781988
H376	H	0.306232	0.508764	1.281988
H377	H	-0.218410	-0.032542	0.780093
H378	H	0.281590	0.467458	1.280093
H379	H	-0.200564	0.074043	0.688803
H380	H	0.299436	0.574043	1.188803
H381	H	-0.225215	0.032749	0.686906
H382	H	0.274785	0.532749	1.186906
H383	H	0.699474	-0.756325	0.725922
H384	H	1.199474	-0.256325	1.225922
O385	O	0.102974	-0.007799	0.698074
O386	O	0.602974	0.492201	1.198074
C387	C	0.164014	-0.007782	0.675445
C388	C	0.664014	0.492218	1.175445
H389	H	0.193381	-0.027332	0.635576
H390	H	0.693381	0.472668	1.135576
H391	H	0.163094	0.041770	0.658126
H392	H	0.663094	0.541770	1.158126
C393	C	0.156195	-0.024283	0.776943
C394	C	0.656195	0.475717	1.276943
C395	C	0.192266	-0.048299	0.727980
C396	C	0.692266	0.451701	1.227980
H397	H	0.173622	-0.049273	0.809349
H398	H	0.673622	0.450727	1.309349
H399	H	0.115071	-0.024292	0.792189
H400	H	0.615071	0.475708	1.292189
H401	H	0.155432	0.017010	0.762503
H402	H	0.655432	0.517010	1.262503
H403	H	0.193023	-0.089588	0.742418
H404	H	0.693023	0.410412	1.242418
H405	H	0.233392	-0.048298	0.712738
H406	H	0.733392	0.451702	1.212738
O407	O	-0.056321	-0.482742	1.210101
O408	O	0.443679	0.017258	1.710101
C409	C	-0.035095	-0.435930	1.156614
C410	C	0.464905	0.064070	1.656614
H411	H	0.017838	-0.453023	1.138791
H412	H	0.517838	0.046977	1.638791
H413	H	-0.052706	-0.424314	1.119144
H414	H	0.447294	0.075686	1.619144
C415	C	-0.124636	-0.356402	1.194769
C416	C	0.375364	0.143598	1.694769
C417	C	-0.059623	-0.377395	1.172882
C418	C	0.440377	0.122605	1.672882
H419	H	-0.139768	-0.320293	1.204803
H420	H	0.360232	0.179707	1.704803
H421	H	-0.138938	-0.387940	1.230804
H422	H	0.361062	0.112060	1.730804
H423	H	-0.139304	-0.346726	1.163541
H424	H	0.360696	0.153274	1.663541
H425	H	-0.044957	-0.387077	1.204113
H426	H	0.455043	0.112923	1.704113
H427	H	-0.045319	-0.345857	1.136853
H428	H	0.454681	0.154143	1.636853
O429	O	0.052556	-0.497478	0.720493
O430	O	0.552556	0.002522	1.220493
C431	C	-0.008508	-0.488274	0.729730
C432	C	0.491492	0.011726	1.229730
H433	H	-0.008410	-0.495532	0.690535
H434	H	0.491590	0.004468	1.190535
H435	H	-0.027113	-0.522881	0.776042
H436	H	0.472887	-0.022881	1.276042
C437	C	-0.050329	-0.412755	0.778345
C438	C	0.449671	0.087245	1.278345
C439	C	-0.050210	-0.421664	0.730203
C440	C	0.449790	0.078336	1.230203
H441	H	-0.076054	-0.371668	0.778640
H442	H	0.423946	0.128332	1.278640
H443	H	-0.009190	-0.418957	0.772124
H444	H	0.490810	0.081043	1.272124
H445	H	-0.065832	-0.441598	0.816934
H446	H	0.434168	0.058402	1.316934
H447	H	-0.034700	-0.392826	0.691615
H448	H	0.465300	0.107174	1.191615
H449	H	-0.091348	-0.415455	0.736417
H450	H	0.408652	0.084545	1.236417
O451	O	-0.055771	-0.678959	1.210004
O452	O	0.444229	-0.178959	1.710004
C453	C	-0.033153	-0.740007	1.209987
C454	C	0.466847	-0.240007	1.709987
H455	H	0.019744	-0.756369	1.190477
H456	H	0.519744	-0.256369	1.690477
H457	H	-0.048886	-0.772139	1.259523
H458	H	0.451114	-0.272139	1.759523
C459	C	-0.123615	-0.721091	1.193374
C460	C	0.376385	-0.221091	1.693374
C461	C	-0.058647	-0.741185	1.169406
C462	C	0.441353	-0.241185	1.669406
H463	H	-0.139343	-0.721818	1.168343
H464	H	0.360657	-0.221818	1.668343
H465	H	-0.138856	-0.679962	1.193387
H466	H	0.361144	-0.179962	1.693387
H467	H	-0.136718	-0.747870	1.234653
H468	H	0.363282	-0.247870	1.734653
H469	H	-0.045545	-0.714401	1.128131
H470	H	0.454455	-0.214401	1.628131
H471	H	-0.043405	-0.782309	1.169385
H472	H	0.456595	-0.282309	1.669385
H473	H	0.212545	-0.638970	0.578981
H474	H	0.712545	-0.138970	1.078981
O475	O	0.261935	-0.602192	0.615770
O476	O	0.761935	-0.102192	1.115770
C477	C	0.294565	-0.639803	0.578103
C478	C	0.794565	-0.139803	1.078103
H479	H	0.263567	-0.663447	0.586411
H480	H	0.763567	-0.163447	1.086411
H481	H	0.308541	-0.609795	0.527183
H482	H	0.808541	-0.109795	1.027183
C483	C	0.391278	-0.660442	0.584316
C484	C	0.891278	-0.160442	1.084316
C485	C	0.353206	-0.689487	0.594523
C486	C	0.853206	-0.189487	1.094523
H487	H	0.427452	-0.691088	0.594442
H488	H	0.927452	-0.191088	1.094442
H489	H	0.369295	-0.635101	0.609691
H490	H	0.869295	-0.135101	1.109691
H491	H	0.402918	-0.635436	0.541882
H492	H	0.902918	-0.135436	1.041882
H493	H	0.341561	-0.714485	0.636957
H494	H	0.841561	-0.214485	1.136957
H495	H	0.375188	-0.714833	0.569156
H496	H	0.875188	-0.214833	1.069156
O497	O	0.424295	-0.653583	0.707610
O498	O	0.924295	-0.153583	1.207610
C499	C	0.466938	-0.714214	0.711102
C500	C	0.966938	-0.214214	1.211102
H501	H	0.513267	-0.711739	0.672696
H502	H	1.013267	-0.211739	1.172696
H503	H	0.473878	-0.739033	0.758211
H504	H	0.973878	-0.239033	1.258211
C505	C	0.384660	-0.753304	0.750328
C506	C	0.884660	-0.253304	1.250328
C507	C	0.441560	-0.750263	0.703155
C508	C	0.941560	-0.250263	1.203155
H509	H	0.369005	-0.775542	0.745429
H510	H	0.869005	-0.275542	1.245429
H511	H	0.355929	-0.712456	0.747978
H512	H	0.855929	-0.212456	1.247978
H513	H	0.390451	-0.773984	0.789582
H514	H	0.890451	-0.273984	1.289582
H515	H	0.435767	-0.729576	0.663903
H516	H	0.935767	-0.229576	1.163903
H517	H	0.470289	-0.791108	0.705498
H518	H	0.970289	-0.291108	1.205498
H519	H	0.215222	-0.676694	0.461838
H520	H	0.715222	-0.176694	0.961838
H521	H	0.180620	-0.791296	1.210154
H522	H	0.680620	-0.291296	1.710154
H523	H	0.547237	-0.686258	0.663446
H524	H	1.047237	-0.186258	1.163446
O525	O	0.552288	-0.488824	0.585726
O526	O	1.052288	0.011176	1.085726
C527	C	0.536360	-0.444681	0.532143
C528	C	1.036360	0.055319	1.032143
H529	H	0.518474	-0.464711	0.517211
H530	H	1.018474	0.035289	1.017211
H531	H	0.498627	-0.400853	0.542778
H532	H	0.998627	0.099147	1.042778
C533	C	0.616062	-0.404005	0.497754
C534	C	1.116062	0.095995	0.997754
C535	C	0.594099	-0.428609	0.479412
C536	C	1.094099	0.071391	0.979412
H537	H	0.651677	-0.394088	0.465227
H538	H	1.151677	0.105912	0.965227
H539	H	0.626792	-0.433743	0.533855
H540	H	1.126792	0.066257	1.033855
H541	H	0.584612	-0.367485	0.506617
H542	H	1.084612	0.132515	1.006617
H543	H	0.625546	-0.465132	0.470557
H544	H	1.125546	0.034868	0.970557
H545	H	0.583376	-0.398876	0.443308
H546	H	1.083376	0.101124	0.943308
O547	O	0.424058	-0.446153	0.628599
O548	O	0.924058	0.053847	1.128599
C549	C	0.359710	-0.435976	0.654374
C550	C	0.859710	0.064024	1.154374
H551	H	0.350829	-0.475711	0.657503
H552	H	0.850829	0.024289	1.157503
H553	H	0.341281	-0.433675	0.702827
H554	H	0.841281	0.066325	1.202827
C555	C	0.337217	-0.325489	0.609006
C556	C	0.837217	0.174511	1.109006
C557	C	0.326310	-0.374290	0.612845
C558	C	0.826310	0.125710	1.112845
H559	H	0.316613	-0.287437	0.583391
H560	H	0.816613	0.212563	1.083391
H561	H	0.380570	-0.332345	0.591643
H562	H	0.880570	0.167655	1.091643
H563	H	0.321859	-0.323580	0.649387
H564	H	0.821859	0.176420	1.149387
H565	H	0.341674	-0.376203	0.572466
H566	H	0.841674	0.123797	1.072466
H567	H	0.282959	-0.367432	0.630200
H568	H	0.782959	0.132568	1.130200
O569	O	0.209502	-0.282835	0.563458
O570	O	0.709502	0.217165	1.063458
C571	C	0.218690	-0.240193	0.502402
C572	C	0.718690	0.259807	1.002402
H573	H	0.179486	-0.193852	0.502533
H574	H	0.679486	0.306148	1.002533
H575	H	0.264998	-0.233273	0.483761
H576	H	0.764998	0.266727	0.983761
C577	C	0.267280	-0.322479	0.460549
C578	C	0.767280	0.177521	0.960549
C579	C	0.219126	-0.265563	0.460710
C580	C	0.719126	0.234437	0.960710
H581	H	0.267552	-0.338128	0.434830
H582	H	0.767552	0.161872	0.934830
H583	H	0.261092	-0.351208	0.501684
H584	H	0.761092	0.148792	1.001684
H585	H	0.305865	-0.316704	0.445017
H586	H	0.805865	0.183296	0.945017
H587	H	0.180542	-0.271339	0.476249
H588	H	0.680542	0.228661	0.976249
H589	H	0.225307	-0.236835	0.419577
H590	H	0.725307	0.263165	0.919577
H591	H	0.019945	-0.542665	0.675322
H592	H	0.519945	-0.042665	1.175322
H593	H	0.164306	-0.159876	0.530897
H594	H	0.664306	0.340124	1.030897
H595	H	0.107441	-0.277854	0.762810
H596	H	0.607441	0.222146	1.262810
O597	O	0.062297	-0.154870	0.730226
O598	O	0.562297	0.345130	1.230226
C599	C	0.095162	-0.170750	0.767782
C600	C	0.595162	0.329250	1.267782
H601	H	0.133015	-0.217950	0.768401
H602	H	0.633015	0.282050	1.268401
H603	H	0.117215	-0.134154	0.748223
H604	H	0.617215	0.365846	1.248223
C605	C	0.003646	-0.115798	0.833633
C606	C	0.503646	0.384202	1.333633
C607	C	0.050135	-0.173773	0.834397
C608	C	0.550135	0.326227	1.334397
H609	H	-0.024129	-0.117660	0.874723
H610	H	0.475871	0.382340	1.374723
H611	H	-0.018496	-0.105097	0.808329
H612	H	0.481504	0.394903	1.308329
H613	H	0.022031	-0.085307	0.817330
H614	H	0.522031	0.414693	1.317330
H615	H	0.031750	-0.204260	0.850692
H616	H	0.531750	0.295740	1.350692
H617	H	0.072272	-0.184479	0.859705
H618	H	0.572272	0.315521	1.359705
O619	O	0.102622	-0.800503	0.698331
O620	O	0.602622	-0.300503	1.198331
C621	C	0.117224	-0.847275	0.677009
C622	C	0.617224	-0.347275	1.177009
H623	H	0.097219	-0.826087	0.638418
H624	H	0.597219	-0.326087	1.138418
H625	H	0.169811	-0.869117	0.658340
H626	H	0.669811	-0.369117	1.158340
C627	C	0.113731	-0.923504	0.778465
C628	C	0.613731	-0.423504	1.278465
C629	C	0.089157	-0.897481	0.731070
C630	C	0.589157	-0.397481	1.231070
H631	H	0.096421	-0.954475	0.811812
H632	H	0.596421	-0.454475	1.311812
H633	H	0.103896	-0.891994	0.792830
H634	H	0.603896	-0.391994	1.292830
H635	H	0.157553	-0.941701	0.762900
H636	H	0.657553	-0.441701	1.262900
H637	H	0.045337	-0.879278	0.746634
H638	H	0.545337	-0.379278	1.246634
H639	H	0.098984	-0.928990	0.716709
H640	H	0.598984	-0.428990	1.216709
