data_functionalizedCrystal
_audit_creation_method	'MofGen! by Chris Wilmer'
_symmetry_space_group_name_H-M	'P1'
_symmetry_Int_Tables_number	1
_symmetry_cell_setting	triclinic
loop_
_symmetry_equiv_pos_as_xyz
  x,y,z
_cell_length_a	15.625950
_cell_length_b	17.019294
_cell_length_c	14.185569
_cell_angle_alpha	73.120776
_cell_angle_beta	120.545593
_cell_angle_gamma	85.048481
loop_
_atom_site_label
_atom_site_type_symbol
_atom_site_fract_x
_atom_site_fract_y
_atom_site_fract_z
O1	O	1.290149	0.020850	0.383928
O2	O	1.001149	0.056261	0.275776
O3	O	1.156432	-0.079289	0.343957
O4	O	1.134866	0.156400	0.315746
O5	O	1.202304	-0.119328	0.530933
O6	O	1.047021	0.016222	0.462752
O7	O	1.336021	-0.019189	0.570903
Cu8	Cu	1.195710	-0.005139	0.533900
Cu9	Cu	1.141461	0.042211	0.312779
O10	O	1.180738	0.116361	0.502722
C11	C	0.987157	0.038603	0.355631
C12	C	0.877122	0.045629	0.315011
C13	C	0.640127	-0.040315	0.690876
C14	C	0.536717	-0.033685	0.652653
C15	C	0.486761	0.009960	0.448838
C16	C	0.590168	0.003339	0.487044
C17	C	0.666844	-0.021800	0.608064
C18	C	0.616885	0.021853	0.404232
C19	C	0.720284	0.015227	0.442436
C20	C	0.796966	-0.009913	0.563451
C21	C	0.770243	-0.028426	0.646268
C22	C	0.540208	0.046986	0.283213
C23	C	0.566925	0.065500	0.200402
C24	C	0.670324	0.058880	0.238604
C25	C	0.747006	0.033740	0.359619
C26	C	0.697047	0.077394	0.155787
C27	C	0.800446	0.070768	0.193991
C28	C	0.850405	0.027115	0.397823
C29	C	1.179455	-0.129259	0.440063
C30	C	1.179703	-0.218500	0.447859
C31	C	1.154817	-0.238597	0.349602
C32	C	1.155044	-0.322449	0.356929
C33	C	1.180164	-0.386204	0.462515
C34	C	1.205049	-0.366102	0.560777
C35	C	1.204815	-0.282251	0.553447
C36	C	1.182116	-0.640472	0.489743
C37	C	1.182351	-0.724329	0.497067
C38	C	1.132344	-0.680669	0.293217
C39	C	1.132118	-0.596819	0.285898
C40	C	1.156998	-0.576723	0.384159
C41	C	1.180400	-0.471915	0.470007
C42	C	1.156754	-0.491013	0.376662
C43	C	1.350013	-0.001530	0.491046
C44	C	1.460046	-0.008555	0.531658
C45	C	1.157714	0.166332	0.406614
C46	C	1.157465	0.255575	0.398811
N47	N	1.233873	-0.038444	0.689426
N48	N	1.103306	0.075509	0.157256
C49	C	0.991184	0.173324	0.950524
C50	C	1.020099	0.148101	1.068240
C51	C	1.157628	0.028110	1.128582
C52	C	1.128722	0.053320	1.010868
C53	C	1.045500	0.125929	0.921848
C54	C	1.183038	0.005925	0.982191
C55	C	1.154137	0.031137	0.864488
C56	C	1.070920	0.103743	0.775462
C57	C	1.016599	0.151140	0.804145
C58	C	1.266264	-0.066680	1.071215
C59	C	1.320580	-0.114075	1.042538
C60	C	1.291674	-0.088867	0.924832
C61	C	1.208458	-0.016260	0.835806
C62	C	1.345995	-0.136264	0.896150
C63	C	1.317095	-0.111052	0.778447
C64	C	1.179557	0.008951	0.718103
H65	H	0.456015	0.052383	0.252111
H66	H	0.424319	0.030424	0.350304
N67	N	1.295795	-0.092438	1.191450
N68	N	1.384957	-0.096323	1.271073
H69	H	1.405810	-0.114514	1.355988
H70	H	0.975861	0.186703	1.091578
N71	N	1.206072	-0.537032	0.577872
N72	N	1.228297	-0.519085	0.665602
H73	H	1.246424	-0.565074	0.741781
H74	H	1.388343	-0.173192	1.115032
N75	N	1.129167	-0.173489	0.241743
N76	N	1.106950	-0.191448	0.154024
H77	H	1.088833	-0.145467	0.077843
N78	N	1.131086	-0.425903	0.268800
N79	N	1.044340	-0.407761	0.174785
H80	H	1.026214	-0.361772	0.098606
N81	N	1.094556	0.083127	0.627162
N82	N	1.108654	0.144735	0.568362
H83	H	1.048626	0.197120	0.504135
H84	H	0.504483	0.085964	0.101867
H85	H	0.634604	0.097853	0.057254
H86	H	1.112086	-0.697040	0.213218
N87	N	1.431014	-0.210415	0.987105
N88	N	1.456818	-0.232907	1.092195
H89	H	1.516866	-0.285276	1.156434
H90	H	1.111664	-0.544913	0.199919
H91	H	1.047393	0.124272	0.679623
H92	H	1.225066	-0.265889	0.633453
H93	H	0.948824	0.210260	0.731657
N94	N	0.902588	-0.016677	0.602489
N95	N	0.949372	0.028058	0.656259
H96	H	1.023970	0.023278	0.683834
N97	N	0.509441	-0.052590	0.737262
N98	N	0.527192	-0.010503	0.800980
H99	H	0.507928	-0.023855	0.860734
N100	N	0.848555	-0.054068	0.769887
N101	N	0.824687	-0.070572	0.843817
H102	H	0.879992	-0.088671	0.931118
H103	H	0.923409	0.232444	0.878036
N104	N	1.242643	-0.046044	1.219534
N105	N	1.268446	-0.068542	1.324624
H106	H	1.328490	-0.120914	1.388860
N107	N	1.372464	-0.159562	0.749130
N108	N	1.446681	-0.224451	0.828597
H109	H	1.485744	-0.258747	0.807880
H110	H	1.134783	-0.338806	0.276919
N111	N	1.208009	-0.789444	0.604933
N112	N	1.230215	-0.771491	0.692654
H113	H	1.248333	-0.817477	0.768831
N114	N	0.827727	0.089675	0.109391
N115	N	0.759259	0.112118	0.001343
H116	H	0.778525	0.125468	-0.058409
H117	H	1.202395	-0.624126	0.569761
H118	H	0.912839	0.006657	0.496367
H119	H	0.702561	-0.060772	0.789420
H120	H	1.225496	-0.418018	0.646746
