data_functionalizedCrystal
_audit_creation_method	'MofGen! by Chris Wilmer'
_symmetry_space_group_name_H-M	'P1'
_symmetry_Int_Tables_number	1
_symmetry_cell_setting	triclinic
loop_
_symmetry_equiv_pos_as_xyz
  x,y,z
_cell_length_a	10.654555
_cell_length_b	8.965430
_cell_length_c	10.654551
_cell_angle_alpha	90.006102
_cell_angle_beta	95.513798
_cell_angle_gamma	89.999470
loop_
_atom_site_label
_atom_site_type_symbol
_atom_site_fract_x
_atom_site_fract_y
_atom_site_fract_z
O1	O	-1.667835	0.123942	0.176435
O2	O	-1.167835	0.623942	0.676435
O3	O	-1.302358	0.123965	0.193234
O4	O	-0.802358	0.623965	0.693234
O5	O	-1.493499	0.123950	0.002096
O6	O	-0.993499	0.623950	0.502096
O7	O	-1.476694	0.123957	0.367574
O8	O	-0.976694	0.623957	0.867574
O9	O	-1.493488	-0.124129	0.002078
O10	O	-0.993488	0.375871	0.502078
O11	O	-1.302347	-0.124114	0.193216
O12	O	-0.802347	0.375886	0.693216
O13	O	-1.667825	-0.124136	0.176417
O14	O	-1.167825	0.375864	0.676417
Cu15	Cu	-1.485085	-0.146777	0.184815
Cu16	Cu	-0.985085	0.353223	0.684815
Cu17	Cu	-1.485098	0.146605	0.184836
Cu18	Cu	-0.985098	0.646605	0.684836
O19	O	-1.476684	-0.124122	0.367555
O20	O	-0.976684	0.375878	0.867555
C21	C	-1.255554	-0.000072	0.191990
C22	C	-0.755554	0.499928	0.691990
C23	C	-1.116112	-0.000063	0.188296
C24	C	-0.616112	0.499937	0.688296
N25	N	-1.485085	-0.353126	0.184799
N26	N	-0.985085	0.146874	0.684799
C27	C	-0.919572	0.135157	0.183104
C28	C	-0.419572	0.635157	0.683104
C29	C	-1.050594	0.135164	0.186568
C30	C	-0.550594	0.635164	0.686568
C31	C	-1.050601	-0.135306	0.186548
C32	C	-0.550601	0.364694	0.686548
C33	C	-0.919582	-0.135311	0.183075
C34	C	-0.419582	0.364689	0.683075
C35	C	-1.572790	-0.549803	0.095708
C36	C	-1.072790	-0.049803	0.595708
C37	C	-1.599156	-0.450325	0.209067
C38	C	-1.099156	0.049675	0.709067
C39	C	-1.458775	-0.450396	0.071449
C40	C	-0.958775	0.049604	0.571449
C41	C	-1.511531	-0.549757	0.298259
C42	C	-1.011531	-0.049757	0.798259
C43	C	-1.371099	-0.549836	0.160567
C44	C	-0.871099	-0.049836	0.660567
C45	C	-1.397418	-0.450403	0.274008
C46	C	-0.897418	0.049597	0.774008
C47	C	-0.714628	-0.000091	0.177662
C48	C	-0.214628	0.499909	0.677662
C49	C	-0.854070	-0.000075	0.181360
C50	C	-0.354070	0.499925	0.681360
C51	C	-1.492259	-0.000087	-0.044711
C52	C	-0.992259	0.499913	0.455289
C53	C	-1.488567	-0.000080	-0.184155
C54	C	-0.988567	0.499920	0.315845
N55	N	-1.485107	0.352954	0.184842
N56	N	-0.985107	0.852954	0.684842
C57	C	-1.486839	0.135149	-0.249649
C58	C	-0.986839	0.635149	0.250351
C59	C	-1.483359	0.135151	-0.380669
C60	C	-0.983359	0.635151	0.119331
C61	C	-1.483339	-0.135318	-0.380691
C62	C	-0.983339	0.364682	0.119309
C63	C	-1.486810	-0.135318	-0.249671
C64	C	-0.986810	0.364682	0.250329
C65	C	-1.477923	-0.000081	0.414362
C66	C	-0.977923	0.499919	0.914362
C67	C	-1.481616	-0.000079	0.553806
C68	C	-0.981616	0.499921	1.053806
H69	H	-0.866236	0.245275	0.181706
H70	H	-0.366236	0.745275	0.681706
H71	H	-1.436511	-0.406748	-0.024428
H72	H	-0.936511	0.093252	0.475572
F73	F	-1.120301	0.279096	0.188419
F74	F	-0.620301	0.779096	0.688419
F75	F	-1.120334	-0.279225	0.188383
F76	F	-0.620334	0.220775	0.688383
F77	F	-1.725157	-0.393160	0.235877
F78	F	-1.225157	0.106840	0.735877
H79	H	-0.866250	-0.245439	0.181654
H80	H	-0.366250	0.254561	0.681654
F81	F	-1.669784	-0.606854	-0.002681
F82	F	-1.169784	-0.106854	0.497319
H83	H	-1.323256	-0.407035	0.349450
H84	H	-0.823256	0.092965	0.849450
H85	H	-1.488210	-0.245445	-0.196344
H86	H	-0.988210	0.254555	0.303656
F87	F	-1.488704	0.279082	-0.179925
F88	F	-0.988704	0.779082	0.320075
H89	H	-1.481950	0.245268	-0.433988
H90	H	-0.981950	0.745268	0.066012
F91	F	-1.481469	-0.279240	-0.450429
F92	F	-0.981469	0.220760	0.049571
F93	F	-1.540782	-0.606561	0.423605
F94	F	-1.040782	-0.106561	0.923605
H95	H	-1.274724	-0.593579	0.140008
H96	H	-0.774724	-0.093579	0.640008
