data_functionalizedCrystal
_audit_creation_method	'MofGen! by Chris Wilmer'
_symmetry_space_group_name_H-M	'P1'
_symmetry_Int_Tables_number	1
_symmetry_cell_setting	triclinic
loop_
_symmetry_equiv_pos_as_xyz
  x,y,z
_cell_length_a	15.995350
_cell_length_b	16.109301
_cell_length_c	15.186229
_cell_angle_alpha	90.000638
_cell_angle_beta	89.998487
_cell_angle_gamma	96.523072
loop_
_atom_site_label
_atom_site_type_symbol
_atom_site_fract_x
_atom_site_fract_y
_atom_site_fract_z
O1	O	0.107624	-1.103160	-0.073168
O2	O	0.440957	-0.769826	0.260165
O3	O	0.774291	-0.436493	0.593498
O4	O	0.121018	-0.861101	-0.073182
O5	O	0.454351	-0.527768	0.260151
O6	O	0.787684	-0.194435	0.593485
O7	O	-0.007569	-0.988747	-0.073174
O8	O	0.325765	-0.655414	0.260159
O9	O	0.659098	-0.322081	0.593493
O10	O	0.236210	-0.975514	-0.073176
O11	O	0.569544	-0.642180	0.260157
O12	O	0.902877	-0.308847	0.593490
O13	O	-0.007570	-0.988739	0.073283
O14	O	0.325763	-0.655405	0.406617
O15	O	0.659096	-0.322072	0.739950
O16	O	0.121016	-0.861093	0.073275
O17	O	0.454349	-0.527759	0.406609
O18	O	0.787683	-0.194426	0.739942
O19	O	0.107622	-1.103151	0.073289
O20	O	0.440956	-0.769818	0.406622
O21	O	0.774289	-0.436484	0.739955
Zn22	Zn	0.114319	-0.982121	0.096535
Zn23	Zn	0.447652	-0.648787	0.429869
Zn24	Zn	0.780985	-0.315454	0.763202
Zn25	Zn	0.114321	-0.982132	-0.096428
Zn26	Zn	0.447654	-0.648798	0.236905
Zn27	Zn	0.780988	-0.315465	0.570238
O28	O	0.236208	-0.975505	0.073281
O29	O	0.569542	-0.642172	0.406614
O30	O	0.902875	-0.308838	0.739948
C31	C	-0.038764	-0.988196	0.000053
C32	C	0.294569	-0.654863	0.333386
C33	C	0.627903	-0.321529	0.666720
C34	C	-0.131714	-0.986556	0.000048
C35	C	0.201619	-0.653222	0.333381
C36	C	0.534953	-0.319889	0.666715
C37	C	0.120474	-0.830122	0.000045
C38	C	0.453808	-0.496789	0.333378
C39	C	0.787141	-0.163455	0.666712
C40	C	0.118848	-0.737826	0.000040
C41	C	0.452181	-0.404493	0.333373
C42	C	0.785514	-0.071160	0.666706
C43	C	0.108166	-1.134130	0.000060
C44	C	0.441499	-0.800797	0.333393
C45	C	0.774832	-0.467464	0.666727
C46	C	0.109792	-1.226426	0.000059
C47	C	0.443126	-0.893093	0.333393
C48	C	0.776459	-0.559759	0.666726
C49	C	-0.469460	-0.980665	0.000050
C50	C	-0.136127	-0.647332	0.333384
C51	C	0.197207	-0.313999	0.666717
C52	C	-0.422001	-0.889758	-0.000283
C53	C	-0.088668	-0.556425	0.333050
C54	C	0.244666	-0.223091	0.666384
C55	C	-0.325311	-0.891399	0.000047
C56	C	0.008022	-0.558065	0.333380
C57	C	0.341355	-0.224732	0.666714
C58	C	-0.301900	-0.983587	0.000049
C59	C	0.031433	-0.650254	0.333382
C60	C	0.364767	-0.316920	0.666715
C61	C	-0.342991	-1.028421	0.083684
C62	C	-0.009658	-0.695088	0.417017
C63	C	0.323676	-0.361754	0.750351
C64	C	-0.439626	-1.026137	0.083754
C65	C	-0.106293	-0.692804	0.417087
C66	C	0.227041	-0.359470	0.750420
C67	C	-0.439983	-1.028025	-0.082795
C68	C	-0.106649	-0.694691	0.250538
C69	C	0.226684	-0.361358	0.583871
C70	C	-0.343037	-1.028003	-0.083901
C71	C	-0.009704	-0.694670	0.249433
C72	C	0.323629	-0.361337	0.582766
C73	C	-0.207203	-0.985243	0.000051
C74	C	0.126130	-0.651910	0.333384
C75	C	0.459464	-0.318577	0.666717
C76	C	-0.564157	-0.979012	0.000054
C77	C	-0.230824	-0.645679	0.333388
C78	C	0.102509	-0.312345	0.666721
C79	C	0.267404	-0.976056	0.000052
C80	C	0.600737	-0.642723	0.333385
C81	C	0.934071	-0.309390	0.666719
C82	C	0.360354	-0.977697	0.000051
C83	C	0.693687	-0.644363	0.333385
C84	C	1.027021	-0.311030	0.666718
N85	N	0.114317	-0.982119	0.228228
N86	N	0.447650	-0.648786	0.561561
N87	N	0.780983	-0.315452	0.894895
C88	C	0.191366	-0.515573	0.000049
C89	C	0.524699	-0.182240	0.333382
C90	C	0.858033	0.151093	0.666716
C91	C	0.189831	-0.428853	0.000055
C92	C	0.523165	-0.095519	0.333388
C93	C	0.856498	0.237814	0.666721
C94	C	0.037268	-0.448686	0.000053
C95	C	0.370601	-0.115352	0.333386
C96	C	0.703935	0.217981	0.666719
C97	C	0.038804	-0.535405	0.000053
C98	C	0.372137	-0.202072	0.333387
C99	C	0.705470	0.131262	0.666720
C100	C	0.115855	-0.568846	0.000047
C101	C	0.449189	-0.235513	0.333380
C102	C	0.782522	0.097821	0.666714
C103	C	0.112785	-0.395406	0.000052
C104	C	0.446118	-0.062073	0.333385
C105	C	0.779451	0.271260	0.666719
C106	C	0.111120	-0.301380	0.000058
C107	C	0.444453	0.031954	0.333392
C108	C	0.777787	0.365287	0.666725
C109	C	0.117520	-0.662879	0.000043
C110	C	0.450854	-0.329545	0.333376
C111	C	0.784187	0.003788	0.666709
N112	N	0.114317	-0.982140	-0.228121
N113	N	0.447650	-0.648807	0.105212
N114	N	0.780983	-0.315473	0.438546
C115	C	0.057398	-1.038660	0.453954
C116	C	0.390731	-0.705327	0.787288
C117	C	0.724064	-0.371993	1.120621
C118	C	0.057396	-1.038662	0.546144
C119	C	0.390729	-0.705329	0.879477
C120	C	0.724062	-0.371996	1.212811
C121	C	0.171238	-0.925593	0.546146
C122	C	0.504572	-0.592260	0.879479
C123	C	0.837905	-0.258926	1.212813
C124	C	0.171236	-0.925587	0.453958
C125	C	0.504569	-0.592254	0.787291
C126	C	0.837902	-0.258920	1.120625
C127	C	0.114316	-0.982125	0.407865
C128	C	0.447650	-0.648792	0.741198
C129	C	0.780983	-0.315459	1.074531
C130	C	0.114317	-0.982134	0.592242
C131	C	0.447650	-0.648800	0.925576
C132	C	0.780984	-0.315467	1.258909
C133	C	0.114315	-0.982136	0.692198
C134	C	0.447649	-0.648803	1.025532
C135	C	0.780982	-0.315470	1.358865
C136	C	0.114317	-0.982122	0.307902
C137	C	0.447650	-0.648789	0.641235
C138	C	0.780983	-0.315455	0.974569
H139	H	-0.296879	-0.856156	-0.059906
H140	H	0.036454	-0.522823	0.273427
H141	H	0.369788	-0.189489	0.606761
H142	H	-0.327694	-1.095231	-0.088949
H143	H	0.005640	-0.761898	0.244384
H144	H	0.338973	-0.428564	0.577717
H145	H	0.217586	-0.879546	0.416429
H146	H	0.550919	-0.546212	0.749763
H147	H	0.884252	-0.212879	1.083096
F148	F	0.231815	-0.865426	0.595208
F149	F	0.565148	-0.532093	0.928541
F150	F	0.898482	-0.198759	1.261875
F151	F	-0.003183	-1.098831	0.404902
F152	F	0.330150	-0.765497	0.738235
F153	F	0.663484	-0.432164	1.071568
H154	H	0.251320	-0.385481	0.000058
H155	H	0.584653	-0.052147	0.333392
H156	H	0.917987	0.281186	0.666725
F157	F	-0.044731	-0.413087	0.000055
F158	F	0.288602	-0.079754	0.333389
F159	F	0.621936	0.253579	0.666722
F160	F	-0.446207	-0.842268	-0.078678
F161	F	-0.112874	-0.508934	0.254656
F162	F	0.220460	-0.175601	0.587989
F163	F	-0.447881	-0.842350	0.077455
F164	F	-0.114548	-0.509017	0.410788
F165	F	0.218786	-0.175683	0.744121
F166	F	-0.041570	-0.592106	0.000057
F167	F	0.291764	-0.258772	0.333390
F168	F	0.625097	0.074561	0.666724
F169	F	-0.003186	-1.098832	0.595193
F170	F	0.330147	-0.765499	0.928526
F171	F	0.663481	-0.432166	1.261860
F172	F	-0.288874	-0.845013	0.078537
F173	F	0.044459	-0.511679	0.411870
F174	F	0.377793	-0.178346	0.745204
H175	H	-0.457919	-0.993437	0.146271
H176	H	-0.124586	-0.660104	0.479605
H177	H	0.208747	-0.326770	0.812938
F178	F	-0.324554	-1.116947	0.087754
F179	F	0.008780	-0.783614	0.421087
F180	F	0.342113	-0.450280	0.754421
H181	H	0.254106	-0.542798	0.000051
H182	H	0.587440	-0.209465	0.333384
H183	H	0.920773	0.123869	0.666717
F184	F	-0.305887	-0.987711	0.165034
F185	F	0.027446	-0.654378	0.498368
F186	F	0.360780	-0.321045	0.831701
F187	F	-0.481803	-1.113372	0.088724
F188	F	-0.148470	-0.780039	0.422058
F189	F	0.184864	-0.446705	0.755391
H190	H	-0.460513	-0.998306	-0.146186
H191	H	-0.127180	-0.664973	0.187148
H192	H	0.206153	-0.331640	0.520481
H193	H	-0.315779	-0.995224	-0.145772
H194	H	0.017554	-0.661891	0.187562
H195	H	0.350888	-0.328557	0.520895
H196	H	-0.471762	-1.095050	-0.083356
H197	H	-0.138428	-0.761717	0.249977
H198	H	0.194905	-0.428384	0.583310
