data_functionalizedCrystal
_audit_creation_method	'MofGen! by Chris Wilmer'
_symmetry_space_group_name_H-M	'P1'
_symmetry_Int_Tables_number	1
_symmetry_cell_setting	triclinic
loop_
_symmetry_equiv_pos_as_xyz
  x,y,z
_cell_length_a	12.645331
_cell_length_b	29.839131
_cell_length_c	12.645323
_cell_angle_alpha	89.967288
_cell_angle_beta	89.977324
_cell_angle_gamma	90.040399
loop_
_atom_site_label
_atom_site_type_symbol
_atom_site_fract_x
_atom_site_fract_y
_atom_site_fract_z
Zn1	Zn	1.620556	-0.178862	-0.599388
Zn2	Zn	1.620365	-0.253994	-0.422104
Zn3	Zn	1.443271	-0.178877	-0.422133
Zn4	Zn	1.443179	-0.253964	-0.599320
O5	O	1.531843	-0.216424	-0.510736
O6	O	1.768878	-0.188834	-0.575888
O7	O	1.596831	-0.244048	-0.273761
O8	O	1.466907	-0.116008	-0.445687
O9	O	1.768737	-0.244033	-0.445638
O10	O	1.597158	-0.115997	-0.575916
O11	O	1.466721	-0.188860	-0.273782
O12	O	1.294912	-0.188832	-0.445620
O13	O	1.466751	-0.243983	-0.747676
O14	O	1.294844	-0.243998	-0.575799
O15	O	1.597069	-0.188806	-0.747727
O16	O	1.596742	-0.316857	-0.445571
O17	O	1.466565	-0.316835	-0.575771
C18	C	1.256413	-0.216414	-0.510706
C19	C	1.138583	-0.216420	-0.510718
C20	C	0.971026	-0.181555	-0.429274
C21	C	1.093586	-0.181645	-0.428915
C22	C	1.094017	-0.263746	-0.480188
C23	C	0.971418	-0.263555	-0.479632
C24	C	0.971445	-0.204409	-0.623006
C25	C	1.094052	-0.203352	-0.622382
C26	C	1.531651	-0.333147	-0.510684
C27	C	1.531667	-0.383081	-0.510697
C28	C	1.599749	-0.692723	-0.443041
C29	C	1.599880	-0.880396	-0.443082
O30	O	1.657615	-0.904660	-0.385518
N31	N	1.532063	-0.903866	-0.510816
C32	C	1.464212	-0.880415	-0.578550
O33	O	1.406540	-0.904684	-0.636171
C34	C	1.464088	-0.692743	-0.578514
C35	C	1.531902	-0.669275	-0.510767
C36	C	1.667559	-0.669256	-0.375300
C37	C	1.667522	-0.622340	-0.375287
C38	C	1.599674	-0.598892	-0.443013
C39	C	1.531865	-0.622360	-0.510753
C40	C	1.396244	-0.669293	-0.646252
C41	C	1.396220	-0.622372	-0.646239
C42	C	1.464035	-0.598904	-0.578492
C43	C	1.463980	-0.551997	-0.578466
N44	N	1.531798	-0.528527	-0.510732
C45	C	1.599645	-0.551975	-0.443005
C46	C	1.464281	-0.978946	-0.578563
C47	C	1.464311	-1.025864	-0.578571
C48	C	1.599980	-1.025842	-0.443104
C49	C	1.599945	-0.978923	-0.443091
C50	C	1.532099	-0.955476	-0.510829
C51	C	1.599560	-0.453449	-0.442981
C52	C	1.599514	-0.406529	-0.442970
C53	C	1.463849	-0.406555	-0.578441
C54	C	1.463891	-0.453471	-0.578448
C55	C	1.531755	-0.476916	-0.510715
O56	O	1.406284	-0.527704	-0.636009
O57	O	1.657325	-0.527697	-0.385409
C58	C	1.599787	-0.739639	-0.443054
C59	C	1.531977	-0.763106	-0.510794
C60	C	1.464130	-0.739659	-0.578521
C61	C	1.532007	-0.810024	-0.510802
C62	C	1.599854	-0.833472	-0.443076
C63	C	1.667672	-0.810002	-0.375341
C64	C	1.667634	-0.763087	-0.375328
C65	C	1.396312	-0.763129	-0.646256
C66	C	1.396354	-0.810044	-0.646263
C67	C	1.464202	-0.833492	-0.578536
C68	C	1.808348	-0.216435	-0.510768
C69	C	1.926178	-0.216440	-0.510781
C70	C	1.531921	-0.216390	-0.787242
C71	C	1.531954	-0.216375	-0.905072
C72	C	1.532064	-0.099246	-0.510812
C73	C	1.532158	-0.049312	-0.510845
C74	C	1.449718	-0.250923	-1.072604
C75	C	1.449934	-0.251094	-0.950044
C76	C	1.643641	-0.229224	-0.949588
C77	C	1.643190	-0.229441	-1.072186
C78	C	1.503559	-0.168784	-1.072285
C79	C	1.501067	-0.169069	-0.949679
C80	C	1.531826	-0.216427	-0.235307
C81	C	1.531998	-0.216315	-0.117477
H82	H	1.123190	-0.168526	-0.645403
Br83	Br	1.480624	-0.309280	-1.124039
Br84	Br	1.372195	-0.947132	-0.670501
H85	H	1.423538	-0.157071	-1.103193
Br86	Br	1.371779	-0.374724	-0.670355
H87	H	1.468704	-0.286331	-0.920719
Br88	Br	0.921958	-0.308344	-0.574254
Br89	Br	1.304215	-0.701130	-0.738211
H90	H	1.340973	-0.603284	-0.701402
H91	H	1.668166	-0.263606	-0.918888
Br92	Br	1.371831	-0.485321	-0.670365
H93	H	1.655225	-1.044941	-0.387958
H94	H	1.123160	-0.290432	-0.537689
H95	H	1.418876	-0.159379	-0.920582
Br96	Br	1.372258	-1.057707	-0.670501
H97	H	1.722855	-0.743983	-0.320162
H98	H	1.341064	-0.744041	-0.701408
H99	H	1.556621	-0.141920	-0.919066
H100	H	1.654736	-0.387423	-0.387799
Br101	Br	1.311259	-0.237649	-1.121718
Br102	Br	1.759745	-0.841833	-0.283423
H103	H	1.563489	-0.142999	-1.101307
Br104	Br	1.304308	-0.841887	-0.738211
Br105	Br	1.311894	-0.237689	-0.899870
H106	H	1.722745	-0.603236	-0.320125
Br107	Br	1.683376	-0.287353	-1.119860
Br108	Br	1.759653	-0.701069	-0.283375
Br109	Br	1.691981	-0.947079	-0.351146
H110	H	1.124662	-0.274123	-0.399026
H111	H	1.123721	-0.146552	-0.448053
H112	H	1.706571	-0.205328	-1.101872
Br113	Br	1.691663	-0.485260	-0.351056
H114	H	0.941597	-0.146356	-0.448207
Br115	Br	0.919575	-0.194650	-0.291482
H116	H	1.122856	-0.189597	-0.345753
Br117	Br	0.923651	-0.280559	-0.342890
Br118	Br	1.748562	-0.188540	-0.901049
H119	H	1.124687	-0.226907	-0.686360
Br120	Br	0.920009	-0.147894	-0.669278
Br121	Br	0.923107	-0.246758	-0.724227
