data_functionalizedCrystal
_audit_creation_method	'MofGen! by Chris Wilmer'
_symmetry_space_group_name_H-M	'P1'
_symmetry_Int_Tables_number	1
_symmetry_cell_setting	triclinic
loop_
_symmetry_equiv_pos_as_xyz
  x,y,z
_cell_length_a	12.759401
_cell_length_b	18.215405
_cell_length_c	12.759393
_cell_angle_alpha	89.963343
_cell_angle_beta	89.982824
_cell_angle_gamma	90.025046
loop_
_atom_site_label
_atom_site_type_symbol
_atom_site_fract_x
_atom_site_fract_y
_atom_site_fract_z
Zn1	Zn	1.606167	-0.292944	-0.593937
Zn2	Zn	2.106167	0.207056	-0.093937
Zn3	Zn	1.606034	-0.416029	-0.418239
Zn4	Zn	2.106034	0.083971	0.081761
Zn5	Zn	1.430473	-0.292981	-0.418277
Zn6	Zn	1.930473	0.207019	0.081723
Zn7	Zn	1.430427	-0.415974	-0.593881
Zn8	Zn	1.930427	0.084026	-0.093881
O9	O	1.518275	-0.354482	-0.506084
O10	O	2.018275	0.145518	-0.006084
O11	O	1.753171	-0.309279	-0.570639
O12	O	2.253171	0.190721	-0.070639
O13	O	1.582710	-0.399744	-0.271223
O14	O	2.082710	0.100256	0.228777
O15	O	1.453855	-0.189992	-0.441618
O16	O	1.953855	0.310008	0.058382
O17	O	1.753073	-0.399709	-0.441554
O18	O	2.253073	0.100291	0.058446
O19	O	1.582936	-0.189965	-0.570675
O20	O	2.082936	0.310035	-0.070675
O21	O	1.453726	-0.309342	-0.271251
O22	O	1.953726	0.190658	0.228749
O23	O	1.283446	-0.309289	-0.441563
O24	O	1.783446	0.190711	0.058437
O25	O	1.453775	-0.399616	-0.740909
O26	O	1.953775	0.100384	-0.240909
O27	O	1.283412	-0.399651	-0.570578
O28	O	1.783412	0.100349	-0.070578
O29	O	1.582891	-0.309226	-0.740951
O30	O	2.082891	0.190774	-0.240951
O31	O	1.582665	-0.519006	-0.441499
O32	O	2.082665	-0.019006	0.058501
O33	O	1.453646	-0.518966	-0.570542
O34	O	1.953646	-0.018966	-0.070542
C35	C	1.245308	-0.354468	-0.506069
C36	C	1.745308	0.145532	-0.006069
C37	C	1.128531	-0.354480	-0.506088
C38	C	1.628531	0.145520	-0.006088
C39	C	1.073679	-0.401607	-0.573155
C40	C	1.573679	0.098393	-0.073155
C41	C	0.963955	-0.401617	-0.573167
C42	C	1.463955	0.098383	-0.073167
C43	C	0.963945	-0.307370	-0.439035
C44	C	1.463945	0.192630	0.060965
C45	C	1.073667	-0.307357	-0.439029
C46	C	1.573667	0.192643	0.060971
C47	C	1.073684	-0.456023	-0.650592
C48	C	1.573684	0.043977	-0.150592
C49	C	0.963960	-0.456032	-0.650604
C50	C	1.463960	0.043968	-0.150604
C51	C	1.518165	-0.545688	-0.506033
C52	C	2.018165	-0.045688	-0.006033
C53	C	1.518213	-0.627487	-0.506047
C54	C	2.018213	-0.127487	-0.006047
C55	C	1.585551	-0.815678	-0.438977
C56	C	2.085551	-0.315678	0.061023
C57	C	1.585598	-0.892536	-0.439003
C58	C	2.085598	-0.392536	0.060997
C59	C	1.451135	-0.892534	-0.573265
C60	C	1.951135	-0.392534	-0.073265
C61	C	1.451094	-0.815677	-0.573244
C62	C	1.951094	-0.315677	-0.073244
C63	C	1.518300	-0.777251	-0.506094
C64	C	2.018300	-0.277251	-0.006094
C65	C	1.518388	-0.930967	-0.506141
C66	C	2.018388	-0.430967	-0.006141
C67	C	1.518439	-1.014300	-0.506169
C68	C	2.018439	-0.514300	-0.006169
C69	C	1.518251	-0.693912	-0.506067
C70	C	2.018251	-0.193912	-0.006067
C71	C	1.792309	-0.354496	-0.506098
C72	C	2.292309	0.145504	-0.006098
C73	C	1.909085	-0.354502	-0.506105
C74	C	2.409085	0.145498	-0.006105
C75	C	1.518343	-0.354411	-0.780117
C76	C	2.018343	0.145589	-0.280117
C77	C	1.518371	-0.354380	-0.896894
C78	C	2.018371	0.145620	-0.396894
C79	C	1.518415	-0.162529	-0.506157
C80	C	2.018415	0.337471	-0.006157
C81	C	1.518475	-0.080730	-0.506189
C82	C	2.018475	0.419270	-0.006189
C83	C	1.451163	-0.401424	-0.951736
C84	C	1.951163	0.098576	-0.451736
C85	C	1.451202	-0.401397	-1.061460
C86	C	1.951202	0.098603	-0.561460
C87	C	1.585659	-0.307277	-1.061490
C88	C	2.085659	0.192723	-0.561490
C89	C	1.585625	-0.307308	-0.951768
C90	C	2.085625	0.192692	-0.451768
C91	C	1.373532	-0.455761	-0.951719
C92	C	1.873532	0.044239	-0.451719
C93	C	1.373570	-0.455735	-1.061443
C94	C	1.873570	0.044265	-0.561443
C95	C	1.518269	-0.354500	-0.233116
C96	C	2.018269	0.145500	0.266884
C97	C	1.518444	-0.354323	-0.116340
C98	C	2.018444	0.145677	0.383660
H99	H	1.107685	-0.510135	-0.621300
H100	H	1.607685	-0.010135	-0.121300
H101	H	1.640276	-0.784393	-0.384302
H102	H	2.140276	-0.284393	0.115698
H103	H	1.103494	-0.440824	-0.732001
H104	H	1.603494	0.059176	-0.232001
H105	H	0.919262	-0.269003	-0.384439
H106	H	1.419262	0.230997	0.115561
H107	H	1.640363	-0.269008	-0.907120
H108	H	2.140363	0.230992	-0.407120
O109	O	1.378555	-0.774228	-0.645643
O110	O	1.878555	-0.274228	-0.145643
H111	H	1.389828	-0.714329	-0.634355
H112	H	1.889828	-0.214329	-0.134355
H113	H	1.640361	-0.923820	-0.384351
H114	H	2.140361	-0.423820	0.115649
H115	H	1.640416	-0.268953	-1.106183
H116	H	2.140416	0.231047	-0.606183
O117	O	0.924462	-0.531507	-0.621533
O118	O	1.424462	-0.031507	-0.121533
H119	H	0.876108	-0.527769	-0.549407
H120	H	1.376108	-0.027769	-0.049407
O121	O	1.402289	-0.531296	-0.912310
O122	O	1.902289	-0.031296	-0.412310
H123	H	1.474422	-0.527698	-0.863982
H124	H	1.974422	-0.027698	-0.363982
O125	O	1.271158	-0.428723	-0.906643
O126	O	1.771158	0.071277	-0.406643
H127	H	1.275353	-0.429857	-0.819769
H128	H	1.775353	0.070143	-0.319769
O129	O	1.378629	-0.933979	-0.645670
O130	O	1.878629	-0.433979	-0.145670
H131	H	1.389942	-0.993879	-0.634398
H132	H	1.889942	-0.493879	-0.134398
H133	H	0.929965	-0.435688	-0.727959
H134	H	1.429965	0.064312	-0.227959
O135	O	1.412112	-0.527447	-1.106511
O136	O	1.912112	-0.027447	-0.606511
H137	H	1.432511	-0.565490	-1.041671
H138	H	1.932511	-0.065490	-0.541671
H139	H	1.292222	-0.440452	-1.091229
H140	H	1.792222	0.059548	-0.591229
H141	H	1.118324	-0.268977	-0.384424
H142	H	1.618324	0.231023	0.115576
