data_functionalizedCrystal
_audit_creation_method	'MofGen! by Chris Wilmer'
_symmetry_space_group_name_H-M	'P1'
_symmetry_Int_Tables_number	1
_symmetry_cell_setting	triclinic
loop_
_symmetry_equiv_pos_as_xyz
  x,y,z
_cell_length_a	12.837942
_cell_length_b	14.971482
_cell_length_c	11.295675
_cell_angle_alpha	94.100462
_cell_angle_beta	85.464514
_cell_angle_gamma	89.220774
loop_
_atom_site_label
_atom_site_type_symbol
_atom_site_fract_x
_atom_site_fract_y
_atom_site_fract_z
O1	O	0.142053	1.192908	-0.099007
O2	O	0.158237	0.933872	-0.099012
O3	O	-0.000765	1.057646	-0.099002
O4	O	0.301055	1.069133	-0.099017
O5	O	-0.014709	1.068491	0.099043
O6	O	0.144293	0.944716	0.099033
O7	O	0.128109	1.203753	0.099039
Cu8	Cu	0.134928	1.075225	0.117119
Cu9	Cu	0.151418	1.062400	-0.117093
O10	O	0.287111	1.079978	0.099029
C11	C	0.150542	0.905908	0.000010
C12	C	0.148375	0.806428	0.000008
C13	C	0.139754	0.765609	0.107964
C14	C	0.137701	0.672138	0.107965
C15	C	0.144278	0.619487	0.000009
C16	C	0.152897	0.660312	-0.107955
C17	C	0.154942	0.753782	-0.107955
C18	C	0.148636	0.465491	-0.107947
C19	C	0.146593	0.372015	-0.107948
C20	C	0.131396	0.383847	0.107973
C21	C	0.133441	0.477317	0.107973
C22	C	0.142062	0.518136	0.000008
C23	C	-0.046363	1.059188	0.000020
C24	C	-0.161454	1.047614	0.000018
C25	C	-0.402240	1.186755	-0.000004
C26	C	-0.510379	1.175884	-0.000006
C27	C	-0.485872	1.015001	0.000002
C28	C	-0.377733	1.025872	0.000005
C29	C	-0.335922	1.111752	0.000003
C30	C	-0.227781	1.122622	0.000014
C31	C	-0.203276	0.961740	0.000014
C32	C	-0.311415	0.950869	0.000012
C33	C	0.332709	1.078436	0.000004
C34	C	0.447800	1.090010	-0.000001
C35	C	0.135804	1.231716	0.000014
C36	C	0.137971	1.331196	0.000008
N37	N	0.123329	1.084252	0.281851
N38	N	0.163009	1.053379	-0.281825
C39	C	0.246557	0.988298	0.531186
C40	C	0.237782	0.995140	0.655847
C41	C	0.097009	1.104782	0.655835
C42	C	0.105784	1.097940	0.531174
C43	C	0.180559	1.039695	0.468855
C44	C	0.189329	1.032849	0.344192
C45	C	0.048561	1.142495	0.344182
C46	C	0.039786	1.149337	0.468842
H47	H	0.155657	0.498722	-0.195864
F48	F	0.159864	0.604275	-0.222850
H49	H	-0.149267	0.900668	0.000030
H50	H	0.036135	1.152209	0.706592
H51	H	-0.345473	0.880948	0.000009
H52	H	0.250212	0.985422	0.293452
F53	F	0.132761	0.821636	0.222867
H54	H	-0.193741	1.192550	0.000017
F55	F	0.308028	0.940438	0.722181
H56	H	0.161964	0.787015	-0.195864
H57	H	-0.021092	1.196761	0.519598
F58	F	-0.530388	0.923608	-0.000025
H59	H	-0.368198	1.256682	0.000006
H60	H	-0.564373	1.236959	-0.000016
H61	H	0.307436	0.940867	0.480445
H62	H	-0.005181	1.184343	0.293417
F63	F	0.126452	0.533350	0.222872
F64	F	0.122221	0.340404	0.222878
F65	F	0.153591	0.315981	-0.222846
F66	F	0.128539	0.628699	0.222867
