data_functionalizedCrystal
_audit_creation_method	'MofGen! by Chris Wilmer'
_symmetry_space_group_name_H-M	'P1'
_symmetry_Int_Tables_number	1
_symmetry_cell_setting	triclinic
loop_
_symmetry_equiv_pos_as_xyz
  x,y,z
_cell_length_a	19.077105
_cell_length_b	12.759400
_cell_length_c	19.076919
_cell_angle_alpha	92.275542
_cell_angle_beta	90.076224
_cell_angle_gamma	87.711155
loop_
_atom_site_label
_atom_site_type_symbol
_atom_site_fract_x
_atom_site_fract_y
_atom_site_fract_z
Zn1	Zn	1.058328	-0.508276	-0.440440
Zn2	Zn	1.062987	-0.677203	-0.322941
Zn3	Zn	0.945544	-0.494202	-0.318233
Zn4	Zn	0.940808	-0.676570	-0.435693
O5	O	1.001917	-0.589063	-0.379327
O6	O	1.157278	-0.536840	-0.428810
O7	O	1.051339	-0.647303	-0.223985
O8	O	0.960537	-0.349051	-0.334460
O9	O	1.160701	-0.660950	-0.342484
O10	O	1.043399	-0.359391	-0.424245
O11	O	0.965055	-0.512852	-0.220526
O12	O	0.846583	-0.512238	-0.329857
O13	O	0.952466	-0.659870	-0.534655
O14	O	0.843104	-0.646223	-0.416155
O15	O	1.038807	-0.536226	-0.538142
O16	O	1.046747	-0.824137	-0.337881
O17	O	0.956984	-0.823672	-0.420720
C18	C	0.819347	-0.577635	-0.371981
C19	C	0.741242	-0.572773	-0.368855
C20	C	0.702758	-0.640344	-0.412246
C21	C	0.629371	-0.635762	-0.409312
C22	C	0.594468	-0.563612	-0.362983
C23	C	0.632957	-0.496033	-0.319590
C24	C	0.706344	-0.500611	-0.322528
C25	C	0.375179	-0.542424	-0.349390
C26	C	0.301787	-0.537853	-0.346453
C27	C	0.298205	-0.677581	-0.436177
C28	C	0.371593	-0.682157	-0.439108
C29	C	0.410076	-0.614575	-0.395717
N30	N	0.519454	-0.558929	-0.359982
N31	N	0.485089	-0.619254	-0.398723
C32	C	1.001876	-0.862027	-0.379313
C33	C	1.001921	-0.978807	-0.379333
C34	C	1.045046	-1.038965	-0.426121
C35	C	1.045085	-1.148692	-0.426142
C36	C	0.958872	-1.138095	-0.332579
C37	C	0.958830	-1.028370	-0.332563
C38	C	1.066869	-1.304878	-0.510064
C39	C	1.110005	-1.365039	-0.556847
C40	C	1.178114	-1.334240	-0.570443
C41	C	1.203101	-1.243281	-0.537247
C42	C	1.159969	-1.183126	-0.490459
C43	C	1.091850	-1.213924	-0.476875
C44	C	0.937054	-0.872182	-0.248640
C45	C	0.893925	-0.812024	-0.201848
C46	C	0.825815	-0.842821	-0.188245
C47	C	0.800831	-0.933783	-0.221429
C48	C	0.843960	-0.993941	-0.268221
C49	C	0.912069	-0.963136	-0.281825
C50	C	1.185199	-0.600536	-0.386702
C51	C	1.263303	-0.605425	-0.389845
C52	C	0.994588	-0.599547	-0.562607
C53	C	0.991466	-0.604015	-0.640711
C54	C	1.001976	-0.315035	-0.379357
C55	C	1.002002	-0.198260	-0.379370
C56	C	1.034949	-0.541742	-0.679221
C57	C	1.032006	-0.545935	-0.752607
C58	C	0.985583	-0.612408	-0.787482
C59	C	0.942095	-0.674684	-0.748966
C60	C	0.945034	-0.670484	-0.675582
C61	C	0.971967	-0.631866	-1.006763
C62	C	0.969032	-0.636064	-1.080154
C63	C	1.058944	-0.507313	-1.083789
C64	C	1.061882	-0.503124	-1.010402
C65	C	1.018391	-0.565395	-0.971894
N66	N	0.982575	-0.616699	-0.862494
N67	N	1.021396	-0.561099	-0.896883
C68	C	1.009257	-0.578546	-0.196761
C69	C	1.012516	-0.573790	-0.118663
H70	H	0.400006	-0.740911	-0.476832
C71	C	0.891028	-0.747806	-0.787326
C72	C	0.887794	-0.752434	-0.868047
C73	C	0.836728	-0.825560	-0.906405
C74	C	0.788895	-0.894058	-0.864043
C75	C	0.792126	-0.889432	-0.783318
C76	C	0.843193	-0.816306	-0.744959
H77	H	0.923204	-0.701726	-0.899410
H78	H	0.834336	-0.828985	-0.966163
H79	H	0.751092	-0.948191	-0.892438
H80	H	0.756716	-0.940141	-0.751955
H81	H	0.845585	-0.812882	-0.685201
C82	C	1.079841	-0.477441	-0.794971
C83	C	1.047392	-0.395934	-0.844202
C84	C	1.095228	-0.327436	-0.886568
C85	C	1.175512	-0.340445	-0.879703
C86	C	1.207966	-0.421955	-0.830470
C87	C	1.160130	-0.490453	-0.788104
H88	H	0.987957	-0.386301	-0.849286
H89	H	1.071203	-0.267097	-0.923013
H90	H	1.210923	-0.289739	-0.911064
H91	H	1.267401	-0.431589	-0.825386
H92	H	1.184154	-0.550792	-0.751658
H93	H	1.213236	-1.383231	-0.608535
C94	C	0.748678	-0.426282	-0.274795
C95	C	0.801322	-0.471659	-0.221595
C96	C	0.843655	-0.397322	-0.173863
C97	C	0.833342	-0.277608	-0.179332
C98	C	0.780695	-0.232224	-0.232535
C99	C	0.738363	-0.306561	-0.280266
H100	H	0.808959	-0.560284	-0.217545
H101	H	0.882628	-0.430919	-0.134479
H102	H	0.864679	-0.222579	-0.143998
H103	H	0.773059	-0.143599	-0.236585
H104	H	0.699390	-0.272965	-0.319650
H105	H	0.914275	-0.737962	-0.174825
H106	H	0.931226	-0.690196	-1.108546
H107	H	0.909618	-0.721182	-0.644227
H108	H	0.823611	-1.068006	-0.295241
H109	H	0.598040	-0.690787	-0.444646
C110	C	0.991942	-1.338754	-0.495115
C111	C	0.964466	-1.438806	-0.531622
C112	C	0.889539	-1.472687	-0.516672
C113	C	0.842089	-1.406516	-0.465215
C114	C	0.869564	-1.306457	-0.428704
C115	C	0.944491	-1.272576	-0.443654
H116	H	0.999592	-1.487795	-0.569717
H117	H	0.869200	-1.546757	-0.543700
H118	H	0.786623	-1.431596	-0.454148
H119	H	0.834438	-1.257468	-0.390610
H120	H	0.964830	-1.198506	-0.416626
H121	H	0.790701	-0.793831	-0.150141
H122	H	0.992511	-0.847088	-0.259723
H123	H	0.273372	-0.479088	-0.308731
C124	C	0.594567	-0.416667	-0.268626
C125	C	0.513845	-0.411632	-0.265388
C126	C	0.475457	-0.332267	-0.214422
C127	C	0.517791	-0.257937	-0.166692
C128	C	0.598517	-0.262970	-0.169929
C129	C	0.636906	-0.342335	-0.220896
H130	H	0.482503	-0.466657	-0.300722
H131	H	0.415698	-0.328542	-0.212026
H132	H	0.489374	-0.199186	-0.128964
H133	H	0.629859	-0.207944	-0.134595
H134	H	0.696665	-0.346060	-0.223291
C135	C	1.092440	-0.984445	-0.477571
C136	C	1.139874	-1.050622	-0.529040
C137	C	1.187268	-0.996106	-0.580493
C138	C	1.187228	-0.875413	-0.580477
C139	C	1.139792	-0.809228	-0.529007
C140	C	1.092398	-0.863745	-0.477554
H141	H	1.139905	-1.139973	-0.529054
H142	H	1.222383	-1.045100	-0.618596
H143	H	1.222312	-0.835056	-0.618566
H144	H	1.139761	-0.719878	-0.528993
H145	H	1.057283	-0.814750	-0.439451
C146	C	1.106775	-0.438809	-1.126149
C147	C	1.103545	-0.443418	-1.206870
C148	C	1.151376	-0.374906	-1.249229
C149	C	1.202439	-0.301785	-1.210868
C150	C	1.205672	-0.297174	-1.130144
C151	C	1.157840	-0.365685	-1.087784
H152	H	1.065743	-0.497549	-1.235270
H153	H	1.148983	-0.378321	-1.308987
H154	H	1.237847	-0.251069	-1.242226
H155	H	1.243473	-0.243043	-1.101743
H156	H	1.160234	-0.362271	-1.028026
H157	H	0.406503	-0.487401	-0.314053
H158	H	1.072754	-0.487616	-0.650831
H159	H	0.923790	-1.178462	-0.294500
C160	C	1.187445	-1.083073	-0.453946
C161	C	1.262367	-1.049191	-0.468896
C162	C	1.289843	-0.949133	-0.432388
C163	C	1.242397	-0.882957	-0.380930
C164	C	1.167470	-0.916838	-0.365977
C165	C	1.139993	-1.016896	-0.402486
H166	H	1.297494	-1.098180	-0.506990
H167	H	1.345310	-0.924052	-0.443457
H168	H	1.262736	-0.808887	-0.353904
H169	H	1.132343	-0.867849	-0.327883
H170	H	1.084527	-1.041977	-0.391416
C171	C	1.278028	-1.209410	-0.552198
C172	C	1.331447	-1.199847	-0.491920
C173	C	1.406375	-1.165973	-0.506873
C174	C	1.427883	-1.141661	-0.582104
C175	C	1.374463	-1.151224	-0.642387
C176	C	1.299535	-1.185098	-0.627434
H177	H	1.315527	-1.217844	-0.436225
H178	H	1.445920	-1.158894	-0.462248
H179	H	1.483349	-1.116585	-0.593174
H180	H	1.390384	-1.133227	-0.698082
H181	H	1.259990	-1.192177	-0.672059
C182	C	0.725908	-0.967669	-0.206467
C183	C	0.678467	-0.901500	-0.155001
C184	C	0.603545	-0.935386	-0.140034
C185	C	0.576064	-1.035441	-0.176533
C186	C	0.623506	-1.101617	-0.228002
C187	C	0.698428	-1.067731	-0.242969
H188	H	0.698809	-0.827427	-0.127979
H189	H	0.568425	-0.886397	-0.101932
H190	H	0.520603	-1.060526	-0.165453
H191	H	0.603164	-1.175690	-0.255024
H192	H	0.733548	-1.116719	-0.281071
H193	H	1.099687	-0.448998	-0.982013
H194	H	1.089654	-1.439098	-0.583875
H195	H	0.731171	-0.699100	-0.449970
H196	H	0.936564	-0.682588	-0.975419
H197	H	0.266865	-0.732601	-0.471504
