data_functionalizedCrystal
_audit_creation_method	'MofGen! by Chris Wilmer'
_symmetry_space_group_name_H-M	'P1'
_symmetry_Int_Tables_number	1
_symmetry_cell_setting	triclinic
loop_
_symmetry_equiv_pos_as_xyz
  x,y,z
_cell_length_a	6.817900
_cell_length_b	19.551136
_cell_length_c	19.551833
_cell_angle_alpha	96.352483
_cell_angle_beta	101.663477
_cell_angle_gamma	101.650842
loop_
_atom_site_label
_atom_site_type_symbol
_atom_site_fract_x
_atom_site_fract_y
_atom_site_fract_z
V1	V	-3.997212	-0.097410	-0.218205
O2	O	-3.994612	0.003927	-0.213697
O3	O	-3.939964	-0.192423	-0.217053
O4	O	-3.940015	-0.096243	-0.313216
O5	O	-3.994560	-0.092919	-0.116868
V6	V	-4.483127	-0.085250	-0.206043
O7	O	-4.253225	-0.124085	-0.244883
O8	O	-4.677311	-0.058576	-0.179364
O9	O	-4.317168	0.009763	-0.207194
O10	O	-4.603124	-0.186588	-0.210550
O11	O	-4.603175	-0.089741	-0.307379
O12	O	-4.317117	-0.086418	-0.111031
C13	C	-3.783097	-0.215575	-0.213698
C14	C	-3.817518	-0.293252	-0.213390
C15	C	-3.800399	-0.319526	-0.149212
C16	C	-3.832815	-0.392509	-0.148901
C17	C	-3.882309	-0.439215	-0.212770
C18	C	-3.899439	-0.412933	-0.276957
C19	C	-3.867043	-0.339952	-0.277266
C20	C	-3.842532	-0.560382	-0.259081
C21	C	-3.874913	-0.633362	-0.258768
C22	C	-3.982238	-0.664316	-0.211818
C23	C	-4.057145	-0.622279	-0.165168
C24	C	-4.024750	-0.549298	-0.165478
C25	C	-3.917441	-0.518353	-0.212442
C26	C	-4.000269	-0.769727	-0.147298
C27	C	-4.032698	-0.842712	-0.146990
C28	C	-4.099303	-0.863135	-0.275047
C29	C	-4.066893	-0.790151	-0.275354
C30	C	-4.017367	-0.743451	-0.211477
C31	C	-3.783161	-0.092886	-0.336363
C32	C	-3.817622	-0.092560	-0.414037
C33	C	-4.015258	-0.095915	-0.454097
C34	C	-4.047637	-0.095608	-0.527080
C35	C	-3.882376	-0.091962	-0.560004
C36	C	-3.684710	-0.088603	-0.519934
C37	C	-3.652333	-0.088902	-0.446951
C38	C	-3.816035	-0.129955	-0.679451
C39	C	-3.848422	-0.129661	-0.752433
C40	C	-3.982230	-0.091036	-0.785107
C41	C	-4.083685	-0.052715	-0.744791
C42	C	-4.051308	-0.053015	-0.671808
C43	C	-3.917464	-0.091637	-0.639141
C44	C	-4.214987	-0.094057	-0.904303
C45	C	-4.247358	-0.093747	-0.977287
C46	C	-3.884428	-0.086748	-0.970141
C47	C	-3.852060	-0.087052	-0.897158
C48	C	-4.017349	-0.090710	-0.864244
C49	C	-4.137377	0.032911	-0.210547
C50	C	-4.082194	0.110587	-0.210860
C51	C	-4.137313	-0.089776	-0.087881
C52	C	-4.082092	-0.090099	-0.010205
H53	H	-3.939742	-0.450966	-0.328959
H54	H	-3.959941	-0.731702	-0.095286
Br55	Br	-3.460421	-0.083649	-0.564613
Br56	Br	-3.773180	-0.690400	-0.322057
H57	H	-4.085748	-0.515074	-0.127495
H58	H	-3.755137	-0.535186	-0.297316
H59	H	-3.818870	-0.413906	-0.096638
H60	H	-3.691128	-0.084328	-0.864542
Br61	Br	-4.202775	-0.664277	-0.101437
H62	H	-3.491388	-0.086166	-0.414334
H63	H	-4.018769	-0.864103	-0.094727
Br64	Br	-3.890279	-0.304291	-0.364372
H65	H	-3.765821	-0.160868	-0.785254
H66	H	-4.192647	-0.021265	-0.771393
Br67	Br	-4.166504	-0.926514	-0.361729
Br68	Br	-3.634391	-0.182366	-0.635113
Br69	Br	-3.660127	-0.081782	-1.014812
H70	H	-4.349575	-0.097033	-0.877503
H71	H	-4.408298	-0.096473	-1.009902
H72	H	-4.149851	-0.098890	-0.427303
Br73	Br	-3.733199	-0.256151	-0.062524
Br74	Br	-4.315877	-0.100154	-0.581457
H75	H	-4.080819	-0.768759	-0.327614
H76	H	-4.133914	-0.021812	-0.638986
