data_functionalizedCrystal
_audit_creation_method	'MofGen! by Chris Wilmer'
_symmetry_space_group_name_H-M	'P1'
_symmetry_Int_Tables_number	1
_symmetry_cell_setting	triclinic
loop_
_symmetry_equiv_pos_as_xyz
  x,y,z
_cell_length_a	21.295417
_cell_length_b	12.759401
_cell_length_c	21.295411
_cell_angle_alpha	90.022412
_cell_angle_beta	89.978356
_cell_angle_gamma	89.971344
loop_
_atom_site_label
_atom_site_type_symbol
_atom_site_fract_x
_atom_site_fract_y
_atom_site_fract_z
Zn1	Zn	-0.250712	-1.606169	-0.355875
Zn2	Zn	0.082621	-1.272836	-0.022542
Zn3	Zn	0.415955	-0.939503	0.310791
Zn4	Zn	-0.355964	-1.606007	-0.250601
Zn5	Zn	-0.022631	-1.272673	0.082733
Zn6	Zn	0.310703	-0.939340	0.416066
Zn7	Zn	-0.250709	-1.430463	-0.250624
Zn8	Zn	0.082624	-1.097129	0.082709
Zn9	Zn	0.415958	-0.763796	0.416042
Zn10	Zn	-0.355944	-1.430412	-0.355836
Zn11	Zn	-0.022611	-1.097078	-0.022503
Zn12	Zn	0.310723	-0.763745	0.310830
O13	O	-0.303332	-1.518263	-0.303234
O14	O	0.030001	-1.184929	0.030099
O15	O	0.363334	-0.851596	0.363432
O16	O	-0.264683	-1.753169	-0.341917
O17	O	0.068650	-1.419836	-0.008584
O18	O	0.401983	-1.086502	0.324750
O19	O	-0.342009	-1.582674	-0.162514
O20	O	-0.008675	-1.249340	0.170819
O21	O	0.324658	-0.916007	0.504152
O22	O	-0.162620	-1.453860	-0.264612
O23	O	0.170713	-1.120527	0.068721
O24	O	0.504047	-0.787193	0.402054
O25	O	-0.342012	-1.753049	-0.264572
O26	O	-0.008678	-1.419716	0.068761
O27	O	0.324655	-1.086383	0.402095
O28	O	-0.162622	-1.582951	-0.341940
O29	O	0.170711	-1.249618	-0.008606
O30	O	0.504044	-0.916284	0.324727
O31	O	-0.264678	-1.453702	-0.162532
O32	O	0.068655	-1.120369	0.170802
O33	O	0.401988	-0.787036	0.504135
O34	O	-0.264659	-1.283435	-0.264574
O35	O	0.068674	-0.950102	0.068759
O36	O	0.402008	-0.616768	0.402092
O37	O	-0.341978	-1.453773	-0.443931
O38	O	-0.008644	-1.120440	-0.110598
O39	O	0.324689	-0.787106	0.222736
O40	O	-0.341975	-1.283397	-0.341873
O41	O	-0.008641	-0.950064	-0.008540
O42	O	0.324692	-0.616731	0.324793
O43	O	-0.264664	-1.582902	-0.443960
O44	O	0.068669	-1.249568	-0.110626
O45	O	0.402003	-0.916235	0.222707
O46	O	-0.444051	-1.582624	-0.264534
O47	O	-0.110717	-1.249291	0.068799
O48	O	0.222616	-0.915957	0.402132
O49	O	-0.444036	-1.453615	-0.341850
O50	O	-0.110703	-1.120282	-0.008517
O51	O	0.222631	-0.786948	0.324816
C52	C	-0.303315	-1.245295	-0.303223
C53	C	0.030018	-0.911962	0.030111
C54	C	0.363352	-0.578629	0.363444
C55	C	-0.303323	-1.128519	-0.303233
C56	C	0.030011	-0.795185	0.030101
C57	C	0.363344	-0.461852	0.363434
C58	C	-0.466884	-1.518125	-0.303199
C59	C	-0.133551	-1.184792	0.030134
C60	C	0.199783	-0.851458	0.363467
C61	C	-0.536852	-1.518162	-0.303205
C62	C	-0.203519	-1.184829	0.030128
C63	C	0.129815	-0.851495	0.363461
C64	C	-0.343644	-1.073664	-0.343415
C65	C	-0.010311	-0.740331	-0.010082
C66	C	0.323023	-0.406998	0.323252
C67	C	-0.343650	-0.963940	-0.343421
C68	C	-0.010316	-0.630607	-0.010087
C69	C	0.323017	-0.297274	0.323246
C70	C	-0.263011	-0.963934	-0.263056
C71	C	0.070323	-0.630601	0.070277
C72	C	0.403656	-0.297268	0.403611
C73	C	-0.263002	-1.073656	-0.263054
C74	C	0.070331	-0.740323	0.070279
C75	C	0.403664	-0.406990	0.403613
C76	C	-0.390202	-1.073667	-0.389811
C77	C	-0.056869	-0.740334	-0.056477
C78	C	0.276464	-0.407001	0.276856
C79	C	-0.390208	-0.963943	-0.389816
C80	C	-0.056875	-0.630610	-0.056483
C81	C	0.276459	-0.297276	0.276850
C82	C	-0.569705	-1.585397	-0.262988
C83	C	-0.236372	-1.252063	0.070345
C84	C	0.096961	-0.918730	0.403679
C85	C	-0.635448	-1.585446	-0.263002
C86	C	-0.302115	-1.252113	0.070331
C87	C	0.031219	-0.918779	0.403664
C88	C	-0.668334	-1.518242	-0.303227
C89	C	-0.335001	-1.184908	0.030106
C90	C	-0.001668	-0.851575	0.363440
C91	C	-0.635473	-1.451002	-0.343452
C92	C	-0.302140	-1.117669	-0.010119
C93	C	0.031194	-0.784336	0.323214
C94	C	-0.569732	-1.450963	-0.343441
C95	C	-0.236399	-1.117629	-0.010108
C96	C	0.096935	-0.784296	0.323225
N97	N	-0.771599	-1.426335	-0.308022
N98	N	-0.438266	-1.093002	0.025311
N99	N	-0.104933	-0.759668	0.358644
N100	N	-0.834051	-1.426376	-0.308029
N101	N	-0.500717	-1.093043	0.025305
N102	N	-0.167384	-0.759709	0.358638
C103	C	-0.866409	-1.518359	-0.303263
C104	C	-0.533076	-1.185026	0.030070
C105	C	-0.199742	-0.851693	0.363403
N106	N	-0.833957	-1.610303	-0.298478
N107	N	-0.500624	-1.276969	0.034855
N108	N	-0.167290	-0.943636	0.368188
N109	N	-0.771500	-1.610261	-0.298469
N110	N	-0.438166	-1.276927	0.034865
N111	N	-0.104833	-0.943594	0.368198
C112	C	-0.739620	-1.518278	-0.303244
C113	C	-0.406286	-1.184945	0.030090
C114	C	-0.072953	-0.851611	0.363423
C115	C	-0.970548	-1.585653	-0.263059
C116	C	-0.637215	-1.252320	0.070274
C117	C	-0.303881	-0.918987	0.403608
C118	C	-1.036292	-1.585704	-0.263078
C119	C	-0.702958	-1.252371	0.070256
C120	C	-0.369625	-0.919038	0.403589
C121	C	-1.036316	-1.451251	-0.343524
C122	C	-0.702982	-1.117918	-0.010191
C123	C	-0.369649	-0.784585	0.323142
C124	C	-0.970573	-1.451210	-0.343509
C125	C	-0.637240	-1.117876	-0.010176
C126	C	-0.303907	-0.784543	0.323158
C127	C	-0.937693	-1.518409	-0.303273
C128	C	-0.604360	-1.185076	0.030060
C129	C	-0.271027	-0.851743	0.363394
C130	C	-0.139142	-1.518429	-0.303283
C131	C	0.194191	-1.185096	0.030050
C132	C	0.527525	-0.851763	0.363384
C133	C	-0.069174	-1.518501	-0.303304
C134	C	0.264160	-1.185167	0.030030
C135	C	0.597493	-0.851834	0.363363
C136	C	-0.303319	-1.518350	-0.467424
C137	C	0.030014	-1.185016	-0.134091
C138	C	0.363348	-0.851683	0.199242
C139	C	-0.303313	-1.518387	-0.537393
C140	C	0.030020	-1.185054	-0.204059
C141	C	0.363353	-0.851720	0.129274
C142	C	-0.303345	-0.792296	-0.303243
C143	C	0.029989	-0.458962	0.030090
C144	C	0.363322	-0.125629	0.363423
C145	C	-0.303337	-0.909072	-0.303240
C146	C	0.029997	-0.575739	0.030093
C147	C	0.363330	-0.242406	0.363426
C148	C	-0.263054	-1.585621	-0.570275
C149	C	0.070279	-1.252288	-0.236942
C150	C	0.403612	-0.918955	0.096391
C151	C	-0.263027	-1.585620	-0.636018
C152	C	0.070306	-1.252287	-0.302684
C153	C	0.403640	-0.918953	0.030649
C154	C	-0.303270	-1.518395	-0.668875
C155	C	0.030063	-1.185062	-0.335542
C156	C	0.363397	-0.851728	-0.002209
C157	C	-0.343532	-1.451148	-0.635985
C158	C	-0.010198	-1.117814	-0.302651
C159	C	0.323135	-0.784481	0.030682
C160	C	-0.343553	-1.451144	-0.570243
C161	C	-0.010220	-1.117810	-0.236910
C162	C	0.323113	-0.784477	0.096423
N163	N	-0.358338	-1.510289	-0.772091
N164	N	-0.025004	-1.176956	-0.438757
N165	N	0.308329	-0.843623	-0.105424
N166	N	-0.358315	-1.510299	-0.834542
N167	N	-0.024982	-1.176966	-0.501209
N168	N	0.308352	-0.843633	-0.167876
C169	C	-0.303206	-1.518402	-0.866950
C170	C	0.030127	-1.185068	-0.533617
C171	C	0.363461	-0.851735	-0.200283
N172	N	-0.248119	-1.526514	-0.834547
N173	N	0.085214	-1.193181	-0.501214
N174	N	0.418548	-0.859848	-0.167880
N175	N	-0.248142	-1.526510	-0.772090
N176	N	0.085191	-1.193176	-0.438757
N177	N	0.418525	-0.859843	-0.105423
C178	C	-0.303251	-1.518392	-0.740161
C179	C	0.030083	-1.185058	-0.406827
C180	C	0.363416	-0.851725	-0.073494
C181	C	-0.262914	-1.585638	-0.971118
C182	C	0.070419	-1.252305	-0.637785
C183	C	0.403752	-0.918971	-0.304452
C184	C	-0.262886	-1.585629	-1.036862
C185	C	0.070447	-1.252296	-0.703529
C186	C	0.403781	-0.918963	-0.370195
C187	C	-0.343396	-1.451163	-1.036828
C188	C	-0.010063	-1.117829	-0.703494
C189	C	0.323271	-0.784496	-0.370161
C190	C	-0.343419	-1.451166	-0.971085
C191	C	-0.010085	-1.117833	-0.637752
C192	C	0.323248	-0.784499	-0.304418
C193	C	-0.303179	-1.518409	-0.938234
C194	C	0.030155	-1.185076	-0.604901
C195	C	0.363488	-0.851743	-0.271568
C196	C	-0.303300	-1.518236	-0.139683
C197	C	0.030033	-1.184903	0.193651
C198	C	0.363367	-0.851570	0.526984
C199	C	-0.303128	-1.518403	-0.069715
C200	C	0.030205	-1.185069	0.263618
C201	C	0.363538	-0.851736	0.596952
H202	H	-0.230165	-1.118314	-0.230338
H203	H	0.103169	-0.784981	0.102995
H204	H	0.436502	-0.451648	0.436329
H205	H	-0.943776	-1.640375	-0.230298
H206	H	-0.610443	-1.307041	0.103035
H207	H	-0.277109	-0.973708	0.436368
Cl208	Cl	-0.465445	-0.917896	-0.369496
Cl209	Cl	-0.132112	-0.584563	-0.036163
Cl210	Cl	0.201222	-0.251230	0.297170
H211	H	-0.542936	-1.640117	-0.230227
H212	H	-0.209603	-1.306784	0.103106
H213	H	0.123730	-0.973450	0.436439
H214	H	-0.662202	-1.640200	-0.230253
H215	H	-0.328869	-1.306867	0.103081
H216	H	0.004464	-0.973533	0.436414
Cl217	Cl	-0.929270	-1.366676	-0.394068
Cl218	Cl	-0.595936	-1.033343	-0.060735
Cl219	Cl	-0.262603	-0.700009	0.272599
H220	H	-0.542982	-1.396211	-0.376192
H221	H	-0.209649	-1.062878	-0.042859
H222	H	0.123685	-0.729544	0.290475
Cl223	Cl	-0.461679	-1.126156	-0.362773
Cl224	Cl	-0.128346	-0.792823	-0.029439
Cl225	Cl	0.204988	-0.459489	0.303894
H226	H	-0.662254	-1.396286	-0.376205
H227	H	-0.328920	-1.062953	-0.042871
H228	H	0.004413	-0.729620	0.290462
Cl229	Cl	-1.077594	-1.670244	-0.212519
Cl230	Cl	-0.744261	-1.336910	0.120815
Cl231	Cl	-0.410927	-1.003577	0.454148
H232	H	-0.376336	-1.396389	-0.543471
H233	H	-0.043003	-1.063055	-0.210137
H234	H	0.290331	-0.729722	0.123196
Cl235	Cl	-0.370154	-1.119713	-0.465118
Cl236	Cl	-0.036821	-0.786379	-0.131784
Cl237	Cl	0.296512	-0.453046	0.201549
Cl238	Cl	-1.077653	-1.366772	-0.394098
Cl239	Cl	-0.744319	-1.033439	-0.060765
Cl240	Cl	-0.410986	-0.700106	0.272569
H241	H	-0.230183	-0.919252	-0.230345
H242	H	0.103150	-0.585919	0.102989
H243	H	0.436484	-0.252585	0.436322
Cl244	Cl	-0.394120	-1.366633	-0.677290
Cl245	Cl	-0.060787	-1.033299	-0.343957
Cl246	Cl	0.272546	-0.699966	-0.010624
H247	H	-0.372819	-0.929957	-0.436165
H248	H	-0.039486	-0.596624	-0.102831
H249	H	0.293847	-0.263291	0.230502
Cl250	Cl	-0.212399	-1.670128	-0.677365
Cl251	Cl	0.120934	-1.336795	-0.344031
Cl252	Cl	0.454267	-1.003462	-0.010698
Cl253	Cl	-0.212463	-1.670149	-0.528980
Cl254	Cl	0.120870	-1.336816	-0.195647
Cl255	Cl	0.454203	-1.003483	0.137686
H256	H	-0.230145	-1.640386	-0.944370
H257	H	0.103188	-1.307052	-0.611036
H258	H	0.436522	-0.973719	-0.277703
H259	H	-0.230099	-1.640378	-1.063634
H260	H	0.103235	-1.307045	-0.730300
H261	H	0.436568	-0.973711	-0.396967
H262	H	-0.376156	-1.396416	-1.063580
H263	H	-0.042823	-1.063083	-0.730246
H264	H	0.290510	-0.729750	-0.396913
H265	H	-0.376206	-1.396423	-0.944312
H266	H	-0.042872	-1.063089	-0.610979
H267	H	0.290461	-0.729756	-0.277645
