data_functionalizedCrystal
_audit_creation_method	'MofGen! by Chris Wilmer'
_symmetry_space_group_name_H-M	'P1'
_symmetry_Int_Tables_number	1
_symmetry_cell_setting	triclinic
loop_
_symmetry_equiv_pos_as_xyz
  x,y,z
_cell_length_a	19.377372
_cell_length_b	19.376997
_cell_length_c	14.560438
_cell_angle_alpha	68.964210
_cell_angle_beta	90.000766
_cell_angle_gamma	82.421080
loop_
_atom_site_label
_atom_site_type_symbol
_atom_site_fract_x
_atom_site_fract_y
_atom_site_fract_z
Zr1	Zr	0.764620	0.842049	-0.020123
O2	O	0.689447	0.938376	-0.116983
O3	O	0.768540	0.725026	-0.015069
O4	O	0.796116	0.851198	-0.171142
O5	O	0.661873	0.812203	0.190229
O6	O	0.902014	0.881957	-0.185836
O7	O	0.661870	0.812204	0.039090
O8	O	0.852684	0.656257	0.093350
O9	O	0.711202	1.037903	-0.088956
O10	O	0.872348	0.803779	0.005888
O11	O	0.793319	0.780823	0.129648
O12	O	0.825787	0.929375	-0.054107
O13	O	0.746759	0.906419	0.069653
Zr14	Zr	0.933519	0.891104	0.197492
Zr15	Zr	0.933515	0.891105	-0.043558
Zr16	Zr	0.764624	0.842047	0.220928
Zr17	Zr	0.799317	1.000782	0.024577
Zr18	Zr	0.898821	0.732371	0.152792
O19	O	0.929599	1.008127	0.192438
O20	O	0.929594	1.008129	-0.150305
O21	O	0.689452	0.938374	0.225760
O22	O	1.008692	0.794776	0.294352
O23	O	1.008686	0.794778	-0.048391
O24	O	0.768545	0.725024	0.327674
O25	O	1.036266	0.920950	-0.012860
O26	O	0.902022	0.881954	0.348511
O27	O	0.796125	0.851195	0.363205
O28	O	1.036269	0.920949	0.138280
O29	O	0.845451	1.076896	-0.107584
O30	O	0.852687	0.656256	0.284953
O31	O	0.986936	0.695250	0.266325
O32	O	0.986933	0.695251	0.074722
O33	O	0.711205	1.037902	0.102647
O34	O	0.845454	1.076895	0.084020
O35	O	0.872351	0.803777	0.231476
O36	O	0.951380	0.826733	0.107716
O37	O	0.904819	0.952330	0.047721
O38	O	0.825791	0.929374	0.171481
C39	C	0.805668	0.668025	0.032771
C40	C	0.790939	0.600639	0.013795
C41	C	0.723825	0.543543	-0.072678
C42	C	0.737671	0.606858	-0.054839
C43	C	0.830384	0.531096	0.064614
C44	C	0.816548	0.467774	0.046782
C45	C	0.763267	0.474004	-0.021864
C46	C	0.855990	0.398235	0.097596
C47	C	0.842152	0.334917	0.079769
C48	C	0.788872	0.341139	0.011128
C49	C	0.749429	0.410686	-0.039691
C50	C	0.909268	0.392006	0.166247
C51	C	0.948710	0.322466	0.217060
C52	C	0.934876	0.259148	0.199229
C53	C	0.881596	0.265370	0.130588
C54	C	0.974319	0.189601	0.250048
C55	C	0.960481	0.126284	0.232221
C56	C	0.867758	0.202053	0.112761
C57	C	0.637808	0.805213	0.117999
C58	C	0.566107	0.784388	0.127947
C59	C	0.208776	1.043686	0.004080
C60	C	0.141409	1.024100	0.013437
C61	C	0.190024	0.892987	0.076068
C62	C	0.257397	0.912562	0.066720
C63	C	0.266766	0.987913	0.030724
C64	C	0.315387	0.856789	0.093364
C65	C	0.382753	0.876363	0.084012
C66	C	0.392130	0.951710	0.048015
C67	C	0.334133	1.007487	0.021372
C68	C	0.306016	0.781438	0.129353
C69	C	0.364006	0.725665	0.155998
C70	C	0.431374	0.745239	0.146652
C71	C	0.440750	0.820586	0.110655
C72	C	0.489371	0.689462	0.173295
C73	C	0.556738	0.709037	0.163943
C74	C	0.508117	0.840161	0.101303
C75	C	1.060331	0.927939	0.059371
C76	C	1.132032	0.948765	0.049422
C77	C	0.849065	0.866578	-0.212833
C78	C	0.849063	0.866579	-0.315165
C79	C	0.892470	1.065127	0.144598
C80	C	0.907200	1.132514	0.163574
C81	C	0.824760	0.932138	-0.394559
C82	C	0.824768	0.932136	-0.490710
C83	C	0.873383	0.801011	-0.428063
C84	C	0.873379	0.801014	-0.331914
C85	C	0.849074	0.866575	0.390202
C86	C	0.849076	0.866574	0.492535
C87	C	1.016930	0.729388	0.003458
C88	C	1.073901	0.682828	-0.025468
C89	C	0.805673	0.668024	0.334289
C90	C	0.790945	0.600637	0.417645
C91	C	1.016935	0.729386	0.304975
C92	C	1.073907	0.682825	0.378383
C93	C	0.681204	1.003766	-0.127606
C94	C	0.624232	1.050327	-0.201013
C95	C	0.681208	1.003764	0.173912
C96	C	0.624238	1.050325	0.202837
C97	C	0.892466	1.065129	-0.156920
C98	C	0.907194	1.132516	-0.240276
C99	C	1.059401	0.648981	-0.092215
C100	C	1.112926	0.605239	-0.119412
C101	C	1.180950	0.595341	-0.079856
C102	C	1.195450	0.629194	-0.013105
C103	C	1.141926	0.672939	0.014086
C104	C	0.825282	0.580973	0.509953
C105	C	0.811442	0.517664	0.588287
C106	C	0.763268	0.474016	0.574309
C107	C	0.728927	0.493685	0.481992
C108	C	0.742764	0.556996	0.403662
C109	C	1.141921	0.672945	0.348253
C110	C	1.195461	0.629206	0.417219
C111	C	1.180984	0.595345	0.516313
C112	C	1.112963	0.605230	0.546443
C113	C	1.059426	0.648972	0.477479
C114	C	0.556220	1.060216	-0.170881
C115	C	0.502684	1.103974	-0.239842
C116	C	0.517162	1.137838	-0.338935
C117	C	0.585181	1.127949	-0.369067
C118	C	0.638716	1.084196	-0.300105
C119	C	0.638740	1.084179	0.269576
C120	C	0.585218	1.127938	0.296752
C121	C	0.517195	1.137838	0.257193
C122	C	0.502694	1.103982	0.190446
C123	C	0.556216	1.060228	0.163266
C124	C	0.955372	1.176146	-0.226268
C125	C	0.969224	1.239459	-0.304585
C126	C	0.934894	1.259144	-0.396907
C127	C	0.886714	1.215508	-0.410914
C128	C	0.872866	1.152193	-0.332600
H129	H	0.705535	0.663478	-0.096202
H130	H	0.804978	0.985521	-0.555352
C131	C	0.540279	1.022977	-0.061880
N132	N	0.528268	0.994935	0.020221
C133	C	1.003869	0.049786	0.288120
N134	N	1.036547	-0.007833	0.330228
H135	H	0.694123	1.076122	0.301801
H136	H	0.447303	1.112049	0.158243
H137	H	0.597038	1.155497	0.351103
H138	H	0.094191	1.069522	-0.008265
H139	H	0.706048	0.415762	-0.095599
C140	C	0.819857	1.104213	-0.348020
N141	N	0.779926	1.068079	-0.359640
H142	H	0.341761	1.068846	-0.007907
C143	C	0.458325	1.185967	0.287107
N144	N	0.413987	1.222216	0.309645
H145	H	0.893173	0.747625	-0.267266
H146	H	1.224584	0.559729	0.572458
H147	H	0.864509	0.616505	0.521354
H148	H	0.544398	1.032663	0.108925
C149	C	0.984579	0.659863	-0.135746
N150	N	0.928225	0.668060	-0.168543
H151	H	0.216404	1.105045	-0.025199
H152	H	0.804960	0.985525	-0.380927
H153	H	0.893179	0.747630	-0.441712
H154	H	0.983330	1.160129	-0.151101
C155	C	0.601094	1.165198	-0.478078
N156	N	0.613076	1.193249	-0.560189
H157	H	1.101106	0.577679	-0.173763
C158	C	0.427867	1.114840	-0.206677
N159	N	0.371517	1.123024	-0.181694
C160	C	0.179708	0.810103	0.115664
N161	N	0.171939	0.747674	0.145492
C162	C	0.924488	0.461658	0.185856
N163	N	0.935951	0.514122	0.200623
C164	C	1.239819	0.547212	-0.109770
N165	N	1.284156	0.510958	-0.132302
H166	H	0.680444	0.548619	-0.128585
C167	C	0.950134	1.328796	-0.483046
N168	N	0.961615	1.381260	-0.547921
H169	H	1.250842	0.621129	0.019095
C170	C	0.849232	0.496036	0.689824
N171	N	0.877698	0.479747	0.766299
C172	C	0.773652	0.271488	-0.008484
N173	N	0.762189	0.219026	-0.023257
C174	C	1.007322	0.315625	0.292562
N175	N	1.051472	0.310471	0.349426
H176	H	1.008454	1.274982	-0.293161
H177	H	1.153721	0.700509	0.267569
H178	H	0.694093	1.076146	-0.324652
C179	C	0.458262	1.185959	-0.414785
N180	N	0.413895	1.222199	-0.471912
C181	C	0.848983	1.237151	-0.512490
N182	N	0.820571	1.253449	-0.589003
H183	H	0.824377	0.207129	0.056853
C184	C	0.748062	0.404368	0.660482
N185	N	0.736615	0.351907	0.725389
C186	C	0.353690	0.642782	0.195594
N187	N	0.345922	0.580352	0.225422
C188	C	1.032926	0.182761	0.325556
N189	N	1.077071	0.177608	0.382428
C190	C	0.984610	0.659832	0.510638
N191	N	0.928259	0.668011	0.535621
C192	C	0.479053	0.606579	0.212882
N193	N	0.471282	0.544151	0.242700
H194	H	0.873764	0.526034	0.120508
H195	H	0.515745	0.901519	0.072024
H196	H	1.153741	0.700493	0.068441
H197	H	0.446985	0.967646	0.040399
H198	H	0.603956	0.663620	0.185659
C199	C	0.675940	0.445660	0.466630
N200	N	0.636034	0.409484	0.455060
H201	H	0.714802	0.572997	0.328502
H202	H	0.251160	0.765504	0.136959
H203	H	1.250841	0.621164	0.392669
H204	H	1.101186	0.577654	0.627134
