data_functionalizedCrystal
_audit_creation_method	'MofGen! by Chris Wilmer'
_symmetry_space_group_name_H-M	'P1'
_symmetry_Int_Tables_number	1
_symmetry_cell_setting	triclinic
loop_
_symmetry_equiv_pos_as_xyz
  x,y,z
_cell_length_a	10.540539
_cell_length_b	17.038272
_cell_length_c	9.016244
_cell_angle_alpha	89.997742
_cell_angle_beta	89.994699
_cell_angle_gamma	87.818524
loop_
_atom_site_label
_atom_site_type_symbol
_atom_site_fract_x
_atom_site_fract_y
_atom_site_fract_z
O1	O	1.696177	0.110247	-0.123272
O2	O	1.327733	0.120634	-0.123290
O3	O	1.509765	0.001613	-0.123269
O4	O	1.514144	0.229268	-0.123293
O5	O	1.509737	0.001615	0.123411
O6	O	1.327704	0.120637	0.123390
O7	O	1.696149	0.110249	0.123409
Cu8	Cu	1.511924	0.115443	0.145924
Cu9	Cu	1.511957	0.115440	-0.145805
O10	O	1.514116	0.229271	0.123388
C11	C	1.280343	0.119857	0.000048
C12	C	1.139177	0.117526	0.000041
C13	C	0.947420	0.028219	0.000626
C14	C	1.094259	0.030581	0.000055
C15	C	1.081424	0.159366	-0.140824
C16	C	0.934603	0.156399	-0.140927
C17	C	0.934247	0.158170	0.139595
C18	C	1.081304	0.158971	0.141442
C19	C	1.505768	-0.027537	0.000071
C20	C	1.493883	-0.114398	0.000070
C21	C	1.602994	-0.163886	0.000077
C22	C	1.591820	-0.245501	0.000062
C23	C	1.471534	-0.277626	0.000051
C24	C	1.362416	-0.228133	0.000039
C25	C	1.373591	-0.146519	0.000044
C26	C	1.432055	-0.523611	0.000029
C27	C	1.420888	-0.605231	0.000029
C28	C	1.650293	-0.622593	0.000049
C29	C	1.661457	-0.540977	0.000062
C30	C	1.552339	-0.491491	0.000042
C31	C	1.460110	-0.361050	0.000041
C32	C	1.563764	-0.408069	0.000042
C33	C	1.743538	0.111027	0.000068
C34	C	1.884704	0.113358	0.000065
C35	C	1.518114	0.258421	0.000045
C36	C	1.529998	0.345282	0.000036
N37	N	1.511910	0.115445	0.351110
N38	N	1.511981	0.115432	-0.350991
C39	C	1.414197	0.178900	0.586131
C40	C	1.414449	0.179138	0.414240
C41	C	1.646365	0.134015	0.413453
C42	C	1.645841	0.134465	0.585397
C43	C	1.476465	0.033212	0.585660
C44	C	1.473470	0.033745	0.413706
H45	H	0.892878	0.220970	0.140540
H46	H	1.437522	0.239555	0.629319
O47	O	1.560787	-0.031819	0.356796
H48	H	1.504631	-0.074506	0.294081
H49	H	1.721226	0.089051	0.372556
H50	H	1.661700	-0.381909	0.000018
O51	O	1.232679	-0.262782	0.000045
H52	H	1.222111	-0.299556	-0.100488
O53	O	1.445702	0.259936	0.359707
H54	H	1.460708	0.298990	0.456149
H55	H	1.676795	0.193323	0.370370
O56	O	1.348765	0.009810	0.643141
H57	H	1.309182	0.056527	0.717511
H58	H	1.675791	0.194450	0.625482
H59	H	0.915619	-0.006128	0.101649
O60	O	0.893425	0.115431	-0.280393
H61	H	0.788363	0.112912	-0.281854
O62	O	1.791191	-0.506323	0.000073
H63	H	1.801770	-0.469546	-0.100461
H64	H	1.284741	-0.106227	0.000037
O65	O	1.131762	0.118477	0.279480
H66	H	1.051471	0.095604	0.344042
H67	H	1.721345	0.090100	0.626988
H68	H	1.374519	0.019669	0.372961
O69	O	1.570728	-0.029391	0.639532
H70	H	1.667360	-0.015390	0.601240
O71	O	1.146638	-0.013016	0.133819
H72	H	1.067076	-0.035986	0.199494
H73	H	0.914034	-0.005985	-0.099827
H74	H	1.111442	0.222360	0.149940
H75	H	1.132923	-0.002574	-0.101092
H76	H	1.362173	-0.387215	0.000035
O77	O	1.709512	-0.298870	0.000080
H78	H	1.709940	-0.336459	-0.100474
O79	O	1.767982	-0.675965	0.000060
H80	H	1.740009	-0.738113	0.000045
O81	O	1.118924	0.243941	-0.147804
H82	H	1.179272	0.257081	-0.050716
H83	H	1.314246	0.167898	0.627521
O84	O	0.878772	0.239219	-0.149435
H85	H	0.956663	0.281211	-0.153470
O86	O	1.134246	0.120860	-0.279687
H87	H	1.092703	0.150958	-0.378536
H88	H	0.900064	0.130034	0.246370
O89	O	1.732734	-0.129241	0.000072
H90	H	1.785589	-0.149078	0.100606
O91	O	1.291146	-0.639885	0.000000
H92	H	1.217145	-0.591764	-0.000029
O93	O	1.314369	-0.470240	0.000046
H94	H	1.228854	-0.506294	0.000064
O95	O	1.282439	0.164354	0.358391
H96	H	1.217842	0.156973	0.454196
