data_functionalizedCrystal
_audit_creation_method	'MofGen! by Chris Wilmer'
_symmetry_space_group_name_H-M	'P1'
_symmetry_Int_Tables_number	1
_symmetry_cell_setting	triclinic
loop_
_symmetry_equiv_pos_as_xyz
  x,y,z
_cell_length_a	11.792241
_cell_length_b	16.992694
_cell_length_c	15.455313
_cell_angle_alpha	92.857794
_cell_angle_beta	92.683265
_cell_angle_gamma	92.569181
loop_
_atom_site_label
_atom_site_type_symbol
_atom_site_fract_x
_atom_site_fract_y
_atom_site_fract_z
O1	O	0.236106	-1.044827	-0.072022
O2	O	0.233463	-0.816531	-0.072048
O3	O	0.070068	-0.936219	-0.072029
O4	O	0.399501	-0.925139	-0.072042
O5	O	0.079370	-0.929374	0.072232
O6	O	0.242766	-0.809687	0.072213
O7	O	0.245409	-1.037982	0.072239
Cu8	Cu	0.244937	-0.923210	0.085398
Cu9	Cu	0.233935	-0.931304	-0.085207
O10	O	0.408804	-0.918295	0.072219
C11	C	0.032371	-0.932101	0.000102
C12	C	-0.093813	-0.930017	0.000101
C13	C	0.234716	-0.783882	0.000079
C14	C	0.224578	-0.696795	0.000070
C15	C	0.244155	-1.070631	0.000109
C16	C	0.254293	-1.157718	0.000113
C17	C	-0.324840	-0.926187	0.000086
C18	C	-0.196280	-0.928315	0.000094
C19	C	0.446501	-0.922413	0.000087
C20	C	0.572684	-0.924497	0.000082
N21	N	0.252674	-0.917522	0.205393
C22	C	0.322395	-0.646971	0.000066
C23	C	0.312864	-0.565143	0.000079
C24	C	0.205513	-0.533142	0.000088
C25	C	0.107688	-0.582973	0.000094
C26	C	0.117221	-0.664799	0.000088
C27	C	0.166002	-0.289375	0.000113
C28	C	0.156476	-0.207543	0.000117
C29	C	0.361652	-0.189719	0.000103
C30	C	0.371176	-0.271548	0.000091
C31	C	0.273351	-0.321371	0.000102
N32	N	0.195767	-0.449501	0.000098
N33	N	0.283098	-0.405010	0.000098
N34	N	0.226189	-0.936998	-0.205202
C35	C	0.183287	-0.968388	0.250795
C36	C	0.189150	-0.964094	0.341602
C37	C	0.264406	-0.908938	0.387005
C38	C	0.333796	-0.858067	0.341597
C39	C	0.327927	-0.862358	0.250791
C40	C	0.289710	-0.890417	0.658584
C41	C	0.295576	-0.886132	0.749396
C42	C	0.150928	-0.992158	0.749395
C43	C	0.145070	-0.996447	0.658588
C44	C	0.214455	-0.945574	0.613187
N45	N	0.270403	-0.904549	0.479825
N46	N	0.208452	-0.949959	0.520369
H47	H	0.392517	-0.524579	0.000075
O48	O	0.426733	-0.677965	-0.000060
C49	C	0.481981	-0.656095	-0.074785
H50	H	0.444279	-0.600398	-0.099688
H51	H	0.469754	-0.705857	-0.127106
C52	C	0.656081	-0.708628	-0.021508
C53	C	0.609782	-0.640216	-0.052090
H54	H	0.734916	-0.698837	-0.007511
H55	H	0.618859	-0.723366	0.028835
H56	H	0.645882	-0.750090	-0.065114
H57	H	0.619969	-0.598758	-0.008481
H58	H	0.647009	-0.625471	-0.102425
H59	H	0.132648	-1.005512	0.378568
H60	H	0.020282	-0.556910	0.000114
O61	O	0.022244	-0.713225	0.000241
C62	C	0.026451	-0.757569	0.074942
H63	H	0.085163	-0.725382	0.127161
H64	H	0.060146	-0.817988	0.058045
C65	C	-0.165888	-0.807407	0.044690
C66	C	-0.093785	-0.767870	0.108829
H67	H	-0.240056	-0.813764	0.065591
H68	H	-0.168723	-0.777534	-0.005640
H69	H	-0.137795	-0.857751	0.030615
H70	H	-0.121871	-0.717522	0.122895
H71	H	-0.090959	-0.797734	0.159161
O72	O	0.475366	-0.302764	0.000015
C73	C	0.462804	-0.385670	0.000014
H74	H	0.374162	-0.405790	-0.027263
H75	H	0.474883	-0.405210	0.069211
C76	C	0.661376	-0.397946	-0.023115
C77	C	0.552508	-0.422658	-0.056624
H78	H	0.716712	-0.420763	-0.058048
H79	H	0.669841	-0.342091	-0.023110
H80	H	0.671426	-0.414231	0.034549
H81	H	0.542454	-0.406364	-0.114282
H82	H	0.544043	-0.478512	-0.056639
H83	H	0.086346	-0.329932	0.000122
O84	O	0.356955	-0.840937	0.614445
C85	C	0.288338	-0.794781	0.561914
H86	H	0.200443	-0.791774	0.589289
H87	H	0.280183	-0.822558	0.493093
C88	C	0.451087	-0.714593	0.526897
C89	C	0.343135	-0.710895	0.560523
H90	H	0.484889	-0.662849	0.526034
H91	H	0.497317	-0.745691	0.562285
H92	H	0.444276	-0.737744	0.469549
H93	H	0.349948	-0.687753	0.617874
H94	H	0.296907	-0.679791	0.525144
H95	H	0.441295	-0.149144	0.000096
O96	O	0.110084	-1.021990	0.206829
C97	C	0.050118	-1.065976	0.266379
H98	H	0.050077	-1.030752	0.331113
H99	H	0.092943	-1.123943	0.276024
C100	C	-0.073129	-1.126562	0.151449
C101	C	-0.073188	-1.083297	0.230953
H102	H	-0.149189	-1.137251	0.129596
H103	H	-0.032727	-1.096931	0.111327
H104	H	-0.037436	-1.174863	0.159497
H105	H	-0.108867	-1.034993	0.222902
H106	H	-0.113599	-1.112921	0.271073
H107	H	0.083790	-1.041360	0.621622
O108	O	0.407050	-0.804522	0.385601
C109	C	0.519183	-0.818803	0.363409
H110	H	0.517550	-0.852154	0.297475
H111	H	0.561178	-0.855576	0.414506
C112	C	0.589155	-0.698714	0.440191
C113	C	0.587149	-0.739670	0.359206
H114	H	0.631083	-0.649902	0.437602
H115	H	0.513610	-0.689093	0.455145
H116	H	0.624149	-0.729366	0.482763
H117	H	0.552144	-0.709022	0.316638
H118	H	0.662690	-0.749284	0.344245
H119	H	0.384428	-0.820937	0.213825
O120	O	0.083355	-1.041536	0.793405
C121	C	-0.031640	-1.029337	0.771245
H122	H	-0.038521	-1.002222	0.705317
H123	H	-0.067017	-0.987726	0.822359
C124	C	-0.091717	-1.142157	0.848026
C125	C	-0.100170	-1.108859	0.767048
H126	H	-0.133992	-1.191208	0.845440
H127	H	-0.014243	-1.150374	0.862959
H128	H	-0.121197	-1.107473	0.890612
H129	H	-0.070677	-1.143539	0.724466
H130	H	-0.177641	-1.100650	0.752108
H131	H	0.069054	-0.181491	0.000123
H132	H	0.356864	-0.841215	0.786359
