data_functionalizedCrystal
_audit_creation_method	'MofGen! by Chris Wilmer'
_symmetry_space_group_name_H-M	'P1'
_symmetry_Int_Tables_number	1
_symmetry_cell_setting	triclinic
loop_
_symmetry_equiv_pos_as_xyz
  x,y,z
_cell_length_a	12.837942
_cell_length_b	16.992694
_cell_length_c	16.053802
_cell_angle_alpha	92.750953
_cell_angle_beta	92.838962
_cell_angle_gamma	87.251418
loop_
_atom_site_label
_atom_site_type_symbol
_atom_site_fract_x
_atom_site_fract_y
_atom_site_fract_z
O1	O	0.217066	-1.059913	-0.069322
O2	O	0.717066	-0.559913	0.430678
O3	O	0.214638	-0.831447	-0.069347
O4	O	0.714638	-0.331447	0.430653
O5	O	0.064530	-0.940614	-0.069330
O6	O	0.564530	-0.440614	0.430670
O7	O	0.367174	-0.950746	-0.069339
O8	O	0.867174	-0.450746	0.430661
O9	O	0.072756	-0.934602	0.069528
O10	O	0.572756	-0.434602	0.569528
O11	O	0.222864	-0.825435	0.069511
O12	O	0.722864	-0.325435	0.569511
O13	O	0.225292	-1.053901	0.069536
O14	O	0.725292	-0.553901	0.569536
Zn15	Zn	0.225384	-0.938714	0.091570
Zn16	Zn	0.725384	-0.438714	0.591570
Zn17	Zn	0.214546	-0.946634	-0.091381
Zn18	Zn	0.714546	-0.446634	0.408619
O19	O	0.375400	-0.944734	0.069519
O20	O	0.875400	-0.444734	0.569519
C21	C	0.215629	-0.798996	0.000079
C22	C	0.715629	-0.298996	0.500079
C23	C	0.206315	-0.711256	0.000070
C24	C	0.706315	-0.211256	0.500070
C25	C	0.029738	-0.934185	0.000098
C26	C	0.529738	-0.434185	0.500098
C27	C	-0.086184	-0.923977	0.000096
C28	C	0.413816	-0.423977	0.500096
N29	N	0.232780	-0.933314	0.216430
N30	N	0.732780	-0.433314	0.716430
C31	C	-0.316977	-1.046699	0.000092
C32	C	0.183023	-0.546699	0.500092
C33	C	-0.425897	-1.037111	0.000089
C34	C	0.074103	-0.537111	0.500089
C35	C	-0.412948	-0.895215	0.000082
C36	C	0.087052	-0.395215	0.500082
C37	C	-0.304027	-0.904802	0.000085
C38	C	0.195973	-0.404802	0.500085
C39	C	-0.256046	-0.980547	0.000091
C40	C	0.243954	-0.480547	0.500091
C41	C	-0.147123	-0.990134	0.000099
C42	C	0.352877	-0.490134	0.500099
C43	C	-0.134176	-0.848238	0.000086
C44	C	0.365824	-0.348238	0.500086
C45	C	-0.243097	-0.838650	0.000084
C46	C	0.256903	-0.338650	0.500084
C47	C	0.410191	-0.951163	0.000089
C48	C	0.910191	-0.451163	0.500089
C49	C	0.526114	-0.961371	0.000086
C50	C	1.026114	-0.461371	0.500086
C51	C	0.224300	-1.086353	0.000108
C52	C	0.724300	-0.586353	0.500108
C53	C	0.233614	-1.174092	0.000112
C54	C	0.733614	-0.674092	0.500112
C55	C	0.296178	-0.667730	0.000068
C56	C	0.796178	-0.167730	0.500068
C57	C	0.287422	-0.585288	0.000079
C58	C	0.787422	-0.085288	0.500079
C59	C	0.188801	-0.546375	0.000087
C60	C	0.688801	-0.046375	0.500087
C61	C	0.098931	-0.589907	0.000092
C62	C	0.598931	-0.089907	0.500092
C63	C	0.107689	-0.672346	0.000086
C64	C	0.607689	-0.172346	0.500086
C65	C	0.152502	-0.300064	0.000111
C66	C	0.652502	0.199936	0.500111
C67	C	0.143751	-0.217618	0.000114
C68	C	0.643751	0.282382	0.500114
C69	C	0.332243	-0.213006	0.000103
C70	C	0.832243	0.286994	0.500103
C71	C	0.340992	-0.295447	0.000092
C72	C	0.840992	0.204553	0.500092
C73	C	0.251122	-0.338972	0.000101
C74	C	0.751122	0.161028	0.500101
N75	N	0.179847	-0.462107	0.000097
N76	N	0.679847	0.037893	0.500097
N77	N	0.260077	-0.423238	0.000098
N78	N	0.760077	0.076762	0.500098
N79	N	0.207141	-0.952040	-0.216241
N80	N	0.707141	-0.452040	0.283759
C81	C	0.168935	-0.979785	0.260131
C82	C	0.668935	-0.479785	0.760131
C83	C	0.174120	-0.976016	0.347537
C84	C	0.674120	-0.476016	0.847537
C85	C	0.243156	-0.925779	0.391240
C86	C	0.743156	-0.425779	0.891240
C87	C	0.307004	-0.879303	0.347533
C88	C	0.807004	-0.379303	0.847533
C89	C	0.301813	-0.883068	0.260129
C90	C	0.801813	-0.383068	0.760129
C91	C	0.265799	-0.909329	0.652647
C92	C	0.765799	-0.409329	1.152647
C93	C	0.270987	-0.905569	0.740058
C94	C	0.770987	-0.405569	1.240058
C95	C	0.138101	-1.002281	0.740056
C96	C	0.638101	-0.502281	1.240056
C97	C	0.132921	-1.006046	0.652650
C98	C	0.632921	-0.506046	1.152650
C99	C	0.196765	-0.959566	0.608950
C100	C	0.696765	-0.459566	1.108950
N101	N	0.248459	-0.921927	0.480584
N102	N	0.748459	-0.421927	0.980584
N103	N	0.191455	-0.963414	0.519608
N104	N	0.691455	-0.463414	1.019608
H105	H	-0.108058	-1.051809	0.000107
H106	H	0.391942	-0.551809	0.500107
Cl107	Cl	0.019762	-0.168699	0.000143
Cl108	Cl	0.519762	0.331301	0.500143
Cl109	Cl	0.057840	-1.060706	0.794996
Cl110	Cl	0.557840	-0.560706	1.294996
Cl111	Cl	0.464977	-0.344361	0.000077
Cl112	Cl	0.964977	0.155639	0.500077
H113	H	0.034512	-0.707785	0.000087
H114	H	0.534512	-0.207785	0.500087
Cl115	Cl	0.400398	-0.530573	0.000072
Cl116	Cl	0.900398	-0.030573	0.500072
H117	H	-0.277909	-1.108373	0.000104
H118	H	0.222091	-0.608373	0.500104
Cl119	Cl	0.082147	-1.042947	0.205198
Cl120	Cl	0.582147	-0.542947	0.705198
H121	H	0.363211	-0.838395	0.383121
H122	H	0.863211	-0.338395	0.883121
H123	H	-0.475503	-1.090979	0.000087
H124	H	0.024497	-0.590979	0.500087
H125	H	0.317785	-0.871485	0.617074
H126	H	0.817785	-0.371485	1.117074
H127	H	0.018632	-0.558216	0.000110
H128	H	0.518632	-0.058216	0.500110
Cl129	Cl	-0.473287	-0.800002	0.000050
Cl130	Cl	0.026713	-0.300002	0.500050
H131	H	0.327208	-0.864658	0.775638
H132	H	0.827208	-0.364658	1.275638
Cl133	Cl	-0.303427	-0.743434	0.000070
Cl134	Cl	0.196573	-0.243434	0.500070
H135	H	0.353801	-0.845226	0.224548
H136	H	0.853801	-0.345226	0.724548
H137	H	-0.084554	-0.794372	0.000092
H138	H	0.415446	-0.294372	0.500092
H139	H	0.376486	-0.699407	0.000061
H140	H	0.876486	-0.199407	0.500061
H141	H	0.405409	-0.177559	0.000097
H142	H	0.905409	0.322441	0.500097
H143	H	0.122131	-1.013856	0.383118
H144	H	0.622131	-0.513856	0.883118
Cl145	Cl	0.046133	-1.069202	0.597708
Cl146	Cl	0.546133	-0.569202	1.097708
Cl147	Cl	0.039522	-0.354770	0.000121
Cl148	Cl	0.539522	0.145230	0.500121
