data_functionalizedCrystal
_audit_creation_method	'MofGen! by Chris Wilmer'
_symmetry_space_group_name_H-M	'P1'
_symmetry_Int_Tables_number	1
_symmetry_cell_setting	triclinic
loop_
_symmetry_equiv_pos_as_xyz
  x,y,z
_cell_length_a	14.853567
_cell_length_b	16.974813
_cell_length_c	15.455313
_cell_angle_alpha	90.987683
_cell_angle_beta	87.317942
_cell_angle_gamma	96.484965
loop_
_atom_site_label
_atom_site_type_symbol
_atom_site_fract_x
_atom_site_fract_y
_atom_site_fract_z
O1	O	1.200425	-0.099447	-0.079050
O2	O	1.533758	0.233886	0.254283
O3	O	1.867092	0.567219	0.587617
O4	O	0.937981	-0.111703	-0.079925
O5	O	1.271314	0.221630	0.253408
O6	O	1.604647	0.554964	0.586742
O7	O	1.076078	0.009135	-0.071431
O8	O	1.409412	0.342468	0.261902
O9	O	1.742745	0.675801	0.595236
O10	O	1.062327	-0.220285	-0.087544
O11	O	1.395660	0.113049	0.245789
O12	O	1.728994	0.446382	0.579123
O13	O	1.068181	0.002253	0.072347
O14	O	1.401515	0.335586	0.405681
O15	O	1.734848	0.668920	0.739014
O16	O	0.930083	-0.118584	0.063853
O17	O	1.263417	0.214749	0.397187
O18	O	1.596750	0.548082	0.730520
O19	O	1.192528	-0.106329	0.064728
O20	O	1.525861	0.227005	0.398062
O21	O	1.859194	0.560338	0.731395
Cu22	Cu	1.060585	-0.113085	0.077419
Cu23	Cu	1.393918	0.220248	0.410752
Cu24	Cu	1.727251	0.553582	0.744086
Cu25	Cu	1.069924	-0.104947	-0.092616
Cu26	Cu	1.403257	0.228387	0.240718
Cu27	Cu	1.736590	0.561720	0.574051
O28	O	1.054430	-0.227166	0.056234
O29	O	1.387763	0.106167	0.389568
O30	O	1.721097	0.439500	0.722901
C31	C	0.900443	-0.114588	-0.007999
C32	C	1.233776	0.218745	0.325335
C33	C	1.567109	0.552078	0.658668
C34	C	0.800357	-0.112924	-0.007887
C35	C	1.133691	0.220410	0.325446
C36	C	1.467024	0.553743	0.658779
N37	N	1.054022	-0.118808	0.197012
N38	N	1.387356	0.214525	0.530346
N39	N	1.720689	0.547858	0.863679
C40	C	1.071460	0.035054	0.002518
C41	C	1.404793	0.368388	0.335852
C42	C	1.738127	0.701721	0.669185
C43	C	1.069454	0.122539	0.008657
C44	C	1.402787	0.455872	0.341990
C45	C	1.736120	0.789206	0.675323
C46	C	0.387730	-0.034110	-0.002333
C47	C	0.721063	0.299224	0.331001
C48	C	1.054396	0.632557	0.664334
C49	C	0.366618	-0.177668	-0.012416
C50	C	0.699951	0.155666	0.320917
C51	C	1.033284	0.488999	0.654251
C52	C	0.460653	-0.179232	-0.012529
C53	C	0.793987	0.154101	0.320805
C54	C	1.127320	0.487434	0.654138
C55	C	0.518232	-0.108234	-0.007545
C56	C	0.851565	0.225099	0.325789
C57	C	1.184899	0.558432	0.659122
C58	C	0.481775	-0.035672	-0.002448
C59	C	0.815108	0.297661	0.330886
C60	C	1.148441	0.630995	0.664219
C61	C	0.497118	-0.251793	-0.017634
C62	C	0.830452	0.081540	0.315699
C63	C	1.163785	0.414874	0.649033
C64	C	0.591160	-0.253361	-0.017748
C65	C	0.924493	0.079973	0.315585
C66	C	1.257826	0.413306	0.648919
C67	C	0.648739	-0.182362	-0.012758
C68	C	0.982073	0.150971	0.320576
C69	C	1.315406	0.484305	0.653909
C70	C	0.612277	-0.109797	-0.007660
C71	C	0.945610	0.223537	0.325674
C72	C	1.278943	0.556870	0.659007
C73	C	0.669855	-0.038799	-0.002675
C74	C	1.003189	0.294534	0.330658
C75	C	1.336522	0.627868	0.663991
C76	C	0.633394	0.033767	0.002429
C77	C	0.966727	0.367100	0.335762
C78	C	1.300061	0.700434	0.669095
C79	C	0.539355	0.035326	0.002543
C80	C	0.872688	0.368660	0.335876
C81	C	1.206021	0.701993	0.669209
C82	C	0.742779	-0.183922	-0.012872
C83	C	1.076112	0.149412	0.320462
C84	C	1.409446	0.482745	0.653795
C85	C	0.763900	-0.040361	-0.002791
C86	C	1.097233	0.292972	0.330543
C87	C	1.430567	0.626305	0.663876
C88	C	1.230066	-0.103443	-0.007200
C89	C	1.563399	0.229890	0.326133
C90	C	1.896732	0.563223	0.659467
C91	C	1.330151	-0.105108	-0.007317
C92	C	1.663485	0.228226	0.326017
C93	C	1.996818	0.561559	0.659350
C94	C	1.059048	-0.253086	-0.017717
C95	C	1.392382	0.080248	0.315617
C96	C	1.725715	0.413581	0.648950
C97	C	1.061055	-0.340570	-0.023861
C98	C	1.394388	-0.007237	0.309473
C99	C	1.727722	0.326096	0.642806
C100	C	1.072818	0.167386	-0.066833
C101	C	1.406151	0.500719	0.266501
C102	C	1.739484	0.834053	0.599834
C103	C	1.070926	0.249587	-0.061062
C104	C	1.404260	0.582920	0.272271
C105	C	1.737593	0.916253	0.605604
C106	C	1.065678	0.286939	0.020198
C107	C	1.399011	0.620272	0.353532
C108	C	1.732344	0.953606	0.686865
C109	C	1.062311	0.242086	0.095693
C110	C	1.395644	0.575419	0.429026
C111	C	1.728977	0.908752	0.762360
C112	C	1.064195	0.159886	0.089922
C113	C	1.397529	0.493219	0.423255
C114	C	1.730862	0.826553	0.756588
C115	C	1.059573	0.532377	0.045863
C116	C	1.392906	0.865710	0.379196
C117	C	1.726240	1.199043	0.712529
C118	C	1.057691	0.614583	0.051628
C119	C	1.391024	0.947916	0.384962
C120	C	1.724358	1.281249	0.718295
C121	C	1.066305	0.622078	-0.105128
C122	C	1.399639	0.955411	0.228206
C123	C	1.732972	1.288744	0.561539
C124	C	1.068195	0.539877	-0.110892
C125	C	1.401529	0.873210	0.222442
C126	C	1.734862	1.206543	0.555775
C127	C	1.064823	0.495030	-0.035397
C128	C	1.398157	0.828363	0.297936
C129	C	1.731490	1.161697	0.631270
N130	N	1.063747	0.370961	0.026098
N131	N	1.397080	0.704295	0.359432
N132	N	1.730414	1.037628	0.692765
N133	N	1.066747	0.411009	-0.041298
N134	N	1.400081	0.744342	0.292035
N135	N	1.733414	1.077675	0.625369
N136	N	1.076493	-0.099217	-0.212208
N137	N	1.409826	0.234116	0.121125
N138	N	1.743160	0.567450	0.454458
C139	C	1.112712	-0.067491	0.246014
C140	C	1.446045	0.265842	0.579347
C141	C	1.779378	0.599175	0.912680
C142	C	1.107757	-0.071827	0.336517
C143	C	1.441091	0.261506	0.669850
C144	C	1.774424	0.594840	1.003183
C145	C	1.044117	-0.127484	0.378017
C146	C	1.377451	0.205849	0.711350
C147	C	1.710784	0.539182	1.044683
C148	C	0.985422	-0.178803	0.329009
C149	C	1.318755	0.154530	0.662342
C150	C	1.652088	0.487863	0.995675
C151	C	0.990372	-0.174463	0.238508
C152	C	1.323706	0.158870	0.571841
C153	C	1.657039	0.492203	0.905174
C154	C	1.022748	-0.146196	0.648283
C155	C	1.356082	0.187137	0.981616
C156	C	1.689415	0.520470	1.314949
C157	C	1.017804	-0.150534	0.738790
C158	C	1.351137	0.182799	1.072124
C159	C	1.684470	0.516133	1.405457
C160	C	1.140139	-0.043556	0.746292
C161	C	1.473472	0.289777	1.079625
C162	C	1.806805	0.623111	1.412959
C163	C	1.145087	-0.039224	0.655789
C164	C	1.478421	0.294109	0.989122
C165	C	1.811754	0.627443	1.322455
C166	C	1.086389	-0.090541	0.606789
C167	C	1.419722	0.242793	0.940122
C168	C	1.753055	0.576126	1.273456
N169	N	1.039054	-0.131919	0.470525
N170	N	1.372387	0.201414	0.803858
N171	N	1.705720	0.534748	1.137192
N172	N	1.091449	-0.086102	0.514282
N173	N	1.424782	0.247232	0.847616
N174	N	1.758116	0.580565	1.180949
H175	H	0.810775	0.017455	0.001272
H176	H	1.144108	0.350788	0.334605
H177	H	1.477442	0.684121	0.667938
Cl178	Cl	1.051097	0.661539	0.153792
Cl179	Cl	1.384431	0.994873	0.487125
Cl180	Cl	1.717764	1.328206	0.820459
Cl181	Cl	0.424733	-0.341040	-0.023914
Cl182	Cl	0.758066	-0.007707	0.309420
Cl183	Cl	1.091399	0.325626	0.642753
Cl184	Cl	1.059965	0.103506	0.184827
Cl185	Cl	1.393298	0.436839	0.518160
Cl186	Cl	1.726631	0.770173	0.851493
Cl187	Cl	1.213924	0.020955	0.807895
Cl188	Cl	1.547257	0.354289	1.141229
Cl189	Cl	1.880590	0.687622	1.474562
H190	H	0.942580	-0.216250	0.198611
H191	H	1.275914	0.117083	0.531945
H192	H	1.609247	0.450416	0.865278
H193	H	0.772462	-0.243004	-0.017026
H194	H	1.105795	0.090330	0.316308
H195	H	1.439128	0.423663	0.649641
H196	H	0.620838	-0.312448	-0.021904
H197	H	0.954171	0.020885	0.311429
H198	H	1.287504	0.354219	0.644762
H199	H	1.069049	0.658601	-0.166591
H200	H	1.402382	0.991934	0.166742
H201	H	1.735715	1.325267	0.500076
Cl202	Cl	1.225094	0.030744	0.603617
Cl203	Cl	1.558427	0.364078	0.936951
Cl204	Cl	1.891760	0.697411	1.270284
H205	H	1.072471	0.509471	-0.177062
H206	H	1.405804	0.842804	0.156271
H207	H	1.739137	1.176137	0.489604
H208	H	0.680287	0.091573	0.006481
H209	H	1.013620	0.424907	0.339814
H210	H	1.346954	0.758240	0.673148
H211	H	1.056845	0.495874	0.107336
H212	H	1.390179	0.829207	0.440670
H213	H	1.723512	1.162541	0.774003
H214	H	1.077097	0.136981	-0.133004
H215	H	1.410430	0.470314	0.200330
H216	H	1.743763	0.803647	0.533663
H217	H	0.509658	0.094405	0.006719
H218	H	0.842991	0.427738	0.340052
H219	H	1.176324	0.761071	0.673385
Cl220	Cl	1.055701	0.289042	0.197850
Cl221	Cl	1.389034	0.622375	0.531183
Cl222	Cl	1.722368	0.955709	0.864516
H223	H	1.164538	-0.022173	0.212230
H224	H	1.497871	0.311161	0.545564
H225	H	1.831204	0.644494	0.878897
H226	H	0.974955	-0.187982	0.608394
H227	H	1.308288	0.145352	0.941727
H228	H	1.641622	0.478685	1.275061
Cl229	Cl	1.181538	-0.007312	0.398120
Cl230	Cl	1.514872	0.326021	0.731453
Cl231	Cl	1.848205	0.659354	1.064787
H232	H	1.073670	0.286098	-0.122534
H233	H	1.407003	0.619432	0.210800
H234	H	1.740336	0.952765	0.544133
Cl235	Cl	0.937793	-0.220511	0.790955
Cl236	Cl	1.271126	0.112822	1.124288
Cl237	Cl	1.604459	0.446155	1.457622
Cl238	Cl	0.905411	-0.248770	0.381178
Cl239	Cl	1.238745	0.084563	0.714511
Cl240	Cl	1.572078	0.417897	1.047845
H241	H	0.358038	0.024972	0.001826
H242	H	0.691372	0.358305	0.335160
H243	H	1.024705	0.691638	0.668493
H244	H	0.319733	-0.235470	-0.016481
H245	H	0.653066	0.097863	0.316852
H246	H	0.986399	0.431196	0.650186
