data_functionalizedCrystal
_audit_creation_method	'MofGen! by Chris Wilmer'
_symmetry_space_group_name_H-M	'P1'
_symmetry_Int_Tables_number	1
_symmetry_cell_setting	triclinic
loop_
_symmetry_equiv_pos_as_xyz
  x,y,z
_cell_length_a	19.288867
_cell_length_b	10.967829
_cell_length_c	18.366186
_cell_angle_alpha	77.865925
_cell_angle_beta	89.992441
_cell_angle_gamma	83.941601
loop_
_atom_site_label
_atom_site_type_symbol
_atom_site_fract_x
_atom_site_fract_y
_atom_site_fract_z
O1	O	0.922367	0.155674	-0.080055
O2	O	0.720244	0.176669	-0.082697
O3	O	0.825965	-0.015506	-0.058577
O4	O	0.816647	0.347849	-0.104175
O5	O	0.825947	-0.015515	0.062523
O6	O	0.720226	0.176660	0.038404
O7	O	0.922349	0.155664	0.041045
Zn8	Zn	0.821285	0.166161	0.058952
Zn9	Zn	0.821309	0.166173	-0.100603
O10	O	0.816628	0.347839	0.016926
C11	C	0.694354	0.175989	-0.022063
C12	C	0.617237	0.173959	-0.021811
C13	C	0.061586	0.159348	-0.085980
C14	C	0.134046	0.161247	-0.086221
C15	C	0.170271	0.162198	-0.020329
C16	C	0.134032	0.161216	0.045813
C17	C	0.061575	0.159305	0.046054
C18	C	0.280088	0.238306	0.020693
C19	C	0.352543	0.240225	0.020449
C20	C	0.393755	0.168088	-0.021068
C21	C	0.362501	0.094048	-0.062355
C22	C	0.290044	0.092136	-0.062114
C23	C	0.248840	0.164270	-0.020583
C24	C	0.508555	0.171120	-0.087466
C25	C	0.581017	0.173011	-0.087703
C26	C	0.581001	0.172993	0.044331
C27	C	0.508541	0.171089	0.044568
C28	C	0.472323	0.170158	-0.021333
C29	C	0.825276	-0.061997	0.007805
C30	C	0.823244	-0.200511	0.025182
C31	C	0.822347	-0.262254	-0.029805
C32	C	0.820246	-0.405416	-0.011846
C33	C	0.948239	0.156345	-0.019591
C34	C	1.025356	0.158374	-0.019848
C35	C	0.817317	0.394330	-0.049458
C36	C	0.819349	0.532845	-0.066840
N37	N	0.821273	0.166151	0.167844
N38	N	0.821325	0.166172	-0.209494
C39	C	0.868102	0.081098	0.216619
C40	C	0.868107	0.081092	0.292848
C41	C	0.821289	0.166162	0.320296
C42	C	0.774451	0.251222	0.271510
C43	C	0.774443	0.251217	0.195285
C44	C	0.812732	0.279856	0.426788
C45	C	0.812745	0.279863	0.503012
C46	C	0.821309	0.166177	0.555401
C47	C	0.829874	0.052480	0.531557
C48	C	0.829867	0.052475	0.455331
C49	C	0.821292	0.166176	0.402948
C50	C	0.868145	0.081111	0.686833
C51	C	0.868144	0.081103	0.763063
C52	C	0.774492	0.251244	0.741723
C53	C	0.774489	0.251240	0.665495
C54	C	0.821319	0.166175	0.638055
H55	H	0.610516	0.173795	-0.141557
F56	F	0.917939	-0.009439	0.187417
F57	F	0.819212	-0.474843	0.067071
F58	F	0.256784	0.013336	-0.106050
H59	H	0.479065	0.170358	-0.141126
H60	H	0.823131	-0.209127	-0.090177
F61	F	0.023014	0.158272	0.116443
F62	F	0.917951	-0.009438	0.344766
H63	H	0.246539	0.297042	0.054510
F64	F	0.820357	-0.397724	-0.145758
F65	F	0.406356	0.017273	-0.106546
F66	F	0.822209	-0.269943	0.104095
F67	F	0.619551	0.173988	0.114461
F68	F	0.838994	-0.068523	0.587308
H69	H	0.377982	0.300544	0.054048
H70	H	0.736370	0.320504	0.764070
H71	H	0.836839	-0.040101	0.435921
H72	H	0.805747	0.372439	0.384137
F73	F	0.724651	0.341771	0.613581
H74	H	0.906275	0.011841	0.664491
F75	F	0.724622	0.341755	0.300723
F76	F	0.172587	0.162224	0.115940
H77	H	0.479042	0.170300	0.098419
F78	F	0.917984	-0.009433	0.814977
H79	H	0.163551	0.162047	-0.140076
H80	H	0.805775	0.372442	0.522419
H81	H	0.032102	0.158585	-0.139641
F82	F	0.724600	0.341746	0.143371
