data_functionalizedCrystal
_audit_creation_method	'MofGen! by Chris Wilmer'
_symmetry_space_group_name_H-M	'P1'
_symmetry_Int_Tables_number	1
_symmetry_cell_setting	triclinic
loop_
_symmetry_equiv_pos_as_xyz
  x,y,z
_cell_length_a	16.625547
_cell_length_b	18.101397
_cell_length_c	16.625539
_cell_angle_alpha	89.968146
_cell_angle_beta	89.975178
_cell_angle_gamma	90.020402
loop_
_atom_site_label
_atom_site_type_symbol
_atom_site_fract_x
_atom_site_fract_y
_atom_site_fract_z
Zn1	Zn	1.232692	-0.294829	-0.455981
Zn2	Zn	1.232600	-0.418678	-0.321140
Zn3	Zn	1.097854	-0.294855	-0.321151
Zn4	Zn	1.097829	-0.418634	-0.455920
O5	O	1.165243	-0.356749	-0.388548
O6	O	1.345512	-0.311266	-0.438115
O7	O	1.214697	-0.402283	-0.208309
O8	O	1.115789	-0.191219	-0.339067
O9	O	1.345444	-0.402258	-0.339048
O10	O	1.214854	-0.191200	-0.438126
O11	O	1.115700	-0.311310	-0.208317
O12	O	0.985018	-0.311267	-0.339008
O13	O	1.115747	-0.402181	-0.568760
O14	O	0.985000	-0.402206	-0.438022
O15	O	1.214830	-0.311223	-0.568805
O16	O	1.214673	-0.522305	-0.338988
O17	O	1.115657	-0.522272	-0.438010
C18	C	0.955753	-0.356735	-0.388510
C19	C	0.866131	-0.356746	-0.388513
C20	C	0.793349	-0.356748	-0.388523
C21	C	0.702041	-0.356752	-0.388543
C22	C	0.629264	-0.356759	-0.388563
C23	C	0.537950	-0.356764	-0.388583
C24	C	1.165174	-0.549160	-0.388509
C25	C	1.165219	-0.631474	-0.388519
C26	C	1.165322	-0.930565	-0.388593
C27	C	1.227446	-0.899230	-0.326124
C28	C	1.227661	-0.813611	-0.326286
C29	C	1.165271	-0.782182	-0.388556
C30	C	1.188307	-0.813188	-0.473547
C31	C	1.188788	-0.898833	-0.473207
C32	C	1.079995	-0.899074	-0.366805
C33	C	1.080417	-0.813425	-0.364908
C34	C	1.165240	-0.698323	-0.388540
C35	C	1.165354	-1.014424	-0.388614
C36	C	1.375552	-0.356764	-0.388587
C37	C	1.465173	-0.356771	-0.388603
C38	C	1.165296	-0.356694	-0.598857
C39	C	1.165318	-0.356670	-0.688478
C40	C	1.165335	-0.163587	-0.388605
C41	C	1.165373	-0.081273	-0.388629
C42	C	1.165355	-0.356588	-1.016654
C43	C	1.165343	-0.356613	-0.925346
C44	C	1.165337	-0.356630	-0.852569
C45	C	1.165324	-0.356654	-0.761255
C46	C	1.165238	-0.356751	-0.179057
C47	C	1.165371	-0.356566	-0.089437
H48	H	1.213249	-0.792651	-0.263266
H49	H	1.251157	-0.918751	-0.491662
Br50	Br	1.115190	-0.779267	-0.553214
Br51	Br	1.051458	-0.779658	-0.260661
H52	H	1.145521	-0.919558	-0.521356
Br53	Br	1.332219	-0.935007	-0.349871
Br54	Br	1.333006	-0.779363	-0.350317
Br55	Br	1.045064	-0.935179	-0.265300
H56	H	1.249978	-0.791680	-0.492314
H57	H	1.031640	-0.792038	-0.407075
H58	H	1.033708	-0.919339	-0.412304
H59	H	1.213208	-0.919874	-0.262915
