data_functionalizedCrystal
_audit_creation_method	'MofGen! by Chris Wilmer'
_symmetry_space_group_name_H-M	'P1'
_symmetry_Int_Tables_number	1
_symmetry_cell_setting	triclinic
loop_
_symmetry_equiv_pos_as_xyz
  x,y,z
_cell_length_a	12.759401
_cell_length_b	15.299816
_cell_length_c	12.759393
_cell_angle_alpha	80.349878
_cell_angle_beta	90.018567
_cell_angle_gamma	80.349384
loop_
_atom_site_label
_atom_site_type_symbol
_atom_site_fract_x
_atom_site_fract_y
_atom_site_fract_z
Zn1	Zn	1.678549	-0.359025	0.666404
Zn2	Zn	1.708818	-0.509869	0.521151
Zn3	Zn	1.502860	-0.359070	0.490752
Zn4	Zn	1.533200	-0.509797	0.696778
O5	O	1.605857	-0.434440	0.593771
O6	O	1.829588	-0.379047	0.647146
O7	O	1.681468	-0.489914	0.370107
O8	O	1.500801	-0.232855	0.488619
O9	O	1.851826	-0.489871	0.540430
O10	O	1.629879	-0.232823	0.617669
O11	O	1.530151	-0.379122	0.347773
O12	O	1.359861	-0.379052	0.518071
O13	O	1.552510	-0.489748	0.839760
O14	O	1.382152	-0.489791	0.669437
O15	O	1.659298	-0.378977	0.817444
O16	O	1.710886	-0.636068	0.569882
O17	O	1.581860	-0.636015	0.698914
C18	C	1.332885	-0.434419	0.593752
C19	C	1.216111	-0.434432	0.593774
C20	C	1.149685	-0.376835	0.649467
C21	C	1.039964	-0.376852	0.649477
C22	C	1.063108	-0.492071	0.538099
C23	C	1.172825	-0.492049	0.538083
C24	C	1.136323	-0.310316	0.713774
C25	C	1.026602	-0.310333	0.713784
C26	C	1.652979	-0.668766	0.641016
C27	C	1.673234	-0.769011	0.661263
C28	C	1.461780	-1.051953	0.449422
C29	C	1.442744	-0.957767	0.430402
C30	C	1.500365	-0.910574	0.488115
C31	C	1.577025	-0.957575	0.564852
C32	C	1.596057	-1.051770	0.583880
C33	C	1.634642	-0.910391	0.622573
C34	C	1.711302	-0.957392	0.699311
C35	C	1.730331	-1.051577	0.718335
C36	C	1.672710	-1.098771	0.660621
C37	C	1.615610	-0.816196	0.603545
C38	C	1.749887	-0.816013	0.738004
C39	C	1.768923	-0.910198	0.757024
C40	C	1.879894	-0.434462	0.593791
C41	C	1.996673	-0.434472	0.593799
C42	C	1.605912	-0.434349	0.867786
C43	C	1.605936	-0.434311	0.984555
C44	C	1.558580	-0.199200	0.546365
C45	C	1.538433	-0.098954	0.526163
C46	C	1.605849	-0.434466	0.320809
C47	C	1.605978	-0.434251	0.203989
C48	C	1.661548	-0.376627	1.027798
C49	C	1.661567	-0.376594	1.137516
C50	C	1.550358	-0.491937	1.160739
C51	C	1.550334	-0.491965	1.051023
C52	C	1.725757	-0.310037	1.014391
C53	C	1.725776	-0.310004	1.124109
H54	H	1.027850	-0.538981	0.492758
C55	C	1.839222	-0.335069	1.169037
C56	C	1.848110	-0.413163	1.245719
C57	C	1.952590	-0.436268	1.287141
H58	H	1.886618	-0.345558	1.113350
H59	H	1.856664	-0.287279	1.200825
H60	H	1.830680	-0.460943	1.213930
H61	H	1.800737	-0.402696	1.301425
H62	H	1.970033	-0.388477	1.318930
H63	H	1.999978	-0.446752	1.231448
H64	H	1.958632	-0.489252	1.339182
C65	C	1.244775	-0.554674	0.477583
C66	C	1.183383	-0.605150	0.428841
C67	C	1.249628	-0.662858	0.373107
H68	H	1.280621	-0.520212	0.424833
H69	H	1.295504	-0.594056	0.525602
H70	H	1.132673	-0.565773	0.380827
H71	H	1.147538	-0.639630	0.481568
H72	H	1.300357	-0.702240	0.421125
H73	H	1.285471	-0.628389	0.320362
H74	H	1.207985	-0.697119	0.340037
H75	H	1.380327	-0.919503	0.367924
H76	H	1.688208	-1.175465	0.676100
H77	H	1.000642	-0.329129	0.798911
H78	H	1.792748	-1.089843	0.780824
H79	H	1.808071	-0.335077	0.985407
H80	H	1.175441	-0.335410	0.796074
H81	H	1.414868	-1.090387	0.402445
C82	C	0.963563	-0.221744	0.657266
C83	C	1.033642	-0.163039	0.619804
C84	C	0.975608	-0.081423	0.567746
H85	H	0.923772	-0.232281	0.599079
H86	H	0.916458	-0.195656	0.705565
H87	H	1.080729	-0.189122	0.571509
H88	H	1.073435	-0.152476	0.677970
H89	H	0.928503	-0.055335	0.616044
H90	H	0.935819	-0.091969	0.509563
H91	H	1.023147	-0.041579	0.542330
H92	H	1.831339	-0.948480	0.819505
H93	H	1.796805	-0.777588	0.785001
C94	C	1.532396	-0.765010	0.520312
C95	C	1.528037	-0.672422	0.516014
C96	C	1.451380	-0.625242	0.439356
H97	H	1.550847	-0.780377	0.452796
H98	H	1.464892	-0.780436	0.538756
H99	H	1.595526	-0.657002	0.497564
H100	H	1.509573	-0.657028	0.583510
H101	H	1.383876	-0.640668	0.457800
H102	H	1.469838	-0.640617	0.371846
H103	H	1.448405	-0.562416	0.436436
H104	H	1.505045	-0.538933	1.015819
H105	H	1.152018	-0.240437	0.678025
C106	C	1.677891	-0.216862	0.956115
C107	C	1.648636	-0.159839	1.030156
C108	C	1.604526	-0.074007	0.976513
H109	H	1.728831	-0.193552	0.910087
H110	H	1.616856	-0.220629	0.915541
H111	H	1.709664	-0.156069	1.070712
H112	H	1.597687	-0.183120	1.076187
H113	H	1.543491	-0.077774	0.935939
H114	H	1.655471	-0.050706	0.930486
H115	H	1.584662	-0.035308	1.026741
H116	H	1.683298	-0.243639	1.144770
H117	H	1.484862	-0.833884	0.472623
H118	H	1.505087	-0.538875	1.214870
