data_functionalizedCrystal
_audit_creation_method	'MofGen! by Chris Wilmer'
_symmetry_space_group_name_H-M	'P1'
_symmetry_Int_Tables_number	1
_symmetry_cell_setting	triclinic
loop_
_symmetry_equiv_pos_as_xyz
  x,y,z
_cell_length_a	16.959455
_cell_length_b	16.120297
_cell_length_c	16.959454
_cell_angle_alpha	92.875976
_cell_angle_beta	90.017022
_cell_angle_gamma	92.879541
loop_
_atom_site_label
_atom_site_type_symbol
_atom_site_fract_x
_atom_site_fract_y
_atom_site_fract_z
Zn1	Zn	1.185756	-0.471383	-0.337427
Zn2	Zn	1.685756	0.028617	0.162573
Zn3	Zn	1.192371	-0.331981	-0.462907
Zn4	Zn	1.692371	0.168019	0.037093
Zn5	Zn	1.060276	-0.331989	-0.330740
Zn6	Zn	1.560276	0.168011	0.169260
Zn7	Zn	1.053551	-0.471350	-0.469558
Zn8	Zn	1.553551	0.028650	0.030442
O9	O	1.122989	-0.401676	-0.400158
O10	O	1.622989	0.098324	0.099842
O11	O	1.297244	-0.452902	-0.354087
O12	O	1.797244	0.047098	0.145913
O13	O	1.180430	-0.215319	-0.439793
O14	O	1.680430	0.284681	0.060207
O15	O	1.076968	-0.350498	-0.221017
O16	O	1.576968	0.149502	0.278983
O17	O	1.302104	-0.350484	-0.446277
O18	O	1.802104	0.149516	0.053723
O19	O	1.169158	-0.452910	-0.225930
O20	O	1.669158	0.047090	0.274070
O21	O	1.083381	-0.215325	-0.342690
O22	O	1.583381	0.284675	0.157310
O23	O	0.948774	-0.350465	-0.349140
O24	O	1.448774	0.149535	0.150860
O25	O	1.065506	-0.588018	-0.457613
O26	O	1.565506	-0.088018	0.042387
O27	O	0.943833	-0.452853	-0.451129
O28	O	1.443833	0.047147	0.048871
O29	O	1.162637	-0.588042	-0.360536
O30	O	1.662637	-0.088042	0.139464
O31	O	1.173909	-0.350451	-0.574399
O32	O	1.673909	0.149549	-0.074399
O33	O	1.071919	-0.452845	-0.579286
O34	O	1.571919	0.047155	-0.079286
C35	C	0.917623	-0.401657	-0.400131
C36	C	1.417623	0.098343	0.099869
C37	C	0.829766	-0.401668	-0.400139
C38	C	1.329766	0.098332	0.099861
C39	C	0.460833	-0.348474	-0.347016
C40	C	0.960833	0.151526	0.152984
C41	C	0.455745	-0.454926	-0.453367
C42	C	0.955745	0.045074	0.046633
C43	C	0.538291	-0.454920	-0.453356
C44	C	1.038291	0.045080	0.046644
C45	C	0.582112	-0.401690	-0.400174
C46	C	1.082112	0.098310	0.099826
C47	C	0.543387	-0.348465	-0.347004
C48	C	1.043387	0.151535	0.152996
C49	C	0.577023	-0.508138	-0.506530
C50	C	1.077023	-0.008138	-0.006530
C51	C	0.659574	-0.508135	-0.506521
C52	C	1.159574	-0.008135	-0.006521
C53	C	0.703396	-0.454908	-0.453335
C54	C	1.203396	0.045092	0.046665
C55	C	0.664666	-0.401682	-0.400163
C56	C	1.164666	0.098318	0.099837
C57	C	0.708487	-0.348452	-0.346981
C58	C	1.208487	0.151548	0.153019
C59	C	0.669758	-0.295229	-0.293804
C60	C	1.169758	0.204771	0.206196
C61	C	0.587209	-0.295239	-0.293819
C62	C	1.087209	0.204761	0.206181
C63	C	0.785945	-0.454898	-0.453321
C64	C	1.285945	0.045102	0.046679
C65	C	0.791041	-0.348443	-0.346970
C66	C	1.291041	0.151557	0.153030
C67	C	1.112583	-0.619125	-0.410562
C68	C	1.612583	-0.119125	0.089438
C69	C	1.108149	-0.711789	-0.414996
C70	C	1.608149	-0.211789	0.085004
C71	C	1.100025	-0.881447	-0.423073
C72	C	1.600025	-0.381447	0.076927
C73	C	1.146108	-0.922756	-0.377006
C74	C	1.646108	-0.422756	0.122994
C75	C	1.141587	-1.017160	-0.381500
C76	C	1.641587	-0.517160	0.118500
C77	C	1.104544	-0.787035	-0.418580
C78	C	1.604544	-0.287035	0.081420
C79	C	1.329156	-0.401696	-0.400186
C80	C	1.829156	0.098304	0.099814
C81	C	1.417012	-0.401704	-0.400197
C82	C	1.917012	0.098296	0.099803
C83	C	1.122923	-0.401662	-0.605524
C84	C	1.622923	0.098338	-0.105524
C85	C	1.122966	-0.401684	-0.693381
C86	C	1.622966	0.098316	-0.193381
C87	C	1.133399	-0.185072	-0.389737
C88	C	1.633399	0.314928	0.110263
C89	C	1.137986	-0.092409	-0.385081
C90	C	1.637986	0.407591	0.114919
C91	C	1.069956	-0.454987	-1.067431
C92	C	1.569956	0.045013	-0.567431
C93	C	1.176237	-0.348450	-1.062286
C94	C	1.676237	0.151550	-0.562286
C95	C	1.176210	-0.348442	-0.979740
C96	C	1.676210	0.151558	-0.479740
C97	C	1.123054	-0.401707	-0.941035
C98	C	1.623054	0.098293	-0.441035
C99	C	1.069926	-0.454979	-0.984877
C100	C	1.569926	0.045021	-0.484877
C101	C	1.229332	-0.295165	-0.935892
C102	C	1.729332	0.204835	-0.435892
C103	C	1.229307	-0.295155	-0.853341
C104	C	1.729307	0.204845	-0.353341
C105	C	1.176154	-0.348424	-0.814635
C106	C	1.676154	0.151576	-0.314635
C107	C	1.123024	-0.401699	-0.858481
C108	C	1.623024	0.098301	-0.358481
C109	C	1.069868	-0.454963	-0.819777
C110	C	1.569868	0.045037	-0.319777
C111	C	1.016741	-0.508243	-0.863622
C112	C	1.516741	-0.008243	-0.363622
C113	C	1.016773	-0.508248	-0.946171
C114	C	1.516773	-0.008248	-0.446171
C115	C	1.176122	-0.348419	-0.732086
C116	C	1.676122	0.151581	-0.232086
C117	C	1.069837	-0.454956	-0.737223
C118	C	1.569837	0.045044	-0.237223
C119	C	1.123075	-0.401708	-0.193991
C120	C	1.623075	0.098292	0.306009
C121	C	1.123112	-0.401722	-0.106135
C122	C	1.623112	0.098278	0.393865
H123	H	0.691100	-0.551473	-0.549820
H124	H	1.191100	-0.051473	-0.049820
H125	H	1.188955	-0.887222	-0.334190
H126	H	1.688955	-0.387222	0.165810
H127	H	1.219373	-0.305036	-0.696391
H128	H	1.719373	0.194964	-0.196391
H129	H	1.057181	-0.916979	-0.465886
H130	H	1.557181	-0.416979	0.034114
H131	H	1.026554	-0.498333	-0.705715
H132	H	1.526554	0.001667	-0.205715
H133	H	1.026703	-0.498368	-1.103133
H134	H	1.526703	0.001632	-0.603133
H135	H	1.272603	-0.251794	-0.967412
H136	H	1.772603	0.248206	-0.467412
H137	H	0.973457	-0.551608	-0.832099
H138	H	1.473457	-0.051608	-0.332099
H139	H	0.973519	-0.551625	-0.981877
H140	H	1.473519	-0.051625	-0.481877
H141	H	0.429296	-0.305143	-0.303719
H142	H	0.929296	0.194857	0.196281
H143	H	1.219510	-0.305080	-1.093805
H144	H	1.719510	0.194920	-0.593805
H145	H	0.826714	-0.305101	-0.303658
H146	H	1.326714	0.194899	0.196342
H147	H	0.705448	-0.251885	-0.250507
H148	H	1.205448	0.248115	0.249493
H149	H	0.420061	-0.498258	-0.496669
H150	H	0.920061	0.001742	0.003331
H151	H	0.555669	-0.251907	-0.250526
H152	H	1.055669	0.248093	0.249474
H153	H	0.541338	-0.551470	-0.549833
H154	H	1.041338	-0.051470	-0.049833
H155	H	0.817475	-0.498229	-0.496619
H156	H	1.317475	0.001771	0.003381
H157	H	1.272566	-0.251773	-0.817647
H158	H	1.772566	0.248227	-0.317647
