data_functionalizedCrystal
_audit_creation_method	'MofGen! by Chris Wilmer'
_symmetry_space_group_name_H-M	'P1'
_symmetry_Int_Tables_number	1
_symmetry_cell_setting	triclinic
loop_
_symmetry_equiv_pos_as_xyz
  x,y,z
_cell_length_a	10.540539
_cell_length_b	16.176319
_cell_length_c	17.699083
_cell_angle_alpha	90.004339
_cell_angle_beta	83.904253
_cell_angle_gamma	90.003933
loop_
_atom_site_label
_atom_site_type_symbol
_atom_site_fract_x
_atom_site_fract_y
_atom_site_fract_z
O1	O	1.683940	0.068709	0.106658
O2	O	2.183940	0.568709	0.606658
O3	O	1.314343	0.068720	0.116708
O4	O	1.814343	0.568720	0.616708
O5	O	1.509583	0.068707	0.001562
O6	O	2.009583	0.568707	0.501562
O7	O	1.488699	0.068722	0.221804
O8	O	1.988699	0.568722	0.721804
O9	O	1.509560	-0.068786	0.001561
O10	O	2.009560	0.431214	0.501561
O11	O	1.314320	-0.068773	0.116707
O12	O	1.814320	0.431227	0.616707
O13	O	1.683917	-0.068784	0.106658
O14	O	2.183917	0.431216	0.606658
Cu15	Cu	1.499116	-0.081333	0.111682
Cu16	Cu	1.999116	0.418667	0.611682
Cu17	Cu	1.499143	0.081269	0.111683
Cu18	Cu	1.999143	0.581269	0.611683
O19	O	1.488676	-0.068771	0.221804
O20	O	1.988676	0.431229	0.721804
C21	C	1.267042	-0.000026	0.115954
C22	C	1.767042	0.499974	0.615954
C23	C	1.126135	-0.000022	0.113699
C24	C	1.626135	0.499978	0.613699
N25	N	1.499106	-0.195698	0.111682
N26	N	1.999106	0.304302	0.611682
C27	C	1.508823	-0.000040	-0.026641
C28	C	2.008823	0.499960	0.473359
C29	C	1.506578	-0.000040	-0.110673
C30	C	2.006578	0.499960	0.389327
C31	C	0.944289	-0.000349	0.027300
C32	C	1.444289	0.499651	0.527300
C33	C	1.090865	-0.000030	0.029586
C34	C	1.590865	0.499970	0.529586
C35	C	1.063735	0.078493	0.154178
C36	C	1.563735	0.578493	0.654178
C37	C	0.917243	0.078550	0.151307
C38	C	1.417243	0.578550	0.651307
C39	C	0.916698	-0.077805	0.153018
C40	C	1.416698	0.422195	0.653018
C41	C	1.063665	-0.078834	0.153793
C42	C	1.563665	0.421166	0.653793
C43	C	1.731217	-0.000037	0.107412
C44	C	2.231217	0.499963	0.607412
C45	C	1.872124	-0.000035	0.109666
C46	C	2.372124	0.499965	0.609666
C47	C	1.575942	-0.238958	0.158030
C48	C	2.075942	0.261042	0.658030
C49	C	1.575956	-0.325505	0.158027
C50	C	2.075956	0.174495	0.658027
C51	C	1.499126	-0.368791	0.111679
C52	C	1.999126	0.131209	0.611679
C53	C	1.422287	-0.325525	0.065326
C54	C	1.922287	0.174475	0.565326
C55	C	1.422281	-0.238979	0.065325
C56	C	1.922281	0.261021	0.565325
C57	C	1.422310	-0.674553	0.065327
C58	C	1.922310	-0.174553	0.565327
C59	C	1.422319	-0.761105	0.065333
C60	C	1.922319	-0.261105	0.565333
C61	C	1.575986	-0.761078	0.158029
C62	C	2.075986	-0.261078	0.658029
C63	C	1.575980	-0.674533	0.158028
C64	C	2.075980	-0.174533	0.658028
C65	C	1.499146	-0.631275	0.111672
C66	C	1.999146	-0.131275	0.611672
C67	C	1.499134	-0.537431	0.111674
C68	C	1.999134	-0.037431	0.611674
C69	C	1.499130	-0.462633	0.111680
C70	C	1.999130	0.037367	0.611680
N71	N	1.499163	0.195634	0.111678
N72	N	1.999163	0.695634	0.611678
C73	C	1.621180	-0.000044	-0.158549
C74	C	2.121180	0.499956	0.341451
C75	C	1.619064	-0.000037	-0.237506
C76	C	2.119064	0.499963	0.262494
C77	C	1.502343	-0.000031	-0.268586
C78	C	2.002343	0.499969	0.231414
C79	C	1.387732	-0.000024	-0.220704
C80	C	1.887732	0.499976	0.279296
C81	C	1.389851	-0.000026	-0.141748
C82	C	1.889851	0.499974	0.358252
C83	C	1.379187	-0.000017	-0.539122
C84	C	1.879187	0.499983	-0.039122
C85	C	1.377078	-0.000018	-0.618084
C86	C	1.877078	0.499982	-0.118084
C87	C	1.608400	-0.000029	-0.634880
C88	C	2.108400	0.499971	-0.134880
C89	C	1.610518	-0.000030	-0.555925
C90	C	2.110518	0.499970	-0.055925
C91	C	1.495908	-0.000019	-0.508050
C92	C	1.995908	0.499981	-0.008050
C93	C	1.498205	-0.000025	-0.422436
C94	C	1.998205	0.499975	0.077564
C95	C	1.500045	-0.000031	-0.354198
C96	C	2.000045	0.499969	0.145802
C97	C	1.489436	-0.000022	0.250006
C98	C	1.989436	0.499978	0.750006
C99	C	1.491681	-0.000017	0.334038
C100	C	1.991681	0.499983	0.834038
H101	H	1.134052	-0.056314	-0.002265
H102	H	1.634052	0.443686	0.497735
C103	C	1.660432	-0.373086	0.209044
C104	C	2.160432	0.126914	0.709044
N105	N	1.724045	-0.408924	0.247482
N106	N	2.224045	0.091076	0.747482
C107	C	1.660502	-0.626923	0.209012
C108	C	2.160502	-0.126923	0.709012
N109	N	1.724172	-0.591065	0.247411
N110	N	2.224172	-0.091065	0.747411
H111	H	1.282024	-0.000015	-0.643386
H112	H	1.782024	0.499985	-0.143386
H113	H	0.916302	-0.056657	-0.005930
H114	H	1.416302	0.443343	0.494070
C115	C	1.738919	-0.000036	-0.521742
C116	C	2.238919	0.499964	-0.021742
N117	N	1.835634	-0.000037	-0.495997
N118	N	2.335634	0.499963	0.004003
H119	H	1.638551	-0.796309	0.195772
H120	H	2.138551	-0.296309	0.695772
C121	C	1.337802	-0.808718	0.014341
C122	C	1.837802	-0.308718	0.514341
N123	N	1.274146	-0.844580	-0.024064
N124	N	1.774146	-0.344580	0.475936
H125	H	1.359748	-0.639343	0.027581
H126	H	1.859748	-0.139343	0.527581
H127	H	1.105159	-0.136919	0.124221
H128	H	1.605159	0.363081	0.624221
H129	H	1.716228	-0.000054	-0.133251
H130	H	2.216228	0.499946	0.366749
H131	H	1.285864	-0.000008	-0.500152
H132	H	1.785864	0.499992	-0.000152
H133	H	1.084959	0.081419	0.215949
H134	H	1.584959	0.581419	0.715949
H135	H	1.701721	-0.000033	-0.673870
H136	H	2.201721	0.499967	-0.173870
C137	C	1.337752	-0.191394	0.014340
C138	C	1.837752	0.308606	0.514340
N139	N	1.274084	-0.155555	-0.024064
N140	N	1.774084	0.344445	0.475936
C141	C	1.745135	-0.000055	-0.290167
C142	C	2.245135	0.499945	0.209833
N143	N	1.840098	-0.000073	-0.329831
N144	N	2.340098	0.499927	0.170169
H145	H	1.292697	-0.000014	-0.246015
H146	H	1.792697	0.499986	0.253985
H147	H	1.296530	-0.000022	-0.102768
H148	H	1.796530	0.499978	0.397232
H149	H	0.868359	-0.078331	0.213773
H150	H	1.368359	0.421669	0.713773
C151	C	0.904292	0.075281	-0.017409
C152	C	1.404292	0.575281	0.482591
N153	N	0.874162	0.132245	-0.051083
N154	N	1.374162	0.632245	0.448917
H155	H	1.086769	-0.083570	0.215117
H156	H	1.586769	0.416430	0.715117
H157	H	1.359737	-0.360775	0.027585
H158	H	1.859737	0.139225	0.527585
C159	C	1.148071	0.076135	-0.013743
C160	C	1.648071	0.576135	0.486257
N161	N	1.191158	0.133506	-0.046378
N162	N	1.691158	0.633506	0.453622
C163	C	0.879884	0.157829	0.110882
C164	C	1.379884	0.657829	0.610882
N165	N	0.851751	0.217541	0.080430
N166	N	1.351751	0.717541	0.580430
H167	H	1.638499	-0.203720	0.195776
H168	H	2.138499	0.296280	0.695776
C169	C	0.850942	0.083388	0.233028
C170	C	1.350942	0.583388	0.733028
N171	N	0.801010	0.087040	0.294580
N172	N	1.301010	0.587040	0.794580
H173	H	1.106848	0.136922	0.126059
H174	H	1.606848	0.636922	0.626059
C175	C	0.874753	-0.158206	0.116238
C176	C	1.374753	0.341794	0.616238
N177	N	0.843163	-0.218760	0.088526
N178	N	1.343163	0.281240	0.588526
