data_functionalizedCrystal
_audit_creation_method	'MofGen! by Chris Wilmer'
_symmetry_space_group_name_H-M	'P1'
_symmetry_Int_Tables_number	1
_symmetry_cell_setting	triclinic
loop_
_symmetry_equiv_pos_as_xyz
  x,y,z
_cell_length_a	27.780882
_cell_length_b	27.780884
_cell_length_c	27.780936
_cell_angle_alpha	59.997472
_cell_angle_beta	90.001550
_cell_angle_gamma	119.999789
loop_
_atom_site_label
_atom_site_type_symbol
_atom_site_fract_x
_atom_site_fract_y
_atom_site_fract_z
O1	O	0.410270	-0.344534	0.014321
O2	O	0.340273	-0.245964	-0.014251
O3	O	0.340270	-0.344533	0.084319
O4	O	0.410274	-0.245965	-0.084248
O5	O	0.260210	-0.424592	0.084318
O6	O	0.260214	-0.326023	-0.014251
O7	O	0.330211	-0.424594	0.014321
Zn8	Zn	0.282501	-0.388019	0.000035
Zn9	Zn	0.387983	-0.282538	0.000035
O10	O	0.330214	-0.326025	-0.084249
C11	C	0.207596	-0.090567	-0.029862
C12	C	0.237299	-0.031162	-0.025773
C13	C	0.149664	-0.119397	-0.030268
C14	C	0.207598	-0.177730	-0.029868
C15	C	0.237303	-0.211520	-0.025784
C16	C	0.149666	-0.206427	-0.030273
C17	C	0.120430	-0.177734	-0.029862
C18	C	0.056934	-0.211526	-0.025772
C19	C	0.236700	-0.119393	-0.030273
C20	C	0.005636	-0.238828	-0.022467
C21	C	0.261296	0.016831	-0.022467
C22	C	0.261301	-0.238819	-0.022483
C23	C	-0.058720	-0.273079	-0.018321
C24	C	0.291401	0.077041	-0.018322
C25	C	0.291408	-0.273066	-0.018343
O26	O	-0.249047	-0.424605	0.014340
O27	O	-0.080481	-0.326036	-0.014230
O28	O	-0.179042	-0.424608	0.084339
O29	O	-0.150485	-0.326033	-0.084229
O30	O	-0.179044	-0.344552	0.084344
O31	O	-0.080483	-0.245979	-0.014225
O32	O	-0.249049	-0.344549	0.014344
Zn33	Zn	-0.164766	-0.282554	0.000061
Zn34	Zn	-0.164763	-0.388031	0.000054
O35	O	-0.150487	-0.245976	-0.084224
C36	C	0.462884	-0.177727	-0.372327
C37	C	0.433180	-0.211519	-0.402029
C38	C	0.520815	-0.119388	-0.401431
C39	C	0.462885	-0.177726	-0.285161
C40	C	0.433181	-0.211517	-0.221665
C41	C	0.520816	-0.119388	-0.314397
C42	C	0.550051	-0.090560	-0.372329
C43	C	0.613546	-0.031152	-0.402033
C44	C	0.433781	-0.206422	-0.314395
C45	C	0.664844	0.016842	-0.426031
C46	C	0.409182	-0.238820	-0.426025
C47	C	0.409184	-0.238818	-0.170367
C48	C	0.729200	0.077053	-0.456138
C49	C	0.379076	-0.273070	-0.456130
C50	C	0.379079	-0.273067	-0.106011
C51	C	0.550044	-0.492843	0.029965
C52	C	0.613538	-0.459053	0.025879
C53	C	0.520808	-0.551182	0.030373
C54	C	0.462879	-0.492840	0.029960
C55	C	0.433176	-0.459047	0.025869
C56	C	0.433776	-0.551179	0.030369
C57	C	0.462878	-0.580009	0.029964
C58	C	0.433174	-0.639417	0.025878
C59	C	0.520809	-0.464146	0.030369
C60	C	0.409177	-0.687412	0.022575
C61	C	0.664836	-0.431753	0.022576
C62	C	0.409180	-0.431744	0.022562
C63	C	0.379071	-0.747624	0.018433
C64	C	0.729190	-0.397505	0.018434
C65	C	0.379075	-0.397492	0.018415
O66	O	0.330206	0.234705	0.014343
O67	O	0.260205	0.094709	-0.014226
O68	O	0.260208	0.094700	0.084342
O69	O	0.330203	0.234713	-0.084225
O70	O	0.340270	0.094703	0.084337
O71	O	0.340266	0.094711	-0.014231
O72	O	0.410267	0.234707	0.014338
Zn73	Zn	0.387978	0.164710	0.000053
Zn74	Zn	0.282494	0.164706	0.000059
O75	O	0.410264	0.234716	-0.084231
O76	O	0.919528	0.234725	-0.494947
O77	O	0.750963	0.094724	-0.424943
O78	O	0.849525	0.094720	-0.424940
O79	O	0.820966	0.234728	-0.494951
O80	O	0.849523	0.094718	-0.504999
O81	O	0.750961	0.094722	-0.505002
O82	O	0.919526	0.234723	-0.575006
Zn83	Zn	0.835243	0.164722	-0.552715
Zn84	Zn	0.835246	0.164724	-0.447234
O85	O	0.820964	0.234726	-0.575009
O86	O	0.340270	-0.344533	-0.574994
O87	O	0.410271	-0.245968	-0.504995
O88	O	0.410269	-0.344536	-0.504989
O89	O	0.340272	-0.245965	-0.574999
O90	O	0.330209	-0.424596	-0.424929
O91	O	0.330210	-0.326029	-0.424934
O92	O	0.260210	-0.424593	-0.494933
Zn93	Zn	0.282499	-0.388022	-0.447222
Zn94	Zn	0.387982	-0.282539	-0.552705
O95	O	0.260211	-0.326026	-0.494939
C96	C	0.120431	-0.580000	0.372398
C97	C	0.056936	-0.639407	0.402102
C98	C	0.149667	-0.551172	0.401501
C99	C	0.207598	-0.492833	0.285231
C100	C	0.237302	-0.459041	0.221736
C101	C	0.236701	-0.464137	0.314466
C102	C	0.207598	-0.492833	0.372397
C103	C	0.237302	-0.459042	0.402100
C104	C	0.149667	-0.551171	0.314467
C105	C	0.261299	-0.431741	0.426097
C106	C	0.005638	-0.687401	0.426100
C107	C	0.261299	-0.431740	0.170437
C108	C	0.291405	-0.397491	0.456202
C109	C	-0.058718	-0.747613	0.456206
C110	C	0.291405	-0.397490	0.106081
C111	C	-0.194662	-0.492867	0.372424
C112	C	-0.190574	-0.459078	0.402130
C113	C	-0.195067	-0.551205	0.401525
C114	C	-0.194664	-0.492861	0.285255
C115	C	-0.190579	-0.459066	0.221759
C116	C	-0.195069	-0.551199	0.314488
C117	C	-0.194660	-0.580030	0.372420
C118	C	-0.190570	-0.639437	0.402122
C119	C	-0.195071	-0.464168	0.314492
C120	C	-0.187264	-0.687431	0.426117
C121	C	-0.187270	-0.431780	0.426129
C122	C	-0.187277	-0.431762	0.170460
C123	C	-0.183118	-0.747643	0.456221
C124	C	-0.183126	-0.397533	0.456237
C125	C	-0.183135	-0.397509	0.106104
C126	C	-0.134870	-0.090557	-0.372306
C127	C	-0.138960	-0.031149	-0.402008
C128	C	-0.134463	-0.119382	-0.401410
C129	C	-0.134866	-0.177726	-0.285140
C130	C	-0.138951	-0.211520	-0.221644
C131	C	-0.134459	-0.206419	-0.314377
C132	C	-0.134868	-0.177721	-0.372309
C133	C	-0.138956	-0.211509	-0.402014
C134	C	-0.134461	-0.119387	-0.314374
C135	C	-0.142260	-0.238808	-0.426013
C136	C	-0.142266	0.016845	-0.426004
C137	C	-0.142253	-0.238823	-0.170345
C138	C	-0.146404	-0.273055	-0.456120
C139	C	-0.146412	0.077056	-0.456108
C140	C	-0.146394	-0.273076	-0.105989
C141	C	0.207598	-0.177788	0.372409
C142	C	0.237303	-0.211581	0.402109
C143	C	0.149666	-0.206489	0.401514
C144	C	0.207597	-0.090611	0.285248
C145	C	0.237301	-0.031194	0.221754
C146	C	0.149665	-0.119445	0.314485
C147	C	0.120430	-0.177791	0.372415
C148	C	0.056934	-0.211588	0.402120
C149	C	0.236701	-0.119441	0.314480
C150	C	0.005636	-0.238893	0.426118
C151	C	0.261301	-0.238884	0.426102
C152	C	0.261298	0.016807	0.170457
C153	C	-0.058720	-0.273148	0.456225
C154	C	0.291407	-0.273135	0.456204
C155	C	0.291404	0.077028	0.106102
O156	O	-0.150447	-0.326068	0.575099
O157	O	-0.179029	-0.424636	0.505101
O158	O	-0.080457	-0.326067	0.505088
O159	O	-0.249019	-0.424637	0.575111
O160	O	-0.080467	-0.246008	0.425031
O161	O	-0.179038	-0.344577	0.425044
O162	O	-0.150456	-0.246009	0.495042
Zn163	Zn	-0.164749	-0.282582	0.447332
Zn164	Zn	-0.164736	-0.388063	0.552810
O165	O	-0.249028	-0.344578	0.495054
C166	C	0.550043	0.507206	-0.372303
C167	C	0.613538	0.541003	-0.402008
C168	C	0.520807	0.535905	-0.401402
C169	C	0.462876	0.420027	-0.285136
C170	C	0.433172	0.360610	-0.221642
C171	C	0.433772	0.448858	-0.314368
C172	C	0.462875	0.507204	-0.372297
C173	C	0.433171	0.540998	-0.401996
C174	C	0.520807	0.448860	-0.314373
C175	C	0.409173	0.568301	-0.425990
C176	C	0.664837	0.568308	-0.426006
C177	C	0.409174	0.312608	-0.170345
C178	C	0.379066	0.602553	-0.456091
C179	C	0.729192	0.602563	-0.456114
C180	C	0.379069	0.252387	-0.105990
H181	H	0.126196	-0.095266	-0.030925
H182	H	0.126197	-0.253370	-0.030929
H183	H	0.544287	0.424743	-0.290902
H184	H	0.544286	-0.095263	-0.290924
H185	H	-0.133852	-0.095291	-0.290887
N186	N	0.118576	-0.087480	0.283402
H187	H	0.082157	-0.121480	0.281254
H188	H	0.145944	-0.046066	0.242207
N189	N	-0.133589	-0.268600	-0.283290
H190	H	-0.097052	-0.257811	-0.271548
H191	H	-0.133414	-0.282448	-0.310649
H192	H	0.544285	-0.417199	0.031019
N193	N	0.370758	-0.583126	0.031142
H194	H	0.368403	-0.549094	-0.005045
H195	H	0.344960	-0.597177	0.067672
N196	N	0.299748	-0.087438	-0.031140
H197	H	0.325497	-0.039156	-0.067677
H198	H	0.313774	-0.114619	-0.031319
N199	N	0.551897	-0.583143	0.031243
H200	H	0.554037	-0.583412	-0.004906
H201	H	0.529346	-0.631405	0.067810
H202	H	-0.133808	-0.095250	-0.449010
N203	N	0.118575	-0.268672	0.464564
H204	H	0.145898	-0.282565	0.478644
H205	H	0.082155	-0.307190	0.466930
H206	H	0.544279	0.582852	-0.449001
H207	H	0.386173	0.424725	-0.290891
H208	H	0.284297	-0.417188	0.290989
N209	N	-0.195951	-0.583165	0.283402
H210	H	-0.196151	-0.624577	0.310733
H211	H	-0.159799	-0.549121	0.246984
N212	N	0.118582	-0.583130	0.464551
H213	H	0.077367	-0.624534	0.478634
H214	H	0.116485	-0.549076	0.466917
N215	N	0.551910	-0.087429	-0.464478
H216	H	0.524589	-0.114564	-0.478558
H217	H	0.588327	-0.087167	-0.466835
N218	N	0.370734	-0.268606	-0.283299
H219	H	0.356652	-0.282499	-0.310620
H220	H	0.345031	-0.257766	-0.271566
H221	H	-0.195712	-0.575327	0.449122
H222	H	0.126187	-0.575289	0.290992
N223	N	-0.195936	-0.401983	0.283398
H224	H	-0.196123	-0.388092	0.310721
H225	H	-0.232478	-0.412820	0.271663
H226	H	0.284299	-0.095314	0.291008
