data_functionalizedCrystal
_audit_creation_method	'MofGen! by Chris Wilmer'
_symmetry_space_group_name_H-M	'P1'
_symmetry_Int_Tables_number	1
_symmetry_cell_setting	triclinic
loop_
_symmetry_equiv_pos_as_xyz
  x,y,z
_cell_length_a	27.731993
_cell_length_b	27.732048
_cell_length_c	14.472310
_cell_angle_alpha	89.993924
_cell_angle_beta	89.998550
_cell_angle_gamma	82.631525
loop_
_atom_site_label
_atom_site_type_symbol
_atom_site_fract_x
_atom_site_fract_y
_atom_site_fract_z
O1	O	0.640951	0.057388	-0.076602
O2	O	1.140951	0.557388	0.423398
O3	O	0.500154	0.066161	-0.076660
O4	O	1.000154	0.566161	0.423340
O5	O	0.574925	-0.008623	-0.076612
O6	O	1.074925	0.491377	0.423388
O7	O	0.566179	0.132172	-0.076650
O8	O	1.066179	0.632172	0.423350
O9	O	0.574906	-0.008619	0.077070
O10	O	1.074906	0.491381	0.577070
O11	O	0.500134	0.066166	0.077022
O12	O	1.000134	0.566166	0.577022
O13	O	0.640932	0.057393	0.077080
O14	O	1.140932	0.557393	0.577080
Cu15	Cu	0.570531	0.061779	0.091083
Cu16	Cu	1.070531	0.561779	0.591083
Cu17	Cu	0.570554	0.061774	-0.090663
Cu18	Cu	1.070554	0.561774	0.409337
O19	O	0.566160	0.132177	0.077032
O20	O	1.066160	0.632177	0.577032
C21	C	0.482137	0.065983	0.000174
C22	C	0.982137	0.565983	0.500174
C23	C	0.428480	0.065441	0.000153
C24	C	0.928480	0.565441	0.500153
C25	C	0.045331	0.061508	-0.083574
C26	C	0.545331	0.561508	0.416426
C27	C	0.246988	0.063575	-0.083599
C28	C	0.746988	0.563575	0.416401
O29	O	0.273070	0.063821	-0.154846
O30	O	0.773070	0.563821	0.345154
N31	N	0.272198	0.063836	0.000171
N32	N	0.772198	0.563836	0.500171
C33	C	0.246991	0.063577	0.083953
C34	C	0.746991	0.563577	0.583953
O35	O	0.273061	0.063842	0.155204
O36	O	0.773061	0.563842	0.655204
C37	C	0.045335	0.061507	0.083978
C38	C	0.545335	0.561507	0.583978
C39	C	0.020127	0.061251	0.000202
C40	C	0.520127	0.561251	0.500202
C41	C	0.020123	0.061251	-0.167342
C42	C	0.520123	0.561251	0.332658
C43	C	-0.030289	0.060737	-0.167335
C44	C	0.469711	0.560737	0.332665
C45	C	-0.055493	0.060480	-0.083559
C46	C	0.444507	0.560480	0.416441
C47	C	-0.030285	0.060736	0.000210
C48	C	0.469715	0.560736	0.500210
C49	C	0.020129	0.061244	0.167760
C50	C	0.520129	0.561244	0.667760
C51	C	-0.030288	0.060725	0.167758
C52	C	0.469712	0.560725	0.667758
C53	C	-0.055496	0.060469	0.083983
C54	C	0.444504	0.560469	0.583983
C55	C	-0.105900	0.059965	0.083993
C56	C	0.394100	0.559965	0.583993
N57	N	-0.131110	0.059704	0.000223
N58	N	0.368890	0.559704	0.500223
C59	C	-0.105906	0.059961	-0.083553
C60	C	0.394094	0.559961	0.416447
C61	C	0.352863	0.064665	0.083935
C62	C	0.852863	0.564665	0.583935
C63	C	0.403276	0.065184	0.083929
C64	C	0.903276	0.565184	0.583929
C65	C	0.403270	0.065181	-0.083624
C66	C	0.903270	0.565181	0.416376
C67	C	0.352855	0.064666	-0.083617
C68	C	0.852855	0.564666	0.416383
C69	C	0.327653	0.064404	0.000164
C70	C	0.827653	0.564404	0.500164
C71	C	-0.211775	0.058882	-0.083532
C72	C	0.288225	0.558882	0.416468
C73	C	-0.262191	0.058370	-0.083517
C74	C	0.237809	0.558370	0.416483
C75	C	-0.262180	0.058371	0.084035
C76	C	0.237820	0.558371	0.584035
C77	C	-0.211769	0.058885	0.084021
C78	C	0.288231	0.558885	0.584021
C79	C	-0.186567	0.059139	0.000230
C80	C	0.313433	0.559139	0.500230
O81	O	-0.132013	0.059713	0.155202
O82	O	0.367987	0.559713	0.655202
O83	O	-0.131984	0.059686	-0.154794
O84	O	0.368016	0.559686	0.345206
C85	C	0.095742	0.062022	-0.083581
C86	C	0.595742	0.562022	0.416419
C87	C	0.120950	0.062279	0.000188
C88	C	0.620950	0.562279	0.500188
C89	C	0.095746	0.062021	0.083964
C90	C	0.595746	0.562021	0.583964
C91	C	0.171364	0.062797	0.000182
C92	C	0.671364	0.562797	0.500182
C93	C	0.196568	0.063055	-0.083594
C94	C	0.696568	0.563055	0.416406
C95	C	0.171358	0.062794	-0.167364
C96	C	0.671358	0.562794	0.332636
C97	C	0.120946	0.062279	-0.167357
C98	C	0.620946	0.562279	0.332643
C99	C	0.120956	0.062282	0.167734
C100	C	0.620956	0.562282	0.667734
C101	C	0.171368	0.062797	0.167720
C102	C	0.671368	0.562797	0.667720
C103	C	0.196572	0.063054	0.083944
C104	C	0.696572	0.563054	0.583944
C105	C	0.574732	-0.026628	0.000232
C106	C	1.074732	0.473372	0.500232
C107	C	0.574179	-0.080282	0.000239
C108	C	1.074179	0.419718	0.500239
C109	C	0.614884	-0.419105	0.000208
C110	C	1.114884	0.080895	0.500208
C111	C	0.612833	-0.620765	0.000195
C112	C	1.112833	-0.120765	0.500195
O113	O	0.650055	-0.652028	0.000170
O114	O	1.150055	-0.152028	0.500170
N115	N	0.568497	-0.639880	0.000177
N116	N	1.068497	-0.139880	0.500177
C117	C	0.524670	-0.608576	0.000157
C118	C	1.024670	-0.108576	0.500157
O119	O	0.486912	-0.629462	0.000133
O120	O	0.986912	-0.129462	0.500133
C121	C	0.526721	-0.406918	0.000164
C122	C	1.026721	0.093082	0.500164
C123	C	0.571061	-0.387806	0.000191
C124	C	1.071061	0.112194	0.500191
C125	C	0.659220	-0.399993	0.000234
C126	C	1.159220	0.100007	0.500234
C127	C	0.659732	-0.349581	0.000243
C128	C	1.159732	0.150419	0.500243
C129	C	0.615909	-0.318282	0.000225
C130	C	1.115909	0.181718	0.500225
C131	C	0.571573	-0.337394	0.000200
C132	C	1.071573	0.162606	0.500200
C133	C	0.482895	-0.375616	0.000138
C134	C	0.982895	0.124384	0.500138
C135	C	0.483412	-0.325199	0.000137
C136	C	0.983412	0.174801	0.500137
C137	C	0.527751	-0.306087	0.000164
C138	C	1.027751	0.193913	0.500164
C139	C	0.528262	-0.255683	0.000191
C140	C	1.028262	0.244317	0.500191
N141	N	0.572598	-0.236568	0.000208
N142	N	1.072598	0.263432	0.500208
C143	C	0.616422	-0.267867	0.000225
C144	C	1.116422	0.232133	0.500225
C145	C	0.523596	-0.714450	0.000155
C146	C	1.023596	-0.214450	0.500155
C147	C	0.523083	-0.764865	0.000155
C148	C	1.023083	-0.264865	0.500155
C149	C	0.611246	-0.777049	0.000191
C150	C	1.111246	-0.277049	0.500191
C151	C	0.611759	-0.726634	0.000198
C152	C	1.111759	-0.226634	0.500198
C153	C	0.567932	-0.695335	0.000173
C154	C	1.067932	-0.195335	0.500173
C155	C	0.617494	-0.161998	0.000244
C156	C	1.117494	0.338002	0.500244
C157	C	0.618003	-0.111582	0.000256
C158	C	1.118003	0.388418	0.500256
C159	C	0.529839	-0.099401	0.000216
C160	C	1.029839	0.400599	0.500216
C161	C	0.529331	-0.149814	0.000208
C162	C	1.029331	0.350186	0.500208
C163	C	0.573162	-0.181112	0.000219
C164	C	1.073162	0.318888	0.500219
O165	O	0.491060	-0.224392	0.000206
O166	O	0.991060	0.275608	0.500206
O167	O	0.654174	-0.246972	0.000230
O168	O	1.154174	0.253028	0.500230
C169	C	0.614372	-0.469517	0.000200
C170	C	1.114372	0.030483	0.500200
C171	C	0.570036	-0.488630	0.000174
C172	C	1.070036	0.011370	0.500174
C173	C	0.526213	-0.457331	0.000157
C174	C	1.026213	0.042669	0.500157
C175	C	0.569523	-0.539044	0.000174
C176	C	1.069523	-0.039044	0.500174
C177	C	0.613346	-0.570343	0.000191
C178	C	1.113346	-0.070343	0.500191
C179	C	0.657683	-0.551228	0.000209
C180	C	1.157683	-0.051228	0.500209
C181	C	0.658195	-0.500817	0.000217
C182	C	1.158195	-0.000817	0.500217
C183	C	0.481876	-0.476446	0.000140
C184	C	0.981876	0.023554	0.500140
C185	C	0.481368	-0.526858	0.000132
C186	C	0.981368	-0.026858	0.500132
C187	C	0.525191	-0.558157	0.000150
C188	C	1.025191	-0.058157	0.500150
C189	C	0.658949	0.057570	0.000244
C190	C	1.158949	0.557570	0.500244
C191	C	0.712605	0.058113	0.000259
C192	C	1.212605	0.558113	0.500259
C193	C	0.566353	0.150181	0.000186
C194	C	1.066353	0.650181	0.500186
C195	C	0.566906	0.203836	0.000173
C196	C	1.066906	0.703836	0.500173
N197	N	0.570519	0.061783	0.218914
N198	N	1.070519	0.561783	0.718914
N199	N	0.570570	0.061767	-0.218494
N200	N	1.070570	0.561767	0.281506
C201	C	0.570553	0.061772	0.593005
C202	C	1.070553	0.561772	1.093005
C203	C	0.530412	0.101656	0.553814
C204	C	1.030412	0.601656	1.053814
C205	C	0.530503	0.101799	0.446726
C206	C	1.030503	0.601799	0.946726
C207	C	0.570536	0.061778	0.407414
C208	C	1.070536	0.561778	0.907414
C209	C	0.620892	0.072407	0.446269
C210	C	1.120892	0.572407	0.946269
C211	C	0.620666	0.072690	0.553390
C212	C	1.120666	0.572690	1.053390
C213	C	0.560789	0.011139	0.553544
C214	C	1.060789	0.511139	1.053544
C215	C	0.559630	0.011486	0.446416
C216	C	1.059630	0.511486	0.946416
C217	C	0.570529	0.061780	0.302526
C218	C	1.070529	0.561780	0.802526
C219	C	0.570563	0.061771	0.697894
C220	C	1.070563	0.561771	1.197894
H221	H	0.332334	0.064457	-0.151835
H222	H	0.832334	0.564457	0.348165
H223	H	0.590066	-0.018537	0.578889
H224	H	1.090066	0.481463	1.078889
Cl225	Cl	-0.293875	0.058048	0.189348
Cl226	Cl	0.206125	0.558048	0.689348
Cl227	Cl	0.668089	0.028726	0.406960
Cl228	Cl	1.168089	0.528726	0.906960
H229	H	0.524887	0.000821	0.580600
H230	H	1.024887	0.500821	1.080600
Cl231	Cl	0.714320	-0.439332	0.000257
Cl232	Cl	1.214320	0.060668	0.500257
Cl233	Cl	0.051798	0.061575	-0.272676
Cl234	Cl	0.551798	0.561575	0.227324
Cl235	Cl	0.203051	0.063122	0.273049
Cl236	Cl	0.703051	0.563122	0.773049
H237	H	-0.050806	0.060517	0.235985
H238	H	0.449194	0.560517	0.735985
H239	H	-0.191245	0.059103	0.152238
H240	H	0.308755	0.559103	0.652238
Cl241	Cl	0.666338	-0.816406	0.000208
Cl242	Cl	1.166338	-0.316406	0.500208
Cl243	Cl	0.667501	-0.702613	0.000230
Cl244	Cl	1.167501	-0.202613	0.500230
H245	H	-0.050809	0.060526	-0.235554
H246	H	0.449191	0.560526	0.264446
H247	H	0.493060	0.095523	0.420456
H248	H	0.993060	0.595523	0.920456
H249	H	0.492847	0.095488	0.579588
H250	H	0.992847	0.595488	1.079588
Cl251	Cl	0.540050	0.159829	0.407131
Cl252	Cl	1.040050	0.659829	0.907131
Cl253	Cl	0.426778	-0.437105	0.000116
Cl254	Cl	0.926778	0.062895	0.500116
Cl255	Cl	0.467340	-0.788885	0.000140
Cl256	Cl	0.967340	-0.288885	0.500140
H257	H	0.423800	0.065392	-0.151838
H258	H	0.923800	0.565392	0.348162
Cl259	Cl	0.427151	-0.399630	0.000098
Cl260	Cl	0.927151	0.100370	0.500098
H261	H	0.536521	0.139027	0.580716
H262	H	1.036521	0.639027	1.080716
Cl263	Cl	0.051807	0.061566	0.273085
Cl264	Cl	0.551807	0.561566	0.773085
H265	H	0.445259	-0.542414	0.000119
H266	H	0.945259	-0.042414	0.500119
H267	H	0.100426	0.062071	-0.235576
H268	H	0.600426	0.562071	0.264424
Cl269	Cl	0.713939	-0.476798	0.000243
Cl270	Cl	1.213939	0.023202	0.500243
Cl271	Cl	0.634039	0.129684	0.591946
Cl272	Cl	1.134039	0.629684	1.091946
H273	H	0.629771	0.108899	0.419426
H274	H	1.129771	0.608899	0.919426
Cl275	Cl	0.502441	-0.000985	0.407209
Cl276	Cl	1.002441	0.499015	0.907209
Cl277	Cl	0.668095	0.029469	0.593422
Cl278	Cl	1.168095	0.529469	1.093422
H279	H	-0.282713	0.058163	-0.151740
H280	H	0.217287	0.558163	0.348260
Cl281	Cl	-0.180100	0.059203	-0.188870
Cl282	Cl	0.319900	0.559203	0.311130
H283	H	0.423795	0.065400	0.152147
H284	H	0.923795	0.565400	0.652147
Cl285	Cl	0.321186	0.064344	0.189272
Cl286	Cl	0.821186	0.564344	0.689272
Cl287	Cl	0.428312	-0.285854	0.000105
Cl288	Cl	0.928312	0.214146	0.500105
H289	H	0.191887	0.063006	-0.235578
H290	H	0.691887	0.563006	0.264422
Cl291	Cl	0.089278	0.061964	0.273064
Cl292	Cl	0.589278	0.561964	0.773064
Cl293	Cl	0.468494	-0.675110	0.000125
Cl294	Cl	0.968494	-0.175110	0.500125
Cl295	Cl	0.601887	-0.036439	0.405122
Cl296	Cl	1.101887	0.463561	0.905122
H297	H	0.654110	-0.096024	0.000280
H298	H	1.154110	0.403976	0.500280
Cl299	Cl	0.715476	-0.325562	0.000250
Cl300	Cl	1.215476	0.174438	0.500250
Cl301	Cl	0.672597	-0.201337	0.000259
Cl302	Cl	1.172597	0.298663	0.500259
H303	H	0.494160	-0.073909	0.000205
H304	H	0.994160	0.426091	0.500205
Cl305	Cl	0.473589	-0.173841	0.000192
Cl306	Cl	0.973589	0.326159	0.500192
Cl307	Cl	0.712774	-0.590586	0.000234
Cl308	Cl	1.212774	-0.090586	0.500234
