data_functionalizedCrystal
_audit_creation_method	'MofGen! by Chris Wilmer'
_symmetry_space_group_name_H-M	'P1'
_symmetry_Int_Tables_number	1
_symmetry_cell_setting	triclinic
loop_
_symmetry_equiv_pos_as_xyz
  x,y,z
_cell_length_a	12.837943
_cell_length_b	11.792241
_cell_length_c	11.892095
_cell_angle_alpha	93.915739
_cell_angle_beta	85.689438
_cell_angle_gamma	89.511178
loop_
_atom_site_label
_atom_site_type_symbol
_atom_site_fract_x
_atom_site_fract_y
_atom_site_fract_z
O1	O	1.383703	0.288690	-0.093984
O2	O	1.081816	0.274106	-0.093991
O3	O	1.240085	0.116971	-0.093980
O4	O	1.225434	0.445825	-0.093996
O5	O	1.226889	0.130050	0.094027
O6	O	1.068620	0.287185	0.094016
O7	O	1.370507	0.301770	0.094022
Zn8	Zn	1.217468	0.296554	0.123869
Zn9	Zn	1.234855	0.279322	-0.123838
O10	O	1.212238	0.458904	0.094011
C11	C	1.036570	0.275719	0.000012
C12	C	0.921410	0.261025	0.000009
C13	C	0.681444	0.437671	0.000017
C14	C	0.573241	0.423870	0.000015
C15	C	0.596797	0.219624	0.000013
C16	C	0.705001	0.233425	0.000015
C17	C	0.747320	0.342452	0.000015
C18	C	0.855526	0.356251	0.000008
C19	C	0.879080	0.152006	0.000014
C20	C	0.770877	0.138205	0.000013
C21	C	1.232566	0.081126	0.000023
C22	C	1.229812	-0.045167	0.000022
C23	C	1.224748	-0.276394	0.000003
C24	C	1.227561	-0.147723	0.000014
C25	C	1.415753	0.300157	0.000017
C26	C	1.530913	0.314850	0.000012
C27	C	1.219756	0.494749	0.000005
C28	C	1.222512	0.621042	-0.000001
N29	N	1.205610	0.308315	0.292922
N30	N	1.246721	0.267553	-0.292891
C31	C	1.329237	0.185651	0.529579
C32	C	1.320956	0.193880	0.647920
C33	C	1.180761	0.332997	0.647948
C34	C	1.189043	0.324768	0.529607
C35	C	1.263284	0.251093	0.470427
C36	C	1.271570	0.242870	0.352083
C37	C	1.131371	0.381980	0.352113
C38	C	1.123090	0.390210	0.470454
H39	H	0.932729	0.074471	0.000005
H40	H	1.332023	0.182884	0.303899
H41	H	1.062641	0.450192	0.518653
C42	C	1.410899	0.104619	0.464477
H43	H	1.448992	0.066818	0.516657
H44	H	1.457532	0.146957	0.418299
H45	H	1.376547	0.050070	0.418325
C46	C	1.099040	0.413956	0.713054
H47	H	1.060920	0.451729	0.660878
H48	H	1.133321	0.468516	0.759253
H49	H	1.052428	0.371537	0.759187
C50	C	0.902076	0.476174	0.000011
H51	H	0.847341	0.530906	0.000023
H52	H	0.948398	0.481252	-0.065550
H53	H	0.939194	0.490357	0.065583
C54	C	0.728000	0.557591	0.000007
H55	H	0.673268	0.612326	0.000010
H56	H	0.774323	0.562655	-0.065555
H57	H	0.765117	0.571783	0.065577
C58	C	0.500781	0.528611	0.000008
H59	H	0.541487	0.595515	-0.000001
H60	H	0.453476	0.532034	0.065566
H61	H	0.462688	0.522911	-0.065566
H62	H	0.562315	0.130865	0.000107
H63	H	0.736404	0.049439	0.000026
C64	C	1.393502	0.121897	0.712990
H65	H	1.377933	0.137341	0.791946
H66	H	1.464153	0.140403	0.693580
H67	H	1.383158	0.043525	0.693599
C68	C	1.058831	0.453984	0.287043
H69	H	1.074395	0.438534	0.208087
H70	H	1.069176	0.532347	0.306445
H71	H	0.988172	0.435479	0.306443
