data_functionalizedCrystal
_audit_creation_method	'MofGen! by Chris Wilmer'
_symmetry_space_group_name_H-M	'P1'
_symmetry_Int_Tables_number	1
_symmetry_cell_setting	triclinic
loop_
_symmetry_equiv_pos_as_xyz
  x,y,z
_cell_length_a	15.944499
_cell_length_b	15.944493
_cell_length_c	7.681481
_cell_angle_alpha	84.264607
_cell_angle_beta	95.720167
_cell_angle_gamma	83.476327
loop_
_atom_site_label
_atom_site_type_symbol
_atom_site_fract_x
_atom_site_fract_y
_atom_site_fract_z
O1	O	1.106581	0.116086	-0.146509
O2	O	0.862024	0.129487	-0.146487
O3	O	0.991005	0.000508	-0.146513
O4	O	0.977599	0.245065	-0.146483
O5	O	1.006881	-0.015403	0.146341
O6	O	0.877899	0.113576	0.146368
O7	O	1.122456	0.100175	0.146345
Zn8	Zn	1.002698	0.104349	0.192853
Zn9	Zn	0.981782	0.125313	-0.192995
O10	O	0.993475	0.229154	0.146372
C11	C	0.838667	0.120983	-0.000057
C12	C	0.745420	0.119337	-0.000050
C13	C	0.998395	-0.038742	-0.000094
C14	C	0.996750	-0.131989	-0.000116
C15	C	0.453867	0.194272	-0.000067
C16	C	0.507076	0.163165	-0.144467
C17	C	0.409782	0.113363	-0.000091
C18	C	0.522714	0.147456	0.144264
C19	C	0.574691	0.116303	-0.000068
C20	C	0.461757	0.082240	-0.144611
C21	C	0.477395	0.066535	0.144250
C22	C	0.530585	0.035371	-0.000186
C23	C	0.314781	0.111672	-0.000106
C24	C	0.669690	0.117988	-0.000066
C25	C	1.072674	-0.367764	-0.000090
C26	C	1.023905	-0.410480	-0.144477
C27	C	0.993708	-0.302711	-0.000094
C28	C	1.039539	-0.426143	0.144254
C29	C	0.990775	-0.467621	-0.000065
C30	C	0.944953	-0.344192	-0.144601
C31	C	0.960605	-0.359858	0.144260
C32	C	0.911776	-0.402539	-0.000163
C33	C	0.995399	-0.207710	-0.000112
C34	C	0.989076	-0.562618	-0.000060
C35	C	1.145813	0.108680	-0.000089
C36	C	1.239060	0.110326	-0.000107
C37	C	0.986085	0.268404	-0.000052
C38	C	0.987729	0.361652	-0.000041
N39	N	1.016980	0.090042	0.456185
N40	N	0.967507	0.139614	-0.456326
H41	H	0.420516	0.261427	-0.000198
H42	H	0.917006	0.190212	0.468487
C43	C	1.144201	-0.423477	-0.309022
C44	C	1.059988	-0.440620	-0.309271
H45	H	1.166480	-0.442088	-0.410749
H46	H	1.145997	-0.364107	-0.309677
H47	H	1.177241	-0.452621	-0.206479
H48	H	1.026946	-0.411471	-0.411807
H49	H	1.058186	-0.500001	-0.308632
C50	C	1.069210	-0.058478	0.513240
C51	C	1.085163	0.021731	0.557679
H52	H	1.111306	-0.100647	0.575893
H53	H	1.014763	-0.069162	0.543402
H54	H	1.070756	-0.060023	0.390285
H55	H	1.083610	0.023279	0.680633
H56	H	1.139624	0.032419	0.527530
H57	H	0.520550	0.204022	-0.266531
C58	C	0.519596	0.267920	0.308784
C59	C	0.558738	0.184712	0.309070
H60	H	0.541830	0.290920	0.410529
H61	H	0.530326	0.301677	0.206268
H62	H	0.460086	0.267588	0.309391
H63	H	0.618248	0.185044	0.308450
H64	H	0.548015	0.150946	0.411613
H65	H	0.435160	0.054690	-0.266828
H66	H	0.563772	-0.031832	-0.000271
H67	H	0.904999	-0.308726	-0.266800
H68	H	0.463903	0.025709	0.266325
C69	C	1.165157	-0.258983	0.001302
C70	C	1.164478	-0.346645	-0.000257
H71	H	1.221830	-0.245941	0.001211
H72	H	1.131341	-0.229802	-0.100235
H73	H	1.142771	-0.241758	0.104007
H74	H	1.186859	-0.363869	-0.102969
H75	H	1.198307	-0.375836	0.101290
H76	H	0.843700	-0.417989	-0.000236
H77	H	0.933903	-0.337524	0.266342
H78	H	1.079521	-0.461712	0.266315
