data_functionalizedCrystal
_audit_creation_method	'MofGen! by Chris Wilmer'
_symmetry_space_group_name_H-M	'P1'
_symmetry_Int_Tables_number	1
_symmetry_cell_setting	triclinic
loop_
_symmetry_equiv_pos_as_xyz
  x,y,z
_cell_length_a	21.395361
_cell_length_b	21.395364
_cell_length_c	21.395355
_cell_angle_alpha	89.974400
_cell_angle_beta	90.021511
_cell_angle_gamma	89.971791
loop_
_atom_site_label
_atom_site_type_symbol
_atom_site_fract_x
_atom_site_fract_y
_atom_site_fract_z
Zn1	Zn	-0.249553	-0.957859	0.354266
Zn2	Zn	0.083780	-0.624526	0.687599
Zn3	Zn	0.417114	-0.291192	1.020933
Zn4	Zn	-0.354313	-0.957762	0.249483
Zn5	Zn	-0.020979	-0.624428	0.582816
Zn6	Zn	0.312354	-0.291095	0.916150
Zn7	Zn	-0.249548	-0.853074	0.249501
Zn8	Zn	0.083785	-0.519741	0.582834
Zn9	Zn	0.417118	-0.186407	0.916167
Zn10	Zn	-0.354292	-0.853043	0.354221
Zn11	Zn	-0.020959	-0.519710	0.687555
Zn12	Zn	0.312375	-0.186377	1.020888
O13	O	-0.301926	-0.905434	0.301868
O14	O	0.031407	-0.572101	0.635201
O15	O	0.364740	-0.238768	0.968534
O16	O	-0.263460	-1.045524	0.340377
O17	O	0.069873	-0.712191	0.673711
O18	O	0.403207	-0.378857	1.007044
O19	O	-0.340422	-0.943847	0.161807
O20	O	-0.007089	-0.610513	0.495141
O21	O	0.326244	-0.277180	0.828474
O22	O	-0.161871	-0.867028	0.263424
O23	O	0.171462	-0.533694	0.596757
O24	O	0.504796	-0.200361	0.930091
O25	O	-0.340427	-1.045452	0.263394
O26	O	-0.007093	-0.712119	0.596727
O27	O	0.326240	-0.378786	0.930061
O28	O	-0.161874	-0.944013	0.340395
O29	O	0.171459	-0.610679	0.673728
O30	O	0.504792	-0.277346	1.007061
O31	O	-0.263452	-0.866933	0.161820
O32	O	0.069881	-0.533600	0.495154
O33	O	0.403214	-0.200266	0.828487
O34	O	-0.263432	-0.765392	0.263381
O35	O	0.069901	-0.432059	0.596714
O36	O	0.403234	-0.098725	0.930047
O37	O	-0.340391	-0.866975	0.441905
O38	O	-0.007058	-0.533642	0.775238
O39	O	0.326275	-0.200308	1.108572
O40	O	-0.340387	-0.765369	0.340319
O41	O	-0.007054	-0.432036	0.673652
O42	O	0.326280	-0.098703	1.006985
O43	O	-0.263440	-0.943983	0.441938
O44	O	0.069893	-0.610650	0.775271
O45	O	0.403227	-0.277316	1.108605
O46	O	-0.441988	-0.943817	0.263351
O47	O	-0.108655	-0.610483	0.596684
O48	O	0.224679	-0.277150	0.930017
O49	O	-0.441973	-0.866881	0.340301
O50	O	-0.108639	-0.533547	0.673635
O51	O	0.224694	-0.200214	1.006968
C52	C	-0.301907	-0.742647	0.301847
C53	C	0.031426	-0.409313	0.635180
C54	C	0.364759	-0.075980	0.968514
C55	C	-0.301914	-0.673006	0.301853
C56	C	0.031419	-0.339672	0.635186
C57	C	0.364752	-0.006339	0.968520
C58	C	-0.342060	-0.171214	0.341879
C59	C	-0.008726	0.162119	0.675213
C60	C	0.324607	0.495453	1.008546
C61	C	-0.342061	-0.236649	0.341874
C62	C	-0.008727	0.096684	0.675207
C63	C	0.324606	0.430017	1.008540
C64	C	-0.301931	-0.269367	0.301878
C65	C	0.031402	0.063966	0.635211
C66	C	0.364736	0.397299	0.968544
C67	C	-0.261809	-0.236644	0.261873
C68	C	0.071525	0.096689	0.595207
C69	C	0.404858	0.430022	0.928540
C70	C	-0.261813	-0.171210	0.261876
C71	C	0.071520	0.162123	0.595209
C72	C	0.404854	0.495457	0.928542
C73	C	-0.245467	-0.373056	0.297031
C74	C	0.087866	-0.039723	0.630364
C75	C	0.421199	0.293611	0.963698
C76	C	-0.245462	-0.438489	0.297033
C77	C	0.087872	-0.105156	0.630367
C78	C	0.421205	0.228178	0.963700
C79	C	-0.301917	-0.471188	0.301867
C80	C	0.031416	-0.137855	0.635201
C81	C	0.364749	0.195479	0.968534
C82	C	-0.358380	-0.438446	0.306712
C83	C	-0.025047	-0.105113	0.640045
C84	C	0.308286	0.228221	0.973379
C85	C	-0.358385	-0.373012	0.306714
C86	C	-0.025052	-0.039678	0.640048
C87	C	0.308282	0.293655	0.973381
C88	C	-0.301922	-0.340320	0.301871
C89	C	0.031411	-0.006986	0.635204
C90	C	0.364745	0.326347	0.968537
C91	C	-0.342041	-0.574856	0.341860
C92	C	-0.008708	-0.241522	0.675193
C93	C	0.324625	0.091811	1.008527
C94	C	-0.342044	-0.640292	0.341850
C95	C	-0.008710	-0.306959	0.675183
C96	C	0.324623	0.026374	1.008517
C97	C	-0.261786	-0.640286	0.261853
C98	C	0.071547	-0.306953	0.595186
C99	C	0.404881	0.026381	0.928520
C100	C	-0.261790	-0.574850	0.261860
C101	C	0.071544	-0.241517	0.595193
C102	C	0.404877	0.091816	0.928526
C103	C	-0.301916	-0.542139	0.301867
C104	C	0.031417	-0.208806	0.635200
C105	C	0.364750	0.124527	0.968533
C106	C	-0.464714	-0.905352	0.301833
C107	C	-0.131381	-0.572018	0.635166
C108	C	0.201953	-0.238685	0.968499
C109	C	-0.534355	-0.905374	0.301839
C110	C	-0.201022	-0.572040	0.635172
C111	C	0.132311	-0.238707	0.968505
C112	C	-0.567056	-0.945470	0.261812
C113	C	-0.233722	-0.612136	0.595145
C114	C	0.099611	-0.278803	0.928478
C115	C	-0.632491	-0.945499	0.261826
C116	C	-0.299158	-0.612166	0.595159
C117	C	0.034176	-0.278832	0.928492
C118	C	-0.665224	-0.905421	0.301860
C119	C	-0.331890	-0.572087	0.635194
C120	C	0.001443	-0.238754	0.968527
C121	C	-0.632516	-0.865322	0.341895
C122	C	-0.299182	-0.531988	0.675229
C123	C	0.034151	-0.198655	1.008562
C124	C	-0.567081	-0.865298	0.341885
C125	C	-0.233748	-0.531965	0.675218
C126	C	0.099585	-0.198632	1.008551
C127	C	-0.768936	-0.849006	0.306769
C128	C	-0.435603	-0.515673	0.640103
C129	C	-0.102270	-0.182339	0.973436
C130	C	-0.834369	-0.849029	0.306776
C131	C	-0.501036	-0.515695	0.640109
C132	C	-0.167703	-0.182362	0.973442
C133	C	-0.867044	-0.905494	0.301897
C134	C	-0.533711	-0.572160	0.635230
C135	C	-0.200378	-0.238827	0.968564
C136	C	-0.834278	-0.961938	0.296999
C137	C	-0.500945	-0.628605	0.630332
C138	C	-0.167612	-0.295271	0.963666
C139	C	-0.768844	-0.961915	0.296988
C140	C	-0.435511	-0.628581	0.630322
C141	C	-0.102178	-0.295248	0.963655
C142	C	-0.736176	-0.905442	0.301877
C143	C	-0.402843	-0.572109	0.635210
C144	C	-0.069509	-0.238775	0.968543
C145	C	-0.970697	-0.945625	0.261883
C146	C	-0.637364	-0.612291	0.595216
C147	C	-0.304031	-0.278958	0.928550
C148	C	-1.036134	-0.945655	0.261901
C149	C	-0.702800	-0.612322	0.595235
C150	C	-0.369467	-0.278988	0.928568
C151	C	-1.036157	-0.865472	0.341968
C152	C	-0.702824	-0.532139	0.675301
C153	C	-0.369490	-0.198806	1.008634
C154	C	-0.970722	-0.865448	0.341953
C155	C	-0.637388	-0.532114	0.675286
C156	C	-0.304055	-0.198781	1.008619
C157	C	-0.937996	-0.905523	0.301907
C158	C	-0.604662	-0.572190	0.635240
C159	C	-0.271329	-0.238856	0.968573
C160	C	-0.138503	-0.905535	0.301916
C161	C	0.194830	-0.572201	0.635250
C162	C	0.528163	-0.238868	0.968583
C163	C	-0.068862	-0.905577	0.301937
C164	C	0.264471	-0.572244	0.635270
C165	C	0.597805	-0.238911	0.968604
C166	C	-0.301914	-0.905486	0.465291
C167	C	0.031420	-0.572153	0.798624
C168	C	0.364753	-0.238820	1.131958
C169	C	-0.301908	-0.905509	0.534932
C170	C	0.031425	-0.572175	0.868266
C171	C	0.364758	-0.238842	1.201599
C172	C	-0.301942	-0.068858	0.301885
C173	C	0.031391	0.264476	0.635218
C174	C	0.364724	0.597809	0.968552
C175	C	-0.301940	-0.138499	0.301882
C176	C	0.031393	0.194834	0.635216
C177	C	0.364727	0.528168	0.968549
C178	C	-0.301894	-0.905419	0.139080
C179	C	0.031439	-0.572085	0.472413
C180	C	0.364773	-0.238752	0.805747
C181	C	-0.301723	-0.905518	0.069439
C182	C	0.031611	-0.572185	0.402773
C183	C	0.364944	-0.238851	0.736106
C184	C	-0.261838	-0.945605	0.567664
C185	C	0.071495	-0.612271	0.900997
C186	C	0.404829	-0.278938	1.234330
C187	C	-0.261811	-0.945604	0.633099
C188	C	0.071522	-0.612271	0.966432
C189	C	0.404855	-0.278937	1.299766
C190	C	-0.301866	-0.905513	0.665801
C191	C	0.031468	-0.572180	0.999134
C192	C	0.364801	-0.238847	1.332467
C193	C	-0.341939	-0.865409	0.633062
C194	C	-0.008605	-0.532076	0.966395
C195	C	0.324728	-0.198743	1.299728
C196	C	-0.341960	-0.865407	0.567627
C197	C	-0.008627	-0.532074	0.900961
C198	C	0.324707	-0.198740	1.234294
C199	C	-0.358281	-0.900538	0.769463
C200	C	-0.024947	-0.567204	1.102797
C201	C	0.308386	-0.233871	1.436130
C202	C	-0.358261	-0.900544	0.834896
C203	C	-0.024927	-0.567211	1.168230
C204	C	0.308406	-0.233878	1.501563
C205	C	-0.301800	-0.905517	0.867622
C206	C	0.031534	-0.572184	1.200955
C207	C	0.364867	-0.238851	1.534288
C208	C	-0.245357	-0.910497	0.834906
C209	C	0.087976	-0.577163	1.168239
C210	C	0.421310	-0.243830	1.501573
C211	C	-0.245378	-0.910494	0.769472
C212	C	0.087955	-0.577161	1.102805
C213	C	0.421288	-0.243828	1.436138
C214	C	-0.301847	-0.905511	0.736753
C215	C	0.031487	-0.572178	1.070086
C216	C	0.364820	-0.238845	1.403420
C217	C	-0.261697	-0.945615	0.971305
C218	C	0.071637	-0.612281	1.304639
C219	C	0.404970	-0.278948	1.637972
C220	C	-0.261669	-0.945610	1.036742
C221	C	0.071665	-0.612276	1.370075
C222	C	0.404998	-0.278943	1.703409
C223	C	-0.341802	-0.865418	1.036703
C224	C	-0.008469	-0.532085	1.370037
C225	C	0.324865	-0.198752	1.703370
C226	C	-0.341824	-0.865420	0.971268
C227	C	-0.008491	-0.532087	1.304601
C228	C	0.324842	-0.198754	1.637935
C229	C	-0.301773	-0.905522	0.938573
C230	C	0.031561	-0.572189	1.271906
C231	C	0.364894	-0.238855	1.605240
H232	H	-0.374736	-0.144585	0.374454
H233	H	-0.041403	0.188749	0.707787
H234	H	0.291931	0.522082	1.041120
H235	H	-0.199381	-0.914547	0.861549
H236	H	0.133952	-0.581214	1.194883
H237	H	0.467286	-0.247881	1.528216
N238	N	-0.667778	-0.988741	0.218651
N239	N	-0.334444	-0.655408	0.551985
N240	N	-0.001111	-0.322074	0.885318
H241	H	-0.656352	-1.033502	0.228414
H242	H	-0.323019	-0.700169	0.561748
H243	H	0.010314	-0.366836	0.895081
H244	H	-0.656411	-0.978969	0.173891
H245	H	-0.323078	-0.645636	0.507224
H246	H	0.010255	-0.312303	0.840558
H247	H	-0.404359	-0.346356	0.310658
H248	H	-0.071026	-0.013023	0.643991
H249	H	0.262308	0.320311	0.977325
H250	H	-0.374409	-0.832770	1.063328
H251	H	-0.041075	-0.499436	1.396662
H252	H	0.292258	-0.166103	1.729995
H253	H	-0.374716	-0.548221	0.374435
H254	H	-0.041383	-0.214887	0.707769
H255	H	0.291951	0.118446	1.041102
N256	N	-0.869510	-1.022846	0.291738
N257	N	-0.536177	-0.689512	0.625071
N258	N	-0.202844	-0.356179	0.958404
H259	H	-0.858129	-1.044179	0.251205
H260	H	-0.524796	-0.710845	0.584538
H261	H	-0.191462	-0.377512	0.917871
H262	H	-0.915923	-1.014248	0.292518
H263	H	-0.582589	-0.680914	0.625851
H264	H	-0.249256	-0.347581	0.959184
H265	H	-0.742168	-1.007873	0.293002
H266	H	-0.408835	-0.674540	0.626335
H267	H	-0.075501	-0.341206	0.959669
N268	N	-0.935394	-0.988847	0.218695
N269	N	-0.602061	-0.655514	0.552028
N270	N	-0.268727	-0.322181	0.885362
H271	H	-0.966041	-1.014257	0.193342
H272	H	-0.632708	-0.680924	0.526676
H273	H	-0.299375	-0.347590	0.860009
H274	H	-0.908203	-1.017819	0.244220
H275	H	-0.574870	-0.684485	0.577554
H276	H	-0.241536	-0.351152	0.910887
H277	H	-0.374549	-0.832766	0.659691
H278	H	-0.041216	-0.499432	0.993025
H279	H	0.292117	-0.166099	1.326358
H280	H	-0.742339	-0.803022	0.310744
H281	H	-0.409005	-0.469688	0.644078
H282	H	-0.075672	-0.136355	0.977411
H283	H	-1.062807	-0.832843	0.374568
H284	H	-0.729474	-0.499509	0.707901
H285	H	-0.396141	-0.166176	1.041234
H286	H	-1.062757	-0.978310	0.229308
H287	H	-0.729424	-0.644977	0.562641
H288	H	-0.396091	-0.311643	0.895974
H289	H	-0.659171	-0.832691	0.374493
H290	H	-0.325837	-0.499358	0.707826
H291	H	0.007496	-0.166024	1.041160
H292	H	-0.229081	-0.978264	0.944684
H293	H	0.104253	-0.644931	1.278017
H294	H	0.437586	-0.311598	1.611350
N295	N	-0.935447	-0.822196	0.385121
N296	N	-0.602114	-0.488863	0.718454
N297	N	-0.268780	-0.155530	1.051787
H298	H	-0.966110	-0.796810	0.410484
H299	H	-0.632777	-0.463476	0.743818
H300	H	-0.299444	-0.130143	1.077151
H301	H	-0.908338	-0.793205	0.359582
H302	H	-0.575004	-0.459871	0.692915
H303	H	-0.241671	-0.126538	1.026249
N304	N	-0.869700	-0.788149	0.312052
N305	N	-0.536367	-0.454816	0.645385
N306	N	-0.203034	-0.121482	0.978719
H307	H	-0.858310	-0.766808	0.352581
H308	H	-0.524977	-0.433475	0.685914
H309	H	-0.191644	-0.100142	1.019248
H310	H	-0.916100	-0.796775	0.311286
H311	H	-0.582766	-0.463442	0.644619
H312	H	-0.249433	-0.130109	0.977952
H313	H	-0.404352	-0.465068	0.310653
H314	H	-0.071018	-0.131735	0.643986
H315	H	0.262315	0.201599	0.977320
N316	N	-0.531807	-0.822049	0.385057
N317	N	-0.198474	-0.488716	0.718391
N318	N	0.134860	-0.155382	1.051724
H319	H	-0.562470	-0.796664	0.410424
H320	H	-0.229136	-0.463331	0.743757
H321	H	0.104197	-0.129997	1.077090
H322	H	-0.504699	-0.793056	0.359519
H323	H	-0.171366	-0.459723	0.692852
H324	H	0.161967	-0.126389	1.026186
H325	H	-0.374458	-0.832773	0.944618
H326	H	-0.041124	-0.499440	1.277951
H327	H	0.292209	-0.166107	1.611285
H328	H	-0.229224	-0.978258	0.541047
H329	H	0.104109	-0.644925	0.874381
H330	H	0.437443	-0.311591	1.207714
N331	N	-0.419135	-0.895173	0.870178
N332	N	-0.085802	-0.561840	1.203511
N333	N	0.247532	-0.228506	1.536844
H334	H	-0.410556	-0.895934	0.916595
H335	H	-0.077222	-0.562600	1.249928
H336	H	0.256111	-0.229267	1.583262
H337	H	-0.447157	-0.931386	0.858751
H338	H	-0.113823	-0.598052	1.192084
H339	H	0.219510	-0.264719	1.525417
H340	H	-0.229178	-0.978254	0.659754
H341	H	0.104156	-0.644920	0.993087
H342	H	0.437489	-0.311587	1.326421
H343	H	-0.199492	-0.346438	0.293084
H344	H	0.133842	-0.013105	0.626418
H345	H	0.467175	0.320229	0.959751
N346	N	-0.385323	-0.675581	0.384986
N347	N	-0.051990	-0.342248	0.718319
N348	N	0.281344	-0.008915	1.051653
H349	H	-0.410742	-0.644927	0.410329
H350	H	-0.077408	-0.311594	0.743662
H351	H	0.255925	0.021739	1.076995
H352	H	-0.359859	-0.702759	0.414024
H353	H	-0.026526	-0.369426	0.747357
H354	H	0.306808	-0.036092	1.080690
H355	H	-0.199421	-0.914547	0.742837
H356	H	0.133912	-0.581214	1.076171
H357	H	0.467246	-0.247880	1.409504
H358	H	-0.229035	-0.978260	1.063391
H359	H	0.104298	-0.644926	1.396724
H360	H	0.437632	-0.311593	1.730057
N361	N	-0.419183	-0.895182	0.734169
N362	N	-0.085849	-0.561849	1.067503
N363	N	0.247484	-0.228515	1.400836
H364	H	-0.454934	-0.892038	0.764822
H365	H	-0.121601	-0.558704	1.098155
H366	H	0.211732	-0.225371	1.431488
H367	H	-0.425005	-0.933357	0.707040
H368	H	-0.091672	-0.600024	1.040374
H369	H	0.241662	-0.266691	1.373707
N370	N	-0.218537	-0.135920	0.218737
N371	N	0.114796	0.197414	0.552070
N372	N	0.448129	0.530747	0.885404
H373	H	-0.243962	-0.108746	0.189659
H374	H	0.089371	0.224587	0.522992
H375	H	0.422705	0.557920	0.856325
H376	H	-0.193125	-0.166613	0.193438
H377	H	0.140208	0.166721	0.526771
H378	H	0.473542	0.500054	0.860105
N379	N	-0.385172	-0.822150	0.532320
N380	N	-0.051838	-0.488817	0.865653
N381	N	0.281495	-0.155483	1.198986
H382	H	-0.410539	-0.796747	0.562962
H383	H	-0.077206	-0.463414	0.896296
H384	H	0.256128	-0.130080	1.229629
H385	H	-0.414183	-0.847627	0.505177
H386	H	-0.080850	-0.514294	0.838510
H387	H	0.252483	-0.180961	1.171843
H388	H	-0.229118	-0.548214	0.229292
H389	H	0.104216	-0.214880	0.562625
H390	H	0.437549	0.118453	0.895959
N391	N	-0.385335	-0.271944	0.385015
N392	N	-0.052002	0.061390	0.718348
N393	N	0.281331	0.394723	1.051681
H394	H	-0.375666	-0.260584	0.429799
H395	H	-0.042332	0.072749	0.763132
H396	H	0.291001	0.406083	1.096466
H397	H	-0.379222	-0.318348	0.378888
H398	H	-0.045889	0.014985	0.712221
H399	H	0.287445	0.348319	1.045554
N400	N	-0.218507	-0.675565	0.218708
N401	N	0.114826	-0.342231	0.552042
N402	N	0.448160	-0.008898	0.885375
H403	H	-0.224593	-0.721982	0.224774
H404	H	0.108741	-0.388648	0.558107
H405	H	0.442074	-0.055315	0.891441
H406	H	-0.173773	-0.664152	0.228540
H407	H	0.159560	-0.330819	0.561873
H408	H	0.492893	0.002514	0.895207
N409	N	-0.184566	-0.473801	0.291811
N410	N	0.148767	-0.140468	0.625144
N411	N	0.482101	0.192865	0.958478
H412	H	-0.148803	-0.443159	0.288741
H413	H	0.184530	-0.109826	0.622074
H414	H	0.517864	0.223508	0.955408
H415	H	-0.185415	-0.500932	0.253204
H416	H	0.147919	-0.167599	0.586537
H417	H	0.481252	0.165734	0.919871
N418	N	-0.218528	-0.271928	0.218732
N419	N	0.114805	0.061405	0.552065
N420	N	0.448139	0.394739	0.885398
H421	H	-0.224611	-0.318345	0.224800
H422	H	0.108722	0.014988	0.558134
H423	H	0.442056	0.348322	0.891467
H424	H	-0.173795	-0.260513	0.228563
H425	H	0.159538	0.072820	0.561896
H426	H	0.492872	0.406154	0.895230
H427	H	-0.540412	-0.978103	0.229206
H428	H	-0.207079	-0.644770	0.562539
H429	H	0.126255	-0.311436	0.895872
