data_functionalizedCrystal
_audit_creation_method	'MofGen! by Chris Wilmer'
_symmetry_space_group_name_H-M	'P1'
_symmetry_Int_Tables_number	1
_symmetry_cell_setting	triclinic
loop_
_symmetry_equiv_pos_as_xyz
  x,y,z
_cell_length_a	16.120490
_cell_length_b	16.120484
_cell_length_c	12.827885
_cell_angle_alpha	87.136072
_cell_angle_beta	92.917123
_cell_angle_gamma	90.164100
loop_
_atom_site_label
_atom_site_type_symbol
_atom_site_fract_x
_atom_site_fract_y
_atom_site_fract_z
Zn1	Zn	1.254492	-0.395626	0.695598
Zn2	Zn	1.247331	-0.534698	0.529224
Zn3	Zn	1.115427	-0.388599	0.511596
Zn4	Zn	1.108344	-0.527572	0.694646
O5	O	1.181398	-0.461624	0.607766
O6	O	1.369908	-0.419998	0.681304
O7	O	1.229801	-0.515359	0.380650
O8	O	1.139835	-0.273169	0.529025
O9	O	1.364647	-0.522173	0.559069
O10	O	1.242006	-0.278332	0.664211
O11	O	1.132892	-0.408021	0.367698
O12	O	0.998121	-0.401111	0.528102
O13	O	1.127763	-0.510027	0.841008
O14	O	0.992918	-0.503213	0.662588
O15	O	1.235138	-0.413088	0.841707
O16	O	1.222933	-0.650115	0.558146
O17	O	1.120820	-0.644879	0.679681
C18	C	0.965347	-0.450627	0.593329
C19	C	0.872918	-0.445942	0.587179
C20	C	0.659950	-0.485917	0.639668
C21	C	0.703695	-0.437397	0.575950
C22	C	0.797859	-0.442153	0.582200
C23	C	0.565776	-0.481162	0.633420
C24	C	1.170353	-0.677670	0.620747
C25	C	1.165704	-0.770099	0.626341
C26	C	1.157221	-0.939328	0.636575
C27	C	1.205725	-0.983086	0.578983
C28	C	1.201005	-1.077251	0.584678
C29	C	1.161940	-0.845155	0.630882
C30	C	1.398293	-0.472664	0.622259
C31	C	1.490721	-0.477369	0.628435
C32	C	1.181459	-0.461547	0.880335
C33	C	1.181485	-0.461514	0.996488
C34	C	1.192509	-0.244735	0.594758
C35	C	1.197244	-0.152310	0.589215
C36	C	1.181389	-0.461643	0.336257
C37	C	1.181536	-0.461449	0.220101
C38	C	1.234623	-0.413536	1.048619
C39	C	1.234651	-0.413501	1.168669
H40	H	0.670426	-0.392286	0.516706
C41	C	1.120050	-0.516972	1.056245
H42	H	1.086704	-0.547073	1.007970
H43	H	1.150044	-0.554779	1.103125
H44	H	1.085486	-0.483271	1.094490
C45	C	0.704887	-0.546860	0.719688
H46	H	0.763198	-0.542106	0.713431
H47	H	0.691351	-0.534067	0.788284
H48	H	0.687850	-0.602016	0.706698
H49	H	1.250794	-0.949827	0.525400
H50	H	1.280093	-0.372482	1.004373
H51	H	1.112154	-0.972585	0.690153
H52	H	1.280147	-0.372427	1.213499
H53	H	1.136043	-0.502531	1.175278
