data_functionalizedCrystal
_audit_creation_method	'MofGen! by Chris Wilmer'
_symmetry_space_group_name_H-M	'P1'
_symmetry_Int_Tables_number	1
_symmetry_cell_setting	triclinic
loop_
_symmetry_equiv_pos_as_xyz
  x,y,z
_cell_length_a	17.699083
_cell_length_b	27.732048
_cell_length_c	26.809956
_cell_angle_alpha	89.999364
_cell_angle_beta	89.997218
_cell_angle_gamma	82.962835
loop_
_atom_site_label
_atom_site_type_symbol
_atom_site_fract_x
_atom_site_fract_y
_atom_site_fract_z
O1	O	1.003543	0.061119	-0.041415
O2	O	1.503543	0.561119	0.458585
O3	O	0.783094	0.069072	-0.041432
O4	O	1.283094	0.569072	0.458568
O5	O	0.900165	-0.005277	-0.041414
O6	O	1.400165	0.494723	0.458586
O7	O	0.886472	0.135467	-0.041434
O8	O	1.386472	0.635467	0.458566
O9	O	0.900143	-0.005265	0.041546
O10	O	1.400143	0.494735	0.541546
O11	O	0.783072	0.069083	0.041527
O12	O	1.283072	0.569083	0.541527
O13	O	1.003521	0.061130	0.041544
O14	O	1.503521	0.561130	0.541544
Zn15	Zn	0.893293	0.065108	0.054707
Zn16	Zn	1.393293	0.565108	0.554707
Zn17	Zn	0.893322	0.065094	-0.054595
Zn18	Zn	1.393322	0.565094	0.445405
O19	O	0.886450	0.135479	0.041526
O20	O	1.386450	0.635479	0.541526
C21	C	0.754889	0.068792	0.000045
C22	C	1.254889	0.568792	0.500045
C23	C	0.670878	0.067938	0.000039
C24	C	1.170878	0.567938	0.500039
C25	C	0.899867	-0.023279	0.000067
C26	C	1.399867	0.476721	0.500067
C27	C	0.899001	-0.076937	0.000071
C28	C	1.399001	0.423063	0.500071
C29	C	0.621873	0.111579	0.000033
C30	C	1.121873	0.611579	0.500033
C31	C	0.542936	0.110772	0.000040
C32	C	1.042936	0.610772	0.500040
C33	C	0.513007	0.066325	0.000049
C34	C	1.013007	0.566325	0.500049
C35	C	0.562019	0.022680	0.000056
C36	C	1.062019	0.522680	0.500056
C37	C	0.640954	0.023487	0.000053
C38	C	1.140954	0.523487	0.500053
C39	C	0.243685	0.019426	0.000069
C40	C	0.743685	0.519426	0.500069
C41	C	0.164744	0.018623	0.000071
C42	C	0.664744	0.518623	0.500071
C43	C	0.145667	0.106712	0.000056
C44	C	0.645667	0.606712	0.500056
C45	C	0.224602	0.107518	0.000053
C46	C	0.724602	0.607518	0.500053
C47	C	0.273607	0.063874	0.000063
C48	C	0.773607	0.563874	0.500063
C49	C	0.359199	0.064749	0.000057
C50	C	0.859199	0.564749	0.500057
C51	C	0.427418	0.065450	0.000051
C52	C	0.927418	0.565450	0.500051
C53	C	0.962734	-0.415523	0.000051
C54	C	1.462734	0.084477	0.500051
C55	C	0.959522	-0.617194	0.000043
C56	C	1.459522	-0.117194	0.500043
O57	O	1.017801	-0.648240	0.000026
O58	O	1.517801	-0.148240	0.500026
N59	N	0.890104	-0.636567	0.000039
N60	N	1.390104	-0.136567	0.500039
C61	C	0.821484	-0.605520	0.000032
C62	C	1.321484	-0.105520	0.500032
O63	O	0.762366	-0.626625	0.000023
O64	O	1.262366	-0.126625	0.500023
C65	C	0.824696	-0.403849	0.000036
C66	C	1.324696	0.096151	0.500036
C67	C	0.894119	-0.384479	0.000046
C68	C	1.394119	0.115521	0.500046
C69	C	1.032151	-0.396152	0.000060
C70	C	1.532151	0.103848	0.500060
C71	C	1.032953	-0.345737	0.000065
C72	C	1.532953	0.154263	0.500065
C73	C	0.964338	-0.314693	0.000060
C74	C	1.464338	0.185307	0.500060
C75	C	0.894921	-0.334064	0.000050
C76	C	1.394921	0.165936	0.500050
C77	C	0.756076	-0.372802	0.000026
C78	C	1.256076	0.127198	0.500026
C79	C	0.756886	-0.322382	0.000026
C80	C	1.256886	0.177618	0.500026
C81	C	0.826308	-0.303012	0.000036
C82	C	1.326308	0.196988	0.500036
C83	C	0.827108	-0.252605	0.000050
C84	C	1.327108	0.247395	0.500050
N85	N	0.896526	-0.233232	0.000055
N86	N	1.396526	0.266768	0.500055
C87	C	0.965141	-0.264276	0.000060
C88	C	1.465141	0.235724	0.500060
C89	C	0.819802	-0.711400	0.000031
C90	C	1.319802	-0.211400	0.500031
C91	C	0.818999	-0.761817	0.000031
C92	C	1.318999	-0.261817	0.500031
C93	C	0.957038	-0.773488	0.000042
C94	C	1.457038	-0.273488	0.500042
C95	C	0.957840	-0.723070	0.000045
C96	C	1.457840	-0.223070	0.500045
C97	C	0.889220	-0.692026	0.000036
C98	C	1.389220	-0.192026	0.500036
C99	C	0.966820	-0.158401	0.000070
C100	C	1.466820	0.341599	0.500070
C101	C	0.967616	-0.107981	0.000076
C102	C	1.467616	0.392019	0.500076
C103	C	0.829578	-0.096314	0.000063
C104	C	1.329578	0.403686	0.500063
C105	C	0.828781	-0.146730	0.000059
C106	C	1.328781	0.353270	0.500059
C107	C	0.897409	-0.177772	0.000061
C108	C	1.397409	0.322228	0.500061
O109	O	0.768860	-0.221531	0.000062
O110	O	1.268860	0.278469	0.500062
O111	O	1.024251	-0.243161	0.000058
O112	O	1.524251	0.256839	0.500058
C113	C	0.961931	-0.465938	0.000046
C114	C	1.461931	0.034062	0.500046
C115	C	0.892514	-0.485309	0.000037
C116	C	1.392514	0.014691	0.500037
C117	C	0.823899	-0.454265	0.000032
C118	C	1.323899	0.045735	0.500032
C119	C	0.891711	-0.535726	0.000037
C120	C	1.391711	-0.035726	0.500037
C121	C	0.960326	-0.566770	0.000042
C122	C	1.460326	-0.066770	0.500042
C123	C	1.029744	-0.547397	0.000047
C124	C	1.529744	-0.047397	0.500047
C125	C	1.030546	-0.496982	0.000051
C126	C	1.530546	0.003018	0.500051
C127	C	0.754481	-0.473638	0.000027
C128	C	1.254481	0.026362	0.500027
C129	C	0.753685	-0.524053	0.000023
C130	C	1.253685	-0.024053	0.500023
C131	C	0.822300	-0.555097	0.000028
C132	C	1.322300	-0.055097	0.500028
C133	C	1.031726	0.061410	0.000065
C134	C	1.531726	0.561410	0.500065
C135	C	1.115737	0.062264	0.000068
C136	C	1.615737	0.562264	0.500068
N137	N	0.893279	0.065118	0.129303
N138	N	1.393279	0.565118	0.629303
C139	C	0.886748	0.153481	0.000043
C140	C	1.386748	0.653481	0.500043
C141	C	0.887614	0.207139	0.000036
C142	C	1.387614	0.707139	0.500036
N143	N	0.893343	0.065080	-0.129191
N144	N	1.393343	0.565080	0.370809
C145	C	0.945154	0.032180	0.473937
C146	C	1.445154	0.532180	0.973937
C147	C	0.945172	0.032173	0.682815
C148	C	1.445172	0.532173	1.182815
O149	O	0.989248	0.004170	0.709826
O150	O	1.489248	0.504170	1.209826
N151	N	0.893326	0.065083	0.708930
N152	N	1.393326	0.565083	1.208930
C153	C	0.841469	0.097995	0.682823
C154	C	1.341469	0.597995	1.182823
O155	O	0.797366	0.125984	0.709828
O156	O	1.297366	0.625984	1.209828
C157	C	0.841448	0.098000	0.473946
C158	C	1.341448	0.598000	0.973946
C159	C	0.893302	0.065091	0.447834
C160	C	1.393302	0.565091	0.947834
C161	C	0.997004	-0.000727	0.447825
C162	C	1.497004	0.499273	0.947825
C163	C	0.997002	-0.000723	0.395609
C164	C	1.497002	0.499277	0.895609
C165	C	0.945150	0.032188	0.369505
C166	C	1.445150	0.532188	0.869505
C167	C	0.893300	0.065095	0.395617
C168	C	1.393300	0.565095	0.895617
C169	C	0.789587	0.130909	0.447839
C170	C	1.289587	0.630909	0.947839
C171	C	0.789585	0.130907	0.395617
C172	C	1.289585	0.630907	0.895617
C173	C	0.841440	0.097998	0.369505
C174	C	1.341440	0.597998	0.869505
C175	C	0.841446	0.098009	0.317297
C176	C	1.341446	0.598009	0.817297
N177	N	0.893292	0.065099	0.291182
N178	N	1.393292	0.565099	0.791182
C179	C	0.945144	0.032189	0.317286
C180	C	1.445144	0.532189	0.817286
C181	C	0.841484	0.097991	0.792486
C182	C	1.341484	0.597991	1.292486
C183	C	0.841490	0.097990	0.844705
C184	C	1.341490	0.597990	1.344705
C185	C	0.945193	0.032167	0.844694
C186	C	1.445193	0.532167	1.344694
C187	C	0.945190	0.032171	0.792474
C188	C	1.445190	0.532171	1.292474
C189	C	0.893331	0.065081	0.766371
C190	C	1.393331	0.565081	1.266371
C191	C	0.945136	0.032200	0.207628
C192	C	1.445136	0.532200	0.707628
C193	C	0.945131	0.032208	0.155407
C194	C	1.445131	0.532208	0.655407
C195	C	0.841426	0.098029	0.155423
C196	C	1.341426	0.598029	0.655423
C197	C	0.841433	0.098023	0.207639
C198	C	1.341433	0.598023	0.707639
C199	C	0.893291	0.065104	0.233740
C200	C	1.393291	0.565104	0.733740
O201	O	0.797387	0.125993	0.290254
O202	O	1.297387	0.625993	0.790254
O203	O	0.989229	0.004197	0.290272
O204	O	1.489229	0.504197	0.790272
C205	C	0.945157	0.032176	0.526154
C206	C	1.445157	0.532176	1.026154
C207	C	0.893307	0.065083	0.552266
C208	C	1.393307	0.565083	1.052266
C209	C	0.841455	0.097993	0.526162
C210	C	1.341455	0.597993	1.026162
C211	C	0.893313	0.065082	0.604485
C212	C	1.393313	0.565082	1.104485
C213	C	0.945165	0.032172	0.630589
C214	C	1.445165	0.532172	1.130589
C215	C	0.997011	-0.000738	0.604474
C216	C	1.497011	0.499262	1.104474
C217	C	0.997009	-0.000734	0.552257
C218	C	1.497009	0.499266	1.052257
C219	C	0.789609	0.130904	0.552277
C220	C	1.289609	0.630904	1.052277
C221	C	0.789616	0.130897	0.604494
C222	C	1.289616	0.630897	1.104494
C223	C	0.841468	0.097987	0.630598
C224	C	1.341468	0.597987	1.130598
H225	H	0.646234	0.147773	0.000025
H226	H	1.146234	0.647773	0.500025
H227	H	0.799253	0.124792	0.771237
H228	H	1.299253	0.624792	1.271237
F229	F	0.490784	0.157221	0.000031
F230	F	0.990784	0.657221	0.500031
H231	H	0.987414	0.005373	0.771216
H232	H	1.487414	0.505373	1.271216
H233	H	0.537645	-0.013510	0.000071
H234	H	1.037645	0.486490	0.500071
H235	H	0.701006	-0.297108	0.000017
H236	H	1.201006	0.202892	0.500017
F237	F	1.104436	-0.476373	0.000059
F238	F	1.604436	0.023627	0.500059
F239	F	0.734396	0.165935	0.475621
F240	F	1.234396	0.665935	0.975621
F241	F	0.256450	0.154825	0.000040
F242	F	0.756450	0.654825	0.500040
H243	H	0.105758	0.142249	0.000050
H244	H	0.605758	0.642249	0.500050
F245	F	0.681447	-0.440605	0.000020
F246	F	1.181447	0.059395	0.500020
F247	F	0.132894	-0.028687	0.000081
F248	F	0.632894	0.471313	0.500081
H249	H	0.799274	0.124793	0.865962
H250	H	1.299274	0.624793	1.365962
F251	F	1.052199	-0.035761	0.524473
F252	F	1.552199	0.464239	1.024473
H253	H	0.987415	0.005371	0.865956
H254	H	1.487415	0.505371	1.365956
F255	F	0.295830	-0.027024	0.000080
F256	F	0.795830	0.472976	0.500080
F257	F	1.102769	-0.580445	0.000054
F258	F	1.602769	-0.080445	0.500054
H259	H	0.747352	0.157706	0.374366
H260	H	1.247352	0.657706	0.874366
F261	F	0.693110	-0.022962	0.000062
F262	F	1.193110	0.477038	0.500062
F263	F	1.052196	-0.035758	0.475599
F264	F	1.552196	0.464242	0.975599
F265	F	0.786244	0.133054	0.127633
F266	F	1.286244	0.633054	0.627633
H267	H	0.799215	0.124825	0.228900
H268	H	1.299215	0.624825	0.728900
H269	H	1.024151	-0.092213	0.000086
H270	H	1.524151	0.407787	0.500086
H271	H	1.039234	-0.027534	0.625736
H272	H	1.539234	0.472466	1.125736
F273	F	1.039861	-0.191432	0.000071
F274	F	1.539861	0.308568	0.500071
F275	F	1.106842	-0.325128	0.000064
F276	F	1.606842	0.174872	0.500064
H277	H	1.088028	-0.421424	0.000062
H278	H	1.588028	0.078576	0.500062
F279	F	0.734425	0.165928	0.632280
F280	F	1.234425	0.665928	1.132280
F281	F	1.031728	-0.702459	0.000056
F282	F	1.531728	-0.202459	0.500056
H283	H	1.012907	-0.798773	0.000046
H284	H	1.512907	-0.298773	0.500046
F285	F	0.734418	0.165933	0.524502
F286	F	1.234418	0.665933	1.024502
F287	F	0.745110	-0.782427	0.000030
F288	F	1.245110	-0.282427	0.500030
H289	H	0.699545	-0.388565	0.000015
H290	H	1.199545	0.111435	0.500015
F291	F	0.746762	-0.678366	0.000022
F292	F	1.246762	-0.178366	0.500022
F293	F	1.000325	-0.002819	0.127619
F294	F	1.500325	0.497181	0.627619
H295	H	0.772252	-0.162502	0.000065
H296	H	1.272252	0.337498	0.500065
H297	H	0.773714	-0.071029	0.000061
H298	H	1.273714	0.428971	0.500061
H299	H	0.987362	0.005394	0.228874
H300	H	1.487362	0.505394	0.728874
F301	F	0.679790	-0.544663	0.000016
F302	F	1.179790	-0.044663	0.500016
F303	F	1.052189	-0.035751	0.367823
F304	F	1.552189	0.464249	0.867823
