data_functionalizedCrystal
_audit_creation_method	'MofGen! by Chris Wilmer'
_symmetry_space_group_name_H-M	'P1'
_symmetry_Int_Tables_number	1
_symmetry_cell_setting	triclinic
loop_
_symmetry_equiv_pos_as_xyz
  x,y,z
_cell_length_a	16.120490
_cell_length_b	16.120444
_cell_length_c	19.076919
_cell_angle_alpha	95.047308
_cell_angle_beta	89.501355
_cell_angle_gamma	90.165174
loop_
_atom_site_label
_atom_site_type_symbol
_atom_site_fract_x
_atom_site_fract_y
_atom_site_fract_z
Zn1	Zn	1.231078	-0.416797	-0.468390
Zn2	Zn	1.731078	0.083203	0.031610
Zn3	Zn	1.229513	-0.550806	-0.356362
Zn4	Zn	1.729513	-0.050806	0.143638
Zn5	Zn	1.098205	-0.404170	-0.344490
Zn6	Zn	1.598205	0.095830	0.155510
Zn7	Zn	1.084959	-0.548714	-0.467750
Zn8	Zn	1.584959	-0.048714	0.032250
O9	O	1.160939	-0.480122	-0.409248
O10	O	1.660939	0.019878	0.090752
O11	O	1.346974	-0.440734	-0.458765
O12	O	1.846974	0.059266	0.041235
O13	O	1.216983	-0.526945	-0.256318
O14	O	1.716983	-0.026945	0.243682
O15	O	1.122029	-0.289270	-0.356226
O16	O	1.622029	0.210730	0.143774
O17	O	1.345825	-0.539189	-0.376459
O18	O	1.845825	-0.039189	0.123541
O19	O	1.219650	-0.298547	-0.447254
O20	O	1.719650	0.201453	0.052746
O21	O	1.120511	-0.419212	-0.247596
O22	O	1.620511	0.080788	0.252404
O23	O	0.980343	-0.417184	-0.355605
O24	O	1.480343	0.082816	0.144395
O25	O	1.099454	-0.535624	-0.566304
O26	O	1.599454	-0.035624	-0.066304
O27	O	0.970612	-0.523380	-0.446163
O28	O	1.470612	-0.023380	0.053837
O29	O	1.206807	-0.438705	-0.566774
O30	O	1.706807	0.061295	-0.066774
O31	O	1.204139	-0.667103	-0.375838
O32	O	1.704139	-0.167103	0.124162
O33	O	1.097937	-0.665566	-0.457675
O34	O	1.597937	-0.165566	0.042325
C35	C	0.945373	-0.468685	-0.399527
C36	C	1.445373	0.031315	0.100473
C37	C	0.853152	-0.463813	-0.395386
C38	C	1.353152	0.036187	0.104614
C39	C	1.149453	-0.696563	-0.417992
C40	C	1.649453	-0.196563	0.082008
C41	C	1.144614	-0.789163	-0.421759
C42	C	1.644614	-0.289163	0.078241
C43	C	0.638416	-0.505385	-0.430730
C44	C	1.138416	-0.005385	0.069270
C45	C	0.684306	-0.454927	-0.387825
C46	C	1.184306	0.045073	0.112175
C47	C	0.778260	-0.459873	-0.392033
C48	C	1.278260	0.040127	0.107967
C49	C	0.544453	-0.500440	-0.426522
C50	C	1.044453	-0.000440	0.073478
C51	C	1.186237	-1.000701	-0.389865
C52	C	1.686237	-0.500701	0.110135
C53	C	1.135794	-0.958700	-0.428645
C54	C	1.635794	-0.458700	0.071355
C55	C	1.140703	-0.864361	-0.424813
C56	C	1.640703	-0.364361	0.075187
C57	C	1.181329	-1.095048	-0.393697
C58	C	1.681329	-0.595048	0.106303
C59	C	1.377346	-0.491603	-0.419007
C60	C	1.877346	0.008397	0.080993
C61	C	1.469565	-0.496496	-0.423166
C62	C	1.969565	0.003504	0.076834
C63	C	1.151827	-0.488340	-0.592784
C64	C	1.651827	0.011660	-0.092784
C65	C	1.147945	-0.491842	-0.670997
C66	C	1.647945	0.008158	-0.170997
C67	C	1.172491	-0.262836	-0.400487
C68	C	1.672491	0.237164	0.099513
C69	C	1.177414	-0.170243	-0.396753
C70	C	1.677414	0.329757	0.103247
C71	C	1.202011	-0.443029	-0.707987
C72	C	1.702011	0.056971	-0.207987
C73	C	1.198352	-0.446316	-0.781475
C74	C	1.698352	0.053684	-0.281475
C75	C	1.140632	-0.498420	-0.817972
C76	C	1.640632	0.001580	-0.317972
C77	C	1.086560	-0.547235	-0.780977
C78	C	1.586560	-0.047235	-0.280977
C79	C	1.090215	-0.543943	-0.707489
C80	C	1.590215	-0.043943	-0.207489
C81	C	1.123704	-0.513672	-1.037729
C82	C	1.623704	-0.013672	-0.537729
C83	C	1.120055	-0.516962	-1.111221
C84	C	1.620055	-0.016962	-0.611221
C85	C	1.231847	-0.416042	-1.111714
C86	C	1.731847	0.083958	-0.611714
C87	C	1.235500	-0.412758	-1.038226
C88	C	1.735500	0.087242	-0.538226
C89	C	1.181425	-0.461569	-1.001237
C90	C	1.681425	0.038431	-0.501237
N91	N	1.136893	-0.501783	-0.893089
N92	N	1.636893	-0.001783	-0.393089
N93	N	1.185161	-0.458201	-0.926121
N94	N	1.685161	0.041799	-0.426121
C95	C	1.170065	-0.471878	-0.226425
C96	C	1.670065	0.028122	0.273575
C97	C	1.174121	-0.468150	-0.148211
C98	C	1.674121	0.031850	0.351789
H99	H	0.653031	-0.408013	-0.347931
H100	H	1.153031	0.091987	0.152069
H101	H	1.233105	-0.965812	-0.353787
H102	H	1.733105	-0.465812	0.146213
H103	H	0.669689	-0.552296	-0.470619
H104	H	1.169689	-0.052296	0.029381
Cl105	Cl	1.063422	-1.012568	-0.484347
Cl106	Cl	1.563422	-0.512568	0.015653
H107	H	1.249015	-0.400602	-0.678277
H108	H	1.749015	0.099398	-0.178277
H109	H	1.242380	-0.406569	-0.811589
H110	H	1.742380	0.093431	-0.311589
H111	H	1.282504	-0.370331	-1.008515
H112	H	1.782504	0.129669	-0.508515
Cl113	Cl	1.047482	-0.582465	-1.157102
Cl114	Cl	1.547482	-0.082465	-0.657102
Cl115	Cl	1.299819	-0.354680	-1.158219
Cl116	Cl	1.799819	0.145320	-0.658219
Cl117	Cl	1.055725	-0.575036	-0.991237
Cl118	Cl	1.555725	-0.075036	-0.491237
H119	H	1.039560	-0.589657	-0.810698
H120	H	1.539560	-0.089657	-0.310698
Cl121	Cl	1.022241	-0.605308	-0.660987
Cl122	Cl	1.522241	-0.105308	-0.160987
