data_functionalizedCrystal
_audit_creation_method	'MofGen! by Chris Wilmer'
_symmetry_space_group_name_H-M	'P1'
_symmetry_Int_Tables_number	1
_symmetry_cell_setting	triclinic
loop_
_symmetry_equiv_pos_as_xyz
  x,y,z
_cell_length_a	19.188930
_cell_length_b	19.188930
_cell_length_c	17.666332
_cell_angle_alpha	90.011603
_cell_angle_beta	89.976766
_cell_angle_gamma	96.855221
loop_
_atom_site_label
_atom_site_type_symbol
_atom_site_fract_x
_atom_site_fract_y
_atom_site_fract_z
O1	O	0.926150	-0.087169	-0.063200
O2	O	1.176150	0.162831	0.186800
O3	O	1.426150	0.412831	0.436800
O4	O	1.676150	0.662831	0.686800
O5	O	0.722838	-0.098903	-0.063149
O6	O	0.972838	0.151097	0.186851
O7	O	1.222838	0.401097	0.436851
O8	O	1.472838	0.651097	0.686851
O9	O	0.830361	0.008620	-0.063161
O10	O	1.080361	0.258620	0.186839
O11	O	1.330361	0.508620	0.436839
O12	O	1.580361	0.758620	0.686839
O13	O	0.818627	-0.194692	-0.063188
O14	O	1.068627	0.055308	0.186812
O15	O	1.318627	0.305308	0.436812
O16	O	1.568627	0.555308	0.686812
O17	O	0.830342	0.008625	0.062735
O18	O	1.080342	0.258625	0.312735
O19	O	1.330342	0.508625	0.562735
O20	O	1.580342	0.758625	0.812735
O21	O	0.722820	-0.098897	0.062747
O22	O	0.972820	0.151103	0.312747
O23	O	1.222820	0.401103	0.562747
O24	O	1.472820	0.651103	0.812747
O25	O	0.926131	-0.087163	0.062697
O26	O	1.176131	0.162837	0.312697
O27	O	1.426131	0.412837	0.562697
O28	O	1.676131	0.662837	0.812697
Cu29	Cu	0.824473	-0.093030	0.074217
Cu30	Cu	1.074473	0.156970	0.324217
Cu31	Cu	1.324473	0.406970	0.574217
Cu32	Cu	1.574473	0.656970	0.824217
Cu33	Cu	0.824496	-0.093036	-0.074670
Cu34	Cu	1.074496	0.156964	0.175330
Cu35	Cu	1.324496	0.406964	0.425330
Cu36	Cu	1.574496	0.656964	0.675330
O37	O	0.818608	-0.194686	0.062709
O38	O	1.068608	0.055314	0.312709
O39	O	1.318608	0.305314	0.562709
O40	O	1.568608	0.555314	0.812709
C41	C	0.696818	-0.098520	-0.000194
C42	C	0.946818	0.151480	0.249806
C43	C	1.196818	0.401480	0.499806
C44	C	1.446818	0.651480	0.749806
C45	C	0.619313	-0.097380	-0.000174
C46	C	0.869313	0.152620	0.249826
C47	C	1.119313	0.402620	0.499826
C48	C	1.369313	0.652620	0.749826
C49	C	0.829972	0.034634	-0.000211
C50	C	1.079972	0.284634	0.249789
C51	C	1.329972	0.534634	0.499789
C52	C	1.579972	0.784634	0.749789
C53	C	0.828831	0.112138	-0.000204
C54	C	1.078831	0.362138	0.249796
C55	C	1.328831	0.612138	0.499796
C56	C	1.578831	0.862138	0.749796
C57	C	0.574389	-0.160470	-0.000194
C58	C	0.824389	0.089530	0.249806
C59	C	1.074389	0.339530	0.499806
C60	C	1.324389	0.589530	0.749806
C61	C	0.501566	-0.159399	-0.000203
C62	C	0.751566	0.090601	0.249797
C63	C	1.001566	0.340601	0.499797
C64	C	1.251566	0.590601	0.749797
C65	C	0.473669	-0.095233	-0.000206
C66	C	0.723669	0.154767	0.249794
C67	C	0.973669	0.404767	0.499794
C68	C	1.223669	0.654767	0.749794
C69	C	0.518603	-0.032133	-0.000181
C70	C	0.768603	0.217867	0.249819
C71	C	1.018603	0.467867	0.499819
C72	C	1.268603	0.717867	0.749819
C73	C	0.591425	-0.033207	-0.000166
C74	C	0.841425	0.216793	0.249834
C75	C	1.091425	0.466793	0.499834
C76	C	1.341425	0.716793	0.749834
N77	N	0.365695	-0.046188	-0.043078
N78	N	0.615695	0.203812	0.206922
N79	N	0.865695	0.453812	0.456922
N80	N	1.115695	0.703812	0.706922
N81	N	0.296517	-0.045172	-0.043095
N82	N	0.546517	0.204828	0.206905
N83	N	0.796517	0.454828	0.456905
N84	N	1.046517	0.704828	0.706905
C85	C	0.254260	-0.091994	-0.000252
C86	C	0.504260	0.158006	0.249748
C87	C	0.754260	0.408006	0.499748
C88	C	1.004260	0.658006	0.749748
N89	N	0.283795	-0.139881	0.042599
N90	N	0.533795	0.110119	0.292599
N91	N	0.783795	0.360119	0.542599
N92	N	1.033795	0.610119	0.792599
N93	N	0.352979	-0.140899	0.042612
N94	N	0.602979	0.109101	0.292612
N95	N	0.852979	0.359101	0.542612
N96	N	1.102979	0.609101	0.792612
C97	C	0.394707	-0.094062	-0.000222
C98	C	0.644707	0.155938	0.249778
C99	C	0.894707	0.405938	0.499778
C100	C	1.144707	0.655938	0.749778
C101	C	0.130372	-0.153928	-0.000280
C102	C	0.380372	0.096072	0.249720
C103	C	0.630372	0.346072	0.499720
C104	C	0.880372	0.596072	0.749720
C105	C	0.057547	-0.152853	-0.000283
C106	C	0.307547	0.097147	0.249717
C107	C	0.557547	0.347147	0.499717
C108	C	0.807547	0.597147	0.749717
C109	C	0.074586	-0.025586	-0.000270
C110	C	0.324586	0.224414	0.249730
C111	C	0.574586	0.474414	0.499730
C112	C	0.824586	0.724414	0.749730
C113	C	0.147409	-0.026662	-0.000258
C114	C	0.397409	0.223338	0.249742
C115	C	0.647409	0.473338	0.499742
C116	C	0.897409	0.723338	0.749742
C117	C	0.175298	-0.090835	-0.000267
C118	C	0.425298	0.159165	0.249733
C119	C	0.675298	0.409165	0.499733
C120	C	0.925298	0.659165	0.749733
C121	C	0.952151	-0.087546	-0.000260
C122	C	1.202151	0.162454	0.249740
C123	C	1.452151	0.412454	0.499740
C124	C	1.702151	0.662454	0.749740
C125	C	1.029656	-0.088687	-0.000285
C126	C	1.279656	0.161313	0.249715
C127	C	1.529656	0.411313	0.499715
C128	C	1.779656	0.661313	0.749715
C129	C	0.818997	-0.220700	-0.000244
C130	C	1.068997	0.029300	0.249756
C131	C	1.318997	0.279300	0.499756
C132	C	1.568997	0.529300	0.749756
C133	C	0.820138	-0.298204	-0.000255
C134	C	1.070138	-0.048204	0.249745
C135	C	1.320138	0.201796	0.499745
C136	C	1.570138	0.451796	0.749745
N137	N	0.824463	-0.093025	0.178937
N138	N	1.074463	0.156975	0.428937
N139	N	1.324463	0.406975	0.678937
N140	N	1.574463	0.656975	0.928937
C141	C	0.891922	0.157062	-0.000216
C142	C	1.141922	0.407062	0.249784
C143	C	1.391922	0.657062	0.499784
C144	C	1.641922	0.907062	0.749784
C145	C	0.890850	0.229886	-0.000228
C146	C	1.140850	0.479886	0.249772
C147	C	1.390850	0.729886	0.499772
C148	C	1.640850	0.979886	0.749772
C149	C	0.826684	0.257782	-0.000212
C150	C	1.076684	0.507782	0.249788
C151	C	1.326684	0.757782	0.499788
C152	C	1.576684	1.007782	0.749788
C153	C	0.763585	0.212849	-0.000205
C154	C	1.013585	0.462849	0.249795
C155	C	1.263585	0.712849	0.499795
C156	C	1.513585	0.962849	0.749795
C157	C	0.764658	0.140026	-0.000200
C158	C	1.014658	0.390026	0.249800
C159	C	1.264658	0.640026	0.499800
C160	C	1.514658	0.890026	0.749800
N161	N	0.777630	0.365789	0.042645
N162	N	1.027630	0.615789	0.292645
N163	N	1.277630	0.865789	0.542645
N164	N	1.527630	1.115789	0.792645
N165	N	0.776615	0.434968	0.042642
N166	N	1.026615	0.684968	0.292642
N167	N	1.276615	0.934968	0.542642
N168	N	1.526615	1.184968	0.792642
C169	C	0.823446	0.477191	-0.000227
C170	C	1.073446	0.727191	0.249773
C171	C	1.323446	0.977191	0.499773
C172	C	1.573446	1.227191	0.749773
N173	N	0.871341	0.447624	-0.043084
N174	N	1.121341	0.697624	0.206916
N175	N	1.371341	0.947624	0.456916
N176	N	1.621341	1.197624	0.706916
N177	N	0.872359	0.378439	-0.043079
N178	N	1.122359	0.628439	0.206921
N179	N	1.372359	0.878439	0.456921
N180	N	1.622359	1.128439	0.706921
C181	C	0.825513	0.336745	-0.000218
C182	C	1.075513	0.586745	0.249782
C183	C	1.325513	0.836745	0.499782
C184	C	1.575513	1.086745	0.749782
C185	C	0.885379	0.601079	-0.000253
C186	C	1.135379	0.851079	0.249747
C187	C	1.385379	1.101079	0.499747
C188	C	1.635379	1.351079	0.749747
C189	C	0.884305	0.673904	-0.000270
C190	C	1.134305	0.923904	0.249730
C191	C	1.384305	1.173904	0.499730
C192	C	1.634305	1.423904	0.749730
C193	C	0.757038	0.656865	-0.000239
C194	C	1.007038	0.906865	0.249761
C195	C	1.257038	1.156865	0.499761
C196	C	1.507038	1.406865	0.749761
C197	C	0.758114	0.584042	-0.000230
C198	C	1.008114	0.834042	0.249770
C199	C	1.258114	1.084042	0.499770
C200	C	1.508114	1.334042	0.749770
C201	C	0.822287	0.556154	-0.000233
C202	C	1.072287	0.806154	0.249767
C203	C	1.322287	1.056154	0.499767
C204	C	1.572287	1.306154	0.749767
N205	N	0.824512	-0.093036	-0.179390
N206	N	1.074512	0.156964	0.070610
N207	N	1.324512	0.406964	0.320610
N208	N	1.574512	0.656964	0.570610
C209	C	0.872089	-0.045437	0.218541
C210	C	1.122089	0.204563	0.468541
C211	C	1.372089	0.454563	0.718541
C212	C	1.622089	0.704563	0.968541
C213	C	0.872093	-0.045433	0.297789
C214	C	1.122093	0.204567	0.547789
C215	C	1.372093	0.454567	0.797789
C216	C	1.622093	0.704567	1.047789
C217	C	0.824478	-0.093030	0.337429
C218	C	1.074478	0.156970	0.587429
C219	C	1.324478	0.406970	0.837429
C220	C	1.574478	0.656970	1.087429
C221	C	0.776842	-0.140621	0.297815
C222	C	1.026842	0.109379	0.547815
C223	C	1.276842	0.359379	0.797815
C224	C	1.526842	0.609379	1.047815
C225	C	0.776835	-0.140619	0.218569
C226	C	1.026835	0.109381	0.468569
C227	C	1.276835	0.359381	0.718569
C228	C	1.526835	0.609381	0.968569
N229	N	0.815401	-0.154837	0.461841
N230	N	1.065401	0.095163	0.711841
N231	N	1.315401	0.345163	0.961841
N232	N	1.565401	0.595163	1.211841
N233	N	0.815413	-0.154837	0.537121
N234	N	1.065413	0.095163	0.787121
N235	N	1.315413	0.345163	1.037121
N236	N	1.565413	0.595163	1.287121
C237	C	0.824496	-0.093040	0.576193
C238	C	1.074496	0.156960	0.826193
C239	C	1.324496	0.406960	1.076193
C240	C	1.574496	0.656960	1.326193
N241	N	0.833582	-0.031239	0.537140
N242	N	1.083582	0.218761	0.787140
N243	N	1.333582	0.468761	1.037140
N244	N	1.583582	0.718761	1.287140
N245	N	0.833574	-0.031240	0.461853
N246	N	1.083574	0.218760	0.711853
N247	N	1.333574	0.468760	0.961853
N248	N	1.583574	0.718760	1.211853
C249	C	0.824480	-0.093038	0.423358
C250	C	1.074480	0.156962	0.673358
C251	C	1.324480	0.406962	0.923358
C252	C	1.574480	0.656962	1.173358
C253	C	0.872130	-0.045444	0.701727
C254	C	1.122130	0.204556	0.951727
C255	C	1.372130	0.454556	1.201727
C256	C	1.622130	0.704556	1.451727
C257	C	0.872129	-0.045440	0.780976
C258	C	1.122129	0.204560	1.030976
C259	C	1.372129	0.454560	1.280976
C260	C	1.622129	0.704560	1.530976
C261	C	0.776881	-0.140634	0.781000
C262	C	1.026881	0.109366	1.031000
C263	C	1.276881	0.359366	1.281000
C264	C	1.526881	0.609366	1.531000
C265	C	0.776878	-0.140632	0.701753
C266	C	1.026878	0.109368	0.951753
C267	C	1.276878	0.359368	1.201753
C268	C	1.526878	0.609368	1.451753
C269	C	0.824506	-0.093038	0.662121
C270	C	1.074506	0.156962	0.912121
C271	C	1.324506	0.406962	1.162121
C272	C	1.574506	0.656962	1.412121
H273	H	0.597091	-0.212725	-0.000203
H274	H	0.847091	0.037275	0.249797
H275	H	1.097091	0.287275	0.499797
H276	H	1.347091	0.537275	0.749797
Br277	Br	0.712194	-0.205206	0.164815
Br278	Br	0.962194	0.044794	0.414815
Br279	Br	1.212194	0.294794	0.664815
Br280	Br	1.462194	0.544794	0.914815
Br281	Br	0.672486	0.523070	-0.000212
Br282	Br	0.922486	0.773070	0.249788
Br283	Br	1.172486	1.023070	0.499788
Br284	Br	1.422486	1.273070	0.749788
Br285	Br	-0.003424	-0.238485	-0.000304
Br286	Br	0.246576	0.011515	0.249696
Br287	Br	0.496576	0.261515	0.499696
Br288	Br	0.746576	0.511515	0.749696
H289	H	0.051874	0.026659	-0.000319
H290	H	0.301874	0.276659	0.249681
H291	H	0.551874	0.526659	0.499681
H292	H	0.801874	0.776659	0.749681
Br293	Br	0.972468	0.563226	-0.000250
Br294	Br	1.222468	0.813226	0.249750
Br295	Br	1.472468	1.063226	0.499750
Br296	Br	1.722468	1.313226	0.749750
H297	H	0.464982	-0.210776	-0.000217
H298	H	0.714982	0.039224	0.249783
H299	H	0.964982	0.289224	0.499783
H300	H	1.214982	0.539224	0.749783
H301	H	0.628003	0.018171	-0.000150
H302	H	0.878003	0.268171	0.249850
H303	H	1.128003	0.518171	0.499850
H304	H	1.378003	0.768171	0.749850
H305	H	0.738072	-0.179374	0.330094
H306	H	0.988072	0.070626	0.580094
H307	H	1.238072	0.320626	0.830094
H308	H	1.488072	0.570626	1.080094
Br309	Br	0.976479	0.290866	-0.000248
Br310	Br	1.226479	0.540866	0.249752
Br311	Br	1.476479	0.790866	0.499752
Br312	Br	1.726479	1.040866	0.749752
Br313	Br	0.936764	0.019149	0.647938
Br314	Br	1.186764	0.269149	0.897938
Br315	Br	1.436764	0.519149	1.147938
Br316	Br	1.686764	0.769149	1.397938
H317	H	0.738109	-0.179385	0.813275
H318	H	0.988109	0.070615	1.063275
H319	H	1.238109	0.320615	1.313275
H320	H	1.488109	0.570615	1.563275
Br321	Br	0.208382	0.058966	-0.000233
Br322	Br	0.458382	0.308966	0.249767
Br323	Br	0.708382	0.558966	0.499767
Br324	Br	0.958382	0.808966	0.749767
Br325	Br	0.712242	-0.205221	0.647998
Br326	Br	0.962242	0.044779	0.897998
Br327	Br	1.212242	0.294779	1.147998
Br328	Br	1.462242	0.544779	1.397998
H329	H	0.910878	-0.006680	0.330041
H330	H	1.160878	0.243320	0.580041
H331	H	1.410878	0.493320	0.830041
H332	H	1.660878	0.743320	1.080041
H333	H	0.910910	-0.006684	0.813222
H334	H	1.160910	0.243316	1.063222
H335	H	1.410910	0.493316	1.313222
H336	H	1.660910	0.743316	1.563222
H337	H	0.935683	0.710481	-0.000284
H338	H	1.185683	0.960481	0.249716
H339	H	1.435683	1.210481	0.499716
H340	H	1.685683	1.460481	0.749716
Br341	Br	0.480745	0.054950	-0.000178
Br342	Br	0.730745	0.304950	0.249822
Br343	Br	0.980745	0.554950	0.499822
Br344	Br	1.230745	0.804950	0.749822
H345	H	0.713281	0.103448	-0.000190
H346	H	0.963281	0.353448	0.249810
H347	H	1.213281	0.603448	0.499810
H348	H	1.463281	0.853448	0.749810
H349	H	0.944176	0.134360	-0.000222
H350	H	1.194176	0.384360	0.249778
H351	H	1.444176	0.634360	0.499778
H352	H	1.694176	0.884360	0.749778
H353	H	0.704792	0.679578	-0.000230
H354	H	0.954792	0.929578	0.249770
H355	H	1.204792	1.179578	0.499770
H356	H	1.454792	1.429578	0.749770
Br357	Br	0.936723	0.019156	0.164754
Br358	Br	1.186723	0.269156	0.414754
Br359	Br	1.436723	0.519156	0.664754
Br360	Br	1.686723	0.769156	0.914754
H361	H	0.153080	-0.206181	-0.000276
H362	H	0.403080	0.043819	0.249724
H363	H	0.653080	0.293819	0.499724
H364	H	0.903080	0.543819	0.749724
Br365	Br	0.676502	0.250706	-0.000193
Br366	Br	0.926502	0.500706	0.249807
Br367	Br	1.176502	0.750706	0.499807
Br368	Br	1.426502	1.000706	0.749807
