data_functionalizedCrystal
_audit_creation_method	'MofGen! by Chris Wilmer'
_symmetry_space_group_name_H-M	'P1'
_symmetry_Int_Tables_number	1
_symmetry_cell_setting	triclinic
loop_
_symmetry_equiv_pos_as_xyz
  x,y,z
_cell_length_a	14.908571
_cell_length_b	16.959453
_cell_length_c	14.909227
_cell_angle_alpha	86.673128
_cell_angle_beta	83.209827
_cell_angle_gamma	86.716085
loop_
_atom_site_label
_atom_site_type_symbol
_atom_site_fract_x
_atom_site_fract_y
_atom_site_fract_z
Zn1	Zn	1.413375	-0.356325	-0.591512
Zn2	Zn	1.746708	-0.022992	-0.258178
Zn3	Zn	2.080041	0.310341	0.075155
Zn4	Zn	1.404535	-0.495724	-0.440138
Zn5	Zn	1.737869	-0.162390	-0.106805
Zn6	Zn	2.071202	0.170943	0.226528
Zn7	Zn	1.253268	-0.356343	-0.431443
Zn8	Zn	1.586601	-0.023010	-0.098109
Zn9	Zn	1.919935	0.310323	0.235224
Zn10	Zn	1.261975	-0.481243	-0.582741
Zn11	Zn	1.595308	-0.147910	-0.249407
Zn12	Zn	1.928641	0.185423	0.083926
O13	O	1.333288	-0.422409	-0.511458
O14	O	1.666621	-0.089076	-0.178125
O15	O	1.999955	0.244258	0.155208
O16	O	1.538869	-0.380870	-0.578742
O17	O	1.872203	-0.047536	-0.245408
O18	O	2.205536	0.285797	0.087925
O19	O	1.377126	-0.483302	-0.312316
O20	O	1.710460	-0.149969	0.021018
O21	O	2.043793	0.183365	0.354351
O22	O	1.274562	-0.245731	-0.452708
O23	O	1.607895	0.087602	-0.119374
O24	O	1.941229	0.420935	0.213959
O25	O	1.532375	-0.483285	-0.467528
O26	O	1.865708	-0.149952	-0.134195
O27	O	2.199042	0.183382	0.199139
O28	O	1.392192	-0.245718	-0.570310
O29	O	1.725525	0.087615	-0.236977
O30	O	2.058858	0.420949	0.096357
O31	O	1.265991	-0.380900	-0.305927
O32	O	1.599324	-0.047567	0.027406
O33	O	1.932658	0.285767	0.360740
O34	O	1.127756	-0.366859	-0.444203
O35	O	1.461089	-0.033526	-0.110870
O36	O	1.794422	0.299808	0.222464
O37	O	1.289401	-0.458605	-0.710573
O38	O	1.622734	-0.125272	-0.377240
O39	O	1.956068	0.208062	-0.043907
O40	O	1.134152	-0.458622	-0.555361
O41	O	1.467486	-0.125289	-0.222028
O42	O	1.800819	0.208044	0.111306
O43	O	1.400634	-0.366828	-0.717017
O44	O	1.733967	-0.033495	-0.383684
O45	O	2.067301	0.299838	-0.050351
O46	O	1.385569	-0.604412	-0.459023
O47	O	1.718902	-0.271079	-0.125690
O48	O	2.052235	0.062254	0.207644
O49	O	1.280830	-0.593774	-0.563793
O50	O	1.614163	-0.260440	-0.230459
O51	O	1.947497	0.072893	0.102874
C52	C	1.098111	-0.411172	-0.497887
C53	C	1.431444	-0.077838	-0.164554
C54	C	1.764777	0.255495	0.168779
C55	C	0.997502	-0.406382	-0.492103
C56	C	1.330835	-0.073049	-0.158770
C57	C	1.664168	0.260284	0.174564
C58	C	0.815148	-0.493100	-0.596827
C59	C	1.148481	-0.159767	-0.263493
C60	C	1.481814	0.173566	0.069840
C61	C	0.720617	-0.488603	-0.591395
C62	C	1.053950	-0.155269	-0.258062
C63	C	1.387284	0.178064	0.075272
C64	C	0.713908	-0.392886	-0.475813
C65	C	1.047242	-0.059552	-0.142479
C66	C	1.380575	0.273781	0.190854
C67	C	0.808439	-0.397383	-0.481245
C68	C	1.141772	-0.064050	-0.147911
C69	C	1.475106	0.269283	0.185422
C70	C	0.859055	-0.447493	-0.541753
C71	C	1.192389	-0.114160	-0.208419
C72	C	1.525722	0.219173	0.124914
C73	C	0.953587	-0.451995	-0.547179
C74	C	1.286921	-0.118661	-0.213846
C75	C	1.620254	0.214672	0.119487
C76	C	0.946877	-0.356274	-0.431602
C77	C	1.280211	-0.022941	-0.098269
C78	C	1.613544	0.310393	0.235065
C79	C	0.852347	-0.351776	-0.426170
C80	C	1.185680	-0.018443	-0.092837
C81	C	1.519013	0.314890	0.240496
C82	C	1.333211	-0.627773	-0.511421
C83	C	1.666544	-0.294440	-0.178088
C84	C	1.999877	0.038893	0.155246
C85	C	1.333262	-0.715631	-0.511440
C86	C	1.666595	-0.382298	-0.178107
C87	C	1.999929	-0.048965	0.155227
C88	C	1.394618	-1.087040	-0.572807
C89	C	1.727952	-0.753707	-0.239474
C90	C	2.061285	-0.420374	0.093859
C91	C	1.272218	-1.087180	-0.450258
C92	C	1.605552	-0.753847	-0.116925
C93	C	1.938885	-0.420513	0.216408
C94	C	1.272184	-1.004633	-0.450236
C95	C	1.605517	-0.671300	-0.116902
C96	C	1.938850	-0.337967	0.216431
C97	C	1.333366	-0.963286	-0.511501
C98	C	1.666700	-0.629953	-0.178167
C99	C	2.000033	-0.296620	0.155166
C100	C	1.394584	-1.004486	-0.572788
C101	C	1.727917	-0.671153	-0.239455
C102	C	2.061250	-0.337819	0.093878
C103	C	1.210961	-0.963427	-0.388955
C104	C	1.544295	-0.630094	-0.055622
C105	C	1.877628	-0.296761	0.277711
C106	C	1.210924	-0.880876	-0.388931
C107	C	1.544257	-0.547542	-0.055597
C108	C	1.877590	-0.214209	0.277736
C109	C	1.272111	-0.839528	-0.450192
C110	C	1.605444	-0.506194	-0.116859
C111	C	1.938778	-0.172861	0.216474
C112	C	1.333332	-0.880732	-0.511482
C113	C	1.666665	-0.547399	-0.178148
C114	C	1.999998	-0.214065	0.155185
C115	C	1.394514	-0.839385	-0.572747
C116	C	1.727847	-0.506052	-0.239413
C117	C	2.061181	-0.172719	0.093920
C118	C	1.455740	-0.880589	-0.634032
C119	C	1.789073	-0.547255	-0.300699
C120	C	2.122406	-0.213922	0.032634
C121	C	1.455771	-0.963138	-0.634050
C122	C	1.789104	-0.629805	-0.300716
C123	C	2.122438	-0.296471	0.032617
C124	C	1.272080	-0.756978	-0.450175
C125	C	1.605413	-0.423645	-0.116842
C126	C	1.938746	-0.090312	0.216492
C127	C	1.394479	-0.756831	-0.572728
C128	C	1.727813	-0.423498	-0.239394
C129	C	2.061146	-0.090164	0.093939
C130	C	1.569384	-0.433690	-0.525083
C131	C	1.902717	-0.100357	-0.191750
C132	C	2.236051	0.232976	0.141584
C133	C	1.669994	-0.438498	-0.530889
C134	C	2.003327	-0.105165	-0.197556
C135	C	2.336661	0.228169	0.135778
C136	C	1.346975	-0.411099	-0.747558
C137	C	1.680308	-0.077766	-0.414224
C138	C	2.013641	0.255567	-0.080891
C139	C	1.352807	-0.406280	-0.848169
C140	C	1.686140	-0.072947	-0.514836
C141	C	2.019474	0.260387	-0.181503
C142	C	1.333392	-0.216243	-0.511517
C143	C	1.666725	0.117090	-0.178184
C144	C	2.000058	0.450424	0.155149
C145	C	1.333436	-0.128387	-0.511542
C146	C	1.666769	0.204946	-0.178209
C147	C	2.000102	0.538279	0.155124
C148	C	1.418934	-0.351710	-0.993332
C149	C	1.752267	-0.018376	-0.659999
C150	C	2.085601	0.314957	-0.326666
C151	C	1.413459	-0.356235	-0.898799
C152	C	1.746792	-0.022902	-0.565466
C153	C	2.080125	0.310432	-0.232132
C154	C	1.297629	-0.451805	-0.892079
C155	C	1.630962	-0.118472	-0.558746
C156	C	1.964296	0.214862	-0.225412
C157	C	1.303104	-0.447279	-0.986612
C158	C	1.636438	-0.113946	-0.653279
C159	C	1.969771	0.219387	-0.319945
C160	C	1.363758	-0.397229	-1.037235
C161	C	1.697091	-0.063896	-0.703902
C162	C	2.030424	0.269437	-0.370569
C163	C	1.369228	-0.392700	-1.131770
C164	C	1.702561	-0.059367	-0.798437
C165	C	2.035895	0.273967	-0.465103
C166	C	1.253403	-0.488274	-1.125048
C167	C	1.586737	-0.154940	-0.791715
C168	C	1.920070	0.178393	-0.458382
C169	C	1.247928	-0.492799	-1.030515
C170	C	1.581261	-0.159466	-0.697182
C171	C	1.914595	0.173868	-0.363849
C172	C	1.319707	-0.433620	-0.276281
C173	C	1.653040	-0.100286	0.057053
C174	C	1.986373	0.233047	0.390386
C175	C	1.314050	-0.438225	-0.175680
C176	C	1.647383	-0.104892	0.157654
C177	C	1.980716	0.228442	0.490987
H178	H	0.672681	-0.352084	-0.426556
H179	H	1.006014	-0.018750	-0.093223
H180	H	1.339347	0.314583	0.240111
Cl181	Cl	1.445470	-0.329774	-1.195410
Cl182	Cl	1.778803	0.003559	-0.862076
Cl183	Cl	2.112137	0.336892	-0.528743
H184	H	1.505617	-0.996693	-0.683946
H185	H	1.838950	-0.663360	-0.350613
H186	H	2.172284	-0.330026	-0.017279
Cl187	Cl	1.171682	-0.555715	-0.966866
Cl188	Cl	1.505015	-0.222382	-0.633533
Cl189	Cl	1.838348	0.110952	-0.300199
Cl190	Cl	1.471586	-1.138836	-0.649846
Cl191	Cl	1.804919	-0.805503	-0.316512
Cl192	Cl	2.138253	-0.472170	0.016821
H193	H	1.222227	-0.723434	-0.400281
H194	H	1.555560	-0.390100	-0.066948
H195	H	1.888893	-0.056767	0.266386
H196	H	1.468311	-0.310948	-1.034550
H197	H	1.801645	0.022385	-0.701217
H198	H	2.134978	0.355718	-0.367884
H199	H	1.208465	-0.525330	-1.160804
H200	H	1.541799	-0.191997	-0.827470
H201	H	1.875132	0.141336	-0.494137
H202	H	1.222403	-1.120849	-0.400383
H203	H	1.555736	-0.787516	-0.067050
H204	H	1.889070	-0.454183	0.266284
Cl205	Cl	1.017218	-0.514991	-0.623243
Cl206	Cl	1.350552	-0.181657	-0.289910
Cl207	Cl	1.683885	0.151676	0.043423
Cl208	Cl	1.482828	-0.299009	-0.843609
Cl209	Cl	1.816161	0.034324	-0.510276
Cl210	Cl	2.149495	0.367657	-0.176943
Cl211	Cl	1.002081	-0.298943	-0.362354
Cl212	Cl	1.335414	0.034390	-0.029021
Cl213	Cl	1.668747	0.367724	0.304313
Cl214	Cl	1.221387	-0.514721	-0.828423
Cl215	Cl	1.554721	-0.181388	-0.495090
Cl216	Cl	1.888054	0.151945	-0.161756
H217	H	1.444305	-0.723171	-0.622614
H218	H	1.777639	-0.389838	-0.289281
H219	H	2.110972	-0.056505	0.044053
H220	H	1.505551	-0.846914	-0.683919
H221	H	1.838884	-0.513581	-0.350585
H222	H	2.172218	-0.180247	-0.017252
H223	H	1.161148	-0.997098	-0.339079
H224	H	1.494481	-0.663764	-0.005746
H225	H	1.827814	-0.330431	0.327588
Cl226	Cl	1.133955	-0.829084	-0.311889
Cl227	Cl	1.467288	-0.495751	0.021444
Cl228	Cl	1.800621	-0.162418	0.354778
H229	H	0.684871	-0.525739	-0.636244
H230	H	1.018204	-0.192406	-0.302911
H231	H	1.351538	0.140928	0.030423
Cl232	Cl	0.788707	-0.288782	-0.350111
Cl233	Cl	1.122040	0.044552	-0.016778
Cl234	Cl	1.455373	0.377885	0.316556
Cl235	Cl	0.878782	-0.556102	-0.672882
Cl236	Cl	1.212115	-0.222769	-0.339549
Cl237	Cl	1.545449	0.110565	-0.006215
