data_functionalizedCrystal
_audit_creation_method	'MofGen! by Chris Wilmer'
_symmetry_space_group_name_H-M	'P1'
_symmetry_Int_Tables_number	1
_symmetry_cell_setting	triclinic
loop_
_symmetry_equiv_pos_as_xyz
  x,y,z
_cell_length_a	15.944545
_cell_length_b	14.519709
_cell_length_c	13.596369
_cell_angle_alpha	89.998664
_cell_angle_beta	90.003141
_cell_angle_gamma	96.411841
loop_
_atom_site_label
_atom_site_type_symbol
_atom_site_fract_x
_atom_site_fract_y
_atom_site_fract_z
O1	O	1.114702	-0.118908	0.081730
O2	O	1.364702	0.131092	0.331730
O3	O	1.614702	0.381092	0.581730
O4	O	1.864702	0.631092	0.831730
O5	O	0.870173	-0.133578	0.081746
O6	O	1.120173	0.116422	0.331746
O7	O	1.370173	0.366422	0.581746
O8	O	1.620173	0.616422	0.831746
O9	O	0.998921	0.008007	0.081729
O10	O	1.248921	0.258007	0.331729
O11	O	1.498921	0.508007	0.581729
O12	O	1.748921	0.758007	0.831729
O13	O	0.985954	-0.260493	0.081747
O14	O	1.235954	-0.010493	0.331747
O15	O	1.485954	0.239507	0.581747
O16	O	1.735954	0.489507	0.831747
O17	O	0.998905	0.007999	-0.081854
O18	O	1.248905	0.257999	0.168146
O19	O	1.498905	0.507999	0.418146
O20	O	1.748905	0.757999	0.668146
O21	O	0.870157	-0.133586	-0.081837
O22	O	1.120157	0.116414	0.168163
O23	O	1.370157	0.366414	0.418163
O24	O	1.620157	0.616414	0.668163
O25	O	1.114686	-0.118916	-0.081853
O26	O	1.364686	0.131084	0.168147
O27	O	1.614686	0.381084	0.418147
O28	O	1.864686	0.631084	0.668147
Zn29	Zn	0.992419	-0.126252	-0.107817
Zn30	Zn	1.242419	0.123748	0.142183
Zn31	Zn	1.492419	0.373748	0.392183
Zn32	Zn	1.742419	0.623748	0.642183
Zn33	Zn	0.992440	-0.126242	0.107710
Zn34	Zn	1.242440	0.123758	0.357710
Zn35	Zn	1.492440	0.373758	0.607710
Zn36	Zn	1.742440	0.623758	0.857710
O37	O	0.985939	-0.260501	-0.081836
O38	O	1.235939	-0.010501	0.168164
O39	O	1.485939	0.239499	0.418164
O40	O	1.735939	0.489499	0.668164
C41	C	0.838870	-0.132974	-0.000043
C42	C	1.088870	0.117026	0.249957
C43	C	1.338870	0.367026	0.499957
C44	C	1.588870	0.617026	0.749957
C45	C	0.745621	-0.131151	-0.000038
C46	C	0.995621	0.118849	0.249962
C47	C	1.245621	0.368849	0.499962
C48	C	1.495621	0.618849	0.749962
C49	C	0.474853	-0.037944	-0.000054
C50	C	0.724853	0.212056	0.249946
C51	C	0.974853	0.462056	0.499946
C52	C	1.224853	0.712056	0.749946
C53	C	0.525492	-0.082885	-0.080709
C54	C	0.775492	0.167115	0.169291
C55	C	1.025492	0.417115	0.419291
C56	C	1.275492	0.667115	0.669291
C57	C	0.409968	-0.124651	-0.000055
C58	C	0.659968	0.125349	0.249945
C59	C	0.909968	0.375349	0.499945
C60	C	1.159968	0.625349	0.749945
C61	C	0.525489	-0.082900	0.080571
C62	C	0.775489	0.167100	0.330571
C63	C	1.025489	0.417100	0.580571
C64	C	1.275489	0.667100	0.830571
C65	C	0.574886	-0.127840	-0.000045
C66	C	0.824886	0.122160	0.249955
C67	C	1.074886	0.372160	0.499955
C68	C	1.324886	0.622160	0.749955
C69	C	0.459379	-0.169569	-0.080776
C70	C	0.709379	0.080431	0.169224
C71	C	0.959379	0.330431	0.419224
C72	C	1.209379	0.580431	0.669224
C73	C	0.459372	-0.169572	0.080577
C74	C	0.709372	0.080428	0.330577
C75	C	0.959372	0.330428	0.580577
C76	C	1.209372	0.580428	0.830577
C77	C	0.509978	-0.214576	-0.000097
C78	C	0.759978	0.035424	0.249903
C79	C	1.009978	0.285424	0.499903
C80	C	1.259978	0.535424	0.749903
C81	C	0.314963	-0.122811	-0.000061
C82	C	0.564963	0.127189	0.249939
C83	C	0.814963	0.377189	0.499939
C84	C	1.064963	0.627189	0.749939
C85	C	0.669888	-0.129686	-0.000045
C86	C	0.919888	0.120314	0.249955
C87	C	1.169888	0.370314	0.499955
C88	C	1.419888	0.620314	0.749955
C89	C	0.998309	0.042362	-0.000063
C90	C	1.248309	0.292362	0.249937
C91	C	1.498309	0.542362	0.499937
C92	C	1.748309	0.792362	0.749937
C93	C	0.996498	0.144740	-0.000063
C94	C	1.246498	0.394740	0.249937
C95	C	1.496498	0.644740	0.499937
C96	C	1.746498	0.894740	0.749937
C97	C	1.145989	-0.119520	-0.000061
C98	C	1.395989	0.130480	0.249939
C99	C	1.645989	0.380480	0.499939
C100	C	1.895989	0.630480	0.749939
C101	C	1.239238	-0.121343	-0.000061
C102	C	1.489238	0.128657	0.249939
C103	C	1.739238	0.378657	0.499939
C104	C	1.989238	0.628657	0.749939
C105	C	0.986551	-0.294856	-0.000042
C106	C	1.236551	-0.044856	0.249958
C107	C	1.486551	0.205144	0.499958
C108	C	1.736551	0.455144	0.749958
C109	C	0.988362	-0.397234	-0.000035
C110	C	1.238362	-0.147234	0.249965
C111	C	1.488362	0.102766	0.499965
C112	C	1.738362	0.352766	0.749965
N113	N	0.992411	-0.126259	-0.254909
N114	N	1.242411	0.123741	-0.004909
N115	N	1.492411	0.373741	0.245091
N116	N	1.742411	0.623741	0.495091
C117	C	0.989831	0.519624	-0.000037
C118	C	1.239831	0.769624	0.249963
C119	C	1.489831	1.019624	0.499963
C120	C	1.739831	1.269624	0.749963
C121	C	0.991683	0.415319	-0.000045
C122	C	1.241683	0.665319	0.249955
C123	C	1.491683	0.915319	0.499955
C124	C	1.741683	1.165319	0.749955
C125	C	0.993165	0.332185	-0.000051
C126	C	1.243165	0.582185	0.249949
C127	C	1.493165	0.832185	0.499949
C128	C	1.743165	1.082185	0.749949
C129	C	0.995016	0.227874	-0.000057
C130	C	1.245016	0.477874	0.249943
C131	C	1.495016	0.727874	0.499943
C132	C	1.745016	0.977874	0.749943
C133	C	0.992416	-0.126261	-0.343907
C134	C	1.242416	0.123739	-0.093907
C135	C	1.492416	0.373739	0.156093
C136	C	1.742416	0.623739	0.406093
C137	C	0.992424	-0.126254	-0.455558
C138	C	1.242424	0.123746	-0.205558
C139	C	1.492424	0.373746	0.044442
C140	C	1.742424	0.623746	0.294442
C141	C	0.992435	-0.126244	-0.544549
C142	C	1.242435	0.123756	-0.294549
C143	C	1.492435	0.373756	-0.044549
C144	C	1.742435	0.623756	0.205451
C145	C	0.992444	-0.126238	-0.656207
C146	C	1.242444	0.123762	-0.406207
C147	C	1.492444	0.373762	-0.156207
C148	C	1.742444	0.623762	0.093793
N149	N	0.992455	-0.126228	0.254802
N150	N	1.242455	0.123772	0.504802
N151	N	1.492455	0.373772	0.754802
N152	N	1.742455	0.623772	1.004802
H153	H	0.554360	-0.046263	0.148754
H154	H	0.804360	0.203737	0.398754
H155	H	1.054360	0.453737	0.648754
H156	H	1.304360	0.703737	0.898754
H157	H	0.459092	0.036729	-0.000138
H158	H	0.709092	0.286729	0.249862
H159	H	0.959092	0.536729	0.499862
H160	H	1.209092	0.786729	0.749862
H161	H	0.554364	-0.046269	-0.148900
H162	H	0.804364	0.203731	0.101100
H163	H	1.054364	0.453731	0.351100
H164	H	1.304364	0.703731	0.601100
H165	H	0.430616	-0.206163	-0.149036
H166	H	0.680616	0.043837	0.100964
H167	H	0.930616	0.293837	0.350964
H168	H	1.180616	0.543837	0.600964
H169	H	0.430485	-0.206155	0.148771
H170	H	0.680485	0.043845	0.398771
H171	H	0.930485	0.293845	0.648771
H172	H	1.180485	0.543845	0.898771
H173	H	0.525578	-0.289307	-0.000139
H174	H	0.775578	-0.039307	0.249861
H175	H	1.025578	0.210693	0.499861
H176	H	1.275578	0.460693	0.749861
