data_functionalizedCrystal
_audit_creation_method	'MofGen! by Chris Wilmer'
_symmetry_space_group_name_H-M	'P1'
_symmetry_Int_Tables_number	1
_symmetry_cell_setting	triclinic
loop_
_symmetry_equiv_pos_as_xyz
  x,y,z
_cell_length_a	15.944551
_cell_length_b	15.944551
_cell_length_c	14.421503
_cell_angle_alpha	90.009752
_cell_angle_beta	90.000740
_cell_angle_gamma	83.498738
loop_
_atom_site_label
_atom_site_type_symbol
_atom_site_fract_x
_atom_site_fract_y
_atom_site_fract_z
O1	O	1.114524	0.108337	0.077017
O2	O	0.869975	0.121693	0.077040
O3	O	0.998928	-0.007260	0.077020
O4	O	0.985572	0.237290	0.077038
O5	O	0.998916	-0.007274	-0.077204
O6	O	0.869963	0.121679	-0.077183
O7	O	1.114513	0.108323	-0.077206
Cu8	Cu	0.992237	0.115000	-0.091277
Cu9	Cu	0.992251	0.115016	0.091110
O10	O	0.985560	0.237276	-0.077186
C11	C	0.838675	0.121132	-0.000069
C12	C	0.745429	0.119470	-0.000060
C13	C	0.530572	0.035565	-0.000084
C14	C	0.469558	0.074534	0.075959
C15	C	0.574703	0.116462	-0.000071
C16	C	0.469569	0.074540	-0.076093
C17	C	0.409790	0.113551	-0.000086
C18	C	0.514917	0.155454	0.076035
C19	C	0.514934	0.155448	-0.076086
C20	C	0.453937	0.194476	-0.000024
C21	C	0.669705	0.118137	-0.000062
C22	C	0.314789	0.111883	-0.000089
C23	C	0.998367	-0.038561	-0.000092
C24	C	0.996705	-0.131807	-0.000093
C25	C	0.912801	-0.346663	-0.000072
C26	C	0.951757	-0.407687	-0.076117
C27	C	0.993698	-0.302533	-0.000085
C28	C	0.951788	-0.407657	0.075935
C29	C	0.990787	-0.467445	-0.000074
C30	C	1.032677	-0.362328	-0.076193
C31	C	1.032696	-0.362292	0.075927
C32	C	1.071711	-0.423298	-0.000136
C33	C	0.995372	-0.207530	-0.000092
C34	C	0.989119	-0.562446	-0.000073
C35	C	1.145813	0.108885	-0.000096
C36	C	1.239059	0.110547	-0.000098
C37	C	0.986120	0.268577	-0.000072
C38	C	0.987782	0.361823	-0.000066
N39	N	0.992233	0.114988	-0.219558
C40	C	1.051414	0.054886	-0.530996
C41	C	1.068401	0.130556	-0.469156
C42	C	0.992252	0.115012	-0.591447
C43	C	0.975295	0.039332	-0.469193
C44	C	0.992245	0.114996	-0.408725
C45	C	1.009277	0.190721	-0.530968
C46	C	0.916138	0.099447	-0.531010
C47	C	0.933093	0.175172	-0.469198
C48	C	0.992258	0.115020	-0.696708
C49	C	0.992238	0.114997	-0.303467
N50	N	0.992261	0.115022	0.219392
H51	H	0.535060	0.189630	-0.140373
H52	H	0.449453	0.040324	0.140243
H53	H	1.023686	0.254731	-0.557990
H54	H	1.138919	-0.456457	-0.000186
H55	H	1.066859	-0.342344	-0.140554
H56	H	0.845652	-0.313356	-0.000141
C57	C	1.078889	-0.335081	0.162772
C58	C	1.159025	-0.290299	0.152414
C59	C	1.205210	-0.263086	0.239268
C60	C	1.171259	-0.280654	0.336478
C61	C	1.091119	-0.325439	0.346840
C62	C	1.044933	-0.352652	0.259986
H63	H	1.184161	-0.277291	0.080450
H64	H	1.264535	-0.229933	0.231597
H65	H	1.205448	-0.260509	0.400772
H66	H	1.065982	-0.338446	0.418804
H67	H	0.985608	-0.385805	0.267657
H68	H	0.917566	-0.427728	0.140230
H69	H	0.563905	-0.031573	0.000005
H70	H	0.449478	0.040303	-0.140379
C71	C	0.905531	-0.434870	-0.162958
C72	C	0.812522	-0.400678	-0.179654
C73	C	0.766290	-0.427857	-0.266490
C74	C	0.813066	-0.489228	-0.336630
C75	C	0.906080	-0.523424	-0.319936
C76	C	0.952312	-0.496245	-0.233100
H77	H	0.777891	-0.355244	-0.127730
H78	H	0.697434	-0.402543	-0.278847
H79	H	0.778842	-0.509348	-0.400911
H80	H	0.940711	-0.568858	-0.371859
H81	H	1.021168	-0.521559	-0.220742
H82	H	1.101481	0.004102	-0.558129
H83	H	1.132765	0.143721	-0.441987
C84	C	0.865498	0.243924	-0.432763
C85	C	0.891301	0.315134	-0.370450
C86	C	0.823711	0.383888	-0.334013
C87	C	0.730318	0.381432	-0.359888
C88	C	0.704511	0.310219	-0.422204
C89	C	0.772101	0.241465	-0.458641
H90	H	0.960440	0.316955	-0.351293
H91	H	0.842815	0.436605	-0.287883
H92	H	0.680284	0.432328	-0.332915
H93	H	0.635373	0.308398	-0.441361
H94	H	0.752997	0.188749	-0.504771
C95	C	0.541918	0.201645	0.162986
C96	C	0.475110	0.237761	0.233841
C97	C	0.502113	0.283948	0.320792
C98	C	0.595924	0.294018	0.336888
C99	C	0.662738	0.257901	0.266031
C100	C	0.635735	0.211714	0.179080
H101	H	0.405660	0.230307	0.221928
H102	H	0.452652	0.310684	0.373245
H103	H	0.615914	0.328209	0.401254
H104	H	0.732188	0.265355	0.277944
H105	H	0.685196	0.184978	0.126627
H106	H	0.420779	0.261683	0.000023
H107	H	0.851793	0.086258	-0.558199
H108	H	0.960955	-0.024663	-0.442056
