data_functionalizedCrystal
_audit_creation_method	'MofGen! by Chris Wilmer'
_symmetry_space_group_name_H-M	'P1'
_symmetry_Int_Tables_number	1
_symmetry_cell_setting	triclinic
loop_
_symmetry_equiv_pos_as_xyz
  x,y,z
_cell_length_a	22.610064
_cell_length_b	12.837943
_cell_length_c	12.837942
_cell_angle_alpha	85.171060
_cell_angle_beta	89.994876
_cell_angle_gamma	89.992063
loop_
_atom_site_label
_atom_site_type_symbol
_atom_site_fract_x
_atom_site_fract_y
_atom_site_fract_z
O1	O	0.049173	-1.402342	0.272127
O2	O	0.049177	-1.099208	0.258684
O3	O	0.049172	-1.244053	0.113838
O4	O	0.049179	-1.257497	0.416972
O5	O	-0.049198	-1.244027	0.113859
O6	O	-0.049192	-1.099182	0.258704
O7	O	-0.049196	-1.402316	0.272148
Zn8	Zn	-0.064812	-1.250745	0.265429
Zn9	Zn	0.064793	-1.250779	0.265402
O10	O	-0.049190	-1.257470	0.416993
C11	C	-0.000007	-1.060126	0.254153
C12	C	-0.000006	-0.943711	0.240608
N13	N	-0.153265	-1.250729	0.265448
C14	C	-0.000013	-1.239499	0.074780
C15	C	-0.000011	-1.225954	-0.041635
C16	C	-0.561908	-1.314921	0.201276
C17	C	-0.623828	-1.314925	0.201269
O18	O	-0.655849	-1.369461	0.146718
N19	N	-0.654802	-1.250776	0.265380
C20	C	-0.623852	-1.186610	0.329495
O21	O	-0.655883	-1.132046	0.384025
C22	C	-0.561933	-1.186601	0.329496
C23	C	-0.530963	-1.250762	0.265388
C24	C	-0.530938	-1.379076	0.137172
C25	C	-0.469022	-1.379073	0.137181
C26	C	-0.438077	-1.314914	0.201293
C27	C	-0.469047	-1.250759	0.265397
C28	C	-0.530985	-1.122430	0.393604
C29	C	-0.469062	-1.122426	0.393599
C30	C	-0.438092	-1.186587	0.329491
C31	C	-0.376187	-1.186597	0.329518
N32	N	-0.345213	-1.250746	0.265406
C33	C	-0.376158	-1.314905	0.201294
C34	C	-0.753886	-1.186633	0.329487
C35	C	-0.815803	-1.186647	0.329493
C36	C	-0.815775	-1.314961	0.201265
C37	C	-0.753857	-1.314952	0.201265
C38	C	-0.722912	-1.250783	0.265376
C39	C	-0.246131	-1.314893	0.201318
C40	C	-0.184210	-1.314887	0.201336
C41	C	-0.184243	-1.186570	0.329559
C42	C	-0.246159	-1.186579	0.329546
C43	C	-0.277101	-1.250744	0.265417
O44	O	-0.344126	-1.132086	0.384037
O45	O	-0.344120	-1.369450	0.146763
N46	N	0.153246	-1.250802	0.265376
C47	C	-0.000010	-1.441398	0.276679
C48	C	-0.000008	-1.557813	0.290223
C49	C	-0.000011	-0.718837	0.403437
C50	C	-0.000010	-0.609454	0.390716
C51	C	-0.000008	-0.615562	0.202445
C52	C	-0.000009	-0.724944	0.215166
C53	C	-0.000009	-0.776578	0.315666
C54	C	-0.000006	-0.885962	0.328386
C55	C	-0.000008	-0.892067	0.140116
C56	C	-0.000007	-0.782685	0.127395
C57	C	-0.000001	-1.388784	-0.266510
C58	C	0.000000	-1.376062	-0.375892
C59	C	-0.000004	-1.187791	-0.369785
C60	C	-0.000005	-1.200513	-0.260402
C61	C	-0.000004	-1.301012	-0.208769
C62	C	-0.000010	-1.313732	-0.099384
C63	C	-0.000010	-1.125462	-0.093279
C64	C	-0.000008	-1.112741	-0.202661
C65	C	-0.000005	-1.262025	0.456052
C66	C	-0.000002	-1.275569	0.572467
H67	H	-0.271317	-1.367141	0.149097
H68	H	-0.000012	-1.395564	-0.057346
C69	C	0.000120	-1.497915	-0.210496
C70	C	0.050737	-1.551618	-0.238928
C71	C	0.050873	-1.652148	-0.187340
H72	H	-0.034143	-1.534632	-0.229628
H73	H	0.000152	-1.492962	-0.137074
H74	H	0.050699	-1.556576	-0.312334
H75	H	0.085008	-1.514933	-0.219795
H76	H	0.050905	-1.647195	-0.113918
H77	H	0.016608	-1.688854	-0.206476
H78	H	0.085218	-1.688594	-0.206616
H79	H	-0.443810	-1.431315	0.084976
H80	H	0.000002	-1.105969	-0.411844
H81	H	-0.000010	-0.760878	0.485268
C82	C	-0.000041	-1.003718	-0.258918
C83	C	-0.000053	-1.011361	-0.367070
C84	C	-0.000094	-0.910949	-0.418924
H85	H	0.034250	-0.967035	-0.239864
H86	H	-0.034361	-0.967109	-0.239795
H87	H	0.034263	-1.047955	-0.386186
H88	H	-0.034342	-1.048026	-0.386155
H89	H	-0.034414	-0.874340	-0.399800
H90	H	0.034198	-0.874274	-0.399861
H91	H	-0.000107	-0.916121	-0.492310
H92	H	-0.728644	-1.367197	0.149063
C93	C	-0.849350	-1.384795	0.131784
C94	C	-0.834296	-1.489345	0.158993
C95	C	-0.865221	-1.553701	0.095025
H96	H	-0.839227	-1.366662	0.060756
H97	H	-0.890667	-1.375674	0.140980
H98	H	-0.792989	-1.498461	0.149788
H99	H	-0.844421	-1.507509	0.230010
H100	H	-0.906538	-1.544581	0.104221
H101	H	-0.855095	-1.535560	0.024001
H102	H	-0.855016	-1.624646	0.113484
C103	C	-0.564422	-1.448858	0.067527
C104	C	-0.524035	-1.505050	0.011416
C105	C	-0.554853	-1.569365	-0.052739
H106	H	-0.588583	-1.407028	0.020111
H107	H	-0.588558	-1.496216	0.109494
H108	H	-0.499909	-1.457698	-0.030548
H109	H	-0.499873	-1.546900	0.058806
H110	H	-0.578989	-1.616724	-0.010771
H111	H	-0.579013	-1.527527	-0.100148
H112	H	-0.527455	-1.607506	-0.090810
C113	C	-0.000044	-1.030028	-0.030773
C114	C	-0.000060	-0.939298	-0.099408
C115	C	-0.000104	-0.851368	-0.041866
H116	H	0.034247	-1.030933	0.012035
H117	H	-0.034364	-1.031015	0.012002
H118	H	0.034256	-0.938311	-0.142165
H119	H	-0.034349	-0.938359	-0.142217
H120	H	-0.034424	-0.852355	0.000909
H121	H	0.034188	-0.852283	0.000939
H122	H	-0.000120	-0.789798	-0.088426
C123	C	-0.150693	-1.384584	0.131613
C124	C	-0.191051	-1.440747	0.075444
C125	C	-0.160200	-1.504947	0.011196
H126	H	-0.126535	-1.431968	0.173488
H127	H	-0.126551	-1.342644	0.084240
H128	H	-0.215183	-1.482683	0.122811
H129	H	-0.215210	-1.393389	0.033549
H130	H	-0.136058	-1.463007	-0.036177
H131	H	-0.136043	-1.552324	0.053079
H132	H	-0.187578	-1.543053	-0.026929
H133	H	-0.841015	-1.134413	0.381707
H134	H	-0.728694	-1.134382	0.381702
C135	C	-0.564492	-1.052651	0.463242
C136	C	-0.524127	-0.996447	0.519354
C137	C	-0.554970	-0.932141	0.583507
H138	H	-0.588648	-1.094489	0.510656
H139	H	-0.588635	-1.005301	0.421273
H140	H	-0.499994	-1.043792	0.561320
H141	H	-0.499969	-0.954589	0.471966
H142	H	-0.579113	-0.884790	0.541539
H143	H	-0.579125	-0.973987	0.630916
H144	H	-0.527587	-0.893992	0.621580
C145	C	-0.435390	-1.052929	0.463279
C146	C	-0.399832	-1.115010	0.532895
C147	C	-0.368801	-1.051029	0.597092
H148	H	-0.462639	-1.014703	0.501554
H149	H	-0.411203	-1.005650	0.421324
H150	H	-0.424018	-1.162271	0.574846
H151	H	-0.372573	-1.153235	0.494649
H152	H	-0.344613	-1.003750	0.555136
H153	H	-0.396054	-1.012806	0.635359
H154	H	-0.344667	-1.093141	0.644327
H155	H	-0.159038	-1.134336	0.381762
H156	H	-0.000007	-0.928000	0.410218
C157	C	-0.000037	-0.559683	0.093253
C158	C	-0.000049	-0.633659	0.019101
C159	C	-0.000082	-0.582223	-0.081498
H160	H	0.034256	-0.517146	0.084230
H161	H	-0.034355	-0.517158	0.084329
H162	H	0.034266	-0.676166	0.028021
H163	H	-0.034340	-0.676200	0.028090
H164	H	-0.034400	-0.539698	-0.090422
H165	H	0.034212	-0.539687	-0.090509
H166	H	-0.000096	-0.632407	-0.131821
H167	H	-0.000013	-0.562446	0.462189
H168	H	-0.000014	-0.740630	0.045571
H169	H	0.000005	-1.447536	-0.422901
C170	C	-0.279681	-1.116805	0.399180
C171	C	-0.239324	-1.060599	0.455309
C172	C	-0.270178	-0.996289	0.519445
H173	H	-0.303844	-1.158640	0.446585
H174	H	-0.303817	-1.069455	0.357198
H175	H	-0.215198	-1.107943	0.497288
H176	H	-0.215160	-1.018743	0.407931
H177	H	-0.294314	-0.948940	0.477463
H178	H	-0.294339	-1.038133	0.566844
H179	H	-0.242800	-0.958139	0.557529
H180	H	-0.000003	-0.939092	0.068646
