data_functionalizedCrystal
_audit_creation_method	'MofGen! by Chris Wilmer'
_symmetry_space_group_name_H-M	'P1'
_symmetry_Int_Tables_number	1
_symmetry_cell_setting	triclinic
loop_
_symmetry_equiv_pos_as_xyz
  x,y,z
_cell_length_a	29.839134
_cell_length_b	29.839131
_cell_length_c	16.120297
_cell_angle_alpha	87.132273
_cell_angle_beta	87.131193
_cell_angle_gamma	90.036281
loop_
_atom_site_label
_atom_site_type_symbol
_atom_site_fract_x
_atom_site_fract_y
_atom_site_fract_z
Zn1	Zn	0.673863	-0.191811	0.471576
Zn2	Zn	0.677596	-0.263129	0.332158
Zn3	Zn	0.602547	-0.188007	0.332157
Zn4	Zn	0.598696	-0.266905	0.471498
O5	O	0.638176	-0.227463	0.401847
O6	O	0.737225	-0.201282	0.453114
O7	O	0.670815	-0.249991	0.215496
O8	O	0.612057	-0.125645	0.350683
O9	O	0.739967	-0.253680	0.350685
O10	O	0.664452	-0.128440	0.453114
O11	O	0.615676	-0.194799	0.215496
O12	O	0.539170	-0.198461	0.350608
O13	O	0.605493	-0.260116	0.588170
O14	O	0.536341	-0.256428	0.452982
O15	O	0.660718	-0.204944	0.588227
O16	O	0.667081	-0.326496	0.350610
O17	O	0.609113	-0.329271	0.452982
C18	C	0.521455	-0.227442	0.401787
C19	C	0.471520	-0.227445	0.401781
C20	C	0.160413	-0.257687	0.455088
C21	C	-0.027261	-0.257700	0.455125
O22	O	-0.052769	-0.283391	0.500412
N23	N	-0.049268	-0.227481	0.401910
C24	C	-0.024354	-0.197254	0.348686
O25	O	-0.047379	-0.171548	0.303431
C26	C	0.163319	-0.197239	0.348654
C27	C	0.185324	-0.227463	0.401866
C28	C	0.182418	-0.287908	0.508296
C29	C	0.229334	-0.287906	0.508283
C30	C	0.254245	-0.257683	0.455062
C31	C	0.232240	-0.227461	0.401853
C32	C	0.188232	-0.167010	0.295435
C33	C	0.235153	-0.167008	0.295433
C34	C	0.257158	-0.197232	0.348645
C35	C	0.304066	-0.197235	0.348619
N36	N	0.326074	-0.227455	0.401833
C37	C	0.301163	-0.257678	0.455055
C38	C	-0.122885	-0.197265	0.348706
C39	C	-0.169803	-0.197269	0.348713
C40	C	-0.172707	-0.257715	0.455152
C41	C	-0.125788	-0.257713	0.455141
C42	C	-0.100878	-0.227484	0.401920
C43	C	0.399690	-0.257672	0.455023
C44	C	0.446610	-0.257668	0.455003
C45	C	0.449509	-0.197221	0.348566
C46	C	0.402593	-0.197226	0.348583
C47	C	0.377684	-0.227453	0.401818
O48	O	0.329603	-0.171555	0.303361
O49	O	0.324196	-0.283374	0.500317
C50	C	0.113497	-0.257689	0.455101
C51	C	0.091492	-0.227467	0.401892
C52	C	0.116403	-0.197244	0.348671
C53	C	0.044574	-0.227472	0.401899
C54	C	0.019664	-0.257695	0.455121
C55	C	0.041671	-0.287915	0.508335
C56	C	0.088587	-0.287912	0.508322
C57	C	0.094396	-0.167024	0.295456
C58	C	0.047480	-0.167029	0.295473
C59	C	0.022569	-0.197253	0.348694
C60	C	0.638096	-0.344184	0.401806
C61	C	0.638102	-0.394119	0.401816
C62	C	0.668410	-0.702308	0.348620
C63	C	0.668464	-0.889982	0.348652
O64	O	0.694169	-0.913009	0.303391
N65	N	0.638267	-0.914907	0.401910
C66	C	0.608056	-0.892910	0.455168
O67	O	0.582376	-0.918417	0.500474
C68	C	0.608004	-0.705237	0.455139
C69	C	0.638200	-0.680315	0.401871
C70	C	0.698603	-0.677385	0.295357
C71	C	0.698588	-0.630470	0.295346
C72	C	0.668378	-0.608476	0.348598
C73	C	0.638184	-0.633399	0.401861
C74	C	0.577796	-0.683242	0.508400
C75	C	0.577786	-0.636321	0.508390
C76	C	0.607982	-0.611398	0.455122
C77	C	0.607959	-0.564490	0.455102
N78	N	0.638156	-0.539565	0.401844
C79	C	0.668366	-0.561558	0.348592
C80	C	0.608085	-0.991441	0.455178
C81	C	0.608097	-1.038359	0.455184
C82	C	0.668506	-1.035427	0.348669
C83	C	0.668491	-0.988509	0.348660
C84	C	0.638282	-0.966516	0.401920
C85	C	0.668331	-0.463032	0.348573
C86	C	0.668311	-0.416112	0.348564
C87	C	0.607904	-0.419048	0.455082
C88	C	0.607922	-0.465964	0.455088
C89	C	0.638139	-0.487954	0.401830
O90	O	0.582271	-0.541433	0.500346
O91	O	0.694049	-0.536044	0.303306
C92	C	0.668425	-0.749224	0.348630
C93	C	0.638231	-0.774146	0.401893
C94	C	0.608022	-0.752153	0.455145
C95	C	0.638244	-0.821064	0.401899
C96	C	0.668453	-0.843057	0.348648
C97	C	0.698650	-0.818133	0.295389
C98	C	0.698635	-0.771217	0.295379
C99	C	0.577825	-0.777078	0.508403
C100	C	0.577842	-0.823993	0.508409
C101	C	0.608052	-0.845987	0.455157
C102	C	0.755352	-0.227484	0.401908
C103	C	0.805286	-0.227493	0.401934
C104	C	0.632260	-0.233376	0.619293
C105	C	0.629739	-0.235896	0.711956
C106	C	0.638268	-0.110286	0.401907
C107	C	0.638307	-0.060352	0.401933
C108	C	0.644094	-0.221540	0.185247
C109	C	0.646703	-0.218894	0.092585
C110	C	0.625119	-0.240486	0.881611
C111	C	0.651320	-0.214305	0.922935
C112	C	0.648750	-0.216859	1.017337
C113	C	0.627689	-0.237933	0.787201
H114	H	0.379414	-0.282285	0.498374
H115	H	0.106499	-0.312524	0.551654
H116	H	0.723177	-0.610180	0.251974
H117	H	0.600760	-0.264818	0.917129
O118	O	0.014816	-0.320546	0.565705
H119	H	0.022056	-0.314702	0.631171
H120	H	0.029568	-0.142417	0.252133
H121	H	0.675682	-0.189971	0.887415
O122	O	0.545271	-0.850874	0.565861
H123	H	0.551169	-0.843627	0.631302
H124	H	0.723247	-0.836048	0.252028
H125	H	0.583505	-1.058647	0.498552
H126	H	0.464524	-0.282282	0.498335
O127	O	0.545231	-0.753358	0.565823
H128	H	0.524234	-0.778576	0.602845
H129	H	0.247246	-0.312517	0.551616
H130	H	0.255432	-0.142389	0.252098
O131	O	0.155556	-0.320558	0.565607
H132	H	0.178748	-0.341588	0.602561
O133	O	0.731188	-0.701106	0.237919
H134	H	0.725284	-0.690340	0.172475
O135	O	-0.102054	-0.290306	0.512541
H136	H	-0.127263	-0.311320	0.549551
H137	H	0.583484	-0.973538	0.498550
H138	H	0.693079	-0.968219	0.305285
H139	H	0.553205	-0.703526	0.551773
O140	O	-0.199553	-0.290335	0.512559
H141	H	-0.222067	-0.271441	0.555075
O142	O	-0.193536	-0.164673	0.291316
H143	H	-0.168327	-0.143654	0.254316
H144	H	-0.102608	-0.172649	0.305363
H145	H	0.384676	-0.172616	0.305252
O146	O	0.164504	-0.134407	0.238049
H147	H	0.189715	-0.113389	0.201055
O148	O	0.476380	-0.164621	0.291168
H149	H	0.512701	-0.169696	0.300112
O150	O	0.121262	-0.134434	0.238032
H151	H	0.098072	-0.113428	0.201026
H152	H	0.692937	-0.480931	0.305207
O153	O	0.700884	-0.389230	0.291116
H154	H	0.721896	-0.412409	0.254098
H155	H	0.693104	-1.053342	0.305310
O156	O	0.545198	-0.612599	0.565826
H157	H	0.524202	-0.637815	0.602855
H158	H	0.583335	-0.486257	0.498465
H159	H	0.583307	-0.401134	0.498436
O160	O	0.731207	-0.744338	0.237935
H161	H	0.752217	-0.767521	0.200919
