data_functionalizedCrystal
_audit_creation_method	'MofGen! by Chris Wilmer'
_symmetry_space_group_name_H-M	'P1'
_symmetry_Int_Tables_number	1
_symmetry_cell_setting	triclinic
loop_
_symmetry_equiv_pos_as_xyz
  x,y,z
_cell_length_a	17.019282
_cell_length_b	27.732048
_cell_length_c	16.098538
_cell_angle_alpha	92.695138
_cell_angle_beta	91.140572
_cell_angle_gamma	83.017024
loop_
_atom_site_label
_atom_site_type_symbol
_atom_site_fract_x
_atom_site_fract_y
_atom_site_fract_z
O1	O	1.045635	0.061727	0.005752
O2	O	0.816718	0.069074	-0.010674
O3	O	0.938285	-0.004952	-0.001935
O4	O	0.924068	0.135753	-0.002987
O5	O	0.931184	-0.000645	0.136068
O6	O	0.809617	0.073381	0.127329
O7	O	1.038534	0.066034	0.143755
Zn8	Zn	0.922948	0.070392	0.157453
Zn9	Zn	0.932304	0.064717	-0.024371
O10	O	0.916966	0.140061	0.135016
C11	C	0.783890	0.070865	0.056227
C12	C	0.696652	0.069780	0.049968
C13	C	0.651801	0.071616	0.122254
C14	C	0.569833	0.070589	0.116376
C15	C	0.532717	0.067728	0.038210
C16	C	0.577574	0.065889	-0.034082
C17	C	0.659541	0.066914	-0.028203
C18	C	0.285424	0.064514	0.016694
C19	C	0.203451	0.063492	0.010820
C20	C	0.195716	0.068190	0.161278
C21	C	0.277684	0.069217	0.167151
C22	C	0.322535	0.067376	0.094859
C23	C	0.448933	0.066679	0.032199
C24	C	0.406318	0.068422	0.100871
C25	C	0.934436	-0.020807	0.067047
C26	C	0.933537	-0.074467	0.066990
C27	C	0.999720	-0.412880	0.071696
C28	C	0.996386	-0.614560	0.071445
O29	O	1.056905	-0.645447	0.075751
N30	N	0.924301	-0.634124	0.066273
C31	C	0.853044	-0.603265	0.061159
O32	O	0.791656	-0.624533	0.056745
C33	C	0.856380	-0.401585	0.061404
C34	C	0.928469	-0.382024	0.066584
C35	C	1.071803	-0.393318	0.076875
C36	C	1.072636	-0.342901	0.076942
C37	C	1.001385	-0.312045	0.071830
C38	C	0.929301	-0.331607	0.066651
C39	C	0.785124	-0.370727	0.056283
C40	C	0.785965	-0.320305	0.056342
C41	C	0.858054	-0.300744	0.061523
C42	C	0.858883	-0.250334	0.061606
N43	N	0.930968	-0.230770	0.066778
C44	C	1.002219	-0.261626	0.071890
C45	C	0.851298	-0.709149	0.061032
C46	C	0.850464	-0.759569	0.060972
C47	C	0.993806	-0.770861	0.071257
C48	C	0.994639	-0.720440	0.071323
C49	C	0.923383	-0.689585	0.066204
C50	C	1.003962	-0.155745	0.072032
C51	C	1.004788	-0.105323	0.072102
C52	C	0.861447	-0.094036	0.061812
C53	C	0.860620	-0.144453	0.061747
C54	C	0.931884	-0.175307	0.066854
O55	O	0.798397	-0.219419	0.057293
O56	O	1.063600	-0.240348	0.076284
C57	C	0.998887	-0.463297	0.071629
C58	C	0.926804	-0.482859	0.066450
C59	C	0.855553	-0.452003	0.061338
C60	C	0.925970	-0.533278	0.066390
C61	C	0.997221	-0.564134	0.071502
C62	C	1.069306	-0.544570	0.076674
C63	C	1.070138	-0.494152	0.076741
C64	C	0.783468	-0.471567	0.056166
C65	C	0.782641	-0.521985	0.056100
C66	C	0.853892	-0.552840	0.061212
C67	C	1.071362	0.064243	0.076852
C68	C	1.158600	0.065328	0.083106
C69	C	0.920816	0.155916	0.066032
C70	C	0.921715	0.209576	0.066084
N71	N	0.916568	0.074264	0.281543
N72	N	0.938690	0.060840	-0.148462
C73	C	0.968185	0.042856	0.328839
C74	C	0.963729	0.045570	0.415708
C75	C	0.907660	0.079695	0.455279
C76	C	0.856038	0.111105	0.407977
C77	C	0.860490	0.108388	0.321110
C78	C	0.891520	0.089534	0.717369
C79	C	0.887073	0.092249	0.804243
C80	C	0.994764	0.026713	0.811967
C81	C	0.999214	0.024001	0.725098
C82	C	0.947589	0.055410	0.677803
C83	C	0.903106	0.082470	0.544073
C84	C	0.952140	0.052631	0.589011
H85	H	1.063494	-0.089399	0.076323
F86	F	0.409428	0.063617	-0.050989
F87	F	0.785621	-0.061188	0.056372
F88	F	0.691294	0.074665	0.205450
F89	F	0.805550	0.141816	0.270775
F90	F	0.796360	0.147421	0.450093
H91	H	0.696058	0.065419	-0.087066
H92	H	0.307899	0.071545	0.230802
H93	H	0.791761	-0.775491	0.056768
F94	F	0.445822	0.071465	0.184058
H95	H	1.051821	-0.795992	0.075420
H96	H	1.005759	0.019994	0.454215
F97	F	1.011808	0.016312	0.546895
H98	H	0.849486	0.115108	0.678868
H99	H	0.801918	-0.160380	0.057551
F100	F	1.058890	-0.012318	0.682984
F101	F	0.775453	-0.676317	0.055583
H102	H	0.857455	0.110257	0.576300
F103	F	0.708396	-0.391535	0.050765
H104	H	1.127320	-0.569701	0.080840
H105	H	0.533321	0.072076	0.175239
F106	F	0.163951	0.060448	-0.072379
F107	F	0.147978	0.070148	0.238211
F108	F	0.538074	0.062830	-0.117273
F109	F	0.705908	-0.542797	0.050591
H110	H	1.128840	-0.478231	0.080959
H111	H	1.053340	-0.704517	0.075541
F112	F	1.079809	-0.188576	0.077467
H113	H	1.131338	-0.326979	0.081157
F114	F	1.147645	-0.426150	0.082316
H115	H	1.036793	0.001141	0.850482
H116	H	0.321932	0.063014	-0.042172
H117	H	0.727938	-0.295185	0.052172
F118	F	0.707628	-0.438735	0.050722
F119	F	1.027866	0.006537	0.286732
F120	F	0.827394	0.128572	0.846352
