data_functionalizedCrystal
_audit_creation_method	'MofGen! by Chris Wilmer'
_symmetry_space_group_name_H-M	'P1'
_symmetry_Int_Tables_number	1
_symmetry_cell_setting	triclinic
loop_
_symmetry_equiv_pos_as_xyz
  x,y,z
_cell_length_a	12.594517
_cell_length_b	12.594516
_cell_length_c	21.395356
_cell_angle_alpha	89.978924
_cell_angle_beta	89.993050
_cell_angle_gamma	90.011939
loop_
_atom_site_label
_atom_site_type_symbol
_atom_site_fract_x
_atom_site_fract_y
_atom_site_fract_z
Zn1	Zn	1.627219	-0.423881	-0.354133
Zn2	Zn	1.627124	-0.601875	-0.249368
Zn3	Zn	1.449237	-0.423898	-0.249387
Zn4	Zn	1.449205	-0.601805	-0.354126
O5	O	1.538197	-0.512865	-0.301754
O6	O	1.776152	-0.447514	-0.340231
O7	O	1.603501	-0.578303	-0.161693
O8	O	1.472900	-0.274950	-0.263292
O9	O	1.776083	-0.578286	-0.263261
O10	O	1.603663	-0.274937	-0.340249
O11	O	1.472808	-0.447544	-0.161707
O12	O	1.300287	-0.447476	-0.263286
O13	O	1.472846	-0.578166	-0.441805
O14	O	1.300264	-0.578183	-0.340237
O15	O	1.603632	-0.447446	-0.441810
O16	O	1.603470	-0.750812	-0.263254
O17	O	1.472754	-0.750760	-0.340219
C18	C	1.261656	-0.512825	-0.301763
C19	C	1.143350	-0.512833	-0.301782
C20	C	1.074115	-0.584064	-0.343555
C21	C	1.003305	-0.487020	-0.358963
C22	C	1.003362	-0.609957	-0.286360
C23	C	1.074098	-0.415738	-0.317220
C24	C	1.074161	-0.538740	-0.244591
C25	C	1.003383	-0.441629	-0.259977
C26	C	1.538127	-0.789406	-0.301747
C27	C	1.538194	-0.907711	-0.301766
C28	C	1.467091	-0.976975	-0.343598
C29	C	1.441165	-1.047830	-0.286428
C30	C	1.564217	-1.047655	-0.358945
C31	C	1.512217	-0.977008	-0.244566
C32	C	1.635314	-0.976827	-0.317121
C33	C	1.609426	-1.047650	-0.259913
C34	C	1.815817	-0.512906	-0.301744
C35	C	1.934123	-0.512923	-0.301740
C36	C	1.538296	-0.235244	-0.301773
C37	C	1.538338	-0.116938	-0.301782
C38	C	1.538246	-0.512796	-0.465177
C39	C	1.538267	-0.512767	-0.534818
C40	C	1.606467	-0.444532	-1.036618
C41	C	1.606459	-0.444557	-0.971183
C42	C	1.538358	-0.512625	-0.938457
C43	C	1.470280	-0.580692	-0.971171
C44	C	1.470298	-0.580672	-1.036606
C45	C	1.442432	-0.521048	-0.834791
C46	C	1.442412	-0.521060	-0.769358
C47	C	1.538304	-0.512694	-0.736636
C48	C	1.634218	-0.504292	-0.769355
C49	C	1.634236	-0.504272	-0.834789
C50	C	1.538332	-0.512655	-0.867504
C51	C	1.606374	-0.444664	-0.632976
C52	C	1.606367	-0.444697	-0.567540
C53	C	1.470179	-0.580827	-0.567530
C54	C	1.470195	-0.580799	-0.632965
C55	C	1.538291	-0.512712	-0.665684
C56	C	1.538209	-0.512856	-0.138966
C57	C	1.538394	-0.512585	-0.069325
H58	H	0.972284	-0.692054	-0.273336
Cl59	Cl	1.384609	-0.666355	-0.674085
Cl60	Cl	1.122071	-0.676891	-0.398162
Cl61	Cl	1.314456	-1.095979	-0.266378
H62	H	1.414734	-0.636253	-0.540885
H63	H	1.661921	-0.389095	-1.063254
H64	H	1.717361	-0.945619	-0.330124
H65	H	1.490170	-0.946103	-0.196203
Cl66	Cl	1.702359	-1.095263	-0.205246
H67	H	1.364313	-0.527901	-0.742723
H68	H	1.586169	-1.078688	-0.407294
H69	H	0.972181	-0.465140	-0.407311
Cl70	Cl	0.955728	-0.348584	-0.205408
H71	H	1.364340	-0.527862	-0.861427
H72	H	1.661892	-0.389136	-0.944548
Cl73	Cl	1.754808	-0.493726	-0.875920
H74	H	1.712302	-0.497475	-0.742714
H75	H	1.414834	-0.636116	-0.944522
Cl76	Cl	1.691960	-0.359053	-0.674112
Cl77	Cl	1.121863	-0.288946	-0.337418
H78	H	1.661808	-0.389283	-0.540911
Cl79	Cl	1.122215	-0.572546	-0.169954
Cl80	Cl	1.374095	-0.929057	-0.398136
H81	H	1.414863	-0.636092	-1.063235
