data_functionalizedCrystal
_audit_creation_method	'MofGen! by Chris Wilmer'
_symmetry_space_group_name_H-M	'P1'
_symmetry_Int_Tables_number	1
_symmetry_cell_setting	triclinic
loop_
_symmetry_equiv_pos_as_xyz
  x,y,z
_cell_length_a	6.817900
_cell_length_b	16.256275
_cell_length_c	17.110486
_cell_angle_alpha	96.309745
_cell_angle_beta	99.060439
_cell_angle_gamma	103.500333
loop_
_atom_site_label
_atom_site_type_symbol
_atom_site_fract_x
_atom_site_fract_y
_atom_site_fract_z
V1	V	-3.976952	-0.116841	-0.247001
O2	O	-3.965371	0.005874	-0.242009
O3	O	-3.928851	-0.231926	-0.245590
O4	O	-3.906809	-0.114930	-0.354600
O5	O	-3.987565	-0.111932	-0.132246
V6	V	-4.463359	-0.102177	-0.233242
O7	O	-4.231885	-0.149010	-0.277184
O8	O	-4.658623	-0.070008	-0.203059
O9	O	-4.288253	0.012908	-0.234652
O10	O	-4.592337	-0.224892	-0.238233
O11	O	-4.570142	-0.107086	-0.347997
O12	O	-4.310295	-0.104088	-0.125643
C13	C	-3.774628	-0.259985	-0.241766
C14	C	-3.816442	-0.354068	-0.241330
C15	C	-4.106770	-0.585887	-0.244391
C16	C	-4.060268	-0.650793	-0.307634
C17	C	-3.892907	-0.526317	-0.240517
C18	C	-4.013899	-0.629051	-0.176513
C19	C	-3.966781	-0.692701	-0.239729
C20	C	-3.845872	-0.589993	-0.303820
C21	C	-3.799507	-0.568237	-0.172641
C22	C	-3.752860	-0.633117	-0.235896
C23	C	-3.850355	-0.430467	-0.240972
C24	C	-4.009319	-0.788550	-0.239280
C25	C	-3.746510	-0.110744	-0.380817
C26	C	-3.770446	-0.109943	-0.468781
C27	C	-3.962989	-0.113791	-0.514148
C28	C	-3.985467	-0.113037	-0.596800
C29	C	-3.815403	-0.108443	-0.634083
C30	C	-3.622843	-0.104592	-0.588710
C31	C	-3.600365	-0.105340	-0.506059
C32	C	-3.874201	-0.105970	-0.883432
C33	C	-3.896697	-0.105226	-0.966089
C34	C	-4.259319	-0.113670	-0.974173
C35	C	-4.236826	-0.114421	-0.891521
C36	C	-4.044267	-0.110566	-0.846154
C37	C	-3.838376	-0.107676	-0.718567
C38	C	-4.021293	-0.111328	-0.761672
C39	C	-4.105819	0.040963	-0.238475
C40	C	-4.043242	0.135044	-0.238916
C41	C	-4.133937	-0.108277	-0.099422
C42	C	-4.089240	-0.109074	-0.011457
H43	H	-3.603493	-0.653848	-0.232319
H44	H	-4.085387	-0.646498	-0.122713
C45	C	-3.770159	-0.100343	-1.089201
C46	C	-3.709749	-0.100176	-1.007075
H47	H	-3.654754	-0.097233	-1.114504
H48	H	-3.824057	-0.052385	-1.097059
H49	H	-3.872614	-0.151535	-1.111741
H50	H	-3.607305	-0.048981	-0.984534
H51	H	-3.655820	-0.148138	-0.999212
H52	H	-3.688944	-0.532390	-0.115570
C53	C	-4.300940	-0.194293	-0.506432
C54	C	-4.149937	-0.118842	-0.473172
H55	H	-4.416359	-0.197405	-0.481138
H56	H	-4.247033	-0.242247	-0.498565
H57	H	-4.341858	-0.194388	-0.562148
H58	H	-4.109008	-0.118750	-0.417456
H59	H	-4.203851	-0.070875	-0.481031
C60	C	-4.185316	-0.044010	-0.683606
C61	C	-4.197109	-0.117266	-0.646673
H62	H	-4.315982	-0.046619	-0.714393
H63	H	-4.087253	-0.041171	-0.717631
H64	H	-4.144745	0.005439	-0.643837
H65	H	-4.237665	-0.166715	-0.686442
H66	H	-4.295204	-0.120114	-0.612646
H67	H	-4.375314	-0.118162	-0.861171
H68	H	-3.484373	-0.100846	-0.619072
H69	H	-4.416093	-0.116807	-1.011120
H70	H	-3.774543	-0.572663	-0.357684
H71	H	-3.717426	-0.102861	-0.846509
C72	C	-3.617539	-0.028869	-0.796005
C73	C	-3.651455	-0.102634	-0.759558
H74	H	-3.502151	-0.025759	-0.821318
H75	H	-3.592003	0.020229	-0.756583
H76	H	-3.735454	-0.031058	-0.834845
H77	H	-3.533545	-0.100441	-0.720714
H78	H	-3.676979	-0.151744	-0.798985
H79	H	-4.159756	-0.115066	-0.731311
C80	C	-4.443814	-0.599874	-0.320130
C81	C	-4.308171	-0.557698	-0.249353
H82	H	-4.568140	-0.582466	-0.323196
H83	H	-4.472092	-0.659955	-0.320352
H84	H	-4.383209	-0.585791	-0.364845
H85	H	-4.368771	-0.571786	-0.204638
H86	H	-4.279897	-0.497603	-0.249124
H87	H	-4.170891	-0.686623	-0.364703
H88	H	-3.443568	-0.102186	-0.469119
