data_functionalizedCrystal
_audit_creation_method	'MofGen! by Chris Wilmer'
_symmetry_space_group_name_H-M	'P1'
_symmetry_Int_Tables_number	1
_symmetry_cell_setting	triclinic
loop_
_symmetry_equiv_pos_as_xyz
  x,y,z
_cell_length_a	17.640280
_cell_length_b	15.297621
_cell_length_c	15.297908
_cell_angle_alpha	107.360856
_cell_angle_beta	86.553434
_cell_angle_gamma	112.533812
loop_
_atom_site_label
_atom_site_type_symbol
_atom_site_fract_x
_atom_site_fract_y
_atom_site_fract_z
Zn1	Zn	-0.661454	-1.642975	-0.641524
Zn2	Zn	-0.765967	-1.636551	-0.465473
Zn3	Zn	-0.606121	-1.449662	-0.470035
Zn4	Zn	-0.765893	-1.507986	-0.594083
O5	O	-0.699859	-1.559293	-0.542779
O6	O	-0.698505	-1.776830	-0.636115
O7	O	-0.721637	-1.584663	-0.340485
O8	O	-0.502858	-1.453585	-0.514546
O9	O	-0.775291	-1.772110	-0.506772
O10	O	-0.543510	-1.595611	-0.640539
O11	O	-0.604200	-1.447356	-0.343837
O12	O	-0.604128	-1.322691	-0.468545
O13	O	-0.775164	-1.552989	-0.725969
O14	O	-0.721511	-1.365542	-0.559683
O15	O	-0.698433	-1.652165	-0.760823
O16	O	-0.876561	-1.641217	-0.460770
O17	O	-0.876506	-1.546760	-0.555259
C18	C	-0.656808	-1.309189	-0.509461
C19	C	-0.638413	-1.202201	-0.495225
C20	C	-0.831292	-0.989952	-0.644491
C21	C	-0.848580	-1.090473	-0.657863
C22	C	-0.796040	-1.118410	-0.617205
C23	C	-0.726209	-1.045817	-0.563173
C24	C	-0.708923	-0.945286	-0.549794
C25	C	-0.673670	-1.073744	-0.522508
C26	C	-0.603839	-1.001150	-0.468475
C27	C	-0.586556	-0.900630	-0.455099
C28	C	-0.639096	-0.872692	-0.495757
C29	C	-0.690956	-1.174274	-0.535886
C30	C	-0.568587	-1.129608	-0.441189
C31	C	-0.551299	-1.029087	-0.427817
C32	C	-0.905220	-1.599651	-0.502395
C33	C	-0.993095	-1.617011	-0.485160
C34	C	-1.281994	-1.427879	-0.674087
C35	C	-1.364561	-1.444186	-0.657864
C36	C	-1.364587	-1.542645	-0.559598
C37	C	-1.282020	-1.526350	-0.575817
C38	C	-1.240729	-1.468965	-0.633061
C39	C	-1.240755	-1.567436	-0.534791
C40	C	-1.158193	-1.551137	-0.551004
C41	C	-1.116896	-1.493752	-0.608243
C42	C	-1.158168	-1.452666	-0.649274
C43	C	-1.282045	-1.624815	-0.477542
C44	C	-1.240780	-1.665901	-0.436516
C45	C	-1.158218	-1.649608	-0.452734
C46	C	-1.116922	-1.592223	-0.509973
C47	C	-1.116947	-1.690694	-0.411703
C48	C	-1.034385	-1.674396	-0.427916
C49	C	-1.034360	-1.575925	-0.526186
C50	C	-0.493704	-1.518808	-0.583343
C51	C	-0.405852	-1.501556	-0.600629
C52	C	-0.742963	-1.609799	-0.776871
C53	C	-0.761331	-1.631322	-0.876628
C54	C	-0.743071	-0.810372	-0.576220
C55	C	-0.761466	-0.917359	-0.590455
C56	C	-0.568539	-1.406048	-1.164813
C57	C	-0.551274	-1.385826	-1.071088
C58	C	-0.603786	-1.447198	-1.022468
C59	C	-0.673568	-1.528796	-1.067582
C60	C	-0.690832	-1.549024	-1.161317
C61	C	-0.726079	-1.590174	-1.018973
C62	C	-0.795860	-1.671772	-1.064087
C63	C	-0.813121	-1.691996	-1.157813
C64	C	-0.760608	-1.630624	-1.206433
C65	C	-0.708815	-1.569946	-0.925238
C66	C	-0.831108	-1.712922	-0.921743
C67	C	-0.848373	-1.733144	-1.015467
C68	C	-0.656875	-1.509028	-0.309615
C69	C	-0.638316	-1.487648	-0.209928
H70	H	-0.494442	-0.969968	-0.383823
H71	H	-0.529701	-0.841524	-0.411092
O72	O	-0.585169	-1.425393	-0.921380
H73	H	-0.584093	-1.350591	-0.883850
H74	H	-0.774666	-1.647079	-1.282749
O75	O	-0.620483	-0.764278	-0.481339
H76	H	-0.559701	-0.729972	-0.507784
O77	O	-0.887758	-1.779123	-0.869316
H78	H	-0.864036	-1.751343	-0.796559
H79	H	-0.525805	-1.152352	-0.408080
O80	O	-1.409142	-1.604545	-0.497871
H81	H	-1.377529	-1.569784	-0.428328
O82	O	-1.161476	-1.752583	-0.349958
H83	H	-1.161414	-1.828311	-0.378596
H84	H	-1.000742	-1.529204	-0.572808
O85	O	-1.027844	-1.476150	-0.625739
H86	H	-1.021854	-1.548348	-0.657901
H87	H	-0.869937	-1.758444	-1.194544
H88	H	-1.124550	-1.405946	-0.695896
O89	O	-0.476008	-1.297835	-1.022432
H90	H	-0.442393	-1.258556	-1.071984
O91	O	-1.237448	-1.365985	-0.735829
H92	H	-1.280010	-1.340147	-0.761634
O93	O	-0.511887	-1.339881	-1.217256
H94	H	-0.535613	-1.367662	-1.290012
O95	O	-1.409075	-1.399877	-0.702122
H96	H	-1.366491	-1.357244	-0.744655
O97	O	-1.371094	-1.642399	-0.460045
H98	H	-1.408650	-1.680710	-0.526063
H99	H	-0.651998	-1.503509	-0.888516
O100	O	-0.923893	-1.168768	-0.716134
H101	H	-0.904877	-1.217507	-0.774897
O102	O	-0.923632	-1.821158	-1.064130
H103	H	-0.926806	-1.824912	-1.137474
O104	O	-0.989871	-1.718714	-0.383677
H105	H	-1.032455	-1.761365	-0.341157
H106	H	-1.274409	-1.712620	-0.389904
H107	H	-0.747813	-1.233371	-0.579881
H108	H	-0.874067	-0.967194	-0.677583
O109	O	-0.814680	-1.226827	-0.631623
H110	H	-0.872061	-1.272613	-0.676030
