data_functionalizedCrystal
_audit_creation_method	'MofGen! by Chris Wilmer'
_symmetry_space_group_name_H-M	'P1'
_symmetry_Int_Tables_number	1
_symmetry_cell_setting	triclinic
loop_
_symmetry_equiv_pos_as_xyz
  x,y,z
_cell_length_a	16.992694
_cell_length_b	14.044220
_cell_length_c	16.053802
_cell_angle_alpha	92.799619
_cell_angle_beta	87.249047
_cell_angle_gamma	91.928550
loop_
_atom_site_label
_atom_site_type_symbol
_atom_site_fract_x
_atom_site_fract_y
_atom_site_fract_z
O1	O	1.057564	0.198305	-0.069327
O2	O	0.829125	0.196087	-0.069352
O3	O	0.939916	0.058952	-0.069331
O4	O	0.946774	0.335440	-0.069347
O5	O	0.933815	0.066468	0.069526
O6	O	0.823025	0.203602	0.069506
O7	O	1.051464	0.205821	0.069531
Zn8	Zn	0.936276	0.205905	0.091565
Zn9	Zn	0.944313	0.196003	-0.091386
O10	O	0.940673	0.342955	0.069511
C11	C	0.796663	0.196993	0.000074
C12	C	0.709024	0.188484	0.000065
C13	C	0.664526	0.270580	0.000061
C14	C	0.582179	0.262581	0.000073
C15	C	0.544333	0.172483	0.000083
C16	C	0.588837	0.090381	0.000090
C17	C	0.671182	0.098382	0.000084
C18	C	0.298414	0.139322	0.000107
C19	C	0.216063	0.131327	0.000111
C20	C	0.209412	0.303528	0.000096
C21	C	0.291759	0.311521	0.000085
C22	C	0.336255	0.229419	0.000096
N23	N	0.460161	0.164304	0.000093
N24	N	0.420425	0.237599	0.000092
C25	C	0.933863	0.027168	0.000098
C26	C	0.924909	-0.078736	0.000098
C27	C	0.908540	-0.272638	0.000084
C28	C	0.972046	-0.325460	0.000088
C29	C	0.962938	-0.433354	0.000080
C30	C	0.917647	-0.164734	0.000091
C31	C	1.083926	0.204915	0.000103
C32	C	1.171565	0.213424	0.000107
C33	C	0.946726	0.374740	0.000080
C34	C	0.955680	0.480643	0.000074
N35	N	0.930796	0.212662	0.216425
N36	N	0.949799	0.189239	-0.216245
C37	C	0.977958	0.154335	0.260127
C38	C	0.974132	0.159071	0.347533
C39	C	0.923149	0.222140	0.391235
C40	C	0.875982	0.280470	0.347526
C41	C	0.879804	0.275728	0.260122
C42	C	0.906453	0.242827	0.652642
C43	C	0.902637	0.247566	0.740052
C44	C	1.000787	0.126165	0.740053
C45	C	1.004608	0.121433	0.652647
C46	C	0.957438	0.179759	0.608946
N47	N	0.919240	0.226985	0.480578
N48	N	0.961343	0.174909	0.519604
H49	H	0.322568	0.384887	0.000067
O50	O	1.045106	-0.282851	0.000218
C51	C	1.083115	-0.306789	0.072152
H52	H	1.055849	-0.376108	0.096115
H53	H	1.075711	-0.247262	0.122514
C54	C	1.204958	-0.234569	0.020896
C55	C	1.171473	-0.319713	0.050324
H56	H	1.259462	-0.242537	0.007434
H57	H	1.179350	-0.218438	-0.027566
H58	H	1.198780	-0.184972	0.062870
H59	H	1.177643	-0.369305	0.008347
H60	H	1.197084	-0.335853	0.098779
H61	H	0.847335	-0.308444	0.000075
O62	O	1.020034	0.102386	0.389856
C63	C	1.065846	0.045696	0.332541
H64	H	1.072181	0.081452	0.270229
H65	H	1.035723	-0.027564	0.323264
C66	C	1.140245	-0.009485	0.443173
C67	C	1.148030	0.034436	0.366642
H68	H	1.190939	-0.016435	0.464208
H69	H	1.109379	0.028705	0.481788
H70	H	1.115139	-0.070530	0.435431
H71	H	1.173127	0.095484	0.374386
H72	H	1.178903	-0.003745	0.328028
H73	H	1.046122	0.070077	0.617066
O74	O	0.166307	0.383372	0.000055
C75	C	0.217369	0.464610	0.000068
H76	H	0.278193	0.443647	-0.026224
H77	H	0.222188	0.495539	0.066683
C78	C	0.109768	0.565634	-0.022097
C79	C	0.184472	0.539888	-0.054395
H80	H	0.089474	0.612071	-0.055688
H81	H	0.075365	0.510903	-0.022102
H82	H	0.113793	0.591402	0.033416
H83	H	0.180444	0.514109	-0.109902
H84	H	0.218873	0.594616	-0.054400
O85	O	0.179265	0.043816	-0.000022
C86	C	0.134968	0.030152	-0.071924
H87	H	0.160103	0.078690	-0.122198
H88	H	0.070956	0.048112	-0.055667
C89	C	0.108224	-0.134221	-0.042771
C90	C	0.139100	-0.074610	-0.104520
H91	H	0.110770	-0.198843	-0.062876
H92	H	0.138066	-0.125015	0.005674
H93	H	0.054884	-0.119242	-0.029228
H94	H	0.192442	-0.089581	-0.118054
H95	H	0.109268	-0.083821	-0.152967
H96	H	1.019477	0.102981	0.224551
H97	H	0.334634	0.072468	0.000117
O98	O	0.853032	0.308848	0.782376
C99	C	0.812227	0.359325	0.725064
H100	H	0.811335	0.316812	0.662762
H101	H	0.843164	0.431576	0.715757
C102	C	0.728166	0.426505	0.835708
C103	C	0.727064	0.374286	0.759191
H104	H	0.675634	0.435739	0.856760
H105	H	0.755658	0.392501	0.874322
H106	H	0.753950	0.486709	0.827942
H107	H	0.701289	0.314080	0.766960
H108	H	0.699565	0.408280	0.720579
O109	O	0.701372	0.358056	0.000160
C110	C	0.745642	0.371741	0.072080
H111	H	0.759820	0.299485	0.096062
H112	H	0.710061	0.413874	0.122438
C113	C	0.805502	0.516129	0.020768
C114	C	0.822920	0.427383	0.050219
H115	H	0.853169	0.550455	0.007285
H116	H	0.775674	0.506912	-0.027685
H117	H	0.775849	0.551228	0.062738
H118	H	0.852563	0.392281	0.008245
H119	H	0.852755	0.436596	0.098664
O120	O	0.538878	0.342256	-0.000050
C121	C	0.494211	0.338893	-0.071974
H122	H	0.485808	0.261640	-0.095935
H123	H	0.526512	0.381727	-0.122342
C124	C	0.423456	0.476596	-0.020703
C125	C	0.413130	0.381712	-0.050128
H126	H	0.373443	0.503013	-0.007230
H127	H	0.453551	0.478866	0.027752
H128	H	0.450377	0.512279	-0.062682
H129	H	0.386219	0.346029	-0.008146
H130	H	0.383029	0.379438	-0.098576
H131	H	1.039190	0.078678	0.775642
O132	O	0.860758	0.299541	0.610111
C133	C	0.909298	0.358833	0.559557
H134	H	0.968895	0.324875	0.546450
H135	H	0.918115	0.431491	0.593239
C136	C	0.796704	0.413028	0.492639
C137	C	0.869901	0.371317	0.476535
H138	H	0.772402	0.420734	0.441429
H139	H	0.764001	0.373085	0.526700
H140	H	0.804062	0.473573	0.520710
H141	H	0.862541	0.310770	0.448475
H142	H	0.902602	0.411251	0.442468
H143	H	0.558015	0.017022	0.000110
H144	H	0.834466	0.331819	0.383114
H145	H	0.707411	0.031530	0.000086
H146	H	0.841398	0.323224	0.224540
