data_functionalizedCrystal
_audit_creation_method	'MofGen! by Chris Wilmer'
_symmetry_space_group_name_H-M	'P1'
_symmetry_Int_Tables_number	1
_symmetry_cell_setting	triclinic
loop_
_symmetry_equiv_pos_as_xyz
  x,y,z
_cell_length_a	23.532407
_cell_length_b	23.532407
_cell_length_c	13.101018
_cell_angle_alpha	93.329207
_cell_angle_beta	86.664201
_cell_angle_gamma	82.848713
loop_
_atom_site_label
_atom_site_type_symbol
_atom_site_fract_x
_atom_site_fract_y
_atom_site_fract_z
O1	O	0.758410	0.065980	-0.085104
O2	O	1.008410	0.315980	0.164896
O3	O	1.258410	0.565980	0.414896
O4	O	1.508410	0.815980	0.664896
O5	O	0.592548	0.075982	-0.085137
O6	O	0.842548	0.325982	0.164863
O7	O	1.092548	0.575982	0.414863
O8	O	1.342548	0.825982	0.664863
O9	O	0.680479	-0.011949	-0.085091
O10	O	0.930479	0.238051	0.164909
O11	O	1.180479	0.488051	0.414909
O12	O	1.430479	0.738051	0.664909
O13	O	0.670478	0.153912	-0.085150
O14	O	0.920478	0.403912	0.164850
O15	O	1.170478	0.653912	0.414850
O16	O	1.420478	0.903912	0.664850
O17	O	0.674163	-0.005635	0.085336
O18	O	0.924163	0.244365	0.335336
O19	O	1.174163	0.494365	0.585336
O20	O	1.424163	0.744365	0.835336
O21	O	0.586231	0.082297	0.085290
O22	O	0.836231	0.332297	0.335290
O23	O	1.086231	0.582297	0.585290
O24	O	1.336231	0.832297	0.835290
O25	O	0.752094	0.072295	0.085323
O26	O	1.002094	0.322295	0.335323
O27	O	1.252094	0.572295	0.585323
O28	O	1.502094	0.822295	0.835323
Zn29	Zn	0.668160	0.078298	0.112365
Zn30	Zn	0.918160	0.328298	0.362365
Zn31	Zn	1.168160	0.578298	0.612365
Zn32	Zn	1.418160	0.828298	0.862365
Zn33	Zn	0.676482	0.069979	-0.112180
Zn34	Zn	0.926482	0.319979	0.137820
Zn35	Zn	1.176482	0.569979	0.387820
Zn36	Zn	1.426482	0.819979	0.637820
O37	O	0.664162	0.160226	0.085277
O38	O	0.914162	0.410226	0.335277
O39	O	1.164162	0.660226	0.585277
O40	O	1.414162	0.910226	0.835277
C41	C	0.677066	-0.030008	0.000128
C42	C	0.927066	0.219992	0.250128
C43	C	1.177066	0.469992	0.500128
C44	C	1.427066	0.719992	0.750128
C45	C	0.676300	-0.093224	0.000143
C46	C	0.926300	0.156776	0.250143
C47	C	1.176300	0.406776	0.500143
C48	C	1.426300	0.656776	0.750143
C49	C	0.568174	0.078885	0.000073
C50	C	0.818174	0.328885	0.250073
C51	C	1.068174	0.578885	0.500073
C52	C	1.318174	0.828885	0.750073
C53	C	0.504957	0.078118	0.000062
C54	C	0.754957	0.328118	0.250062
C55	C	1.004957	0.578118	0.500062
C56	C	1.254957	0.828118	0.750062
C57	C	0.621107	-0.359395	0.000068
C58	C	0.871107	-0.109395	0.250068
C59	C	1.121107	0.140605	0.500068
C60	C	1.371107	0.390605	0.750068
C61	C	0.621818	-0.299994	0.000076
C62	C	0.871818	-0.049994	0.250076
C63	C	1.121818	0.200006	0.500076
C64	C	1.371818	0.450006	0.750076
O65	O	0.578034	-0.263251	0.000035
O66	O	0.828034	-0.013251	0.250035
O67	O	1.078034	0.236749	0.500035
O68	O	1.328034	0.486749	0.750035
N69	N	0.674094	-0.277367	0.000098
N70	N	0.924094	-0.027367	0.250098
N71	N	1.174094	0.222633	0.500098
N72	N	1.424094	0.472633	0.750098
C73	C	0.725662	-0.314144	0.000102
C74	C	0.975662	-0.064144	0.250102
C75	C	1.225662	0.185856	0.500102
C76	C	1.475662	0.435856	0.750102
O77	O	0.770192	-0.289444	0.000121
O78	O	1.020192	-0.039444	0.250121
O79	O	1.270192	0.210556	0.500121
O80	O	1.520192	0.460556	0.750121
C81	C	0.724950	-0.373544	0.000087
C82	C	0.974950	-0.123544	0.250087
C83	C	1.224950	0.126456	0.500087
C84	C	1.474950	0.376456	0.750087
C85	C	0.672671	-0.396167	0.000075
C86	C	0.922671	-0.146167	0.250075
C87	C	1.172671	0.103833	0.500075
C88	C	1.422671	0.353833	0.750075
C89	C	0.568832	-0.382018	0.000055
C90	C	0.818832	-0.132018	0.250055
C91	C	1.068832	0.117982	0.500055
C92	C	1.318832	0.367982	0.750055
C93	C	0.568121	-0.441415	0.000049
C94	C	0.818121	-0.191415	0.250049
C95	C	1.068121	0.058585	0.500049
C96	C	1.318121	0.308585	0.750049
C97	C	0.619685	-0.478187	0.000056
C98	C	0.869685	-0.228187	0.250056
C99	C	1.119685	0.021813	0.500056
C100	C	1.369685	0.271813	0.750056
C101	C	0.671960	-0.455564	0.000069
C102	C	0.921960	-0.205564	0.250069
C103	C	1.171960	0.044436	0.500069
C104	C	1.421960	0.294436	0.750069
C105	C	0.776518	-0.410321	0.000083
C106	C	1.026518	-0.160321	0.250083
C107	C	1.276518	0.089679	0.500083
C108	C	1.526518	0.339679	0.750083
C109	C	0.775802	-0.469724	0.000067
C110	C	1.025802	-0.219724	0.250067
C111	C	1.275802	0.030276	0.500067
C112	C	1.525802	0.280276	0.750067
C113	C	0.723523	-0.492347	0.000055
C114	C	0.973523	-0.242347	0.250055
C115	C	1.223523	0.007653	0.500055
C116	C	1.473523	0.257653	0.750055
C117	C	0.722813	-0.551733	0.000070
C118	C	0.972813	-0.301733	0.250070
C119	C	1.222813	-0.051733	0.500070
C120	C	1.472813	0.198267	0.750070
N121	N	0.670538	-0.574360	0.000048
N122	N	0.920538	-0.324360	0.250048
N123	N	1.170538	-0.074360	0.500048
N124	N	1.420538	0.175640	0.750048
C125	C	0.618974	-0.537587	0.000041
C126	C	0.868974	-0.287587	0.250041
C127	C	1.118974	-0.037587	0.500041
C128	C	1.368974	0.212413	0.750041
C129	C	0.727152	-0.189401	0.000133
C130	C	0.977152	0.060599	0.250133
C131	C	1.227152	0.310599	0.500133
C132	C	1.477152	0.560599	0.750133
C133	C	0.727864	-0.130002	0.000155
C134	C	0.977864	0.119998	0.250155
C135	C	1.227864	0.369998	0.500155
C136	C	1.477864	0.619998	0.750155
C137	C	0.624020	-0.115856	0.000128
C138	C	0.874020	0.134144	0.250128
C139	C	1.124020	0.384144	0.500128
C140	C	1.374020	0.634144	0.750128
C141	C	0.623309	-0.175255	0.000112
C142	C	0.873309	0.074745	0.250112
C143	C	1.123309	0.324745	0.500112
C144	C	1.373309	0.574745	0.750112
C145	C	0.674877	-0.212028	0.000110
C146	C	0.924877	0.037972	0.250110
C147	C	1.174877	0.287972	0.500110
C148	C	1.424877	0.537972	0.750110
C149	C	0.617484	-0.662324	0.000029
C150	C	0.867484	-0.412324	0.250029
C151	C	1.117484	-0.162324	0.500029
C152	C	1.367484	0.087676	0.750029
C153	C	0.616778	-0.721726	0.000027
C154	C	0.866778	-0.471726	0.250027
C155	C	1.116778	-0.221726	0.500027
C156	C	1.366778	0.028274	0.750027
C157	C	0.720622	-0.735868	0.000049
C158	C	0.970622	-0.485868	0.250049
C159	C	1.220622	-0.235868	0.500049
C160	C	1.470622	0.014132	0.750049
C161	C	0.721328	-0.676470	0.000057
C162	C	0.971328	-0.426470	0.250057
C163	C	1.221328	-0.176470	0.500057
C164	C	1.471328	0.073530	0.750057
C165	C	0.669755	-0.639700	0.000043
C166	C	0.919755	-0.389700	0.250043
C167	C	1.169755	-0.139700	0.500043
C168	C	1.419755	0.110300	0.750043
O169	O	0.766575	-0.588510	0.000106
O170	O	1.016575	-0.338510	0.250106
O171	O	1.266575	-0.088510	0.500106
O172	O	1.516575	0.161490	0.750106
O173	O	0.574452	-0.562296	0.000009
O174	O	0.824452	-0.312296	0.250009
O175	O	1.074452	-0.062296	0.500009
O176	O	1.324452	0.187704	0.750009
C177	C	0.105853	0.125353	0.000091
C178	C	0.355853	0.375353	0.250091
C179	C	0.605853	0.625353	0.500091
C180	C	0.855853	0.875353	0.750091
C181	C	0.046452	0.124642	0.000098
C182	C	0.296452	0.374642	0.250098
C183	C	0.546452	0.624642	0.500098
C184	C	0.796452	0.874642	0.750098
O185	O	0.009707	0.168428	0.000119
O186	O	0.259707	0.418428	0.250119
O187	O	0.509707	0.668428	0.500119
O188	O	0.759707	0.918428	0.750119
N189	N	0.023826	0.072366	0.000115
N190	N	0.273826	0.322366	0.250115
N191	N	0.523826	0.572366	0.500115
N192	N	0.773826	0.822366	0.750115
C193	C	0.060602	0.020799	0.000136
C194	C	0.310602	0.270799	0.250136
C195	C	0.560602	0.520799	0.500136
C196	C	0.810602	0.770799	0.750136
O197	O	0.035902	-0.023731	0.000152
O198	O	0.285902	0.226269	0.250152
O199	O	0.535902	0.476269	0.500152
O200	O	0.785902	0.726269	0.750152
C201	C	0.120001	0.021511	0.000136
C202	C	0.370001	0.271511	0.250136
C203	C	0.620001	0.521511	0.500136
C204	C	0.870001	0.771511	0.750136
C205	C	0.142625	0.073789	0.000109
C206	C	0.392625	0.323789	0.250109
C207	C	0.642625	0.573789	0.500109
C208	C	0.892625	0.823789	0.750109
C209	C	0.128477	0.177627	0.000065
C210	C	0.378477	0.427627	0.250065
C211	C	0.628477	0.677627	0.500065
C212	C	0.878477	0.927627	0.750065
C213	C	0.187874	0.178338	0.000056
C214	C	0.437874	0.428338	0.250056
C215	C	0.687874	0.678338	0.500056
C216	C	0.937874	0.928338	0.750056
C217	C	0.224646	0.126775	0.000074
C218	C	0.474646	0.376775	0.250074
C219	C	0.724646	0.626775	0.500074
C220	C	0.974646	0.876775	0.750074
C221	C	0.202022	0.074500	0.000101
C222	C	0.452022	0.324500	0.250101
C223	C	0.702022	0.574500	0.500101
C224	C	0.952022	0.824500	0.750101
C225	C	0.156777	-0.030056	0.000165
C226	C	0.406777	0.219944	0.250165
C227	C	0.656777	0.469944	0.500165
C228	C	0.906777	0.719944	0.750165
C229	C	0.216179	-0.029339	0.000166
C230	C	0.466179	0.220661	0.250166
C231	C	0.716179	0.470661	0.500166
C232	C	0.966179	0.720661	0.750166
C233	C	0.238803	0.022939	0.000139
C234	C	0.488803	0.272939	0.250139
C235	C	0.738803	0.522939	0.500139
C236	C	0.988803	0.772939	0.750139
C237	C	0.298190	0.023648	0.000110
C238	C	0.548190	0.273648	0.250110
C239	C	0.798190	0.523648	0.500110
C240	C	1.048190	0.773648	0.750110
N241	N	0.320817	0.075923	0.000093
N242	N	0.570817	0.325923	0.250093
N243	N	0.820817	0.575923	0.500093
N244	N	1.070817	0.825923	0.750093
C245	C	0.284045	0.127487	0.000075
C246	C	0.534045	0.377487	0.250075
C247	C	0.784045	0.627487	0.500075
C248	C	1.034045	0.877487	0.750075
C249	C	-0.064140	0.019307	0.000136
C250	C	0.185860	0.269307	0.250136
C251	C	0.435860	0.519307	0.500136
C252	C	0.685860	0.769307	0.750136
C253	C	-0.123538	0.018594	0.000128
C254	C	0.126462	0.268594	0.250128
C255	C	0.376462	0.518594	0.500128
C256	C	0.626462	0.768594	0.750128
C257	C	-0.137684	0.122438	0.000092
C258	C	0.112316	0.372438	0.250092
C259	C	0.362316	0.622438	0.500092
C260	C	0.612316	0.872438	0.750092
C261	C	-0.078285	0.123150	0.000092
C262	C	0.171715	0.373150	0.250092
C263	C	0.421715	0.623150	0.500092
C264	C	0.671715	0.873150	0.750092
C265	C	-0.041513	0.071583	0.000119
C266	C	0.208487	0.321583	0.250119
C267	C	0.458487	0.571583	0.500119
C268	C	0.708487	0.821583	0.750119
C269	C	0.408782	0.128976	0.000057
C270	C	0.658782	0.378976	0.250057
C271	C	0.908782	0.628976	0.500057
C272	C	1.158782	0.878976	0.750057
C273	C	0.468185	0.129682	0.000044
C274	C	0.718185	0.379682	0.250044
C275	C	0.968185	0.629682	0.500044
C276	C	1.218185	0.879682	0.750044
C277	C	0.482325	0.025839	0.000085
C278	C	0.732325	0.275839	0.250085
C279	C	0.982325	0.525839	0.500085
C280	C	1.232325	0.775839	0.750085
C281	C	0.422928	0.025132	0.000093
C282	C	0.672928	0.275132	0.250093
C283	C	0.922928	0.525132	0.500093
C284	C	1.172928	0.775132	0.750093
C285	C	0.386157	0.076705	0.000082
C286	C	0.636157	0.326705	0.250082
C287	C	0.886157	0.576705	0.500082
C288	C	1.136157	0.826705	0.750082
O289	O	0.334970	-0.020116	0.000093
O290	O	0.584970	0.229884	0.250093
O291	O	0.834970	0.479884	0.500093
O292	O	1.084970	0.729884	0.750093
O293	O	0.308753	0.172010	0.000073
O294	O	0.558753	0.422010	0.250073
O295	O	0.808753	0.672010	0.500073
O296	O	1.058753	0.922010	0.750073
C297	C	0.776468	0.069392	0.000111
C298	C	1.026468	0.319392	0.250111
C299	C	1.276468	0.569392	0.500111
C300	C	1.526468	0.819392	0.750111
C301	C	0.839685	0.070158	0.000115
C302	C	1.089685	0.320158	0.250115
C303	C	1.339685	0.570158	0.500115
C304	C	1.589685	0.820158	0.750115
C305	C	0.667575	0.178285	0.000056
C306	C	0.917575	0.428285	0.250056
C307	C	1.167575	0.678285	0.500056
C308	C	1.417575	0.928285	0.750056
C309	C	0.668342	0.241501	0.000034
C310	C	0.918342	0.491501	0.250034
C311	C	1.168342	0.741501	0.500034
C312	C	1.418342	0.991501	0.750034
N313	N	0.662484	0.083976	0.265611
N314	N	0.912484	0.333976	0.515611
N315	N	1.162484	0.583976	0.765611
N316	N	1.412484	0.833976	1.015611
N317	N	0.682161	0.064297	-0.265426
N318	N	0.932161	0.314297	-0.015426
N319	N	1.182161	0.564297	0.234574
N320	N	1.432161	0.814297	0.484574
C321	C	0.689880	0.056570	0.525535
C322	C	0.939880	0.306570	0.775535
C323	C	1.189880	0.556570	1.025535
C324	C	1.439880	0.806570	1.275535
C325	C	0.654768	0.091701	0.474644
C326	C	0.904768	0.341701	0.724644
C327	C	1.154768	0.591701	0.974644
C328	C	1.404768	0.841701	1.224644
C329	C	0.659062	0.087402	0.358327
C330	C	0.909062	0.337402	0.608327
C331	C	1.159062	0.587402	0.858327
C332	C	1.409062	0.837402	1.108327
C333	C	0.685586	0.060868	0.641862
C334	C	0.935586	0.310868	0.891862
C335	C	1.185586	0.560868	1.141862
C336	C	1.435586	0.810868	1.391862
H337	H	0.574204	-0.740142	0.000022
H338	H	0.824204	-0.490142	0.250022
H339	H	1.074204	-0.240142	0.500022
H340	H	1.324204	0.009858	0.750022
N341	N	-0.147939	-0.037790	0.000145
N342	N	0.102061	0.212210	0.250145
N343	N	0.352061	0.462210	0.500145
N344	N	0.602061	0.712210	0.750145
H345	H	-0.132171	-0.062706	-0.063024
H346	H	0.117829	0.187294	0.186976
H347	H	0.367829	0.437294	0.436976
H348	H	0.617829	0.687294	0.686976
H349	H	-0.136838	-0.057976	0.063372
H350	H	0.113162	0.192024	0.313372
H351	H	0.363162	0.442024	0.563372
H352	H	0.613162	0.692024	0.813372
N353	N	0.733976	0.012456	0.467559
N354	N	0.983976	0.262456	0.717559
N355	N	1.233976	0.512456	0.967559
N356	N	1.483976	0.762456	1.217559
H357	H	0.726947	-0.027248	0.486179
H358	H	0.976947	0.222752	0.736179
H359	H	1.226947	0.472752	0.986179
H360	H	1.476947	0.722752	1.236179
H361	H	0.730817	0.015646	0.391500
H362	H	0.980817	0.265646	0.641500
H363	H	1.230817	0.515646	0.891500
H364	H	1.480817	0.765646	1.141500
H365	H	0.621482	0.125007	0.518432
H366	H	0.871482	0.375007	0.768432
H367	H	1.121482	0.625007	1.018432
H368	H	1.371482	0.875007	1.268432
N369	N	0.561861	-0.622670	0.000013
N370	N	0.811861	-0.372670	0.250013
N371	N	1.061861	-0.122670	0.500013
N372	N	1.311861	0.127330	0.750013
H373	H	0.528641	-0.646023	0.000005
H374	H	0.778641	-0.396023	0.250005
H375	H	1.028641	-0.146023	0.500005
H376	H	1.278641	0.103977	0.750005
H377	H	0.557550	-0.595385	0.063196
H378	H	0.807550	-0.345385	0.313196
H379	H	1.057550	-0.095385	0.563196
H380	H	1.307550	0.154615	0.813196
H381	H	0.138368	-0.072627	0.000188
H382	H	0.388368	0.177373	0.250188
H383	H	0.638368	0.427373	0.500188
H384	H	0.888368	0.677373	0.750188
N385	N	0.369122	0.184595	0.000036
N386	N	0.619122	0.434595	0.250036
N387	N	0.869122	0.684595	0.500036
N388	N	1.119122	0.934595	0.750036
H389	H	0.341826	0.188958	0.063216
H390	H	0.591826	0.438958	0.313216
H391	H	0.841826	0.688958	0.563216
H392	H	1.091826	0.938958	0.813216
H393	H	0.392510	0.217785	-0.000022
H394	H	0.642510	0.467785	0.249978
H395	H	0.892510	0.717785	0.499978
H396	H	1.142510	0.967785	0.749978
N397	N	0.255839	-0.084959	0.000201
N398	N	0.505839	0.165041	0.250201
N399	N	0.755839	0.415041	0.500201
N400	N	1.005839	0.665041	0.750201
H401	H	0.232490	-0.118181	0.000220
H402	H	0.482490	0.131819	0.250220
H403	H	0.732490	0.381819	0.500220
H404	H	0.982490	0.631819	0.750220
H405	H	0.283130	-0.089272	-0.062979
H406	H	0.533130	0.160728	0.187021
H407	H	0.783130	0.410728	0.437021
H408	H	1.033130	0.660728	0.687021
H409	H	0.769147	-0.219338	0.000138
H410	H	1.019147	0.030662	0.250138
H411	H	1.269147	0.280662	0.500138
H412	H	1.519147	0.530662	0.750138
N413	N	0.398517	-0.031249	0.000112
N414	N	0.648517	0.218751	0.250112
N415	N	0.898517	0.468751	0.500112
N416	N	1.148517	0.718751	0.750112
H417	H	0.414278	-0.056167	-0.063058
H418	H	0.664278	0.193833	0.186942
H419	H	0.914278	0.443833	0.436942
H420	H	1.164278	0.693833	0.686942
H421	H	0.409617	-0.051436	0.063338
H422	H	0.659617	0.198564	0.313338
H423	H	0.909617	0.448564	0.563338
H424	H	1.159617	0.698564	0.813338
N425	N	0.521992	-0.029774	0.000105
N426	N	0.771992	0.220226	0.250105
N427	N	1.021992	0.470226	0.500105
N428	N	1.271992	0.720226	0.750105
H429	H	0.563053	-0.021386	0.000102
H430	H	0.813053	0.228614	0.250102
H431	H	1.063053	0.478614	0.500102
H432	H	1.313053	0.728614	0.750102
H433	H	0.512362	-0.050226	0.063299
H434	H	0.762362	0.199774	0.313299
H435	H	1.012362	0.449774	0.563299
H436	H	1.262362	0.699774	0.813299
H437	H	0.817796	-0.499662	0.000060
H438	H	1.067796	-0.249662	0.250060
H439	H	1.317796	0.000338	0.500060
H440	H	1.567796	0.250338	0.750060
N441	N	0.777714	-0.652068	0.000092
N442	N	1.027714	-0.402068	0.250092
N443	N	1.277714	-0.152068	0.500092
N444	N	1.527714	0.097932	0.750092
H445	H	0.777979	-0.625408	0.063275
H446	H	1.027979	-0.375408	0.313275
H447	H	1.277979	-0.125408	0.563275
H448	H	1.527979	0.124592	0.813275
H449	H	0.810236	-0.684414	0.000066
H450	H	1.060236	-0.434414	0.250066
H451	H	1.310236	-0.184414	0.500066
H452	H	1.560236	0.065586	0.750066
H453	H	0.580738	-0.193670	0.000107
H454	H	0.830738	0.056330	0.250107
H455	H	1.080738	0.306330	0.500107
H456	H	1.330738	0.556330	0.750107
H457	H	0.525550	-0.459829	0.000031
H458	H	0.775550	-0.209829	0.250031
H459	H	1.025550	0.040171	0.500031
H460	H	1.275550	0.290171	0.750031
N461	N	-0.053892	0.179539	0.000073
N462	N	0.196108	0.429539	0.250073
N463	N	0.446108	0.679539	0.500073
N464	N	0.696108	0.929539	0.750073
H465	H	-0.031903	0.184493	0.063251
H466	H	0.218097	0.434493	0.313251
H467	H	0.468097	0.684493	0.563251
H468	H	0.718097	0.934493	0.813251
H469	H	-0.027251	0.179776	-0.063146
H470	H	0.222749	0.429776	0.186854
H471	H	0.472749	0.679776	0.436854
H472	H	0.722749	0.929776	0.686854
N473	N	0.513212	-0.342362	0.000046
N474	N	0.763212	-0.092362	0.250046
N475	N	1.013212	0.157638	0.500046
N476	N	1.263212	0.407638	0.750046
H477	H	0.479994	-0.365716	0.000035
H478	H	0.729994	-0.115716	0.250035
H479	H	0.979994	0.134284	0.500035
H480	H	1.229994	0.384284	0.750035
H481	H	0.508901	-0.315080	0.063233
H482	H	0.758901	-0.065080	0.313233
H483	H	1.008901	0.184920	0.563233
H484	H	1.258901	0.434920	0.813233
N485	N	0.832909	-0.385937	0.000092
N486	N	1.082909	-0.135937	0.250092
N487	N	1.332909	0.114063	0.500092
N488	N	1.582909	0.364063	0.750092
H489	H	0.857818	-0.401705	-0.063088
H490	H	1.107818	-0.151705	0.186912
H491	H	1.357818	0.098295	0.436912
H492	H	1.607818	0.348295	0.686912
H493	H	0.825501	-0.342729	0.000137
H494	H	1.075501	-0.092729	0.250137
H495	H	1.325501	0.157271	0.500137
H496	H	1.575501	0.407271	0.750137
N497	N	0.568404	-0.076187	0.000102
N498	N	0.818404	0.173813	0.250102
N499	N	1.068404	0.423813	0.500102
N500	N	1.318404	0.673813	0.750102
H501	H	0.535176	-0.099528	0.000087
H502	H	0.785176	0.150472	0.250087
H503	H	1.035176	0.400472	0.500087
H504	H	1.285176	0.650472	0.750087
H505	H	0.564096	-0.048901	0.063283
H506	H	0.814096	0.201099	0.313283
H507	H	1.064096	0.451099	0.563283
H508	H	1.314096	0.701099	0.813283
N509	N	0.784249	-0.105604	0.000190
N510	N	1.034249	0.144396	0.250190
N511	N	1.284249	0.394396	0.500190
N512	N	1.534249	0.644396	0.750190
H513	H	0.816804	-0.137917	0.000195
H514	H	1.066804	0.112083	0.250195
H515	H	1.316804	0.362083	0.500195
H516	H	1.566804	0.612083	0.750195
H517	H	0.789153	-0.083599	-0.062985
H518	H	1.039153	0.166401	0.187015
H519	H	1.289153	0.416401	0.437015
H520	H	1.539153	0.666401	0.687015
H521	H	0.762603	-0.765818	0.000060
H522	H	1.012603	-0.515818	0.250060
H523	H	1.262603	-0.265818	0.500060
H524	H	1.512603	-0.015818	0.750060
H525	H	0.486601	0.172255	0.000021
H526	H	0.736601	0.422255	0.250021
H527	H	0.986601	0.672255	0.500021
H528	H	1.236601	0.922255	0.750021
H529	H	0.206288	0.220909	0.000034
H530	H	0.456288	0.470909	0.250034
H531	H	0.706288	0.720909	0.500034
H532	H	0.956288	0.970909	0.750034
N533	N	0.088819	0.233249	0.000104
N534	N	0.338819	0.483249	0.250104
N535	N	0.588819	0.733249	0.500104
N536	N	0.838819	0.983249	0.750104
H537	H	0.112173	0.266468	0.000106
H538	H	0.362173	0.516468	0.250106
H539	H	0.612173	0.766468	0.500106
H540	H	0.862173	1.016468	0.750106
H541	H	0.066189	0.232900	-0.063060
H542	H	0.316189	0.482900	0.186940
H543	H	0.566189	0.732900	0.436940
H544	H	0.816189	0.982900	0.686940
N545	N	-0.177338	0.178065	0.000094
N546	N	0.072662	0.428065	0.250094
N547	N	0.322662	0.678065	0.500094
N548	N	0.572662	0.928065	0.750094
H549	H	-0.199967	0.177757	-0.063076
H550	H	0.050033	0.427757	0.186924
H551	H	0.300033	0.677757	0.436924
H552	H	0.550033	0.927757	0.686924
H553	H	-0.204594	0.182392	0.063321
H554	H	0.045406	0.432392	0.313321
H555	H	0.295406	0.682392	0.563321
H556	H	0.545406	0.932392	0.813321
N557	N	-0.024481	-0.036315	0.000159
N558	N	0.225519	0.213685	0.250159
N559	N	0.475519	0.463685	0.500159
N560	N	0.725519	0.713685	0.750159
H561	H	-0.047833	-0.069536	0.000169
H562	H	0.202167	0.180464	0.250169
H563	H	0.452167	0.430464	0.500169
H564	H	0.702167	0.680464	0.750169
H565	H	0.002811	-0.040626	-0.063019
H566	H	0.252811	0.209374	0.186981
H567	H	0.502811	0.459374	0.436981
H568	H	0.752811	0.709374	0.686981
