data_functionalizedCrystal
_audit_creation_method	'MofGen! by Chris Wilmer'
_symmetry_space_group_name_H-M	'P1'
_symmetry_Int_Tables_number	1
_symmetry_cell_setting	triclinic
loop_
_symmetry_equiv_pos_as_xyz
  x,y,z
_cell_length_a	33.592126
_cell_length_b	33.591377
_cell_length_c	33.588093
_cell_angle_alpha	60.004089
_cell_angle_beta	60.008299
_cell_angle_gamma	59.994549
loop_
_atom_site_label
_atom_site_type_symbol
_atom_site_fract_x
_atom_site_fract_y
_atom_site_fract_z
O1	O	0.055297	-0.581666	0.486338
O2	O	0.020882	-0.452873	0.391864
O3	O	0.102445	-0.534352	0.391775
O4	O	-0.026266	-0.500187	0.486427
O5	O	0.129510	-0.507292	0.418747
O6	O	0.047947	-0.425814	0.418835
O7	O	0.082362	-0.554606	0.513309
Cu8	Cu	0.067626	-0.487739	0.468535
Cu9	Cu	0.035618	-0.519740	0.436638
O10	O	0.000799	-0.473128	0.513398
N11	N	0.090139	-0.465235	0.490972
N12	N	0.013110	-0.542249	0.414202
C13	C	0.124394	-0.431229	0.734914
C14	C	0.334265	-0.431145	0.524799
C15	C	0.124204	-0.431200	0.524965
C16	C	0.124184	-0.221175	0.524955
C17	C	0.158017	-0.322536	0.558710
C18	C	0.158027	-0.397406	0.558711
C19	C	0.176763	-0.378688	0.577408
C20	C	0.258412	-0.364594	0.534386
C21	C	0.309454	-0.381596	0.517340
C22	C	0.309485	-0.464188	0.548836
C23	C	0.258444	-0.447186	0.565883
C24	C	0.170304	-0.297002	0.508532
C25	C	0.153260	-0.245956	0.491537
C26	C	0.111648	-0.245983	0.574901
C27	C	0.128691	-0.297029	0.591896
C28	C	0.107841	-0.385091	0.571080
C29	C	0.090813	-0.402108	0.554078
C30	C	0.174153	-0.443755	0.512351
C31	C	0.191183	-0.426739	0.529347
C32	C	0.107923	-0.385106	0.659111
C33	C	0.090955	-0.402138	0.710156
C34	C	0.174335	-0.443795	0.710087
C35	C	0.191302	-0.426764	0.659041
C36	C	0.158095	-0.397418	0.633555
C37	C	0.232909	-0.397388	0.558656
C38	C	0.105069	-0.449619	0.791057
C39	C	0.390406	-0.449193	0.505789
C40	C	0.104813	-0.449599	0.506607
C41	C	0.105125	-0.165028	0.506915
C42	C	-0.020560	-0.576246	0.169890
C43	C	-0.020889	-0.786183	0.379970
C44	C	-0.020859	-0.576235	0.380063
C45	C	-0.230772	-0.576015	0.379658
C46	C	-0.129417	-0.609898	0.346025
C47	C	-0.054587	-0.609979	0.346172
C48	C	-0.073269	-0.628671	0.327396
C49	C	-0.087401	-0.710299	0.370335
C50	C	-0.070424	-0.761345	0.387369
C51	C	0.012165	-0.761428	0.356003
C52	C	-0.004813	-0.710383	0.338967
C53	C	-0.155001	-0.622196	0.396191
C54	C	-0.206043	-0.605128	0.413125
C55	C	-0.205914	-0.563467	0.329724
C56	C	-0.154872	-0.580535	0.312790
C57	C	-0.066886	-0.559797	0.333828
C58	C	-0.049903	-0.542809	0.350903
C59	C	-0.008321	-0.626180	0.392654
C60	C	-0.025304	-0.643170	0.375585
C61	C	-0.066758	-0.559805	0.245702
C62	C	-0.049671	-0.542819	0.194658
C63	C	-0.008026	-0.626194	0.194706
C64	C	-0.025111	-0.643179	0.245752
C65	C	-0.054479	-0.609983	0.271248
C66	C	-0.054597	-0.684821	0.346135
C67	C	-0.002109	-0.556901	0.113746
C68	C	-0.002869	-0.842328	0.398966
C69	C	-0.002496	-0.556887	0.398501
C70	C	-0.286914	-0.556929	0.397631
N71	N	0.436349	-0.465146	0.490703
O72	O	0.592194	-0.469605	0.374236
O73	O	0.592389	-0.564393	0.502890
O74	O	0.592305	-0.564176	0.421300
O75	O	0.592277	-0.469822	0.455826
O76	O	0.511216	-0.537214	0.448415
O77	O	0.511300	-0.537431	0.530004
O78	O	0.511104	-0.442643	0.401350
Cu79	Cu	0.503798	-0.487575	0.468153
Cu80	Cu	0.599695	-0.519461	0.436087
O81	O	0.511188	-0.442860	0.482940
N82	N	0.667145	-0.541890	0.413532
N83	N	0.090108	-0.119085	0.490958
O84	O	-0.026275	0.036848	0.486394
O85	O	0.102381	0.036888	0.391584
O86	O	0.020751	0.036852	0.391854
O87	O	0.055356	0.036884	0.486124
O88	O	0.047821	-0.044242	0.418876
O89	O	0.129452	-0.044207	0.418606
O90	O	0.000796	-0.044246	0.513417
Cu91	Cu	0.067596	-0.051631	0.468479
Cu92	Cu	0.035582	0.044273	0.436522
O93	O	0.082426	-0.044211	0.513146
N94	N	0.013063	0.111726	0.414043
N95	N	0.090453	-0.465282	0.837001
O96	O	0.085913	-0.581648	0.992925
O97	O	-0.008857	-0.452947	0.992970
O98	O	-0.008635	-0.534562	0.992946
O99	O	0.085691	-0.500033	0.992949
O100	O	0.018365	-0.507512	0.911855
O101	O	0.018143	-0.425898	0.911878
O102	O	0.112912	-0.554598	0.911834
Cu103	Cu	0.067993	-0.487778	0.904452
Cu104	Cu	0.036063	-0.519767	1.000352
O105	O	0.112691	-0.472984	0.911857
N106	N	0.013602	-0.542269	1.067803
C107	C	0.031188	-0.423114	0.392334
C108	C	0.132194	-0.524016	0.392223
C109	C	0.072056	-0.584366	0.512840
C110	C	-0.028950	-0.483464	0.512950
C111	C	0.551868	-0.563965	0.532655
C112	C	0.551766	-0.563697	0.431617
C113	C	0.551623	-0.443070	0.371586
C114	C	0.551728	-0.443339	0.472623
C115	C	0.132090	-0.003555	0.392006
C116	C	0.031035	-0.003698	0.392374
C117	C	-0.028947	-0.003703	0.512961
C118	C	0.072143	-0.003661	0.512626
C119	C	-0.008408	-0.423209	0.952430
C120	C	-0.008128	-0.524272	0.952385
C121	C	0.112464	-0.584336	0.952374
C122	C	0.112190	-0.483267	0.952401
H123	H	0.050098	-0.392105	0.730957
H124	H	0.023834	-0.386116	0.362662
H125	H	0.168963	-0.003318	0.362168
H126	H	-0.065895	-0.003715	0.542725
H127	H	0.023621	-0.003702	0.362756
H128	H	0.079554	-0.003651	0.542242
O129	O	-0.043859	-0.379094	0.952467
C130	C	-0.026304	-0.348746	0.952461
H131	H	0.005004	-0.372191	0.967804
H132	H	-0.056942	-0.325390	0.976014
H133	H	-0.012781	-0.324117	0.913560
O134	O	0.551914	-0.599515	0.576714
C135	C	0.551956	-0.641499	0.576693
H136	H	0.536565	-0.630698	0.547844
H137	H	0.528462	-0.659772	0.614082
H138	H	0.590873	-0.667976	0.568138
H139	H	0.169160	-0.531297	0.362501
H140	H	-0.037749	-0.531650	0.952352
O141	O	-0.061863	-0.494047	0.338840
C142	C	-0.091353	-0.468393	0.309221
H143	H	-0.084827	-0.492744	0.290662
H144	H	-0.081726	-0.434363	0.280343
H145	H	-0.131350	-0.457328	0.332704
H146	H	0.551779	-0.593338	0.424228
H147	H	0.142219	-0.621297	0.952354
O148	O	0.080745	-0.628505	0.548258
C149	C	0.047301	-0.650174	0.561392
H150	H	0.013528	-0.620648	0.551634
H151	H	0.036372	-0.670673	0.602304
H152	H	0.064961	-0.676723	0.540859
O153	O	-0.073070	-0.474695	0.548364
C154	C	-0.103382	-0.426792	0.530743
H155	H	-0.079910	-0.403631	0.499423
H156	H	-0.126733	-0.410469	0.561344
H157	H	-0.128014	-0.427538	0.517216
O158	O	0.334206	-0.349709	0.493690
C159	C	0.321682	-0.315050	0.451631
H160	H	0.307638	-0.330783	0.439916
H161	H	0.355231	-0.305695	0.420974
H162	H	0.292051	-0.280647	0.459991
H163	H	0.141823	-0.475877	0.952395
H164	H	0.080878	-0.361206	0.638363
H165	H	0.551722	-0.413701	0.480010
O166	O	0.206660	-0.472305	0.734765
C167	C	0.254581	-0.479505	0.701260
H168	H	0.254454	-0.473798	0.664886
H169	H	0.278843	-0.518214	0.715983
H170	H	0.269195	-0.452326	0.695818
O171	O	0.240031	-0.438641	0.634163
C172	C	0.252340	-0.395745	0.604644
H173	H	0.218686	-0.363676	0.597025
H174	H	0.281918	-0.400299	0.568736
H175	H	0.266372	-0.388573	0.624298
H176	H	0.080840	-0.361208	0.594989
H177	H	0.551560	-0.413310	0.334638
H178	H	0.201155	-0.467643	0.488446
O179	O	0.042047	-0.390123	0.566157
C180	C	0.016432	-0.360578	0.595713
H181	H	0.040801	-0.367087	0.614243
H182	H	-0.017608	-0.370166	0.624614
H183	H	0.005390	-0.320592	0.572184
H184	H	0.237680	-0.473893	0.585645
O185	O	0.239950	-0.438749	0.517294
C186	C	0.265564	-0.468270	0.487713
H187	H	0.241232	-0.486850	0.494253
H188	H	0.299661	-0.497132	0.497232
H189	H	0.276513	-0.444700	0.447735
H190	H	0.237625	-0.324046	0.528499
O191	O	0.334218	-0.512580	0.555908
C192	C	0.300763	-0.537879	0.580973
H193	H	0.264386	-0.515621	0.601909
H194	H	0.315542	-0.574690	0.607603
H195	H	0.295308	-0.543784	0.553676
H196	H	0.194180	-0.317769	0.481510
H197	H	0.163263	-0.225165	0.450676
H198	H	0.087777	-0.225214	0.601924
H199	H	0.118680	-0.317820	0.632757
H200	H	-0.059677	-0.501957	0.173865
O201	O	0.020506	-0.658507	0.170018
C202	C	0.027665	-0.706438	0.203514
H203	H	0.021913	-0.706336	0.239916
H204	H	0.066376	-0.730710	0.188823
H205	H	0.000496	-0.721024	0.208889
H206	H	-0.226875	-0.615140	0.453976
O207	O	-0.095254	-0.527490	0.270394
C208	C	-0.102437	-0.479558	0.236901
H209	H	-0.071630	-0.479686	0.200544
H210	H	-0.102710	-0.455334	0.251666
H211	H	-0.138777	-0.464894	0.231411
H212	H	-0.015108	-0.684041	0.266548
H213	H	0.015526	-0.653210	0.416597
O214	O	-0.013294	-0.691932	0.387599
C215	C	0.016184	-0.717586	0.417230
H216	H	0.034743	-0.693270	0.410762
H217	H	0.045060	-0.751670	0.407695
H218	H	-0.007414	-0.728564	0.457191
O219	O	0.027118	-0.685707	0.315488
C220	C	0.074699	-0.719217	0.312808
H221	H	0.072713	-0.755589	0.342958
H222	H	0.095635	-0.704493	0.317478
H223	H	0.094224	-0.724667	0.275822
O224	O	-0.095394	-0.527600	0.305315
C225	C	-0.140791	-0.534891	0.328452
H226	H	-0.136722	-0.573619	0.355433
H227	H	-0.153821	-0.529198	0.299911
H228	H	-0.168539	-0.507751	0.348721
H229	H	0.052703	-0.782242	0.350169
H230	H	-0.097137	-0.782089	0.407066
H231	H	-0.127938	-0.689491	0.376175
H232	H	-0.134277	-0.646110	0.423254
H233	H	-0.134040	-0.570516	0.271939
O234	O	-0.230568	-0.534937	0.297376
C235	C	-0.197041	-0.527762	0.249464
H236	H	-0.160672	-0.533501	0.249618
H237	H	-0.211739	-0.489048	0.225197
H238	H	-0.191602	-0.554932	0.234835
