data_functionalizedCrystal
_audit_creation_method	'MofGen! by Chris Wilmer'
_symmetry_space_group_name_H-M	'P1'
_symmetry_Int_Tables_number	1
_symmetry_cell_setting	triclinic
loop_
_symmetry_equiv_pos_as_xyz
  x,y,z
_cell_length_a	17.077404
_cell_length_b	29.839131
_cell_length_c	17.077396
_cell_angle_alpha	90.039567
_cell_angle_beta	90.018362
_cell_angle_gamma	90.033199
loop_
_atom_site_label
_atom_site_type_symbol
_atom_site_fract_x
_atom_site_fract_y
_atom_site_fract_z
Zn1	Zn	1.199987	-0.178878	0.443758
Zn2	Zn	1.699987	0.321122	0.943758
Zn3	Zn	1.199866	-0.254008	0.312467
Zn4	Zn	1.699866	0.245992	0.812467
Zn5	Zn	1.068719	-0.178890	0.312509
Zn6	Zn	1.568719	0.321110	0.812509
Zn7	Zn	1.068659	-0.253979	0.443693
Zn8	Zn	1.568659	0.246021	0.943693
O9	O	1.134308	-0.216439	0.378107
O10	O	1.634308	0.283561	0.878107
O11	O	1.309818	-0.188851	0.426352
O12	O	1.809818	0.311149	0.926352
O13	O	1.182444	-0.244062	0.202626
O14	O	1.682444	0.255938	0.702626
O15	O	1.086208	-0.116022	0.329964
O16	O	1.586208	0.383978	0.829964
O17	O	1.309729	-0.244049	0.329893
O18	O	1.809729	0.255951	0.829893
O19	O	1.182650	-0.116012	0.426393
O20	O	1.682650	0.383988	0.926393
O21	O	1.086091	-0.188873	0.202656
O22	O	1.586091	0.311127	0.702656
O23	O	0.958864	-0.188844	0.329901
O24	O	1.458864	0.311156	0.829901
O25	O	1.086105	-0.243999	0.553549
O26	O	1.586105	0.256001	1.053549
O27	O	0.958820	-0.244011	0.426282
O28	O	1.458820	0.255989	0.926282
O29	O	1.182592	-0.188822	0.553597
O30	O	1.682592	0.311178	1.053597
O31	O	1.182385	-0.316872	0.329830
O32	O	1.682385	0.183128	0.829830
O33	O	1.085988	-0.316850	0.426241
O34	O	1.585988	0.183150	0.926241
C35	C	0.930360	-0.216426	0.378089
C36	C	1.430360	0.283574	0.878089
C37	C	0.843110	-0.216431	0.378100
C38	C	1.343110	0.283569	0.878100
C39	C	0.802167	-0.187741	0.428403
C40	C	1.302167	0.312259	0.928403
C41	C	0.720187	-0.187744	0.428407
C42	C	1.220187	0.312256	0.928407
C43	C	0.679151	-0.216440	0.378111
C44	C	1.179151	0.283560	0.878111
C45	C	0.720100	-0.245132	0.327802
C46	C	1.220100	0.254868	0.827802
C47	C	0.802078	-0.245126	0.327795
C48	C	1.302078	0.254874	0.827795
C49	C	0.549229	-0.245142	0.327822
C50	C	1.049229	0.254858	0.827822
C51	C	0.467245	-0.245148	0.327830
C52	C	0.967245	0.254852	0.827830
C53	C	0.467338	-0.187759	0.428433
C54	C	0.967338	0.312241	0.928433
C55	C	0.549317	-0.187754	0.428426
C56	C	1.049317	0.312246	0.928426
C57	C	0.590260	-0.216447	0.378119
C58	C	1.090260	0.283553	0.878119
C59	C	1.134188	-0.333161	0.378041
C60	C	1.634188	0.166839	0.878041
C61	C	1.134209	-0.383096	0.378039
C62	C	1.634209	0.116904	0.878039
C63	C	1.184514	-0.692699	0.428389
C64	C	1.684514	-0.192699	0.928389
C65	C	1.184599	-0.880372	0.428436
C66	C	1.684599	-0.380372	0.928436
O67	O	1.227254	-0.904603	0.471196
O68	O	1.727254	-0.404603	0.971196
N69	N	1.134441	-0.903881	0.378194
N70	N	1.634441	-0.403881	0.878194
C71	C	1.084254	-0.880468	0.327940
C72	C	1.584254	-0.380468	0.827940
O73	O	1.041588	-0.904770	0.285213
O74	O	1.541588	-0.404770	0.785213
C75	C	1.084166	-0.692796	0.327898
C76	C	1.584166	-0.192796	0.827898
C77	C	1.134333	-0.669290	0.378137
C78	C	1.634333	-0.169290	0.878137
C79	C	1.234677	-0.669193	0.478625
C80	C	1.734677	-0.169193	0.978625
C81	C	1.234658	-0.622278	0.478609
C82	C	1.734658	-0.122278	0.978609
C83	C	1.184477	-0.598868	0.428358
C84	C	1.684477	-0.098868	0.928358
C85	C	1.134314	-0.622375	0.378122
C86	C	1.634314	-0.122375	0.878122
C87	C	1.033975	-0.669384	0.277649
C88	C	1.533975	-0.169384	0.777649
C89	C	1.033956	-0.622463	0.277644
C90	C	1.533956	-0.122463	0.777644
C91	C	1.084124	-0.598957	0.327883
C92	C	1.584124	-0.098957	0.827883
C93	C	1.084114	-0.552050	0.327855
C94	C	1.584114	-0.052050	0.827855
N95	N	1.134272	-0.528541	0.378097
N96	N	1.634272	-0.028541	0.878097
C97	C	1.184454	-0.551951	0.428349
C98	C	1.684454	-0.051951	0.928349
C99	C	1.084305	-0.978999	0.327965
C100	C	1.584305	-0.478999	0.827965
C101	C	1.084328	-1.025917	0.327975
C102	C	1.584328	-0.525917	0.827975
C103	C	1.184673	-1.025818	0.428471
C104	C	1.684673	-0.525818	0.928471
C105	C	1.184653	-0.978899	0.428457
C106	C	1.684653	-0.478899	0.928457
C107	C	1.134464	-0.955490	0.378207
C108	C	1.634464	-0.455490	0.878207
C109	C	1.184411	-0.453425	0.428312
C110	C	1.684411	0.046575	0.928312
C111	C	1.184390	-0.406505	0.428290
C112	C	1.684390	0.093495	0.928290
C113	C	1.084043	-0.406608	0.327797
C114	C	1.584043	0.093392	0.827797
C115	C	1.084067	-0.453524	0.327815
C116	C	1.584067	0.046476	0.827815
C117	C	1.134253	-0.476931	0.378079
C118	C	1.634253	0.023069	0.878079
O119	O	1.041476	-0.527790	0.285124
O120	O	1.541476	-0.027790	0.785124
O121	O	1.227102	-0.527641	0.471081
O122	O	1.727102	-0.027641	0.971081
C123	C	1.184533	-0.739615	0.428404
C124	C	1.684533	-0.239615	0.928404
C125	C	1.134370	-0.763121	0.378168
C126	C	1.634370	-0.263121	0.878168
C127	C	1.084189	-0.739711	0.327916
C128	C	1.584189	-0.239711	0.827916
C129	C	1.134393	-0.810039	0.378177
C130	C	1.634393	-0.310039	0.878177
C131	C	1.184575	-0.833448	0.428429
C132	C	1.684575	-0.333448	0.928429
C133	C	1.234733	-0.809940	0.478671
C134	C	1.734733	-0.309940	0.978671
C135	C	1.234714	-0.763024	0.478655
C136	C	1.734714	-0.263024	0.978655
C137	C	1.034031	-0.763220	0.277675
C138	C	1.534031	-0.263220	0.777675
C139	C	1.034054	-0.810135	0.277693
C140	C	1.534054	-0.310135	0.777693
C141	C	1.084236	-0.833545	0.327945
C142	C	1.584236	-0.333545	0.827945
C143	C	1.339052	-0.216452	0.378125
C144	C	1.839052	0.283548	0.878125
C145	C	1.426302	-0.216458	0.378133
C146	C	1.926302	0.283542	0.878133
C147	C	1.134355	-0.216406	0.582851
C148	C	1.634355	0.283594	1.082851
C149	C	1.134376	-0.216392	0.670101
C150	C	1.634376	0.283608	1.170101
C151	C	1.134449	-0.099260	0.378190
C152	C	1.634449	0.400740	0.878190
C153	C	1.134510	-0.049326	0.378226
C154	C	1.634510	0.450674	0.878226
C155	C	1.134306	-0.216439	0.174159
C156	C	1.634306	0.283561	0.674159
C157	C	1.134438	-0.216327	0.086910
C158	C	1.634438	0.283673	0.586910
C159	C	1.184618	-0.187659	0.711117
C160	C	1.684618	0.312341	1.211117
C161	C	1.184627	-0.187644	0.793098
C162	C	1.684627	0.312356	1.293098
C163	C	1.134398	-0.216364	0.834061
C164	C	1.634398	0.283636	1.334061
C165	C	1.084150	-0.245098	0.793038
C166	C	1.584150	0.254902	1.293038
C167	C	1.084137	-0.245111	0.711059
C168	C	1.584137	0.254889	1.211059
C169	C	1.084182	-0.245071	0.963909
C170	C	1.584182	0.254929	1.463909
C171	C	1.084195	-0.245060	1.045893
C172	C	1.584195	0.254940	1.545893
C173	C	1.184672	-0.187605	1.045947
C174	C	1.684672	0.312395	1.545947
C175	C	1.184659	-0.187617	0.963968
C176	C	1.684659	0.312383	1.463968
C177	C	1.134412	-0.216352	0.922952
C178	C	1.634412	0.283648	1.422952
H179	H	0.433998	-0.164396	0.469394
H180	H	0.933998	0.335604	0.969394
Br181	Br	1.252523	-0.485184	0.496527
Br182	Br	1.752523	0.014816	0.996527
Br183	Br	0.605008	-0.148814	0.496695
Br184	Br	1.105008	0.351186	0.996695
Br185	Br	1.252853	-0.148669	0.848760
Br186	Br	1.752853	0.351331	1.348760
Br187	Br	1.015944	-0.374829	0.259600
Br188	Br	1.515944	0.125171	0.759600
H189	H	1.043434	-0.959943	0.287043
H190	H	1.543434	-0.459943	0.787043
Br191	Br	1.302741	-0.590384	0.546801
Br192	Br	1.802741	-0.090384	1.046801
H193	H	1.225583	-0.164207	1.079347
H194	H	1.725583	0.335793	1.579347
H195	H	0.993083	-0.603406	0.236725
H196	H	1.493083	-0.103406	0.736725
Br197	Br	0.965915	-0.731457	0.209475
Br198	Br	1.465915	-0.231457	0.709475
H199	H	1.043292	-0.268445	1.079243
H200	H	1.543292	0.231555	1.579243
Br201	Br	1.252835	-0.148643	0.908376
Br202	Br	1.752835	0.351357	1.408376
H203	H	1.043222	-0.472663	0.286900
H204	H	1.543222	0.027337	0.786900
H205	H	1.225533	-1.044886	0.469387
H206	H	1.725533	-0.544886	0.969387
H207	H	1.225523	-0.164273	0.677772
H208	H	1.725523	0.335727	1.177772
Br209	Br	1.015986	-0.284067	0.908244
Br210	Br	1.515986	0.215933	1.408244
Br211	Br	0.857851	-0.148797	0.496672
Br212	Br	1.357851	0.351203	0.996672
Br213	Br	1.302802	-0.731131	0.546841
Br214	Br	1.802802	-0.231131	1.046841
Br215	Br	1.302840	-0.841719	0.546865
Br216	Br	1.802840	-0.341719	1.046865
H217	H	1.043486	-1.045051	0.287056
H218	H	1.543486	-0.545051	0.787056
H219	H	0.433836	-0.268515	0.286875
H220	H	0.933836	0.231485	0.786875
H221	H	0.993203	-0.829270	0.236775
H222	H	1.493203	-0.329270	0.736775
Br223	Br	1.015975	-0.284074	0.848630
Br224	Br	1.515975	0.215926	1.348630
Br225	Br	0.604795	-0.284085	0.259551
Br226	Br	1.104795	0.215915	0.759551
Br227	Br	0.857645	-0.284064	0.259523
Br228	Br	1.357645	0.215936	0.759523
Br229	Br	1.015944	-0.284104	0.655393
Br230	Br	1.515944	0.215896	1.155393
H231	H	0.686682	-0.268494	0.286847
H232	H	1.186682	0.231506	0.786847
H233	H	1.225245	-0.387368	0.469201
H234	H	1.725245	0.112632	0.969201
H235	H	0.686854	-0.164382	0.469370
H236	H	1.186854	0.335618	0.969370
H237	H	1.275540	-0.688248	0.519550
H238	H	1.775540	-0.188248	1.019550
Br239	Br	1.252740	-0.947003	0.496642
Br240	Br	1.752740	-0.447003	0.996642
H241	H	0.993124	-0.688515	0.236738
H242	H	1.493124	-0.188515	0.736738
