data_functionalizedCrystal
_audit_creation_method	'MofGen! by Chris Wilmer'
_symmetry_space_group_name_H-M	'P1'
_symmetry_Int_Tables_number	1
_symmetry_cell_setting	triclinic
loop_
_symmetry_equiv_pos_as_xyz
  x,y,z
_cell_length_a	10.654545
_cell_length_b	16.776229
_cell_length_c	10.654551
_cell_angle_alpha	90.001631
_cell_angle_beta	84.484254
_cell_angle_gamma	90.005314
loop_
_atom_site_label
_atom_site_type_symbol
_atom_site_fract_x
_atom_site_fract_y
_atom_site_fract_z
O1	O	1.667848	0.066277	0.176369
O2	O	1.302369	0.066280	0.193181
O3	O	1.493511	0.066277	0.002036
O4	O	1.476706	0.066280	0.367514
O5	O	1.493489	-0.066300	0.002035
O6	O	1.302347	-0.066297	0.193180
O7	O	1.667826	-0.066300	0.176368
Zn8	Zn	1.485083	-0.087347	0.184774
Zn9	Zn	1.485112	0.087328	0.184775
O10	O	1.476684	-0.066296	0.367514
C11	C	1.255560	-0.000008	0.191948
C12	C	1.116116	-0.000007	0.188258
N13	N	1.485072	-0.206559	0.184773
C14	C	1.050600	-0.072275	0.186521
C15	C	0.919580	-0.072275	0.183033
C16	C	0.919605	0.072268	0.183025
C17	C	1.050623	0.072267	0.186504
C18	C	1.561901	-0.248272	0.261655
C19	C	1.561915	-0.331724	0.261650
C20	C	1.485093	-0.373462	0.184770
C21	C	1.408261	-0.331742	0.107879
C22	C	1.408255	-0.248292	0.107878
C23	C	1.408286	-0.668289	0.107881
C24	C	1.408296	-0.751746	0.107890
C25	C	1.561947	-0.751722	0.261653
C26	C	1.561940	-0.668272	0.261652
C27	C	1.485114	-0.626560	0.184757
C28	C	1.485102	-0.536071	0.184761
C29	C	1.485098	-0.463948	0.184771
C30	C	1.714635	-0.000010	0.177602
C31	C	1.854079	-0.000006	0.181292
C32	C	1.492265	-0.000010	-0.044762
C33	C	1.488573	-0.000007	-0.184205
N34	N	1.485132	0.206539	0.184767
C35	C	1.486852	0.072262	-0.249709
C36	C	1.483372	0.072262	-0.380729
C37	C	1.483339	-0.072280	-0.380732
C38	C	1.486810	-0.072280	-0.249713
C39	C	1.477929	-0.000008	0.414312
C40	C	1.481622	-0.000006	0.553755
H41	H	1.103921	-0.131124	0.187949
H42	H	1.345717	-0.365731	0.045275
H43	H	1.624492	-0.634293	0.324261
C44	C	1.492148	0.136445	-0.048860
C45	C	1.488746	0.151702	-0.177695
H46	H	1.493313	0.185491	-0.004407
H47	H	1.419617	0.106744	-0.018467
H48	H	1.565836	0.106763	-0.036333
H49	H	1.415053	0.181379	-0.190223
H50	H	1.561284	0.181416	-0.208098
C51	C	0.932723	-0.215146	0.183409
C52	C	0.847564	-0.151714	0.181132
H53	H	0.888259	-0.264190	0.182242
H54	H	0.992769	-0.212144	0.111663
H55	H	0.974879	-0.212128	0.257881
H56	H	0.805414	-0.154729	0.106655
H57	H	0.787495	-0.154717	0.252886
C58	C	1.374471	-0.195477	-0.407910
C59	C	1.481415	-0.151718	-0.452748
H60	H	1.373285	-0.244517	-0.452377
H61	H	1.376791	-0.205820	-0.320518
H62	H	1.300808	-0.165773	-0.420450
H63	H	1.555079	-0.181420	-0.440200
H64	H	1.479106	-0.141377	-0.540162
H65	H	1.103968	0.131120	0.187915
C66	C	1.713772	-0.323319	0.413665
C67	C	1.646357	-0.377576	0.346173
H68	H	1.765897	-0.351627	0.465853
H69	H	1.764734	-0.290769	0.356349
H70	H	1.656398	-0.290772	0.464582
H71	H	1.703731	-0.410119	0.295248
H72	H	1.595390	-0.410139	0.403496
C73	C	1.730955	-0.845544	0.271076
C74	C	1.646414	-0.797573	0.346167
H75	H	1.783102	-0.873844	0.323254
H76	H	1.685207	-0.882342	0.225302
H77	H	1.781906	-0.812975	0.213760
H78	H	1.595456	-0.830143	0.403478
H79	H	1.692166	-0.760771	0.391963
C80	C	1.374567	0.195468	-0.407870
C81	C	1.481484	0.151703	-0.452730
H82	H	1.373406	0.244515	-0.452316
H83	H	1.300894	0.165778	-0.420407
H84	H	1.376903	0.205803	-0.320464
H85	H	1.479142	0.141362	-0.540134
H86	H	1.555175	0.181399	-0.440203
H87	H	0.866264	0.131110	0.181599
C88	C	1.339986	-0.540384	0.039648
C89	C	1.323790	-0.622446	0.023410
H90	H	1.287810	-0.512081	-0.012496
H91	H	1.317431	-0.526722	0.125365
H92	H	1.425702	-0.526694	0.017066
H93	H	1.238076	-0.636136	0.046001
H94	H	1.346337	-0.636113	-0.062326
C95	C	1.256428	-0.743395	-0.044136
C96	C	1.323858	-0.797627	0.023366
H97	H	1.204309	-0.771722	-0.096318
H98	H	1.205457	-0.710850	0.013174
H99	H	1.313792	-0.710841	-0.095060
H100	H	1.266494	-0.830177	0.074298
H101	H	1.374833	-0.830186	-0.033950
C102	C	1.256363	-0.256692	-0.044105
C103	C	1.323797	-0.202437	0.023372
H104	H	1.204218	-0.228382	-0.096272
H105	H	1.313714	-0.289235	-0.095029
H106	H	1.205405	-0.289245	0.013231
H107	H	1.374761	-0.169888	-0.033964
H108	H	1.266438	-0.169880	0.074301
C109	C	1.492108	-0.136458	-0.048866
C110	C	1.488700	-0.151723	-0.177699
H111	H	1.493263	-0.185501	-0.004409
H112	H	1.565789	-0.106772	-0.036342
H113	H	1.419570	-0.106758	-0.018470
H114	H	1.561244	-0.181418	-0.208097
H115	H	1.415012	-0.181421	-0.190231
H116	H	1.624451	-0.214296	0.324268
