data_functionalizedCrystal
_audit_creation_method	'MofGen! by Chris Wilmer'
_symmetry_space_group_name_H-M	'P1'
_symmetry_Int_Tables_number	1
_symmetry_cell_setting	triclinic
loop_
_symmetry_equiv_pos_as_xyz
  x,y,z
_cell_length_a	14.908520
_cell_length_b	19.077367
_cell_length_c	19.077174
_cell_angle_alpha	90.114431
_cell_angle_beta	95.695642
_cell_angle_gamma	84.519511
loop_
_atom_site_label
_atom_site_type_symbol
_atom_site_fract_x
_atom_site_fract_y
_atom_site_fract_z
Zn1	Zn	-0.322800	-1.076262	-0.369368
Zn2	Zn	0.177200	-0.576262	0.130632
Zn3	Zn	-0.468538	-1.065179	-0.258675
Zn4	Zn	0.031462	-0.565179	0.241325
Zn5	Zn	-0.323312	-0.954020	-0.256606
Zn6	Zn	0.176688	-0.454020	0.243394
Zn7	Zn	-0.480638	-0.951916	-0.381413
Zn8	Zn	0.019362	-0.451916	0.118587
O9	O	-0.398822	-1.011844	-0.316516
O10	O	0.101178	-0.511844	0.183484
O11	O	-0.336855	-1.173352	-0.350510
O12	O	0.163145	-0.673352	0.149490
O13	O	-0.444424	-1.046676	-0.159843
O14	O	0.055576	-0.546676	0.340157
O15	O	-0.196411	-0.975755	-0.265657
O16	O	0.303589	-0.475755	0.234343
O17	O	-0.443928	-1.165209	-0.269184
O18	O	0.056072	-0.665209	0.230816
O19	O	-0.196035	-1.065566	-0.348503
O20	O	0.303965	-0.565566	0.151497
O21	O	-0.337727	-0.965008	-0.158322
O22	O	0.162273	-0.465008	0.341678
O23	O	-0.349460	-0.855182	-0.277336
O24	O	0.150540	-0.355182	0.222664
O25	O	-0.464550	-0.972168	-0.478373
O26	O	0.035450	-0.472168	0.021627
O27	O	-0.465047	-0.853635	-0.369032
O28	O	0.034953	-0.353635	0.130968
O29	O	-0.348587	-1.063525	-0.469524
O30	O	0.151413	-0.563525	0.030476
O31	O	-0.596977	-1.044635	-0.280864
O32	O	-0.096977	-0.544635	0.219136
O33	O	-0.605866	-0.961421	-0.371039
O34	O	-0.105866	-0.461421	0.128961
C35	C	-0.408622	-0.828853	-0.324267
C36	C	0.091378	-0.328853	0.175733
C37	C	-0.412838	-0.750568	-0.327601
C38	C	0.087162	-0.250568	0.172399
C39	C	-0.354554	-0.714581	-0.281496
C40	C	0.145446	-0.214581	0.218504
C41	C	-0.358523	-0.641024	-0.284629
C42	C	0.141477	-0.141024	0.215371
C43	C	-0.420771	-0.603455	-0.333870
C44	C	0.079229	-0.103455	0.166130
C45	C	-0.479061	-0.639448	-0.379977
C46	C	0.020939	-0.139448	0.120023
C47	C	-0.475096	-0.713003	-0.376841
C48	C	0.024904	-0.213003	0.123159
C49	C	-0.439095	-0.383383	-0.348360
C50	C	0.060905	0.116617	0.151640
C51	C	-0.443054	-0.309822	-0.351495
C52	C	0.056946	0.190178	0.148505
C53	C	-0.322517	-0.311403	-0.256145
C54	C	0.177483	0.188597	0.243855
C55	C	-0.318554	-0.384960	-0.253016
C56	C	0.181446	0.115040	0.246984
C57	C	-0.376846	-0.420946	-0.299120
C58	C	0.123154	0.079054	0.200880
N59	N	-0.424827	-0.528268	-0.337075
N60	N	0.075173	-0.028268	0.162925
N61	N	-0.372794	-0.496131	-0.295911
N62	N	0.127206	0.003869	0.204089
C63	C	-0.634308	-1.001617	-0.327498
C64	C	-0.134308	-0.501617	0.172502
C65	C	-0.735047	-0.997307	-0.332217
C66	C	-0.235047	-0.497307	0.167783
C67	C	-0.915028	-1.075954	-0.247254
C68	C	-0.415028	-0.575954	0.252746
C69	C	-1.009681	-1.071907	-0.251685
C70	C	-0.509681	-0.571907	0.248315
C71	C	-1.019009	-0.985169	-0.345514
C72	C	-0.519009	-0.485169	0.154486
C73	C	-0.924356	-0.989217	-0.341083
C74	C	-0.424356	-0.489217	0.158917
C75	C	-0.872368	-1.034610	-0.291950
C76	C	-0.372368	-0.534610	0.208050
C77	C	-0.777713	-1.038653	-0.287516
C78	C	-0.277713	-0.538653	0.212484
C79	C	-0.787042	-0.951919	-0.381348
C80	C	-0.287042	-0.451919	0.118652
C81	C	-0.881696	-0.947872	-0.385779
C82	C	-0.381696	-0.447872	0.114221
C83	C	-0.162417	-1.022131	-0.305505
C84	C	0.337583	-0.522131	0.194495
C85	C	-0.061675	-1.026515	-0.300813
C86	C	0.438325	-0.526515	0.199187
C87	C	-0.407861	-1.018848	-0.500218
C88	C	0.092139	-0.518848	-0.000218
C89	C	-0.411713	-1.021833	-0.578501
C90	C	0.088287	-0.521833	-0.078501
C91	C	-0.388979	-0.195550	-0.308727
C92	C	0.111021	0.304450	0.191273
C93	C	-0.384770	-0.273835	-0.305390
C94	C	0.115230	0.226165	0.194610
C95	C	-0.357973	-0.980717	-0.614486
C96	C	0.142027	-0.480717	-0.114486
C97	C	-0.361600	-0.983518	-0.688042
C98	C	0.138400	-0.483518	-0.188042
C99	C	-0.418963	-1.027440	-0.725611
C100	C	0.081037	-0.527440	-0.225611
C101	C	-0.472710	-1.068557	-0.689620
C102	C	0.027290	-0.568557	-0.189620
C103	C	-0.469087	-1.065751	-0.616066
C104	C	0.030913	-0.565751	-0.116066
C105	C	-0.435760	-1.040386	-0.945679
C106	C	0.064240	-0.540386	-0.445679
C107	C	-0.439377	-1.043190	-1.019238
C108	C	0.060623	-0.543190	-0.519238
C109	C	-0.328267	-0.958150	-1.017654
C110	C	0.171733	-0.458150	-0.517654
C111	C	-0.324645	-0.955351	-0.944099
C112	C	0.175355	-0.455351	-0.444099
C113	C	-0.378395	-0.996466	-0.908115
C114	C	0.121605	-0.496466	-0.408115
N115	N	-0.422670	-1.030306	-0.800796
N116	N	0.077330	-0.530306	-0.300796
N117	N	-0.374693	-0.993596	-0.832931
N118	N	0.125307	-0.493596	-0.332931
C119	C	-0.389750	-1.004911	-0.133523
C120	C	0.110250	-0.504911	0.366477
C121	C	-0.385636	-1.002074	-0.055223
C122	C	0.114364	-0.502074	0.444777
H123	H	-0.267871	-0.415543	-0.212913
H124	H	0.232129	0.084457	0.287087
C125	C	-0.524121	-0.738311	-0.497149
C126	C	-0.024121	-0.238311	0.002851
C127	C	-0.539157	-0.752566	-0.427523
C128	C	-0.039157	-0.252566	0.072477
H129	H	-0.563670	-0.762739	-0.528435
H130	H	-0.063670	-0.262739	-0.028435
H131	H	-0.535395	-0.689134	-0.506060
H132	H	-0.035395	-0.189134	-0.006060
H133	H	-0.463103	-0.753404	-0.504171
H134	H	0.036897	-0.253404	-0.004171
H135	H	-0.600174	-0.737468	-0.420499
H136	H	-0.100174	-0.237468	0.079501
H137	H	-0.527890	-0.801754	-0.418608
H138	H	-0.027890	-0.301754	0.081392
C139	C	-0.586280	-1.067169	-0.928743
C140	C	-0.086280	-0.567169	-0.428743
C141	C	-0.494831	-1.085591	-0.906136
C142	C	0.005169	-0.585591	-0.406136
H143	H	-0.622746	-1.095084	-0.904332
H144	H	-0.122746	-0.595084	-0.404332
H145	H	-0.601487	-1.018818	-0.919301
H146	H	-0.101487	-0.518818	-0.419301
H147	H	-0.596628	-1.075122	-0.977927
H148	H	-0.096628	-0.575122	-0.477927
H149	H	-0.484482	-1.077633	-0.856952
H150	H	0.015518	-0.577633	-0.356952
H151	H	-0.479619	-1.133953	-0.915572
H152	H	0.020381	-0.633953	-0.415572
C153	C	-0.919038	-0.828633	-0.426407
C154	C	-0.419038	-0.328633	0.073593
C155	C	-0.938841	-0.897977	-0.439785
C156	C	-0.438841	-0.397977	0.060215
H157	H	-0.954312	-0.797830	-0.459751
H158	H	-0.454312	-0.297830	0.040249
H159	H	-0.932814	-0.815904	-0.380246
H160	H	-0.432814	-0.315904	0.119754
H161	H	-0.856557	-0.825136	-0.430162
H162	H	-0.356557	-0.325136	0.069838
H163	H	-1.001321	-0.901475	-0.436024
H164	H	-0.501321	-0.401475	0.063976
H165	H	-0.925072	-0.910709	-0.485957
H166	H	-0.425072	-0.410709	0.014043
H167	H	-0.872699	-1.112910	-0.207243
H168	H	-0.372699	-0.612910	0.292757
C169	C	-0.538653	-0.525992	-0.427128
C170	C	-0.038653	-0.025992	0.072872
C171	C	-0.547484	-0.598154	-0.434106
C172	C	-0.047484	-0.098154	0.065894
H173	H	-0.580891	-0.500503	-0.460551
H174	H	-0.080891	-0.000503	0.039449
H175	H	-0.550147	-0.511552	-0.380925
H176	H	-0.050147	-0.011552	0.119075
H177	H	-0.478933	-0.516982	-0.435189
H178	H	0.021067	-0.016982	0.064811
H179	H	-0.607202	-0.607165	-0.426041
H180	H	-0.107202	-0.107165	0.073959
H181	H	-0.535996	-0.612600	-0.480321
H182	H	-0.035996	-0.112600	0.019679
C183	C	-0.778004	-1.123986	-0.195220
C184	C	-0.278004	-0.623986	0.304780
C185	C	-0.720566	-1.088549	-0.233512
C186	C	-0.220566	-0.588549	0.266488
H187	H	-0.742723	-1.154794	-0.161883
H188	H	-0.242723	-0.654794	0.338117
H189	H	-0.815286	-1.090716	-0.171283
H190	H	-0.315286	-0.590716	0.328717
H191	H	-0.814946	-1.150492	-0.226525
H192	H	-0.314946	-0.650492	0.273475
H193	H	-0.683628	-1.062039	-0.202207
H194	H	-0.183628	-0.562039	0.297793
H195	H	-0.683268	-1.121825	-0.257449
H196	H	-0.183268	-0.621825	0.242551
H197	H	-0.752299	-0.918252	-0.417741
H198	H	-0.252299	-0.418252	0.082259
H199	H	-0.275059	-0.282095	-0.218609
H200	H	0.224941	0.217905	0.281391
H201	H	-1.044411	-1.105575	-0.215290
H202	H	-0.544411	-0.605575	0.284710
C203	C	-0.235821	-0.708746	-0.187554
C204	C	0.264179	-0.208746	0.312446
C205	C	-0.286134	-0.755872	-0.227364
C206	C	0.213866	-0.255872	0.272636
H207	H	-0.193588	-0.734237	-0.154130
H208	H	0.306412	-0.234237	0.345870
H209	H	-0.204268	-0.682740	-0.217891
H210	H	0.295732	-0.182740	0.282109
H211	H	-0.275489	-0.677309	-0.163633
H212	H	0.224511	-0.177309	0.336367
H213	H	-0.246467	-0.787306	-0.251289
H214	H	0.253533	-0.287306	0.248711
H215	H	-0.317689	-0.781890	-0.197022
H216	H	0.182311	-0.281890	0.302978
H217	H	-0.311256	-0.944955	-0.583903
H218	H	0.188744	-0.444955	-0.083903
H219	H	-0.317842	-0.950034	-0.717338
H220	H	0.182158	-0.450034	-0.217338
C221	C	-0.177745	-0.931384	-1.034611
C222	C	0.322255	-0.431384	-0.534611
C223	C	-0.269194	-0.912954	-1.057210
C224	C	0.230806	-0.412954	-0.557210
H225	H	-0.141278	-0.903481	-1.059036
H226	H	0.358722	-0.403481	-0.559036
H227	H	-0.167385	-0.923425	-0.985436
H228	H	0.332615	-0.423425	-0.485436
H229	H	-0.162549	-0.979744	-1.044049
H230	H	0.337451	-0.479744	-0.544049
H231	H	-0.284392	-0.864595	-1.047768
H232	H	0.215608	-0.364595	-0.547768
H233	H	-0.279559	-0.920907	-1.106398
H234	H	0.220441	-0.420907	-0.606398
H235	H	-1.061353	-0.948217	-0.385520
H236	H	-0.561353	-0.448217	0.114480
C237	C	-0.285763	-0.837145	-0.924450
C238	C	0.214237	-0.337145	-0.424450
C239	C	-0.261590	-0.907069	-0.902807
C240	C	0.238410	-0.407069	-0.402807
H241	H	-0.246835	-0.807340	-0.898955
H242	H	0.253165	-0.307340	-0.398955
H243	H	-0.280229	-0.832936	-0.973400
H244	H	0.219771	-0.332936	-0.473400
H245	H	-0.346619	-0.823734	-0.915660
H246	H	0.153381	-0.323734	-0.415660
H247	H	-0.200736	-0.920482	-0.911602
H248	H	0.299264	-0.420482	-0.411602
H249	H	-0.267116	-0.911281	-0.853846
H250	H	0.232884	-0.411281	-0.353846
H251	H	-0.486090	-1.078959	-1.049824
H252	H	0.013910	-0.578959	-0.549824
C253	C	-0.345592	-0.555273	-0.192798
C254	C	0.154408	-0.055273	0.307202
C255	C	-0.294478	-0.601486	-0.233911
C256	C	0.205522	-0.101486	0.266089
H257	H	-0.306057	-0.530874	-0.161471
H258	H	0.193943	-0.030874	0.338529
H259	H	-0.383200	-0.522358	-0.222568
H260	H	0.116800	-0.022358	0.277432
H261	H	-0.382173	-0.581248	-0.166463
H262	H	0.117827	-0.081248	0.333537
H263	H	-0.257902	-0.575510	-0.260250
H264	H	0.242098	-0.075510	0.239750
H265	H	-0.256855	-0.634405	-0.204137
H266	H	0.243145	-0.134405	0.295863
C267	C	-0.527595	-1.110621	-0.803075
C268	C	-0.027595	-0.610621	-0.303075
C269	C	-0.535766	-1.116837	-0.730914
C270	C	-0.035766	-0.616837	-0.230914
H271	H	-0.566520	-1.140432	-0.828565
H272	H	-0.066520	-0.640432	-0.328565
H273	H	-0.543988	-1.063187	-0.817749
H274	H	-0.043988	-0.563187	-0.317749
H275	H	-0.466736	-1.124041	-0.811849
H276	H	0.033264	-0.624041	-0.311849
H277	H	-0.596624	-1.103412	-0.722139
H278	H	-0.096624	-0.603412	-0.222139
H279	H	-0.519379	-1.164281	-0.716236
H280	H	-0.019379	-0.664281	-0.216236
C281	C	-0.579275	-1.150092	-0.625015
C282	C	-0.079275	-0.650092	-0.125015
C283	C	-0.528161	-1.110947	-0.576509
C284	C	-0.028161	-0.610947	-0.076509
H285	H	-0.615745	-1.177995	-0.600592
H286	H	-0.115745	-0.677995	-0.100592
H287	H	-0.616995	-1.118991	-0.656618
H288	H	-0.116995	-0.618991	-0.156618
H289	H	-0.539748	-1.179849	-0.650723
H290	H	-0.039748	-0.679849	-0.150723
H291	H	-0.567689	-1.081187	-0.550804
H292	H	-0.067689	-0.581187	-0.050804
H293	H	-0.490438	-1.142052	-0.544893
H294	H	0.009562	-0.642052	-0.044893
C295	C	-0.561797	-0.315644	-0.445441
C296	C	-0.061797	0.184356	0.054559
C297	C	-0.511472	-0.268526	-0.405633
C298	C	-0.011472	0.231474	0.094367
H299	H	-0.604030	-0.290148	-0.478862
H300	H	-0.104030	0.209852	0.021138
H301	H	-0.522144	-0.347084	-0.469360
H302	H	-0.022144	0.152916	0.030640
H303	H	-0.593360	-0.341648	-0.415098
H304	H	-0.093360	0.158352	0.084902
H305	H	-0.479904	-0.242526	-0.435976
H306	H	0.020096	0.257474	0.064024
H307	H	-0.551131	-0.237074	-0.381713
H308	H	-0.051131	0.262926	0.118287
H309	H	-0.486561	-0.412673	-0.385902
H310	H	0.013439	0.087327	0.114098
