data_functionalizedCrystal
_audit_creation_method	'MofGen! by Chris Wilmer'
_symmetry_space_group_name_H-M	'P1'
_symmetry_Int_Tables_number	1
_symmetry_cell_setting	triclinic
loop_
_symmetry_equiv_pos_as_xyz
  x,y,z
_cell_length_a	6.817900
_cell_length_b	11.102188
_cell_length_c	12.200875
_cell_angle_alpha	92.493457
_cell_angle_beta	107.143593
_cell_angle_gamma	108.603875
loop_
_atom_site_label
_atom_site_type_symbol
_atom_site_fract_x
_atom_site_fract_y
_atom_site_fract_z
V1	V	-4.094460	-0.176128	-0.357661
O2	O	-4.053827	0.008167	-0.350853
O3	O	-4.071344	-0.348946	-0.355215
O4	O	-4.063800	-0.173549	-0.513649
O5	O	-4.061423	-0.168445	-0.191321
V6	V	-4.572513	-0.154068	-0.337765
O7	O	-4.367717	-0.224516	-0.401304
O8	O	-4.749453	-0.105680	-0.294123
O9	O	-4.372422	0.018750	-0.340211
O10	O	-4.730542	-0.338362	-0.344574
O11	O	-4.722946	-0.161751	-0.504105
O12	O	-4.379966	-0.156647	-0.181777
C13	C	-3.921922	-0.391071	-0.349573
C14	C	-3.984427	-0.532353	-0.348613
C15	C	-3.912297	-0.167333	-0.551670
C16	C	-3.968681	-0.166368	-0.679191
C17	C	-3.958635	-0.580493	-0.243113
C18	C	-4.017389	-0.713244	-0.242215
C19	C	-4.127719	-0.749703	-0.452326
C20	C	-4.068980	-0.616955	-0.453223
C21	C	-4.149487	-0.876921	-0.118458
C22	C	-4.123658	-0.925064	-0.012951
C23	C	-3.937777	-0.861725	0.083188
C24	C	-3.777674	-0.750242	0.073828
C25	C	-3.803488	-0.702106	-0.031680
C26	C	-3.989413	-0.765444	-0.127817
C27	C	-3.936861	-0.453273	-0.576973
C28	C	-3.962660	-0.405134	-0.682481
C29	C	-4.148533	-0.468472	-0.778630
C30	C	-4.308614	-0.579960	-0.769280
C31	C	-4.282815	-0.628099	-0.663772
C32	C	-4.096941	-0.564752	-0.567622
C33	C	-4.071870	-0.164603	-0.912666
C34	C	-4.014440	-0.165585	-0.782744
C35	C	-4.185187	0.060868	-0.345851
C36	C	-4.101921	0.202149	-0.346818
C37	C	-4.194811	-0.162867	-0.143750
C38	C	-4.117665	-0.163826	-0.016228
H39	H	-3.673129	-0.611343	-0.039303
H40	H	-4.413170	-0.718882	-0.656165
H41	H	-4.169514	-0.429272	-0.864543
O42	O	-3.912401	-0.908561	0.185647
C43	C	-3.690371	-0.991290	0.333378
C44	C	-3.718850	-0.938293	0.217330
H45	H	-3.533869	-1.015318	0.359041
H46	H	-3.836600	-1.081900	0.323600
H47	H	-3.679497	-0.915792	0.403451
H48	H	-3.729667	-1.013698	0.147197
H49	H	-3.572615	-0.847654	0.227204
H50	H	-3.832288	-0.314363	-0.690093
O51	O	-4.209546	-0.831749	-0.554006
C52	C	-4.147142	-0.897420	-0.727845
C53	C	-4.054233	-0.804410	-0.612737
H54	H	-4.021597	-0.875367	-0.775350
H55	H	-4.303793	-0.885262	-0.784294
H56	H	-4.184774	-1.000562	-0.709062
H57	H	-4.016467	-0.701230	-0.631412
H58	H	-3.897659	-0.816680	-0.556322
H59	H	-4.459961	-0.631537	-0.847574
H60	H	-4.254032	-1.015835	-0.005338
H61	H	-3.785499	-0.401690	-0.498683
O62	O	-3.597139	-0.688514	0.167180
C63	C	-3.383592	-0.492170	0.301197
C64	C	-3.588095	-0.561922	0.195451
H65	H	-3.376238	-0.389817	0.324102
H66	H	-3.230585	-0.489321	0.279651
H67	H	-3.392639	-0.545778	0.378182
H68	H	-3.579261	-0.508369	0.118422
H69	H	-3.741017	-0.564783	0.217094
H70	H	-3.889789	-0.511612	-0.157932
O71	O	-4.330218	-0.938274	-0.211821
C72	C	-4.650099	-0.923685	-0.353821
C73	C	-4.445525	-0.854051	-0.248077
H74	H	-4.743358	-0.855613	-0.383181
H75	H	-4.760219	-1.011604	-0.329046
H76	H	-4.598072	-0.955373	-0.427578
H77	H	-4.497353	-0.822279	-0.174276
H78	H	-4.335454	-0.766191	-0.272946
