data_functionalizedCrystal
_audit_creation_method	'MofGen! by Chris Wilmer'
_symmetry_space_group_name_H-M	'P1'
_symmetry_Int_Tables_number	1
_symmetry_cell_setting	triclinic
loop_
_symmetry_equiv_pos_as_xyz
  x,y,z
_cell_length_a	17.077404
_cell_length_b	21.295417
_cell_length_c	17.077396
_cell_angle_alpha	89.966808
_cell_angle_beta	89.981638
_cell_angle_gamma	90.028477
loop_
_atom_site_label
_atom_site_type_symbol
_atom_site_fract_x
_atom_site_fract_y
_atom_site_fract_z
Zn1	Zn	1.200013	-0.250643	-0.443793
Zn2	Zn	1.533346	0.082690	-0.110460
Zn3	Zn	1.866680	0.416023	0.222874
Zn4	Zn	1.199903	-0.355916	-0.312516
Zn5	Zn	1.533236	-0.022583	0.020817
Zn6	Zn	1.866569	0.310750	0.354150
Zn7	Zn	1.068745	-0.250661	-0.312544
Zn8	Zn	1.402078	0.082672	0.020790
Zn9	Zn	1.735411	0.416005	0.354123
Zn10	Zn	1.068695	-0.355875	-0.443743
Zn11	Zn	1.402029	-0.022542	-0.110409
Zn12	Zn	1.735362	0.310792	0.222924
O13	O	1.134339	-0.303274	-0.378149
O14	O	1.467672	0.030059	-0.044816
O15	O	1.801006	0.363393	0.288518
O16	O	1.309845	-0.264618	-0.426389
O17	O	1.643179	0.068715	-0.093055
O18	O	1.976512	0.402049	0.240278
O19	O	1.182479	-0.341979	-0.202673
O20	O	1.515812	-0.008646	0.130660
O21	O	1.849145	0.324688	0.463994
O22	O	1.086225	-0.162569	-0.329987
O23	O	1.419558	0.170764	0.003347
O24	O	1.752891	0.504097	0.336680
O25	O	1.309764	-0.341962	-0.329940
O26	O	1.643098	-0.008628	0.003393
O27	O	1.976431	0.324705	0.336726
O28	O	1.182667	-0.162556	-0.426415
O29	O	1.516000	0.170777	-0.093082
O30	O	1.849334	0.504110	0.240251
O31	O	1.086118	-0.264648	-0.202693
O32	O	1.419451	0.068685	0.130640
O33	O	1.752784	0.402018	0.463974
O34	O	0.958891	-0.264608	-0.329938
O35	O	1.292225	0.068725	0.003396
O36	O	1.625558	0.402058	0.336729
O37	O	1.086140	-0.341891	-0.553596
O38	O	1.419474	-0.008557	-0.220263
O39	O	1.752807	0.324776	0.113070
O40	O	0.958855	-0.341908	-0.426329
O41	O	1.292188	-0.008575	-0.092996
O42	O	1.625522	0.324758	0.240338
O43	O	1.182619	-0.264578	-0.553633
O44	O	1.515952	0.068756	-0.220300
O45	O	1.849286	0.402089	0.113033
O46	O	1.182431	-0.444000	-0.329891
O47	O	1.515764	-0.110667	0.003442
O48	O	1.849097	0.222666	0.336776
O49	O	1.086033	-0.443970	-0.426302
O50	O	1.419367	-0.110636	-0.092969
O51	O	1.752700	0.222697	0.240364
C52	C	0.930391	-0.303256	-0.378131
C53	C	1.263724	0.030077	-0.044798
C54	C	1.597058	0.363411	0.288535
C55	C	0.843141	-0.303264	-0.378142
C56	C	1.176475	0.030070	-0.044809
C57	C	1.509808	0.363403	0.288524
C58	C	0.802194	-0.263062	-0.428440
C59	C	1.135527	0.070271	-0.095106
C60	C	1.468861	0.403604	0.238227
C61	C	0.720214	-0.263066	-0.428443
C62	C	1.053547	0.070267	-0.095110
C63	C	1.386880	0.403600	0.238223
C64	C	0.679182	-0.303275	-0.378153
C65	C	1.012515	0.030058	-0.044820
C66	C	1.345849	0.363391	0.288514
C67	C	0.720135	-0.343478	-0.327850
C68	C	1.053468	-0.010145	0.005483
C69	C	1.386802	0.323188	0.338817
C70	C	0.802114	-0.343471	-0.327843
C71	C	1.135447	-0.010137	0.005490
C72	C	1.468780	0.323196	0.338824
C73	C	0.549265	-0.343493	-0.327870
C74	C	0.882598	-0.010159	0.005464
C75	C	1.215931	0.323174	0.338797
C76	C	0.467280	-0.343501	-0.327877
C77	C	0.800614	-0.010168	0.005456
C78	C	1.133947	0.323165	0.338789
C79	C	0.467365	-0.263088	-0.428470
C80	C	0.800698	0.070245	-0.095137
C81	C	1.134031	0.403578	0.238197
C82	C	0.549344	-0.263081	-0.428463
C83	C	0.882677	0.070253	-0.095130
C84	C	1.216010	0.403586	0.238204
C85	C	0.590291	-0.303285	-0.378161
C86	C	0.923624	0.030049	-0.044827
C87	C	1.256958	0.363382	0.288506
C88	C	1.134236	-0.466826	-0.378105
C89	C	1.467569	-0.133492	-0.044772
C90	C	1.800903	0.199841	0.288561
C91	C	1.134264	-0.536794	-0.378113
C92	C	1.467597	-0.203460	-0.044780
C93	C	1.800931	0.129873	0.288554
C94	C	1.184503	-0.569655	-0.327963
C95	C	1.517836	-0.236322	0.005370
C96	C	1.851169	0.097011	0.338704
C97	C	1.184539	-0.635398	-0.327981
C98	C	1.517873	-0.302064	0.005353
C99	C	1.851206	0.031269	0.338686
C100	C	1.134323	-0.668276	-0.378140
C101	C	1.467657	-0.334943	-0.044807
C102	C	1.800990	-0.001610	0.288527
C103	C	1.084081	-0.635407	-0.428300
C104	C	1.417414	-0.302073	-0.094967
C105	C	1.750748	0.031260	0.238367
C106	C	1.084051	-0.569665	-0.428286
C107	C	1.417385	-0.236332	-0.094953
C108	C	1.750718	0.097001	0.238380
N109	N	1.065655	-0.771540	-0.384118
N110	N	1.398988	-0.438207	-0.050785
N111	N	1.732321	-0.104873	0.282548
N112	N	1.065685	-0.833991	-0.384127
N113	N	1.399019	-0.500658	-0.050793
N114	N	1.732352	-0.167325	0.282540
C115	C	1.134411	-0.866351	-0.378185
C116	C	1.467745	-0.533018	-0.044852
C117	C	1.801078	-0.199684	0.288482
N118	N	1.203107	-0.833900	-0.372220
N119	N	1.536441	-0.500566	-0.038886
N120	N	1.869774	-0.167233	0.294447
N121	N	1.203076	-0.771443	-0.372207
N122	N	1.536409	-0.438109	-0.038874
N123	N	1.869743	-0.104776	0.294459
C124	C	1.134350	-0.739562	-0.378161
C125	C	1.467684	-0.406228	-0.044827
C126	C	1.801017	-0.072895	0.288506
C127	C	1.184694	-0.970498	-0.328052
C128	C	1.518028	-0.637165	0.005282
C129	C	1.851361	-0.303831	0.338615
C130	C	1.184732	-1.036242	-0.328075
C131	C	1.518066	-0.702908	0.005258
C132	C	1.851399	-0.369575	0.338592
C133	C	1.084267	-1.036249	-0.428390
C134	C	1.417600	-0.702916	-0.095056
C135	C	1.750934	-0.369583	0.238277
C136	C	1.084236	-0.970507	-0.428371
C137	C	1.417569	-0.637173	-0.095037
C138	C	1.750903	-0.303840	0.238296
C139	C	1.134448	-0.937635	-0.378198
C140	C	1.467782	-0.604302	-0.044864
C141	C	1.801115	-0.270968	0.288469
C142	C	1.339083	-0.303292	-0.378167
C143	C	1.672417	0.030041	-0.044834
C144	C	2.005750	0.363374	0.288500
C145	C	1.426333	-0.303300	-0.378175
C146	C	1.759666	0.030033	-0.044841
C147	C	2.093000	0.363367	0.288492
C148	C	1.134386	-0.303228	-0.582893
C149	C	1.467720	0.030106	-0.249560
C150	C	1.801053	0.363439	0.083773
C151	C	1.134407	-0.303208	-0.670143
C152	C	1.467740	0.030126	-0.336810
C153	C	1.801073	0.363459	-0.003476
C154	C	1.134464	-0.139084	-0.378210
C155	C	1.467797	0.194250	-0.044876
C156	C	1.801130	0.527583	0.288457
C157	C	1.134517	-0.069116	-0.378236
C158	C	1.467850	0.264218	-0.044902
C159	C	1.801183	0.597551	0.288431
C160	C	1.184645	-0.262948	-0.711154
C161	C	1.517978	0.070386	-0.377821
C162	C	1.851312	0.403719	-0.044487
C163	C	1.184654	-0.262927	-0.793134
C164	C	1.517988	0.070407	-0.459801
C165	C	1.851321	0.403740	-0.126468
C166	C	1.134429	-0.303170	-0.834103
C167	C	1.467762	0.030164	-0.500769
C168	C	1.801096	0.363497	-0.167436
C169	C	1.084185	-0.343432	-0.793086
C170	C	1.417519	-0.010098	-0.459753
C171	C	1.750852	0.323235	-0.126419
C172	C	1.084172	-0.343449	-0.711107
C173	C	1.417506	-0.010116	-0.377774
C174	C	1.750839	0.323218	-0.044440
C175	C	1.084217	-0.343394	-0.963956
C176	C	1.417550	-0.010060	-0.630623
C177	C	1.750884	0.323273	-0.297290
C178	C	1.084231	-0.343377	-1.045941
C179	C	1.417564	-0.010044	-0.712608
C180	C	1.750897	0.323289	-0.379274
C181	C	1.184699	-0.262871	-1.045984
C182	C	1.518032	0.070462	-0.712650
C183	C	1.851365	0.403795	-0.379317
C184	C	1.184686	-0.262889	-0.964005
C185	C	1.518019	0.070445	-0.630671
C186	C	1.851353	0.403778	-0.297338
C187	C	1.134443	-0.303152	-0.922994
C188	C	1.467776	0.030182	-0.589660
C189	C	1.801110	0.363515	-0.256327
C190	C	1.134337	-0.303275	-0.174201
C191	C	1.467670	0.030059	0.159132
C192	C	1.801003	0.363392	0.492466
C193	C	1.134469	-0.303117	-0.086952
C194	C	1.467802	0.030216	0.246382
C195	C	1.801135	0.363550	0.579715
H196	H	0.433874	-0.376243	-0.286927
H197	H	0.767208	-0.042910	0.046406
H198	H	1.100541	0.290423	0.379740
H199	H	1.225648	-1.062997	-0.287238
H200	H	1.558981	-0.729663	0.046095
H201	H	1.892314	-0.396330	0.379428
H202	H	1.043255	-0.376227	-0.677717
H203	H	1.376589	-0.042893	-0.344384
H204	H	1.709922	0.290440	-0.011050
H205	H	0.434021	-0.230352	-0.469426
H206	H	0.767355	0.102982	-0.136093
H207	H	1.100688	0.436315	0.197240
O208	O	0.593434	-0.386856	-0.273619
O209	O	0.926768	-0.053523	0.059715
O210	O	1.260101	0.279811	0.393048
H211	H	0.551131	-0.414823	-0.238656
H212	H	0.884465	-0.081489	0.094677
H213	H	1.217798	0.251844	0.428011
H214	H	1.043196	-0.662180	-0.469141
H215	H	1.376530	-0.328847	-0.135808
H216	H	1.709863	0.004486	0.197525
H217	H	1.225583	-0.943733	-0.287200
H218	H	1.558916	-0.610399	0.046133
H219	H	1.892250	-0.277066	0.379467
H220	H	1.043384	-1.063018	-0.469234
H221	H	1.376717	-0.729685	-0.135901
H222	H	1.710050	-0.396351	0.197433
O223	O	1.030042	-0.935062	-0.482459
O224	O	1.363375	-0.601728	-0.149125
O225	O	1.696708	-0.268395	0.184208
H226	H	1.038461	-0.883825	-0.474027
H227	H	1.371795	-0.550491	-0.140694
H228	H	1.705128	-0.217158	0.192639
O229	O	0.846449	-0.219690	-0.482677
O230	O	1.179783	0.113643	-0.149344
O231	O	1.513116	0.446977	0.183990
H232	H	0.804200	-0.191731	-0.517645
H233	H	1.137533	0.141602	-0.184312
H234	H	1.470866	0.474936	0.149022
H235	H	0.686720	-0.376214	-0.286899
H236	H	1.020054	-0.042881	0.046434
H237	H	1.353387	0.290452	0.379768
O238	O	0.676046	-0.219706	-0.482691
O239	O	1.009379	0.113627	-0.149358
O240	O	1.342713	0.446960	0.183975
H241	H	0.718351	-0.191751	-0.517666
H242	H	1.051684	0.141583	-0.184333
H243	H	1.385017	0.474916	0.149000
H244	H	0.835452	-0.376206	-0.286885
H245	H	1.168785	-0.042873	0.046448
H246	H	1.502119	0.290460	0.379781
H247	H	1.225390	-0.542893	-0.287111
H248	H	1.558724	-0.209560	0.046222
H249	H	1.892057	0.123774	0.379555
H250	H	0.582750	-0.230343	-0.469418
H251	H	0.916083	0.102991	-0.136085
H252	H	1.249416	0.436324	0.197248
H253	H	1.225565	-0.230144	-0.826522
H254	H	1.558899	0.103189	-0.493188
H255	H	1.892232	0.436523	-0.159855
H256	H	1.043291	-0.376170	-0.930568
H257	H	1.376625	-0.042837	-0.597234
H258	H	1.709958	0.290496	-0.263901
O259	O	1.238821	-0.219541	-0.666975
O260	O	1.572154	0.113793	-0.333641
O261	O	1.905488	0.447126	-0.000308
H262	H	1.278737	-0.247728	-0.629628
H263	H	1.612070	0.085606	-0.296294
H264	H	1.945404	0.418939	0.037039
O265	O	1.238737	-0.670860	-0.273905
O266	O	1.572070	-0.337527	0.059429
O267	O	1.905403	-0.004193	0.392762
H268	H	1.203642	-0.700870	-0.233952
H269	H	1.536976	-0.367536	0.099382
H270	H	1.870309	-0.034203	0.432715
O271	O	1.029849	-0.534215	-0.482364
O272	O	1.363182	-0.200882	-0.149030
O273	O	1.696516	0.132451	0.184303
H274	H	0.994929	-0.568119	-0.517242
H275	H	1.328262	-0.234786	-0.183908
H276	H	1.661596	0.098547	0.149425
O277	O	1.238859	-0.219488	-0.919812
O278	O	1.572193	0.113845	-0.586479
O279	O	1.905526	0.447178	-0.253145
H280	H	1.273795	-0.191485	-0.962100
H281	H	1.607128	0.141849	-0.628767
H282	H	1.940461	0.475182	-0.295434
H283	H	1.225607	-0.230087	-1.079379
H284	H	1.558940	0.103247	-0.746045
H285	H	1.892274	0.436580	-0.412712
H286	H	1.043331	-0.376145	-1.079295
H287	H	1.376664	-0.042812	-0.745962
H288	H	1.709998	0.290521	-0.412628
O289	O	1.030005	-0.386832	-0.837270
O290	O	1.363339	-0.053499	-0.503936
O291	O	1.696672	0.279834	-0.170603
H292	H	1.065116	-0.418860	-0.874609
H293	H	1.398449	-0.085527	-0.541275
H294	H	1.731783	0.247806	-0.207942
