data_functionalizedCrystal
_audit_creation_method	'MofGen! by Chris Wilmer'
_symmetry_space_group_name_H-M	'P1'
_symmetry_Int_Tables_number	1
_symmetry_cell_setting	triclinic
loop_
_symmetry_equiv_pos_as_xyz
  x,y,z
_cell_length_a	16.109301
_cell_length_b	19.188930
_cell_length_c	15.186229
_cell_angle_alpha	90.009393
_cell_angle_beta	90.001245
_cell_angle_gamma	83.303131
loop_
_atom_site_label
_atom_site_type_symbol
_atom_site_fract_x
_atom_site_fract_y
_atom_site_fract_z
O1	O	1.102834	0.089744	0.073183
O2	O	0.860735	0.100913	0.073198
O3	O	0.988771	-0.006311	0.073173
O4	O	0.974798	0.196968	0.073208
O5	O	0.988761	-0.006313	-0.073284
O6	O	0.860725	0.100910	-0.073259
O7	O	1.102824	0.089742	-0.073274
Zn8	Zn	0.981773	0.095326	-0.096520
Zn9	Zn	0.981786	0.095329	0.096444
O10	O	0.974788	0.196965	-0.073249
C11	C	0.829757	0.100459	-0.000029
C12	C	0.737466	0.099103	-0.000024
C13	C	0.988313	-0.032324	-0.000058
C14	C	0.986955	-0.109832	-0.000066
C15	C	0.514993	0.159573	-0.000023
C16	C	0.428277	0.158294	-0.000029
C17	C	0.448573	0.031076	-0.000048
C18	C	0.535287	0.032357	-0.000048
C19	C	0.568495	0.096608	-0.000031
C20	C	0.395064	0.094047	-0.000037
C21	C	0.301043	0.092659	-0.000043
C22	C	0.662522	0.097996	-0.000027
C23	C	1.062082	-0.154580	-0.000075
C24	C	1.060806	-0.227407	-0.000060
C25	C	0.984399	-0.255482	-0.000055
C26	C	0.909261	-0.210724	-0.000041
C27	C	0.910540	-0.137899	-0.000046
N28	N	0.925991	-0.363624	-0.049893
N29	N	0.924782	-0.432806	-0.049890
C30	C	0.980543	-0.474900	-0.000037
N31	N	1.037571	-0.445200	0.049802
N32	N	1.038783	-0.376012	0.049795
C33	C	0.983004	-0.334448	-0.000049
C34	C	1.054292	-0.598616	-0.000029
C35	C	1.053012	-0.671443	-0.000010
C36	C	0.901465	-0.654759	0.000001
C37	C	0.902747	-0.581933	-0.000010
C38	C	0.979162	-0.553866	-0.000029
C39	C	1.133802	0.090196	-0.000045
C40	C	1.226093	0.091552	-0.000045
C41	C	0.975246	0.222979	-0.000016
C42	C	0.976604	0.300486	-0.000003
N43	N	0.981770	0.095323	-0.228213
C44	C	1.038487	0.047860	-0.546142
C45	C	1.038485	0.047861	-0.453952
C46	C	0.925075	0.142794	-0.453940
C47	C	0.925082	0.142797	-0.546128
C48	C	0.981787	0.095326	-0.592227
C49	C	0.981778	0.095324	-0.407849
C50	C	0.981775	0.095324	-0.307893
C51	C	0.981792	0.095326	-0.692189
N52	N	0.981795	0.095326	0.228137
H53	H	0.542027	0.211890	-0.000016
H54	H	1.084661	0.009208	-0.583673
H55	H	1.124306	-0.131733	-0.000087
H56	H	0.578851	-0.018920	-0.000057
H57	H	1.121986	-0.263848	-0.000064
H58	H	0.847050	-0.233587	-0.000035
H59	H	0.849360	-0.101464	-0.000039
C60	C	1.203960	-0.622420	-0.000017
C61	C	1.138285	-0.567759	-0.000029
H62	H	1.255812	-0.603369	-0.000009
H63	H	1.200313	-0.650484	-0.051086
H64	H	1.200299	-0.650469	0.051061
H65	H	1.141941	-0.539712	-0.051111
H66	H	1.141933	-0.539682	0.051044
H67	H	1.114193	-0.707878	-0.000012
C68	C	1.150576	-0.045982	-0.463231
C69	C	1.100808	-0.004318	-0.403296
H70	H	1.189049	-0.078199	-0.431956
H71	H	1.180378	-0.016914	-0.499175
H72	H	1.116051	-0.071100	-0.499198
H73	H	1.135333	0.020803	-0.367333
H74	H	1.071004	-0.033391	-0.367336
C75	C	0.874700	0.184937	-0.312616
C76	C	0.862739	0.194965	-0.403265
H77	H	0.836209	0.217142	-0.281335
H78	H	0.930148	0.192535	-0.297502
H79	H	0.865841	0.138333	-0.297533
H80	H	0.871605	0.241567	-0.418349
H81	H	0.807278	0.187372	-0.418386
C82	C	0.781008	0.183767	-0.574530
C83	C	0.862751	0.194972	-0.596793
H84	H	0.742532	0.215975	-0.605814
H85	H	0.772890	0.190563	-0.513037
H86	H	0.772161	0.137165	-0.589655
H87	H	0.871600	0.241573	-0.581662
H88	H	0.870872	0.188182	-0.658300
C89	C	0.416932	0.284169	0.000003
C90	C	0.369468	0.227508	-0.000014
H91	H	0.380623	0.326900	0.000017
H92	H	0.451173	0.282022	-0.051067
H93	H	0.451178	0.282016	0.051079
H94	H	0.335225	0.229658	-0.051094
H95	H	0.335211	0.229656	0.051061
C96	C	0.832216	-0.758982	0.000015
C97	C	0.817475	-0.685610	0.000010
H98	H	0.780361	-0.778029	0.000018
H99	H	0.863139	-0.774329	0.051083
H100	H	0.863135	-0.774347	-0.051064
H101	H	0.786561	-0.670245	0.051091
H102	H	0.786539	-0.670257	-0.051064
H103	H	0.841570	-0.545497	-0.000008
H104	H	0.421524	-0.021234	-0.000066
