data_functionalizedCrystal
_audit_creation_method	'MofGen! by Chris Wilmer'
_symmetry_space_group_name_H-M	'P1'
_symmetry_Int_Tables_number	1
_symmetry_cell_setting	triclinic
loop_
_symmetry_equiv_pos_as_xyz
  x,y,z
_cell_length_a	19.188930
_cell_length_b	19.188930
_cell_length_c	10.868271
_cell_angle_alpha	89.989749
_cell_angle_beta	89.981803
_cell_angle_gamma	83.144779
loop_
_atom_site_label
_atom_site_type_symbol
_atom_site_fract_x
_atom_site_fract_y
_atom_site_fract_z
O1	O	0.926145	0.087168	-0.102732
O2	O	1.426145	0.587168	0.397268
O3	O	0.722833	0.098902	-0.102649
O4	O	1.222833	0.598902	0.397351
O5	O	0.830356	-0.008620	-0.102669
O6	O	1.330356	0.491380	0.397331
O7	O	0.818622	0.194691	-0.102712
O8	O	1.318622	0.694691	0.397288
O9	O	0.830347	-0.008625	0.101976
O10	O	1.330347	0.491375	0.601976
O11	O	0.722825	0.098898	0.101996
O12	O	1.222825	0.598898	0.601996
O13	O	0.926136	0.087164	0.101913
O14	O	1.426136	0.587164	0.601913
Zn15	Zn	0.824479	0.093030	0.134446
Zn16	Zn	1.324479	0.593030	0.634446
Zn17	Zn	0.824490	0.093036	-0.135182
Zn18	Zn	1.324490	0.593036	0.364818
O19	O	0.818613	0.194687	0.101933
O20	O	1.318613	0.694687	0.601933
C21	C	0.696818	0.098520	-0.000316
C22	C	1.196818	0.598520	0.499684
C23	C	0.619313	0.097380	-0.000283
C24	C	1.119313	0.597380	0.499717
C25	C	0.829972	-0.034634	-0.000343
C26	C	1.329972	0.465366	0.499657
C27	C	0.828831	-0.112138	-0.000332
C28	C	1.328831	0.387862	0.499668
C29	C	0.574389	0.160470	-0.000316
C30	C	1.074389	0.660470	0.499684
C31	C	0.501566	0.159399	-0.000329
C32	C	1.001566	0.659399	0.499671
C33	C	0.473669	0.095233	-0.000335
C34	C	0.973669	0.595233	0.499665
C35	C	0.518603	0.032133	-0.000295
C36	C	1.018603	0.532133	0.499705
C37	C	0.591425	0.033207	-0.000269
C38	C	1.091425	0.533207	0.499731
N39	N	0.365692	0.046187	-0.070023
N40	N	0.865692	0.546187	0.429977
N41	N	0.296513	0.045172	-0.070050
N42	N	0.796513	0.545172	0.429950
C43	C	0.254260	0.091994	-0.000409
C44	C	0.754260	0.591994	0.499591
N45	N	0.283798	0.139882	0.069244
N46	N	0.783798	0.639882	0.569244
N47	N	0.352983	0.140899	0.069266
N48	N	0.852983	0.640899	0.569266
C49	C	0.394707	0.094062	-0.000362
C50	C	0.894707	0.594062	0.499638
C51	C	0.130372	0.153928	-0.000455
C52	C	0.630372	0.653928	0.499545
C53	C	0.057547	0.152853	-0.000460
C54	C	0.557547	0.652853	0.499540
C55	C	0.074586	0.025586	-0.000438
C56	C	0.574586	0.525586	0.499562
C57	C	0.147409	0.026662	-0.000420
C58	C	0.647409	0.526662	0.499580
C59	C	0.175298	0.090835	-0.000434
C60	C	0.675298	0.590835	0.499566
C61	C	0.891922	-0.157062	-0.000351
C62	C	1.391922	0.342938	0.499649
C63	C	0.890850	-0.229886	-0.000371
C64	C	1.390850	0.270114	0.499629
C65	C	0.826684	-0.257782	-0.000345
C66	C	1.326684	0.242218	0.499655
C67	C	0.763585	-0.212849	-0.000333
C68	C	1.263585	0.287151	0.499667
C69	C	0.764658	-0.140026	-0.000326
C70	C	1.264658	0.359974	0.499674
N71	N	0.777634	-0.365789	0.069319
N72	N	1.277634	0.134211	0.569319
N73	N	0.776618	-0.434967	0.069315
N74	N	1.276618	0.065033	0.569315
C75	C	0.823446	-0.477191	-0.000369
C76	C	1.323446	0.022809	0.499631
N77	N	0.871338	-0.447624	-0.070033
N78	N	1.371338	0.052376	0.429967
N79	N	0.872356	-0.378439	-0.070024
N80	N	1.372356	0.121561	0.429976
C81	C	0.825513	-0.336745	-0.000354
C82	C	1.325513	0.163255	0.499646
C83	C	0.885379	-0.601079	-0.000411
C84	C	1.385379	-0.101079	0.499589
C85	C	0.884305	-0.673904	-0.000438
C86	C	1.384305	-0.173904	0.499562
C87	C	0.757038	-0.656865	-0.000388
C88	C	1.257038	-0.156865	0.499612
C89	C	0.758114	-0.584042	-0.000373
C90	C	1.258114	-0.084042	0.499627
C91	C	0.822286	-0.556154	-0.000379
C92	C	1.322286	-0.056154	0.499621
C93	C	0.952151	0.087546	-0.000423
C94	C	1.452151	0.587546	0.499577
C95	C	1.029656	0.088687	-0.000463
C96	C	1.529656	0.588687	0.499537
C97	C	0.818997	0.220700	-0.000396
C98	C	1.318997	0.720700	0.499604
C99	C	0.820138	0.298204	-0.000415
C100	C	1.320138	0.798204	0.499585
N101	N	0.824476	0.093026	0.318460
N102	N	1.324476	0.593026	0.818460
N103	N	0.824499	0.093034	-0.319196
N104	N	1.324499	0.593034	0.180804
C105	C	0.824487	0.093034	0.569466
C106	C	1.324487	0.593034	1.069466
C107	C	0.824478	0.093032	0.429789
C108	C	1.324478	0.593032	0.929789
H109	H	0.597091	0.212725	-0.000330
H110	H	1.097091	0.712725	0.499670
H111	H	0.935683	-0.710481	-0.000461
H112	H	1.435683	-0.210481	0.499539
H113	H	0.704792	-0.679578	-0.000374
H114	H	1.204792	-0.179578	0.499626
O115	O	0.690066	-0.535581	-0.000321
O116	O	1.190066	-0.035581	0.499679
H117	H	0.645266	-0.567211	-0.000293
H118	H	1.145266	-0.067211	0.499707
O119	O	0.694377	-0.242935	-0.000289
O120	O	1.194377	0.257065	0.499711
H121	H	0.690848	-0.275703	-0.083691
H122	H	1.190848	0.224297	0.416309
H123	H	0.464982	0.210776	-0.000353
H124	H	0.964982	0.710776	0.499647
O125	O	0.958900	-0.278354	-0.000375
O126	O	1.458900	0.221646	0.499625
H127	H	1.003702	-0.246727	-0.000368
H128	H	1.503702	0.253273	0.499632
H129	H	0.153080	0.206181	-0.000448
H130	H	0.653080	0.706181	0.499552
H131	H	0.944176	-0.134360	-0.000360
H132	H	1.444176	0.365640	0.499640
O133	O	0.696608	-0.091565	-0.000283
O134	O	1.196608	0.408435	0.499717
H135	H	0.651807	-0.123194	-0.000260
H136	H	1.151807	0.376806	0.499740
O137	O	0.195865	-0.041389	-0.000394
O138	O	0.695865	0.458611	0.499606
H139	H	0.251189	-0.029863	-0.000365
H140	H	0.751189	0.470137	0.499635
O141	O	0.488521	-0.037077	-0.000301
O142	O	0.988521	0.462923	0.499699
H143	H	0.430335	-0.027225	-0.000336
H144	H	0.930335	0.472775	0.499664
O145	O	0.639886	-0.034843	-0.000240
O146	O	1.139886	0.465157	0.499760
H147	H	0.608257	-0.079644	-0.000249
H148	H	1.108257	0.420356	0.499751
H149	H	0.937632	-0.578372	-0.000422
H150	H	1.437632	-0.078372	0.499578
H151	H	0.020970	0.204232	-0.000480
H152	H	0.520970	0.704232	0.499520
H153	H	0.051874	-0.026659	-0.000519
H154	H	0.551874	0.473341	0.499481
