data_functionalizedCrystal
_audit_creation_method	'MofGen! by Chris Wilmer'
_symmetry_space_group_name_H-M	'P1'
_symmetry_Int_Tables_number	1
_symmetry_cell_setting	triclinic
loop_
_symmetry_equiv_pos_as_xyz
  x,y,z
_cell_length_a	21.395362
_cell_length_b	18.101395
_cell_length_c	21.395364
_cell_angle_alpha	90.009348
_cell_angle_beta	90.027061
_cell_angle_gamma	90.046983
loop_
_atom_site_label
_atom_site_type_symbol
_atom_site_fract_x
_atom_site_fract_y
_atom_site_fract_z
Zn1	Zn	0.957753	-0.294648	0.354598
Zn2	Zn	1.457753	0.205352	0.854598
Zn3	Zn	0.957686	-0.418458	0.249825
Zn4	Zn	1.457686	0.081542	0.749825
Zn5	Zn	0.852999	-0.294669	0.249799
Zn6	Zn	1.352999	0.205331	0.749799
Zn7	Zn	0.852937	-0.418487	0.354530
Zn8	Zn	1.352937	0.081513	0.854530
O9	O	0.905344	-0.356565	0.302188
O10	O	1.405344	0.143435	0.802188
O11	O	1.045422	-0.311051	0.340739
O12	O	1.545422	0.188949	0.840739
O13	O	0.943797	-0.402033	0.162144
O14	O	1.443797	0.097967	0.662144
O15	O	0.866949	-0.191033	0.263718
O16	O	1.366949	0.308967	0.763718
O17	O	1.045373	-0.402013	0.263763
O18	O	1.545373	0.097987	0.763763
O19	O	0.943912	-0.191018	0.340713
O20	O	1.443912	0.308982	0.840713
O21	O	0.866884	-0.311086	0.162124
O22	O	1.366884	0.188914	0.662124
O23	O	0.765313	-0.311114	0.263652
O24	O	1.265313	0.188886	0.763652
O25	O	0.866843	-0.402063	0.442217
O26	O	1.366843	0.097937	0.942217
O27	O	0.765267	-0.402083	0.340598
O28	O	1.265267	0.097917	0.840598
O29	O	0.943851	-0.311079	0.442266
O30	O	1.443851	0.188921	0.942266
O31	O	0.943736	-0.522095	0.263697
O32	O	1.443736	-0.022095	0.763697
O33	O	0.866778	-0.522116	0.340623
O34	O	1.366778	-0.022116	0.840623
C35	C	0.742556	-0.356605	0.302115
C36	C	1.242556	0.143395	0.802115
C37	C	0.672915	-0.356639	0.302099
C38	C	1.172915	0.143361	0.802099
C39	C	0.640194	-0.404069	0.342104
C40	C	1.140194	0.095931	0.842104
C41	C	0.574759	-0.404051	0.342132
C42	C	1.074759	0.095949	0.842132
C43	C	0.542047	-0.356611	0.302144
C44	C	1.042047	0.143389	0.802144
C45	C	0.574775	-0.309171	0.262135
C46	C	1.074775	0.190829	0.762135
C47	C	0.640209	-0.309186	0.262113
C48	C	1.140209	0.190814	0.762113
C49	C	0.438338	-0.350637	0.245738
C50	C	0.938338	0.149363	0.745738
C51	C	0.372906	-0.350628	0.245759
C52	C	0.872906	0.149372	0.745759
C53	C	0.340226	-0.356562	0.302213
C54	C	0.840226	0.143438	0.802213
C55	C	0.372987	-0.362521	0.358647
C56	C	0.872987	0.137479	0.858647
C57	C	0.438421	-0.362535	0.358624
C58	C	0.938421	0.137465	0.858624
C59	C	0.471094	-0.356590	0.302164
C60	C	0.971094	0.143410	0.802164
C61	C	0.236553	-0.403975	0.342252
C62	C	0.736553	0.096025	0.842252
C63	C	0.171116	-0.403952	0.342281
C64	C	0.671116	0.096048	0.842281
C65	C	0.171134	-0.309076	0.262278
C66	C	0.671134	0.190924	0.762278
C67	C	0.236569	-0.309096	0.262255
C68	C	0.736569	0.190904	0.762255
C69	C	0.269275	-0.356549	0.302241
C70	C	0.769275	0.143451	0.802241
C71	C	0.905260	-0.548976	0.302169
C72	C	1.405260	-0.048976	0.802169
C73	C	0.905281	-0.631290	0.302182
C74	C	1.405281	-0.131290	0.802182
C75	C	0.905419	-0.930381	0.302216
C76	C	1.405419	-0.430381	0.802216
C77	C	0.857111	-0.899100	0.350736
C78	C	1.357111	-0.399100	0.850736
C79	C	0.856881	-0.813482	0.350584
C80	C	1.356881	-0.313482	0.850584
C81	C	0.905351	-0.781999	0.302200
C82	C	1.405351	-0.281999	0.802200
C83	C	0.887487	-0.813131	0.236161
C84	C	1.387487	-0.313131	0.736161
C85	C	0.887176	-0.898777	0.236451
C86	C	1.387176	-0.398777	0.736451
C87	C	0.971696	-0.898709	0.319154
C88	C	1.471696	-0.398709	0.819154
C89	C	0.971306	-0.813059	0.320602
C90	C	1.471306	-0.313059	0.820602
C91	C	0.905313	-0.698139	0.302187
C92	C	1.405313	-0.198139	0.802187
C93	C	0.905455	-1.014240	0.302225
C94	C	1.405455	-0.514240	0.802225
C95	C	1.068767	-0.356527	0.302261
C96	C	1.568767	0.143473	0.802261
C97	C	1.138408	-0.356510	0.302292
C98	C	1.638408	0.143490	0.802292
C99	C	0.905348	-0.356572	0.465611
C100	C	1.405348	0.143428	0.965611
C101	C	0.905349	-0.356575	0.535252
C102	C	1.405349	0.143425	1.035252
C103	C	0.905445	-0.163403	0.302220
C104	C	1.405445	0.336597	0.802220
C105	C	0.905488	-0.081089	0.302234
C106	C	1.405488	0.418911	0.802234
C107	C	0.945392	-0.403915	1.037059
C108	C	1.445392	0.096085	1.537059
C109	C	0.945391	-0.403921	0.971624
C110	C	1.445391	0.096079	1.471624
C111	C	0.905348	-0.356570	0.938891
C112	C	1.405348	0.143430	1.438891
C113	C	0.865292	-0.309223	0.971598
C114	C	1.365292	0.190777	1.471598
C115	C	0.865290	-0.309225	1.037033
C116	C	1.365290	0.190775	1.537033
C117	C	0.900438	-0.289847	0.835231
C118	C	1.400438	0.210153	1.335231
C119	C	0.900445	-0.289845	0.769798
C120	C	1.400445	0.210155	1.269798
C121	C	0.905350	-0.356566	0.737070
C122	C	1.405350	0.143434	1.237070
C123	C	0.910262	-0.423292	0.769783
C124	C	1.410262	0.076708	1.269783
C125	C	0.910260	-0.423293	0.835217
C126	C	1.410260	0.076707	1.335217
C127	C	0.905345	-0.356563	0.867938
C128	C	1.405345	0.143437	1.367938
C129	C	0.945399	-0.403919	0.633417
C130	C	1.445399	0.096081	1.133417
C131	C	0.945393	-0.403925	0.567981
C132	C	1.445393	0.096075	1.067981
C133	C	0.865298	-0.309221	0.567957
C134	C	1.365298	0.190779	1.067957
C135	C	0.865300	-0.309222	0.633392
C136	C	1.365300	0.190778	1.133392
C137	C	0.905354	-0.356569	0.666119
C138	C	1.405354	0.143431	1.166119
C139	C	0.905338	-0.356575	1.139400
C140	C	1.405338	0.143425	1.639400
C141	C	0.905344	-0.356572	1.069759
C142	C	1.405344	0.143428	1.569759
H143	H	0.144476	-0.442574	0.374862
H144	H	0.644476	0.057426	0.874862
H145	H	0.868174	-0.919662	0.399862
H146	H	1.368174	-0.419662	0.899862
H147	H	0.978012	-0.442474	0.660065
H148	H	1.478012	0.057526	1.160065
H149	H	0.263183	-0.442611	0.374814
H150	H	0.763183	0.057389	0.874814
C151	C	0.821783	-0.257932	0.532347
C152	C	1.321783	0.242068	1.032347
C153	C	0.781615	-0.299875	0.494745
C154	C	1.281615	0.200125	0.994745
C155	C	0.741523	-0.252654	0.461924
C156	C	1.241523	0.247346	0.961924
H157	H	0.797873	-0.229717	0.561125
H158	H	1.297873	0.270283	1.061125
H159	H	0.845748	-0.225668	0.506800
H160	H	1.345748	0.274332	1.006800
H161	H	0.757652	-0.332126	0.520290
H162	H	1.257652	0.167874	1.020290
H163	H	0.805508	-0.328089	0.465955
H164	H	1.305508	0.171911	0.965955
H165	H	0.765488	-0.220390	0.436377
H166	H	1.265488	0.279610	0.936377
H167	H	0.717617	-0.224441	0.490707
H168	H	1.217617	0.275559	0.990707
H169	H	0.714268	-0.281105	0.436403
H170	H	1.214268	0.218895	0.936403
H171	H	0.832691	-0.270667	0.660017
H172	H	1.332691	0.229333	1.160017
C173	C	0.791345	-0.786404	0.335573
C174	C	1.291345	-0.286404	0.835573
C175	C	0.751800	-0.847159	0.326607
C176	C	1.251800	-0.347159	0.826607
C177	C	0.691425	-0.822244	0.312765
C178	C	1.191425	-0.322244	0.812765
H179	H	0.776204	-0.757291	0.369253
H180	H	1.276204	-0.257291	0.869253
H181	H	0.792355	-0.757412	0.298576
H182	H	1.292355	-0.257412	0.798576
H183	H	0.750788	-0.876139	0.363600
H184	H	1.250788	-0.376139	0.863600
H185	H	0.766921	-0.876278	0.292925
H186	H	1.266921	-0.376278	0.792925
H187	H	0.692435	-0.793252	0.275767
H188	H	1.192435	-0.293252	0.775767
H189	H	0.676290	-0.793131	0.346447
H190	H	1.176290	-0.293131	0.846447
H191	H	0.664587	-0.863462	0.306674
H192	H	1.164587	-0.363462	0.806674
H193	H	0.144500	-0.270446	0.229721
H194	H	0.644500	0.229554	0.729721
H195	H	0.838728	-0.918830	0.222106
H196	H	1.338728	-0.418830	0.722106
H197	H	0.832687	-0.270671	0.944943
H198	H	1.332687	0.229329	1.444943
H199	H	0.868056	-0.792433	0.399551
H200	H	1.368056	-0.292433	0.899551
C201	C	0.675771	-0.257600	0.218776
C202	C	1.175771	0.242400	0.718776
C203	C	0.713398	-0.210198	0.254309
C204	C	1.213398	0.289802	0.754309
C205	C	0.746161	-0.162663	0.214407
C206	C	1.246161	0.337337	0.714407
H207	H	0.701300	-0.285800	0.191413
H208	H	1.201300	0.214200	0.691413
H209	H	0.646939	-0.229298	0.194975
H210	H	1.146939	0.270702	0.694975
H211	H	0.742226	-0.238498	0.278099
H212	H	1.242226	0.261502	0.778099
H213	H	0.687885	-0.181983	0.281670
H214	H	1.187885	0.318017	0.781670
H215	H	0.717330	-0.134360	0.190607
H216	H	1.217330	0.365640	0.690607
H217	H	0.771686	-0.190869	0.187046
H218	H	1.271686	0.309131	0.687046
H219	H	0.771690	-0.130491	0.238510
H220	H	1.271690	0.369509	0.738510
C221	C	0.932970	-0.785829	0.186722
C222	C	1.432970	-0.285829	0.686722
C223	C	0.977977	-0.740438	0.214766
C224	C	1.477977	-0.240438	0.714766
C225	C	1.019881	-0.715265	0.169243
C226	C	1.519881	-0.215265	0.669243
H227	H	0.952959	-0.826862	0.167616
H228	H	1.452959	-0.326862	0.667616
H229	H	0.910874	-0.758494	0.155928
H230	H	1.410874	-0.258494	0.655928
H231	H	1.000071	-0.767772	0.245550
H232	H	1.500071	-0.267772	0.745550
H233	H	0.958007	-0.699394	0.233868
H234	H	1.458007	-0.199394	0.733868
H235	H	0.997785	-0.687931	0.138448
H236	H	1.497785	-0.187931	0.638448
H237	H	1.039866	-0.756303	0.150140
H238	H	1.539866	-0.256303	0.650140
H239	H	1.050420	-0.684460	0.188263
H240	H	1.550420	-0.184460	0.688263
C241	C	0.931964	-0.926348	0.186511
C242	C	1.431964	-0.426348	0.686511
C243	C	0.912694	-0.900327	0.127975
C244	C	1.412694	-0.400327	0.627975
C245	C	0.953928	-0.925722	0.081957
C246	C	1.453928	-0.425722	0.581957
H247	H	0.972895	-0.908747	0.195192
H248	H	1.472895	-0.408747	0.695192
H249	H	0.932066	-0.978832	0.186314
H250	H	1.432066	-0.478832	0.686314
H251	H	0.912598	-0.847853	0.128173
H252	H	1.412598	-0.347853	0.628173
H253	H	0.871769	-0.917925	0.119275
H254	H	1.371769	-0.417925	0.619275
H255	H	0.954031	-0.978207	0.081760
H256	H	1.454031	-0.478207	0.581760
H257	H	0.994857	-0.908120	0.090644
H258	H	1.494857	-0.408120	0.590644
H259	H	0.940856	-0.908077	0.042235
H260	H	1.440856	-0.408077	0.542235
C261	C	0.271985	-0.257576	0.218746
C262	C	0.771985	0.242424	0.718746
C263	C	0.229335	-0.216038	0.183719
C264	C	0.729335	0.283962	0.683719
C265	C	0.261937	-0.168573	0.143626
C266	C	0.761937	0.331427	0.643626
H267	H	0.297561	-0.225294	0.242682
H268	H	0.797561	0.274706	0.742682
H269	H	0.297451	-0.285844	0.191362
H270	H	0.797451	0.214156	0.691362
H271	H	0.203880	-0.187772	0.211099
H272	H	0.703880	0.312228	0.711099
H273	H	0.203758	-0.248300	0.159769
H274	H	0.703758	0.251700	0.659769
H275	H	0.287403	-0.196841	0.116242
H276	H	0.787403	0.303159	0.616242
H277	H	0.287512	-0.136296	0.167568
H278	H	0.787512	0.363704	0.667568
H279	H	0.233004	-0.140389	0.119851
H280	H	0.733004	0.359611	0.619851
C281	C	0.988912	-0.455210	0.532394
C282	C	1.488912	0.044790	1.032394
C283	C	1.029076	-0.413264	0.494839
C284	C	1.529076	0.086736	0.994839
C285	C	1.069169	-0.460483	0.462041
C286	C	1.569169	0.039517	0.962041
H287	H	1.012826	-0.483424	0.561186
H288	H	1.512826	0.016576	1.061186
H289	H	0.964947	-0.487476	0.506817
H290	H	1.464947	0.012524	1.006817
H291	H	1.053039	-0.381012	0.520414
H292	H	1.553039	0.118988	1.020414
H293	H	1.005180	-0.385052	0.466036
H294	H	1.505180	0.114948	0.966036
H295	H	1.045204	-0.492749	0.436464
H296	H	1.545204	0.007251	0.936464
H297	H	1.093078	-0.488694	0.490837
H298	H	1.593078	0.011306	0.990837
H299	H	1.096421	-0.432030	0.436551
H300	H	1.596421	0.067970	0.936551
H301	H	0.839553	-0.791757	0.221559
H302	H	1.339553	-0.291757	0.721559
C303	C	0.337424	-0.344271	0.184434
C304	C	0.837424	0.155729	0.684434
C305	C	0.353277	-0.403638	0.145612
C306	C	0.853277	0.096362	0.645612
C307	C	0.320613	-0.397802	0.089108
C308	C	0.820613	0.102198	0.589108
H309	H	0.293763	-0.345145	0.192435
H310	H	0.793763	0.154855	0.692435
H311	H	0.348183	-0.299168	0.164431
H312	H	0.848183	0.200832	0.664431
H313	H	0.342513	-0.448730	0.165610
H314	H	0.842513	0.051270	0.665610
H315	H	0.396932	-0.402776	0.137593
H316	H	0.896932	0.097224	0.637593
H317	H	0.331373	-0.352699	0.069106
H318	H	0.831373	0.147301	0.569106
H319	H	0.276955	-0.398675	0.097116
H320	H	0.776955	0.101325	0.597116
H321	H	0.331370	-0.438077	0.062759
H322	H	0.831370	0.061923	0.562759
H323	H	0.465093	-0.367385	0.404575
H324	H	0.965093	0.132615	0.904575
H325	H	0.984777	-0.792709	0.369204
H326	H	1.484777	-0.292709	0.869204
H327	H	0.464941	-0.345802	0.199764
H328	H	0.964941	0.154198	0.699764
H329	H	0.548113	-0.442674	0.374712
H330	H	1.048113	0.057326	0.874712
H331	H	0.896448	-0.235512	0.743168
H332	H	1.396448	0.264488	1.243168
C333	C	0.993293	-0.927501	0.382300
C334	C	1.493293	-0.427501	0.882300
C335	C	0.947457	-0.974252	0.407174
C336	C	1.447457	-0.474252	0.907174
C337	C	0.967318	-1.000781	0.465348
C338	C	1.467318	-0.500781	0.965348
H339	H	1.031182	-0.954170	0.377319
H340	H	1.531182	-0.454170	0.877319
H341	H	0.999957	-0.887110	0.409876
H342	H	1.499957	-0.387110	0.909876
H343	H	0.940800	-1.014637	0.379604
H344	H	1.440800	-0.514637	0.879604
H345	H	0.909564	-0.947599	0.412170
H346	H	1.409564	-0.447599	0.912170
H347	H	0.973983	-0.960390	0.492924
H348	H	1.473983	-0.460390	0.992924
H349	H	1.005209	-1.027447	0.460361
H350	H	1.505209	-0.527447	0.960361
H351	H	0.936220	-1.032499	0.482235
H352	H	1.436220	-0.532499	0.982235
C353	C	0.675589	-0.455612	0.385590
C354	C	1.175589	0.044388	0.885590
C355	C	0.632923	-0.497132	0.420643
C356	C	1.132923	0.002868	0.920643
C357	C	0.665507	-0.544612	0.460714
C358	C	1.165507	-0.044612	0.960714
H359	H	0.701072	-0.487905	0.361636
H360	H	1.201072	0.012095	0.861636
H361	H	0.701147	-0.427356	0.412958
H362	H	1.201147	0.072644	0.912958
H363	H	0.607376	-0.525385	0.393278
H364	H	1.107376	-0.025385	0.893278
H365	H	0.607439	-0.464858	0.444609
H366	H	1.107439	0.035142	0.944609
H367	H	0.691065	-0.516356	0.488083
H368	H	1.191065	-0.016356	0.988083
H369	H	0.690989	-0.576900	0.436756
H370	H	1.190989	-0.076900	0.936756
H371	H	0.636564	-0.572784	0.484507
H372	H	1.136564	-0.072784	0.984507
H373	H	1.009201	-0.791622	0.287840
H374	H	1.509201	-0.291622	0.787840
H375	H	1.007687	-0.918934	0.283816
H376	H	1.507687	-0.418934	0.783816
C377	C	0.821785	-0.257736	1.072426
C378	C	1.321785	0.242264	1.572426
C379	C	0.786725	-0.216256	1.029759
C380	C	1.286725	0.283744	1.529759
C381	C	0.746649	-0.168809	1.062342
C382	C	1.246649	0.331191	1.562342
H383	H	0.794418	-0.285990	1.097939
H384	H	1.294418	0.214010	1.597939
H385	H	0.845756	-0.225421	1.097953
H386	H	1.345756	0.274579	1.597953
H387	H	0.762756	-0.248567	1.004243
H388	H	1.262756	0.251433	1.504243
H389	H	0.814076	-0.187987	1.004245
H390	H	1.314076	0.312013	1.504245
H391	H	0.770620	-0.136494	1.087868
H392	H	1.270620	0.363506	1.587868
H393	H	0.719286	-0.197069	1.087853
H394	H	1.219286	0.302931	1.587853
H395	H	0.722860	-0.140654	1.033397
H396	H	1.222860	0.359346	1.533397
H397	H	0.346381	-0.367352	0.404616
H398	H	0.846381	0.132648	0.904616
C399	C	0.895013	-0.217358	0.870684
C400	C	1.395013	0.282642	1.370684
C401	C	0.838781	-0.182614	0.854736
C402	C	1.338781	0.317386	1.354736
C403	C	0.833766	-0.115836	0.887377
C404	C	1.333766	0.384164	1.387377
H405	H	0.895675	-0.226817	0.914348
H406	H	1.395675	0.273183	1.414348
H407	H	0.929092	-0.186161	0.859970
H408	H	1.429092	0.313839	1.359970
H409	H	0.804711	-0.213805	0.865455
H410	H	1.304711	0.286195	1.365455
H411	H	0.838107	-0.173137	0.811078
H412	H	1.338107	0.326863	1.311078
H413	H	0.867845	-0.084639	0.876662
H414	H	1.367845	0.415361	1.376662
H415	H	0.834430	-0.125302	0.931039
H416	H	1.334430	0.374698	1.431039
H417	H	0.795616	-0.092251	0.876556
H418	H	1.295616	0.407749	1.376556
C419	C	0.539344	-0.257708	0.218614
C420	C	1.039344	0.242292	0.718614
C421	C	0.555213	-0.273708	0.156595
C422	C	1.055213	0.226292	0.656595
C423	C	0.522594	-0.226304	0.116487
C424	C	1.022594	0.273696	0.616487
H425	H	0.495677	-0.264445	0.224268
H426	H	0.995677	0.235555	0.724268
H427	H	0.550130	-0.207956	0.227817
H428	H	1.050130	0.292044	0.727817
H429	H	0.544423	-0.323447	0.147395
H430	H	1.044423	0.176553	0.647395
H431	H	0.598874	-0.266967	0.150921
H432	H	1.098874	0.233033	0.650921
H433	H	0.533380	-0.176553	0.125689
H434	H	1.033380	0.323447	0.625689
H435	H	0.478929	-0.233045	0.122146
H436	H	0.978929	0.266955	0.622146
H437	H	0.533361	-0.237149	0.074403
H438	H	1.033361	0.262851	0.574403
C439	C	0.988896	-0.455408	1.072477
C440	C	1.488896	0.044592	1.572477
C441	C	1.023956	-0.496885	1.029828
C442	C	1.523956	0.003115	1.529828
C443	C	1.064031	-0.544336	1.062434
C444	C	1.564031	-0.044336	1.562434
H445	H	1.016264	-0.427156	1.098025
H446	H	1.516264	0.072844	1.598025
H447	H	0.964925	-0.487724	1.097970
H448	H	1.464925	0.012276	1.597970
H449	H	1.047926	-0.464573	1.004346
H450	H	1.547926	0.035427	1.504346
H451	H	0.996605	-0.525152	1.004279
H452	H	1.496605	-0.025152	1.504279
H453	H	1.040060	-0.576652	1.087927
H454	H	1.540060	-0.076652	1.587927
H455	H	1.091395	-0.516078	1.087981
H456	H	1.591395	-0.016078	1.587981
H457	H	1.087820	-0.572488	1.033502
H458	H	1.587820	-0.072488	1.533502
H459	H	0.808283	-0.920698	0.339656
H460	H	1.308283	-0.420698	0.839656
H461	H	0.978012	-0.442464	0.944994
H462	H	1.478012	0.057536	1.444994
C463	C	0.915560	-0.495814	0.870621
C464	C	1.415560	0.004186	1.370621
C465	C	0.919841	-0.554252	0.827961
C466	C	1.419841	-0.054252	1.327961
C467	C	0.924712	-0.621069	0.860552
C468	C	1.424712	-0.121069	1.360552
H469	H	0.951875	-0.494948	0.896169
H470	H	1.451875	0.005052	1.396169
H471	H	0.879635	-0.502370	0.896113
H472	H	1.379635	-0.002370	1.396113
H473	H	0.955763	-0.547697	0.802479
H474	H	1.455763	-0.047697	1.302479
H475	H	0.883531	-0.555141	0.802411
H476	H	1.383531	-0.055141	1.302411
H477	H	0.888788	-0.627626	0.886044
H478	H	1.388788	-0.127626	1.386044
H479	H	0.961027	-0.620196	0.886099
H480	H	1.461027	-0.120196	1.386099
H481	H	0.927612	-0.660728	0.831612
H482	H	1.427612	-0.160728	1.331612
C483	C	0.915461	-0.495735	0.734232
C484	C	1.415461	0.004265	1.234232
C485	C	0.862460	-0.505180	0.696653
C486	C	1.362460	-0.005180	1.196653
C487	C	0.867227	-0.571909	0.663902
C488	C	1.367227	-0.071909	1.163902
H489	H	0.951743	-0.494841	0.708672
H490	H	1.451743	0.005159	1.208672
H491	H	0.918354	-0.535491	0.763071
H492	H	1.418354	-0.035491	1.263071
H493	H	0.859573	-0.465435	0.667818
H494	H	1.359573	0.034565	1.167818
H495	H	0.826170	-0.506088	0.722197
H496	H	1.326170	-0.006088	1.222197
H497	H	0.870120	-0.611665	0.692741
H498	H	1.370120	-0.111665	1.192741
H499	H	0.903510	-0.571009	0.638345
H500	H	1.403510	-0.071009	1.138345
H501	H	0.831265	-0.578330	0.638405
H502	H	1.331265	-0.078330	1.138405
