data_functionalizedCrystal
_audit_creation_method	'MofGen! by Chris Wilmer'
_symmetry_space_group_name_H-M	'P1'
_symmetry_Int_Tables_number	1
_symmetry_cell_setting	triclinic
loop_
_symmetry_equiv_pos_as_xyz
  x,y,z
_cell_length_a	12.811445
_cell_length_b	14.853576
_cell_length_c	11.295498
_cell_angle_alpha	94.102508
_cell_angle_beta	80.460258
_cell_angle_gamma	83.843063
loop_
_atom_site_label
_atom_site_type_symbol
_atom_site_fract_x
_atom_site_fract_y
_atom_site_fract_z
O1	O	1.410781	0.106113	-0.251362
O2	O	1.102845	0.121341	-0.218112
O3	O	1.265033	-0.017534	-0.235620
O4	O	1.248593	0.244988	-0.233854
O5	O	1.250786	-0.005354	-0.036031
O6	O	1.088598	0.133521	-0.018524
O7	O	1.396534	0.118294	-0.051773
Cu8	Cu	1.241265	0.127020	-0.016924
Cu9	Cu	1.258114	0.112615	-0.252961
O10	O	1.234346	0.257169	-0.034265
C11	C	1.056313	0.126950	-0.114063
C12	C	0.938888	0.125506	-0.101384
C13	C	1.257163	-0.045030	-0.135746
C14	C	1.254926	-0.145104	-0.135509
C15	C	0.733762	0.109529	-0.295172
C16	C	0.623431	0.108173	-0.283264
C17	C	0.607891	0.121443	-0.065661
C18	C	0.718222	0.122799	-0.077569
C19	C	0.781154	0.116841	-0.192328
C20	C	0.891489	0.118191	-0.204235
C21	C	0.875946	0.131467	0.013367
C22	C	0.765615	0.130111	0.025275
C23	C	1.261640	-0.198755	-0.244196
C24	C	1.246119	-0.185489	-0.026598
C25	C	1.244023	-0.279515	-0.026372
C26	C	1.250737	-0.333166	-0.135059
C27	C	1.259547	-0.292790	-0.243973
C28	C	1.235224	-0.319898	0.082539
C29	C	1.233128	-0.413930	0.082770
C30	C	1.239834	-0.467582	-0.025918
C31	C	1.248643	-0.427201	-0.134837
C32	C	1.255357	-0.480851	-0.243524
C33	C	1.264159	-0.440471	-0.352443
C34	C	1.266253	-0.346442	-0.352662
C35	C	1.237740	-0.561611	-0.025700
C36	C	1.253264	-0.574887	-0.243301
C37	C	1.443066	0.112684	-0.155825
C38	C	1.560492	0.114128	-0.168512
C39	C	1.242216	0.284664	-0.134142
C40	C	1.244454	0.384738	-0.134387
N41	N	1.229422	0.137150	0.149090
C42	C	1.355199	0.029513	0.384803
C43	C	1.346257	0.037175	0.510432
C44	C	1.202591	0.160133	0.525980
C45	C	1.211534	0.152470	0.400351
C46	C	1.287841	0.087159	0.329766
C47	C	1.296788	0.079502	0.204135
C48	C	1.153118	0.202454	0.219686
C49	C	1.144175	0.210117	0.345315
N50	N	1.269957	0.102484	0.581024
H51	H	0.942727	0.113339	-0.297678
H52	H	0.556632	0.126302	0.027771
Br53	Br	1.458771	-0.059109	0.289005
Br54	Br	0.680198	0.138203	0.181012
Br55	Br	1.061709	0.280700	0.144982
H56	H	1.401105	-0.009767	0.555238
Br57	Br	1.099022	0.248753	0.621786
H58	H	0.785003	0.104674	-0.388614
Br59	Br	1.225811	-0.616412	0.122104
Br60	Br	0.559114	0.098256	-0.422844
H61	H	0.914544	0.137419	0.097110
H62	H	1.082044	0.263290	0.402799
Br63	Br	1.262363	-0.647690	-0.390813
Br64	Br	1.273288	-0.513296	-0.499944
H65	H	1.273423	-0.313556	-0.441338
Br66	Br	1.273602	-0.143960	-0.392010
Br67	Br	1.226124	-0.247086	0.230033
Br68	Br	1.237021	-0.112679	0.120898
H69	H	1.225960	-0.446799	0.171458
H70	H	1.358923	0.026324	0.146665
