data_functionalizedCrystal
_audit_creation_method	'MofGen! by Chris Wilmer'
_symmetry_space_group_name_H-M	'P1'
_symmetry_Int_Tables_number	1
_symmetry_cell_setting	triclinic
loop_
_symmetry_equiv_pos_as_xyz
  x,y,z
_cell_length_a	18.426585
_cell_length_b	19.376997
_cell_length_c	18.426585
_cell_angle_alpha	111.033933
_cell_angle_beta	89.997893
_cell_angle_gamma	68.965239
loop_
_atom_site_label
_atom_site_type_symbol
_atom_site_fract_x
_atom_site_fract_y
_atom_site_fract_z
Zr1	Zr	0.862323	0.619933	-0.067975
O2	O	0.777547	0.738094	0.016807
O3	O	0.866744	0.501771	-0.072398
O4	O	0.897848	0.619928	0.047901
O5	O	0.746441	0.619942	-0.222919
O6	O	1.017278	0.619924	0.047895
O7	O	0.746443	0.619938	-0.103492
O8	O	0.961638	0.408564	-0.167298
O9	O	0.802082	0.831302	-0.007725
O10	O	0.983816	0.550370	-0.100346
O11	O	0.894686	0.550376	-0.189468
O12	O	0.931307	0.689490	-0.047831
O13	O	0.842177	0.689496	-0.136954
Zr14	Zr	1.052798	0.619933	-0.258456
Zr15	Zr	1.052800	0.619927	-0.067984
Zr16	Zr	0.862321	0.619939	-0.258447
Zr17	Zr	0.901453	0.768588	-0.107102
Zr18	Zr	1.013668	0.471277	-0.219329
O19	O	1.048378	0.738094	-0.254033
O20	O	1.048381	0.738085	0.016794
O21	O	0.777544	0.738103	-0.254020
O22	O	1.137574	0.501771	-0.343238
O23	O	1.137577	0.501763	-0.072411
O24	O	0.866740	0.501780	-0.343225
O25	O	1.168680	0.619924	-0.103512
O26	O	1.017273	0.619938	-0.374332
O27	O	0.897843	0.619942	-0.374326
O28	O	1.168679	0.619928	-0.222939
O29	O	0.953485	0.831297	-0.007733
O30	O	0.961636	0.408569	-0.318698
O31	O	1.113040	0.408564	-0.318706
O32	O	1.113041	0.408559	-0.167306
O33	O	0.802080	0.831307	-0.159125
O34	O	0.953484	0.831302	-0.159133
O35	O	0.983814	0.550376	-0.278600
O36	O	1.072944	0.550370	-0.189477
O37	O	1.020436	0.689490	-0.136963
O38	O	0.931305	0.689496	-0.226085
C39	C	0.908615	0.433987	-0.114274
C40	C	0.892004	0.370879	-0.097663
C41	C	0.816316	0.333276	-0.021973
C42	C	0.831931	0.392570	-0.037587
C43	C	0.936488	0.289880	-0.142146
C44	C	0.920885	0.230576	-0.126538
C45	C	0.860797	0.252281	-0.066451
C46	C	0.965365	0.149581	-0.171016
C47	C	0.949760	0.090283	-0.155412
C48	C	0.889674	0.111980	-0.095329
C49	C	0.845192	0.192983	-0.050846
C50	C	1.025449	0.127878	-0.231106
C51	C	1.069930	0.046883	-0.275585
C52	C	1.054328	-0.012417	-0.259977
C53	C	0.994242	0.009280	-0.199894
C54	C	1.098810	-0.093420	-0.304459
C55	C	1.083205	-0.152718	-0.288855
C56	C	0.978637	-0.050019	-0.184290
C57	C	0.719303	0.619941	-0.163204
C58	C	0.638441	0.619943	-0.163200
C59	C	0.572771	0.619946	-0.163201
C60	C	0.490388	0.619943	-0.163208
C61	C	0.424728	0.619934	-0.163217
C62	C	0.342341	0.619931	-0.163223
C63	C	1.195818	0.619925	-0.163227
C64	C	1.276681	0.619922	-0.163231
C65	C	0.957563	0.619925	0.075036
C66	C	0.957564	0.619922	0.155897
C67	C	1.006506	0.805878	-0.212157
C68	C	1.023117	0.868986	-0.228768
C69	C	0.957564	0.619919	0.221564
C70	C	0.957565	0.619923	0.303949
C71	C	0.957564	0.619931	0.369616
C72	C	0.957564	0.619935	0.452006
C73	C	0.957559	0.619941	0.598533
C74	C	0.957563	0.619943	0.517672
C75	C	1.146873	0.433980	-0.114285
C76	C	1.211124	0.370869	-0.097679
C77	C	0.908613	0.433995	-0.352525
C78	C	0.892000	0.370890	-0.416775
C79	C	1.146870	0.433987	-0.352537
C80	C	1.211120	0.370879	-0.416791
C81	C	0.768251	0.805878	0.026106
C82	C	0.704001	0.868986	0.090360
C83	C	0.768248	0.805886	-0.212146
C84	C	0.703997	0.868997	-0.228752
C85	C	1.006509	0.805870	0.026094
C86	C	1.023121	0.868976	0.090344
C87	C	1.194773	0.341231	-0.043346
C88	C	1.255138	0.281940	-0.027727
C89	C	1.331853	0.252283	-0.066445
C90	C	1.348204	0.281927	-0.120780
C91	C	1.287840	0.341221	-0.136394
C92	C	0.930723	0.341255	-0.493481
C93	C	0.915112	0.281969	-0.553860
C94	C	0.860783	0.252315	-0.537531
C95	C	0.822056	0.281956	-0.460817
C96	C	0.837663	0.341245	-0.400441
C97	C	1.287826	0.341240	-0.400444
C98	C	1.348205	0.281951	-0.460812
C99	C	1.331876	0.252299	-0.537525
C100	C	1.255163	0.281944	-0.553872
C101	C	1.194786	0.341236	-0.493505
C102	C	0.627298	0.898633	0.074011
C103	C	0.566923	0.957940	0.134374
C104	C	0.583253	0.987595	0.211087
C105	C	0.659965	0.957946	0.227434
C106	C	0.720339	0.898644	0.167071
C107	C	0.720350	0.898641	-0.283078
C108	C	0.659989	0.957948	-0.298681
C109	C	0.583275	0.987607	-0.259961
C110	C	0.566923	0.957961	-0.205629
C111	C	0.627285	0.898658	-0.190023
C112	C	1.077454	0.898611	0.073991
C113	C	1.093079	0.957897	0.134355
C114	C	1.054365	0.987552	0.211071
C115	C	1.000029	0.957911	0.227424
C116	C	0.984410	0.898621	0.167062
H117	H	0.795691	0.458523	-0.001378
N118	N	1.119228	0.866633	-0.008743
H119	H	1.150375	0.807110	-0.026671
H120	H	1.079237	0.877010	-0.045005
H121	H	0.504455	0.982118	-0.174106
N122	N	0.677565	0.989935	0.310179
H123	H	0.699211	0.944698	0.329210
H124	H	0.717581	1.014549	0.310774
H125	H	1.301164	0.365344	-0.180640
H126	H	0.613958	0.874524	-0.145788
N127	N	1.151686	0.989858	0.116709
H128	H	1.173831	0.962078	0.058948
H129	H	1.124643	1.049384	0.130541
H130	H	0.848083	0.204038	-0.586700
H131	H	0.504466	0.982070	0.121049
H132	H	1.381045	0.204020	-0.586673
N133	N	0.763470	0.249959	-0.443207
H134	H	0.710286	0.295187	-0.421548
H135	H	0.759537	0.207889	-0.493125
H136	H	0.806130	0.365366	-0.337984
H137	H	0.534086	1.035882	0.260232
H138	H	0.968512	0.982064	0.289894
N139	N	0.803068	0.866668	0.184710
H140	H	0.804244	0.894456	0.242468
H141	H	0.820946	0.807146	0.170890
N142	N	1.042288	0.191827	-0.247947
H143	H	0.993881	0.226275	-0.262814
H144	H	1.057186	0.226212	-0.199524
N145	N	0.677630	0.989923	-0.357278
H146	H	0.699277	0.944686	-0.410458
H147	H	0.627725	1.032006	-0.361216
N148	N	1.305447	0.373208	-0.317705
H149	H	1.363205	0.345428	-0.316522
H150	H	1.291615	0.432733	-0.299816
H151	H	0.940164	0.874499	0.180387
H152	H	0.985409	0.272218	-0.191071
H153	H	0.929714	-0.032343	-0.135354
N154	N	1.237556	0.249958	-0.636614
H155	H	1.287448	0.207898	-0.672368
H156	H	1.197502	0.225393	-0.637190
H157	H	0.974961	0.365393	-0.506792
N158	N	1.134736	0.023477	-0.340389
H159	H	1.137874	0.073332	-0.343527
H160	H	1.186477	-0.009308	-0.328846
H161	H	1.241810	0.257812	0.016516
N162	N	0.518174	1.051569	-0.276797
H163	H	0.540181	1.065841	-0.317091
H164	H	0.476194	1.030891	-0.297812
N165	N	0.872833	0.048031	-0.078489
H166	H	0.857961	0.013586	-0.126893
H167	H	0.921259	0.013643	-0.063595
H168	H	1.067091	1.035829	0.260215
N169	N	1.430939	0.249983	-0.443171
H170	H	1.432113	0.277761	-0.385411
H171	H	1.448826	0.190458	-0.457004
H172	H	0.796269	0.210658	-0.001911
N173	N	1.396956	0.188332	-0.049599
H174	H	1.374950	0.174060	-0.009304
H175	H	1.420552	0.139166	-0.099691
H176	H	1.132330	0.365361	-0.506826
N177	N	0.609673	0.866652	-0.008724
H178	H	0.551917	0.894441	-0.009910
H179	H	0.641890	0.876966	-0.044993
H180	H	0.767394	0.350952	0.026963
H181	H	0.946654	0.257842	-0.616318
H182	H	1.119424	-0.218670	-0.325075
N183	N	1.163611	-0.116824	-0.369269
H184	H	1.166745	-0.066968	-0.372407
H185	H	1.215356	-0.149610	-0.357732
N186	N	1.112034	0.373209	-0.001582
H187	H	1.110848	0.345432	0.035207
H188	H	1.094153	0.432733	0.029521
N189	N	0.803090	0.866660	-0.324840
H190	H	0.803736	0.842066	-0.383450
H191	H	0.822066	0.911938	-0.312273
N192	N	1.430948	0.249937	-0.162536
H193	H	1.466699	0.207876	-0.144397
H194	H	1.431526	0.225372	-0.221135
