data_functionalizedCrystal
_audit_creation_method	'MofGen! by Chris Wilmer'
_symmetry_space_group_name_H-M	'P1'
_symmetry_Int_Tables_number	1
_symmetry_cell_setting	triclinic
loop_
_symmetry_equiv_pos_as_xyz
  x,y,z
_cell_length_a	14.519731
_cell_length_b	14.519731
_cell_length_c	14.586319
_cell_angle_alpha	89.995223
_cell_angle_beta	89.996401
_cell_angle_gamma	83.688853
loop_
_atom_site_label
_atom_site_type_symbol
_atom_site_fract_x
_atom_site_fract_y
_atom_site_fract_z
O1	O	1.223863	0.120982	-0.076244
O2	O	1.723863	0.620982	0.423756
O3	O	0.955390	0.135198	-0.076246
O4	O	1.455390	0.635198	0.423754
O5	O	1.096735	-0.006146	-0.076237
O6	O	1.596735	0.493854	0.423763
O7	O	1.082519	0.262327	-0.076254
O8	O	1.582519	0.762327	0.423746
O9	O	1.096725	-0.006148	0.076244
O10	O	1.596725	0.493852	0.576244
O11	O	0.955380	0.135196	0.076235
O12	O	1.455380	0.635196	0.576235
O13	O	1.223854	0.120980	0.076236
O14	O	1.723854	0.620980	0.576236
Cu15	Cu	1.089616	0.128088	0.090158
Cu16	Cu	1.589616	0.628088	0.590158
Cu17	Cu	1.089628	0.128091	-0.090168
Cu18	Cu	1.589628	0.628091	0.409832
O19	O	1.082509	0.262325	0.076227
O20	O	1.582509	0.762325	0.576227
C21	C	0.921026	0.134531	-0.000006
C22	C	1.421026	0.634531	0.499994
C23	C	0.818645	0.132535	-0.000006
C24	C	1.318645	0.632535	0.499994
C25	C	0.735501	0.130913	-0.000010
C26	C	1.235501	0.630913	0.499990
C27	C	0.631192	0.128887	-0.000010
C28	C	1.131192	0.628887	0.499990
C29	C	0.548053	0.127278	-0.000010
C30	C	1.048053	0.627278	0.499990
C31	C	0.443738	0.125252	-0.000012
C32	C	0.943738	0.625252	0.499988
C33	C	1.096064	-0.040507	0.000004
C34	C	1.596064	0.459493	0.500004
C35	C	1.094068	-0.142887	0.000004
C36	C	1.594068	0.357113	0.500004
C37	C	1.092446	-0.226031	0.000002
C38	C	1.592446	0.273969	0.500002
C39	C	1.090419	-0.330340	-0.000005
C40	C	1.590419	0.169660	0.499995
C41	C	1.088811	-0.413479	-0.000011
C42	C	1.588811	0.086521	0.499989
C43	C	1.086785	-0.517795	-0.000016
C44	C	1.586785	-0.017795	0.499984
C45	C	1.258218	0.121648	-0.000006
C46	C	1.758218	0.621648	0.499994
C47	C	1.360598	0.123643	-0.000012
C48	C	1.860598	0.623643	0.499988
C49	C	1.083180	0.296685	-0.000015
C50	C	1.583180	0.796685	0.499985
C51	C	1.085176	0.399066	-0.000022
C52	C	1.585176	0.899066	0.499978
N53	N	1.089615	0.128086	0.216990
N54	N	1.589615	0.628086	0.716990
N55	N	1.089637	0.128086	-0.217000
N56	N	1.589637	0.628086	0.283000
C57	C	1.152223	0.065519	0.452001
C58	C	1.652223	0.565519	0.952001
C59	C	1.152225	0.065517	0.547982
C60	C	1.652225	0.565517	1.047982
C61	C	1.027022	0.190655	0.547983
C62	C	1.527022	0.690655	1.047983
C63	C	1.027015	0.190652	0.452004
C64	C	1.527015	0.690652	0.952004
C65	C	1.089621	0.128085	0.404015
C66	C	1.589621	0.628085	0.904015
C67	C	1.089630	0.128086	0.595976
C68	C	1.589630	0.628086	1.095976
C69	C	1.089633	0.128084	0.700043
C70	C	1.589633	0.628084	1.200043
C71	C	1.089618	0.128086	0.299941
C72	C	1.589618	0.628086	0.799941
H73	H	1.203200	0.014569	0.587049
H74	H	1.703200	0.514569	1.087049
H75	H	0.976051	0.241597	0.587065
H76	H	1.476051	0.741597	1.087065
C77	C	0.958150	0.259479	0.399211
C78	C	1.458150	0.759479	0.899211
C79	C	0.889320	0.328336	0.451990
C80	C	1.389320	0.828336	0.951990
C81	C	0.820455	0.397156	0.399197
C82	C	1.320455	0.897156	0.899197
C83	C	0.820421	0.397121	0.293623
C84	C	1.320421	0.897121	0.793623
C85	C	0.889254	0.328262	0.240837
C86	C	1.389254	0.828262	0.740837
C87	C	0.958119	0.259441	0.293631
C88	C	1.458119	0.759441	0.793631
H89	H	0.889343	0.328364	0.530148
H90	H	1.389343	0.828364	1.030148
H91	H	0.769501	0.448130	0.438273
H92	H	1.269501	0.948130	0.938273
H93	H	0.769444	0.448066	0.254542
H94	H	1.269444	0.948066	0.754542
H95	H	0.889232	0.328233	0.162680
H96	H	1.389232	0.828233	0.662680
H97	H	1.009073	0.208467	0.254555
H98	H	1.509073	0.708467	0.754555
C99	C	1.221080	-0.003309	0.399212
C100	C	1.721080	0.496691	0.899212
C101	C	1.289936	-0.072134	0.452001
C102	C	1.789936	0.427866	0.952001
C103	C	1.358794	-0.140967	0.399216
C104	C	1.858794	0.359033	0.899216
C105	C	1.358795	-0.140975	0.293643
C106	C	1.858795	0.359025	0.793643
C107	C	1.289936	-0.072148	0.240848
C108	C	1.789936	0.427852	0.740848
C109	C	1.221079	-0.003315	0.293633
C110	C	1.721079	0.496685	0.793633
H111	H	1.289938	-0.072130	0.530159
H112	H	1.789938	0.427870	1.030159
H113	H	1.409767	-0.191917	0.438299
H114	H	1.909767	0.308083	0.938299
H115	H	1.409767	-0.191929	0.254568
H116	H	1.909767	0.308071	0.754568
H117	H	1.289935	-0.072151	0.162691
H118	H	1.789935	0.427849	0.662691
H119	H	1.170105	0.047636	0.254550
H120	H	1.670105	0.547636	0.754550
