data_functionalizedCrystal
_audit_creation_method	'MofGen! by Chris Wilmer'
_symmetry_space_group_name_H-M	'P1'
_symmetry_Int_Tables_number	1
_symmetry_cell_setting	triclinic
loop_
_symmetry_equiv_pos_as_xyz
  x,y,z
_cell_length_a	15.995350
_cell_length_b	10.654562
_cell_length_c	9.730223
_cell_angle_alpha	89.996961
_cell_angle_beta	90.000899
_cell_angle_gamma	83.991239
loop_
_atom_site_label
_atom_site_type_symbol
_atom_site_fract_x
_atom_site_fract_y
_atom_site_fract_z
O1	O	0.117649	1.666288	-0.114373
O2	O	0.128843	1.300665	-0.114355
O3	O	0.001417	1.493471	-0.114363
O4	O	0.245075	1.473482	-0.114365
O5	O	0.001420	1.493469	0.114217
O6	O	0.128846	1.300663	0.114225
O7	O	0.117653	1.666286	0.114207
Zn8	Zn	0.123250	1.483474	0.150508
Zn9	Zn	0.123246	1.483477	-0.150656
O10	O	0.245079	1.473480	0.114215
C11	C	0.128020	1.253877	-0.000063
C12	C	0.125555	1.114467	-0.000056
C13	C	0.124406	1.048950	0.124532
C14	C	0.122096	0.917958	0.124509
C15	C	0.122087	0.918010	-0.124701
C16	C	0.124391	1.049001	-0.124677
C17	C	0.125570	1.114415	0.249153
C18	C	0.124423	1.048898	0.373751
C19	C	0.122113	0.917906	0.373728
C20	C	0.120950	0.852431	0.249107
C21	C	-0.029781	1.492643	-0.000076
C22	C	-0.122746	1.490166	-0.000083
C23	C	-0.460545	1.481269	-0.000078
C24	C	-0.413913	1.343956	-0.000584
C25	C	-0.317208	1.346434	-0.000069
C26	C	-0.292959	1.485682	-0.000082
C27	C	-0.333639	1.553408	0.130443
C28	C	-0.430295	1.549959	0.130553
C29	C	-0.430641	1.552798	-0.129386
C30	C	-0.333695	1.552765	-0.131111
C31	C	-0.198247	1.488183	-0.000079
C32	C	-0.555258	1.478771	-0.000072
C33	C	0.276277	1.474307	-0.000075
C34	C	0.369241	1.476785	-0.000077
C35	C	0.118475	1.713074	-0.000088
C36	C	0.120941	1.852484	-0.000104
N37	N	0.123252	1.483481	0.356044
N38	N	0.123237	1.483480	-0.356192
C39	C	0.066847	1.568877	0.427967
C40	C	0.066837	1.568874	0.571850
C41	C	0.179644	1.398074	0.571875
C42	C	0.179650	1.398073	0.427995
C43	C	0.010450	1.654286	0.356016
C44	C	-0.045959	1.739690	0.427939
C45	C	-0.045969	1.739686	0.571822
C46	C	0.010430	1.654279	0.643782
H47	H	0.121142	0.864690	-0.226162
H48	H	0.125363	1.102218	0.475213
Br49	Br	0.256182	1.282174	0.669534
H50	H	0.225579	1.328534	0.369435
Br51	Br	-0.445331	1.252474	-0.156597
Br52	Br	-0.482591	1.721537	-0.130866
H53	H	0.119067	0.745769	0.249098
Br54	Br	-0.483068	1.717980	0.140426
Br55	Br	-0.286795	1.475008	0.292356
Br56	Br	0.128715	1.292188	0.249191
H57	H	0.121172	0.864567	0.475182
Br58	Br	0.125943	1.137927	-0.293764
H59	H	-0.091882	1.809219	0.369341
H60	H	0.010455	1.654298	0.238860
Br61	Br	-0.270352	1.257703	-0.156018
Br62	Br	-0.447500	1.252621	0.154089
Br63	Br	-0.122530	1.855575	0.669431
H64	H	-0.289655	1.292837	0.093661
H65	H	-0.448884	1.500571	0.228130
H66	H	-0.451444	1.507905	-0.228316
H67	H	0.010411	1.654275	0.760942
Br68	Br	-0.288220	1.470927	-0.292077
Br69	Br	-0.307099	1.722015	-0.144277
Br70	Br	-0.309106	1.723921	0.138527
