data_functionalizedCrystal
_audit_creation_method	'MofGen! by Chris Wilmer'
_symmetry_space_group_name_H-M	'P1'
_symmetry_Int_Tables_number	1
_symmetry_cell_setting	triclinic
loop_
_symmetry_equiv_pos_as_xyz
  x,y,z
_cell_length_a	17.077404
_cell_length_b	17.077402
_cell_length_c	17.077396
_cell_angle_alpha	89.970216
_cell_angle_beta	89.980499
_cell_angle_gamma	90.023108
loop_
_atom_site_label
_atom_site_type_symbol
_atom_site_fract_x
_atom_site_fract_y
_atom_site_fract_z
Zn1	Zn	1.200055	-0.312503	-0.443836
Zn2	Zn	1.199962	-0.443778	-0.312567
Zn3	Zn	1.068786	-0.312531	-0.312584
Zn4	Zn	1.068754	-0.443732	-0.443790
O5	O	1.134389	-0.378136	-0.378194
O6	O	1.309889	-0.329925	-0.426434
O7	O	1.182536	-0.426399	-0.202722
O8	O	1.086252	-0.202680	-0.330021
O9	O	1.309821	-0.426372	-0.329992
O10	O	1.182694	-0.202660	-0.426451
O11	O	1.086162	-0.329972	-0.202734
O12	O	0.958935	-0.329927	-0.329976
O13	O	1.086197	-0.426293	-0.553643
O14	O	0.958912	-0.426320	-0.426373
O15	O	1.182663	-0.329880	-0.553677
O16	O	1.182505	-0.553619	-0.329948
O17	O	1.086107	-0.553585	-0.426357
C18	C	0.930441	-0.378122	-0.378172
C19	C	0.843192	-0.378135	-0.378182
C20	C	0.802210	-0.428402	-0.428295
C21	C	0.720229	-0.428404	-0.428308
C22	C	0.679232	-0.378141	-0.378202
C23	C	0.720220	-0.327869	-0.328087
C24	C	0.802199	-0.327863	-0.328079
C25	C	0.549350	-0.327884	-0.328106
C26	C	0.467365	-0.327890	-0.328112
C27	C	0.467380	-0.428424	-0.428335
C28	C	0.549359	-0.428419	-0.428327
C29	C	0.590341	-0.378147	-0.378210
C30	C	1.134314	-0.582084	-0.378163
C31	C	1.134353	-0.669334	-0.378176
C32	C	1.184598	-0.710316	-0.328029
C33	C	1.184637	-0.792296	-0.328049
C34	C	1.134425	-0.833293	-0.378212
C35	C	1.084178	-0.792305	-0.428364
C36	C	1.084144	-0.710327	-0.428348
C37	C	1.084250	-0.963175	-0.428394
C38	C	1.084283	-1.045160	-0.428410
C39	C	1.184743	-1.045145	-0.328096
C40	C	1.184709	-0.963166	-0.328079
C41	C	1.134461	-0.922184	-0.378230
C42	C	1.339134	-0.378151	-0.378216
C43	C	1.426383	-0.378157	-0.378226
C44	C	1.134437	-0.378078	-0.582938
C45	C	1.134457	-0.378054	-0.670188
C46	C	1.134487	-0.173392	-0.378243
C47	C	1.134528	-0.086142	-0.378263
C48	C	1.184689	-0.327847	-0.711197
C49	C	1.184698	-0.327821	-0.793178
C50	C	1.134479	-0.378006	-0.834148
C51	C	1.084242	-0.428214	-0.793133
C52	C	1.084229	-0.428236	-0.711154
C53	C	1.084274	-0.428167	-0.964003
C54	C	1.084288	-0.428147	-1.045988
C55	C	1.184742	-0.327752	-1.046027
C56	C	1.184730	-0.327774	-0.964048
C57	C	1.134493	-0.377984	-0.923039
C58	C	1.134387	-0.378137	-0.174246
C59	C	1.134519	-0.377941	-0.086997
H60	H	0.582715	-0.286940	-0.287302
C61	C	1.239333	-0.273410	-0.919513
C62	C	1.289628	-0.317863	-0.872450
C63	C	1.339937	-0.267805	-0.831417
H64	H	1.209389	-0.239209	-0.887478
H65	H	1.269299	-0.243508	-0.955643
H66	H	1.259665	-0.347753	-0.836323
H67	H	1.319589	-0.352062	-0.904465
H68	H	1.369903	-0.237902	-0.867547
H69	H	1.309986	-0.233606	-0.799387
H70	H	1.374073	-0.297959	-0.799485
C71	C	0.593916	-0.483084	-0.482596
C72	C	0.640930	-0.533347	-0.438053
C73	C	0.681980	-0.583719	-0.488021
H74	H	0.625984	-0.453184	-0.516861
H75	H	0.557795	-0.513070	-0.512434
H76	H	0.677047	-0.503364	-0.408228
H77	H	0.608881	-0.563264	-0.403790
H78	H	0.645859	-0.613705	-0.517859
H79	H	0.714044	-0.553813	-0.522283
H80	H	0.713878	-0.617833	-0.457806
C81	C	1.239217	-0.836649	-0.273515
C82	C	1.283163	-0.783200	-0.229562
C83	C	1.333445	-0.824028	-0.179308
H84	H	1.273488	-0.868581	-0.303490
H85	H	1.209237	-0.868663	-0.239251
H86	H	1.313140	-0.751200	-0.263821
H87	H	1.248913	-0.751266	-0.199571
H88	H	1.303466	-0.856042	-0.145045
H89	H	1.367712	-0.855959	-0.209290
H90	H	1.363264	-0.787769	-0.149475
C91	C	1.239188	-0.273255	-1.090688
C92	C	1.228432	-0.283953	-1.171251
C93	C	1.278564	-0.233758	-1.212420
H94	H	1.291957	-0.284696	-1.077361
H95	H	1.227710	-0.220502	-1.077302
H96	H	1.239916	-0.336694	-1.184631
H97	H	1.175674	-0.272507	-1.184601
H98	H	1.267085	-0.181005	-1.199034
H99	H	1.331329	-0.245203	-1.199086
H100	H	1.271267	-0.241005	-1.267086
H101	H	1.225585	-0.286983	-0.677845
C102	C	1.029747	-1.089532	-0.482967
C103	C	0.985756	-1.036097	-0.526906
C104	C	0.935520	-1.076944	-0.577182
H105	H	0.995502	-1.121566	-0.453008
H106	H	1.059762	-1.121444	-0.517238
H107	H	0.955744	-1.004198	-0.492640
H108	H	1.019980	-1.004061	-0.556881
H109	H	0.965534	-1.108856	-0.611453
H110	H	0.901280	-1.108977	-0.547217
H111	H	0.905671	-1.040695	-0.607006
C112	C	1.029675	-0.482658	-1.090331
C113	C	0.985658	-0.526615	-1.036873
C114	C	0.935333	-0.576832	-1.077692
H115	H	1.059603	-0.516926	-1.122309
H116	H	0.995456	-0.452632	-1.122297
H117	H	1.019873	-0.556640	-1.004920
H118	H	0.955714	-0.492368	-1.004892
H119	H	0.901114	-0.546805	-1.109658
H120	H	0.965267	-0.611095	-1.109670
H121	H	0.905457	-0.606658	-1.041428
H122	H	1.225603	-0.286940	-0.826563
C123	C	1.239476	-1.089483	-0.273696
C124	C	1.317096	-1.069385	-0.290886
C125	C	1.367552	-1.110186	-0.240783
H126	H	1.232462	-1.144200	-0.280810
H127	H	1.228069	-1.076064	-0.220929
H128	H	1.328499	-1.082810	-0.343640
H129	H	1.324135	-1.014675	-0.283767
H130	H	1.356145	-1.096766	-0.188017
H131	H	1.360531	-1.164901	-0.247902
H132	H	1.420222	-1.096549	-0.252435
H133	H	1.043335	-0.929811	-0.469235
H134	H	1.043230	-0.676960	-0.469183
C135	C	1.029867	-0.482728	-0.919370
C136	C	1.074294	-0.533034	-0.872289
C137	C	1.024210	-0.583300	-0.831150
H138	H	0.999941	-0.512695	-0.955413
H139	H	0.995688	-0.452729	-0.887343
H140	H	1.108460	-0.563030	-0.904313
H141	H	1.104219	-0.503088	-0.836231
H142	H	0.990030	-0.553301	-0.799122
H143	H	0.994286	-0.613262	-0.867199
H144	H	1.054345	-0.617434	-0.799195
C145	C	1.029633	-0.836672	-0.482916
C146	C	0.985638	-0.783232	-0.526845
C147	C	0.935389	-0.824072	-0.577113
H148	H	0.995390	-0.868705	-0.452952
H149	H	1.059638	-0.868587	-0.517193
H150	H	0.955635	-0.751332	-0.492572
H151	H	1.019860	-0.751198	-0.556825
H152	H	0.965394	-0.855986	-0.611391
H153	H	0.901152	-0.856103	-0.547143
H154	H	0.905538	-0.787820	-0.606930
H155	H	1.043318	-0.469111	-0.677766
H156	H	0.686866	-0.469337	-0.469114
C157	C	0.846676	-0.482876	-0.482829
C158	C	0.826789	-0.465867	-0.560528
C159	C	0.867741	-0.516024	-0.610790
H160	H	0.833252	-0.535633	-0.471354
H161	H	0.901377	-0.475670	-0.475701
H162	H	0.772100	-0.473080	-0.567652
H163	H	0.840216	-0.413119	-0.572027
H164	H	0.922442	-0.508817	-0.603662
H165	H	0.854313	-0.568778	-0.599307
H166	H	0.854259	-0.504485	-0.663514
C167	C	0.422748	-0.482917	-0.482723
C168	C	0.342180	-0.472149	-0.472026
C169	C	0.301038	-0.522326	-0.522118
H170	H	0.436064	-0.535676	-0.471186
H171	H	0.436169	-0.471489	-0.535501
H172	H	0.328765	-0.483582	-0.419261
H173	H	0.328841	-0.419401	-0.483569
H174	H	0.314458	-0.510899	-0.574895
H175	H	0.314359	-0.575082	-0.510577
H176	H	0.246368	-0.515022	-0.514872
H177	H	1.043350	-0.469073	-0.826498
H178	H	0.433988	-0.286953	-0.287321
C179	C	0.675667	-0.273425	-0.273592
C180	C	0.628581	-0.317809	-0.223189
C181	C	0.587537	-0.267683	-0.172971
H182	H	0.643648	-0.239250	-0.303596
H183	H	0.711791	-0.243497	-0.243700
H184	H	0.592461	-0.347723	-0.253079
H185	H	0.660581	-0.351982	-0.193168
H186	H	0.623661	-0.237755	-0.143078
H187	H	0.555522	-0.233511	-0.202981
H188	H	0.555590	-0.297790	-0.138762
H189	H	1.225483	-0.676941	-0.287177
C190	C	0.846555	-0.273262	-0.273578
C191	C	0.793107	-0.229262	-0.229682
C192	C	0.833938	-0.178960	-0.179460
H193	H	0.878564	-0.239026	-0.303574
H194	H	0.878492	-0.303230	-0.239278
H195	H	0.761184	-0.199296	-0.263978
H196	H	0.761097	-0.263478	-0.199670
H197	H	0.865875	-0.208928	-0.145160
H198	H	0.865946	-0.144729	-0.209463
H199	H	0.797681	-0.149105	-0.149666
H200	H	1.225591	-0.929786	-0.287228
