data_functionalizedCrystal
_audit_creation_method	'MofGen! by Chris Wilmer'
_symmetry_space_group_name_H-M	'P1'
_symmetry_Int_Tables_number	1
_symmetry_cell_setting	triclinic
loop_
_symmetry_equiv_pos_as_xyz
  x,y,z
_cell_length_a	27.780692
_cell_length_b	27.781107
_cell_length_c	27.780936
_cell_angle_alpha	90.003441
_cell_angle_beta	120.002640
_cell_angle_gamma	60.000171
loop_
_atom_site_label
_atom_site_type_symbol
_atom_site_fract_x
_atom_site_fract_y
_atom_site_fract_z
O1	O	-0.424554	-0.330250	-0.014310
O2	O	-0.325993	-0.260243	0.014259
O3	O	-0.424556	-0.260250	-0.084308
O4	O	-0.325991	-0.330244	0.084257
O5	O	-0.344492	-0.340306	-0.084308
O6	O	-0.245930	-0.340300	0.014260
O7	O	-0.344491	-0.410307	-0.014310
Cu8	Cu	-0.287900	-0.382613	-0.000025
Cu9	Cu	-0.382584	-0.287937	-0.000026
O10	O	-0.245928	-0.410301	0.084258
C11	C	-0.177687	-0.207636	0.029879
C12	C	-0.211480	-0.237338	0.025794
C13	C	-0.206381	-0.149705	0.030285
C14	C	-0.090521	-0.207640	0.029875
C15	C	-0.031114	-0.237345	0.025786
C16	C	-0.119347	-0.149709	0.030281
C17	C	-0.177684	-0.120472	0.029875
C18	C	-0.211474	-0.056977	0.025786
C19	C	-0.119350	-0.236741	0.030285
C20	C	-0.238774	-0.005680	0.022482
C21	C	-0.238782	-0.261333	0.022492
C22	C	0.016879	-0.261344	0.022480
C23	C	-0.273021	0.058675	0.018337
C24	C	-0.273033	-0.291437	0.018351
C25	C	0.077090	-0.291452	0.018335
C26	C	-0.492797	-0.207642	-0.372384
C27	C	-0.459004	-0.237344	-0.402088
C28	C	-0.551137	-0.149713	-0.401487
C29	C	-0.492797	-0.207642	-0.285218
C30	C	-0.459004	-0.237344	-0.221723
C31	C	-0.551137	-0.149714	-0.314453
C32	C	-0.579966	-0.120480	-0.372384
C33	C	-0.639375	-0.056987	-0.402087
C34	C	-0.464100	-0.236743	-0.314454
C35	C	-0.687371	-0.005691	-0.426083
C36	C	-0.431703	-0.261339	-0.426085
C37	C	-0.431703	-0.261340	-0.170425
C38	C	-0.747585	0.058661	-0.456188
C39	C	-0.397452	-0.291444	-0.456191
C40	C	-0.397452	-0.291444	-0.106070
C41	C	-0.579956	-0.462930	-0.029949
C42	C	-0.639364	-0.433229	-0.025863
C43	C	-0.551126	-0.520860	-0.030357
C44	C	-0.492789	-0.462926	-0.029946
C45	C	-0.458998	-0.433221	-0.025856
C46	C	-0.464091	-0.520856	-0.030354
C47	C	-0.492786	-0.550093	-0.029949
C48	C	-0.458992	-0.613587	-0.025862
C49	C	-0.551129	-0.433826	-0.030355
C50	C	-0.431690	-0.664884	-0.022559
C51	C	-0.687360	-0.409234	-0.022561
C52	C	-0.431698	-0.409222	-0.022550
C53	C	-0.397438	-0.729239	-0.018416
C54	C	-0.747573	-0.379130	-0.018418
C55	C	-0.397450	-0.379114	-0.018404
O56	O	0.234756	-0.410325	-0.014324
O57	O	0.094757	-0.340317	0.014243
O58	O	0.094752	-0.340326	-0.084323
O59	O	0.234761	-0.410316	0.084242
O60	O	0.094755	-0.260268	-0.084327
O61	O	0.094761	-0.260259	0.014240
O62	O	0.234759	-0.330267	-0.014328
Cu63	Cu	0.164760	-0.287953	-0.000044
Cu64	Cu	0.164756	-0.382631	-0.000040
O65	O	0.234764	-0.330258	0.084239
O66	O	-0.344480	0.248998	-0.014325
O67	O	-0.245918	0.080436	0.014241
O68	O	-0.344485	0.178993	-0.084325
O69	O	-0.245913	0.150441	0.084241
O70	O	-0.424545	0.178995	-0.084321
O71	O	-0.325978	0.080439	0.014245
O72	O	-0.424540	0.249001	-0.014321
Cu73	Cu	-0.382569	0.164720	-0.000038
Cu74	Cu	-0.287889	0.164717	-0.000042
O75	O	-0.325973	0.150444	0.084245
O76	O	-0.905261	0.248980	-0.494988
O77	O	-0.765254	0.080422	-0.424992
O78	O	-0.765258	0.178987	-0.424987
O79	O	-0.905258	0.150415	-0.494993
O80	O	-0.765260	0.178989	-0.505047
O81	O	-0.765256	0.080424	-0.505053
O82	O	-0.905263	0.248983	-0.575048
Cu83	Cu	-0.835260	0.164703	-0.547361
Cu84	Cu	-0.835258	0.164701	-0.452680
O85	O	-0.905260	0.150417	-0.575054
O86	O	-0.325986	-0.330249	-0.575053
O87	O	-0.424555	-0.260250	-0.505056
O88	O	-0.325990	-0.260246	-0.505051
O89	O	-0.424551	-0.330253	-0.575058
O90	O	-0.245929	-0.340301	-0.424991
O91	O	-0.344494	-0.340305	-0.424996
O92	O	-0.245924	-0.410304	-0.494993
Cu93	Cu	-0.287899	-0.382614	-0.452684
Cu94	Cu	-0.382581	-0.287940	-0.547365
O95	O	-0.344490	-0.410308	-0.494998
C96	C	-0.090516	-0.550073	0.372332
C97	C	-0.031106	-0.613565	0.402035
C98	C	-0.119344	-0.520839	0.401436
C99	C	-0.177685	-0.462910	0.285167
C100	C	-0.211478	-0.433208	0.221673
C101	C	-0.206382	-0.433809	0.314403
C102	C	-0.177684	-0.462911	0.372334
C103	C	-0.211476	-0.433210	0.402038
C104	C	-0.119345	-0.520838	0.314402
C105	C	-0.238777	-0.409214	0.426036
C106	C	0.016889	-0.664861	0.426031
C107	C	-0.238780	-0.409211	0.170375
C108	C	-0.273027	-0.379111	0.456142
C109	C	0.077103	-0.729214	0.456136
C110	C	-0.273031	-0.379107	0.106020
C111	C	-0.177705	-0.120506	-0.372403
C112	C	-0.211495	-0.057014	-0.402108
C113	C	-0.206404	-0.149741	-0.401505
C114	C	-0.090537	-0.207667	-0.285236
C115	C	-0.031127	-0.237367	-0.221741
C116	C	-0.119369	-0.236770	-0.314470
C117	C	-0.177709	-0.207669	-0.372401
C118	C	-0.211504	-0.237373	-0.402103
C119	C	-0.119364	-0.149739	-0.314472
C120	C	-0.238808	-0.261370	-0.426099
C121	C	-0.238794	-0.005718	-0.426106
C122	C	0.016869	-0.261361	-0.170443
C123	C	-0.273061	-0.291475	-0.456203
C124	C	-0.273043	0.058634	-0.456213
C125	C	0.077083	-0.291464	-0.106087
C126	C	0.507226	-0.462917	0.372317
C127	C	0.541022	-0.433214	0.402020
C128	C	0.535920	-0.520845	0.401421
C129	C	0.420053	-0.462919	0.285151
C130	C	0.360644	-0.433218	0.221656
C131	C	0.448880	-0.520847	0.314387
C132	C	0.507221	-0.550080	0.372318
C133	C	0.541010	-0.613572	0.402023
C134	C	0.448885	-0.433816	0.314386
C135	C	0.568310	-0.664868	0.426020
C136	C	0.568326	-0.409218	0.426016
C137	C	0.312647	-0.409223	0.170358
C138	C	0.602557	-0.729220	0.456127
C139	C	0.602579	-0.379112	0.456121
C140	C	0.252433	-0.379120	0.106003
C141	C	-0.579946	0.194571	-0.372389
C142	C	-0.639352	0.190480	-0.402089
C143	C	-0.551117	0.194971	-0.401493
C144	C	-0.492781	0.194585	-0.285228
C145	C	-0.458991	0.190509	-0.221735
C146	C	-0.464085	0.194986	-0.314464
C147	C	-0.492779	0.194568	-0.372393
C148	C	-0.458987	0.190472	-0.402097
C149	C	-0.551119	0.194989	-0.314460
C150	C	-0.431685	0.187163	-0.426095
C151	C	-0.687346	0.187173	-0.426083
C152	C	-0.431691	0.187215	-0.170438
C153	C	-0.397434	0.183011	-0.456201
C154	C	-0.747557	0.183025	-0.456185
C155	C	-0.397443	0.183083	-0.106085
O156	O	-0.424573	0.248956	-0.575073
O157	O	-0.326002	0.080394	-0.505077
O158	O	-0.424562	0.178953	-0.505068
O159	O	-0.326013	0.150397	-0.575082
O160	O	-0.344497	0.178955	-0.425009
O161	O	-0.245937	0.080397	-0.425019
O162	O	-0.344508	0.248958	-0.495014
Cu163	Cu	-0.287912	0.164678	-0.452706
Cu164	Cu	-0.382599	0.164675	-0.547385
O165	O	-0.245948	0.150400	-0.495023
C166	C	-0.177678	0.134868	0.372314
C167	C	-0.211470	0.138961	0.402018
C168	C	-0.119342	0.134466	0.401413
C169	C	-0.177677	0.134851	0.285148
C170	C	-0.211467	0.138927	0.221655
C171	C	-0.119341	0.134449	0.314380
C172	C	-0.090514	0.134867	0.372309
C173	C	-0.031109	0.138961	0.402008
C174	C	-0.206373	0.134450	0.314385
C175	C	0.016884	0.142269	0.426002
C176	C	-0.238771	0.142269	0.426016
C177	C	-0.238767	0.142222	0.170359
C178	C	0.077094	0.146418	0.456104
C179	C	-0.273021	0.146419	0.456123
C180	C	-0.273016	0.146354	0.106005
H181	H	-0.095227	-0.284339	0.030940
C182	C	-0.269801	-0.369510	0.282695
C183	C	-0.266941	-0.321013	0.308125
C184	C	-0.330357	-0.256718	0.276418
C185	C	-0.396634	-0.240918	0.219281
C186	C	-0.399496	-0.289416	0.193848
C187	C	-0.336079	-0.353712	0.225555
H188	H	-0.217877	-0.332708	0.350424
H189	H	-0.328238	-0.220816	0.295245
H190	H	-0.443578	-0.193323	0.195810
H191	H	-0.448560	-0.277722	0.151549
H192	H	-0.338198	-0.389614	0.206728
H193	H	-0.575247	0.195647	-0.290989
H194	H	-0.253325	0.133805	0.290914
H195	H	-0.095217	0.133792	0.290904
H196	H	-0.575256	-0.126242	-0.290976
H197	H	-0.095234	-0.284369	-0.290998
C198	C	-0.086758	-0.117998	0.031160
C199	C	-0.022465	-0.150143	0.031591
C200	C	0.010120	-0.118432	0.032467
C201	C	-0.021588	-0.054576	0.032912
C202	C	-0.085884	-0.022427	0.032481
C203	C	-0.118469	-0.054138	0.031605
H204	H	0.001011	-0.197416	0.031261
H205	H	0.057717	-0.142231	0.032786
H206	H	0.002534	-0.031101	0.033561
H207	H	-0.109360	0.024846	0.032811
H208	H	-0.166066	-0.030340	0.031286
H209	H	-0.575254	-0.544331	-0.031014
H210	H	0.424748	-0.544316	0.290914
C211	C	-0.086770	0.133627	0.465702
C212	C	-0.118495	0.133223	0.497847
C213	C	-0.085934	0.132402	0.562127
C214	C	-0.021649	0.131985	0.594262
C215	C	0.010080	0.132389	0.562117
C216	C	-0.022480	0.133210	0.497837
H217	H	-0.166087	0.133533	0.474058
H218	H	-0.109423	0.132103	0.585922
H219	H	0.002455	0.131377	0.641846
H220	H	0.057672	0.132079	0.585905
H221	H	0.001008	0.133509	0.474041
H222	H	-0.253320	-0.126236	0.030947
C223	C	-0.400678	-0.552559	-0.031244
C224	C	-0.403549	-0.575121	-0.082608
C225	C	-0.340140	-0.606821	-0.083501
C226	C	-0.273861	-0.615959	-0.033032
C227	C	-0.270988	-0.593397	0.018335
C228	C	-0.334396	-0.561697	0.019229
H229	H	-0.452615	-0.568356	-0.119972
H230	H	-0.342268	-0.623523	-0.121527
H231	H	-0.226922	-0.639425	-0.033693
H232	H	-0.221921	-0.600161	0.055699
H233	H	-0.332268	-0.544995	0.057254
C234	C	-0.583750	-0.118002	-0.465793
C235	C	-0.609674	-0.143439	-0.514284
C236	C	-0.642294	-0.111726	-0.578589
C237	C	-0.648990	-0.054576	-0.594403
C238	C	-0.623066	-0.029136	-0.545910
C239	C	-0.590445	-0.060849	-0.481605
H240	H	-0.604718	-0.185748	-0.502579
H241	H	-0.661485	-0.130560	-0.614486
H242	H	-0.673138	-0.031101	-0.642005
H243	H	-0.628022	0.013173	-0.557616
H244	H	-0.571254	-0.042015	-0.445708
C245	C	-0.086735	-0.552551	0.282706
C246	C	-0.128052	-0.561695	0.225562
C247	C	-0.095436	-0.593410	0.193874
C248	C	-0.021504	-0.615981	0.219328
C249	C	0.019817	-0.606837	0.276475
C250	C	-0.012799	-0.575122	0.308164
H251	H	-0.182785	-0.544987	0.206716
H252	H	-0.126025	-0.600179	0.151570
H253	H	0.002641	-0.639458	0.195871
H254	H	0.074551	-0.623546	0.295321
H255	H	0.017790	-0.568354	0.350467
H256	H	-0.095238	-0.126264	-0.291003
H257	H	-0.253355	-0.126267	-0.449101
C258	C	-0.400676	-0.301040	-0.282740
C259	C	-0.368955	-0.333188	-0.314882
C260	C	-0.305530	-0.397480	-0.283167
C261	C	-0.273827	-0.429624	-0.219310
C262	C	-0.305548	-0.397476	-0.187165
C263	C	-0.368973	-0.333184	-0.218879
H264	H	-0.392423	-0.309393	-0.362156
H265	H	-0.282048	-0.421278	-0.306964
H266	H	-0.226876	-0.477217	-0.195833
H267	H	-0.282079	-0.421270	-0.139890
H268	H	-0.392454	-0.309385	-0.195083
C269	C	0.599345	-0.552556	0.465720
C270	C	0.631045	-0.616411	0.497866
C271	C	0.694470	-0.648123	0.562161
C272	C	0.726195	-0.615982	0.594310
C273	C	0.694494	-0.552124	0.562164
C274	C	0.631069	-0.520411	0.497869
H275	H	0.607561	-0.640207	0.474067
H276	H	0.717937	-0.695395	0.585957
H277	H	0.773146	-0.639458	0.641905
H278	H	0.717979	-0.528328	0.585962
H279	H	0.607603	-0.473139	0.474072
C280	C	-0.086756	-0.552542	0.465737
C281	C	-0.080095	-0.609675	0.481540
C282	C	-0.047512	-0.641373	0.545837
C283	C	-0.021590	-0.615939	0.594332
C284	C	-0.028250	-0.558803	0.578531
C285	C	-0.060833	-0.527104	0.514233
H286	H	-0.099285	-0.628506	0.445640
H287	H	-0.042582	-0.683670	0.557534
H288	H	0.002530	-0.639404	0.641929
H289	H	-0.009060	-0.539972	0.614431
H290	H	-0.065763	-0.484808	0.502536
C291	C	0.416281	-0.369516	0.282669
C292	C	0.457600	-0.353704	0.273515
C293	C	0.424991	-0.289406	0.241795
C294	C	0.351064	-0.240921	0.219230
C295	C	0.309742	-0.256732	0.228384
C296	C	0.342350	-0.321030	0.260103
H297	H	0.512328	-0.389597	0.290219
H298	H	0.455581	-0.277702	0.235019
H299	H	0.326926	-0.193323	0.195750
H300	H	0.255013	-0.220839	0.211680
H301	H	0.311760	-0.332734	0.266880
C302	C	-0.583725	-0.369523	-0.031245
C303	C	-0.648026	-0.337372	-0.031687
C304	C	-0.680622	-0.273071	-0.032580
C305	C	-0.648917	-0.240921	-0.033032
C306	C	-0.584614	-0.273071	-0.032590
C307	C	-0.552018	-0.337372	-0.031697
H308	H	-0.671498	-0.361172	-0.031353
H309	H	-0.728224	-0.249271	-0.032908
H310	H	-0.673047	-0.193321	-0.033693
H311	H	-0.561141	-0.249272	-0.032924
H312	H	-0.504416	-0.361172	-0.031370
C313	C	-0.400670	0.195877	-0.282763
C314	C	-0.368956	0.196326	-0.218906
C315	C	-0.305545	0.197218	-0.187208
C316	C	-0.273847	0.197661	-0.219367
C317	C	-0.305561	0.197212	-0.283228
C318	C	-0.368972	0.196320	-0.314926
H319	H	-0.392421	0.195998	-0.195097
H320	H	-0.282069	0.197551	-0.139934
H321	H	-0.226907	0.198322	-0.195903
H322	H	-0.282096	0.197540	-0.307037
H323	H	-0.392449	0.195988	-0.362200
H324	H	-0.575249	0.195624	-0.449092
