data_functionalizedCrystal
_audit_creation_method	'MofGen! by Chris Wilmer'
_symmetry_space_group_name_H-M	'P1'
_symmetry_Int_Tables_number	1
_symmetry_cell_setting	triclinic
loop_
_symmetry_equiv_pos_as_xyz
  x,y,z
_cell_length_a	19.288840
_cell_length_b	27.731996
_cell_length_c	17.766277
_cell_angle_alpha	89.987644
_cell_angle_beta	89.983415
_cell_angle_gamma	82.873701
loop_
_atom_site_label
_atom_site_type_symbol
_atom_site_fract_x
_atom_site_fract_y
_atom_site_fract_z
O1	O	0.920972	0.060244	-0.062730
O2	O	1.420972	0.560244	0.437270
O3	O	0.718656	0.068391	-0.062705
O4	O	1.218656	0.568391	0.437295
O5	O	0.826116	-0.006063	-0.062702
O6	O	1.326116	0.493937	0.437298
O7	O	0.813512	0.134697	-0.062733
O8	O	1.313512	0.634697	0.437267
O9	O	0.826098	-0.006066	0.062487
O10	O	1.326098	0.493934	0.562487
O11	O	0.718637	0.068387	0.062484
O12	O	1.218637	0.568387	0.562484
O13	O	0.920953	0.060240	0.062459
O14	O	1.420953	0.560240	0.562459
Cu15	Cu	0.819794	0.064313	0.073902
Cu16	Cu	1.319794	0.564313	0.573902
Cu17	Cu	0.819816	0.064318	-0.074148
Cu18	Cu	1.319816	0.564318	0.425852
O19	O	0.813493	0.134693	0.062456
O20	O	1.313493	0.634693	0.562456
C21	C	0.692772	0.068129	-0.000107
C22	C	1.192772	0.568129	0.499893
C23	C	0.615672	0.067348	-0.000097
C24	C	1.115672	0.567348	0.499903
C25	C	0.579481	0.066975	-0.068339
C26	C	1.079481	0.566975	0.431661
C27	C	0.507039	0.066236	-0.068348
C28	C	1.007039	0.566236	0.431652
C29	C	0.470793	0.065860	-0.000111
C30	C	0.970793	0.565860	0.499889
C31	C	0.506992	0.066236	0.068140
C32	C	1.006992	0.566236	0.568140
C33	C	0.579432	0.066980	0.068147
C34	C	1.079432	0.566980	0.568147
C35	C	0.361649	0.036367	0.052164
C36	C	0.861649	0.536367	0.552164
C37	C	0.289211	0.035620	0.052154
C38	C	0.789211	0.535620	0.552154
C39	C	0.247364	0.063568	-0.000130
C40	C	0.747364	0.563568	0.499870
C41	C	0.277965	0.092256	-0.052417
C42	C	0.777965	0.592256	0.447583
C43	C	0.350404	0.093000	-0.052410
C44	C	0.850404	0.593000	0.447590
C45	C	0.392244	0.065054	-0.000111
C46	C	0.892244	0.565054	0.499889
C47	C	0.132623	0.062394	-0.068387
C48	C	0.632623	0.562394	0.431613
C49	C	0.060179	0.061658	-0.068393
C50	C	0.560179	0.561658	0.431607
C51	C	0.060134	0.061653	0.068097
C52	C	0.560134	0.561653	0.568097
C53	C	0.132576	0.062394	0.068101
C54	C	0.632576	0.562394	0.568101
C55	C	0.168816	0.062762	-0.000143
C56	C	0.668816	0.562762	0.499857
C57	C	0.825848	-0.024073	-0.000105
C58	C	1.325848	0.475927	0.499895
C59	C	0.825068	-0.077731	-0.000097
C60	C	1.325068	0.422269	0.499903
C61	C	0.820172	-0.410460	-0.068374
C62	C	1.320172	0.089540	0.431626
C63	C	0.817210	-0.612127	-0.068386
C64	C	1.317210	-0.112127	0.431614
O65	O	0.816806	-0.638197	-0.126423
O66	O	1.316806	-0.138197	0.373577
N67	N	0.816832	-0.637347	-0.000147
N68	N	1.316832	-0.137347	0.499853
C69	C	0.817190	-0.612147	0.068101
C70	C	1.317190	-0.112147	0.568101
O71	O	0.816793	-0.638225	0.126143
O72	O	1.316793	-0.138225	0.626143
C73	C	0.820146	-0.410481	0.068113
C74	C	1.320146	0.089519	0.568113
C75	C	0.820532	-0.385264	-0.000131
C76	C	1.320532	0.114736	0.499869
C77	C	0.820556	-0.385243	-0.136612
C78	C	1.320556	0.114757	0.363388
C79	C	0.821300	-0.334829	-0.136608
C80	C	1.321300	0.165171	0.363392
C81	C	0.821660	-0.309633	-0.068366
C82	C	1.321660	0.190367	0.431634
C83	C	0.821276	-0.334850	-0.000127
C84	C	1.321276	0.165150	0.499873
C85	C	0.820499	-0.385281	0.136360
C86	C	1.320499	0.114719	0.636360
C87	C	0.821237	-0.334861	0.136357
C88	C	1.321237	0.165139	0.636357
C89	C	0.821622	-0.309644	0.068113
C90	C	1.321622	0.190356	0.568113
C91	C	0.822380	-0.259241	0.068119
C92	C	1.322380	0.240759	0.568119
N93	N	0.822758	-0.234020	-0.000120
N94	N	1.322758	0.265980	0.499880
C95	C	0.822398	-0.259217	-0.068363
C96	C	1.322398	0.240783	0.431637
C97	C	0.815639	-0.718025	0.068090
C98	C	1.315639	-0.218025	0.568090
C99	C	0.814901	-0.768442	0.068087
C100	C	1.314901	-0.268442	0.568087
C101	C	0.814920	-0.768418	-0.068401
C102	C	1.314920	-0.268418	0.431599
C103	C	0.815663	-0.718001	-0.068397
C104	C	1.315663	-0.218001	0.431603
C105	C	0.816017	-0.692805	-0.000150
C106	C	1.316017	-0.192805	0.499850
C107	C	0.823961	-0.153345	-0.068350
C108	C	1.323961	0.346655	0.431650
C109	C	0.824708	-0.102927	-0.068340
C110	C	1.324708	0.397073	0.431660
C111	C	0.824686	-0.102955	0.068148
C112	C	1.324686	0.397045	0.568148
C113	C	0.823942	-0.153369	0.068138
C114	C	1.323942	0.346631	0.568138
C115	C	0.823578	-0.178562	-0.000117
C116	C	1.323578	0.321438	0.499883
O117	O	0.822776	-0.233139	0.126125
O118	O	1.322776	0.266861	0.626125
O119	O	0.822779	-0.233128	-0.126396
O120	O	1.322779	0.266872	0.373604
C121	C	0.819428	-0.460873	-0.068377
C122	C	1.319428	0.039127	0.431623
C123	C	0.819043	-0.486090	-0.000139
C124	C	1.319043	0.013910	0.499861
C125	C	0.819403	-0.460894	0.068104
C126	C	1.319403	0.039106	0.568104
C127	C	0.818305	-0.536507	-0.000142
C128	C	1.318305	-0.036507	0.499858
C129	C	0.817945	-0.561703	-0.068384
C130	C	1.317945	-0.061703	0.431616
C131	C	0.818323	-0.536483	-0.136624
C132	C	1.318323	-0.036483	0.363376
C133	C	0.819068	-0.486070	-0.136620
C134	C	1.319068	0.013930	0.363380
C135	C	0.819025	-0.486114	0.136343
C136	C	1.319025	0.013886	0.636343
C137	C	0.818282	-0.536528	0.136334
C138	C	1.318282	-0.036528	0.636334
C139	C	0.817922	-0.561724	0.068091
C140	C	1.317922	-0.061724	0.568091
C141	C	0.946838	0.060502	-0.000140
C142	C	1.446838	0.560502	0.499860
C143	C	1.023937	0.061283	-0.000156
C144	C	1.523937	0.561283	0.499844
C145	C	0.813761	0.152703	-0.000143
C146	C	1.313761	0.652703	0.499857
C147	C	0.814541	0.206362	-0.000155
C148	C	1.314541	0.706362	0.499845
N149	N	0.819783	0.064310	0.178032
N150	N	1.319783	0.564310	0.678032
N151	N	0.819832	0.064317	-0.178278
N152	N	1.319832	0.564317	0.321722
C153	C	0.867382	0.031358	0.217421
C154	C	1.367382	0.531358	0.717421
C155	C	0.867386	0.031356	0.296222
C156	C	1.367386	0.531356	0.796222
C157	C	0.819798	0.064314	0.335633
C158	C	1.319798	0.564314	0.835633
C159	C	0.772190	0.097268	0.296235
C160	C	1.272190	0.597268	0.796235
C161	C	0.772183	0.097266	0.217435
C162	C	1.272183	0.597266	0.717435
C163	C	0.810212	0.108358	0.460462
C164	C	1.310212	0.608358	0.960462
C165	C	0.810224	0.108360	0.539261
C166	C	1.310224	0.608360	1.039261
C167	C	0.819816	0.064319	0.578679
C168	C	1.319816	0.564319	1.078679
C169	C	0.829411	0.020274	0.539289
C170	C	1.329411	0.520274	1.039289
C171	C	0.829404	0.020272	0.460489
C172	C	1.329404	0.520272	0.960489
C173	C	0.819800	0.064319	0.421079
C174	C	1.319800	0.564319	0.921079
C175	C	0.867422	0.031362	0.703513
C176	C	1.367422	0.531362	1.203513
C177	C	0.867421	0.031359	0.782317
C178	C	1.367421	0.531359	1.282317
C179	C	0.772229	0.097276	0.782328
C180	C	1.272229	0.597276	1.282328
C181	C	0.772226	0.097275	0.703526
C182	C	1.272226	0.597275	1.203526
C183	C	0.819827	0.064318	0.664124
C184	C	1.319827	0.564318	1.164124
H185	H	0.264303	0.012257	0.094725
H186	H	0.764303	0.512257	0.594725
H187	H	0.733422	0.124100	0.185364
H188	H	1.233422	0.624100	0.685364
H189	H	0.477475	0.065931	0.123699
H190	H	0.977475	0.565931	0.623699
C191	C	0.619244	0.067386	0.143222
C192	C	1.119244	0.567386	0.643222
N193	N	0.649231	0.067691	0.199770
N194	N	1.149231	0.567691	0.699770
H195	H	0.814628	-0.788941	-0.123966
H196	H	1.314628	-0.288941	0.376034
C197	C	0.719840	0.133520	0.339588
C198	C	1.219840	0.633520	0.839588
N199	N	0.680406	0.160824	0.372242
N200	N	1.180406	0.660824	0.872242
H201	H	0.815975	-0.697472	-0.123968
H202	H	1.315975	-0.197472	0.376032
H203	H	0.820260	-0.405752	-0.192186
H204	H	1.320260	0.094248	0.307814
H205	H	0.608984	0.067275	-0.123909
H206	H	1.108984	0.567275	0.376091
H207	H	0.395716	0.013607	0.094744
H208	H	0.895716	0.513607	0.594744
H209	H	0.825024	-0.082398	-0.123915
H210	H	1.325024	0.417602	0.376085
H211	H	0.906180	0.004523	0.814387
H212	H	1.406180	0.504523	1.314387
C213	C	0.814484	-0.796175	0.143161
C214	C	1.314484	-0.296175	0.643161
N215	N	0.814165	-0.817062	0.199709
N216	N	1.314165	-0.317062	0.699709
H217	H	0.733479	0.124109	0.814415
H218	H	1.233479	0.624109	1.314415
H219	H	0.477567	0.065933	-0.123921
H220	H	0.977567	0.565933	0.376079
H221	H	0.375316	0.116361	-0.094982
H222	H	0.875316	0.616361	0.405018
C223	C	0.919776	-0.004894	0.660168
C224	C	1.419776	0.495106	1.160168
N225	N	0.959209	-0.032204	0.627522
N226	N	1.459209	0.467796	1.127522
H227	H	0.823661	-0.173851	-0.123929
H228	H	1.323661	0.326149	0.376071
H229	H	0.817974	-0.557056	0.191911
H230	H	1.317974	-0.057056	0.691911
C231	C	0.231937	0.123005	-0.109931
C232	C	0.731937	0.623005	0.390069
N233	N	0.197266	0.146165	-0.153248
N234	N	0.697266	0.646165	0.346752
C235	C	0.799664	0.156811	0.582582
C236	C	1.299664	0.656811	1.082582
N237	N	0.791705	0.193305	0.615210
N238	N	1.291705	0.693305	1.115210
H239	H	0.821611	-0.314302	-0.192180
H240	H	1.321611	0.185698	0.307820
H241	H	0.162131	0.062699	-0.123955
H242	H	0.662131	0.562699	0.376045
C243	C	0.816033	-0.690316	0.143172
C244	C	1.316033	-0.190316	0.643172
N245	N	0.816333	-0.669449	0.199725
N246	N	1.316333	-0.169449	0.699725
H247	H	0.030713	0.061357	-0.123966
H248	H	0.530713	0.561357	0.376034
C249	C	0.823525	-0.181109	0.143210
C250	C	1.323525	0.318891	0.643210
N251	N	0.823205	-0.201999	0.199755
N252	N	1.323205	0.298001	0.699755
H253	H	0.820187	-0.405804	0.191932
H254	H	1.320187	0.094196	0.691932
C255	C	0.172388	0.062798	0.143174
C256	C	0.672388	0.562798	0.643174
N257	N	0.202375	0.063102	0.199722
N258	N	0.702375	0.563102	0.699722
H259	H	0.733470	0.124109	0.671454
H260	H	1.233470	0.624109	1.171454
H261	H	0.821515	-0.314348	0.191933
H262	H	1.321515	0.185652	0.691933
C263	C	0.819486	-0.458337	-0.211695
C264	C	1.319486	0.041663	0.288305
N265	N	0.819800	-0.437452	-0.268245
N266	N	1.319800	0.062548	0.231755
C267	C	0.020267	0.061240	0.143159
C268	C	0.520267	0.561240	0.643159
N269	N	-0.009765	0.060931	0.199697
N270	N	0.490235	0.560931	0.699697
H271	H	0.824982	-0.082432	0.123709
H272	H	1.324982	0.417568	0.623709
C273	C	0.817925	-0.564208	-0.211691
C274	C	1.317925	-0.064208	0.288309
N275	N	0.817621	-0.585093	-0.268228
N276	N	1.317621	-0.085093	0.231772
H277	H	0.819319	-0.465605	0.191916
H278	H	1.319319	0.034395	0.691916
C279	C	0.919757	-0.004891	0.339558
C280	C	1.419757	0.495109	0.839558
N281	N	0.959206	-0.032190	0.372197
N282	N	1.459206	0.467810	0.872197
C283	C	0.919737	-0.004900	0.174082
C284	C	1.419737	0.495100	0.674082
N285	N	0.959169	-0.032211	0.141439
N286	N	1.459169	0.467789	0.641439
C287	C	0.839948	-0.028177	0.417163
C288	C	1.339948	0.471823	0.917163
N289	N	0.847886	-0.064670	0.384530
N290	N	1.347886	0.435330	0.884530
H291	H	0.802389	0.144224	0.428374
H292	H	1.302389	0.644224	0.928374
H293	H	0.837221	-0.015589	0.571382
H294	H	1.337221	0.484411	1.071382
