data_functionalizedCrystal
_audit_creation_method	'MofGen! by Chris Wilmer'
_symmetry_space_group_name_H-M	'P1'
_symmetry_Int_Tables_number	1
_symmetry_cell_setting	triclinic
loop_
_symmetry_equiv_pos_as_xyz
  x,y,z
_cell_length_a	11.792241
_cell_length_b	9.616153
_cell_length_c	11.792241
_cell_angle_alpha	89.997612
_cell_angle_beta	95.806584
_cell_angle_gamma	90.002674
loop_
_atom_site_label
_atom_site_type_symbol
_atom_site_fract_x
_atom_site_fract_y
_atom_site_fract_z
O1	O	1.506913	0.115511	-0.155563
O2	O	2.006913	0.615511	0.344437
O3	O	1.176572	0.115544	-0.171596
O4	O	1.676572	0.615544	0.328404
O5	O	1.349759	0.115517	0.001591
O6	O	1.849759	0.615517	0.501591
O7	O	1.333726	0.115538	-0.328750
O8	O	1.833726	0.615538	0.171250
O9	O	1.349735	-0.115775	0.001587
O10	O	1.849735	0.384225	0.501587
O11	O	1.176548	-0.115748	-0.171600
O12	O	1.676548	0.384252	0.328400
O13	O	1.506889	-0.115780	-0.155567
O14	O	2.006889	0.384220	0.344433
Zn15	Zn	1.341715	-0.152487	-0.163584
Zn16	Zn	1.841715	0.347513	0.336416
Zn17	Zn	1.341746	0.152250	-0.163579
Zn18	Zn	1.841746	0.652250	0.336421
O19	O	1.333702	-0.115753	-0.328754
O20	O	1.833702	0.384247	0.171246
C21	C	1.134269	-0.000098	-0.170591
C22	C	1.634269	0.499902	0.329409
C23	C	1.008255	-0.000086	-0.167576
C24	C	1.508255	0.499914	0.332424
N25	N	1.341702	-0.360461	-0.163587
N26	N	1.841702	0.139539	0.336413
C27	C	0.777543	-0.000126	-0.162034
C28	C	1.277543	0.499874	0.337966
C29	C	0.905928	-0.000104	-0.165113
C30	C	1.405928	0.499896	0.334887
C31	C	1.248777	-0.580817	-0.255921
C32	C	1.748777	-0.080817	0.244079
C33	C	1.248980	-0.419649	-0.256265
C34	C	1.748980	0.080351	0.243735
C35	C	1.460293	-0.418920	-0.190184
C36	C	1.960293	0.081080	0.309816
C37	C	1.459787	-0.580138	-0.190837
C38	C	1.959787	-0.080138	0.309163
C39	C	1.317218	-0.580377	-0.044350
C40	C	1.817218	-0.080377	0.455650
C41	C	1.314492	-0.419150	-0.045131
C42	C	1.814492	0.080850	0.454869
C43	C	1.549192	-0.000136	-0.156572
C44	C	2.049192	0.499864	0.343428
C45	C	1.675206	-0.000139	-0.159587
C46	C	2.175206	0.499861	0.340413
N47	N	1.341768	0.360224	-0.163568
N48	N	1.841768	0.860224	0.336432
C49	C	1.348740	-0.000128	0.043880
C50	C	1.848740	0.499872	0.543880
C51	C	1.345726	-0.000127	0.169894
C52	C	1.845726	0.499873	0.669894
C53	C	1.334721	-0.000105	-0.371043
C54	C	1.834721	0.499895	0.128957
C55	C	1.337736	-0.000098	-0.497057
C56	C	1.837736	0.499902	0.002943
C57	C	1.340183	-0.000103	0.400606
C58	C	1.840183	0.499897	0.900606
C59	C	1.343262	-0.000116	0.272221
C60	C	1.843262	0.499884	0.772221
H61	H	1.160373	-0.619620	-0.240216
H62	H	1.660373	-0.119620	0.259784
H63	H	1.531183	-0.619137	-0.126263
H64	H	2.031183	-0.119137	0.373737
N65	N	1.489447	-0.365424	-0.304080
N66	N	1.989447	0.134576	0.195920
H67	H	1.499041	-0.446464	-0.356747
H68	H	1.999041	0.053536	0.143253
H69	H	1.562795	-0.310611	-0.293104
H70	H	2.062795	0.189389	0.206896
N71	N	1.407027	-0.630873	0.046704
N72	N	1.907027	-0.130873	0.546704
H73	H	1.463351	-0.691926	0.010968
H74	H	1.963351	-0.191926	0.510968
H75	H	1.369520	-0.685998	0.105539
H76	H	1.869520	-0.185998	0.605539
H77	H	1.232587	-0.621108	-0.018954
H78	H	1.732587	-0.121108	0.481046
N79	N	1.132248	-0.367283	-0.235137
N80	N	1.632248	0.132717	0.264863
H81	H	1.080195	-0.448928	-0.225517
H82	H	1.580195	0.051072	0.274483
H83	H	1.100041	-0.309092	-0.302090
H84	H	1.600041	0.190908	0.197910
H85	H	1.264317	-0.621311	-0.343877
H86	H	1.764317	-0.121311	0.156123
H87	H	1.264726	-0.381066	-0.344722
H88	H	1.764726	0.118934	0.155278
N89	N	1.488268	-0.629932	-0.306041
N90	N	1.988268	-0.129932	0.193959
H91	H	1.488218	-0.734946	-0.307620
H92	H	1.988218	-0.234946	0.192380
H93	H	1.566132	-0.594425	-0.320444
H94	H	2.066132	-0.094425	0.179556
H95	H	1.531167	-0.380578	-0.124740
H96	H	2.031167	0.119422	0.375260
N97	N	1.198894	-0.368641	-0.018448
N98	N	1.698894	0.131359	0.481552
H99	H	1.164291	-0.307981	-0.082808
H100	H	1.664291	0.192019	0.417192
H101	H	1.207487	-0.313113	0.054613
H102	H	1.707487	0.186887	0.554613
H103	H	1.377760	-0.378866	0.026869
H104	H	1.877760	0.121134	0.526869
