data_functionalizedCrystal
_audit_creation_method	'MofGen! by Chris Wilmer'
_symmetry_space_group_name_H-M	'P1'
_symmetry_Int_Tables_number	1
_symmetry_cell_setting	triclinic
loop_
_symmetry_equiv_pos_as_xyz
  x,y,z
_cell_length_a	14.971486
_cell_length_b	23.532407
_cell_length_c	13.448316
_cell_angle_alpha	89.988737
_cell_angle_beta	89.998199
_cell_angle_gamma	83.231404
loop_
_atom_site_label
_atom_site_type_symbol
_atom_site_fract_x
_atom_site_fract_y
_atom_site_fract_z
O1	O	1.186163	0.074216	-0.082588
O2	O	1.686163	0.574216	0.417412
O3	O	0.925669	0.083104	-0.082616
O4	O	1.425669	0.583104	0.417384
O5	O	1.063771	-0.004238	-0.082583
O6	O	1.563771	0.495762	0.417417
O7	O	1.048061	0.161558	-0.082621
O8	O	1.548061	0.661558	0.417379
O9	O	1.063754	-0.004243	0.082801
O10	O	1.563754	0.495757	0.582801
O11	O	0.925652	0.083099	0.082767
O12	O	1.425652	0.583099	0.582767
O13	O	1.186146	0.074211	0.082796
O14	O	1.686146	0.574211	0.582796
Cu15	Cu	1.055897	0.078654	0.097882
Cu16	Cu	1.555897	0.578654	0.597882
Cu17	Cu	1.055918	0.078661	-0.097703
Cu18	Cu	1.555918	0.578661	0.402297
O19	O	1.048044	0.161553	0.082763
O20	O	1.548044	0.661553	0.582763
C21	C	0.892340	0.082704	0.000072
C22	C	1.392340	0.582704	0.500072
C23	C	0.793056	0.081513	0.000062
C24	C	1.293056	0.581513	0.500062
C25	C	0.735288	0.132824	0.000052
C26	C	1.235288	0.632824	0.500052
C27	C	0.642001	0.131701	0.000067
C28	C	1.142001	0.631701	0.500067
C29	C	0.606482	0.079267	0.000085
C30	C	1.106482	0.579267	0.500085
C31	C	0.664257	0.027952	0.000099
C32	C	1.164257	0.527952	0.500099
C33	C	0.757543	0.029075	0.000091
C34	C	1.257543	0.529075	0.500091
C35	C	0.469819	0.025615	0.000113
C36	C	0.969819	0.525615	0.500113
C37	C	0.376527	0.024491	0.000119
C38	C	0.876527	0.524491	0.500119
C39	C	0.354277	0.128241	0.000089
C40	C	0.854277	0.628241	0.500089
C41	C	0.447563	0.129364	0.000081
C42	C	0.947563	0.629364	0.500081
C43	C	0.505331	0.078049	0.000093
C44	C	1.005331	0.578049	0.500093
C45	C	1.063363	-0.025458	0.000111
C46	C	1.563363	0.474542	0.500111
C47	C	1.062160	-0.088680	0.000119
C48	C	1.562160	0.411320	0.500119
C49	C	1.136342	-0.487466	0.000072
C50	C	1.636342	0.012534	0.500072
C51	C	1.135224	-0.546871	0.000065
C52	C	1.635224	-0.046871	0.500065
O53	O	1.203992	-0.583321	0.000035
O54	O	1.703992	-0.083321	0.500035
N55	N	1.053123	-0.569849	0.000056
N56	N	1.553123	-0.069849	0.500056
C57	C	0.972133	-0.533418	0.000046
C58	C	1.472133	-0.033418	0.500046
O59	O	0.902196	-0.558417	0.000037
O60	O	1.402196	-0.058417	0.500037
C61	C	0.973251	-0.474014	0.000046
C62	C	1.473251	0.025986	0.500046
C63	C	1.055358	-0.451040	0.000065
C64	C	1.555358	0.048960	0.500065
C65	C	1.218442	-0.464491	0.000090
C66	C	1.718442	0.035509	0.500090
C67	C	1.219559	-0.405090	0.000099
C68	C	1.719559	0.094910	0.500099
C69	C	1.138576	-0.368664	0.000091
C70	C	1.638576	0.131336	0.500091
C71	C	1.056475	-0.391639	0.000074
C72	C	1.556475	0.108361	0.500074
C73	C	0.892263	-0.437584	0.000029
C74	C	1.392263	0.062416	0.500029
C75	C	0.893388	-0.378177	0.000028
C76	C	1.393388	0.121823	0.500028
C77	C	0.975495	-0.355203	0.000047
C78	C	1.475495	0.144797	0.500047
C79	C	0.976609	-0.295812	0.000076
C80	C	1.476609	0.204188	0.500076
N81	N	1.058711	-0.272834	0.000084
N82	N	1.558711	0.227166	0.500084
C83	C	1.139694	-0.309260	0.000092
C84	C	1.639694	0.190740	0.500092
C85	C	0.969791	-0.658170	0.000043
C86	C	1.469791	-0.158170	0.500043
C87	C	0.968671	-0.717573	0.000049
C88	C	1.468671	-0.217573	0.500049
C89	C	1.131763	-0.731022	0.000066
C90	C	1.631763	-0.231022	0.500066
C91	C	1.132882	-0.671618	0.000067
C92	C	1.632882	-0.171618	0.500067
C93	C	1.051892	-0.635193	0.000051
C94	C	1.551892	-0.135193	0.500051
C95	C	1.142034	-0.184513	0.000113
C96	C	1.642034	0.315487	0.500113
C97	C	1.143143	-0.125106	0.000126
C98	C	1.643143	0.374894	0.500126
C99	C	0.980052	-0.111663	0.000104
C100	C	1.480052	0.388337	0.500104
C101	C	0.978942	-0.171064	0.000096
C102	C	1.478942	0.328936	0.500096
C103	C	1.059940	-0.207489	0.000097
C104	C	1.559940	0.292511	0.500097
O105	O	0.907878	-0.259327	0.000101
O106	O	1.407878	0.240673	0.500101
O107	O	1.209619	-0.284253	0.000087
O108	O	1.709619	0.215747	0.500087
C109	C	1.219475	0.074611	0.000105
C110	C	1.719475	0.574611	0.500105
C111	C	1.318760	0.075802	0.000109
C112	C	1.818760	0.575802	0.500109
C113	C	1.048453	0.182773	0.000066
C114	C	1.548453	0.682773	0.500066
C115	C	1.049655	0.245996	0.000052
C116	C	1.549655	0.745996	0.500052
N117	N	1.055890	0.078650	0.235447
N118	N	1.555890	0.578650	0.735447
N119	N	1.055933	0.078661	-0.235267
N120	N	1.555933	0.578661	0.264733
C121	C	1.117060	0.039991	0.287502
C122	C	1.617060	0.539991	0.787502
C123	C	1.117066	0.039990	0.391605
C124	C	1.617066	0.539990	0.891605
C125	C	1.055904	0.078652	0.443651
C126	C	1.555904	0.578652	0.943651
C127	C	0.994728	0.117313	0.391589
C128	C	1.494728	0.617313	0.891589
C129	C	0.994718	0.117310	0.287488
C130	C	1.494718	0.617310	0.787488
C131	C	0.994752	0.117317	0.608569
C132	C	1.494752	0.617317	1.108569
C133	C	0.994762	0.117320	0.712678
C134	C	1.494762	0.617320	1.212678
C135	C	1.117100	0.039997	0.712686
C136	C	1.617100	0.539997	1.212686
C137	C	1.117090	0.039994	0.608585
C138	C	1.617090	0.539994	1.108585
C139	C	1.055914	0.078656	0.556530
C140	C	1.555914	0.578656	1.056530
H141	H	0.516853	-0.016172	0.000124
H142	H	1.016853	0.483828	0.500124
O143	O	0.819857	-0.026266	0.000105
O144	O	1.319857	0.473734	0.500105
H145	H	0.807297	-0.051355	-0.067298
H146	H	1.307297	0.448645	0.432702
O147	O	1.183088	-0.001707	0.768816
O148	O	1.683088	0.498293	1.268816
H149	H	1.145699	-0.029434	0.816253
H150	H	1.645699	0.470566	1.316253
O151	O	0.928768	0.159018	0.447721
O152	O	1.428768	0.659018	0.947721
H153	H	0.859104	0.151688	0.427767
H154	H	1.359104	0.651688	0.927767
H155	H	0.827435	-0.348522	0.000014
H156	H	1.327435	0.151478	0.500014
H157	H	0.944958	0.148802	0.755048
H158	H	1.444958	0.648802	1.255048
O159	O	1.183061	-0.001700	0.447742
O160	O	1.683061	0.498300	0.947742
H161	H	1.172081	-0.046111	0.427774
H162	H	1.672081	0.453889	0.927774
O163	O	0.890387	-0.195850	0.000079
O164	O	1.390387	0.304150	0.500079
H165	H	0.834263	-0.160538	0.000071
H166	H	1.334263	0.339462	0.500071
O167	O	1.221438	-0.646839	0.000068
O168	O	1.721438	-0.146839	0.500068
H169	H	1.277557	-0.682154	0.000065
H170	H	1.777557	-0.182154	0.500065
H171	H	0.944933	0.148797	0.566189
H172	H	1.444933	0.648797	1.066189
O173	O	0.928747	0.159009	0.231334
O174	O	1.428747	0.659009	0.731334
H175	H	0.886225	0.185898	0.285012
H176	H	1.386225	0.685898	0.785012
H177	H	1.166868	0.008510	0.245133
H178	H	1.666868	0.508510	0.745133
H179	H	0.347612	-0.018205	0.000135
H180	H	0.847612	0.481795	0.500135
O181	O	0.625954	-0.028604	0.000127
O182	O	1.125954	0.471396	0.500127
H183	H	0.583990	-0.031601	-0.067281
H184	H	1.083990	0.468399	0.432719
O185	O	0.773591	0.189380	0.000043
O186	O	1.273591	0.689380	0.500043
H187	H	0.750340	0.214046	-0.067361
H188	H	1.250340	0.714046	0.432639
O189	O	0.579691	0.187043	0.000056
O190	O	1.079691	0.687043	0.500056
H191	H	0.620061	0.223692	0.000030
H192	H	1.120061	0.723692	0.500030
O193	O	1.229394	-0.223794	0.000132
O194	O	1.729394	0.276206	0.500132
H195	H	1.268728	-0.215603	-0.067260
H196	H	1.768728	0.284397	0.432740
O197	O	1.219115	-0.770315	0.000064
O198	O	1.719115	-0.270315	0.500064
H199	H	1.204536	-0.815481	0.000049
H200	H	1.704536	-0.315481	0.500049
H201	H	0.914118	-0.081994	0.000101
H202	H	1.414118	0.418006	0.500101
H203	H	0.307237	0.170023	0.000084
H204	H	0.807237	0.670023	0.500084
H205	H	0.476478	0.172060	0.000057
H206	H	0.976478	0.672060	0.500057
O207	O	1.183052	-0.001706	0.552443
O208	O	1.683052	0.498294	1.052443
H209	H	1.225586	-0.028594	0.606127
H210	H	1.725586	0.471406	1.106127
H211	H	1.210008	-0.106405	0.000144
H212	H	1.710008	0.393595	0.500144
H213	H	1.286419	-0.386390	0.000110
H214	H	1.786419	0.113610	0.500110
H215	H	0.901812	-0.736273	0.000052
H216	H	1.401812	-0.236273	0.500052
O217	O	1.305795	-0.503775	0.000112
O218	O	1.805795	-0.003775	0.500112
H219	H	1.363064	-0.477810	0.000134
H220	H	1.863064	0.022190	0.500134
H221	H	0.903835	-0.628515	0.000038
H222	H	1.403835	-0.128515	0.500038
O223	O	0.803704	-0.462356	0.000005
O224	O	1.303704	0.037644	0.500005
H225	H	0.747589	-0.427038	-0.000012
H226	H	1.247589	0.072962	0.499988
