data_functionalizedCrystal
_audit_creation_method	'MofGen! by Chris Wilmer'
_symmetry_space_group_name_H-M	'P1'
_symmetry_Int_Tables_number	1
_symmetry_cell_setting	triclinic
loop_
_symmetry_equiv_pos_as_xyz
  x,y,z
_cell_length_a	10.654550
_cell_length_b	12.811415
_cell_length_c	9.130313
_cell_angle_alpha	84.564622
_cell_angle_beta	89.999724
_cell_angle_gamma	84.263450
loop_
_atom_site_label
_atom_site_type_symbol
_atom_site_fract_x
_atom_site_fract_y
_atom_site_fract_z
O1	O	1.667074	0.147427	-0.141269
O2	O	1.301522	0.161472	-0.143161
O3	O	1.493494	0.001724	-0.121922
O4	O	1.475102	0.307175	-0.162508
O5	O	1.493481	0.001719	0.121677
O6	O	1.301509	0.161468	0.100438
O7	O	1.667061	0.147422	0.102331
Cu8	Cu	1.484284	0.154444	0.123627
Cu9	Cu	1.484299	0.154450	-0.164457
O10	O	1.475089	0.307171	0.081092
C11	C	1.254723	0.160439	-0.021228
C12	C	1.115296	0.157353	-0.020828
C13	C	1.492457	-0.037390	0.005071
C14	C	1.489370	-0.153931	0.020546
C15	C	1.035322	0.251411	-0.033321
C16	C	0.904316	0.248505	-0.032910
C17	C	0.933271	0.057477	-0.007517
C18	C	1.064275	0.060383	-0.007918
C19	C	1.483562	-0.372907	-0.215978
C20	C	1.480662	-0.482407	-0.201445
C21	C	1.480660	-0.482433	0.064143
C22	C	1.483561	-0.372933	0.049610
C23	C	1.485013	-0.318174	-0.090455
C24	C	1.487922	-0.208672	-0.104986
C25	C	1.487912	-0.208699	0.160600
C26	C	1.485012	-0.318200	0.175133
C27	C	1.713860	0.148456	-0.019606
C28	C	1.853287	0.151541	-0.020015
C29	C	1.476126	0.346285	-0.045905
C30	C	1.479213	0.462825	-0.061389
N31	N	1.484282	0.154440	0.326250
N32	N	1.484311	0.154446	-0.367080
C33	C	1.569316	0.083733	0.412303
C34	C	1.569328	0.083733	0.565640
C35	C	1.399268	0.225156	0.546857
C36	C	1.399251	0.225150	0.393524
H37	H	0.839205	0.325096	-0.043080
H38	H	0.891713	-0.021473	0.003003
H39	H	1.489099	-0.164124	0.262811
C40	C	1.662838	0.005946	0.338302
C41	C	1.756367	-0.071834	0.432968
C42	C	1.849889	-0.149626	0.358973
C43	C	1.849881	-0.149639	0.190313
C44	C	1.756348	-0.071856	0.095638
C45	C	1.662826	0.005937	0.169633
H46	H	1.756376	-0.071828	0.557828
H47	H	1.919128	-0.207206	0.429059
H48	H	1.919112	-0.207225	0.135538
H49	H	1.756339	-0.071862	-0.029223
H50	H	1.593587	0.063517	0.099547
H51	H	1.479468	-0.527036	0.178177
C52	C	1.489517	-0.148433	-0.259052
C53	C	1.598034	-0.174606	-0.365135
C54	C	1.599625	-0.114369	-0.519204
C55	C	1.492697	-0.027959	-0.567191
C56	C	1.384171	-0.001782	-0.461106
C57	C	1.382581	-0.062019	-0.307036
H58	H	1.677196	-0.238575	-0.329614
H59	H	1.679963	-0.133747	-0.597735
H60	H	1.493874	0.016631	-0.681242
H61	H	1.305010	0.062187	-0.496626
H62	H	1.302243	-0.042641	-0.228505
H63	H	1.330000	0.282728	0.323454
H64	H	1.129393	-0.016215	0.002261
C65	C	1.305746	0.302943	0.620857
C66	C	1.305830	0.303020	0.789508
C67	C	1.212309	0.380812	0.863503
C68	C	1.118703	0.458528	0.768846
C69	C	1.118615	0.458454	0.600185
C70	C	1.212136	0.380662	0.526191
H71	H	1.375126	0.245488	0.859588
H72	H	1.212374	0.380866	0.988357
H73	H	1.049472	0.516115	0.823621
H74	H	1.049319	0.515987	0.530106
H75	H	1.212071	0.380608	0.401336
C76	C	1.479070	-0.542616	-0.339522
C77	C	1.588393	-0.538674	-0.449592
C78	C	1.586800	-0.598882	-0.587676
C79	C	1.475884	-0.663032	-0.615689
C80	C	1.366553	-0.666976	-0.505616
C81	C	1.368146	-0.606768	-0.367532
H82	H	1.670508	-0.491185	-0.428858
H83	H	1.667735	-0.595962	-0.669159
H84	H	1.474705	-0.707601	-0.717907
H85	H	1.284439	-0.714465	-0.526350
H86	H	1.287211	-0.609688	-0.286049
H87	H	1.638568	0.026157	0.635700
H88	H	1.076859	0.330370	-0.043822
H89	H	1.484755	-0.328322	-0.330024
H90	H	1.483825	-0.362799	0.289170
