data_functionalizedCrystal
_audit_creation_method	'MofGen! by Chris Wilmer'
_symmetry_space_group_name_H-M	'P1'
_symmetry_Int_Tables_number	1
_symmetry_cell_setting	triclinic
loop_
_symmetry_equiv_pos_as_xyz
  x,y,z
_cell_length_a	17.077404
_cell_length_b	17.077402
_cell_length_c	17.077396
_cell_angle_alpha	89.970216
_cell_angle_beta	89.980499
_cell_angle_gamma	90.023108
loop_
_atom_site_label
_atom_site_type_symbol
_atom_site_fract_x
_atom_site_fract_y
_atom_site_fract_z
Zn1	Zn	1.200055	-0.312503	-0.443836
Zn2	Zn	1.199962	-0.443778	-0.312567
Zn3	Zn	1.068786	-0.312531	-0.312584
Zn4	Zn	1.068754	-0.443732	-0.443790
O5	O	1.134389	-0.378136	-0.378194
O6	O	1.309889	-0.329925	-0.426434
O7	O	1.182536	-0.426399	-0.202722
O8	O	1.086252	-0.202680	-0.330021
O9	O	1.309821	-0.426372	-0.329992
O10	O	1.182694	-0.202660	-0.426451
O11	O	1.086162	-0.329972	-0.202734
O12	O	0.958935	-0.329927	-0.329976
O13	O	1.086197	-0.426293	-0.553643
O14	O	0.958912	-0.426320	-0.426373
O15	O	1.182663	-0.329880	-0.553677
O16	O	1.182505	-0.553619	-0.329948
O17	O	1.086107	-0.553585	-0.426357
C18	C	0.930441	-0.378122	-0.378172
C19	C	0.843192	-0.378135	-0.378182
C20	C	1.134314	-0.582084	-0.378163
C21	C	1.134353	-0.669334	-0.378176
C22	C	0.802210	-0.428402	-0.428295
C23	C	0.720229	-0.428404	-0.428308
C24	C	0.679232	-0.378141	-0.378202
C25	C	0.720220	-0.327869	-0.328087
C26	C	0.802199	-0.327863	-0.328079
C27	C	0.549350	-0.327884	-0.328106
C28	C	0.467365	-0.327890	-0.328112
C29	C	0.467380	-0.428424	-0.428335
C30	C	0.549359	-0.428419	-0.428327
C31	C	0.590341	-0.378147	-0.378210
C32	C	1.184598	-0.710316	-0.328029
C33	C	1.184637	-0.792296	-0.328049
C34	C	1.134425	-0.833293	-0.378212
C35	C	1.084178	-0.792305	-0.428364
C36	C	1.084144	-0.710327	-0.428348
C37	C	1.084250	-0.963175	-0.428394
C38	C	1.084283	-1.045160	-0.428410
C39	C	1.184743	-1.045145	-0.328096
C40	C	1.184709	-0.963166	-0.328079
C41	C	1.134461	-0.922184	-0.378230
C42	C	1.339134	-0.378151	-0.378216
C43	C	1.426383	-0.378157	-0.378226
C44	C	1.134437	-0.378078	-0.582938
C45	C	1.134457	-0.378054	-0.670188
C46	C	1.134487	-0.173392	-0.378243
C47	C	1.134528	-0.086142	-0.378263
C48	C	1.184689	-0.327847	-0.711197
C49	C	1.184698	-0.327821	-0.793178
C50	C	1.134479	-0.378006	-0.834148
C51	C	1.084242	-0.428214	-0.793133
C52	C	1.084229	-0.428236	-0.711154
C53	C	1.084274	-0.428167	-0.964003
C54	C	1.084288	-0.428147	-1.045988
C55	C	1.184742	-0.327752	-1.046027
C56	C	1.184730	-0.327774	-0.964048
C57	C	1.134493	-0.377984	-0.923039
C58	C	1.134387	-0.378137	-0.174246
C59	C	1.134519	-0.377941	-0.086997
H60	H	0.835584	-0.469334	-0.469094
O61	O	0.846407	-0.273656	-0.274019
H62	H	0.804128	-0.238714	-0.239171
H63	H	1.043350	-0.469073	-0.826498
O64	O	1.238770	-0.666105	-0.273933
H65	H	1.230306	-0.602214	-0.282343
H66	H	1.225551	-0.825660	-0.287214
H67	H	1.043393	-0.469010	-1.079344
O68	O	1.238918	-0.273589	-1.090255
H69	H	1.278838	-0.308714	-1.127612
H70	H	1.043298	-0.825692	-0.469211
H71	H	1.043354	-0.469041	-0.930616
O72	O	1.030041	-0.482376	-0.666917
H73	H	0.995123	-0.517270	-0.709177
O74	O	0.676106	-0.482768	-0.482275
H75	H	0.691862	-0.469500	-0.543934
H76	H	1.225591	-0.929786	-0.287228
O77	O	0.423179	-0.482763	-0.482272
H78	H	0.465460	-0.517763	-0.517060
H79	H	1.225585	-0.286983	-0.677845
O80	O	0.593580	-0.482625	-0.482372
H81	H	0.577819	-0.544219	-0.468809
O82	O	0.423126	-0.273689	-0.274076
H83	H	0.438863	-0.212092	-0.287650
O84	O	0.593557	-0.273671	-0.274045
H85	H	0.551278	-0.238729	-0.239196
O86	O	0.675994	-0.273677	-0.274031
H87	H	0.638657	-0.233791	-0.309227
O88	O	1.238880	-0.273675	-0.837412
H89	H	1.273806	-0.238791	-0.795150
H90	H	1.225660	-1.078516	-0.287263
O91	O	1.030048	-0.918969	-0.482477
H92	H	0.995129	-0.961247	-0.517353
O93	O	1.238896	-0.273652	-0.919853
H94	H	1.273827	-0.238730	-0.962140
H95	H	1.043411	-1.078538	-0.469272
H96	H	1.043230	-0.676960	-0.469183
