data_functionalizedCrystal
_audit_creation_method	'MofGen! by Chris Wilmer'
_symmetry_space_group_name_H-M	'P1'
_symmetry_Int_Tables_number	1
_symmetry_cell_setting	triclinic
loop_
_symmetry_equiv_pos_as_xyz
  x,y,z
_cell_length_a	25.639239
_cell_length_b	18.215407
_cell_length_c	18.215399
_cell_angle_alpha	89.980167
_cell_angle_beta	89.969965
_cell_angle_gamma	90.039134
loop_
_atom_site_label
_atom_site_type_symbol
_atom_site_fract_x
_atom_site_fract_y
_atom_site_fract_z
Zn1	Zn	-0.208150	1.125001	-0.416105
Zn2	Zn	-0.295586	1.124880	-0.293034
Zn3	Zn	-0.208167	1.001934	-0.293053
Zn4	Zn	-0.295557	1.001870	-0.416059
O5	O	-0.251865	1.063421	-0.354563
O6	O	-0.219754	1.227970	-0.399791
O7	O	-0.284009	1.108547	-0.190052
O8	O	-0.135000	1.018337	-0.309403
O9	O	-0.283992	1.227880	-0.309372
O10	O	-0.134987	1.108754	-0.399809
O11	O	-0.219783	1.018219	-0.190066
O12	O	-0.219754	0.898941	-0.309358
O13	O	-0.283943	1.018228	-0.519050
O14	O	-0.283959	0.898894	-0.399731
O15	O	-0.219725	1.108692	-0.519083
O16	O	-0.368747	1.108485	-0.309327
O17	O	-0.368726	1.018110	-0.399713
C18	C	-0.251856	0.872215	-0.354542
C19	C	-0.251865	0.790416	-0.354550
C20	C	-0.285349	0.602217	-0.401548
C21	C	-0.285350	0.525358	-0.401557
C22	C	-0.218391	0.525378	-0.307594
C23	C	-0.218387	0.602235	-0.307589
C24	C	-0.251869	0.640653	-0.354565
C25	C	-0.251874	0.486937	-0.354579
C26	C	-0.251876	0.403603	-0.354589
C27	C	-0.251867	0.723992	-0.354556
C28	C	-0.387708	1.063298	-0.354529
C29	C	-0.445822	1.063312	-0.354539
C30	C	-0.806183	1.110602	-0.307579
C31	C	-0.860787	1.110631	-0.307589
O32	O	-0.889023	1.150711	-0.267625
N33	N	-0.888104	1.063551	-0.354612
C34	C	-0.860813	1.016444	-0.401633
O35	O	-0.889062	0.976402	-0.441631
C36	C	-0.806210	1.016420	-0.401626
C37	C	-0.778896	1.063498	-0.354595
C38	C	-0.778869	1.157677	-0.260553
C39	C	-0.724269	1.157647	-0.260542
C40	C	-0.696982	1.110543	-0.307558
C41	C	-0.724296	1.063468	-0.354584
C42	C	-0.778920	0.969318	-0.448650
C43	C	-0.724313	0.969298	-0.448640
C44	C	-0.697000	1.016376	-0.401609
C45	C	-0.642408	1.016334	-0.401590
N46	N	-0.615092	1.063414	-0.354567
C47	C	-0.642379	1.110519	-0.307551
C48	C	-0.975484	1.016500	-0.401644
C49	C	-1.030086	1.016520	-0.401648
C50	C	-1.030057	1.110708	-0.307605
C51	C	-0.975453	1.110683	-0.307598
C52	C	-0.948167	1.063580	-0.354621
C53	C	-0.527714	1.110452	-0.307532
C54	C	-0.473108	1.110416	-0.307523
C55	C	-0.473143	1.016232	-0.401569
C56	C	-0.527743	1.016265	-0.401575
C57	C	-0.555027	1.063381	-0.354554
O58	O	-0.614138	0.976277	-0.441536
O59	O	-0.614123	1.150561	-0.267567
C60	C	-0.115492	1.063566	-0.354613
C61	C	-0.057378	1.063627	-0.354634
C62	C	-0.251829	1.063466	-0.546516
C63	C	-0.251814	1.063485	-0.628315
C64	C	-0.251874	1.255374	-0.354584
C65	C	-0.251878	1.337173	-0.354594
C66	C	-0.218344	1.110607	-0.816528
C67	C	-0.218329	1.110616	-0.893386
C68	C	-0.285202	1.016416	-0.893340
C69	C	-0.285214	1.016404	-0.816483
C70	C	-0.251786	1.063504	-0.778078
C71	C	-0.251759	1.063524	-0.931795
C72	C	-0.251742	1.063534	-1.015128
C73	C	-0.251801	1.063494	-0.694739
C74	C	-0.251863	1.063419	-0.163357
C75	C	-0.251731	1.063543	-0.081558
H76	H	-0.312613	0.494068	-0.439817
H77	H	-0.801150	0.930978	-0.486945
O78	O	-1.059492	1.161530	-0.256905
H79	H	-1.102049	1.153642	-0.264824
O80	O	-0.182281	0.483949	-0.256919
H81	H	-0.191198	0.498684	-0.199141
H82	H	-0.191123	1.148956	-0.785261
O83	O	-0.182282	0.643699	-0.256901
H84	H	-0.159009	0.604074	-0.224225
O85	O	-0.443651	1.161206	-0.256802
H86	H	-0.401097	1.153274	-0.264687
O87	O	-0.321254	0.965619	-0.934766
H88	H	-0.362292	0.978190	-0.919996
O89	O	-1.059545	0.965738	-0.452368
H90	H	-1.031391	0.932985	-0.485060
H91	H	-0.191096	1.148971	-0.924688
O92	O	-0.557138	1.161263	-0.256812
H93	H	-0.528965	1.193982	-0.224109
O94	O	-0.321280	0.965595	-0.774998
H95	H	-0.297872	0.928177	-0.739994
O96	O	-0.946054	0.965674	-0.452347
H97	H	-0.974227	0.932936	-0.485034
H98	H	-0.702033	1.195984	-0.222248
H99	H	-0.702100	0.930941	-0.486935
H100	H	-0.312611	0.633495	-0.439801
H101	H	-0.450917	0.977877	-0.439847
O102	O	-0.808296	1.208482	-0.209834
H103	H	-0.780121	1.241202	-0.177133
O104	O	-0.945994	1.161467	-0.256881
H105	H	-0.974147	1.194226	-0.224195
H106	H	-0.549983	0.977932	-0.439874
