data_functionalizedCrystal
_audit_creation_method	'MofGen! by Chris Wilmer'
_symmetry_space_group_name_H-M	'P1'
_symmetry_Int_Tables_number	1
_symmetry_cell_setting	triclinic
loop_
_symmetry_equiv_pos_as_xyz
  x,y,z
_cell_length_a	21.395362
_cell_length_b	15.297327
_cell_length_c	15.298159
_cell_angle_alpha	72.666301
_cell_angle_beta	80.347626
_cell_angle_gamma	99.725883
loop_
_atom_site_label
_atom_site_type_symbol
_atom_site_fract_x
_atom_site_fract_y
_atom_site_fract_z
Zn1	Zn	0.831329	-0.461154	0.590227
Zn2	Zn	1.331329	0.038846	1.090227
Zn3	Zn	0.831285	-0.589732	0.461614
Zn4	Zn	1.331285	-0.089732	0.961614
Zn5	Zn	0.748519	-0.434256	0.434700
Zn6	Zn	1.248519	0.065744	0.934700
Zn7	Zn	0.704603	-0.616668	0.617012
Zn8	Zn	1.204603	-0.116668	1.117012
O9	O	0.778934	-0.525453	0.525888
O10	O	1.278934	-0.025453	1.025888
O11	O	0.918996	-0.478194	0.573220
O12	O	1.418996	0.021806	1.073220
O13	O	0.838667	-0.546579	0.327920
O14	O	1.338667	-0.046579	0.827920
O15	O	0.777900	-0.307674	0.432858
O16	O	1.277900	0.192326	0.932858
O17	O	0.918964	-0.572660	0.478728
O18	O	1.418964	-0.072660	0.978728
O19	O	0.838741	-0.327436	0.547123
O20	O	1.338741	0.172564	1.047123
O21	O	0.777859	-0.432351	0.308146
O22	O	1.277859	0.067649	0.808146
O23	O	0.655020	-0.458470	0.458830
O24	O	1.155020	0.041530	0.958830
O25	O	0.703052	-0.618569	0.743583
O26	O	1.203052	-0.118569	1.243583
O27	O	0.622755	-0.592487	0.592774
O28	O	1.122755	-0.092487	1.092774
O29	O	0.796157	-0.504313	0.723904
O30	O	1.296157	-0.004313	1.223904
O31	O	0.796084	-0.723456	0.504701
O32	O	1.296084	-0.223456	1.004701
O33	O	0.703011	-0.743246	0.618872
O34	O	1.203011	-0.243246	1.118872
C35	C	0.616154	-0.525483	0.525789
C36	C	1.116154	-0.025483	1.025789
C37	C	0.546510	-0.525523	0.525772
C38	C	1.046510	-0.025523	1.025772
C39	C	0.497015	-0.595369	0.595442
C40	C	0.997015	-0.095369	1.095442
C41	C	0.431577	-0.595353	0.595479
C42	C	0.931577	-0.095353	1.095479
C43	C	0.415638	-0.525498	0.525832
C44	C	0.915638	-0.025498	1.025832
C45	C	0.465143	-0.455640	0.456157
C46	C	0.965143	0.044360	0.956157
C47	C	0.530580	-0.455652	0.456127
C48	C	1.030580	0.044348	0.956127
C49	C	0.324800	-0.503505	0.440824
C50	C	0.824800	-0.003505	0.940824
C51	C	0.259364	-0.503499	0.440854
C52	C	0.759364	-0.003499	0.940854
C53	C	0.213811	-0.525455	0.525924
C54	C	0.713811	-0.025455	1.025924
C55	C	0.233699	-0.547437	0.610972
C56	C	0.733699	-0.047437	1.110972
C57	C	0.299135	-0.547450	0.610942
C58	C	0.799135	-0.047450	1.110942
C59	C	0.344685	-0.525477	0.525857
C60	C	0.844685	-0.025477	1.025857
C61	C	0.093359	-0.595289	0.595640
C62	C	0.593359	-0.095289	1.095640
C63	C	0.027921	-0.595267	0.595678
C64	C	0.527921	-0.095267	1.095678
C65	C	0.061489	-0.455557	0.456348
C66	C	0.561489	0.044443	0.956348
C67	C	0.126926	-0.455575	0.456318
C68	C	0.626926	0.044425	0.956318
C69	C	0.142856	-0.525446	0.525963
C70	C	0.642856	-0.025446	1.025963
C71	C	0.744791	-0.767101	0.567634
C72	C	1.244791	-0.267101	1.067634
C73	C	0.730238	-0.870484	0.585524
C74	C	1.230238	-0.370484	1.085524
C75	C	0.883163	-1.120593	0.398343
C76	C	1.383163	-0.620593	0.898343
C77	C	0.896837	-1.023459	0.381530
C78	C	1.396837	-0.523459	0.881530
C79	C	0.855189	-0.985210	0.432527
C80	C	1.355189	-0.485210	0.932527
C81	C	0.799863	-1.044106	0.500340
C82	C	1.299863	-0.544106	1.000340
C83	C	0.786185	-1.141249	0.517150
C84	C	1.286185	-0.641249	1.017150
C85	C	0.758211	-1.005866	0.551334
C86	C	1.258211	-0.505866	1.051334
C87	C	0.702886	-1.064762	0.619147
C88	C	1.202886	-0.564762	1.119147
C89	C	0.689210	-1.161896	0.635954
C90	C	1.189210	-0.661896	1.135954
C91	C	0.730859	-1.200144	0.584957
C92	C	1.230859	-0.700144	1.084957
C93	C	0.771889	-0.908723	0.534524
C94	C	1.271889	-0.408723	1.034524
C95	C	0.674911	-0.929379	0.653330
C96	C	1.174911	-0.429379	1.153330
C97	C	0.661237	-1.026514	0.670144
C98	C	1.161237	-0.526514	1.170144
C99	C	0.942349	-0.525423	0.525989
C100	C	1.442349	-0.025423	1.025989
C101	C	1.011986	-0.525410	0.526031
C102	C	1.511986	-0.025410	1.026031
C103	C	0.744711	-0.567446	0.768426
C104	C	1.244711	-0.067446	1.268426
C105	C	0.730127	-0.585341	0.871781
C106	C	1.230127	-0.085341	1.371781
C107	C	0.813224	-0.282865	0.484000
C108	C	1.313224	0.217135	0.984000
C109	C	0.827836	-0.179488	0.466150
C110	C	1.327836	0.320512	0.966150
C111	C	0.882921	-0.397843	1.122141
C112	C	1.382921	0.102157	1.622141
C113	C	0.896627	-0.381032	1.025033
C114	C	1.396627	0.118968	1.525033
C115	C	0.855003	-0.432107	0.986715
C116	C	1.355003	0.067893	1.486715
C117	C	0.799671	-0.499998	1.045514
C118	C	1.299671	0.000002	1.545514
C119	C	0.785967	-0.516816	1.142632
C120	C	1.285967	-0.016816	1.642632
C121	C	0.758049	-0.551080	1.007207
C122	C	1.258049	-0.051080	1.507207
C123	C	0.702717	-0.618971	1.066006
C124	C	1.202717	-0.118971	1.566006
C125	C	0.689015	-0.635785	1.163113
C126	C	1.189015	-0.135785	1.663113
C127	C	0.730639	-0.584710	1.201431
C128	C	1.230639	-0.084710	1.701431
C129	C	0.771753	-0.534262	0.910089
C130	C	1.271753	-0.034262	1.410089
C131	C	0.674799	-0.653234	0.930581
C132	C	1.174799	-0.153234	1.430581
C133	C	0.661093	-0.670046	1.027688
C134	C	1.161093	-0.170046	1.527688
C135	C	0.813014	-0.483641	1.284297
C136	C	1.313014	0.016359	1.784297
C137	C	0.827593	-0.465737	1.180940
C138	C	1.327593	0.034263	1.680940
H139	H	-0.012380	-0.652143	0.652416
H140	H	0.487620	-0.152143	1.152416
H141	H	0.719729	-1.279239	0.598645
H142	H	1.219729	-0.779239	1.098645
H143	H	0.509980	-0.652262	0.652153
H144	H	1.009980	-0.152262	1.152153
F145	F	0.830640	-0.462010	0.847522
F146	F	1.330640	0.037990	1.347522
H147	H	0.941882	-0.975509	0.326316
H148	H	1.441882	-0.475509	0.826316
H149	H	0.644155	-1.209845	0.691161
H150	H	1.144155	-0.709845	1.191161
F151	F	0.602207	-0.742299	1.090277
F152	F	1.102207	-0.242299	1.590277
H153	H	0.048512	-0.398676	0.399644
H154	H	0.548512	0.101324	0.899644
H155	H	0.640996	-0.898238	0.694855
H156	H	1.140996	-0.398238	1.194855
H157	H	0.917064	-1.151744	0.356823
H158	H	1.417064	-0.651744	0.856823
F159	F	0.602358	-1.089206	0.742313
F160	F	1.102358	-0.589206	1.242313
H161	H	0.106330	-0.652177	0.652353
H162	H	0.606330	-0.152177	1.152353
H163	H	0.916808	-0.356270	1.153350
H164	H	1.416808	0.143730	1.653350
H165	H	0.719482	-0.598394	1.280503
H166	H	1.219482	-0.098394	1.780503
F167	F	0.869849	-0.881865	0.414831
F168	F	1.369849	-0.381865	0.914831
F169	F	0.320299	-0.570840	0.701451
F170	F	0.820299	-0.070840	1.201451
H171	H	0.167227	-0.398703	0.399582
H172	H	0.667227	0.101297	0.899582
H173	H	0.243177	-0.485606	0.371604
H174	H	0.743177	0.014394	0.871604
H175	H	0.361887	-0.485621	0.371544
H176	H	0.861887	0.014379	0.871544
H177	H	0.866166	-0.418415	0.907646
H178	H	1.366166	0.081585	1.407646
H179	H	0.643964	-0.691074	1.210987
H180	H	1.143964	-0.191074	1.710987
F181	F	0.955513	-0.308781	0.962463
F182	F	1.455513	0.191219	1.462463
F183	F	0.448179	-0.381292	0.382037
F184	F	0.948179	0.118708	0.882037
F185	F	0.583259	-0.381308	0.381972
F186	F	1.083259	0.118692	0.881972
H187	H	0.391270	-0.652230	0.652216
H188	H	0.891270	-0.152230	1.152216
F189	F	0.185223	-0.570803	0.701517
F190	F	0.685223	-0.070803	1.201517
H191	H	0.816935	-0.860778	0.479310
H192	H	1.316935	-0.360778	0.979310
F193	F	0.630499	-0.707601	0.889806
F194	F	1.130499	-0.207601	1.389806
