data_functionalizedCrystal
_audit_creation_method	'MofGen! by Chris Wilmer'
_symmetry_space_group_name_H-M	'P1'
_symmetry_Int_Tables_number	1
_symmetry_cell_setting	triclinic
loop_
_symmetry_equiv_pos_as_xyz
  x,y,z
_cell_length_a	19.805407
_cell_length_b	10.686285
_cell_length_c	10.685880
_cell_angle_alpha	90.361115
_cell_angle_beta	94.397454
_cell_angle_gamma	85.631507
loop_
_atom_site_label
_atom_site_type_symbol
_atom_site_fract_x
_atom_site_fract_y
_atom_site_fract_z
Zn1	Zn	1.085251	-0.553709	0.671139
Zn2	Zn	1.083876	-0.747446	0.445311
Zn3	Zn	0.962768	-0.537699	0.461376
Zn4	Zn	0.980033	-0.763420	0.655023
O5	O	1.027982	-0.650569	0.558212
O6	O	1.179786	-0.579424	0.641204
O7	O	1.060010	-0.706238	0.271890
O8	O	0.972365	-0.364278	0.502669
O9	O	1.178777	-0.721762	0.475289
O10	O	1.062353	-0.376040	0.656781
O11	O	0.971033	-0.552137	0.283693
O12	O	0.870340	-0.567626	0.487042
O13	O	1.001791	-0.748986	0.832713
O14	O	0.883025	-0.733462	0.629314
O15	O	1.079094	-0.594913	0.844553
O16	O	1.076752	-0.925110	0.459662
O17	O	1.000458	-0.936846	0.613737
C18	C	0.852123	-0.650541	0.558174
C19	C	0.776893	-0.650562	0.558184
C20	C	0.748170	-0.737024	0.632126
C21	C	0.677482	-0.737028	0.632144
C22	C	0.635519	-0.650574	0.558212
C23	C	0.664246	-0.564104	0.484267
C24	C	0.734932	-0.564095	0.484257
C25	C	0.379176	-0.564134	0.484306
C26	C	0.308485	-0.564152	0.484319
C27	C	0.321726	-0.737067	0.632193
C28	C	0.392412	-0.737058	0.632183
C29	C	0.421133	-0.650584	0.558244
C30	C	0.497781	-0.650580	0.558228
C31	C	0.558872	-0.650583	0.558220
C32	C	1.040349	-0.976497	0.533235
C33	C	1.045703	-1.115933	0.522591
C34	C	1.204528	-0.650597	0.558252
C35	C	1.279761	-0.650609	0.558269
C36	C	1.042522	-0.675517	0.885424
C37	C	1.048718	-0.686149	1.024863
C38	C	1.015587	-0.323370	0.583315
C39	C	1.010304	-0.183937	0.594012
C40	C	1.013535	-0.625627	0.232280
C41	C	1.007456	-0.614642	0.092869
H42	H	0.426576	-0.807462	0.692382
H43	H	0.967386	-0.545291	1.044418
O44	O	1.096594	-0.768719	1.082727
C45	C	1.140926	-0.703018	1.164032
H46	H	1.139621	-0.601235	1.132051
H47	H	1.124200	-0.706181	1.263625
C48	C	1.215312	-0.889482	1.200793
C49	C	1.213713	-0.764473	1.161507
H50	H	1.260211	-0.927392	1.199241
H51	H	1.185444	-0.933748	1.146020
H52	H	1.201371	-0.892101	1.283784
H53	H	1.227647	-0.761857	1.078512
H54	H	1.243586	-0.720207	1.216266
O55	O	0.969212	-1.126342	0.676714
C56	C	0.937389	-1.217562	0.741006
H57	H	0.936326	-1.307103	0.682562
H58	H	0.966896	-1.238654	0.835280
C59	C	0.865508	-1.057785	0.834616
C60	C	0.864197	-1.167757	0.762830
H61	H	0.820361	-1.027063	0.848084
H62	H	0.886949	-0.996328	0.791306
H63	H	0.890101	-1.075377	0.913170
H64	H	0.839612	-1.150161	0.684273
H65	H	0.842750	-1.229211	0.806128
O66	O	0.293792	-0.820890	0.704179
C67	C	0.253802	-0.755788	0.790775
H68	H	0.271708	-0.657601	0.806255
H69	H	0.198335	-0.748453	0.752342
C70	C	0.238865	-0.947811	0.897363
C71	C	0.260861	-0.827219	0.916383
H72	H	0.243216	-0.991875	0.974842
H73	H	0.265805	-0.991673	0.839019
H74	H	0.192644	-0.941682	0.865332
H75	H	0.307083	-0.833350	0.948398
H76	H	0.233929	-0.783359	0.974735
O77	O	0.649692	-0.821152	0.703986
C78	C	0.701888	-0.897446	0.769248
H79	H	0.750148	-0.897767	0.717525
H80	H	0.711913	-0.858948	0.868118
C81	C	0.620894	-1.031961	0.840373
C82	C	0.680167	-1.032364	0.776841
H83	H	0.607495	-1.115184	0.845063
H84	H	0.585728	-0.980558	0.796409
H85	H	0.629256	-0.999873	0.922758
H86	H	0.671801	-1.064437	0.694452
H87	H	0.715331	-1.083776	0.820791
O88	O	0.267818	-0.480039	0.412473
C89	C	0.308324	-0.403729	0.347188
H90	H	0.360840	-0.403375	0.398896
H91	H	0.313332	-0.442237	0.248321
C92	C	0.210365	-0.269270	0.276070
C93	C	0.274865	-0.268826	0.339584
H94	H	0.189725	-0.186057	0.271373
H95	H	0.183075	-0.320683	0.320049
H96	H	0.214548	-0.301366	0.193687
H97	H	0.270681	-0.236746	0.421970
H98	H	0.302154	-0.217404	0.295618
H99	H	0.782332	-0.807428	0.692326
H100	H	0.402551	-0.493730	0.424090
O101	O	0.623386	-0.480237	0.412487
C102	C	0.554837	-0.498761	0.428373
H103	H	0.550682	-0.598760	0.461869
H104	H	0.534940	-0.429568	0.501005
C105	C	0.517550	-0.354562	0.261226
C106	C	0.512447	-0.477386	0.302355
H107	H	0.491401	-0.341372	0.183494
H108	H	0.563733	-0.342078	0.250525
H109	H	0.500970	-0.296915	0.321763
H110	H	0.529034	-0.535031	0.241826
H111	H	0.466265	-0.489880	0.313043
H112	H	0.758317	-0.493683	0.424053
H113	H	1.080103	-1.164391	0.453287
