data_functionalizedCrystal
_audit_creation_method	'MofGen! by Chris Wilmer'
_symmetry_space_group_name_H-M	'P1'
_symmetry_Int_Tables_number	1
_symmetry_cell_setting	triclinic
loop_
_symmetry_equiv_pos_as_xyz
  x,y,z
_cell_length_a	15.995343
_cell_length_b	15.995350
_cell_length_c	10.268362
_cell_angle_alpha	89.996947
_cell_angle_beta	89.999736
_cell_angle_gamma	83.490779
loop_
_atom_site_label
_atom_site_type_symbol
_atom_site_fract_x
_atom_site_fract_y
_atom_site_fract_z
O1	O	1.110990	0.107896	-0.108163
O2	O	0.867213	0.121230	-0.108194
O3	O	0.995765	-0.007325	-0.108176
O4	O	0.982438	0.236451	-0.108180
O5	O	0.995754	-0.007330	0.108424
O6	O	0.867202	0.121225	0.108407
O7	O	1.110978	0.107891	0.108438
Cu8	Cu	0.989089	0.114558	0.128200
Cu9	Cu	0.989103	0.114564	-0.127956
O10	O	0.982427	0.236446	0.108420
C11	C	0.836013	0.120678	0.000103
C12	C	0.743062	0.119028	0.000091
C13	C	0.995209	-0.038522	0.000122
C14	C	0.993557	-0.131472	0.000114
C15	C	0.572876	0.116035	0.000108
C16	C	0.549530	0.023238	0.000110
C17	C	0.452852	0.021492	0.000609
C18	C	0.405316	0.113086	0.000124
C19	C	0.434401	0.159743	0.123567
C20	C	0.531194	0.160844	0.123663
C21	C	0.531117	0.162209	-0.122661
C22	C	0.434622	0.158783	-0.124276
C23	C	0.310618	0.111425	0.000137
C24	C	0.667574	0.117699	0.000104
C25	C	0.987625	-0.469220	0.000118
C26	C	0.896072	-0.421783	-0.000380
C27	C	0.897725	-0.325093	0.000109
C28	C	0.990567	-0.301659	0.000115
C29	C	1.035718	-0.342741	0.123808
C30	C	1.033418	-0.439377	0.123911
C31	C	1.035322	-0.439729	-0.122404
C32	C	1.035300	-0.342783	-0.124039
C33	C	0.992235	-0.206962	0.000118
C34	C	0.985960	-0.563917	0.000123
C35	C	1.142179	0.108444	0.000138
C36	C	1.235130	0.110093	0.000142
C37	C	0.982983	0.267643	0.000120
C38	C	0.984635	0.360594	0.000119
N39	N	0.989086	0.114553	0.308366
N40	N	0.989112	0.114562	-0.308121
C41	C	0.989098	0.114562	0.574036
C42	C	0.989089	0.114559	0.426198
H43	H	0.433837	-0.015031	-0.087862
H44	H	0.859638	-0.441378	0.087820
H45	H	0.577542	-0.012729	-0.088399
H46	H	1.005394	-0.460265	-0.216155
H47	H	0.578510	-0.012147	0.088501
H48	H	1.100634	-0.471627	0.129528
H49	H	1.103926	-0.328617	0.128413
H50	H	0.401665	0.225616	-0.132113
H51	H	0.545130	0.230513	-0.123852
H52	H	1.002289	-0.315532	-0.215543
H53	H	1.103005	-0.327423	-0.131502
H54	H	0.559392	0.132933	-0.216256
H55	H	1.004349	-0.314361	0.215851
H56	H	0.861985	-0.297229	0.088919
H57	H	0.402555	0.227154	0.127810
H58	H	0.414305	0.127726	0.215783
H59	H	0.434411	-0.014864	0.089617
H60	H	1.102823	-0.471491	-0.123231
H61	H	0.557975	0.128905	0.216290
H62	H	0.416069	0.124805	-0.215601
H63	H	0.862233	-0.296668	-0.088559
H64	H	0.545767	0.228894	0.128940
H65	H	0.859484	-0.440312	-0.089083
H66	H	1.000485	-0.457679	0.216369
