data_functionalizedCrystal
_audit_creation_method	'MofGen! by Chris Wilmer'
_symmetry_space_group_name_H-M	'P1'
_symmetry_Int_Tables_number	1
_symmetry_cell_setting	triclinic
loop_
_symmetry_equiv_pos_as_xyz
  x,y,z
_cell_length_a	14.044220
_cell_length_b	19.188924
_cell_length_c	13.101039
_cell_angle_alpha	93.348752
_cell_angle_beta	86.340132
_cell_angle_gamma	88.165421
loop_
_atom_site_label
_atom_site_type_symbol
_atom_site_fract_x
_atom_site_fract_y
_atom_site_fract_z
O1	O	1.262226	0.164759	-0.085114
O2	O	0.986284	0.158686	-0.085140
O3	O	1.132221	0.060581	-0.085114
O4	O	1.116289	0.262864	-0.085140
O5	O	1.121750	0.067633	0.085314
O6	O	0.975813	0.165737	0.085288
O7	O	1.251756	0.171811	0.085314
Zn8	Zn	1.112122	0.169894	0.112360
Zn9	Zn	1.125918	0.160603	-0.112186
O10	O	1.105819	0.269916	0.085288
C11	C	0.945746	0.159553	0.000071
C12	C	0.840553	0.151624	0.000062
C13	C	0.647951	0.137129	0.000084
C14	C	0.590083	0.193364	0.000081
C15	C	0.482913	0.185299	0.000093
C16	C	0.755132	0.145193	0.000072
C17	C	1.126471	0.038063	0.000101
C18	C	1.124925	-0.039542	0.000103
C19	C	1.129911	-0.079831	-0.092797
C20	C	1.128446	-0.152748	-0.092805
C21	C	1.122013	-0.185374	0.000093
C22	C	1.117021	-0.145076	0.093006
C23	C	1.118477	-0.072159	0.093011
N24	N	1.169405	-0.298844	0.069239
N25	N	1.168025	-0.368112	0.069228
C26	C	1.117624	-0.405067	0.000083
N27	N	1.068670	-0.370139	-0.069067
N28	N	1.070055	-0.300865	-0.069059
C29	C	1.120433	-0.264440	0.000097
C30	C	1.121021	-0.524422	-0.092833
C31	C	1.119550	-0.597341	-0.092837
C32	C	1.108134	-0.589667	0.092976
C33	C	1.109596	-0.516750	0.092978
C34	C	1.116044	-0.484132	0.000070
C35	C	1.292294	0.170943	0.000101
C36	C	1.397487	0.178872	0.000103
C37	C	1.111569	0.292434	0.000071
C38	C	1.113115	0.370038	0.000062
N39	N	1.102714	0.176235	0.265607
N40	N	1.135334	0.154257	-0.265433
C41	C	1.089913	0.184868	0.474647
C42	C	1.148131	0.145626	0.525533
C43	C	1.141009	0.150430	0.641851
C44	C	1.097034	0.180065	0.358320
H45	H	0.617008	0.082933	0.000096
H46	H	1.203322	0.108423	0.481741
N47	N	1.020672	0.231530	0.529577
N48	N	0.958276	0.208203	0.589476
H49	H	0.909375	0.241157	0.628282
N50	N	1.124674	-0.638495	-0.187743
N51	N	1.191926	-0.682311	-0.208455
H52	H	1.195552	-0.711376	-0.275485
N53	N	0.628911	0.261356	0.000072
N54	N	0.717178	0.267898	0.000062
H55	H	0.744606	0.315915	0.000054
N56	N	1.133563	-0.193915	-0.187704
N57	N	1.200813	-0.237734	-0.208415
H58	H	1.204429	-0.266807	-0.275438
H59	H	1.135159	-0.053278	-0.168450
H60	H	1.111780	-0.171644	0.168644
H61	H	1.114412	-0.039355	0.168664
N62	N	1.127610	-0.491110	-0.187739
N63	N	1.132055	-0.527095	-0.270684
H64	H	1.136710	-0.503571	-0.337713
N65	N	1.101549	-0.622995	0.187862
N66	N	1.100243	-0.688098	0.187847
H67	H	1.095587	-0.711640	0.254862
N68	N	1.104504	-0.475601	0.187884
N69	N	1.098757	-0.504737	0.270824
H70	H	1.095157	-0.475676	0.337857
