data_functionalizedCrystal
_audit_creation_method	'MofGen! by Chris Wilmer'
_symmetry_space_group_name_H-M	'P1'
_symmetry_Int_Tables_number	1
_symmetry_cell_setting	triclinic
loop_
_symmetry_equiv_pos_as_xyz
  x,y,z
_cell_length_a	16.625547
_cell_length_b	18.050589
_cell_length_c	16.625539
_cell_angle_alpha	90.024622
_cell_angle_beta	89.975178
_cell_angle_gamma	89.965365
loop_
_atom_site_label
_atom_site_type_symbol
_atom_site_fract_x
_atom_site_fract_y
_atom_site_fract_z
Zn1	Zn	1.232612	0.295659	-0.456021
Zn2	Zn	1.482612	0.545659	-0.206021
Zn3	Zn	1.732612	0.795659	0.043979
Zn4	Zn	1.982612	1.045659	0.293979
Zn5	Zn	1.232486	0.419857	-0.321197
Zn6	Zn	1.482486	0.669857	-0.071197
Zn7	Zn	1.732486	0.919857	0.178803
Zn8	Zn	1.982486	1.169857	0.428803
Zn9	Zn	1.097774	0.295685	-0.321192
Zn10	Zn	1.347774	0.545685	-0.071192
Zn11	Zn	1.597774	0.795685	0.178808
Zn12	Zn	1.847774	1.045685	0.428808
Zn13	Zn	1.097715	0.419812	-0.455977
Zn14	Zn	1.347715	0.669812	-0.205977
Zn15	Zn	1.597715	0.919812	0.044023
Zn16	Zn	1.847715	1.169812	0.294023
O17	O	1.165147	0.357753	-0.388597
O18	O	1.415147	0.607753	-0.138597
O19	O	1.665147	0.857753	0.111403
O20	O	1.915147	1.107753	0.361403
O21	O	1.345428	0.312142	-0.438158
O22	O	1.595428	0.562142	-0.188158
O23	O	1.845428	0.812142	0.061842
O24	O	2.095428	1.062142	0.311842
O25	O	1.214588	0.403415	-0.208364
O26	O	1.464588	0.653415	0.041636
O27	O	1.714588	0.903415	0.291636
O28	O	1.964588	1.153415	0.541636
O29	O	1.115737	0.191757	-0.339094
O30	O	1.365737	0.441757	-0.089094
O31	O	1.615737	0.691757	0.160906
O32	O	1.865737	0.941757	0.410906
O33	O	1.345335	0.403390	-0.339103
O34	O	1.595335	0.653390	-0.089103
O35	O	1.845335	0.903390	0.160897
O36	O	2.095335	1.153390	0.410897
O37	O	1.214802	0.191738	-0.438152
O38	O	1.464802	0.441738	-0.188152
O39	O	1.714802	0.691738	0.061848
O40	O	1.964802	0.941738	0.311848
O41	O	1.115616	0.312187	-0.208360
O42	O	1.365616	0.562187	0.041640
O43	O	1.615616	0.812187	0.291640
O44	O	1.865616	1.062187	0.541640
O45	O	0.984934	0.312143	-0.339051
O46	O	1.234934	0.562143	-0.089051
O47	O	1.484934	0.812143	0.160949
O48	O	1.734934	1.062143	0.410949
O49	O	1.115638	0.403313	-0.568816
O50	O	1.365638	0.653313	-0.318816
O51	O	1.615638	0.903313	-0.068816
O52	O	1.865638	1.153313	0.181184
O53	O	0.984891	0.403338	-0.438077
O54	O	1.234891	0.653338	-0.188077
O55	O	1.484891	0.903338	0.061923
O56	O	1.734891	1.153338	0.311923
O57	O	1.214746	0.312099	-0.568848
O58	O	1.464746	0.562099	-0.318848
O59	O	1.714746	0.812099	-0.068848
O60	O	1.964746	1.062099	0.181152
O61	O	1.214532	0.523776	-0.339060
O62	O	1.464532	0.773776	-0.089060
O63	O	1.714532	1.023776	0.160940
O64	O	1.964532	1.273776	0.410940
O65	O	1.115516	0.523742	-0.438082
O66	O	1.365516	0.773742	-0.188082
O67	O	1.615516	1.023742	0.061918
O68	O	1.865516	1.273742	0.311918
C69	C	0.955656	0.357739	-0.388559
C70	C	1.205656	0.607739	-0.138559
C71	C	1.455656	0.857739	0.111441
C72	C	1.705656	1.107739	0.361441
C73	C	0.866035	0.357751	-0.388562
C74	C	1.116035	0.607751	-0.138562
C75	C	1.366035	0.857751	0.111438
C76	C	1.616035	1.107751	0.361438
C77	C	0.793253	0.357752	-0.388572
C78	C	1.043253	0.607752	-0.138572
C79	C	1.293253	0.857752	0.111428
C80	C	1.543253	1.107752	0.361428
C81	C	0.701944	0.357756	-0.388592
C82	C	0.951944	0.607756	-0.138592
C83	C	1.201944	0.857756	0.111408
C84	C	1.451944	1.107756	0.361408
C85	C	0.629168	0.357763	-0.388612
C86	C	0.879168	0.607763	-0.138612
C87	C	1.129168	0.857763	0.111388
C88	C	1.379168	1.107763	0.361388
C89	C	0.537853	0.357768	-0.388632
C90	C	0.787853	0.607768	-0.138632
C91	C	1.037853	0.857768	0.111368
C92	C	1.287853	1.107768	0.361368
C93	C	1.165026	0.550706	-0.388584
C94	C	1.415026	0.800706	-0.138584
C95	C	1.665026	1.050706	0.111416
C96	C	1.915026	1.300706	0.361416
C97	C	1.165048	0.633251	-0.388606
C98	C	1.415048	0.883251	-0.138606
C99	C	1.665048	1.133251	0.111394
C100	C	1.915048	1.383251	0.361394
C101	C	1.111232	0.832711	-0.442436
C102	C	1.361232	1.082711	-0.192436
C103	C	1.611232	1.332711	0.057564
C104	C	1.861232	1.582711	0.307564
C105	C	1.091569	0.882153	-0.368859
C106	C	1.341569	1.132153	-0.118859
C107	C	1.591569	1.382153	0.131141
C108	C	1.841569	1.632153	0.381141
C109	C	1.165109	0.784382	-0.388617
C110	C	1.415109	1.034382	-0.138617
C111	C	1.665109	1.284382	0.111383
C112	C	1.915109	1.534382	0.361383
C113	C	1.184793	0.882022	-0.462203
C114	C	1.434793	1.132022	-0.212203
C115	C	1.684793	1.382022	0.037797
C116	C	1.934793	1.632022	0.287797
C117	C	1.165166	0.930367	-0.388634
C118	C	1.415166	1.180367	-0.138634
C119	C	1.665166	1.430367	0.111366
C120	C	1.915166	1.680367	0.361366
C121	C	1.145408	0.832736	-0.315001
C122	C	1.395408	1.082736	-0.065001
C123	C	1.645408	1.332736	0.184999
C124	C	1.895408	1.582736	0.434999
C125	C	1.238665	0.832601	-0.408395
C126	C	1.488665	1.082601	-0.158395
C127	C	1.738665	1.332601	0.091605
C128	C	1.988665	1.582601	0.341605
C129	C	1.219031	0.882020	-0.334767
C130	C	1.469031	1.132020	-0.084767
C131	C	1.719031	1.382020	0.165233
C132	C	1.969031	1.632020	0.415233
C133	C	1.165074	0.700283	-0.388608
C134	C	1.415074	0.950283	-0.138608
C135	C	1.665074	1.200283	0.111392
C136	C	1.915074	1.450283	0.361392
C137	C	1.165201	1.014463	-0.388635
C138	C	1.415201	1.264463	-0.138635
C139	C	1.665201	1.514463	0.111365
C140	C	1.915201	1.764463	0.361365
C141	C	1.375456	0.357768	-0.388636
C142	C	1.625456	0.607768	-0.138636
C143	C	1.875456	0.857768	0.111364
C144	C	2.125456	1.107768	0.361364
C145	C	1.465077	0.357775	-0.388652
C146	C	1.715077	0.607775	-0.138652
C147	C	1.965077	0.857775	0.111348
C148	C	2.215077	1.107775	0.361348
C149	C	1.165199	0.357698	-0.598906
C150	C	1.415199	0.607698	-0.348906
C151	C	1.665199	0.857698	-0.098906
C152	C	1.915199	1.107698	0.151094
C153	C	1.165222	0.357674	-0.688527
C154	C	1.415222	0.607674	-0.438527
C155	C	1.665222	0.857674	-0.188527
C156	C	1.915222	1.107674	0.061473
C157	C	1.165260	1.164048	-0.388628
C158	C	1.415260	1.414048	-0.138628
C159	C	1.665260	1.664048	0.111372
C160	C	1.915260	1.914048	0.361372
C161	C	1.165229	1.081502	-0.388644
C162	C	1.415229	1.331502	-0.138644
C163	C	1.665229	1.581502	0.111356
C164	C	1.915229	1.831502	0.361356
C165	C	1.165259	0.357591	-1.016703
C166	C	1.415259	0.607591	-0.766703
C167	C	1.665259	0.857591	-0.516703
C168	C	1.915259	1.107591	-0.266703
C169	C	1.165246	0.357617	-0.925394
C170	C	1.415246	0.607617	-0.675394
C171	C	1.665246	0.857617	-0.425394
C172	C	1.915246	1.107617	-0.175394
C173	C	1.165241	0.357633	-0.852618
C174	C	1.415241	0.607633	-0.602618
C175	C	1.665241	0.857633	-0.352618
C176	C	1.915241	1.107633	-0.102618
C177	C	1.165227	0.357658	-0.761304
C178	C	1.415227	0.607658	-0.511304
C179	C	1.665227	0.857658	-0.261304
C180	C	1.915227	1.107658	-0.011304
C181	C	1.165141	0.357755	-0.179106
C182	C	1.415141	0.607755	0.070894
C183	C	1.665141	0.857755	0.320894
C184	C	1.915141	1.107755	0.570894
C185	C	1.165275	0.357569	-0.089485
C186	C	1.415275	0.607569	0.160515
C187	C	1.665275	0.857569	0.410515
C188	C	1.915275	1.107569	0.660515
H189	H	1.065610	0.811059	-0.487884
H190	H	1.315610	1.061059	-0.237884
H191	H	1.565610	1.311059	0.012116
H192	H	1.815610	1.561059	0.262116
H193	H	1.264617	0.903535	-0.289209
H194	H	1.514617	1.153535	-0.039209
H195	H	1.764617	1.403535	0.210791
H196	H	2.014617	1.653535	0.460791
H197	H	1.300828	0.810821	-0.425143
H198	H	1.550828	1.060821	-0.175143
H199	H	1.800828	1.310821	0.074857
H200	H	2.050828	1.560821	0.324857
Cl201	Cl	1.119628	0.799454	-0.218904
Cl202	Cl	1.369628	1.049454	0.031096
Cl203	Cl	1.619628	1.299454	0.281096
Cl204	Cl	1.869628	1.549454	0.531096
Cl205	Cl	0.995568	0.915756	-0.343033
Cl206	Cl	1.245568	1.165756	-0.093033
Cl207	Cl	1.495568	1.415756	0.156967
Cl208	Cl	1.745568	1.665756	0.406967
Cl209	Cl	1.210462	0.915450	-0.558270
Cl210	Cl	1.460462	1.165450	-0.308270
Cl211	Cl	1.710462	1.415450	-0.058270
Cl212	Cl	1.960462	1.665450	0.191730
