data_functionalizedCrystal
_audit_creation_method	'MofGen! by Chris Wilmer'
_symmetry_space_group_name_H-M	'P1'
_symmetry_Int_Tables_number	1
_symmetry_cell_setting	triclinic
loop_
_symmetry_equiv_pos_as_xyz
  x,y,z
_cell_length_a	19.851628
_cell_length_b	14.560438
_cell_length_c	14.560438
_cell_angle_alpha	60.000905
_cell_angle_beta	90.004573
_cell_angle_gamma	59.997979
loop_
_atom_site_label
_atom_site_type_symbol
_atom_site_fract_x
_atom_site_fract_y
_atom_site_fract_z
Zr1	Zr	0.648976	1.005173	-0.120400
O2	O	0.541407	1.196793	-0.267062
O3	O	0.681952	0.813566	-0.075442
O4	O	0.681949	1.005170	-0.267043
O5	O	0.541413	1.005187	0.075679
O6	O	0.792810	1.005152	-0.267024
O7	O	0.541410	1.005189	-0.075462
O8	O	0.792816	0.662408	0.075714
O9	O	0.541407	1.347931	-0.267060
O10	O	0.778751	0.892358	-0.056252
O11	O	0.696018	0.892370	0.056529
O12	O	0.696014	1.117959	-0.169056
O13	O	0.613281	1.117970	-0.056275
Zr14	Zr	0.825793	1.005141	0.120682
Zr15	Zr	0.825788	1.005145	-0.120370
Zr16	Zr	0.648981	1.005169	0.120652
Zr17	Zr	0.648977	1.246220	-0.120395
Zr18	Zr	0.825792	0.764093	0.120677
O19	O	0.792817	1.196747	0.075724
O20	O	0.792811	1.196753	-0.267021
O21	O	0.541413	1.196788	0.075683
O22	O	0.933362	0.813520	0.267345
O23	O	0.933355	0.813526	-0.075400
O24	O	0.681958	0.813560	0.267303
O25	O	0.933356	1.005127	-0.075397
O26	O	0.792820	1.005143	0.267325
O27	O	0.681959	1.005161	0.267307
O28	O	0.933358	1.005124	0.075744
O29	O	0.681949	1.347909	-0.267036
O30	O	0.792820	0.662405	0.267319
O31	O	0.933362	0.662382	0.267342
O32	O	0.933358	0.662385	0.075738
O33	O	0.541411	1.347928	-0.075455
O34	O	0.681953	1.347906	-0.075432
O35	O	0.778755	0.892355	0.169338
O36	O	0.861488	0.892343	0.056557
O37	O	0.778751	1.117944	-0.056247
O38	O	0.696018	1.117955	0.056534
C39	C	0.737384	0.703643	0.000135
C40	C	0.737384	0.601312	0.000133
C41	C	0.780568	0.553230	-0.058737
C42	C	0.780571	0.457071	-0.058727
C43	C	0.694200	0.457088	0.059027
C44	C	0.694202	0.553239	0.059022
C45	C	0.516220	1.005192	0.000104
C46	C	0.441159	1.005204	0.000092
C47	C	0.214702	1.128182	-0.061376
C48	C	0.192340	1.066696	-0.105945
C49	C	0.303752	1.005170	0.000124
C50	C	0.192374	1.066665	0.044672
C51	C	0.171020	1.005147	0.000155
C52	C	0.282378	0.943684	-0.044507
C53	C	0.282410	0.943670	0.106169
C54	C	0.260101	0.882094	0.061627
C55	C	0.380214	1.005188	0.000104
C56	C	0.094563	1.005120	0.000173
C57	C	0.958549	1.005121	0.000178
C58	C	1.033610	1.005109	0.000190
C59	C	0.737379	1.005162	-0.301378
C60	C	0.737377	1.005164	-0.403711
C61	C	0.737385	1.306671	0.000147
C62	C	0.737385	1.409002	0.000149
C63	C	0.694190	1.122922	-0.510670
C64	C	0.694200	1.122916	-0.606819
C65	C	0.780584	0.887382	-0.489036
C66	C	0.780579	0.887389	-0.392890
C67	C	0.737390	1.005152	0.301661
C68	C	0.737392	1.005150	0.403993
C69	C	0.958549	0.703607	0.000172
C70	C	1.033610	0.601264	0.000183
C71	C	0.737390	0.703638	0.301655
C72	C	0.737391	0.601305	0.403986
C73	C	0.958554	0.703602	0.301692
C74	C	1.033617	0.601258	0.404035
C75	C	0.516215	1.306711	-0.301409
C76	C	0.441152	1.409056	-0.403753
C77	C	0.516220	1.306706	0.000110
C78	C	0.441159	1.409049	0.000100
C79	C	0.737379	1.306676	-0.301373
C80	C	0.737377	1.409008	-0.403704
C81	C	1.025671	0.553211	-0.058707
C82	C	1.096192	0.457062	-0.058720
C83	C	1.174651	0.408962	0.000165
C84	C	1.182588	0.457025	0.059056
C85	C	1.112068	0.553179	0.059062
C86	C	1.112061	0.553190	0.393226
C87	C	1.182597	0.457039	0.489379
C88	C	1.174688	0.408952	0.596341
C89	C	1.096236	0.457030	0.607147
C90	C	1.025702	0.553185	0.510995
C91	C	0.362708	1.457136	-0.392944
C92	C	0.292172	1.553316	-0.489097
C93	C	0.300081	1.601408	-0.596058
C94	C	0.378532	1.553324	-0.606865
C95	C	0.449067	1.457152	-0.510713
C96	C	0.449098	1.457112	0.058980
C97	C	0.378577	1.553288	0.058966
C98	C	0.300118	1.601391	0.000078
C99	C	0.292181	1.553324	-0.058810
C100	C	0.362701	1.457157	-0.058802
C101	C	0.780579	0.553219	0.510946
C102	C	0.780572	0.457076	0.607093
C103	C	0.694187	0.457109	0.489306
C104	C	0.694190	0.553257	0.393161
H105	H	0.196250	1.232194	-0.113459
H106	H	0.659034	1.218807	-0.693907
C107	C	1.252219	0.303186	0.000163
H108	H	1.300087	0.281418	0.043661
H109	H	1.252212	0.228177	0.031679
H110	H	1.252214	0.334717	-0.074860
C111	C	0.139904	1.136926	-0.227073
H112	H	0.123203	1.224326	-0.270685
H113	H	0.171651	1.094081	-0.259134
H114	H	0.092495	1.135724	-0.226126
C115	C	0.334642	0.873511	-0.095534
H116	H	0.382321	0.873988	-0.095270
H117	H	0.350887	0.786363	-0.052176
H118	H	0.302958	0.916917	-0.170655
C119	C	0.828065	0.757852	-0.275226
H120	H	0.821874	0.774727	-0.219516
H121	H	0.806728	0.709487	-0.266811
H122	H	0.884891	0.709437	-0.266756
H123	H	0.659041	0.417936	0.106970
H124	H	0.356226	1.418026	-0.106746
H125	H	1.246478	0.417848	0.106998
C126	C	0.535393	1.404215	0.123762
H127	H	0.530009	1.446633	0.158814
H128	H	0.564702	1.313435	0.179488
H129	H	0.564701	1.419972	0.072941
C130	C	1.120805	0.606031	0.123844
H131	H	1.067574	0.670195	0.115414
H132	H	1.150119	0.536990	0.201305
H133	H	1.150109	0.643539	0.094759
C134	C	1.120777	0.606072	0.275581
H135	H	1.177601	0.563673	0.282931
H136	H	1.095065	0.590315	0.235616
H137	H	1.095056	0.696859	0.235626
H138	H	0.659017	0.592412	0.306063
C139	C	0.939376	0.606111	-0.123492
H140	H	0.944760	0.563721	-0.158573
H141	H	0.910064	0.590355	-0.072685
H142	H	0.910071	0.696898	-0.179214
H143	H	0.385055	1.592408	0.106923
C144	C	0.535350	1.404259	-0.522617
H145	H	0.529951	1.446671	-0.600092
H146	H	0.564677	1.419994	-0.487554
H147	H	0.564650	1.313476	-0.487567
H148	H	0.659036	0.592386	0.106967
C149	C	0.939417	0.606045	0.522893
H150	H	0.898535	0.670205	0.450315
H151	H	0.933245	0.537005	0.562851
H152	H	0.933234	0.643558	0.562844
C153	C	1.268883	0.404159	0.477472
H154	H	1.263485	0.446557	0.399997
H155	H	1.298199	0.419917	0.512520
H156	H	1.298191	0.313372	0.512538
H157	H	0.815756	0.791495	-0.480239
H158	H	0.815738	0.417930	0.694182
H159	H	0.242702	1.679697	0.000080
H160	H	0.153573	1.118677	0.082335
H161	H	0.659015	0.417975	0.480507
C162	C	0.205874	1.606238	-0.123571
H163	H	0.165019	1.670382	-0.115125
H164	H	0.199670	1.643755	-0.201037
H165	H	0.199684	1.537210	-0.094482
C166	C	0.828085	0.606087	0.522852
H167	H	0.853796	0.563687	0.600327
H168	H	0.868956	0.590327	0.487804
H169	H	0.790799	0.696874	0.487788
H170	H	1.089714	0.417941	-0.106676
H171	H	1.232129	0.330656	0.674625
H172	H	0.659012	1.218822	-0.519488
H173	H	0.356253	1.417984	-0.305859
H174	H	1.089809	0.417863	0.694248
H175	H	0.228300	1.592449	-0.480276
H176	H	0.242640	1.679717	-0.674343
C177	C	0.285249	0.741464	0.131912
H178	H	0.264181	0.727121	0.192614
H179	H	0.263385	0.727594	0.085836
H180	H	0.343710	0.682911	0.160668
C181	C	0.828069	0.404190	-0.123490
H182	H	0.853780	0.446601	-0.158567
H183	H	0.868941	0.313408	-0.072667
H184	H	0.790783	0.419962	-0.179213
H185	H	0.384962	1.592493	-0.693964
C186	C	0.334847	0.873508	0.227269
H187	H	0.303424	0.917351	0.258811
H188	H	0.350710	0.786570	0.271288
H189	H	0.382755	0.873352	0.226412
H190	H	0.815731	0.592367	-0.106686
