data_functionalizedCrystal
_audit_creation_method	'MofGen! by Chris Wilmer'
_symmetry_space_group_name_H-M	'P1'
_symmetry_Int_Tables_number	1
_symmetry_cell_setting	triclinic
loop_
_symmetry_equiv_pos_as_xyz
  x,y,z
_cell_length_a	10.723024
_cell_length_b	11.026607
_cell_length_c	9.198806
_cell_angle_alpha	90.001089
_cell_angle_beta	90.003648
_cell_angle_gamma	96.526943
loop_
_atom_site_label
_atom_site_type_symbol
_atom_site_fract_x
_atom_site_fract_y
_atom_site_fract_z
O1	O	1.693992	0.170518	0.120878
O2	O	2.193992	0.670518	0.620878
O3	O	1.334363	0.186840	0.120883
O4	O	1.834363	0.686840	0.620883
O5	O	1.484372	0.001778	0.120876
O6	O	1.984372	0.501778	0.620876
O7	O	1.543983	0.355580	0.120886
O8	O	2.043983	0.855580	0.620886
O9	O	1.484357	0.001777	-0.120909
O10	O	1.984357	0.501777	0.379091
O11	O	1.334348	0.186840	-0.120902
O12	O	1.834348	0.686840	0.379098
O13	O	1.693977	0.170518	-0.120907
O14	O	2.193977	0.670518	0.379093
Cu15	Cu	1.514161	0.178679	-0.142981
Cu16	Cu	2.014161	0.678679	0.357019
Cu17	Cu	1.514179	0.178679	0.142958
Cu18	Cu	2.014179	0.678679	0.642958
O19	O	1.543968	0.355580	-0.120899
O20	O	2.043968	0.855580	0.379101
C21	C	1.287599	0.185652	-0.000009
C22	C	1.787599	0.685652	0.499991
C23	C	1.148278	0.182098	-0.000007
C24	C	1.648278	0.682098	0.499993
C25	C	1.473367	-0.043525	-0.000015
C26	C	1.973367	0.456475	0.499985
C27	C	1.440584	-0.178512	-0.000009
C28	C	1.940584	0.321488	0.499991
C29	C	1.095646	0.285649	-0.000003
C30	C	1.595646	0.785649	0.499997
C31	C	0.951650	0.281979	-0.000001
C32	C	1.451650	0.781979	0.499999
C33	C	1.531104	-0.251564	-0.000008
C34	C	2.031104	0.248436	0.499992
C35	C	1.497223	-0.391080	-0.000003
C36	C	1.997223	0.108920	0.499997
C37	C	1.740741	0.171706	-0.000011
C38	C	2.240741	0.671706	0.499989
C39	C	1.880062	0.175259	-0.000004
C40	C	2.380062	0.675259	0.499996
C41	C	1.554973	0.400883	-0.000006
C42	C	2.054973	0.900883	0.499994
C43	C	1.587756	0.535869	-0.000002
C44	C	2.087756	1.035869	0.499998
N45	N	1.514157	0.178677	-0.344095
N46	N	2.014157	0.678677	0.155905
C47	C	1.577068	0.100633	-0.416295
C48	C	2.077068	0.600633	0.083705
C49	C	1.577086	0.100628	-0.583707
C50	C	2.077086	0.600628	-0.083707
N51	N	1.514191	0.178671	0.344072
N52	N	2.014191	0.678671	0.844072
H53	H	1.157190	0.377021	-0.000009
H54	H	1.657190	0.877021	0.499991
N55	N	1.066768	0.061061	0.000001
N56	N	1.566768	0.561061	0.500001
H57	H	1.121675	-0.007540	-0.000000
H58	H	1.621675	0.492460	0.500000
H59	H	1.012014	0.054923	-0.089631
H60	H	1.512014	0.554923	0.410369
N61	N	0.891662	0.399412	0.000016
N62	N	1.391662	0.899412	0.500016
H63	H	0.797300	0.380144	0.000018
H64	H	1.297300	0.880144	0.500018
H65	H	0.918832	0.448335	-0.089616
H66	H	1.418832	0.948335	0.410384
N67	N	1.666988	-0.197609	-0.000027
N68	N	2.166988	0.302391	0.499973
H69	H	1.671930	-0.105591	-0.000038
H70	H	2.171930	0.394409	0.499962
H71	H	1.709936	-0.225644	-0.089669
H72	H	2.209936	0.274356	0.410331
N73	N	1.361332	-0.445029	0.000014
N74	N	1.861332	0.054971	0.500014
H75	H	1.356390	-0.537047	0.000018
H76	H	1.856390	-0.037047	0.500018
H77	H	1.318353	-0.417010	-0.089620
H78	H	1.818353	0.082990	0.410380
N79	N	1.723648	-0.410184	0.000008
N80	N	2.223648	0.089816	0.500008
H81	H	1.728593	-0.318166	0.000006
H82	H	2.228593	0.181834	0.500006
H83	H	1.766614	-0.438213	-0.089625
H84	H	2.266614	0.061787	0.410375
H85	H	1.630952	0.033815	-0.645796
H86	H	2.130952	0.533815	-0.145796
N87	N	1.304700	-0.232466	0.000007
N88	N	1.804700	0.267534	0.500007
H89	H	1.299758	-0.324485	0.000012
H90	H	1.799758	0.175515	0.500012
H91	H	1.261720	-0.204448	-0.089626
H92	H	1.761720	0.295552	0.410374
H93	H	1.630909	0.033813	-0.354172
H94	H	2.130909	0.533813	0.145828
N95	N	0.940047	0.057824	-0.000025
N96	N	1.440047	0.557824	0.499975
H97	H	0.872482	-0.013898	-0.000029
H98	H	1.372482	0.486102	0.499971
H99	H	0.993944	0.054452	0.089605
H100	H	1.493944	0.554452	0.589605
N101	N	1.442837	0.267191	-0.573718
N102	N	1.942837	0.767191	-0.073718
H103	H	1.502871	0.321255	-0.510554
H104	H	2.002871	0.821255	-0.010554
H105	H	1.376966	0.220269	-0.510664
H106	H	1.876966	0.720269	-0.010664
N107	N	1.442826	0.267180	-0.426380
N108	N	1.942826	0.767180	0.073620
H109	H	1.476817	0.353556	-0.399966
H110	H	1.976817	0.853556	0.100034
H111	H	1.350931	0.252546	-0.399952
H112	H	1.850931	0.752546	0.100048
