data_functionalizedCrystal
_audit_creation_method	'MofGen! by Chris Wilmer'
_symmetry_space_group_name_H-M	'P1'
_symmetry_Int_Tables_number	1
_symmetry_cell_setting	triclinic
loop_
_symmetry_equiv_pos_as_xyz
  x,y,z
_cell_length_a	9.065215
_cell_length_b	19.188930
_cell_length_c	7.540329
_cell_angle_alpha	89.991297
_cell_angle_beta	89.997574
_cell_angle_gamma	84.079739
loop_
_atom_site_label
_atom_site_type_symbol
_atom_site_fract_x
_atom_site_fract_y
_atom_site_fract_z
O1	O	1.956850	0.102360	-0.147485
O2	O	2.456850	0.602360	0.352515
O3	O	1.527273	0.110759	-0.147495
O4	O	2.027273	0.610759	0.352505
O5	O	1.754458	0.005000	-0.147455
O6	O	2.254458	0.505000	0.352545
O7	O	1.729665	0.208119	-0.147525
O8	O	2.229665	0.708119	0.352475
O9	O	1.754445	0.004999	0.147510
O10	O	2.254445	0.504999	0.647510
O11	O	1.527259	0.110757	0.147470
O12	O	2.027259	0.610757	0.647470
O13	O	1.956836	0.102358	0.147480
O14	O	2.456836	0.602358	0.647480
Cu15	Cu	1.742047	0.106558	0.174407
Cu16	Cu	2.242047	0.606558	0.674407
Cu17	Cu	1.742063	0.106559	-0.174423
Cu18	Cu	2.242063	0.606559	0.325577
O19	O	1.729651	0.208117	0.147440
O20	O	2.229651	0.708117	0.647440
C21	C	1.472308	0.109951	-0.000013
C22	C	1.972308	0.609951	0.499987
C23	C	1.308548	0.107539	-0.000016
C24	C	1.808548	0.607539	0.499984
C25	C	1.753648	-0.021018	0.000032
C26	C	2.253648	0.478982	0.500032
C27	C	1.751238	-0.098541	0.000047
C28	C	2.251238	0.401459	0.500047
C29	C	1.884543	-0.142430	0.000059
C30	C	2.384543	0.357570	0.500059
C31	C	1.882279	-0.215272	0.000031
C32	C	2.382279	0.284728	0.500031
C33	C	1.746702	-0.244221	0.000026
C34	C	2.246702	0.255779	0.500026
C35	C	1.613380	-0.200322	0.000005
C36	C	2.113380	0.299678	0.500005
C37	C	1.615648	-0.127482	0.000015
C38	C	2.115648	0.372518	0.500015
N39	N	1.643065	-0.353031	0.100406
N40	N	2.143065	0.146969	0.600406
N41	N	1.640920	-0.422226	0.100400
N42	N	2.140920	0.077774	0.600400
C43	C	1.739860	-0.463683	-0.000010
C44	C	2.239860	0.036317	0.499990
N45	N	1.841050	-0.433331	-0.100391
N46	N	2.341050	0.066669	0.399609
N47	N	1.843200	-0.364130	-0.100376
N48	N	2.343200	0.135870	0.399624
C49	C	1.744228	-0.323202	0.000013
C50	C	2.244228	0.176798	0.500013
C51	C	1.870719	-0.586555	-0.000032
C52	C	2.370719	-0.086555	0.499968
C53	C	1.868449	-0.659397	-0.000071
C54	C	2.368449	-0.159397	0.499929
C55	C	1.599546	-0.644446	-0.000079
C56	C	2.099546	-0.144446	0.499921
C57	C	1.601820	-0.571605	-0.000058
C58	C	2.101820	-0.071605	0.499942
C59	C	1.737410	-0.542664	-0.000025
C60	C	2.237410	-0.042664	0.499975
C61	C	2.011802	0.103166	-0.000006
C62	C	2.511802	0.603166	0.499994
C63	C	2.175561	0.105578	-0.000015
C64	C	2.675561	0.605578	0.499985
C65	C	1.730461	0.234135	-0.000052
C66	C	2.230461	0.734135	0.499948
C67	C	1.732871	0.311659	-0.000079
C68	C	2.232871	0.811659	0.499921
N69	N	1.742046	0.106556	0.419756
N70	N	2.242046	0.606556	0.919756
N71	N	1.742075	0.106556	-0.419771
N72	N	2.242075	0.606556	0.080229
H73	H	1.990835	-0.251013	0.000033
H74	H	2.490835	0.248987	0.500033
H75	H	1.502992	-0.223897	-0.000003
H76	H	2.002992	0.276103	0.499997
N77	N	1.453307	-0.675653	-0.000064
N78	N	1.953307	-0.175653	0.499936
H79	H	1.394925	-0.659699	-0.109404
H80	H	1.894925	-0.159699	0.390596
H81	H	1.472207	-0.728452	-0.000001
H82	H	1.972207	-0.228452	0.499999
N83	N	1.471864	-0.080139	0.000002
N84	N	1.971864	0.419861	0.500002
H85	H	1.385629	-0.109528	-0.000012
H86	H	1.885629	0.390472	0.499988
H87	H	1.466942	-0.049603	0.109357
H88	H	1.966942	0.450397	0.609357
H89	H	1.981125	-0.562990	-0.000014
H90	H	2.481125	-0.062990	0.499986
H91	H	1.493268	-0.535870	-0.000057
H92	H	1.993268	-0.035870	0.499943
N93	N	2.012231	-0.706741	-0.000057
N94	N	2.512231	-0.206741	0.499943
H95	H	2.071423	-0.697322	-0.109385
H96	H	2.571423	-0.197322	0.390615
H97	H	2.071268	-0.697321	0.109375
H98	H	2.571268	-0.197321	0.609375
N99	N	2.030780	-0.111215	0.000090
N100	N	2.530780	0.388785	0.500090
H101	H	2.114885	-0.150076	0.000092
H102	H	2.614885	0.349924	0.500092
H103	H	2.037590	-0.081311	-0.109253
H104	H	2.537590	0.418689	0.390747
