data_functionalizedCrystal
_audit_creation_method	'MofGen! by Chris Wilmer'
_symmetry_space_group_name_H-M	'P1'
_symmetry_Int_Tables_number	1
_symmetry_cell_setting	triclinic
loop_
_symmetry_equiv_pos_as_xyz
  x,y,z
_cell_length_a	15.995343
_cell_length_b	11.792241
_cell_length_c	10.868271
_cell_angle_alpha	90.005281
_cell_angle_beta	90.000003
_cell_angle_gamma	96.158700
loop_
_atom_site_label
_atom_site_type_symbol
_atom_site_fract_x
_atom_site_fract_y
_atom_site_fract_z
O1	O	1.111653	-0.146254	-0.102199
O2	O	1.611653	0.353746	0.397801
O3	O	0.867959	-0.164329	-0.102229
O4	O	1.367959	0.335671	0.397771
O5	O	0.995720	0.009929	-0.102205
O6	O	1.495720	0.509929	0.397795
O7	O	0.983892	-0.320511	-0.102223
O8	O	1.483892	0.179489	0.397777
O9	O	0.995709	0.009935	0.102440
O10	O	1.495709	0.509935	0.602440
O11	O	0.867949	-0.164322	0.102416
O12	O	1.367949	0.335678	0.602416
O13	O	1.111643	-0.146247	0.102445
O14	O	1.611643	0.353753	0.602445
Zn15	Zn	0.989794	-0.155284	0.134922
Zn16	Zn	1.489794	0.344716	0.634922
Zn17	Zn	0.989808	-0.155292	-0.134706
Zn18	Zn	1.489808	0.344708	0.365294
O19	O	0.983882	-0.320505	0.102421
O20	O	1.483882	0.179495	0.602421
C21	C	0.836756	-0.163580	0.000090
C22	C	1.336756	0.336420	0.500090
C23	C	0.743795	-0.161344	0.000079
C24	C	1.243795	0.338656	0.500079
C25	C	0.573590	-0.157286	0.000095
C26	C	1.073590	0.342714	0.500095
C27	C	0.549673	-0.031499	0.000102
C28	C	1.049673	0.468501	0.500102
C29	C	0.452985	-0.029133	0.000574
C30	C	0.952985	0.470867	0.500574
C31	C	0.406012	-0.153290	0.000110
C32	C	0.906012	0.346710	0.500110
C33	C	0.435385	-0.216534	0.116737
C34	C	0.935385	0.283466	0.616737
C35	C	0.532184	-0.218025	0.116827
C36	C	1.032184	0.281975	0.616827
C37	C	0.532115	-0.219875	-0.115900
C38	C	1.032115	0.280125	0.384100
C39	C	0.435599	-0.215231	-0.117426
C40	C	0.935599	0.284769	0.382574
C41	C	0.311303	-0.151038	0.000123
C42	C	0.811303	0.348962	0.500123
C43	C	0.668298	-0.159542	0.000091
C44	C	1.168298	0.340458	0.500091
C45	C	0.994972	0.052217	0.000117
C46	C	1.494972	0.552217	0.500117
C47	C	0.992748	0.178212	0.000116
C48	C	1.492748	0.678212	0.500116
C49	C	1.142846	-0.146996	0.000124
C50	C	1.642846	0.353004	0.500124
C51	C	1.235807	-0.149232	0.000127
C52	C	1.735807	0.350768	0.500127
C53	C	0.984630	-0.362793	0.000097
C54	C	1.484630	0.137207	0.500097
C55	C	0.986854	-0.488788	0.000090
C56	C	1.486854	0.011212	0.500090
N57	N	0.989791	-0.155277	0.318936
N58	N	1.489791	0.344723	0.818936
C59	C	0.988659	0.408890	0.000095
C60	C	1.488659	0.908890	0.500095
C61	C	0.990931	0.280524	0.000106
C62	C	1.490931	0.780524	0.500106
N63	N	0.989818	-0.155290	-0.318720
N64	N	1.489818	0.344710	0.181280
C65	C	0.989803	-0.155290	0.569943
C66	C	1.489803	0.344710	1.069943
C67	C	0.989794	-0.155286	0.430265
C68	C	1.489794	0.344714	0.930265
H69	H	0.578436	0.016466	0.083617
H70	H	1.078436	0.516466	0.583617
H71	H	0.546548	-0.312462	-0.117030
H72	H	1.046548	0.187538	0.382970
H73	H	0.434320	0.020148	0.084671
H74	H	0.934320	0.520148	0.584671
O75	O	0.393754	-0.337572	0.122067
O76	O	0.893754	0.162428	0.622067
H77	H	0.356486	-0.349915	0.208087
H78	H	0.856486	0.150085	0.708087
O79	O	0.567401	-0.160684	0.232754
O80	O	1.067401	0.339316	0.732754
H81	H	0.612348	-0.085842	0.208014
H82	H	1.112348	0.414158	0.708014
H83	H	0.416837	-0.169175	-0.203707
H84	H	0.916837	0.330825	0.296293
O85	O	0.552055	-0.340205	0.123422
O86	O	1.052055	0.159795	0.623422
H87	H	0.492546	-0.397964	0.126543
H88	H	0.992546	0.102036	0.626543
O89	O	0.427496	0.036447	-0.110142
O90	O	0.927496	0.536447	0.389858
H91	H	0.358255	0.038205	-0.109919
H92	H	0.858255	0.538205	0.390081
O93	O	0.586530	0.033119	-0.110613
O94	O	1.086530	0.533119	0.389387
H95	H	0.622287	-0.023724	-0.166834
H96	H	1.122287	0.476276	0.333166
H97	H	0.415091	-0.173135	0.203864
H98	H	0.915091	0.326865	0.703864
H99	H	0.560209	-0.180192	-0.204327
H100	H	1.060209	0.319808	0.295673
O101	O	0.392520	-0.335251	-0.127227
O102	O	0.892520	0.164749	0.372773
H103	H	0.349160	-0.352708	-0.048120
H104	H	0.849160	0.147292	0.451880
