data_functionalizedCrystal
_audit_creation_method	'MofGen! by Chris Wilmer'
_symmetry_space_group_name_H-M	'P1'
_symmetry_Int_Tables_number	1
_symmetry_cell_setting	triclinic
loop_
_symmetry_equiv_pos_as_xyz
  x,y,z
_cell_length_a	12.594517
_cell_length_b	12.594516
_cell_length_c	19.805399
_cell_angle_alpha	89.979203
_cell_angle_beta	89.981060
_cell_angle_gamma	90.015853
loop_
_atom_site_label
_atom_site_type_symbol
_atom_site_fract_x
_atom_site_fract_y
_atom_site_fract_z
Zn1	Zn	1.627242	-0.423772	-0.382740
Zn2	Zn	2.127242	0.076228	0.117260
Zn3	Zn	1.627140	-0.601766	-0.269565
Zn4	Zn	2.127140	-0.101766	0.230435
Zn5	Zn	1.449253	-0.423801	-0.269566
Zn6	Zn	1.949253	0.076199	0.230434
Zn7	Zn	1.449228	-0.601709	-0.382713
Zn8	Zn	1.949228	-0.101709	0.117287
O9	O	1.538216	-0.512762	-0.326146
O10	O	2.038216	-0.012762	0.173854
O11	O	1.776174	-0.447396	-0.367738
O12	O	2.276174	0.052604	0.132262
O13	O	1.603511	-0.578194	-0.174849
O14	O	2.103511	-0.078194	0.325151
O15	O	1.472917	-0.274852	-0.284590
O16	O	1.972917	0.225148	0.215410
O17	O	1.776099	-0.578167	-0.284589
O18	O	2.276099	-0.078167	0.215411
O19	O	1.603684	-0.274830	-0.367739
O20	O	2.103684	0.225170	0.132261
O21	O	1.472818	-0.447445	-0.174849
O22	O	1.972818	0.052555	0.325151
O23	O	1.300304	-0.447389	-0.284564
O24	O	1.800304	0.052611	0.215436
O25	O	1.472874	-0.578069	-0.477433
O26	O	1.972874	-0.078069	0.022567
O27	O	1.300286	-0.578097	-0.367693
O28	O	1.800286	-0.078097	0.132307
O29	O	1.603660	-0.447340	-0.477453
O30	O	2.103660	0.052660	0.022547
O31	O	1.603487	-0.750704	-0.284563
O32	O	2.103487	-0.250704	0.215437
O33	O	1.472775	-0.750662	-0.367692
O34	O	1.972775	-0.250662	0.132308
C35	C	1.261675	-0.512741	-0.326126
C36	C	1.761675	-0.012741	0.173874
C37	C	1.143369	-0.512757	-0.326134
C38	C	1.643369	-0.012757	0.173866
C39	C	1.074095	-0.441568	-0.281006
C40	C	1.574095	0.058432	0.218994
C41	C	1.003286	-0.538654	-0.264360
C42	C	1.503286	-0.038654	0.235640
C43	C	1.003380	-0.415719	-0.342791
C44	C	1.503380	0.084281	0.157209
C45	C	1.074118	-0.609894	-0.309455
C46	C	1.574118	-0.109894	0.190545
C47	C	1.074219	-0.486893	-0.387915
C48	C	1.574219	0.013107	0.112085
C49	C	1.003441	-0.584046	-0.371293
C50	C	1.503441	-0.084046	0.128707
C51	C	1.538146	-0.789303	-0.326140
C52	C	2.038146	-0.289303	0.173860
C53	C	1.538214	-0.907608	-0.326159
C54	C	2.038214	-0.407608	0.173841
C55	C	1.467113	-0.976877	-0.371342
C56	C	1.967113	-0.476877	0.128658
C57	C	1.441183	-1.047734	-0.309580
C58	C	1.941183	-0.547734	0.190420
C59	C	1.564240	-1.047551	-0.387932
C60	C	2.064240	-0.547551	0.112068
C61	C	1.512233	-0.976906	-0.264365
C62	C	2.012233	-0.476906	0.235635
C63	C	1.635334	-0.976718	-0.342758
C64	C	2.135334	-0.476718	0.157242
C65	C	1.609442	-1.047542	-0.280954
C66	C	2.109442	-0.547542	0.219046
C67	C	1.815837	-0.512784	-0.326167
C68	C	2.315837	-0.012784	0.173833
C69	C	1.934142	-0.512794	-0.326175
C70	C	2.434142	-0.012794	0.173825
C71	C	1.538275	-0.512695	-0.502689
C72	C	2.038275	-0.012695	-0.002689
C73	C	1.538301	-0.512666	-0.577921
C74	C	2.038301	-0.012666	-0.077921
C75	C	1.538315	-0.235141	-0.326168
C76	C	2.038315	0.264859	0.173832
C77	C	1.538357	-0.116836	-0.326177
C78	C	2.038357	0.383164	0.173823
C79	C	1.606403	-0.444592	-0.613277
C80	C	2.106403	0.055408	-0.113277
C81	C	1.606414	-0.444562	-0.683965
C82	C	2.106414	0.055438	-0.183965
C83	C	1.538327	-0.512611	-0.719297
C84	C	2.038327	-0.012611	-0.219297
C85	C	1.470218	-0.580688	-0.683936
C86	C	1.970218	-0.080688	-0.183936
C87	C	1.470203	-0.580713	-0.613249
C88	C	1.970203	-0.080713	-0.113249
C89	C	1.470278	-0.580589	-0.969010
C90	C	1.970278	-0.080589	-0.469010
C91	C	1.470301	-0.580561	-1.039702
C92	C	1.970301	-0.080561	-0.539702
C93	C	1.606489	-0.444438	-1.039726
C94	C	2.106489	0.055562	-0.539726
C95	C	1.606474	-0.444462	-0.969038
C96	C	2.106474	0.055538	-0.469038
C97	C	1.538361	-0.512535	-0.933684
C98	C	2.038361	-0.012535	-0.433684
C99	C	1.538348	-0.512566	-0.857036
C100	C	2.038348	-0.012566	-0.357036
C101	C	1.538344	-0.512586	-0.795944
C102	C	2.038344	-0.012586	-0.295944
C103	C	1.538218	-0.512752	-0.150290
C104	C	2.038218	-0.012752	0.349710
C105	C	1.538398	-0.512481	-0.075059
C106	C	2.038398	-0.012481	0.424941
H107	H	1.105400	-0.464964	-0.440129
H108	H	1.605400	0.035036	0.059871
H109	H	0.972613	-0.644334	-0.409473
H110	H	1.472613	-0.144334	0.090527
H111	H	1.414852	-0.635977	-1.068467
H112	H	1.914852	-0.135977	-0.568467
H113	H	1.661872	-0.389131	-0.712748
H114	H	2.161872	0.110869	-0.212748
C115	C	1.681370	-0.369599	-0.930178
C116	C	2.181370	0.130401	-0.430178
N117	N	1.737778	-0.313205	-0.900908
N118	N	2.237778	0.186795	-0.400908
C119	C	1.395349	-0.655467	-0.930129
C120	C	1.895349	-0.155467	-0.430129
N121	N	1.338906	-0.711868	-0.900842
N122	N	1.838906	-0.211868	-0.400842
H123	H	1.669631	-1.078374	-0.242708
H124	H	2.169631	-0.578374	0.257292
H125	H	1.406878	-0.945848	-0.409495
H126	H	1.906878	-0.445848	0.090505
H127	H	0.972253	-0.333650	-0.356840
H128	H	1.472253	0.166350	0.143160
H129	H	1.661946	-0.389006	-1.068520
H130	H	2.161946	0.110994	-0.568520
C131	C	1.330310	-1.089875	-0.290617
C132	C	1.830310	-0.589875	0.209383
N133	N	1.246797	-1.121612	-0.276339
N134	N	1.746797	-0.621612	0.223661
C135	C	1.681303	-0.369731	-0.574418
C136	C	2.181303	0.130269	-0.074418
N137	N	1.737717	-0.313338	-0.545152
N138	N	2.237717	0.186662	-0.045152
H139	H	1.414777	-0.636091	-0.712709
H140	H	1.914777	-0.136091	-0.212709
C141	C	1.482439	-0.935161	-0.193781
C142	C	1.982439	-0.435161	0.306219
N143	N	1.459993	-0.903716	-0.140619
N144	N	1.959993	-0.403716	0.359381
C145	C	1.395287	-0.655601	-0.574358
C146	C	1.895287	-0.155601	-0.074358
N147	N	1.338856	-0.712008	-0.545067
N148	N	1.838856	-0.212008	-0.045067
H149	H	1.105119	-0.381425	-0.242796
H150	H	1.605119	0.118575	0.257204
C151	C	0.961186	-0.568235	-0.193802
C152	C	1.461186	-0.068235	0.306198
N153	N	0.929479	-0.590506	-0.140656
N154	N	1.429479	-0.090506	0.359344
H155	H	1.717382	-0.945504	-0.356813
H156	H	2.217382	-0.445504	0.143187
H157	H	1.105060	-0.691998	-0.295326
H158	H	1.605060	-0.191998	0.204674
C159	C	1.593902	-1.089473	-0.458496
C160	C	2.093902	-0.589473	0.041504
N161	N	1.616236	-1.121045	-0.511647
N162	N	2.116236	-0.621045	-0.011647
