data_functionalizedCrystal
_audit_creation_method	'MofGen! by Chris Wilmer'
_symmetry_space_group_name_H-M	'P1'
_symmetry_Int_Tables_number	1
_symmetry_cell_setting	triclinic
loop_
_symmetry_equiv_pos_as_xyz
  x,y,z
_cell_length_a	17.699083
_cell_length_b	18.366186
_cell_length_c	19.288865
_cell_angle_alpha	90.012794
_cell_angle_beta	96.790535
_cell_angle_gamma	90.001636
loop_
_atom_site_label
_atom_site_type_symbol
_atom_site_fract_x
_atom_site_fract_y
_atom_site_fract_z
O1	O	-1.003946	0.060546	0.087837
O2	O	-0.503946	0.560546	0.587837
O3	O	-0.783552	0.060551	0.099265
O4	O	-0.283552	0.560551	0.599265
O5	O	-0.900117	0.060534	-0.007572
O6	O	-0.400117	0.560534	0.492428
O7	O	-0.887381	0.060563	0.194674
O8	O	-0.387381	0.560563	0.694674
O9	O	-0.900120	-0.060566	-0.007582
O10	O	-0.400120	0.439434	0.492418
O11	O	-0.783555	-0.060548	0.099255
O12	O	-0.283555	0.439452	0.599255
O13	O	-1.003949	-0.060554	0.087827
O14	O	-0.503949	0.439446	0.587827
Zn15	Zn	-0.893752	-0.079778	0.093539
Zn16	Zn	-0.393752	0.420222	0.593539
Zn17	Zn	-0.893749	0.079775	0.093553
Zn18	Zn	-0.393749	0.579775	0.593553
O19	O	-0.887384	-0.060536	0.194664
O20	O	-0.387384	0.439464	0.694664
C21	C	-0.755357	0.000002	0.098851
C22	C	-0.255357	0.500002	0.598851
C23	C	-0.671340	0.000003	0.097623
C24	C	-0.171340	0.500003	0.597623
N25	N	-0.893747	0.188667	0.093557
N26	N	-0.393747	0.688667	0.593557
C27	C	-0.899709	-0.000018	-0.033454
C28	C	-0.399709	0.499982	0.466546
C29	C	-0.898479	-0.000024	-0.110559
C30	C	-0.398479	0.499976	0.389441
C31	C	-0.631875	-0.066009	0.097038
C32	C	-0.131875	0.433991	0.597038
C33	C	-0.552935	-0.066010	0.095873
C34	C	-0.052935	0.433990	0.595873
C35	C	-0.513460	0.000002	0.095297
C36	C	-0.013460	0.500002	0.595297
C37	C	-0.552930	0.066020	0.095880
C38	C	-0.052930	0.566020	0.595880
C39	C	-0.631870	0.066020	0.097040
C40	C	-0.131870	0.566020	0.597040
C41	C	-0.234575	0.066021	0.091200
C42	C	0.265425	0.566021	0.591200
C43	C	-0.155629	0.066016	0.090042
C44	C	0.344371	0.566016	0.590042
C45	C	-0.155639	-0.066008	0.090033
C46	C	0.344361	0.433992	0.590033
C47	C	-0.234579	-0.066008	0.091193
C48	C	0.265421	0.433992	0.591193
C49	C	-0.274043	0.000009	0.091772
C50	C	0.225957	0.500009	0.591772
C51	C	-0.359640	0.000009	0.093034
C52	C	0.140360	0.500009	0.593034
C53	C	-0.427864	0.000003	0.094040
C54	C	0.072136	0.500003	0.594040
C55	C	-0.032145	-0.000002	0.088237
C56	C	0.467855	0.499998	0.588237
C57	C	-0.116163	0.000003	0.089452
C58	C	0.383837	0.500003	0.589452
N59	N	-0.893760	-0.188669	0.093529
N60	N	-0.393760	0.311331	0.593529
C61	C	-0.945454	0.226759	0.046342
C62	C	-0.445454	0.726759	0.546342
C63	C	-0.945460	0.302987	0.046340
C64	C	-0.445460	0.802987	0.546340
C65	C	-0.893747	0.341119	0.093547
C66	C	-0.393747	0.841119	0.593547
C67	C	-0.842036	0.303017	0.140772
C68	C	-0.342036	0.803017	0.640772
C69	C	-0.842036	0.226791	0.140776
C70	C	-0.342036	0.726791	0.640776
C71	C	-0.824785	0.461889	0.102611
C72	C	-0.324785	0.961889	0.602611
C73	C	-0.824785	0.538114	0.102601
C74	C	-0.324785	1.038114	0.602601
C75	C	-0.893747	0.576227	0.093537
C76	C	-0.393747	1.076227	0.593537
C77	C	-0.962714	0.538106	0.084467
C78	C	-0.462714	1.038106	0.584467
C79	C	-0.962714	0.461879	0.084472
C80	C	-0.462714	0.961879	0.584472
C81	C	-0.893742	0.423774	0.093548
C82	C	-0.393742	0.923774	0.593548
C83	C	-0.945466	0.696975	0.046318
C84	C	-0.445466	1.196975	0.546318
C85	C	-0.945473	0.773204	0.046321
C86	C	-0.445473	1.273204	0.546321
C87	C	-0.842043	0.773232	0.140749
C88	C	-0.342043	1.273232	0.640749
C89	C	-0.842041	0.697005	0.140749
C90	C	-0.342041	1.197005	0.640749
C91	C	-0.893752	0.658880	0.093529
C92	C	-0.393752	1.158880	0.593529
C93	C	-0.966874	-0.000030	-0.155174
C94	C	-0.466874	0.499970	0.344826
C95	C	-0.965718	-0.000018	-0.227623
C96	C	-0.465718	0.499982	0.272377
C97	C	-0.896163	-0.000016	-0.255452
C98	C	-0.396163	0.499984	0.244548
C99	C	-0.827759	-0.000007	-0.210827
C100	C	-0.327759	0.499993	0.289173
C101	C	-0.828917	-0.000011	-0.138380
C102	C	-0.328917	0.499989	0.361620
C103	C	-0.841486	-0.042433	-0.363808
C104	C	-0.341486	0.457567	0.136192
C105	C	-0.840331	-0.042433	-0.436254
C106	C	-0.340331	0.457567	0.063746
C107	C	-0.892590	0.000000	-0.478902
C108	C	-0.392590	0.500000	0.021098
C109	C	-0.946016	0.042425	-0.449097
C110	C	-0.446016	0.542425	0.050903
C111	C	-0.947174	0.042421	-0.376651
C112	C	-0.447174	0.542421	0.123349
C113	C	-0.894900	-0.000011	-0.334008
C114	C	-0.394900	0.499989	0.165992
C115	C	-0.959737	0.000009	-0.602075
C116	C	-0.459737	0.500009	-0.102075
C117	C	-0.958578	0.000025	-0.674525
C118	C	-0.458578	0.500025	-0.174525
C119	C	-0.820616	0.000029	-0.657727
C120	C	-0.320616	0.500029	-0.157727
C121	C	-0.821777	0.000020	-0.585280
C122	C	-0.321777	0.500020	-0.085280
C123	C	-0.891339	0.000007	-0.557458
C124	C	-0.391339	0.500007	-0.057458
C125	C	-0.887792	0.000017	0.220546
C126	C	-0.387792	0.500017	0.720546
C127	C	-0.889022	0.000028	0.297651
C128	C	-0.389022	0.500028	0.797651
H129	H	-0.520808	-0.119763	0.095386
H130	H	-0.020808	0.380237	0.595386
H131	H	-1.014276	0.000025	-0.710851
H132	H	-0.514276	0.500025	-0.210851
O133	O	-1.037105	0.579199	0.074696
O134	O	-0.537105	1.079199	0.574696
H135	H	-1.025522	0.638608	0.076226
H136	H	-0.525522	1.138608	0.576226
H137	H	-0.990674	0.076966	-0.352387
H138	H	-0.490674	0.576966	0.147613
O139	O	-0.786258	0.344151	0.191680
O140	O	-0.286258	0.844151	0.691680
H141	H	-0.795601	0.329550	0.245849
H142	H	-0.295601	0.829550	0.745849
H143	H	-0.123498	-0.119762	0.089559
H144	H	0.376502	0.380238	0.589559
O145	O	-0.277146	-0.137211	0.091823
O146	O	0.222854	0.362789	0.591823
H147	H	-0.320029	-0.140381	0.045033
H148	H	0.179971	0.359619	0.545033
O149	O	-1.001243	0.814291	-0.004612
O150	O	-0.501243	1.314291	0.495388
H151	H	-1.037868	0.849023	0.024646
H152	H	-0.537868	1.349023	0.524646
O153	O	-0.786279	0.185698	0.191716
O154	O	-0.286279	0.685698	0.691716
H155	H	-0.750323	0.225016	0.224548
H156	H	-0.250323	0.725016	0.724548
O157	O	-0.786274	0.655904	0.191670
O158	O	-0.286274	1.155904	0.691670
H159	H	-0.817954	0.621192	0.225452
H160	H	-0.317954	1.121192	0.725452
O161	O	-1.041898	-0.000024	-0.125165
O162	O	-0.541898	0.499976	0.374835
H163	H	-1.089264	-0.000015	-0.168365
H164	H	-0.589264	0.499985	0.331635
H165	H	-0.771127	-0.000003	-0.233491
H166	H	-0.271127	0.499997	0.266509
O167	O	-0.113050	0.137217	0.089397
O168	O	0.386950	0.637217	0.589397
H169	H	-0.153756	0.183124	0.089981
H170	H	0.346244	0.683124	0.589981
O171	O	-0.755145	-0.000018	-0.090252
O172	O	-0.255145	0.499982	0.409748
H173	H	-0.706582	-0.000020	-0.121771
H174	H	-0.206582	0.499980	0.378229
H175	H	-0.520784	0.119768	0.095406
H176	H	-0.020784	0.619768	0.595406
O177	O	-0.674450	-0.137208	0.097668
O178	O	-0.174450	0.362792	0.597668
H179	H	-0.633743	-0.183110	0.097062
H180	H	-0.133743	0.316890	0.597062
H181	H	-0.766082	0.000020	-0.548952
H182	H	-0.266082	0.500020	-0.048952
H183	H	-0.664002	0.119773	0.097517
H184	H	-0.164002	0.619773	0.597517
O185	O	-0.750404	0.579230	0.112385
O186	O	-0.250404	1.079230	0.612385
H187	H	-0.702451	0.539923	0.118704
H188	H	-0.202451	1.039923	0.618704
O189	O	-0.277129	0.137224	0.091831
O190	O	0.222871	0.637224	0.591831
H191	H	-0.338654	0.126140	0.092726
H192	H	0.161346	0.626140	0.592726
H193	H	-1.021416	-0.000019	-0.263956
H194	H	-0.521416	0.499981	0.236044
O195	O	-1.001246	0.655846	-0.004598
O196	O	-0.501246	1.155846	0.495402
H197	H	-1.037213	0.695144	-0.037423
H198	H	-0.537213	1.195144	0.462577
H199	H	-0.799939	0.804279	0.179189
H200	H	-0.299939	1.304279	0.679189
O201	O	-1.037092	0.420759	0.074706
O202	O	-0.537092	0.920759	0.574706
H203	H	-1.085050	0.460061	0.068408
H204	H	-0.585050	0.960061	0.568408
H205	H	-0.988570	0.076979	-0.483821
H206	H	-0.488570	0.576979	0.016179
O207	O	-1.001241	0.185638	-0.004570
O208	O	-0.501241	0.685638	0.495430
H209	H	-1.037205	0.224938	-0.037395
H210	H	-0.537205	0.724938	0.462605
H211	H	-0.763983	0.000034	-0.680385
H212	H	-0.263983	0.500034	-0.180385
H213	H	-0.987568	0.334008	0.007891
H214	H	-0.487568	0.834008	0.507891
H215	H	-0.768624	0.430864	0.109996
H216	H	-0.268624	0.930864	0.609996
H217	H	-1.016378	0.000001	-0.579422
H218	H	-0.516378	0.500001	-0.079422
O219	O	-0.782713	-0.088190	-0.468400
O220	O	-0.282713	0.411810	0.031600
H221	H	-0.746559	-0.117687	-0.426574
H222	H	-0.246559	0.382313	0.073426
O223	O	-0.785121	-0.088207	-0.317810
O224	O	-0.285121	0.411793	0.182190
H225	H	-0.747787	-0.117716	-0.350705
H226	H	-0.247787	0.382284	0.149295
