data_functionalizedCrystal
_audit_creation_method	'MofGen! by Chris Wilmer'
_symmetry_space_group_name_H-M	'P1'
_symmetry_Int_Tables_number	1
_symmetry_cell_setting	triclinic
loop_
_symmetry_equiv_pos_as_xyz
  x,y,z
_cell_length_a	12.837943
_cell_length_b	10.268362
_cell_length_c	12.837942
_cell_angle_alpha	89.999312
_cell_angle_beta	85.171060
_cell_angle_gamma	90.003756
loop_
_atom_site_label
_atom_site_type_symbol
_atom_site_fract_x
_atom_site_fract_y
_atom_site_fract_z
O1	O	1.402336	0.108276	-0.272135
O2	O	1.735669	0.441609	0.061198
O3	O	2.069003	0.774943	0.394531
O4	O	1.099203	0.108284	-0.258692
O5	O	1.432536	0.441617	0.074641
O6	O	1.765869	0.774950	0.407975
O7	O	1.244048	0.108272	-0.113847
O8	O	1.577381	0.441605	0.219487
O9	O	1.910714	0.774939	0.552820
O10	O	1.257491	0.108288	-0.416980
O11	O	1.590824	0.441621	-0.083647
O12	O	1.924158	0.774954	0.249686
O13	O	1.244033	-0.108329	-0.113851
O14	O	1.577366	0.225005	0.219483
O15	O	1.910699	0.558338	0.552816
O16	O	1.099188	-0.108317	-0.258696
O17	O	1.432521	0.225016	0.074637
O18	O	1.765854	0.558350	0.407971
O19	O	1.402321	-0.108325	-0.272139
O20	O	1.735654	0.225009	0.061194
O21	O	2.068988	0.558342	0.394527
Cu22	Cu	1.250753	-0.128098	-0.265418
Cu23	Cu	1.584086	0.205235	0.067915
Cu24	Cu	1.917420	0.538568	0.401249
Cu25	Cu	1.250771	0.128057	-0.265413
Cu26	Cu	1.584104	0.461390	0.067920
Cu27	Cu	1.917437	0.794724	0.401253
O28	O	1.257476	-0.108313	-0.416984
O29	O	1.590809	0.225020	-0.083651
O30	O	1.924143	0.558354	0.249682
C31	C	1.060126	-0.000016	-0.254153
C32	C	1.393459	0.333317	0.079181
C33	C	1.726793	0.666651	0.412514
C34	C	0.943711	-0.000013	-0.240608
C35	C	1.277044	0.333320	0.092725
C36	C	1.610378	0.666654	0.426059
N37	N	1.250748	-0.308264	-0.265421
N38	N	1.584082	0.025069	0.067912
N39	N	1.917415	0.358402	0.401245
C40	C	0.718837	-0.000023	-0.403437
C41	C	1.052170	0.333310	-0.070104
C42	C	1.385503	0.666643	0.263229
C43	C	0.609454	-0.000022	-0.390716
C44	C	0.942788	0.333312	-0.057383
C45	C	1.276121	0.666645	0.275951
C46	C	0.615562	-0.000017	-0.202445
C47	C	0.948895	0.333316	0.130888
C48	C	1.282228	0.666649	0.464222
C49	C	0.724944	-0.000019	-0.215166
C50	C	1.058277	0.333314	0.118167
C51	C	1.391611	0.666648	0.451500
C52	C	0.776578	-0.000020	-0.315666
C53	C	1.109911	0.333313	0.017668
C54	C	1.443244	0.666647	0.351001
C55	C	0.885962	-0.000012	-0.328386
C56	C	1.219295	0.333321	0.004947
C57	C	1.552629	0.666654	0.338280
C58	C	0.892067	-0.000018	-0.140116
C59	C	1.225401	0.333316	0.193217
C60	C	1.558734	0.666649	0.526551
C61	C	0.782685	-0.000016	-0.127395
C62	C	1.116018	0.333317	0.205939
C63	C	1.449352	0.666651	0.539272
C64	C	1.250756	-0.426107	-0.265423
C65	C	1.584089	-0.092773	0.067911
C66	C	1.917423	0.240560	0.401244
C67	C	1.250768	-0.573944	-0.265414
C68	C	1.584102	-0.240611	0.067919
C69	C	1.917435	0.092722	0.401252
C70	C	1.441398	-0.000023	-0.276679
C71	C	1.774731	0.333311	0.056655
C72	C	2.108064	0.666644	0.389988
C73	C	1.557813	-0.000017	-0.290223
C74	C	1.891146	0.333317	0.043110
C75	C	2.224479	0.666650	0.376444
C76	C	1.239499	-0.000028	-0.074780
C77	C	1.572832	0.333306	0.258554
C78	C	1.906165	0.666639	0.591887
C79	C	1.225954	-0.000025	0.041635
C80	C	1.559288	0.333308	0.374969
C81	C	1.892621	0.666641	0.708302
N82	N	1.250783	0.308223	-0.265402
N83	N	1.584116	0.641556	0.067931
N84	N	1.917450	0.974890	0.401264
C85	C	1.262025	-0.000011	-0.456052
C86	C	1.595358	0.333323	-0.122718
C87	C	1.928692	0.666656	0.210615
C88	C	1.275569	-0.000005	-0.572467
C89	C	1.608903	0.333329	-0.239133
C90	C	1.942236	0.666662	0.094200
C91	C	1.388784	-0.000002	0.266510
C92	C	1.722117	0.333331	0.599843
C93	C	2.055450	0.666665	0.933176
C94	C	1.376062	0.000000	0.375892
C95	C	1.709396	0.333334	0.709225
C96	C	2.042729	0.666667	1.042559
C97	C	1.187791	-0.000008	0.369785
C98	C	1.521125	0.333325	0.703118
C99	C	1.854458	0.666658	1.036451
C100	C	1.200513	-0.000011	0.260402
C101	C	1.533846	0.333322	0.593736
C102	C	1.867179	0.666656	0.927069
C103	C	1.301012	-0.000010	0.208769
C104	C	1.634345	0.333324	0.542102
C105	C	1.967679	0.666657	0.875435
C106	C	1.313732	-0.000022	0.099384
C107	C	1.647066	0.333312	0.432717
C108	C	1.980399	0.666645	0.766051
C109	C	1.125462	-0.000021	0.093279
C110	C	1.458796	0.333312	0.426612
C111	C	1.792129	0.666646	0.759946
C112	C	1.112741	-0.000018	0.202661
C113	C	1.446074	0.333315	0.535995
C114	C	1.779408	0.666648	0.869328
H115	H	0.928000	-0.000015	-0.410218
H116	H	1.261334	0.333318	-0.076884
H117	H	1.594667	0.666651	0.256449
F118	F	1.469481	0.000012	0.437341
F119	F	1.802815	0.333346	0.770674
F120	F	2.136148	0.666679	1.104007
F121	F	1.420691	-0.000029	0.044433
F122	F	1.754025	0.333305	0.377767
F123	F	2.087358	0.666638	0.711100
H124	H	1.105969	0.000005	0.411844
H125	H	1.439302	0.333338	0.745177
H126	H	1.772636	0.666671	1.078511
F127	F	0.560592	-0.000032	-0.095495
F128	F	0.893925	0.333302	0.237839
F129	F	1.227258	0.666635	0.571172
F130	F	0.953527	0.000002	-0.046697
F131	F	1.286861	0.333335	0.286636
F132	F	1.620194	0.666669	0.619970
H133	H	0.740630	-0.000030	-0.045571
H134	H	1.073963	0.333303	0.287763
H135	H	1.407296	0.666637	0.621096
F136	F	1.495741	-0.000028	0.211555
F137	F	1.829074	0.333305	0.544888
F138	F	2.162407	0.666639	0.878221
F139	F	1.032043	-0.000042	0.031819
F140	F	1.365377	0.333291	0.365152
F141	F	1.698710	0.666624	0.698486
H142	H	1.030917	-0.000014	0.244717
H143	H	1.364250	0.333319	0.578050
H144	H	1.697583	0.666652	0.911383
H145	H	0.760878	-0.000022	-0.485268
H146	H	1.094211	0.333311	-0.151935
H147	H	1.427544	0.666645	0.181399
F148	F	0.548006	-0.000029	-0.484135
F149	F	0.881339	0.333305	-0.150802
F150	F	1.214672	0.666638	0.182532
