data_functionalizedCrystal
_audit_creation_method	'MofGen! by Chris Wilmer'
_symmetry_space_group_name_H-M	'P1'
_symmetry_Int_Tables_number	1
_symmetry_cell_setting	triclinic
loop_
_symmetry_equiv_pos_as_xyz
  x,y,z
_cell_length_a	12.594517
_cell_length_b	21.395356
_cell_length_c	21.395362
_cell_angle_alpha	89.970924
_cell_angle_beta	89.977564
_cell_angle_gamma	90.028389
loop_
_atom_site_label
_atom_site_type_symbol
_atom_site_fract_x
_atom_site_fract_y
_atom_site_fract_z
Zn1	Zn	-1.627209	-0.354336	-0.249539
Zn2	Zn	-1.127209	0.145664	0.250461
Zn3	Zn	-1.627057	-0.249555	-0.354316
Zn4	Zn	-1.127057	0.250445	0.145684
Zn5	Zn	-1.449205	-0.249563	-0.249547
Zn6	Zn	-0.949205	0.250437	0.250453
Zn7	Zn	-1.449160	-0.354287	-0.354273
Zn8	Zn	-0.949160	0.145713	0.145727
O9	O	-1.538158	-0.301935	-0.301919
O10	O	-1.038158	0.198065	0.198081
O11	O	-1.776135	-0.340453	-0.263452
O12	O	-1.276135	0.159547	0.236548
O13	O	-1.603419	-0.161879	-0.340439
O14	O	-1.103419	0.338121	0.159561
O15	O	-1.472901	-0.263485	-0.161868
O16	O	-0.972901	0.236515	0.338132
O17	O	-1.776023	-0.263472	-0.340431
O18	O	-1.276023	0.236528	0.159569
O19	O	-1.603680	-0.340461	-0.161862
O20	O	-1.103680	0.159539	0.338138
O21	O	-1.472753	-0.161884	-0.263465
O22	O	-0.972753	0.338116	0.236535
O23	O	-1.300253	-0.263438	-0.263424
O24	O	-0.800253	0.236562	0.236576
O25	O	-1.472823	-0.441971	-0.340359
O26	O	-0.972823	0.058029	0.159641
O27	O	-1.300220	-0.340378	-0.340367
O28	O	-0.800220	0.159622	0.159633
O29	O	-1.603636	-0.442007	-0.263411
O30	O	-1.103636	0.057993	0.236589
O31	O	-1.603375	-0.263425	-0.441988
O32	O	-1.103375	0.236575	0.058012
O33	O	-1.472675	-0.340370	-0.441957
O34	O	-0.972675	0.159630	0.058043
C35	C	-1.261617	-0.301904	-0.301892
C36	C	-0.761617	0.198096	0.198108
C37	C	-1.143311	-0.301906	-0.301896
C38	C	-0.643311	0.198094	0.198104
C39	C	-1.074045	-0.260135	-0.259987
C40	C	-0.574045	0.239865	0.240013
C41	C	-1.003214	-0.244714	-0.317133
C42	C	-0.503214	0.255286	0.182867
C43	C	-1.003344	-0.317327	-0.244767
C44	C	-0.503344	0.182673	0.255233
C45	C	-1.074038	-0.286455	-0.359073
C46	C	-0.574038	0.213545	0.140927
C47	C	-1.074174	-0.359095	-0.286668
C48	C	-0.574174	0.140905	0.213332
C49	C	-1.003375	-0.343696	-0.343854
C50	C	-0.503375	0.156304	0.156146
C51	C	-1.538033	-0.301905	-0.464706
C52	C	-1.038033	0.198095	0.035294
C53	C	-1.538077	-0.301913	-0.534348
C54	C	-1.038077	0.198087	-0.034348
C55	C	-0.815779	-0.301955	-0.301933
C56	C	-0.315779	0.198045	0.198067
C57	C	-0.934084	-0.301934	-0.301907
C58	C	-0.434084	0.198066	0.198093
C59	C	-1.538241	-0.465359	-0.301880
C60	C	-1.038241	0.034641	0.198120
C61	C	-1.538277	-0.535000	-0.301863
C62	C	-1.038277	-0.035000	0.198137
C63	C	-1.470257	-0.567706	-0.261779
C64	C	-0.970257	-0.067706	0.238221
C65	C	-1.470254	-0.633142	-0.261767
C66	C	-0.970254	-0.133142	0.238233
C67	C	-1.538289	-0.665868	-0.301833
C68	C	-1.038289	-0.165868	0.198167
C69	C	-1.606314	-0.633154	-0.341926
C70	C	-1.106314	-0.133154	0.158074
C71	C	-1.606308	-0.567720	-0.341941
C72	C	-1.106308	-0.067720	0.158059
C73	C	-1.634189	-0.769559	-0.306764
C74	C	-1.134189	-0.269559	0.193236
C75	C	-1.634197	-0.834992	-0.306745
C76	C	-1.134197	-0.334992	0.193255
C77	C	-1.538306	-0.867689	-0.301791
C78	C	-1.038306	-0.367689	0.198209
C79	C	-1.442406	-0.834945	-0.296843
C80	C	-0.942406	-0.334945	0.203157
C81	C	-1.442400	-0.769511	-0.296858
C82	C	-0.942400	-0.269511	0.203142
C83	C	-1.538302	-0.736821	-0.301822
C84	C	-1.038302	-0.236821	0.198178
C85	C	-1.470277	-0.971348	-0.261692
C86	C	-0.970277	-0.471348	0.238308
C87	C	-1.470271	-1.036785	-0.261685
C88	C	-0.970271	-0.536785	0.238315
C89	C	-1.606341	-1.036796	-0.341840
C90	C	-1.106341	-0.536796	0.158160
C91	C	-1.606337	-0.971361	-0.341851
C92	C	-1.106337	-0.471361	0.158149
C93	C	-1.538306	-0.938641	-0.301773
C94	C	-1.038306	-0.438641	0.198227
C95	C	-1.538136	-0.139148	-0.301912
C96	C	-1.038136	0.360852	0.198088
C97	C	-1.538306	-0.069507	-0.301752
C98	C	-1.038306	0.430493	0.198248
C99	C	-1.606469	-0.261971	-1.036139
C100	C	-1.106469	0.238029	-0.536139
C101	C	-1.606429	-0.261957	-0.970704
C102	C	-1.106429	0.238043	-0.470704
C103	C	-1.538309	-0.301980	-0.937986
C104	C	-1.038309	0.198020	-0.437986
C105	C	-1.470204	-0.342010	-0.970709
C106	C	-0.970204	0.157990	-0.470709
C107	C	-1.470239	-0.342019	-1.036143
C108	C	-0.970239	0.157981	-0.536143
C109	C	-1.529800	-0.358410	-0.834286
C110	C	-1.029800	0.141590	-0.334286
C111	C	-1.529772	-0.358402	-0.768853
C112	C	-1.029772	0.141598	-0.268853
C113	C	-1.538195	-0.301952	-0.736165
C114	C	-1.038195	0.198048	-0.236165
C115	C	-1.546668	-0.245508	-0.768918
C116	C	-1.046668	0.254492	-0.268918
C117	C	-1.546703	-0.245517	-0.834353
C118	C	-1.046703	0.254483	-0.334353
C119	C	-1.538263	-0.301975	-0.867033
C120	C	-1.038263	0.198025	-0.367033
C121	C	-1.606247	-0.261906	-0.632497
C122	C	-1.106247	0.238094	-0.132497
C123	C	-1.606199	-0.261890	-0.567061
C124	C	-1.106199	0.238110	-0.067061
C125	C	-1.469979	-0.341949	-0.567067
C126	C	-0.969979	0.158051	-0.067067
C127	C	-1.470022	-0.341959	-0.632503
C128	C	-0.970022	0.158041	-0.132503
C129	C	-1.538161	-0.301938	-0.665214
C130	C	-1.038161	0.198062	-0.165214
C131	C	-1.538312	-0.301979	-0.138495
C132	C	-1.038312	0.198021	0.361505
C133	C	-1.538378	-0.301998	-0.068854
C134	C	-1.038378	0.198002	0.431146
H135	H	-1.414857	-0.541070	-0.229147
H136	H	-0.914857	-0.041070	0.270853
Br137	Br	-1.698627	-0.523330	-0.396346
Br138	Br	-1.198627	-0.023330	0.103654
H139	H	-1.523133	-0.404392	-0.860894
H140	H	-1.023133	0.095608	-0.360894
H141	H	-1.661708	-0.659804	-0.374548
H142	H	-1.161708	-0.159804	0.125452
H143	H	-1.661950	-0.229381	-1.062768
H144	H	-1.161950	0.270619	-0.562768
H145	H	-1.522880	-0.404361	-0.742188
H146	H	-1.022880	0.095639	-0.242188
Br147	Br	-1.377510	-0.396257	-0.522672
Br148	Br	-0.877510	0.103743	-0.022672
H149	H	-1.105076	-0.224771	-0.224584
H150	H	-0.605076	0.275229	0.275416
H151	H	-0.972047	-0.196362	-0.330023
H152	H	-0.472047	0.303638	0.169977
H153	H	-0.972234	-0.330337	-0.196455
H154	H	-0.472234	0.169663	0.303545
Br155	Br	-1.698615	-0.207561	-0.522660
Br156	Br	-1.198615	0.292439	-0.022660
Br157	Br	-1.312260	-0.879311	-0.290113
Br158	Br	-0.812260	-0.379311	0.209887
Br159	Br	-1.377748	-0.396324	-0.926308
Br160	Br	-0.877748	0.103676	-0.426308
Br161	Br	-1.125571	-0.264642	-0.439631
Br162	Br	-0.625571	0.235358	0.060369
H163	H	-0.972540	-0.379033	-0.379341
H164	H	-0.472540	0.120967	0.120659
Br165	Br	-1.377616	-0.396290	-0.676905
Br166	Br	-0.877616	0.103710	-0.176905
Br167	Br	-1.126161	-0.439664	-0.265159
Br168	Br	-0.626161	0.060336	0.234841
H169	H	-1.712285	-0.861647	-0.310771
H170	H	-1.212285	-0.361647	0.189229
Br171	Br	-1.377823	-0.396346	-1.080545
Br172	Br	-0.877823	0.103654	-0.580545
Br173	Br	-1.698837	-0.207626	-0.926294
Br174	Br	-1.198837	0.292374	-0.426294
Br175	Br	-1.698714	-0.207591	-0.676895
Br176	Br	-1.198714	0.292409	-0.176895
H177	H	-1.712281	-0.742943	-0.310793
H178	H	-1.212281	-0.242943	0.189207
Br179	Br	-1.377958	-0.677539	-0.207349
Br180	Br	-0.877958	-0.177539	0.292651
Br181	Br	-1.377948	-0.926939	-0.207305
Br182	Br	-0.877948	-0.426939	0.292695
Br183	Br	-1.377914	-1.081174	-0.207301
Br184	Br	-0.877914	-0.581174	0.292699
Br185	Br	-1.312256	-0.725074	-0.290147
Br186	Br	-0.812256	-0.225074	0.209853
H187	H	-1.661739	-1.063441	-0.374462
H188	H	-1.161739	-0.563441	0.125538
H189	H	-1.553529	-0.199541	-0.742305
H190	H	-1.053529	0.300459	-0.242305
Br191	Br	-1.698660	-0.926970	-0.396251
Br192	Br	-1.198660	-0.426970	0.103749
H193	H	-1.553599	-0.199558	-0.861018
H194	H	-1.053599	0.300442	-0.361018
