data_functionalizedCrystal
_audit_creation_method	'MofGen! by Chris Wilmer'
_symmetry_space_group_name_H-M	'P1'
_symmetry_Int_Tables_number	1
_symmetry_cell_setting	triclinic
loop_
_symmetry_equiv_pos_as_xyz
  x,y,z
_cell_length_a	10.685661
_cell_length_b	16.120484
_cell_length_c	10.686551
_cell_angle_alpha	88.707809
_cell_angle_beta	80.927378
_cell_angle_gamma	88.764103
loop_
_atom_site_label
_atom_site_type_symbol
_atom_site_fract_x
_atom_site_fract_y
_atom_site_fract_z
Zn1	Zn	1.968070	-0.386341	-0.893652
Zn2	Zn	2.468070	0.113659	-0.393652
Zn3	Zn	1.941035	-0.534636	-0.691940
Zn4	Zn	2.441035	-0.034636	-0.191940
Zn5	Zn	1.739502	-0.386379	-0.665180
Zn6	Zn	2.239502	0.113621	-0.165180
Zn7	Zn	1.746582	-0.514846	-0.886495
Zn8	Zn	2.246582	-0.014846	-0.386495
O9	O	1.848798	-0.455550	-0.784317
O10	O	2.348798	0.044450	-0.284317
O11	O	2.141520	-0.414279	-0.881090
O12	O	2.641520	0.085721	-0.381090
O13	O	1.900025	-0.523267	-0.511352
O14	O	2.400025	-0.023267	-0.011352
O15	O	1.778174	-0.270548	-0.687284
O16	O	2.278174	0.229452	-0.187284
O17	O	2.121657	-0.523231	-0.732893
O18	O	2.621657	-0.023231	-0.232893
O19	O	1.946101	-0.270520	-0.855141
O20	O	2.446101	0.229480	-0.355141
O21	O	1.751959	-0.414343	-0.491692
O22	O	2.251959	0.085657	0.008308
O23	O	1.563406	-0.395154	-0.680343
O24	O	2.063406	0.104846	-0.180343
O25	O	1.790240	-0.489502	-1.064483
O26	O	2.290240	0.010498	-0.564483
O27	O	1.568607	-0.489538	-0.842943
O28	O	2.068607	0.010462	-0.342943
O29	O	1.952966	-0.395090	-1.069741
O30	O	2.452966	0.104910	-0.569741
O31	O	1.906889	-0.647836	-0.725952
O32	O	2.406889	-0.147836	-0.225952
O33	O	1.764026	-0.633297	-0.868891
O34	O	2.264026	-0.133297	-0.368891
C35	C	1.520103	-0.440203	-0.757963
C36	C	2.020103	0.059797	-0.257963
C37	C	1.379487	-0.433656	-0.746720
C38	C	1.879487	0.066344	-0.246720
C39	C	1.833329	-0.670599	-0.799579
C40	C	2.333329	-0.170599	-0.299579
C41	C	1.826830	-0.762601	-0.806160
C42	C	2.326830	-0.262601	-0.306160
C43	C	1.814975	-0.931051	-0.818201
C44	C	2.314975	-0.431051	-0.318201
C45	C	1.882848	-0.979220	-0.750472
C46	C	2.382848	-0.479220	-0.250472
C47	C	1.876252	-1.072950	-0.757172
C48	C	2.376252	-0.572950	-0.257172
C49	C	1.821570	-0.837311	-0.811503
C50	C	2.321570	-0.337311	-0.311503
C51	C	2.178775	-0.470958	-0.810774
C52	C	2.678775	0.029042	-0.310774
C53	C	2.319392	-0.477524	-0.822049
C54	C	2.819392	0.022476	-0.322049
C55	C	1.875409	-0.440084	-1.114300
C56	C	2.375409	0.059916	-0.614300
C57	C	1.886749	-0.433493	-1.254918
C58	C	2.386749	0.066507	-0.754918
C59	C	1.864364	-0.239662	-0.769026
C60	C	2.364364	0.260338	-0.269026
C61	C	1.870997	-0.147664	-0.762510
C62	C	2.370997	0.352336	-0.262510
C63	C	1.822367	-0.470900	-0.455620
C64	C	2.322367	0.029100	0.044380
C65	C	1.811289	-0.477270	-0.315005
C66	C	2.311289	0.022730	0.184995
H67	H	1.375519	-0.520084	-0.895150
H68	H	1.875519	-0.020084	-0.395150
C69	C	1.303660	-0.376148	-0.647965
C70	C	1.803660	0.123852	-0.147965
N71	N	1.246546	-0.332835	-0.573583
N72	N	1.746546	0.167165	-0.073583
C73	C	1.729772	-0.970437	-0.903315
C74	C	2.229772	-0.470437	-0.403315
N75	N	1.665592	-1.000112	-0.967415
N76	N	2.165592	-0.500112	-0.467415
H77	H	1.945910	-0.950064	-0.687454
H78	H	2.445910	-0.450064	-0.187454
C79	C	1.712286	-0.534714	-1.239169
C80	C	2.212286	-0.034714	-0.739169
N81	N	1.637713	-0.577980	-1.182042
N82	N	2.137713	-0.077980	-0.682042
C83	C	1.985753	-0.376043	-1.330759
C84	C	2.485753	0.123957	-0.830759
N85	N	2.060319	-0.332770	-1.387882
N86	N	2.560319	0.167230	-0.887882
