data_functionalizedCrystal
_audit_creation_method	'MofGen! by Chris Wilmer'
_symmetry_space_group_name_H-M	'P1'
_symmetry_Int_Tables_number	1
_symmetry_cell_setting	triclinic
loop_
_symmetry_equiv_pos_as_xyz
  x,y,z
_cell_length_a	16.109302
_cell_length_b	14.853568
_cell_length_c	15.186229
_cell_angle_alpha	90.004304
_cell_angle_beta	90.007553
_cell_angle_gamma	96.451516
loop_
_atom_site_label
_atom_site_type_symbol
_atom_site_fract_x
_atom_site_fract_y
_atom_site_fract_z
O1	O	1.103296	-0.115879	0.073259
O2	O	0.861255	-0.130299	0.073251
O3	O	0.988741	0.008151	0.073260
O4	O	0.975811	-0.254329	0.073250
O5	O	0.988726	0.008143	-0.073198
O6	O	0.861240	-0.130307	-0.073206
O7	O	1.103282	-0.115887	-0.073198
Zn8	Zn	0.982258	-0.123098	-0.096455
Zn9	Zn	0.982278	-0.123088	0.096508
O10	O	0.975796	-0.254337	-0.073207
C11	C	0.830272	-0.129719	0.000022
C12	C	0.737974	-0.127967	0.000019
C13	C	0.525619	-0.123921	-0.079806
C14	C	0.438897	-0.122266	-0.079803
C15	C	0.438924	-0.122262	0.079873
C16	C	0.525645	-0.123911	0.079869
C17	C	0.568990	-0.124745	0.000027
C18	C	0.395546	-0.121441	0.000034
C19	C	0.301518	-0.119646	0.000038
C20	C	0.663025	-0.126539	0.000022
C21	C	0.988147	0.041735	0.000034
C22	C	0.986391	0.141816	0.000043
C23	C	0.903239	0.554212	0.000029
C24	C	1.054696	0.575743	0.000034
C25	C	1.056347	0.481712	0.000038
C26	C	0.981443	0.423927	0.000036
C27	C	0.904888	0.460172	0.000030
C28	C	1.132900	0.445459	0.000035
C29	C	1.134554	0.351423	0.000038
C30	C	1.059649	0.293636	0.000043
C31	C	0.983092	0.329887	0.000038
C32	C	0.908188	0.272101	0.000036
C33	C	0.831629	0.308351	0.000037
C34	C	0.829983	0.402385	0.000035
C35	C	1.061295	0.199601	0.000045
C36	C	0.909837	0.178061	0.000037
C37	C	1.134265	-0.116467	0.000033
C38	C	1.226562	-0.118219	0.000042
C39	C	0.976389	0.712079	0.000024
C40	C	0.978143	0.611998	0.000031
N41	N	0.982251	-0.123105	-0.228148
C42	C	1.032752	-0.177787	-0.453871
C43	C	1.032761	-0.177780	-0.546061
C44	C	0.931789	-0.068386	-0.546070
C45	C	0.931785	-0.068388	-0.453882
C46	C	0.982265	-0.123094	-0.407785
C47	C	0.982278	-0.123085	-0.592162
C48	C	0.982287	-0.123078	-0.692119
C49	C	0.982257	-0.123100	-0.307822
N50	N	0.982292	-0.123074	0.228201
H51	H	0.770643	0.261290	0.000029
C52	C	0.760209	0.536972	0.000012
C53	C	0.745836	0.442233	0.000023
H54	H	0.708260	0.561573	-0.000004
H55	H	0.791050	0.556809	0.051084
H56	H	0.791055	0.556786	-0.051062
H57	H	0.714995	0.422418	0.051101
H58	H	0.714982	0.422388	-0.051054
C59	C	0.823812	0.059811	-0.075251
C60	C	0.827499	0.114544	0.000037
H61	H	0.772983	0.020595	-0.075246
H62	H	0.826305	0.096940	-0.126313
H63	H	0.869643	0.024768	-0.075243
H64	H	0.781671	0.149592	0.000026
H65	H	0.824999	0.077411	0.051112
C66	C	0.516881	-0.123744	-0.237637
C67	C	0.573267	-0.124824	-0.167567
H68	H	0.546297	-0.124293	-0.291817
H69	H	0.476780	-0.175641	-0.234323
H70	H	0.489335	-0.070557	-0.234298
H71	H	0.600808	-0.178015	-0.170902
H72	H	0.613382	-0.072922	-0.170883
C73	C	0.350631	-0.042950	-0.172431
C74	C	0.391227	-0.121357	-0.167560
H75	H	0.321209	-0.042385	-0.226615
H76	H	0.312403	-0.042227	-0.124892
H77	H	0.390756	0.008939	-0.169105
H78	H	0.351102	-0.173245	-0.170880
H79	H	0.429459	-0.122088	-0.215112
H80	H	1.196893	0.321918	0.000038
C81	C	1.282775	0.457303	0.000034
C82	C	1.215231	0.508975	0.000039
H83	H	1.333603	0.496521	0.000033
H84	H	1.280275	0.420182	0.051102
H85	H	1.280259	0.420175	-0.051045
H86	H	1.217743	0.546099	0.051121
H87	H	1.217732	0.546112	-0.051034
H88	H	1.073873	-0.222316	-0.583580
C89	C	0.831969	0.039741	-0.463143
C90	C	0.876283	-0.008267	-0.403216
H91	H	0.797704	0.076852	-0.431862
H92	H	0.870186	0.076673	-0.499087
H93	H	0.797950	-0.001746	-0.499111
H94	H	0.910306	0.033220	-0.367252
H95	H	0.838061	-0.045202	-0.367257
C96	C	1.119413	0.729450	0.000030
C97	C	1.137027	0.639258	0.000035
H98	H	1.170244	0.768663	0.000037
H99	H	1.088029	0.740423	-0.051042
H100	H	1.088031	0.740434	0.051104
H101	H	1.168404	0.628272	-0.051042
H102	H	1.168424	0.628281	0.051113
H103	H	0.840907	0.583731	0.000034
C104	C	1.210836	0.230333	0.000050
C105	C	1.145440	0.159755	0.000051
H106	H	1.262786	0.205733	0.000062
H107	H	1.207039	0.266550	-0.051024
H108	H	1.207041	0.266574	0.051123
H109	H	1.149231	0.123519	-0.051026
H110	H	1.149239	0.123523	0.051130
C111	C	0.886903	-0.019863	-0.687390
C112	C	0.876294	-0.008264	-0.596739
H113	H	0.852635	0.017250	-0.718667
H114	H	0.943756	-0.003155	-0.702519
H115	H	0.871498	-0.081550	-0.702463
H116	H	0.891705	0.053423	-0.581665
H117	H	0.819429	-0.024966	-0.581604
H118	H	1.073856	-0.222332	-0.416342
C119	C	0.543121	-0.201876	0.215964
C120	C	0.573326	-0.124820	0.167627
H121	H	0.572563	-0.202436	0.270136
H122	H	0.485278	-0.200770	0.227395
H123	H	0.551051	-0.254682	0.183145
H124	H	0.565390	-0.072014	0.200443
H125	H	0.631183	-0.125919	0.156199
C126	C	0.305995	-0.119742	0.150779
C127	C	0.391274	-0.121357	0.167632
H128	H	0.276581	-0.119192	0.204961
H129	H	0.298061	-0.066934	0.117989
H130	H	0.285508	-0.172017	0.117970
H131	H	0.411763	-0.069079	0.200436
H132	H	0.399214	-0.174171	0.200436
