data_functionalizedCrystal
_audit_creation_method	'MofGen! by Chris Wilmer'
_symmetry_space_group_name_H-M	'P1'
_symmetry_Int_Tables_number	1
_symmetry_cell_setting	triclinic
loop_
_symmetry_equiv_pos_as_xyz
  x,y,z
_cell_length_a	10.540539
_cell_length_b	10.654550
_cell_length_c	9.130313
_cell_angle_alpha	89.995631
_cell_angle_beta	89.998539
_cell_angle_gamma	84.505211
loop_
_atom_site_label
_atom_site_type_symbol
_atom_site_fract_x
_atom_site_fract_y
_atom_site_fract_z
O1	O	1.685822	0.176992	-0.121730
O2	O	1.316403	0.193668	-0.121748
O3	O	1.509606	0.002594	-0.121729
O4	O	1.492619	0.368066	-0.121749
O5	O	1.509593	0.002588	0.121870
O6	O	1.316390	0.193662	0.121851
O7	O	1.685809	0.176986	0.121869
Cu8	Cu	1.501098	0.185324	0.144102
Cu9	Cu	1.501114	0.185330	-0.143981
O10	O	1.492605	0.368061	0.121850
C11	C	1.508352	-0.044208	0.000069
C12	C	1.504620	-0.183652	0.000067
C13	C	1.269094	0.192415	0.000049
C14	C	1.128147	0.188673	0.000043
C15	C	1.618375	-0.263098	0.000072
C16	C	1.614861	-0.394120	0.000054
C17	C	1.383827	-0.366238	0.000032
C18	C	1.387343	-0.235218	0.000039
C19	C	0.944772	0.045302	0.000619
C20	C	1.091388	0.049095	0.000054
C21	C	1.066458	0.255847	-0.139062
C22	C	0.919915	0.251084	-0.139164
C23	C	0.919410	0.253917	0.137854
C24	C	1.066392	0.255202	0.139677
C25	C	1.733118	0.178240	0.000069
C26	C	1.874064	0.181981	0.000066
C27	C	1.493859	0.414862	0.000048
C28	C	1.497591	0.554306	0.000041
N29	N	1.501096	0.185318	0.346725
N30	N	1.501125	0.185326	-0.346604
C31	C	1.586676	0.100747	0.423385
C32	C	1.586688	0.100747	0.576722
C33	C	1.415537	0.269902	0.576725
C34	C	1.415519	0.269894	0.423391
H35	H	1.713870	-0.221117	0.000091
H36	H	1.294704	-0.170530	0.000031
N37	N	1.674107	0.014344	0.655005
N38	N	1.750498	-0.061164	0.586529
H39	H	1.812241	-0.122193	0.641815
N40	N	0.908933	-0.023805	0.125826
N41	N	0.794905	-0.042812	0.144872
H42	H	0.769596	-0.091596	0.233328
N43	N	1.144855	-0.017225	0.125144
N44	N	1.073893	-0.066644	0.213473
H45	H	1.111648	-0.113494	0.301817
H46	H	1.107366	0.206129	0.242587
N47	N	1.731072	-0.475253	0.000048
N48	N	1.835768	-0.429189	0.000064
H49	H	1.917848	-0.486489	0.000056
H50	H	1.345864	0.338763	0.639162
H51	H	1.288344	-0.408240	0.000012
H52	H	0.914590	-0.009604	-0.098580
N53	N	1.143780	-0.017674	-0.125254
N54	N	1.072044	-0.067214	-0.212570
H55	H	1.109043	-0.114370	-0.301077
H56	H	1.345824	0.338763	0.360970
H57	H	0.891728	0.201440	-0.243141
H58	H	0.871910	0.351466	-0.145482
N59	N	1.094454	0.384435	-0.145549
N60	N	1.160344	0.428107	-0.047489
H61	H	1.180119	0.518924	-0.052066
N62	N	1.119954	0.197339	-0.268920
N63	N	1.203494	0.106184	-0.259380
H64	H	1.241289	0.064867	-0.351089
H65	H	0.887875	0.208743	0.243294
N66	N	1.096788	0.382846	0.150200
N67	N	1.210521	0.406172	0.159006
H68	H	1.232005	0.496321	0.166419
H69	H	0.872147	0.354733	0.138788
H70	H	1.656355	0.031878	0.360967
