data_functionalizedCrystal
_audit_creation_method	'MofGen! by Chris Wilmer'
_symmetry_space_group_name_H-M	'P1'
_symmetry_Int_Tables_number	1
_symmetry_cell_setting	triclinic
loop_
_symmetry_equiv_pos_as_xyz
  x,y,z
_cell_length_a	11.169417
_cell_length_b	12.827892
_cell_length_c	11.169409
_cell_angle_alpha	90.033086
_cell_angle_beta	90.019513
_cell_angle_gamma	90.016641
loop_
_atom_site_label
_atom_site_type_symbol
_atom_site_fract_x
_atom_site_fract_y
_atom_site_fract_z
Zn1	Zn	1.834920	-0.415914	0.678527
Zn2	Zn	1.834792	-0.590701	0.477841
Zn3	Zn	1.634206	-0.415978	0.477862
Zn4	Zn	1.634196	-0.590617	0.678487
O5	O	1.734528	-0.503303	0.578179
O6	O	2.002853	-0.439108	0.651913
O7	O	1.808134	-0.567586	0.309894
O8	O	1.660889	-0.269734	0.504506
O9	O	2.002759	-0.567523	0.504470
O10	O	1.808353	-0.269686	0.651933
O11	O	1.660765	-0.439218	0.309909
O12	O	1.466255	-0.439137	0.504468
O13	O	1.660872	-0.567380	0.846442
O14	O	1.466248	-0.567443	0.651866
O15	O	1.808343	-0.439026	0.846471
O16	O	1.808124	-0.736926	0.504431
O17	O	1.660747	-0.736864	0.651845
C18	C	1.422704	-0.503288	0.578165
C19	C	1.289304	-0.503308	0.578188
C20	C	1.734453	-0.774812	0.578158
C21	C	1.734531	-0.890966	0.578189
C22	C	1.807544	-0.942746	0.505325
C23	C	1.807626	-1.062796	0.505355
C24	C	2.047571	-0.503317	0.578194
C25	C	2.180971	-0.503324	0.578200
C26	C	1.734621	-0.503186	0.891222
C27	C	1.734660	-0.503137	1.024622
C28	C	1.734637	-0.230732	0.578227
C29	C	1.734683	-0.114579	0.578247
C30	C	1.734506	-0.503343	0.266354
C31	C	1.734699	-0.503098	0.132955
H32	H	1.870133	-1.107327	0.442971
H33	H	1.672165	-1.070057	0.640627
N34	N	1.651802	-0.949951	0.660859
H35	H	1.700623	-0.995161	0.716486
H36	H	1.596302	-0.995253	0.611918
H37	H	1.869999	-0.898203	0.442924
