data_functionalizedCrystal
_audit_creation_method	'MofGen! by Chris Wilmer'
_symmetry_space_group_name_H-M	'P1'
_symmetry_Int_Tables_number	1
_symmetry_cell_setting	triclinic
loop_
_symmetry_equiv_pos_as_xyz
  x,y,z
_cell_length_a	18.215405
_cell_length_b	18.215407
_cell_length_c	18.215399
_cell_angle_alpha	89.983140
_cell_angle_beta	90.026474
_cell_angle_gamma	89.981845
loop_
_atom_site_label
_atom_site_type_symbol
_atom_site_fract_x
_atom_site_fract_y
_atom_site_fract_z
Zn1	Zn	-0.293068	-1.125087	0.416065
Zn2	Zn	-0.416139	-1.125001	0.293002
Zn3	Zn	-0.293083	-1.002019	0.293019
Zn4	Zn	-0.416089	-1.001991	0.416033
O5	O	-0.354595	-1.063524	0.354530
O6	O	-0.309408	-1.228059	0.399747
O7	O	-0.399843	-1.108663	0.190020
O8	O	-0.190096	-1.018392	0.309361
O9	O	-0.399828	-1.227997	0.309333
O10	O	-0.190085	-1.108809	0.399763
O11	O	-0.309433	-1.018309	0.190032
O12	O	-0.309385	-0.899031	0.309331
O13	O	-0.399743	-1.018344	0.519022
O14	O	-0.399757	-0.899011	0.399709
O15	O	-0.309360	-1.108782	0.519045
O16	O	-0.519117	-1.108636	0.309302
O17	O	-0.519080	-1.018261	0.399692
C18	C	-0.354568	-0.872318	0.354519
C19	C	-0.354574	-0.790519	0.354531
C20	C	-0.401716	-0.525470	0.401525
C21	C	-0.401712	-0.602329	0.401522
C22	C	-0.307466	-0.602320	0.307548
C23	C	-0.307475	-0.525463	0.307548
C24	C	-0.354599	-0.487040	0.354541
C25	C	-0.354586	-0.640756	0.354537
C26	C	-0.354580	-0.724090	0.354533
C27	C	-0.354605	-0.403701	0.354545
C28	C	-0.545801	-1.063456	0.354508
C29	C	-0.627600	-1.063494	0.354523
C30	C	-0.892594	-1.110619	0.401667
C31	C	-0.815735	-1.110594	0.401656
C32	C	-0.815854	-1.016524	0.307435
C33	C	-0.892711	-1.016553	0.307443
C34	C	-0.931079	-1.063599	0.354563
C35	C	-0.777363	-1.063546	0.354544
C36	C	-0.694030	-1.063519	0.354531
C37	C	-1.014418	-1.063628	0.354575
C38	C	-0.162642	-1.063613	0.354568
C39	C	-0.080843	-1.063651	0.354584
C40	C	-0.354544	-1.063569	0.546483
C41	C	-0.354522	-1.063588	0.628282
C42	C	-0.354616	-0.255477	0.354542
C43	C	-0.354611	-0.337276	0.354547
C44	C	-0.354592	-1.063522	0.163323
C45	C	-0.354406	-1.063646	0.081525
C46	C	-0.307416	-1.110696	0.816489
C47	C	-0.307394	-1.110705	0.893348
C48	C	-0.401515	-1.016533	0.893312
C49	C	-0.401532	-1.016521	0.816455
C50	C	-0.354484	-1.063607	0.778045
C51	C	-0.354445	-1.063627	0.931761
C52	C	-0.354422	-1.063637	1.015095
C53	C	-0.354505	-1.063597	0.694706
H54	H	-0.440080	-0.633616	0.439780
H55	H	-0.923831	-1.148923	0.440039
H56	H	-0.269105	-0.494172	0.269284
F57	F	-0.775013	-0.966455	0.257291
F58	F	-0.451871	-0.484580	0.451538
H59	H	-0.269099	-0.633613	0.269289
F60	F	-0.451627	-0.966395	0.775538
H61	H	-0.784402	-1.148882	0.440011
F62	F	-0.257303	-1.160829	0.934259
H63	H	-0.924047	-0.978264	0.269081
H64	H	-0.269104	-1.149035	0.785218
H65	H	-0.439822	-0.978199	0.924595
