data_functionalizedCrystal
_audit_creation_method	'MofGen! by Chris Wilmer'
_symmetry_space_group_name_H-M	'P1'
_symmetry_Int_Tables_number	1
_symmetry_cell_setting	triclinic
loop_
_symmetry_equiv_pos_as_xyz
  x,y,z
_cell_length_a	10.685972
_cell_length_b	21.395363
_cell_length_c	21.395355
_cell_angle_alpha	89.996048
_cell_angle_beta	94.401025
_cell_angle_gamma	85.632222
loop_
_atom_site_label
_atom_site_type_symbol
_atom_site_fract_x
_atom_site_fract_y
_atom_site_fract_z
Zn1	Zn	-1.929376	-0.176153	-0.427866
Zn2	Zn	-1.429376	0.323847	0.072134
Zn3	Zn	-1.929285	-0.280916	-0.323111
Zn4	Zn	-1.429285	0.219084	0.176889
Zn5	Zn	-1.718339	-0.184177	-0.315058
Zn6	Zn	-1.218339	0.315823	0.184942
Zn7	Zn	-1.718383	-0.288919	-0.419813
Zn8	Zn	-1.218383	0.211081	0.080187
O9	O	-1.823846	-0.232542	-0.371462
O10	O	-1.323846	0.267458	0.128538
O11	O	-2.105947	-0.183343	-0.420710
O12	O	-1.605947	0.316657	0.079290
O13	O	-1.901246	-0.268093	-0.234363
O14	O	-1.401246	0.231907	0.265637
O15	O	-1.746354	-0.095434	-0.330022
O16	O	-1.246354	0.404566	0.169978
O17	O	-2.105880	-0.260312	-0.343748
O18	O	-1.605880	0.239688	0.156252
O19	O	-1.901402	-0.089539	-0.412901
O20	O	-1.401402	0.410461	0.087099
O21	O	-1.746266	-0.197019	-0.228447
O22	O	-1.246266	0.302981	0.271553
O23	O	-1.541762	-0.204779	-0.322214
O24	O	-1.041762	0.295221	0.177786
O25	O	-1.746427	-0.273952	-0.508561
O26	O	-1.246427	0.226048	-0.008561
O27	O	-1.541794	-0.281732	-0.399176
O28	O	-1.041794	0.218268	0.100824
O29	O	-1.901444	-0.191103	-0.514477
O30	O	-1.401444	0.308897	-0.014477
O31	O	-1.901288	-0.369657	-0.335939
O32	O	-1.401288	0.130343	0.164061
O33	O	-1.746339	-0.375536	-0.406985
O34	O	-1.246339	0.124464	0.093015
C35	C	-1.495992	-0.244995	-0.358948
C36	C	-0.995992	0.255005	0.141052
C37	C	-1.355735	-0.250338	-0.353609
C38	C	-0.855735	0.249662	0.146391
C39	C	-1.823843	-0.395329	-0.371477
C40	C	-1.323843	0.104671	0.128523
C41	C	-1.823957	-0.464966	-0.371509
C42	C	-1.323957	0.035034	0.128491
C43	C	-1.823950	-0.232525	-0.534889
C44	C	-1.323950	0.267475	-0.034889
C45	C	-1.823995	-0.232518	-0.604532
C46	C	-1.323995	0.267482	-0.104532
C47	C	-1.152980	-0.220036	-0.384022
C48	C	-0.652980	0.279964	0.115978
C49	C	-1.293237	-0.214696	-0.389367
C50	C	-0.793237	0.285304	0.110633
C51	C	-1.823883	-0.069117	-0.371462
C52	C	-1.323883	0.430883	0.128538
C53	C	-1.823899	0.000525	-0.371462
C54	C	-1.323899	0.500525	0.128538
C55	C	-1.743189	0.030170	-0.328313
C56	C	-1.243189	0.530170	0.171687
C57	C	-1.743187	0.095606	-0.328320
C58	C	-1.243187	0.595606	0.171680
C59	C	-1.823919	0.131394	-0.371471
C60	C	-1.323919	0.631394	0.128529
C61	C	-1.904635	0.101741	-0.414628
C62	C	-1.404635	0.601741	0.085372
C63	C	-1.904625	0.036307	-0.414624
C64	C	-1.404625	0.536307	0.085376
C65	C	-1.937627	0.239383	-0.380763
C66	C	-1.437627	0.739383	0.119237
C67	C	-1.937639	0.304816	-0.380763
C68	C	-1.437639	0.804816	0.119237
C69	C	-1.823948	0.333216	-0.371489
C70	C	-1.323948	0.833216	0.128511
C71	C	-1.710243	0.296174	-0.362200
C72	C	-1.210243	0.796174	0.137800
C73	C	-1.710233	0.230740	-0.362196
C74	C	-1.210233	0.730740	0.137804
C75	C	-1.823938	0.202347	-0.371481
C76	C	-1.323938	0.702347	0.128519
C77	C	-1.743230	0.433814	-0.328345
C78	C	-1.243230	0.933814	0.171655
C79	C	-1.743226	0.499250	-0.328357
C80	C	-1.243226	0.999250	0.171643
C81	C	-1.904685	0.505385	-0.414662
C82	C	-1.404685	1.005385	0.085338
C83	C	-1.904677	0.439949	-0.414653
C84	C	-1.404677	0.939949	0.085347
C85	C	-1.823951	0.404167	-0.371491
C86	C	-1.323951	0.904167	0.128509
C87	C	-1.904709	-0.189377	-0.640327
C88	C	-1.404709	0.310623	-0.140327
C89	C	-1.904707	-0.189350	-0.705762
C90	C	-1.404707	0.310650	-0.205762
C91	C	-1.824005	-0.232475	-0.735401
C92	C	-1.324005	0.267525	-0.235401
C93	C	-1.743276	-0.275619	-0.699598
C94	C	-1.243276	0.224381	-0.199598
C95	C	-1.743271	-0.275640	-0.634163
C96	C	-1.243271	0.224360	-0.134163
C97	C	-1.814040	-0.289269	-0.838701
C98	C	-1.314040	0.210731	-0.338701
C99	C	-1.814054	-0.289248	-0.904135
C100	C	-1.314054	0.210752	-0.404135
C101	C	-1.824013	-0.232408	-0.937222
C102	C	-1.324013	0.267592	-0.437222
C103	C	-1.833984	-0.175586	-0.904869
C104	C	-1.333984	0.324414	-0.404869
C105	C	-1.833979	-0.175608	-0.839435
C106	C	-1.333979	0.324392	-0.339435
C107	C	-1.824001	-0.232456	-0.806353
C108	C	-1.324001	0.267544	-0.306353
C109	C	-1.904728	-0.189235	-1.043970
C110	C	-1.404728	0.310765	-0.543970
C111	C	-1.904718	-0.189207	-1.109406
C112	C	-1.404718	0.310793	-0.609406
C113	C	-1.743294	-0.275481	-1.103240
C114	C	-1.243294	0.224519	-0.603240
C115	C	-1.743298	-0.275504	-1.037805
C116	C	-1.243298	0.224496	-0.537805
C117	C	-1.824022	-0.232381	-1.008174
C118	C	-1.324022	0.267619	-0.508174
C119	C	-1.823814	-0.232510	-0.208673
C120	C	-1.323814	0.267490	0.291327
C121	C	-1.824014	-0.232331	-0.139040
C122	C	-1.324014	0.267669	0.360960
H123	H	-1.347031	-0.180090	-0.424065
H124	H	-0.847031	0.319910	0.075935
H125	H	-1.842095	-0.129342	-0.813096
H126	H	-1.342095	0.370658	-0.313096
Cl127	Cl	-1.272680	-0.303764	-0.300027
Cl128	Cl	-0.772680	0.196236	0.199973
H129	H	-1.677454	0.001041	-0.293168
H130	H	-1.177454	0.501041	0.206832
Cl131	Cl	-1.567308	0.331869	-0.350534
Cl132	Cl	-1.067308	0.831869	0.149466
Cl133	Cl	-1.641723	0.132883	-0.274067
Cl134	Cl	-1.141723	0.632883	0.225933
H135	H	-2.030212	0.216266	-0.388324
H136	H	-1.530212	0.716266	0.111676
H137	H	-1.617650	0.200583	-0.354635
H138	H	-1.117650	0.700583	0.145365
H139	H	-1.970439	-0.154262	-0.616205
H140	H	-1.470439	0.345738	-0.116205
H141	H	-1.970413	0.534523	-0.449798
H142	H	-1.470413	1.034523	0.050202
Cl143	Cl	-1.641827	-0.329691	-1.140494
Cl144	Cl	-1.141827	0.170309	-0.640494
H145	H	-1.805593	-0.335556	-0.811754
H146	H	-1.305593	0.164444	-0.311754
H147	H	-1.970452	-0.154118	-1.019842
H148	H	-1.470452	0.345882	-0.519842
H149	H	-1.842096	-0.129302	-0.931808
H150	H	-1.342096	0.370698	-0.431808
H151	H	-1.805942	-0.335516	-0.930472
H152	H	-1.305942	0.164484	-0.430472
H153	H	-1.970407	0.415812	-0.449787
H154	H	-1.470407	0.915812	0.050213
H155	H	-1.677564	-0.310730	-0.723734
H156	H	-1.177564	0.189270	-0.223734
H157	H	-1.677492	0.404678	-0.293203
H158	H	-1.177492	0.904678	0.206797
Cl159	Cl	-1.641736	0.536518	-0.274114
Cl160	Cl	-1.141736	1.036518	0.225886
Cl161	Cl	-1.641795	-0.329880	-0.589162
Cl162	Cl	-1.141795	0.170120	-0.089162
H163	H	-2.030222	0.334973	-0.388322
H164	H	-1.530222	0.834973	0.111678
H165	H	-1.970366	0.130883	-0.449763
H166	H	-1.470366	0.630883	0.050237
H167	H	-1.970348	0.012170	-0.449763
H168	H	-1.470348	0.512170	0.050237
H169	H	-1.677579	-0.310637	-1.008661
H170	H	-1.177579	0.189363	-0.508661
H171	H	-1.970431	-0.154216	-0.734912
H172	H	-1.470431	0.345784	-0.234912
H173	H	-1.970442	-0.154073	-1.138549
H174	H	-1.470442	0.345927	-0.638549
