data_functionalizedCrystal
_audit_creation_method	'MofGen! by Chris Wilmer'
_symmetry_space_group_name_H-M	'P1'
_symmetry_Int_Tables_number	1
_symmetry_cell_setting	triclinic
loop_
_symmetry_equiv_pos_as_xyz
  x,y,z
_cell_length_a	10.723023
_cell_length_b	14.853567
_cell_length_c	9.798715
_cell_angle_alpha	90.000647
_cell_angle_beta	89.996770
_cell_angle_gamma	84.051239
loop_
_atom_site_label
_atom_site_type_symbol
_atom_site_fract_x
_atom_site_fract_y
_atom_site_fract_z
O1	O	1.655909	0.126442	-0.113464
O2	O	1.292634	0.138546	-0.113469
O3	O	1.483975	0.001315	-0.113471
O4	O	1.464568	0.263672	-0.113463
O5	O	1.483961	0.001315	0.113511
O6	O	1.292620	0.138546	0.113513
O7	O	1.655895	0.126442	0.113518
Zn8	Zn	1.474255	0.132494	0.149554
Zn9	Zn	1.474274	0.132494	-0.149505
O10	O	1.464554	0.263672	0.113519
C11	C	1.246136	0.137665	0.000021
C12	C	1.107608	0.135030	0.000019
C13	C	1.045841	0.133855	0.117601
C14	C	0.902665	0.131132	0.117602
C15	C	1.483089	-0.032278	0.000016
C16	C	1.480453	-0.132376	0.000004
C17	C	1.355653	-0.545568	0.000029
C18	C	1.582971	-0.565649	0.000032
C19	C	1.585449	-0.471603	0.000024
C20	C	1.473027	-0.414534	0.000020
C21	C	1.358128	-0.451512	0.000025
C22	C	1.700346	-0.434617	0.000033
C23	C	1.702828	-0.340565	0.000026
C24	C	1.590405	-0.283495	0.000013
C25	C	1.475501	-0.320478	0.000016
C26	C	1.363080	-0.263410	0.000013
C27	C	1.248174	-0.300392	0.000006
C28	C	1.245705	-0.394442	0.000012
C29	C	1.592875	-0.189444	0.000008
C30	C	1.365554	-0.169354	0.000009
C31	C	1.702392	0.127322	0.000024
C32	C	1.840920	0.129957	0.000018
C33	C	1.465440	0.297266	0.000029
C34	C	1.468075	0.397363	0.000032
N35	N	1.474251	0.132493	0.353653
N36	N	1.474287	0.132488	-0.353605
C37	C	1.554593	0.074619	0.421430
C38	C	1.554613	0.074616	0.578592
H39	H	1.156641	-0.253914	0.000013
H40	H	1.098957	0.134860	0.218268
C41	C	1.241885	-0.106581	0.000006
C42	C	1.212315	-0.039161	0.117871
C43	C	1.088647	0.023611	0.117868
C44	C	0.994549	0.018963	-0.000002
C45	C	1.024117	-0.048460	-0.117876
C46	C	1.147785	-0.111232	-0.117872
H47	H	1.281974	-0.035718	0.205133
H48	H	1.066759	0.073522	0.205127
H49	H	0.903002	0.065431	-0.000004
H50	H	0.954458	-0.051903	-0.205138
H51	H	1.169673	-0.161143	-0.205131
C52	C	1.706632	-0.628419	0.000040
C53	C	1.800746	-0.623779	-0.117826
C54	C	1.924414	-0.686551	-0.117820
C55	C	1.953967	-0.753964	0.000053
C56	C	1.859850	-0.758607	0.117928
C57	C	1.736182	-0.695834	0.117921
H58	H	1.778872	-0.573873	-0.205090
H59	H	1.994086	-0.683114	-0.205079
H60	H	2.045513	-0.800432	0.000058
H61	H	1.881725	-0.808513	0.205192
H62	H	1.666511	-0.699272	0.205181
H63	H	1.686429	-0.159338	0.000022
C64	C	1.823999	-0.497395	0.000034
C65	C	1.853538	-0.564821	0.117893
C66	C	1.977195	-0.627605	0.117889
C67	C	2.071313	-0.622964	0.000026
C68	C	2.041777	-0.555535	-0.117841
C69	C	1.918120	-0.492751	-0.117837
H70	H	1.783864	-0.568259	0.205150
H71	H	1.999059	-0.677521	0.205143
H72	H	2.162852	-0.669441	0.000024
H73	H	2.111451	-0.552097	-0.205098
H74	H	1.896256	-0.442835	-0.205091
H75	H	1.796391	-0.310463	0.000030
H76	H	1.054493	0.134017	-0.100647
H77	H	1.623358	0.025070	0.363106
H78	H	1.262100	-0.575683	0.000018
C79	C	1.647541	0.007676	0.657320
C80	C	1.647468	0.007797	0.814476
C81	C	1.740400	-0.059145	0.893207
C82	C	1.833404	-0.126209	0.814782
C83	C	1.833481	-0.126332	0.657616
C84	C	1.740549	-0.059390	0.578886
H85	H	1.578618	0.057444	0.872540
H86	H	1.740343	-0.059053	1.009552
H87	H	1.902198	-0.175763	0.873063
H88	H	1.902331	-0.175979	0.599553
H89	H	1.740606	-0.059482	0.462541
H90	H	1.405504	0.182041	0.588119
C91	C	1.381343	0.199429	0.432434
C92	C	1.430593	0.268518	0.530693
C93	C	1.337682	0.335457	0.609469
C94	C	1.195520	0.333308	0.589986
C95	C	1.146263	0.264217	0.491722
C96	C	1.239174	0.197277	0.412946
H97	H	1.535836	0.270111	0.545119
H98	H	1.374146	0.386603	0.682210
H99	H	1.126742	0.382860	0.648300
H100	H	1.041020	0.262623	0.477296
H101	H	1.202710	0.146132	0.340205
H102	H	1.152155	-0.424562	0.000008
H103	H	0.894030	0.130973	-0.100654
H104	H	0.849546	0.130126	0.218268
