data_functionalizedCrystal
_audit_creation_method	'MofGen! by Chris Wilmer'
_symmetry_space_group_name_H-M	'P1'
_symmetry_Int_Tables_number	1
_symmetry_cell_setting	triclinic
loop_
_symmetry_equiv_pos_as_xyz
  x,y,z
_cell_length_a	18.215407
_cell_length_b	12.759400
_cell_length_c	18.215387
_cell_angle_alpha	89.912008
_cell_angle_beta	89.942217
_cell_angle_gamma	90.015132
loop_
_atom_site_label
_atom_site_type_symbol
_atom_site_fract_x
_atom_site_fract_y
_atom_site_fract_z
Zn1	Zn	1.125400	-0.417607	-0.416134
Zn2	Zn	1.458733	-0.084273	-0.082801
Zn3	Zn	1.792067	0.249060	0.250532
Zn4	Zn	1.125249	-0.593498	-0.293075
Zn5	Zn	1.458582	-0.260165	0.040258
Zn6	Zn	1.791915	0.073168	0.373592
Zn7	Zn	1.002251	-0.417835	-0.293081
Zn8	Zn	1.335584	-0.084502	0.040252
Zn9	Zn	1.668918	0.248831	0.373585
Zn10	Zn	1.002320	-0.593245	-0.416100
Zn11	Zn	1.335654	-0.259912	-0.082767
Zn12	Zn	1.668987	0.073421	0.250567
O13	O	1.063805	-0.505546	-0.354598
O14	O	1.397138	-0.172213	-0.021264
O15	O	1.730472	0.161120	0.312069
O16	O	1.228364	-0.440949	-0.399822
O17	O	1.561697	-0.107616	-0.066488
O18	O	1.895031	0.225718	0.266845
O19	O	1.108840	-0.570398	-0.190091
O20	O	1.442174	-0.237065	0.143242
O21	O	1.775507	0.096269	0.476575
O22	O	1.018621	-0.270784	-0.309421
O23	O	1.351954	0.062549	0.023912
O24	O	1.685288	0.395883	0.357245
O25	O	1.228253	-0.570176	-0.309411
O26	O	1.561586	-0.236843	0.023923
O27	O	1.894920	0.096491	0.357256
O28	O	1.109098	-0.270616	-0.399828
O29	O	1.442432	0.062717	-0.066495
O30	O	1.775765	0.396051	0.266839
O31	O	1.018475	-0.441339	-0.190096
O32	O	1.351808	-0.108006	0.143237
O33	O	1.685141	0.225327	0.476571
O34	O	0.899276	-0.441094	-0.309388
O35	O	1.232609	-0.107761	0.023945
O36	O	1.565942	0.225573	0.357278
O37	O	1.018739	-0.569745	-0.519089
O38	O	1.352073	-0.236412	-0.185756
O39	O	1.685406	0.096922	0.147577
O40	O	0.899327	-0.569967	-0.399770
O41	O	1.232660	-0.236634	-0.066436
O42	O	1.565993	0.096700	0.266897
O43	O	1.109165	-0.440704	-0.519114
O44	O	1.442499	-0.107370	-0.185781
O45	O	1.775832	0.225963	0.147552
O46	O	1.108908	-0.740486	-0.309378
O47	O	1.442241	-0.407153	0.023956
O48	O	1.775574	-0.073819	0.357289
O49	O	1.018593	-0.740300	-0.399764
O50	O	1.351926	-0.406967	-0.066430
O51	O	1.685259	-0.073633	0.266903
C52	C	0.872599	-0.505529	-0.354577
C53	C	1.205932	-0.172195	-0.021243
C54	C	1.539265	0.161138	0.312090
C55	C	0.790800	-0.505546	-0.354585
C56	C	1.124133	-0.172213	-0.021252
C57	C	1.457466	0.161121	0.312082
C58	C	0.602652	-0.572756	-0.401587
C59	C	0.935985	-0.239423	-0.068254
C60	C	1.269318	0.093911	0.265079
C61	C	0.525793	-0.572759	-0.401597
C62	C	0.859126	-0.239426	-0.068263
C63	C	1.192459	0.093907	0.265070
C64	C	0.525710	-0.438356	-0.307624
C65	C	0.859044	-0.105023	0.025709
C66	C	1.192377	0.228311	0.359043
C67	C	0.602568	-0.438348	-0.307619
C68	C	0.935901	-0.105015	0.025714
C69	C	1.269234	0.228318	0.359048
C70	C	0.641036	-0.505554	-0.354600
C71	C	0.974370	-0.172221	-0.021266
C72	C	1.307703	0.161112	0.312067
C73	C	0.487320	-0.505565	-0.354614
C74	C	0.820654	-0.172232	-0.021280
C75	C	1.153987	0.161101	0.312053
C76	C	0.403987	-0.505568	-0.354623
C77	C	0.737320	-0.172235	-0.021290
C78	C	1.070653	0.161098	0.312043
C79	C	0.724375	-0.505550	-0.354591
C80	C	1.057709	-0.172217	-0.021258
C81	C	1.391042	0.161117	0.312075
C82	C	1.063761	-0.778514	-0.354582
C83	C	1.397095	-0.445181	-0.021249
C84	C	1.730428	-0.111847	0.312084
C85	C	1.063810	-0.895290	-0.354600
C86	C	1.397143	-0.561957	-0.021267
C87	C	1.730477	-0.228624	0.312066
C88	C	1.110889	-0.950214	-0.307588
C89	C	1.444222	-0.616881	0.025745
C90	C	1.777556	-0.283548	0.359078
C91	C	1.110934	-1.059938	-0.307611
C92	C	1.444268	-0.726605	0.025722
C93	C	1.777601	-0.393272	0.359056
C94	C	1.016815	-1.059805	-0.401660
C95	C	1.350148	-0.726472	-0.068326
C96	C	1.683481	-0.393138	0.265007
C97	C	1.016774	-0.950083	-0.401640
C98	C	1.350107	-0.616750	-0.068307
C99	C	1.683440	-0.283416	0.265026
C100	C	1.157925	-0.895422	-0.260548
C101	C	1.491259	-0.562089	0.072785
C102	C	1.824592	-0.228755	0.406118
C103	C	1.205008	-0.950346	-0.213532
C104	C	1.538341	-0.617012	0.119801
C105	C	1.871674	-0.283679	0.453135
C106	C	1.205053	-1.060070	-0.213555
C107	C	1.538386	-0.726736	0.119779
C108	C	1.871720	-0.393403	0.453112
C109	C	1.158016	-1.114870	-0.260594
C110	C	1.491349	-0.781536	0.072739
C111	C	1.824682	-0.448203	0.406073
C112	C	1.255758	-0.505565	-0.354619
C113	C	1.589091	-0.172232	-0.021286
C114	C	1.922424	0.161101	0.312047
C115	C	1.337557	-0.505573	-0.354628
C116	C	1.670890	-0.172240	-0.021295
C117	C	2.004223	0.161093	0.312038
C118	C	1.063977	-0.505171	-0.546551
C119	C	1.397310	-0.171837	-0.213218
C120	C	1.730644	0.161496	0.120116
C121	C	1.064050	-0.505010	-0.628350
C122	C	1.397384	-0.171677	-0.295017
C123	C	1.730717	0.161656	0.038316
C124	C	1.063869	-0.231513	-0.354629
C125	C	1.397202	0.101820	-0.021296
C126	C	1.730535	0.435154	0.312038
C127	C	1.063896	-0.114736	-0.354643
C128	C	1.397229	0.218597	-0.021309
C129	C	1.730563	0.551930	0.312024
C130	C	1.063676	-0.505845	-0.163391
C131	C	1.397009	-0.172512	0.169942
C132	C	1.730343	0.160822	0.503276
C133	C	1.063745	-0.505709	-0.081592
C134	C	1.397078	-0.172376	0.251741
C135	C	1.730412	0.160957	0.585074
C136	C	1.110664	-0.437636	0.183258
C137	C	1.443997	-0.104302	0.516591
C138	C	1.777330	0.229031	0.849925
C139	C	1.110611	-0.437752	0.106399
C140	C	1.443944	-0.104418	0.439733
C141	C	1.777278	0.228915	0.773066
C142	C	1.017127	-0.573087	0.106805
C143	C	1.350460	-0.239754	0.440138
C144	C	1.683793	0.093579	0.773472
C145	C	1.017176	-0.572965	0.183662
C146	C	1.350509	-0.239632	0.516995
C147	C	1.683843	0.093701	0.850329
C148	C	1.063949	-0.505241	0.221887
C149	C	1.397282	-0.171908	0.555220
C150	C	1.730615	0.161426	0.888553
C151	C	1.063847	-0.505479	0.068171
C152	C	1.397180	-0.172146	0.401504
C153	C	1.730513	0.161188	0.734838
C154	C	1.063789	-0.505605	-0.015163
C155	C	1.397122	-0.172272	0.318171
C156	C	1.730456	0.161062	0.651504
C157	C	1.064005	-0.505113	0.305225
C158	C	1.397339	-0.171780	0.638559
C159	C	1.730672	0.161554	0.971892
H160	H	0.633821	-0.383618	-0.269356
H161	H	0.967155	-0.050285	0.063978
H162	H	1.300488	0.283049	0.397311
Cl163	Cl	0.477345	-0.353876	-0.248564
Cl164	Cl	0.810678	-0.020543	0.084769
Cl165	Cl	1.144011	0.312791	0.418103
H166	H	1.157892	-0.806079	-0.260523
H167	H	1.491225	-0.472746	0.072811
H168	H	1.824558	-0.139412	0.406144
H169	H	0.979130	-0.628017	0.215114
H170	H	1.312463	-0.294683	0.548448
H171	H	1.645796	0.038650	0.881781
H172	H	1.148650	-0.382699	0.074951
H173	H	1.481983	-0.049365	0.408285
H174	H	1.815316	0.283968	0.741618
H175	H	1.243395	-1.104786	-0.175277
H176	H	1.576728	-0.771453	0.158056
H177	H	1.910062	-0.438119	0.491390
H178	H	0.978519	-1.104432	-0.439956
H179	H	1.311852	-0.771099	-0.106623
H180	H	1.645185	-0.437765	0.226711
H181	H	0.979047	-0.628228	0.075673
H182	H	1.312381	-0.294895	0.409006
H183	H	1.645714	0.038438	0.742340
H184	H	0.494543	-0.627480	-0.439860
H185	H	0.827877	-0.294147	-0.106527
H186	H	1.161210	0.039186	0.226807
Cl187	Cl	1.169461	-0.352493	0.231309
Cl188	Cl	1.502794	-0.019159	0.564642
Cl189	Cl	1.836127	0.314174	0.897976
H190	H	1.243308	-0.905722	-0.175238
H191	H	1.576642	-0.572389	0.158095
H192	H	1.909975	-0.239055	0.491428
H193	H	1.158062	-1.204215	-0.260614
H194	H	1.491395	-0.870881	0.072719
H195	H	1.824729	-0.537548	0.406052
Cl196	Cl	0.651010	-0.657239	-0.460652
Cl197	Cl	0.984343	-0.323905	-0.127319
Cl198	Cl	1.317676	0.009428	0.206015
H199	H	0.978438	-0.905364	-0.439922
H200	H	1.311772	-0.572030	-0.106589
H201	H	1.645105	-0.238697	0.226744
