data_functionalizedCrystal
_audit_creation_method	'MofGen! by Chris Wilmer'
_symmetry_space_group_name_H-M	'P1'
_symmetry_Int_Tables_number	1
_symmetry_cell_setting	triclinic
loop_
_symmetry_equiv_pos_as_xyz
  x,y,z
_cell_length_a	19.188925
_cell_length_b	10.654550
_cell_length_c	9.130313
_cell_angle_alpha	90.004369
_cell_angle_beta	89.995528
_cell_angle_gamma	96.186260
loop_
_atom_site_label
_atom_site_type_symbol
_atom_site_fract_x
_atom_site_fract_y
_atom_site_fract_z
O1	O	0.927171	-0.156747	-0.121831
O2	O	1.427171	0.343253	0.378169
O3	O	0.723998	-0.177859	-0.121827
O4	O	1.223998	0.322141	0.378173
O5	O	0.830256	0.015535	-0.121819
O6	O	1.330256	0.515535	0.378181
O7	O	0.820913	-0.350141	-0.121838
O8	O	1.320913	0.149859	0.378162
O9	O	0.830249	0.015541	0.121779
O10	O	1.330249	0.515541	0.621779
O11	O	0.723990	-0.177854	0.121772
O12	O	1.223990	0.322146	0.621772
O13	O	0.927164	-0.156741	0.121768
O14	O	1.427164	0.343259	0.621768
Cu15	Cu	0.825577	-0.167297	0.144013
Cu16	Cu	1.325577	0.332703	0.644013
Cu17	Cu	0.825585	-0.167304	-0.144071
Cu18	Cu	1.325585	0.332696	0.355929
O19	O	0.820906	-0.350136	0.121761
O20	O	1.320906	0.149864	0.621761
C21	C	0.697978	-0.177174	-0.000027
C22	C	1.197978	0.322826	0.499973
C23	C	0.620460	-0.175125	-0.000025
C24	C	1.120460	0.324875	0.499975
C25	C	0.059343	-0.274883	-0.000033
C26	C	0.559343	0.225117	0.499967
C27	C	0.132178	-0.276819	-0.000041
C28	C	0.632178	0.223181	0.499959
C29	C	0.176371	-0.163341	-0.000033
C30	C	0.676371	0.336659	0.499967
C31	C	0.147722	-0.047919	-0.000054
C32	C	0.647722	0.452081	0.499946
C33	C	0.074887	-0.045986	-0.000061
C34	C	0.574887	0.454014	0.499939
N35	N	0.296508	-0.081186	0.082894
N36	N	0.796508	0.418814	0.582894
N37	N	0.365697	-0.083030	0.082903
N38	N	0.865697	0.416970	0.582903
C39	C	0.395818	-0.169158	-0.000016
C40	C	0.895818	0.330842	0.499984
N41	N	0.354134	-0.253392	-0.082927
N42	N	0.854134	0.246608	0.417073
N43	N	0.284938	-0.251551	-0.082930
N44	N	0.784938	0.248449	0.417070
C45	C	0.255349	-0.165425	-0.000027
C46	C	0.755349	0.334575	0.499973
C47	C	0.503435	-0.286673	-0.000014
C48	C	1.003435	0.213327	0.499986
C49	C	0.576273	-0.288604	-0.000031
C50	C	1.076273	0.211396	0.499969
C51	C	0.591815	-0.059701	-0.000029
C52	C	1.091815	0.440299	0.499971
C53	C	0.518979	-0.057773	-0.000027
C54	C	1.018979	0.442227	0.499973
C55	C	0.474793	-0.171262	-0.000012
C56	C	0.974793	0.328738	0.499988
C57	C	0.829566	0.062321	-0.000021
C58	C	1.329566	0.562321	0.499979
C59	C	0.827514	0.201721	-0.000023
C60	C	1.327514	0.701721	0.499977
C61	C	0.953183	-0.157427	-0.000035
C62	C	1.453183	0.342573	0.499965
C63	C	1.030701	-0.159476	-0.000046
C64	C	1.530701	0.340524	0.499954
C65	C	0.821595	-0.396922	-0.000041
C66	C	1.321595	0.103078	0.499959
C67	C	0.823648	-0.536322	-0.000048
C68	C	1.323648	-0.036322	0.499952
N69	N	0.825575	-0.167292	0.346635
N70	N	1.325575	0.332708	0.846635
C71	C	0.890077	0.282533	-0.000025
C72	C	1.390077	0.782533	0.499975
C73	C	0.888144	0.413513	-0.000043
C74	C	1.388144	0.913513	0.499957
C75	C	0.761080	0.382856	-0.000051
C76	C	1.261080	0.882856	0.499949
C77	C	0.763013	0.251879	-0.000043
C78	C	1.263013	0.751879	0.499957
N79	N	0.825592	-0.167299	-0.346694
N80	N	1.325592	0.332701	0.153306
C81	C	0.872643	-0.081692	0.423290
C82	C	1.372643	0.418308	0.923290
C83	C	0.872649	-0.081692	0.576627
C84	C	1.372649	0.418308	1.076627
C85	C	0.778519	-0.252903	0.576641
C86	C	1.278519	0.247097	1.076641
C87	C	0.778510	-0.252896	0.423307
C88	C	1.278510	0.247104	0.923307
H89	H	0.183708	0.044475	-0.000052
H90	H	0.683708	0.544475	0.499948
Br91	Br	0.615144	-0.445242	-0.000035
Br92	Br	1.115144	0.054758	0.499965
Br93	Br	0.936516	0.034486	0.319242
Br94	Br	1.436516	0.534486	0.819242
H95	H	0.910975	-0.011988	0.639036
H96	H	1.410975	0.488012	1.139036
Br97	Br	0.714648	-0.369077	0.680699
Br98	Br	1.214648	0.130923	1.180699
Br99	Br	0.977613	0.214465	0.000004
Br100	Br	1.477613	0.714465	0.500004
H101	H	0.051569	0.047995	-0.000072
H102	H	0.551569	0.547995	0.499928
Br103	Br	0.973055	0.523182	-0.000054
Br104	Br	1.473055	1.023182	0.499946
Br105	Br	0.678100	0.142196	-0.000061
Br106	Br	1.178100	0.642196	0.499939
H107	H	0.708566	0.423711	-0.000064
H108	H	1.208566	0.923711	0.499936
H109	H	0.740179	-0.322601	0.360890
H110	H	1.240179	0.177399	0.860890
H111	H	0.023370	-0.367295	-0.000028
H112	H	0.523370	0.132705	0.499972
Br113	Br	0.443465	-0.440689	0.000005
Br114	Br	0.943465	0.059311	0.500005
Br115	Br	0.171059	-0.433454	-0.000024
Br116	Br	0.671059	0.066546	0.499976
H117	H	0.495660	0.036205	-0.000029
H118	H	0.995660	0.536205	0.499971
H119	H	0.627796	0.032695	-0.000034
H120	H	1.127796	0.532695	0.499966
