data_functionalizedCrystal
_audit_creation_method	'MofGen! by Chris Wilmer'
_symmetry_space_group_name_H-M	'P1'
_symmetry_Int_Tables_number	1
_symmetry_cell_setting	triclinic
loop_
_symmetry_equiv_pos_as_xyz
  x,y,z
_cell_length_a	18.050591
_cell_length_b	19.121063
_cell_length_c	18.050582
_cell_angle_alpha	92.414363
_cell_angle_beta	89.978183
_cell_angle_gamma	92.465257
loop_
_atom_site_label
_atom_site_type_symbol
_atom_site_fract_x
_atom_site_fract_y
_atom_site_fract_z
Zn1	Zn	1.122683	-0.279729	-0.432630
Zn2	Zn	1.622683	0.220271	0.067370
Zn3	Zn	1.117295	-0.397174	-0.313729
Zn4	Zn	1.617295	0.102826	0.186271
Zn5	Zn	0.998500	-0.279733	-0.308441
Zn6	Zn	1.498500	0.220267	0.191559
Zn7	Zn	0.993155	-0.397136	-0.437863
Zn8	Zn	1.493155	0.102864	0.062137
O9	O	1.057909	-0.338443	-0.373165
O10	O	1.557909	0.161557	0.126835
O11	O	1.225892	-0.295323	-0.416880
O12	O	1.725892	0.204677	0.083120
O13	O	1.101519	-0.381613	-0.209104
O14	O	1.601519	0.118387	0.290896
O15	O	1.019465	-0.181448	-0.320512
O16	O	1.519465	0.318552	0.179488
O17	O	1.221934	-0.381609	-0.329524
O18	O	1.721934	0.118391	0.170476
O19	O	1.110702	-0.181445	-0.411752
O20	O	1.610702	0.318555	0.088248
O21	O	1.014241	-0.295330	-0.205218
O22	O	1.514241	0.204670	0.294782
O23	O	0.893867	-0.295292	-0.325586
O24	O	1.393867	0.204708	0.174414
O25	O	1.010356	-0.381543	-0.541092
O26	O	1.510356	0.118457	-0.041092
O27	O	0.889940	-0.381548	-0.420672
O28	O	1.389940	0.118452	0.079328
O29	O	1.105519	-0.295285	-0.537248
O30	O	1.605519	0.204715	-0.037248
O31	O	1.096336	-0.495454	-0.334599
O32	O	1.596336	0.004546	0.165401
O33	O	1.005131	-0.495425	-0.425799
O34	O	1.505131	0.004575	0.074201
C35	C	0.864958	-0.338417	-0.373123
C36	C	1.364958	0.161583	0.126877
C37	C	0.782412	-0.338422	-0.373124
C38	C	1.282412	0.161578	0.126876
C39	C	1.049589	-0.520924	-0.381357
C40	C	1.549589	-0.020924	0.118643
C41	C	1.046098	-0.598990	-0.384886
C42	C	1.546098	-0.098990	0.115114
C43	C	0.585077	-0.291463	-0.321528
C44	C	1.085077	0.208537	0.178472
C45	C	0.532768	-0.355523	-0.306137
C46	C	1.032768	0.144477	0.193863
C47	C	0.631280	-0.338444	-0.373158
C48	C	1.131280	0.161556	0.126842
C49	C	0.536507	-0.274406	-0.388548
C50	C	1.036507	0.225594	0.111452
C51	C	0.485294	-0.338459	-0.373190
C52	C	0.985294	0.161541	0.126810
C53	C	0.580057	-0.402538	-0.357733
C54	C	1.080057	0.097462	0.142267
C55	C	0.583802	-0.321378	-0.440174
C56	C	1.083802	0.178622	0.059826
C57	C	0.531513	-0.385482	-0.424811
C58	C	1.031513	0.114518	0.075189
C59	C	0.715379	-0.338434	-0.373138
C60	C	1.215379	0.161566	0.126862
C61	C	0.401197	-0.338475	-0.373210
C62	C	0.901197	0.161525	0.126790
C63	C	1.091980	-0.635657	-0.339100
C64	C	1.591980	-0.135657	0.160900
C65	C	1.088701	-0.709008	-0.342423
C66	C	1.588701	-0.209008	0.157577
C67	C	1.039535	-0.745691	-0.391530
C68	C	1.539535	-0.245691	0.108470
C69	C	0.993651	-0.709019	-0.437321
C70	C	1.493651	-0.209019	0.062679
C71	C	0.996935	-0.635669	-0.434000
C72	C	1.496935	-0.135669	0.066000
C73	C	1.027248	-0.967161	-0.403932
C74	C	1.527248	-0.467161	0.096068
C75	C	1.023966	-1.040516	-0.407247
C76	C	1.523966	-0.540516	0.092753
C77	C	1.119017	-1.040501	-0.312350
C78	C	1.619017	-0.540501	0.187650
C79	C	1.122293	-0.967149	-0.309031
C80	C	1.622293	-0.467149	0.190969
C81	C	1.076412	-0.930483	-0.354825
C82	C	1.576412	-0.430483	0.145175
C83	C	1.036181	-0.820668	-0.394926
C84	C	1.536181	-0.320668	0.105074
C85	C	1.079771	-0.855508	-0.351432
C86	C	1.579771	-0.355508	0.148568
C87	C	1.251613	-0.338470	-0.373208
C88	C	1.751613	0.161530	0.126792
C89	C	1.334158	-0.338481	-0.373227
C90	C	1.834158	0.161519	0.126773
C91	C	1.057942	-0.338409	-0.566870
C92	C	1.557942	0.161591	-0.066870
C93	C	1.057956	-0.338395	-0.649415
C94	C	1.557956	0.161605	-0.149415
C95	C	1.066281	-0.155250	-0.364958
C96	C	1.566281	0.344750	0.135042
C97	C	1.069849	-0.077183	-0.361461
C98	C	1.569849	0.422817	0.138539
C99	C	1.006256	-0.385226	-0.900328
C100	C	1.506256	0.114774	-0.400328
C101	C	0.991005	-0.321164	-0.848053
C102	C	1.491005	0.178836	-0.348053
C103	C	1.058024	-0.338292	-0.946531
C104	C	1.558024	0.161708	-0.446531
C105	C	1.073207	-0.402402	-0.851726
C106	C	1.573207	0.097598	-0.351726
C107	C	1.057989	-0.338346	-0.800548
C108	C	1.557989	0.161654	-0.300548
C109	C	1.042740	-0.274195	-0.895342
C110	C	1.542740	0.225805	-0.395342
C111	C	1.124971	-0.355477	-0.899021
C112	C	1.624971	0.144523	-0.399021
C113	C	1.109747	-0.291370	-0.846766
C114	C	1.609747	0.208630	-0.346766
C115	C	1.058042	-0.338262	-1.030628
C116	C	1.558042	0.161738	-0.530628
C117	C	1.057971	-0.338369	-0.716452
C118	C	1.557971	0.161631	-0.216452
C119	C	1.057920	-0.338426	-0.180213
C120	C	1.557920	0.161574	0.319787
C121	C	1.058059	-0.338242	-0.097659
C122	C	1.558059	0.161758	0.402341
H123	H	0.608524	-0.251775	-0.277822
H124	H	1.108524	0.248225	0.222178
Br125	Br	0.495448	-0.379603	-0.211701
Br126	Br	0.995448	0.120397	0.288299
H127	H	0.996149	-0.850543	-0.434907
H128	H	1.496149	-0.350543	0.065093
Br129	Br	1.189030	-0.917370	-0.242394
Br130	Br	1.689030	-0.417370	0.257606
Br131	Br	0.492650	-0.451785	-0.497612
Br132	Br	0.992650	0.048215	0.002388
H133	H	1.086064	-0.456596	-0.832473
H134	H	1.586064	0.043404	-0.332473
H135	H	0.517242	-0.220251	-0.401527
H136	H	1.017242	0.279749	0.098473
H137	H	0.599192	-0.456716	-0.344666
H138	H	1.099192	0.043284	0.155334
H139	H	0.606210	-0.306912	-0.496816
H140	H	1.106210	0.193088	0.003184
Br141	Br	0.933270	-0.451259	-0.939412
Br142	Br	1.433270	0.048741	-0.439412
H143	H	0.953623	-0.738892	-0.477307
H144	H	1.453623	-0.238892	0.022693
H145	H	1.132013	-0.605794	-0.299109
H146	H	1.632013	-0.105794	0.200891
H147	H	1.156373	-1.070362	-0.275069
H148	H	1.656373	-0.570362	0.224931
Br149	Br	1.150977	-0.758768	-0.280287
Br150	Br	1.650977	-0.258768	0.219713
H151	H	0.934375	-0.306647	-0.825690
H152	H	1.434375	0.193353	-0.325690
H153	H	0.983939	-1.070382	-0.447248
H154	H	1.483939	-0.570382	0.052752
H155	H	0.959573	-0.605815	-0.471285
H156	H	1.459573	-0.105815	0.028715
Br157	Br	0.964980	-0.917410	-0.466081
Br158	Br	1.464980	-0.417410	0.033919
H159	H	1.119804	-0.825638	-0.311452
H160	H	1.619804	-0.325638	0.188548
H161	H	1.029819	-0.219985	-0.914504
H162	H	1.529819	0.280015	-0.414504
Br163	Br	1.182695	-0.225183	-0.807906
Br164	Br	1.682695	0.274817	-0.307906
H165	H	1.181583	-0.370012	-0.921400
H166	H	1.681583	0.129988	-0.421400
