data_functionalizedCrystal
_audit_creation_method	'MofGen! by Chris Wilmer'
_symmetry_space_group_name_H-M	'P1'
_symmetry_Int_Tables_number	1
_symmetry_cell_setting	triclinic
loop_
_symmetry_equiv_pos_as_xyz
  x,y,z
_cell_length_a	19.288859
_cell_length_b	16.974813
_cell_length_c	17.766277
_cell_angle_alpha	86.339073
_cell_angle_beta	89.989768
_cell_angle_gamma	83.264704
loop_
_atom_site_label
_atom_site_type_symbol
_atom_site_fract_x
_atom_site_fract_y
_atom_site_fract_z
O1	O	0.921533	0.098615	-0.068615
O2	O	1.421533	0.598615	0.431385
O3	O	0.719296	0.111926	-0.069424
O4	O	1.219296	0.611926	0.430576
O5	O	0.826052	-0.009853	-0.062003
O6	O	1.326052	0.490147	0.437997
O7	O	0.814777	0.220395	-0.076035
O8	O	1.314777	0.720395	0.423965
O9	O	0.826033	-0.009859	0.063186
O10	O	1.326033	0.490141	0.563186
O11	O	0.719277	0.111920	0.055765
O12	O	1.219277	0.611920	0.555765
O13	O	0.921514	0.098609	0.056574
O14	O	1.421514	0.598609	0.556574
Cu15	Cu	0.820394	0.105264	0.067600
Cu16	Cu	1.320394	0.605264	0.567600
Cu17	Cu	0.820416	0.105271	-0.080450
Cu18	Cu	1.320416	0.605271	0.419550
O19	O	0.814759	0.220388	0.049154
O20	O	1.314759	0.720388	0.549154
C21	C	0.693409	0.111496	-0.006803
C22	C	1.193409	0.611496	0.493197
C23	C	0.616303	0.110212	-0.006724
C24	C	1.116303	0.610212	0.493276
C25	C	0.052375	0.172986	-0.010551
C26	C	0.552375	0.672986	0.489449
C27	C	0.124824	0.174199	-0.010629
C28	C	0.624824	0.674199	0.489371
C29	C	0.169402	0.102744	-0.006273
C30	C	0.669402	0.602744	0.493727
C31	C	0.141526	0.030071	-0.001858
C32	C	0.641526	0.530071	0.498142
C33	C	0.069079	0.028861	-0.001787
C34	C	0.569079	0.528861	0.498213
C35	C	0.290570	0.049451	0.040837
C36	C	0.790570	0.549451	0.540837
C37	C	0.363016	0.050665	0.040771
C38	C	0.863016	0.550665	0.540771
C39	C	0.392855	0.106475	-0.006492
C40	C	0.892855	0.606475	0.493508
C41	C	0.350237	0.161085	-0.053681
C42	C	0.850237	0.661085	0.446319
C43	C	0.277790	0.159874	-0.053611
C44	C	0.777790	0.659874	0.446389
C45	C	0.247960	0.104049	-0.006349
C46	C	0.747960	0.604049	0.493651
C47	C	0.499279	0.180458	-0.010997
C48	C	0.999279	0.680458	0.489003
C49	C	0.571730	0.181668	-0.011079
C50	C	1.071730	0.681668	0.488921
C51	C	0.588431	0.037538	-0.002300
C52	C	1.088431	0.537538	0.497700
C53	C	0.515982	0.036331	-0.002226
C54	C	1.015982	0.536331	0.497774
C55	C	0.471410	0.107793	-0.006570
C56	C	0.971410	0.607793	0.493430
C57	C	0.825613	-0.039313	0.002385
C58	C	1.325613	0.460687	0.502385
C59	C	0.824326	-0.127086	0.007729
C60	C	1.324326	0.372914	0.507729
C61	C	0.823734	-0.168313	-0.058000
C62	C	1.323734	0.331687	0.442000
C63	C	0.822520	-0.250784	-0.052976
C64	C	1.322520	0.249216	0.447024
C65	C	0.821904	-0.292026	0.017778
C66	C	1.321904	0.207974	0.517778
C67	C	0.822495	-0.250792	0.083512
C68	C	1.322495	0.249208	0.583512
C69	C	0.823703	-0.168322	0.078487
C70	C	1.323703	0.331678	0.578487
C71	C	0.818283	-0.538675	0.040124
C72	C	1.318283	-0.038675	0.540124
C73	C	0.817077	-0.621151	0.045143
C74	C	1.317077	-0.121151	0.545143
C75	C	0.817101	-0.621137	-0.091345
C76	C	1.317101	-0.121137	0.408655
C77	C	0.818313	-0.538666	-0.096364
C78	C	1.318313	-0.038666	0.403636
C79	C	0.818900	-0.497439	-0.030630
C80	C	1.318900	0.002561	0.469370
N81	N	0.820666	-0.376325	0.022915
N82	N	1.320666	0.123675	0.522915
N83	N	0.820134	-0.413141	-0.035767
N84	N	1.320134	0.086859	0.464233
C85	C	0.947401	0.099039	-0.006048
C86	C	1.447401	0.599039	0.493952
C87	C	1.024507	0.100323	-0.006132
C88	C	1.524507	0.600323	0.493868
C89	C	0.815197	0.249848	-0.015236
C90	C	1.315197	0.749848	0.484764
C91	C	0.816484	0.337621	-0.020586
C92	C	1.316484	0.837621	0.479414
N93	N	0.820384	0.105258	0.171731
N94	N	1.320384	0.605258	0.671731
N95	N	0.820432	0.105271	-0.184580
N96	N	1.320432	0.605271	0.315420
C97	C	0.867670	0.051361	0.214402
C98	C	1.367670	0.551361	0.714402
C99	C	0.867674	0.051357	0.293204
C100	C	1.367674	0.551357	0.793204
C101	C	0.820398	0.105265	0.329331
C102	C	1.320398	0.605265	0.829331
C103	C	0.773103	0.159166	0.286650
C104	C	1.273103	0.659166	0.786650
C105	C	0.773095	0.159163	0.207850
C106	C	1.273095	0.659163	0.707850
C107	C	0.811229	0.177310	0.449779
C108	C	1.311229	0.677310	0.949779
C109	C	0.811241	0.177314	0.528577
C110	C	1.311241	0.677314	1.028577
C111	C	0.820417	0.105274	0.572377
C112	C	1.320417	0.605274	1.072377
C113	C	0.829595	0.033227	0.537369
C114	C	1.329595	0.533227	1.037369
C115	C	0.829588	0.033224	0.458569
C116	C	1.329588	0.533224	0.958569
C117	C	0.820401	0.105274	0.414776
C118	C	1.320401	0.605274	0.914776
C119	C	0.867711	0.051368	0.700495
C120	C	1.367711	0.551368	1.200495
C121	C	0.867710	0.051363	0.779298
C122	C	1.367710	0.551363	1.279298
C123	C	0.773141	0.159179	0.772742
C124	C	1.273141	0.659179	1.272742
C125	C	0.773139	0.159177	0.693941
C126	C	1.273139	0.659177	1.193941
C127	C	0.820427	0.105272	0.657821
C128	C	1.320427	0.605272	1.157821
H129	H	0.016089	0.231176	-0.014092
H130	H	0.516089	0.731176	0.485908
H131	H	0.906174	0.007466	0.184996
H132	H	1.406174	0.507466	0.684996
H133	H	0.837059	-0.025439	0.430068
H134	H	1.337059	0.474561	0.930068
H135	H	0.734636	0.203069	0.659195
H136	H	1.234636	0.703069	1.159195
N137	N	0.839496	-0.044480	0.584597
N138	N	1.339496	0.455520	1.084597
H139	H	0.838105	-0.033550	0.639829
H140	H	1.338105	0.466450	1.139829
H141	H	0.800914	-0.077298	0.572835
H142	H	1.300914	0.422702	1.072835
H143	H	0.624726	-0.020641	0.001241
H144	H	1.124726	0.479359	0.501241
N145	N	0.722114	0.217308	0.325616
N146	N	1.222114	0.717308	0.825616
H147	H	0.730052	0.273405	0.308474
H148	H	1.230052	0.773405	0.808474
H149	H	0.672850	0.208272	0.312455
H150	H	1.172850	0.708272	0.812455
H151	H	0.906214	0.007473	0.671085
H152	H	1.406214	0.507473	1.171085
N153	N	0.819051	-0.494199	-0.172677
N154	N	1.319051	0.005801	0.327323
H155	H	0.819935	-0.435703	-0.165886
H156	H	1.319935	0.064297	0.334114
H157	H	0.861909	-0.515217	-0.201135
H158	H	1.361909	-0.015217	0.298865
N159	N	0.918718	-0.006765	0.825329
N160	N	1.418718	0.493235	1.325329
H161	H	0.949432	0.023376	0.856174
H162	H	1.449432	0.523376	1.356174
H163	H	0.892169	-0.041687	0.860120
H164	H	1.392169	0.458313	1.360120
N165	N	0.601791	0.260044	-0.015859
N166	N	1.101791	0.760044	0.484141
H167	H	0.562559	0.305128	-0.018602
H168	H	1.062559	0.805128	0.481398
H169	H	0.631483	0.263682	0.030325
H170	H	1.131483	0.763682	0.530325
H171	H	0.266282	0.004000	0.079327
H172	H	0.766282	0.504000	0.579327
H173	H	0.734645	0.203069	0.802156
H174	H	1.234645	0.703069	1.302156
H175	H	0.816621	-0.654713	-0.144862
H176	H	1.316621	-0.154713	0.355138
N177	N	0.451202	0.257531	-0.015699
N178	N	0.951202	0.757531	0.484301
H179	H	0.401077	0.245739	-0.014980
H180	H	0.901077	0.745739	0.485020
H181	H	0.460211	0.289210	0.028778
H182	H	0.960211	0.789210	0.528778
N183	N	0.722089	0.217295	0.161821
N184	N	1.222089	0.717295	0.661821
H185	H	0.692136	0.251444	0.196661
H186	H	1.192136	0.751444	0.696661
H187	H	0.748639	0.252175	0.126989
H188	H	1.248639	0.752175	0.626989
N189	N	0.801338	0.255016	0.566333
N190	N	1.301338	0.755016	1.066333
H191	H	0.795513	0.300652	0.526631
H192	H	1.295513	0.800652	1.026631
H193	H	0.758352	0.256786	0.598931
H194	H	1.258352	0.756786	1.098931
H195	H	0.824239	-0.134740	-0.115615
H196	H	1.324239	0.365260	0.384385
N197	N	0.816415	-0.665638	0.121460
N198	N	1.316415	-0.165638	0.621460
H199	H	0.816969	-0.627007	0.162340
H200	H	1.316969	-0.127007	0.662340
H201	H	0.772877	-0.693296	0.126113
H202	H	1.272877	-0.193296	0.626113
H203	H	0.818775	-0.505120	0.093649
H204	H	1.318775	-0.005120	0.593649
H205	H	0.822040	-0.284349	-0.106499
H206	H	1.322040	0.215651	0.393501
H207	H	0.374530	0.206532	-0.092166
H208	H	0.874530	0.706532	0.407834
N209	N	0.801333	0.255014	0.402540
N210	N	1.301333	0.755014	0.902540
H211	H	0.795528	0.300654	0.436673
H212	H	1.295528	0.800654	0.936673
H213	H	0.843522	0.259502	0.369561
H214	H	1.343522	0.759502	0.869561
N215	N	0.485919	-0.042042	0.002546
N216	N	0.985919	0.457958	0.502546
H217	H	0.525150	-0.087126	0.005295
H218	H	1.025150	0.412874	0.505295
H219	H	0.456215	-0.045686	0.049177
H220	H	0.956215	0.454314	0.549177
N221	N	0.231828	0.218761	-0.104514
N222	N	0.731828	0.718761	0.395486
H223	H	0.205145	0.189216	-0.140218
H224	H	0.705145	0.689216	0.359782
H225	H	0.197866	0.252202	-0.072908
H226	H	0.697866	0.752202	0.427092
N227	N	0.039023	-0.049519	0.002988
N228	N	0.539023	0.450481	0.502988
H229	H	0.009331	-0.053236	0.049623
H230	H	0.509331	0.446764	0.549623
H231	H	0.009378	-0.053185	-0.043225
H232	H	0.509378	0.446815	0.456775
N233	N	0.408977	-0.008239	0.091660
N234	N	0.908977	0.491761	0.591660
H235	H	0.459399	0.000998	0.084447
H236	H	0.959399	0.500998	0.584447
H237	H	0.395446	-0.001072	0.145931
H238	H	0.895446	0.498928	0.645931
N239	N	0.154894	0.252574	-0.015396
N240	N	0.654894	0.752574	0.484604
H241	H	0.115664	0.297660	-0.018139
H242	H	0.615664	0.797660	0.481861
H243	H	0.184579	0.256203	0.030795
H244	H	0.684579	0.756203	0.530795
H245	H	0.177827	-0.028108	0.001687
H246	H	0.677827	0.471892	0.501687
H247	H	0.821989	-0.284378	0.141122
H248	H	1.321989	0.215622	0.641122
H249	H	0.824176	-0.134754	0.132011
H250	H	1.324176	0.365246	0.632011
N251	N	0.918676	-0.006779	0.339241
N252	N	1.418676	0.493221	0.839241
H253	H	0.948630	-0.040929	0.304403
H254	H	1.448630	0.459071	0.804403
H255	H	0.949350	0.023410	0.370083
H256	H	1.449350	0.523410	0.870083
