data_functionalizedCrystal
_audit_creation_method	'MofGen! by Chris Wilmer'
_symmetry_space_group_name_H-M	'P1'
_symmetry_Int_Tables_number	1
_symmetry_cell_setting	triclinic
loop_
_symmetry_equiv_pos_as_xyz
  x,y,z
_cell_length_a	12.837943
_cell_length_b	19.188930
_cell_length_c	11.295483
_cell_angle_alpha	94.076039
_cell_angle_beta	85.461227
_cell_angle_gamma	88.986861
loop_
_atom_site_label
_atom_site_type_symbol
_atom_site_fract_x
_atom_site_fract_y
_atom_site_fract_z
O1	O	1.381633	0.177215	-0.099031
O2	O	1.079869	0.168252	-0.099037
O3	O	1.239458	0.071676	-0.099010
O4	O	1.222044	0.273791	-0.099057
O5	O	1.225441	0.080144	0.099038
O6	O	1.065852	0.176720	0.099012
O7	O	1.367616	0.185683	0.099017
Cu8	Cu	1.215454	0.181975	0.117098
Cu9	Cu	1.232031	0.171960	-0.117117
O10	O	1.208027	0.282259	0.098991
C11	C	1.034253	0.169458	-0.000013
C12	C	0.919217	0.160427	-0.000014
C13	C	0.677767	0.268994	-0.000022
C14	C	0.569680	0.260512	-0.000022
C15	C	0.594953	0.134982	-0.000006
C16	C	0.703040	0.143464	-0.000006
C17	C	0.744443	0.210472	-0.000016
C18	C	0.852533	0.218953	-0.000024
C19	C	0.877803	0.093423	0.000001
C20	C	0.769716	0.084941	0.000001
C21	C	1.231885	0.049861	0.000017
C22	C	1.230191	-0.027760	0.000027
C23	C	1.323833	-0.066260	0.000035
C24	C	1.322244	-0.139194	0.000016
C25	C	1.227005	-0.173623	0.000013
C26	C	1.133352	-0.135114	-0.000001
C27	C	1.134944	-0.062182	0.000006
N28	N	1.149437	-0.283739	0.067411
N29	N	1.147930	-0.353022	0.067407
C30	C	1.222201	-0.393362	-0.000011
N31	N	1.298051	-0.361803	-0.067410
N32	N	1.299560	-0.292515	-0.067400
C33	C	1.225268	-0.252705	0.000005
C34	C	1.314126	-0.510946	-0.000026
C35	C	1.312534	-0.583882	-0.000052
C36	C	1.123638	-0.579799	-0.000057
C37	C	1.125234	-0.506866	-0.000043
C38	C	1.220481	-0.472444	-0.000021
C39	C	1.413232	0.184477	-0.000009
C40	C	1.528268	0.193508	-0.000016
C41	C	1.215600	0.304074	-0.000039
C42	C	1.217295	0.381694	-0.000057
N43	N	1.203803	0.189018	0.281832
N44	N	1.243691	0.164912	-0.281852
C45	C	1.327566	0.114169	0.531142
C46	C	1.318768	0.119497	0.655804
C47	C	1.177405	0.204999	0.655821
C48	C	1.186202	0.199671	0.531159
C49	C	1.261286	0.154255	0.468824
C50	C	1.270089	0.148931	0.344159
C51	C	1.128721	0.234429	0.344179
C52	C	1.119923	0.239757	0.468841
H53	H	0.711478	0.323555	-0.000032
H54	H	0.515395	0.308167	-0.000024
H55	H	0.735989	0.030385	0.000023
H56	H	0.561216	0.080430	0.000101
H57	H	1.401391	-0.038239	0.000048
H58	H	1.388792	-0.615228	-0.000053
O59	O	1.383263	0.080530	0.716157
C60	C	1.524356	-0.004875	0.702979
C61	C	1.451397	0.039231	0.634483
H62	H	1.579445	-0.038287	0.636976
H63	H	1.571946	0.031181	0.761293
H64	H	1.475627	-0.040209	0.761391
H65	H	1.500046	0.074570	0.576006
H66	H	1.403803	0.003135	0.576244
O67	O	1.104327	0.249023	0.716338
C68	C	0.921260	0.279506	0.754482
C69	C	1.003913	0.229593	0.685890
H70	H	0.840058	0.263824	0.729871
H71	H	0.926270	0.276412	0.854297
H72	H	0.936279	0.335270	0.729994
H73	H	0.988949	0.173807	0.710278
H74	H	0.998883	0.232748	0.586091
H75	H	1.331228	0.111953	0.293407
H76	H	1.058687	-0.030834	0.000001
H77	H	1.388709	0.077195	0.480388
O78	O	0.942544	0.036539	-0.000202
C79	C	1.004418	-0.072561	-0.102761
C80	C	0.931070	-0.008170	-0.102687
H81	H	0.995151	-0.108732	-0.185598
H82	H	1.088811	-0.055036	-0.102843
H83	H	0.983538	-0.101607	-0.019836
H84	H	0.951856	0.020905	-0.185597
H85	H	0.846697	-0.025740	-0.102543
H86	H	1.046093	-0.607831	-0.000065
H87	H	1.048980	-0.475518	-0.000042
O88	O	1.413303	-0.176495	0.000080
C89	C	1.600831	-0.172855	0.000036
C90	C	1.497783	-0.130529	-0.000009
H91	H	1.669161	-0.135710	-0.000061
H92	H	1.599001	-0.203548	0.082937
H93	H	1.610618	-0.210655	-0.082829
H94	H	1.487931	-0.092692	0.082799
H95	H	1.499660	-0.099884	-0.082965
H96	H	1.391682	-0.482919	-0.000014
O97	O	1.040913	-0.168640	-0.000160
C98	C	0.936732	-0.252961	-0.102810
C99	C	1.041477	-0.215056	-0.102756
H100	H	0.937144	-0.290486	-0.185763
H101	H	0.925383	-0.283517	-0.019985
H102	H	0.870086	-0.212897	-0.102756
H103	H	1.108185	-0.255073	-0.102852
H104	H	1.052734	-0.184488	-0.185574
H105	H	1.074755	0.267072	0.293425
O106	O	0.892579	0.284093	0.000021
C107	C	0.856103	0.407704	-0.000057
C108	C	0.810616	0.333972	-0.000085
H109	H	0.789860	0.448050	-0.000168
H110	H	0.900172	0.418399	0.082845
H111	H	0.911974	0.411240	-0.082921
H112	H	0.754703	0.330383	0.082723
H113	H	0.766611	0.323309	-0.083041
O114	O	1.046852	0.283789	0.529348
C115	C	0.863791	0.314295	0.567475
C116	C	0.946433	0.264368	0.498901
H117	H	0.782586	0.298620	0.542865
H118	H	0.868796	0.311210	0.667293
H119	H	0.878826	0.370054	0.542970
H120	H	0.931453	0.208587	0.523306
H121	H	0.941409	0.267513	0.399099
