data_functionalizedCrystal
_audit_creation_method	'MofGen! by Chris Wilmer'
_symmetry_space_group_name_H-M	'P1'
_symmetry_Int_Tables_number	1
_symmetry_cell_setting	triclinic
loop_
_symmetry_equiv_pos_as_xyz
  x,y,z
_cell_length_a	17.019383
_cell_length_b	17.019294
_cell_length_c	9.482900
_cell_angle_alpha	95.486421
_cell_angle_beta	76.889709
_cell_angle_gamma	83.133350
loop_
_atom_site_label
_atom_site_type_symbol
_atom_site_fract_x
_atom_site_fract_y
_atom_site_fract_z
O1	O	1.073521	0.073571	-0.264367
O2	O	0.841078	0.089142	-0.237248
O3	O	0.962321	-0.032097	-0.237225
O4	O	0.952278	0.194810	-0.264389
O5	O	0.937646	-0.007420	0.004562
O6	O	0.816403	0.113819	0.004540
O7	O	1.048846	0.098248	-0.022579
Cu8	Cu	0.930371	0.108287	0.013057
Cu9	Cu	0.959553	0.079103	-0.272884
O10	O	0.927603	0.219487	-0.022602
C11	C	0.798971	0.101374	-0.112618
C12	C	0.710268	0.101049	-0.101484
C13	C	0.682037	0.087447	-0.228041
C14	C	0.598687	0.087156	-0.217560
C15	C	0.543570	0.100460	-0.080519
C16	C	0.571806	0.114065	0.046047
C17	C	0.655154	0.114362	0.035564
C18	C	0.291241	0.100242	-0.042273
C19	C	0.207888	0.099942	-0.031799
C20	C	0.234776	0.073034	-0.295407
C21	C	0.318124	0.073327	-0.305878
C22	C	0.346352	0.086936	-0.179312
C23	C	0.458373	0.100160	-0.069802
C24	C	0.431547	0.087241	-0.190031
C25	C	0.949116	-0.048765	-0.112593
C26	C	0.946522	-0.135197	-0.101452
C27	C	0.958756	-0.189250	-0.228016
C28	C	0.956313	-0.270460	-0.217543
C29	C	0.941642	-0.297617	-0.080506
C30	C	0.929405	-0.243557	0.046068
C31	C	0.931842	-0.162348	0.035594
C32	C	0.933604	-0.542145	-0.042288
C33	C	0.931170	-0.623361	-0.031824
C34	C	0.958076	-0.650259	-0.295436
C35	C	0.960517	-0.569047	-0.305898
C36	C	0.948276	-0.514993	-0.179324
C37	C	0.939147	-0.380627	-0.069798
C38	C	0.950766	-0.431984	-0.190033
C39	C	1.090953	0.086015	-0.147213
C40	C	1.179658	0.086340	-0.158356
C41	C	0.940808	0.236155	-0.147237
C42	C	0.943403	0.322586	-0.158387
N43	N	0.909853	0.128813	0.214173
N44	N	0.980078	0.058571	-0.474000
C45	C	0.936435	0.102231	0.453791
C46	C	0.953502	0.085147	0.286379
H47	H	0.211783	0.061956	-0.398450
H48	H	0.859848	0.178839	0.276285
N49	N	0.923344	-0.409925	0.078000
H50	H	0.872319	-0.436037	0.093536
H51	H	0.971201	-0.449976	0.082784
H52	H	1.030073	0.008543	0.463884
H53	H	0.726909	0.076610	-0.339634
N54	N	0.976406	-0.539802	-0.453739
H55	H	1.027452	-0.513724	-0.469214
H56	H	0.983761	-0.586431	-0.532191
H57	H	0.962705	-0.409869	-0.301607
H58	H	0.886434	0.152254	0.515907
N59	N	1.019723	0.018865	0.204123
H60	H	1.022523	0.016051	0.096191
H61	H	1.073825	0.029767	0.222489
N62	N	0.568238	0.072479	-0.354059
H63	H	0.615802	0.064088	-0.442462
H64	H	0.540145	0.023435	-0.350120
H65	H	0.362997	0.062487	-0.417470
N66	N	0.490996	0.072887	-0.337829
H67	H	0.488273	0.018618	-0.388303
H68	H	0.476439	0.115327	-0.398843
N69	N	0.971277	-0.708557	-0.431948
H70	H	0.967507	-0.764125	-0.404525
H71	H	0.928158	-0.693246	-0.486028
H72	H	0.413488	0.110991	0.041777
N73	N	0.148442	0.114290	0.116021
H74	H	0.179040	0.122416	0.194660
H75	H	0.107705	0.163399	0.121147
H76	H	0.970707	-0.167147	-0.339607
H77	H	0.314214	0.111318	0.060787
H78	H	0.678136	0.125441	0.138620
N79	N	0.512357	0.128419	0.193853
H80	H	0.482299	0.081010	0.208587
H81	H	0.543066	0.136040	0.272454
N82	N	0.969622	-0.328777	-0.354063
H83	H	0.979329	-0.299257	-0.442468
H84	H	1.018638	-0.369991	-0.360619
N85	N	0.915348	-0.652655	0.115987
H86	H	0.907962	-0.606090	0.194584
H87	H	0.864336	-0.678781	0.131370
H88	H	0.923652	-0.498146	0.060777
H89	H	0.921869	-0.118336	0.138657
N90	N	0.913589	-0.272844	0.193875
H91	H	0.913908	-0.332494	0.181307
H92	H	0.957566	-0.259758	0.244277
