data_functionalizedCrystal
_audit_creation_method	'MofGen! by Chris Wilmer'
_symmetry_space_group_name_H-M	'P1'
_symmetry_Int_Tables_number	1
_symmetry_cell_setting	triclinic
loop_
_symmetry_equiv_pos_as_xyz
  x,y,z
_cell_length_a	18.215407
_cell_length_b	12.759399
_cell_length_c	18.215399
_cell_angle_alpha	90.024962
_cell_angle_beta	90.017368
_cell_angle_gamma	90.012559
loop_
_atom_site_label
_atom_site_type_symbol
_atom_site_fract_x
_atom_site_fract_y
_atom_site_fract_z
Zn1	Zn	1.125122	-0.418349	0.416083
Zn2	Zn	1.125051	-0.594046	0.293023
Zn3	Zn	1.002054	-0.418374	0.293035
Zn4	Zn	1.002041	-0.593978	0.416053
O5	O	1.063567	-0.506187	0.354549
O6	O	1.228097	-0.441673	0.399766
O7	O	1.108711	-0.570782	0.190040
O8	O	1.018415	-0.271350	0.309376
O9	O	1.228045	-0.570757	0.309354
O10	O	1.108832	-0.271331	0.399778
O11	O	1.018346	-0.441716	0.190049
O12	O	0.899068	-0.441650	0.309347
O13	O	1.018392	-0.570642	0.519041
O14	O	0.899059	-0.570666	0.399727
O15	O	1.108819	-0.441608	0.519063
O16	O	1.108699	-0.741058	0.309325
O17	O	1.018324	-0.741008	0.399715
C18	C	0.872361	-0.506155	0.354536
C19	C	0.790562	-0.506166	0.354548
C20	C	0.602394	-0.439090	0.401699
C21	C	0.525535	-0.439099	0.401702
C22	C	0.525492	-0.573313	0.307411
C23	C	0.602350	-0.573298	0.307405
C24	C	0.640799	-0.506188	0.354554
C25	C	0.487083	-0.506212	0.354562
C26	C	0.403749	-0.506222	0.354564
C27	C	0.724138	-0.506176	0.354550
C28	C	1.063522	-0.779154	0.354532
C29	C	1.063570	-0.895931	0.354549
C30	C	1.110682	-0.950784	0.307537
C31	C	1.110729	-1.060508	0.307561
C32	C	1.016546	-1.060516	0.401613
C33	C	1.016503	-0.950794	0.401592
C34	C	1.197595	-1.210388	0.281372
C35	C	1.244701	-1.265245	0.234348
C36	C	1.256026	-1.229695	0.162542
C37	C	1.220235	-1.139290	0.137746
C38	C	1.173124	-1.084439	0.184766
C39	C	1.161813	-1.119987	0.256582
C40	C	0.929636	-0.800912	0.427774
C41	C	0.882521	-0.746059	0.474791
C42	C	0.871188	-0.781607	0.546598
C43	C	0.906966	-0.872015	0.571391
C44	C	0.954081	-0.926868	0.524374
C45	C	0.965415	-0.891313	0.452568
C46	C	1.255520	-0.506220	0.354562
C47	C	1.337319	-0.506234	0.354568
C48	C	1.063612	-0.506114	0.546502
C49	C	1.063631	-0.506084	0.628300
C50	C	1.063633	-0.232154	0.354581
C51	C	1.063660	-0.115377	0.354595
C52	C	1.063565	-0.506183	0.163342
C53	C	1.063688	-0.505918	0.081544
C54	C	1.110733	-0.438832	0.816507
C55	C	1.110742	-0.438802	0.893366
C56	C	1.016581	-0.573172	0.893332
C57	C	1.016569	-0.573197	0.816474
C58	C	1.063649	-0.506028	0.778064
C59	C	1.063670	-0.505973	0.931780
C60	C	1.063679	-0.505941	1.015114
C61	C	1.063639	-0.506059	0.694725
H62	H	1.149008	-0.906117	0.269233
H63	H	1.143986	-1.010832	0.164578
H64	H	0.978252	-0.627860	0.924615
C65	C	0.843719	-0.647790	0.448003
C66	C	0.864216	-0.562635	0.491974
C67	C	0.828483	-0.472096	0.467326
H68	H	0.857187	-0.634323	0.398524
H69	H	0.792100	-0.657602	0.450950
H70	H	0.915823	-0.552824	0.489020
H71	H	0.850747	-0.576068	0.541455
H72	H	0.776864	-0.481908	0.470273
H73	H	0.841954	-0.458639	0.417847
H74	H	0.842380	-0.414309	0.497160
H75	H	0.633619	-0.627938	0.269009
C76	C	0.965539	-0.646334	0.774769
C77	C	0.981556	-0.750283	0.793433
C78	C	0.934570	-0.817679	0.755020
H79	H	0.916070	-0.631089	0.787326
H80	H	0.972281	-0.636795	0.723488
H81	H	0.974808	-0.759817	0.844703
H82	H	1.031016	-0.765560	0.780873
H83	H	0.941312	-0.808141	0.703739
H84	H	0.885104	-0.802425	0.767581
H85	H	0.945436	-0.888216	0.767673
H86	H	1.149067	-0.384137	0.785236
H87	H	1.149081	-0.384083	0.924663
C88	C	0.819932	-0.722050	0.597544
C89	C	0.749406	-0.719556	0.567008
C90	C	0.702180	-0.664697	0.613921
H91	H	0.818227	-0.756104	0.643873
H92	H	0.837439	-0.652459	0.603740
H93	H	0.731904	-0.789133	0.560822
H94	H	0.751088	-0.685493	0.520684
H95	H	0.719686	-0.595107	0.620117
H96	H	0.700481	-0.698757	0.660248
H97	H	0.654325	-0.662989	0.593207
C98	C	1.232650	-1.100837	0.059765
C99	C	1.281582	-1.168208	0.023900
C100	C	1.293045	-1.132807	-0.047934
H101	H	1.187237	-1.099868	0.034128
H102	H	1.252662	-1.032092	0.061004
H103	H	1.261568	-1.236935	0.022657
H104	H	1.327004	-1.169185	0.049514
H105	H	1.313056	-1.064062	-0.046695
H106	H	1.247628	-1.131838	-0.073564
H107	H	1.326251	-1.178506	-0.072275
H108	H	1.294382	-1.274366	0.124255
C109	C	0.644046	-0.366286	0.453002
C110	C	0.625361	-0.389276	0.525789
C111	C	0.663707	-0.322218	0.573069
H112	H	0.695332	-0.375820	0.446349
H113	H	0.631435	-0.295661	0.442358
H114	H	0.637977	-0.459884	0.536429
H115	H	0.574082	-0.379736	0.532465
H116	H	0.651096	-0.251594	0.562425
H117	H	0.714991	-0.331758	0.566409
H118	H	0.651030	-0.337802	0.622459
C119	C	0.483746	-0.366424	0.452935
C120	C	0.439620	-0.426004	0.500023
C121	C	0.401107	-0.359087	0.547224
H122	H	0.517571	-0.326433	0.481082
H123	H	0.453715	-0.320614	0.424862
H124	H	0.469649	-0.471795	0.528093
H125	H	0.405782	-0.465992	0.471896
H126	H	0.371076	-0.313278	0.519151
H127	H	0.434937	-0.319100	0.575366
H128	H	0.371158	-0.399502	0.579174
C129	C	0.965469	-1.120274	0.452599
C130	C	0.975574	-1.228106	0.442542
C131	C	0.928525	-1.283184	0.489489
H132	H	0.976157	-1.102359	0.502082
H133	H	0.916006	-1.102416	0.441774
H134	H	1.025026	-1.245956	0.453372
H135	H	0.964881	-1.246052	0.393068
H136	H	0.879061	-1.265326	0.478663
H137	H	0.939216	-1.265261	0.538969
H138	H	0.935369	-1.356353	0.482667
C139	C	1.283603	-1.363442	0.261121
C140	C	1.327263	-1.403888	0.204564
C141	C	1.363101	-1.494354	0.229192
H142	H	1.313689	-1.346556	0.302055
H143	H	1.248206	-1.414270	0.275246
H144	H	1.362656	-1.353070	0.190448
H145	H	1.297195	-1.420796	0.163625
H146	H	1.327703	-1.545182	0.243317
H147	H	1.393183	-1.477459	0.270127
H148	H	1.392722	-1.521813	0.190820
C149	C	0.483613	-0.646139	0.256309
C150	C	0.408084	-0.631815	0.266418
C151	C	0.369485	-0.698898	0.219363
H152	H	0.496101	-0.630741	0.206849
H153	H	0.496168	-0.716769	0.267003
H154	H	0.395535	-0.561202	0.255718
H155	H	0.395575	-0.647221	0.315868
H156	H	0.382039	-0.769528	0.230058
H157	H	0.381979	-0.683494	0.169906
H158	H	0.318235	-0.689195	0.226221
H159	H	0.938866	-0.771954	0.369304
C160	C	1.185462	-1.249012	0.359355
C161	C	1.252579	-1.250381	0.396827
C162	C	1.241431	-1.285975	0.468663
H163	H	1.152324	-1.203457	0.383907
H164	H	1.165519	-1.317798	0.358114
H165	H	1.272511	-1.181606	0.398071
H166	H	1.285726	-1.295939	0.372298
H167	H	1.221488	-1.354761	0.467422
H168	H	1.208291	-1.240416	0.493208
H169	H	1.286968	-1.286918	0.494094
H170	H	0.983217	-1.000481	0.544569
C171	C	0.894600	-0.910420	0.649393
C172	C	0.845699	-0.843016	0.685268
C173	C	0.834294	-0.878352	0.757127
H174	H	0.874587	-0.979153	0.648222
H175	H	0.940053	-0.911361	0.674979
H176	H	0.800255	-0.842086	0.659688
H177	H	0.865698	-0.774281	0.686459
H178	H	0.879746	-0.879293	0.782713
H179	H	0.814283	-0.947085	0.755948
H180	H	0.801119	-0.832619	0.781479
