data_functionalizedCrystal
_audit_creation_method	'MofGen! by Chris Wilmer'
_symmetry_space_group_name_H-M	'P1'
_symmetry_Int_Tables_number	1
_symmetry_cell_setting	triclinic
loop_
_symmetry_equiv_pos_as_xyz
  x,y,z
_cell_length_a	15.995343
_cell_length_b	15.995350
_cell_length_c	9.730223
_cell_angle_alpha	89.998417
_cell_angle_beta	90.001727
_cell_angle_gamma	83.490779
loop_
_atom_site_label
_atom_site_type_symbol
_atom_site_fract_x
_atom_site_fract_y
_atom_site_fract_z
O1	O	1.110987	0.107895	-0.114145
O2	O	0.867211	0.121229	-0.114177
O3	O	0.995763	-0.007326	-0.114159
O4	O	0.982436	0.236450	-0.114163
O5	O	0.995756	-0.007328	0.114421
O6	O	0.867205	0.121227	0.114403
O7	O	1.110981	0.107892	0.114435
Zn8	Zn	0.989092	0.114559	0.150711
Zn9	Zn	0.989100	0.114562	-0.150453
O10	O	0.982429	0.236447	0.114417
C11	C	0.836013	0.120678	0.000109
C12	C	0.743062	0.119028	0.000096
C13	C	0.995209	-0.038522	0.000128
C14	C	0.993557	-0.131472	0.000120
C15	C	0.572876	0.116035	0.000114
C16	C	0.549530	0.023238	0.000116
C17	C	0.452852	0.021492	0.000643
C18	C	0.405316	0.113086	0.000131
C19	C	0.434404	0.159745	0.130401
C20	C	0.531196	0.160846	0.130502
C21	C	0.531114	0.162207	-0.129445
C22	C	0.434619	0.158781	-0.131149
C23	C	0.310618	0.111425	0.000145
C24	C	0.667574	0.117699	0.000110
C25	C	0.987625	-0.469220	0.000124
C26	C	0.896072	-0.421783	-0.000401
C27	C	0.897725	-0.325093	0.000115
C28	C	0.990567	-0.301659	0.000121
C29	C	1.035720	-0.342739	0.130655
C30	C	1.033420	-0.439375	0.130764
C31	C	1.035319	-0.439730	-0.129174
C32	C	1.035298	-0.342785	-0.130899
C33	C	0.992235	-0.206962	0.000125
C34	C	0.985960	-0.563917	0.000130
C35	C	1.142179	0.108444	0.000146
C36	C	1.235130	0.110093	0.000150
C37	C	0.982983	0.267643	0.000126
C38	C	0.984635	0.360594	0.000125
N39	N	0.989092	0.114557	0.356247
N40	N	0.989107	0.114558	-0.355990
C41	C	1.046038	0.057654	0.572073
C42	C	1.046032	0.057655	0.428190
C43	C	0.932158	0.171467	0.428194
C44	C	0.932168	0.171469	0.572075
H45	H	0.433836	-0.015032	-0.092721
N46	N	1.104195	-0.000474	0.354730
N47	N	1.155028	-0.051277	0.418981
H48	H	1.196110	-0.092333	0.367102
H49	H	0.401663	0.225614	-0.139420
H50	H	0.559387	0.132930	-0.228216
H51	H	0.577540	-0.012730	-0.093288
H52	H	0.861987	-0.297228	0.093837
N53	N	1.121288	-0.325021	0.136738
N54	N	1.150014	-0.281815	0.044717
H55	H	1.210446	-0.269301	0.049009
N56	N	1.117734	-0.479850	0.138210
N57	N	1.145967	-0.528423	0.044335
H58	H	1.205513	-0.557005	0.049600
H59	H	0.885808	0.217812	0.630650
H60	H	0.885799	0.217802	0.369610
H61	H	0.545128	0.230511	-0.130702
H62	H	1.092402	0.011314	0.630640
H63	H	0.557979	0.128908	0.228253
H64	H	0.578512	-0.012146	0.093396
N65	N	0.411333	0.116155	-0.252045
N66	N	0.373294	0.052360	-0.241666
H67	H	0.356840	0.022254	-0.327046
H68	H	1.004354	-0.314358	0.227789
N69	N	0.853205	-0.289432	-0.117275
N70	N	0.877213	-0.311306	-0.235484
H71	H	0.845766	-0.286125	-0.318393
N72	N	0.429726	-0.024119	0.118478
N73	N	0.485023	-0.054754	0.200590
H74	H	0.468692	-0.086968	0.283818
H75	H	1.005389	-0.460268	-0.228110
H76	H	0.402558	0.227156	0.134879
N77	N	0.993930	-0.308535	-0.252035
N78	N	0.931736	-0.254037	-0.242018
H79	H	0.902518	-0.229842	-0.327568
N80	N	0.992107	-0.462327	0.253169
N81	N	0.965169	-0.407001	0.337920
H82	H	0.935990	-0.423206	0.424371
N83	N	0.549472	0.246215	0.137477
N84	N	0.490763	0.304793	0.142265
H85	H	0.503665	0.365084	0.147203
H86	H	0.414309	0.127729	0.227717
H87	H	0.859640	-0.441377	0.092677
H88	H	0.859483	-0.440313	-0.094009
N89	N	1.120232	-0.323511	-0.140757
N90	N	1.171515	-0.345402	-0.047006
H91	H	1.231503	-0.331786	-0.053957
N92	N	1.120006	-0.479555	-0.130268
N93	N	1.168269	-0.468423	-0.032571
H94	H	1.228078	-0.496548	-0.033334
