data_functionalizedCrystal
_audit_creation_method	'MofGen! by Chris Wilmer'
_symmetry_space_group_name_H-M	'P1'
_symmetry_Int_Tables_number	1
_symmetry_cell_setting	triclinic
loop_
_symmetry_equiv_pos_as_xyz
  x,y,z
_cell_length_a	27.731993
_cell_length_b	10.654554
_cell_length_c	9.730223
_cell_angle_alpha	90.001705
_cell_angle_beta	89.988642
_cell_angle_gamma	96.446383
loop_
_atom_site_label
_atom_site_type_symbol
_atom_site_fract_x
_atom_site_fract_y
_atom_site_fract_z
O1	O	-0.641871	0.149084	-0.113912
O2	O	-0.141871	0.649084	0.386088
O3	O	-0.501216	0.171874	-0.113994
O4	O	-0.001216	0.671874	0.386006
O5	O	-0.574776	-0.022397	-0.113952
O6	O	-0.074776	0.477603	0.386048
O7	O	-0.568311	0.343356	-0.113953
O8	O	-0.068311	0.843356	0.386047
O9	O	-0.574775	-0.022392	0.114628
O10	O	-0.074775	0.477608	0.614628
O11	O	-0.501215	0.171879	0.114586
O12	O	-0.001215	0.671879	0.614586
O13	O	-0.641870	0.149089	0.114668
O14	O	-0.141870	0.649089	0.614668
Zn15	Zn	-0.571543	0.160485	0.150919
Zn16	Zn	-0.071543	0.660485	0.650919
Zn17	Zn	-0.571544	0.160479	-0.150245
Zn18	Zn	-0.071544	0.660479	0.349755
O19	O	-0.568310	0.343361	0.114627
O20	O	-0.068310	0.843361	0.614627
C21	C	-0.483205	0.171409	0.000285
C22	C	0.016795	0.671409	0.500285
C23	C	-0.429540	0.170000	0.000253
C24	C	0.070460	0.670000	0.500253
C25	C	-0.574301	-0.069172	0.000334
C26	C	-0.074301	0.430828	0.500334
C27	C	-0.572879	-0.208555	0.000323
C28	C	-0.072879	0.291445	0.500323
C29	C	-0.659881	0.149554	0.000386
C30	C	-0.159881	0.649554	0.500386
C31	C	-0.713546	0.150963	0.000409
C32	C	-0.213546	0.650963	0.500409
C33	C	-0.046317	0.159787	-0.124279
C34	C	0.453683	0.659787	0.375721
C35	C	-0.248008	0.165157	-0.124316
C36	C	0.251992	0.665157	0.375684
O37	O	-0.274085	0.165798	-0.230285
O38	O	0.225915	0.665798	0.269715
N39	N	-0.273232	0.165831	0.000280
N40	N	0.226768	0.665831	0.500280
C41	C	-0.248030	0.165155	0.124894
C42	C	0.251970	0.665155	0.624894
O43	O	-0.274113	0.165839	0.230870
O44	O	0.225887	0.665839	0.730870
C45	C	-0.046341	0.159776	0.124930
C46	C	0.453659	0.659776	0.624930
C47	C	-0.021119	0.159115	0.000326
C48	C	0.478881	0.659115	0.500326
C49	C	-0.021095	0.159124	-0.248873
C50	C	0.478905	0.659124	0.251127
C51	C	0.029325	0.157788	-0.248862
C52	C	0.529325	0.657788	0.251138
C53	C	0.054523	0.157116	-0.124258
C54	C	0.554523	0.657116	0.375742
C55	C	0.029301	0.157779	0.000336
C56	C	0.529301	0.657779	0.500336
C57	C	-0.021141	0.159091	0.249543
C58	C	0.478859	0.659091	0.749543
C59	C	0.029285	0.157743	0.249541
C60	C	0.529285	0.657743	0.749541
C61	C	0.054507	0.157081	0.124937
C62	C	0.554507	0.657081	0.624937
C63	C	0.104919	0.155771	0.124952
C64	C	0.604919	0.655771	0.624952
N65	N	0.130143	0.155097	0.000356
N66	N	0.630143	0.655097	0.500356
C67	C	0.104945	0.155769	-0.124249
C68	C	0.604945	0.655769	0.375751
C69	C	-0.353920	0.167981	0.124867
C70	C	0.146080	0.667981	0.624867
C71	C	-0.404342	0.169328	0.124858
C72	C	0.095658	0.669328	0.624858
C73	C	-0.404316	0.169327	-0.124353
C74	C	0.095684	0.669327	0.375647
C75	C	-0.353893	0.167989	-0.124343
C76	C	0.146107	0.667989	0.375657
C77	C	-0.328696	0.167307	0.000271
C78	C	0.171304	0.667307	0.500271
C79	C	0.210831	0.152966	-0.124217
C80	C	0.710831	0.652966	0.375783
C81	C	0.261256	0.151635	-0.124196
C82	C	0.761256	0.651635	0.375804
C83	C	0.261225	0.151629	0.125014
C84	C	0.761225	0.651629	0.625014
C85	C	0.210805	0.152966	0.124993
C86	C	0.710805	0.652966	0.624993
C87	C	0.185609	0.153630	0.000366
C88	C	0.685609	0.653630	0.500366
O89	O	0.131027	0.155115	0.230865
O90	O	0.631027	0.655115	0.730865
O91	O	0.131036	0.155057	-0.230209
O92	O	0.631036	0.655057	0.269791
C93	C	-0.096737	0.161122	-0.124289
C94	C	0.403263	0.661122	0.375711
C95	C	-0.121959	0.161785	0.000305
C96	C	0.378041	0.661785	0.500305
C97	C	-0.096761	0.161113	0.124909
C98	C	0.403239	0.661113	0.624909
C99	C	-0.172381	0.163132	0.000296
C100	C	0.327619	0.663132	0.500296
C101	C	-0.197579	0.163805	-0.124309
C102	C	0.302421	0.663805	0.375691
C103	C	-0.172355	0.163130	-0.248905
C104	C	0.327645	0.663130	0.251095
C105	C	-0.121935	0.161795	-0.248894
C106	C	0.378065	0.661795	0.251106
C107	C	-0.121985	0.161788	0.249506
C108	C	0.378015	0.661788	0.749506
C109	C	-0.172405	0.163124	0.249485
C110	C	0.327595	0.663124	0.749485
C111	C	-0.197603	0.163797	0.124880
C112	C	0.302397	0.663797	0.624880
C113	C	-0.526894	-0.389160	0.000314
C114	C	-0.026894	0.110840	0.500314
C115	C	-0.528230	-0.258195	0.000301
C116	C	-0.028230	0.241805	0.500301
C117	C	-0.616195	-0.289887	0.000345
C118	C	-0.116195	0.210113	0.500345
C119	C	-0.614859	-0.420849	0.000348
C120	C	-0.114859	0.079151	0.500348
C121	C	-0.482242	-0.438793	0.000305
C122	C	0.017758	0.061207	0.500305
C123	C	-0.438926	-0.357470	0.000281
C124	C	0.061074	0.142530	0.500281
C125	C	-0.440261	-0.226505	0.000268
C126	C	0.059739	0.273495	0.500268
C127	C	-0.484913	-0.176864	0.000279
C128	C	0.015087	0.323136	0.500279
C129	C	-0.568786	0.390136	0.000337
C130	C	-0.068786	0.890136	0.500337
C131	C	-0.570207	0.529518	0.000339
C132	C	-0.070207	1.029518	0.500339
N133	N	-0.571545	0.160488	0.356456
N134	N	-0.071545	0.660488	0.856456
N135	N	-0.571545	0.160465	-0.355781
N136	N	-0.071545	0.660465	0.144219
C137	C	-0.604126	0.074494	0.428400
C138	C	-0.104126	0.574494	0.928400
C139	C	-0.604125	0.074478	0.572283
C140	C	-0.104125	0.574478	1.072283
C141	C	-0.538960	0.246464	0.572264
C142	C	-0.038960	0.746464	1.072264
C143	C	-0.538960	0.246472	0.428384
C144	C	-0.038960	0.746472	0.928384
C145	C	-0.636712	-0.011490	0.356472
C146	C	-0.136712	0.488510	0.856472
C147	C	-0.669296	-0.097491	0.428416
C148	C	-0.169296	0.402509	0.928416
C149	C	-0.669295	-0.097506	0.572299
C150	C	-0.169295	0.402494	1.072299
C151	C	-0.636710	-0.011521	0.644238
C152	C	-0.136710	0.488479	1.144238
H153	H	0.281789	0.151100	-0.225668
H154	H	0.781789	0.651100	0.274332
H155	H	-0.695823	-0.167505	0.369837
H156	H	-0.195823	0.332495	0.869837
H157	H	-0.041668	0.159626	0.351009
H158	H	0.458332	0.659626	0.851009
H159	H	-0.402572	-0.397898	0.000261
H160	H	0.097428	0.102102	0.500261
H161	H	-0.192880	0.163685	-0.350362
H162	H	0.307120	0.663685	0.149638
H163	H	-0.404991	-0.160295	0.000235
H164	H	0.095009	0.339705	0.500235
H165	H	-0.192936	0.163673	0.350960
H166	H	0.307064	0.663673	0.850960
H167	H	-0.636717	-0.011483	0.239315
H168	H	-0.136717	0.488517	0.739315
H169	H	-0.636708	-0.011549	0.761397
H170	H	-0.136708	0.488451	1.261397
H171	H	-0.485997	-0.070222	0.000263
H172	H	0.014003	0.429778	0.500263
H173	H	-0.512431	0.316471	0.630846
H174	H	-0.012431	0.816471	1.130846
H175	H	-0.333360	0.167451	-0.225807
H176	H	0.166640	0.667451	0.274193
H177	H	-0.101404	0.161256	-0.350360
H178	H	0.398596	0.661256	0.149640
H179	H	-0.424873	0.169887	0.226323
H180	H	0.075127	0.669887	0.726323
H181	H	-0.512429	0.316496	0.369806
H182	H	-0.012429	0.816496	0.869806
H183	H	-0.652549	-0.249457	0.000335
H184	H	-0.152549	0.250543	0.500335
H185	H	0.190323	0.153508	-0.225701
H186	H	0.690323	0.653508	0.274299
H187	H	-0.650129	-0.487064	0.000361
H188	H	-0.150129	0.012936	0.500361
H189	H	-0.695823	-0.167540	0.630875
H190	H	-0.195823	0.332460	1.130875
H191	H	-0.101474	0.161234	0.350976
H192	H	0.398526	0.661234	0.850976
H193	H	0.049856	0.157244	-0.350328
H194	H	0.549856	0.657244	0.149672
H195	H	-0.481150	-0.545429	0.000317
H196	H	0.018850	-0.045429	0.500317
H197	H	-0.424841	0.169879	-0.225811
H198	H	0.075159	0.669879	0.274189
H199	H	-0.333410	0.167421	0.226348
H200	H	0.166590	0.667421	0.726348
H201	H	-0.041606	0.159667	-0.350347
H202	H	0.458394	0.659667	0.149653
H203	H	0.049798	0.157198	0.351019
H204	H	0.549798	0.657198	0.851019
H205	H	0.281751	0.151087	0.226464
H206	H	0.781751	0.651087	0.726464
H207	H	0.190269	0.153530	0.226456
H208	H	0.690269	0.653530	0.726456
