data_functionalizedCrystal
_audit_creation_method	'MofGen! by Chris Wilmer'
_symmetry_space_group_name_H-M	'P1'
_symmetry_Int_Tables_number	1
_symmetry_cell_setting	triclinic
loop_
_symmetry_equiv_pos_as_xyz
  x,y,z
_cell_length_a	15.538191
_cell_length_b	13.339070
_cell_length_c	11.804365
_cell_angle_alpha	105.124870
_cell_angle_beta	97.089886
_cell_angle_gamma	98.549306
loop_
_atom_site_label
_atom_site_type_symbol
_atom_site_fract_x
_atom_site_fract_y
_atom_site_fract_z
O1	O	0.418419	-1.209080	-0.099025
O2	O	0.361861	-0.935320	-0.099024
O3	O	0.266938	-1.125491	-0.099030
O4	O	0.513341	-1.018909	-0.099019
O5	O	0.291892	-1.075439	0.099027
O6	O	0.386815	-0.885268	0.099033
O7	O	0.443373	-1.159028	0.099033
Cu8	Cu	0.417373	-1.017578	0.117117
Cu9	Cu	0.387861	-1.076770	-0.117109
O10	O	0.538296	-0.968857	0.099039
C11	C	0.364784	-0.876113	0.000005
C12	C	0.336307	-0.774268	0.000004
C13	C	0.247233	-1.111617	-0.000006
C14	C	0.151340	-1.144835	-0.000018
C15	C	0.440449	-1.218236	0.000001
C16	C	0.468926	-1.320083	-0.000006
C17	C	-0.222695	-0.814845	0.000009
C18	C	-0.312797	-0.846078	0.000012
C19	C	-0.289322	-1.021762	0.000011
C20	C	-0.199217	-0.990545	0.000002
C21	C	-0.165911	-0.887085	0.000003
C22	C	-0.142432	-1.062785	-0.000004
C23	C	-0.052335	-1.031568	-0.000006
C24	C	-0.019021	-0.928112	-0.000002
C25	C	-0.075813	-0.855868	0.000001
C26	C	-0.175739	-1.166242	0.000004
C27	C	-0.118955	-1.238482	-0.000003
C28	C	-0.028856	-1.207268	-0.000013
C29	C	0.004457	-1.103812	-0.000009
C30	C	0.027936	-1.279512	-0.000016
C31	C	0.118034	-1.248295	-0.000018
C32	C	0.094555	-1.072595	-0.000011
C33	C	0.558000	-0.982732	0.000011
C34	C	0.653893	-0.949516	0.000016
N35	N	0.438131	-0.975952	0.281859
C36	C	0.557731	-0.328172	-0.000004
C37	C	0.584490	-0.423860	-0.000008
C38	C	0.522446	-0.511466	-0.000004
C39	C	0.433640	-0.503376	0.000002
C40	C	0.406878	-0.407681	-0.000004
C41	C	0.371593	-0.590975	-0.000004
C42	C	0.282786	-0.582885	0.000002
C43	C	0.256029	-0.487198	-0.000003
C44	C	0.318072	-0.399592	-0.000006
C45	C	0.398355	-0.686670	0.000002
C46	C	0.247501	-0.766179	0.000002
C47	C	0.220743	-0.670491	0.000006
N48	N	0.367098	-1.118406	-0.281851
C49	C	0.317233	-1.218370	0.655800
C50	C	0.301526	-1.249860	0.531137
C51	C	0.335676	-1.181386	0.468812
C52	C	0.385536	-1.081416	0.531161
C53	C	0.401251	-1.049926	0.655836
C54	C	0.419693	-1.012942	0.468847
C55	C	0.469553	-0.912972	0.531197
C56	C	0.485265	-0.881487	0.655860
C57	C	0.451115	-0.949962	0.718185
C58	C	0.403978	-1.044432	0.344173
C59	C	0.487995	-0.875988	0.344208
C60	C	0.503703	-0.844498	0.468871
H61	H	0.054344	-0.902696	0.000003
O62	O	0.494133	-0.695392	0.000001
H63	H	0.520102	-0.716690	0.080725
O64	O	0.551306	-0.614669	0.000016
H65	H	0.580755	-0.643149	-0.080701
H66	H	0.296290	-0.321671	-0.000003
H67	H	-0.048695	-0.771623	-0.000008
H68	H	0.544301	-0.763101	0.519652
O69	O	0.280415	-1.292216	0.723027
H70	H	0.243108	-1.367024	0.658732
H71	H	0.363382	-1.125827	0.293419
H72	H	-0.249105	-1.191658	-0.000005
H73	H	0.260931	-1.331254	0.480377
H74	H	0.148434	-0.663892	0.000001
H75	H	0.463901	-0.924321	0.819696
H76	H	0.322884	-1.207029	0.367306
H77	H	-0.195577	-0.730600	0.000001
H78	H	0.000805	-1.363746	-0.000005
O79	O	0.539089	-0.773692	0.723115
H80	H	0.560206	-0.731371	0.658837
O81	O	0.524820	-0.802113	0.277005
H82	H	0.505504	-0.840796	0.179841
O83	O	-0.374049	-0.768161	0.000008
H84	H	-0.335750	-0.690980	-0.000002
H85	H	0.183715	-0.480621	-0.000011
H86	H	0.121673	-0.988350	-0.000020
O87	O	0.680269	-0.432584	0.000013
H88	H	0.718919	-0.355588	0.000028
H89	H	-0.316452	-1.105998	0.000015
O90	O	-0.154879	-1.350066	0.000005
H91	H	-0.205538	-1.388895	-0.080721
H92	H	0.608236	-0.256840	-0.000017
O93	O	0.180573	-0.860655	0.000017
H94	H	0.214103	-0.928549	0.000036
H95	H	0.164270	-1.307120	-0.000022
