data_functionalizedCrystal
_audit_creation_method	'MofGen! by Chris Wilmer'
_symmetry_space_group_name_H-M	'P1'
_symmetry_Int_Tables_number	1
_symmetry_cell_setting	triclinic
loop_
_symmetry_equiv_pos_as_xyz
  x,y,z
_cell_length_a	11.026607
_cell_length_b	11.792241
_cell_length_c	10.065875
_cell_angle_alpha	98.849501
_cell_angle_beta	79.302338
_cell_angle_gamma	96.389716
loop_
_atom_site_label
_atom_site_type_symbol
_atom_site_fract_x
_atom_site_fract_y
_atom_site_fract_z
O1	O	1.630965	0.462836	-0.113504
O2	O	1.277303	0.408644	-0.113505
O3	O	1.462715	0.272275	-0.113495
O4	O	1.445553	0.599205	-0.113514
O5	O	1.427360	0.298412	0.113492
O6	O	1.241948	0.434781	0.113482
O7	O	1.595611	0.488973	0.113483
Zn8	Zn	1.413166	0.466027	0.149522
Zn9	Zn	1.459747	0.431590	-0.149543
O10	O	1.410198	0.625342	0.113473
C11	C	1.214349	0.411715	-0.000011
C12	C	1.079439	0.381912	-0.000011
C13	C	1.006175	0.464202	-0.000017
C14	C	0.866738	0.433401	-0.000017
C15	C	1.443960	0.242838	-0.000002
C16	C	1.440732	0.116183	-0.000003
C17	C	1.434802	-0.115710	-0.000026
C18	C	1.438097	0.013332	-0.000013
C19	C	1.658565	0.485901	-0.000014
C20	C	1.793477	0.515703	-0.000023
C21	C	1.428954	0.654778	-0.000023
C22	C	1.432183	0.781432	-0.000031
N23	N	1.381384	0.489530	0.353626
N24	N	1.491539	0.408079	-0.353647
C25	C	1.448682	0.439759	0.421408
C26	C	1.424231	0.457858	0.578574
H27	H	1.046680	0.557456	-0.000015
H28	H	0.826244	0.340138	-0.000046
C29	C	1.279097	0.565199	0.432402
H30	H	1.276088	0.567444	0.527701
H31	H	1.201470	0.533780	0.409071
H32	H	1.296644	0.641071	0.409045
C33	C	1.593862	0.332441	0.567584
H34	H	1.596893	0.330217	0.472285
H35	H	1.576362	0.256568	0.590926
H36	H	1.671478	0.363903	0.590933
H37	H	1.038938	0.288655	-0.000041
H38	H	0.833974	0.608964	-0.000019
C39	C	1.321939	0.533531	0.657345
H40	H	1.318930	0.535776	0.752644
H41	H	1.244312	0.502112	0.634014
H42	H	1.339486	0.609403	0.633989
H43	H	1.524395	0.383742	0.363088
