data_functionalizedCrystal
_audit_creation_method	'MofGen! by Chris Wilmer'
_symmetry_space_group_name_H-M	'P1'
_symmetry_Int_Tables_number	1
_symmetry_cell_setting	triclinic
loop_
_symmetry_equiv_pos_as_xyz
  x,y,z
_cell_length_a	18.215407
_cell_length_b	12.759400
_cell_length_c	12.759393
_cell_angle_alpha	90.031564
_cell_angle_beta	89.978169
_cell_angle_gamma	89.984868
loop_
_atom_site_label
_atom_site_type_symbol
_atom_site_fract_x
_atom_site_fract_y
_atom_site_fract_z
Zn1	Zn	1.125139	0.418192	-0.594075
Zn2	Zn	1.125065	0.593911	-0.418395
Zn3	Zn	1.002067	0.418248	-0.418404
Zn4	Zn	1.002059	0.593831	-0.594026
O5	O	1.063582	0.506045	-0.506225
O6	O	1.228113	0.441511	-0.570787
O7	O	1.108721	0.570665	-0.271375
O8	O	1.018427	0.271219	-0.441731
O9	O	1.228059	0.570611	-0.441716
O10	O	1.108847	0.271178	-0.570796
O11	O	1.018355	0.441607	-0.271382
O12	O	0.899082	0.441529	-0.441684
O13	O	1.018413	0.570475	-0.741054
O14	O	0.899076	0.570529	-0.570713
O15	O	1.108840	0.441434	-0.741090
O16	O	1.108713	0.740921	-0.441669
O17	O	1.018342	0.740862	-0.570704
C18	C	1.063539	0.779013	-0.506203
C19	C	1.063587	0.895789	-0.506229
C20	C	0.872376	0.506027	-0.506195
C21	C	0.790577	0.506045	-0.506207
C22	C	1.063634	0.505939	-0.780258
C23	C	1.063656	0.505894	-0.897035
C24	C	0.602399	0.573321	-0.573308
C25	C	0.525541	0.573324	-0.573321
C26	C	0.525517	0.438789	-0.439165
C27	C	0.602375	0.438781	-0.439158
C28	C	0.640814	0.506053	-0.506228
C29	C	0.487098	0.506064	-0.506248
C30	C	0.403764	0.506067	-0.506262
C31	C	0.724153	0.506049	-0.506216
C32	C	1.255535	0.506064	-0.506256
C33	C	1.337334	0.506072	-0.506269
C34	C	1.063646	0.232012	-0.506270
C35	C	1.063673	0.115235	-0.506289
C36	C	1.110696	0.950647	-0.439114
C37	C	1.110741	1.060371	-0.439147
C38	C	1.016563	1.060370	-0.573411
C39	C	1.016522	0.950648	-0.573383
C40	C	1.165067	0.950648	-0.361595
C41	C	1.165112	1.060372	-0.361627
C42	C	1.110747	0.438696	-0.951918
C43	C	1.110765	0.438658	-1.061642
C44	C	1.016597	0.573025	-1.061591
C45	C	1.016577	0.573057	-0.951869
C46	C	1.165116	0.361123	-0.951947
C47	C	1.165134	0.361085	-1.061672
C48	C	1.063573	0.506075	-0.233258
C49	C	1.063694	0.505824	-0.116482
H50	H	0.633694	0.628095	-0.627923
O51	O	0.639662	0.373546	-0.373840
C52	C	0.620835	0.396371	-0.269091
H53	H	0.599693	0.480298	-0.263645
H54	H	0.671367	0.387259	-0.217201
H55	H	0.576224	0.340015	-0.241724
O56	O	0.970906	0.638415	-1.114743
C57	C	0.986972	0.743139	-1.087930
H58	H	1.015249	0.745345	-1.008270
H59	H	0.933846	0.790243	-1.084153
H60	H	1.024808	0.778511	-1.149683
H61	H	0.978169	0.905984	-0.628042
H62	H	1.149868	0.279759	-0.922190
O63	O	1.140837	0.910014	-0.269345
C64	C	1.196540	0.847851	-0.224406
H65	H	1.235908	0.820551	-0.288313
H66	H	1.170846	0.776751	-0.184673
H67	H	1.227907	0.895980	-0.163896
H68	H	1.219243	0.390291	-0.917916
H69	H	1.144740	0.283776	-1.095718
H70	H	1.222132	0.382877	-1.091455
O71	O	0.488141	0.373599	-0.373903
C72	C	0.443640	0.433339	-0.305966
H73	H	0.466789	0.516075	-0.299330
H74	H	0.442745	0.395245	-0.225178
H75	H	0.385402	0.437004	-0.338452
H76	H	1.149886	1.090235	-0.280245
O77	O	0.970927	0.638378	-0.898446
C78	C	1.012786	0.706289	-0.834984
H79	H	1.068567	0.669260	-0.818556
H80	H	0.982785	0.720384	-0.757823
H81	H	1.020855	0.784136	-0.877254
O82	O	0.970867	1.113824	-0.638539
C83	C	0.981019	1.222432	-0.624197
H84	H	1.005156	1.237458	-0.543152
H85	H	0.925909	1.264192	-0.631266
H86	H	1.020200	1.253469	-0.686574
O87	O	1.233094	0.915143	-0.387550
C88	C	1.284636	0.952044	-0.313847
H89	H	1.262313	1.025493	-0.274127
H90	H	1.338311	0.971518	-0.355471
H91	H	1.294962	0.888964	-0.252346
O92	O	0.488339	0.638769	-0.638514
C93	C	0.538751	0.698119	-0.697726
H94	H	0.593522	0.701703	-0.654677
H95	H	0.516536	0.780911	-0.708796
H96	H	0.546958	0.659737	-0.777583
H97	H	1.219262	1.094317	-0.390843
