data_functionalizedCrystal
_audit_creation_method	'MofGen! by Chris Wilmer'
_symmetry_space_group_name_H-M	'P1'
_symmetry_Int_Tables_number	1
_symmetry_cell_setting	triclinic
loop_
_symmetry_equiv_pos_as_xyz
  x,y,z
_cell_length_a	15.698487
_cell_length_b	20.875492
_cell_length_c	20.875641
_cell_angle_alpha	60.662107
_cell_angle_beta	90.002858
_cell_angle_gamma	58.317647
loop_
_atom_site_label
_atom_site_type_symbol
_atom_site_fract_x
_atom_site_fract_y
_atom_site_fract_z
Zr1	Zr	0.775935	0.731494	-0.117926
O2	O	0.635883	0.864492	-0.223408
O3	O	0.825353	0.593213	-0.080691
O4	O	0.822950	0.723874	-0.216339
O5	O	0.632806	0.741684	0.013667
O6	O	0.963134	0.723872	-0.216335
O7	O	0.638287	0.733832	-0.087761
O8	O	0.967434	0.490143	0.026313
O9	O	0.628507	0.975412	-0.228981
O10	O	0.943213	0.652044	-0.070727
O11	O	0.834504	0.657906	0.004965
O12	O	0.831675	0.811743	-0.154742
O13	O	0.722966	0.817605	-0.079050
Zr14	Zr	0.990772	0.744014	0.043846
Zr15	Zr	0.999513	0.731490	-0.117920
Zr16	Zr	0.767194	0.744017	0.043840
Zr17	Zr	0.764170	0.908398	-0.126814
Zr18	Zr	1.002537	0.567109	0.052734
O19	O	0.941353	0.882294	0.006612
O20	O	0.953783	0.864487	-0.223399
O21	O	0.623454	0.882299	0.006603
O22	O	1.130823	0.611015	0.149328
O23	O	1.143252	0.593208	-0.080683
O24	O	0.812924	0.611020	0.149320
O25	O	1.133901	0.733823	-0.087747
O26	O	0.943757	0.751633	0.142259
O27	O	0.803572	0.751636	0.142255
O28	O	1.128420	0.741676	0.013681
O29	O	0.806221	0.975409	-0.228976
O30	O	0.960485	0.500098	0.154896
O31	O	1.138200	0.500095	0.154901
O32	O	1.145148	0.490140	0.026318
O33	O	0.621558	0.985367	-0.100398
O34	O	0.799273	0.985364	-0.100393
O35	O	0.935032	0.663765	0.080662
O36	O	1.043740	0.657903	0.004971
O37	O	0.932202	0.817601	-0.079045
O38	O	0.823494	0.823463	-0.003353
C39	C	0.898070	0.516473	-0.025923
C40	C	0.903064	0.441373	-0.022150
C41	C	0.827134	0.462893	-0.079340
C42	C	0.831830	0.392339	-0.075822
C43	C	0.912454	0.300266	-0.015110
C44	C	0.988392	0.278746	0.042083
C45	C	0.983699	0.349299	0.038561
C46	C	0.934888	0.083168	0.001741
C47	C	0.939573	0.012614	0.005260
C48	C	0.783012	0.126212	-0.112646
C49	C	0.778322	0.196762	-0.116160
C50	C	0.854263	0.175236	-0.058969
N51	N	0.917255	0.228147	-0.011511
N52	N	0.849466	0.247354	-0.062572
C53	C	0.603691	0.737758	-0.037048
C54	C	0.508777	0.737760	-0.037050
C55	C	0.431694	0.737763	-0.037049
C56	C	0.334997	0.737758	-0.037040
C57	C	1.163015	0.737749	-0.037032
C58	C	1.257930	0.737747	-0.037030
C59	C	0.894288	0.722088	-0.239385
C60	C	0.897998	0.716772	-0.308059
C61	C	0.868637	0.959034	-0.048157
C62	C	0.863642	1.034135	-0.051930
C63	C	0.841522	0.797633	-0.384177
C64	C	0.845023	0.792632	-0.448701
C65	C	0.904994	0.706769	-0.437105
C66	C	0.961477	0.625902	-0.360979
C67	C	0.957982	0.630904	-0.296457
C68	C	0.921696	0.682870	-0.625373
C69	C	0.925185	0.677875	-0.689903
C70	C	0.808731	0.844605	-0.777620
C71	C	0.805236	0.849599	-0.713093
C72	C	0.861724	0.768733	-0.636973
N73	N	0.908571	0.701655	-0.503057
N74	N	0.858152	0.773847	-0.571022
C75	C	0.872419	0.753419	0.165305
C76	C	0.868708	0.758736	0.233979
C77	C	1.177732	0.516468	-0.025915
C78	C	1.277641	0.441366	-0.022140
C79	C	0.887135	0.532138	0.176422
C80	C	0.888419	0.462354	0.248869
C81	C	1.166797	0.532134	0.176430
C82	C	1.262996	0.462348	0.248880
C83	C	0.599909	0.943374	-0.250510
C84	C	0.503711	1.013159	-0.322960
C85	C	0.588975	0.959039	-0.048165
C86	C	0.489066	1.034141	-0.051940
C87	C	0.879571	0.943369	-0.250502
C88	C	0.878288	1.013153	-0.322949
C89	C	1.272085	0.403039	-0.059887
C90	C	1.365952	0.332481	-0.056355
C91	C	1.465374	0.300247	-0.015070
C92	C	1.470927	0.338582	0.022677
C93	C	1.377061	0.409143	0.019140
C94	C	0.941496	0.432642	0.322412
C95	C	0.942697	0.367083	0.390489
C96	C	0.890827	0.331233	0.385023
C97	C	0.837744	0.360952	0.311473
C98	C	0.836537	0.426514	0.243397
C99	C	1.364926	0.426516	0.243392
C100	C	1.455322	0.360955	0.311460
C101	C	1.443787	0.331221	0.385014
C102	C	1.341847	0.367060	0.390500
C103	C	1.251452	0.432625	0.322433
C104	C	0.401780	1.049000	-0.317473
C105	C	0.311382	1.114583	-0.385541
C106	C	0.322917	1.144320	-0.459096
C107	C	0.424858	1.108477	-0.464581
C108	C	0.515254	1.042899	-0.396513
C109	C	0.494621	1.072475	-0.014200
C110	C	0.400754	1.143051	-0.017751
C111	C	0.301332	1.175287	-0.059038
C112	C	0.295779	1.136950	-0.096782
C113	C	0.389645	1.066380	-0.093236
C114	C	0.930168	1.048982	-0.317458
C115	C	0.928983	1.114543	-0.385523
C116	C	0.875910	1.144277	-0.459079
C117	C	0.824028	1.108441	-0.464569
C118	C	0.825220	1.042877	-0.396504
H119	H	0.721186	0.143728	-0.159209
H120	H	0.598248	1.013718	-0.400990
Br121	Br	1.002204	1.008644	-0.217641
H122	H	0.434237	1.132697	-0.524477
H123	H	1.168460	0.461791	0.326912
H124	H	0.874947	1.197665	-0.514495
Br125	Br	0.732073	0.954347	-0.880926
Br126	Br	0.717704	0.587847	-0.161735
Br127	Br	0.160840	1.180707	-0.152809
Br128	Br	1.006578	0.561339	-0.674161
Br129	Br	0.728775	0.421551	-0.153440
Br130	Br	1.326210	0.326698	0.490330
H131	H	1.374338	0.450715	0.183507
Br132	Br	0.999394	1.163168	-0.378054
Br133	Br	0.386097	1.008655	-0.217658
H134	H	0.967693	0.617023	-0.563401
H135	H	0.780817	1.132661	-0.524467
Br136	Br	0.754793	0.994266	-0.403971
H137	H	0.385107	1.035170	-0.123966
Br138	Br	0.173048	1.163212	-0.378078
H139	H	0.249302	1.197718	-0.514515
Br140	Br	0.764501	0.466827	0.143593
H141	H	1.010313	0.555991	-0.351542
H142	H	1.003971	0.565058	-0.234478
Br143	Br	0.408315	1.195064	0.033481
Br144	Br	0.668890	0.321717	-0.198551
Br145	Br	0.892475	0.242254	0.477421
Br146	Br	0.723786	0.966132	-0.728838
H147	H	1.538319	0.331781	0.306980
H148	H	1.005228	-0.062359	0.054703
H149	H	1.381599	0.440341	0.049884
Br150	Br	1.566479	0.242238	0.477385
H151	H	0.575566	1.046235	0.019425
H152	H	0.224908	1.232750	-0.061919
Br153	Br	1.097816	0.153789	0.124476
Br154	Br	1.037944	0.053946	0.079363
H155	H	0.792680	0.867552	-0.393629
Br156	Br	0.768373	0.902377	-0.552005
Br157	Br	1.086759	0.320091	0.116175
H158	H	1.361410	0.301277	-0.087094
Br159	Br	1.137169	0.446771	-0.115923
H160	H	1.541798	0.242791	-0.012196
H161	H	0.795513	0.331753	0.307034
H162	H	1.551889	0.312327	0.056290
H163	H	0.983735	0.461824	0.326877
H164	H	0.985928	0.342893	0.450370
