data_functionalizedCrystal
_audit_creation_method	'MofGen! by Chris Wilmer'
_symmetry_space_group_name_H-M	'P1'
_symmetry_Int_Tables_number	1
_symmetry_cell_setting	triclinic
loop_
_symmetry_equiv_pos_as_xyz
  x,y,z
_cell_length_a	19.805407
_cell_length_b	21.295417
_cell_length_c	19.805398
_cell_angle_alpha	89.970820
_cell_angle_beta	89.984135
_cell_angle_gamma	90.030507
loop_
_atom_site_label
_atom_site_type_symbol
_atom_site_fract_x
_atom_site_fract_y
_atom_site_fract_z
Zn1	Zn	1.034692	-0.250634	-0.382704
Zn2	Zn	1.534692	0.249366	0.117296
Zn3	Zn	1.034606	-0.355900	-0.269510
Zn4	Zn	1.534606	0.144100	0.230490
Zn5	Zn	0.921514	-0.250648	-0.269529
Zn6	Zn	1.421514	0.249352	0.230471
Zn7	Zn	0.921462	-0.355869	-0.382656
Zn8	Zn	1.421462	0.144131	0.117344
O9	O	0.978068	-0.303263	-0.326100
O10	O	1.478068	0.196737	0.173900
O11	O	1.129397	-0.264605	-0.367701
O12	O	1.629397	0.235395	0.132299
O13	O	1.019590	-0.341957	-0.174796
O14	O	1.519590	0.158043	0.325204
O15	O	0.936585	-0.162557	-0.284570
O16	O	1.436585	0.337443	0.215430
O17	O	1.129334	-0.341943	-0.284537
O18	O	1.629334	0.158057	0.215463
O19	O	1.019736	-0.162547	-0.367719
O20	O	1.519736	0.337453	0.132281
O21	O	0.936501	-0.264629	-0.174810
O22	O	1.436501	0.235371	0.325190
O23	O	0.826790	-0.264599	-0.284523
O24	O	1.326790	0.235401	0.215477
O25	O	0.936496	-0.341891	-0.477379
O26	O	1.436496	0.158109	0.022621
O27	O	0.826752	-0.341905	-0.367638
O28	O	1.326752	0.158095	0.132362
O29	O	1.019686	-0.264575	-0.477415
O30	O	1.519686	0.235425	0.022585
O31	O	1.019539	-0.443985	-0.284491
O32	O	1.519539	0.056015	0.215509
O33	O	0.936413	-0.443963	-0.367619
O34	O	1.436413	0.056037	0.132381
C35	C	0.802212	-0.303251	-0.326078
C36	C	1.302212	0.196749	0.173922
C37	C	0.726980	-0.303261	-0.326085
C38	C	1.226980	0.196739	0.173915
C39	C	0.691634	-0.343574	-0.369292
C40	C	1.191634	0.156426	0.130708
C41	C	0.620945	-0.343576	-0.369302
C42	C	1.120945	0.156424	0.130698
C43	C	0.585605	-0.303266	-0.326100
C44	C	1.085605	0.196734	0.173900
C45	C	0.620956	-0.262948	-0.282890
C46	C	1.120956	0.237052	0.217110
C47	C	0.691643	-0.262944	-0.282885
C48	C	1.191643	0.237056	0.217115
C49	C	0.335883	-0.262962	-0.282913
C50	C	0.835883	0.237038	0.217087
C51	C	0.265190	-0.262970	-0.282920
C52	C	0.765190	0.237030	0.217080
C53	C	0.265185	-0.343593	-0.369330
C54	C	0.765185	0.156407	0.130670
C55	C	0.335872	-0.343589	-0.369324
C56	C	0.835872	0.156411	0.130676
C57	C	0.371217	-0.303269	-0.326117
C58	C	0.871217	0.196731	0.173883
C59	C	0.447866	-0.303268	-0.326109
C60	C	0.947866	0.196732	0.173891
C61	C	0.508957	-0.303270	-0.326105
C62	C	1.008957	0.196730	0.173895
C63	C	0.977979	-0.466815	-0.326062
C64	C	1.477979	0.033185	0.173938
C65	C	0.978003	-0.536783	-0.326069
C66	C	1.478003	-0.036783	0.173931
C67	C	1.021326	-0.569640	-0.282828
C68	C	1.521326	-0.069640	0.217172
C69	C	1.021357	-0.635383	-0.282844
C70	C	1.521357	-0.135383	0.217156
C71	C	0.978055	-0.668265	-0.326092
C72	C	1.478055	-0.168265	0.173908
C73	C	0.934729	-0.635400	-0.369341
C74	C	1.434729	-0.135400	0.130659
C75	C	0.934704	-0.569659	-0.369330
C76	C	1.434704	-0.069659	0.130670
N77	N	0.918844	-0.771531	-0.331245
N78	N	1.418844	-0.271531	0.168755
N79	N	0.918870	-0.833983	-0.331252
N80	N	1.418870	-0.333983	0.168748
C81	C	0.978131	-0.866340	-0.326131
C82	C	1.478131	-0.366340	0.173869
N83	N	1.037365	-0.833886	-0.320989
N84	N	1.537365	-0.333886	0.179011
N85	N	1.037338	-0.771429	-0.320979
N86	N	1.537338	-0.271429	0.179021
C87	C	0.978078	-0.739551	-0.326110
C88	C	1.478078	-0.239551	0.173890
C89	C	1.021491	-0.970483	-0.282905
C90	C	1.521491	-0.470483	0.217095
C91	C	1.021524	-1.036226	-0.282925
C92	C	1.521524	-0.536226	0.217075
C93	C	0.934890	-1.036243	-0.369419
C94	C	1.434890	-0.536243	0.130581
C95	C	0.934863	-0.970500	-0.369402
C96	C	1.434863	-0.470500	0.130598
C97	C	0.978163	-0.937624	-0.326142
C98	C	1.478163	-0.437624	0.173858
C99	C	1.154611	-0.303276	-0.326122
C100	C	1.654611	0.196724	0.173878
C101	C	1.229843	-0.303281	-0.326132
C102	C	1.729843	0.196719	0.173868
C103	C	0.978095	-0.303228	-0.502643
C104	C	1.478095	0.196772	-0.002643
C105	C	0.978106	-0.303213	-0.577875
C106	C	1.478106	0.196787	-0.077875
C107	C	0.978176	-0.139073	-0.326152
C108	C	1.478176	0.360927	0.173848
C109	C	0.978221	-0.069105	-0.326175
C110	C	1.478221	0.430895	0.173825
C111	C	1.021504	-0.262843	-1.039685
C112	C	1.521504	0.237157	-0.539685
C113	C	1.021494	-0.262863	-0.968997
C114	C	1.521494	0.237137	-0.468997
C115	C	0.978175	-0.303126	-0.933637
C116	C	1.478175	0.196874	-0.433637
C117	C	0.934870	-0.343377	-0.968968
C118	C	1.434870	0.156623	-0.468968
C119	C	0.934884	-0.343360	-1.039656
C120	C	1.434884	0.156640	-0.539656
C121	C	0.934811	-0.343445	-0.683895
C122	C	1.434811	0.156555	-0.183895
C123	C	0.934798	-0.343457	-0.613203
C124	C	1.434798	0.156543	-0.113203
C125	C	1.021420	-0.262948	-0.613236
C126	C	1.521420	0.237052	-0.113236
C127	C	1.021435	-0.262931	-0.683923
C128	C	1.521435	0.237069	-0.183923
C129	C	0.978132	-0.303184	-0.719249
C130	C	1.478132	0.196816	-0.219249
C131	C	0.978145	-0.303163	-0.795898
C132	C	1.478145	0.196837	-0.295898
C133	C	0.978159	-0.303143	-0.856989
C134	C	1.478159	0.196857	-0.356989
C135	C	0.978081	-0.303252	-0.150244
C136	C	1.478081	0.196748	0.349756
C137	C	0.978201	-0.303090	-0.075012
C138	C	1.478201	0.196910	0.424988
H139	H	0.720421	-0.230113	-0.247704
H140	H	1.220421	0.269887	0.252296
H141	H	0.236399	-0.376421	-0.404513
H142	H	0.736399	0.123579	0.095487
O143	O	1.063452	-0.223715	-0.934617
O144	O	1.563452	0.276285	-0.434617
C145	C	1.024914	-0.183058	-0.893764
C146	C	1.524914	0.316942	-0.393764
H147	H	0.973617	-0.205280	-0.883152
H148	H	1.473617	0.294720	-0.383152
H149	H	1.017485	-0.136415	-0.921038
H150	H	1.517485	0.363585	-0.421038
C151	C	1.125151	-0.144343	-0.839667
C152	C	1.625151	0.355657	-0.339667
C153	C	1.062149	-0.171639	-0.826627
C154	C	1.562149	0.328361	-0.326627
H155	H	1.148120	-0.137296	-0.798255
H156	H	1.648120	0.362704	-0.298255
H157	H	1.151116	-0.171733	-0.867192
H158	H	1.651116	0.328267	-0.367192
H159	H	1.118952	-0.105477	-0.862397
H160	H	1.618952	0.394523	-0.362397
H161	H	1.068350	-0.210508	-0.803906
H162	H	1.568350	0.289492	-0.303906
H163	H	1.036187	-0.144255	-0.799097
H164	H	1.536187	0.355745	-0.299097
O165	O	1.063397	-0.223816	-0.578846
O166	O	1.563397	0.276184	-0.078846
C167	C	1.024877	-0.183156	-0.537979
C168	C	1.524877	0.316844	-0.037979
H169	H	0.973570	-0.205361	-0.527375
H170	H	1.473570	0.294639	-0.027375
H171	H	1.017470	-0.136502	-0.565236
H172	H	1.517470	0.363498	-0.065236
C173	C	1.125132	-0.144498	-0.483867
C174	C	1.625132	0.355502	0.016133
C175	C	1.062117	-0.171772	-0.470838
C176	C	1.562117	0.328228	0.029162
H177	H	1.148104	-0.137473	-0.442452
H178	H	1.648104	0.362527	0.057548
H179	H	1.151084	-0.171890	-0.511402
H180	H	1.651084	0.328110	-0.011402
H181	H	1.118950	-0.105622	-0.506583
H182	H	1.618950	0.394378	-0.006583
H183	H	1.068300	-0.210651	-0.448130
H184	H	1.568300	0.289349	0.051870
H185	H	1.036167	-0.144387	-0.443298
H186	H	1.536167	0.355613	0.056702
O187	O	0.892882	-0.382434	-1.074079
O188	O	1.392882	0.117566	-0.574079
C189	C	0.902172	-0.373777	-1.144051
C190	C	1.402172	0.126223	-0.644051
H191	H	0.954422	-0.353160	-1.153714
H192	H	1.454422	0.146840	-0.653714
H193	H	0.862049	-0.340249	-1.164119
H194	H	1.362049	0.159751	-0.664119
C195	C	0.831766	-0.462783	-1.168455
C196	C	1.331766	0.037217	-0.668455
C197	C	0.895942	-0.437466	-1.180324
C198	C	1.395942	0.062534	-0.680324
H199	H	0.827920	-0.502069	-1.190831
H200	H	1.327920	-0.002069	-0.690831
H201	H	0.825504	-0.468615	-1.121314
H202	H	1.325504	0.031385	-0.621314
H203	H	0.798338	-0.434838	-1.185179
H204	H	1.298338	0.065162	-0.685179
H205	H	0.929369	-0.465408	-1.163593
H206	H	1.429369	0.034592	-0.663593
H207	H	0.902209	-0.431641	-1.227464
H208	H	1.402209	0.068359	-0.727464
H209	H	1.056775	-0.230052	-1.068471
H210	H	1.556775	0.269948	-0.568471
H211	H	0.364652	-0.230136	-0.247726
H212	H	0.864652	0.269864	0.252274
H213	H	0.236418	-0.230141	-0.247740
H214	H	0.736418	0.269859	0.252260
O215	O	0.586584	-0.382651	-0.411344
O216	O	1.086584	0.117349	0.088656
C217	C	0.545718	-0.346876	-0.455132
C218	C	1.045718	0.153124	0.044868
H219	H	0.567043	-0.297301	-0.459414
H220	H	1.067043	0.202699	0.040586
H221	H	0.492137	-0.344686	-0.434219
H222	H	0.992137	0.155314	0.065781
C223	C	0.518459	-0.438615	-0.520171
C224	C	1.018459	0.061385	-0.020171
C225	C	0.544654	-0.377727	-0.525435
C226	C	1.044654	0.122273	-0.025435
H227	H	0.517799	-0.457646	-0.563537
H228	H	1.017799	0.042354	-0.063537
H229	H	0.545988	-0.462718	-0.490669
H230	H	1.045988	0.037282	0.009331
H231	H	0.473810	-0.436782	-0.502741
H232	H	0.973810	0.063218	-0.002741
H233	H	0.589304	-0.379561	-0.542857
H234	H	1.089304	0.120439	-0.042857
H235	H	0.517132	-0.353625	-0.554941
H236	H	1.017132	0.146375	-0.054941
O237	O	0.892702	-0.382637	-0.578957
O238	O	1.392702	0.117363	-0.078957
C239	C	0.854475	-0.418154	-0.625293
C240	C	1.354475	0.081846	-0.125293
H241	H	0.882204	-0.420321	-0.675685
H242	H	1.382204	0.079679	-0.175685
H243	H	0.803081	-0.395107	-0.632811
H244	H	1.303081	0.104893	-0.132811
C245	C	0.810630	-0.482496	-0.535790
C246	C	1.310630	0.017504	-0.035790
C247	C	0.844690	-0.485162	-0.597681
C248	C	1.344690	0.014838	-0.097681
H249	H	0.804591	-0.523829	-0.518757
H250	H	1.304591	-0.023829	-0.018757
H251	H	0.836382	-0.458566	-0.504572
H252	H	1.336382	0.041434	-0.004572
H253	H	0.767805	-0.463288	-0.542063
H254	H	1.267805	0.036712	-0.042063
H255	H	0.887518	-0.504363	-0.591405
H256	H	1.387518	-0.004363	-0.091405
H257	H	0.818945	-0.509096	-0.628898
H258	H	1.318945	-0.009096	-0.128898
O259	O	0.586523	-0.223847	-0.240949
O260	O	1.086523	0.276153	0.259051
C261	C	0.516553	-0.232482	-0.250230
C262	C	1.016553	0.267518	0.249770
H263	H	0.506881	-0.281092	-0.272296
H264	H	1.006881	0.218908	0.227704
H265	H	0.496527	-0.195192	-0.286354
H266	H	0.996527	0.304808	0.213646
C267	C	0.492119	-0.166920	-0.154659
C268	C	0.992119	0.333080	0.345341
C269	C	0.480239	-0.226625	-0.181756
C270	C	0.980239	0.273375	0.318244
H271	H	0.469717	-0.163304	-0.112422
H272	H	0.969717	0.336696	0.387578
H273	H	0.539259	-0.161100	-0.148407
H274	H	1.039259	0.338900	0.351593
H275	H	0.475430	-0.135852	-0.184769
H276	H	0.975430	0.364148	0.315231
H277	H	0.496935	-0.257692	-0.151650
H278	H	0.996935	0.242308	0.348350
H279	H	0.433100	-0.232451	-0.188001
H280	H	0.933100	0.267549	0.311999
H281	H	0.364643	-0.376416	-0.404501
H282	H	0.864643	0.123584	0.095499
O283	O	1.063616	-0.938640	-0.240865
O284	O	1.563616	-0.438640	0.259135
C285	C	1.101854	-0.981742	-0.202693
C286	C	1.601854	-0.481742	0.297307
H287	H	1.104202	-1.028583	-0.230430
H288	H	1.604202	-0.528583	0.269570
H289	H	1.077103	-0.988792	-0.151267
H290	H	1.577103	-0.488792	0.348733
C291	C	1.171000	-0.898495	-0.158928
C292	C	1.671000	-0.398495	0.341072
C293	C	1.173890	-0.956025	-0.192998
C294	C	1.673890	-0.456025	0.307002
H295	H	1.215435	-0.882631	-0.152944
H296	H	1.715435	-0.382631	0.347056
H297	H	1.145238	-0.869455	-0.184642
H298	H	1.645238	-0.369455	0.315358
H299	H	1.150371	-0.904377	-0.116076
H300	H	1.650371	-0.404377	0.383924
H301	H	1.194510	-0.950140	-0.235851
H302	H	1.694510	-0.450140	0.264149
H303	H	1.199658	-0.985063	-0.167290
H304	H	1.699658	-0.485063	0.332710
O305	O	1.063423	-0.537635	-0.240906
O306	O	1.563423	-0.037635	0.259094
C307	C	1.107111	-0.499560	-0.279476
C308	C	1.607111	0.000440	0.220524
H309	H	1.083203	-0.489700	-0.330747
H310	H	1.583203	0.010300	0.169253
H311	H	1.157275	-0.524851	-0.286963
H312	H	1.657275	-0.024851	0.213037
C313	C	1.148731	-0.449235	-0.179266
C314	C	1.648731	0.050765	0.320734
C315	C	1.119364	-0.437120	-0.242236
C316	C	1.619364	0.062880	0.257764
H317	H	1.156293	-0.410720	-0.156294
H318	H	1.656293	0.089280	0.343706
H319	H	1.119300	-0.474888	-0.153280
H320	H	1.619300	0.025112	0.346720
H321	H	1.190532	-0.470312	-0.185514
H322	H	1.690532	0.029688	0.314486
H323	H	1.077561	-0.416051	-0.235987
H324	H	1.577561	0.083949	0.264013
H325	H	1.148789	-0.411462	-0.268220
H326	H	1.648789	0.088538	0.231780
O327	O	0.892846	-0.382618	-0.718228
O328	O	1.392846	0.117382	-0.218228
C329	C	0.931369	-0.423262	-0.759110
C330	C	1.431369	0.076738	-0.259110
H331	H	0.984673	-0.427143	-0.737813
H332	H	1.484673	0.072857	-0.237813
H333	H	0.933716	-0.403801	-0.812694
H334	H	1.433716	0.096199	-0.312694
C335	C	0.832805	-0.483940	-0.786309
C336	C	1.332805	0.016060	-0.286309
C337	C	0.898273	-0.488711	-0.760149
C338	C	1.398273	0.011289	-0.260149
H339	H	0.812389	-0.524311	-0.786953
H340	H	1.312389	-0.024311	-0.286953
H341	H	0.806851	-0.456556	-0.758769
H342	H	1.306851	0.043444	-0.258769
H343	H	0.834770	-0.467720	-0.830961
H344	H	1.334770	0.032280	-0.330961
H345	H	0.896306	-0.504923	-0.715496
H346	H	1.396306	-0.004923	-0.215496
H347	H	0.924226	-0.516099	-0.787682
H348	H	1.424226	-0.016099	-0.287682
H349	H	0.899635	-1.063015	-0.404636
H350	H	1.399635	-0.563015	0.095364
H351	H	1.056806	-1.062978	-0.247714
H352	H	1.556806	-0.562978	0.252286
H353	H	1.056638	-0.662140	-0.247632
H354	H	1.556638	-0.162140	0.252368
O355	O	0.892758	-0.667408	-0.411386
O356	O	1.392758	-0.167408	0.088614
C357	C	0.931281	-0.705366	-0.455154
C358	C	1.431281	-0.205366	0.044846
H359	H	0.982594	-0.715187	-0.431330
H360	H	1.482594	-0.215187	0.068670
H361	H	0.938676	-0.679994	-0.505316
H362	H	1.438676	-0.179994	-0.005316
C363	C	0.831032	-0.755775	-0.496644
C364	C	1.331032	-0.255775	0.003356
C365	C	0.894054	-0.767841	-0.467381
C366	C	1.394054	-0.267841	0.032619
H367	H	0.808068	-0.794311	-0.504190
H368	H	1.308068	-0.294311	-0.004190
H369	H	0.805078	-0.730200	-0.467159
H370	H	1.305078	-0.230200	0.032841
H371	H	0.837204	-0.734630	-0.538443
H372	H	1.337204	-0.234630	-0.038443
H373	H	0.887881	-0.788979	-0.425580
H374	H	1.387881	-0.288979	0.074420
H375	H	0.920006	-0.793421	-0.496860
H376	H	1.420006	-0.293421	0.003140
H377	H	0.899602	-0.376162	-0.940172
H378	H	1.399602	0.123838	-0.440172
O379	O	0.892708	-0.938676	-0.411422
O380	O	1.392708	-0.438676	0.088578
C381	C	0.854505	-0.981794	-0.449610
C382	C	1.354505	-0.481794	0.050390
H383	H	0.852200	-1.028677	-0.421894
H384	H	1.352200	-0.528677	0.078106
H385	H	0.879258	-0.988731	-0.501042
H386	H	1.379258	-0.488731	-0.001042
C387	C	0.785282	-0.898609	-0.493331
C388	C	1.285282	-0.398609	0.006669
C389	C	0.782446	-0.956190	-0.459287
C390	C	1.282446	-0.456190	0.040713
H391	H	0.740833	-0.882815	-0.499303
H392	H	1.240833	-0.382815	0.000697
H393	H	0.811021	-0.869559	-0.467604
H394	H	1.311021	-0.369559	0.032396
H395	H	0.805912	-0.904397	-0.536186
H396	H	1.305912	-0.404397	-0.036186
H397	H	0.761824	-0.950399	-0.416429
H398	H	1.261824	-0.450399	0.083571
H399	H	0.756701	-0.985238	-0.485006
H400	H	1.256701	-0.485238	0.014994
H401	H	0.720403	-0.376401	-0.404470
H402	H	1.220403	0.123599	0.095530
H403	H	1.056707	-0.230142	-0.712710
H404	H	1.556707	0.269858	-0.212710
H405	H	0.899425	-0.542906	-0.404542
H406	H	1.399425	-0.042906	0.095458
