data_functionalizedCrystal
_audit_creation_method	'MofGen! by Chris Wilmer'
_symmetry_space_group_name_H-M	'P1'
_symmetry_Int_Tables_number	1
_symmetry_cell_setting	triclinic
loop_
_symmetry_equiv_pos_as_xyz
  x,y,z
_cell_length_a	19.077105
_cell_length_b	19.121063
_cell_length_c	19.077174
_cell_angle_alpha	94.804191
_cell_angle_beta	85.483752
_cell_angle_gamma	90.263052
loop_
_atom_site_label
_atom_site_type_symbol
_atom_site_fract_x
_atom_site_fract_y
_atom_site_fract_z
Zn1	Zn	1.079661	-0.341255	-0.455843
Zn2	Zn	1.070214	-0.453789	-0.342572
Zn3	Zn	0.957450	-0.331437	-0.332838
Zn4	Zn	0.957110	-0.453743	-0.455688
O5	O	1.016109	-0.395056	-0.396735
O6	O	1.176888	-0.360311	-0.444956
O7	O	1.051444	-0.433469	-0.242463
O8	O	0.977757	-0.234459	-0.345146
O9	O	1.169947	-0.442989	-0.361736
O10	O	1.067545	-0.241672	-0.435517
O11	O	0.968597	-0.343578	-0.235312
O12	O	0.858924	-0.343533	-0.344996
O13	O	0.977178	-0.442911	-0.554526
O14	O	0.858675	-0.433391	-0.435253
O15	O	1.067215	-0.360267	-0.554640
O16	O	1.051115	-0.552064	-0.361586
O17	O	0.968018	-0.552030	-0.444692
C18	C	0.833265	-0.387392	-0.389052
C19	C	0.755043	-0.384131	-0.385782
C20	C	1.008524	-0.577531	-0.404195
C21	C	1.005344	-0.655599	-0.407412
C22	C	0.718177	-0.429448	-0.431170
C23	C	0.644681	-0.426375	-0.428101
C24	C	0.608051	-0.377988	-0.379640
C25	C	0.644922	-0.332666	-0.334250
C26	C	0.718417	-0.335737	-0.337323
C27	C	0.388255	-0.363778	-0.365420
C28	C	0.314753	-0.360713	-0.362349
C29	C	0.314518	-0.454421	-0.456201
C30	C	0.388015	-0.457489	-0.459267
C31	C	0.424879	-0.412166	-0.413880
N32	N	0.532925	-0.374847	-0.376500
N33	N	0.500004	-0.415304	-0.417024
C34	C	1.047151	-0.692272	-0.365694
C35	C	1.044165	-0.765625	-0.368724
C36	C	0.999368	-0.802303	-0.413469
C37	C	0.957560	-0.765624	-0.455192
C38	C	0.960550	-0.692273	-0.452165
C39	C	0.988177	-1.023777	-0.424775
C40	C	0.985189	-1.097133	-0.427797
C41	C	1.071796	-1.097129	-0.341330
C42	C	1.074779	-1.023776	-0.338303
C43	C	1.032973	-0.987104	-0.380029
C44	C	0.996314	-0.877281	-0.416566
C45	C	1.036032	-0.912127	-0.376936
C46	C	1.199666	-0.402750	-0.404449
C47	C	1.277888	-0.406029	-0.407737
C48	C	1.023212	-0.402679	-0.580922
C49	C	1.026239	-0.405927	-0.659411
C50	C	1.023743	-0.211870	-0.389263
C51	C	1.026996	-0.133807	-0.386079
C52	C	0.984529	-0.360653	-0.692562
C53	C	0.987371	-0.363710	-0.766311
C54	C	1.031926	-0.412040	-0.806908
C55	C	1.073638	-0.457319	-0.773753
C56	C	1.070792	-0.454264	-0.700005
C57	C	1.045059	-0.426198	-1.027870
C58	C	1.047903	-0.429248	-1.101623
C59	C	0.961634	-0.335640	-1.094176
C60	C	0.958795	-0.332587	-1.020427
C61	C	1.000504	-0.377868	-0.987278
N62	N	1.034833	-0.415165	-0.882292
N63	N	0.997593	-0.374746	-0.911896
C64	C	1.009075	-0.387414	-0.213265
C65	C	1.006192	-0.383974	-0.134774
H66	H	0.747996	-0.468852	-0.470630
C67	C	0.909786	-0.279420	-0.975772
C68	C	0.906661	-0.276054	-0.894652
C69	C	0.857656	-0.222883	-0.849997
C70	C	0.811776	-0.173078	-0.886461
C71	C	0.814900	-0.176443	-0.967586
C72	C	0.863905	-0.229614	-1.012241
H73	H	0.940625	-0.312924	-0.867655
H74	H	0.855344	-0.220392	-0.789943
H75	H	0.775500	-0.133718	-0.853405
H76	H	0.780936	-0.139573	-0.994583
H77	H	0.866217	-0.232105	-1.072295
H78	H	0.953403	-0.326846	-0.793298
H79	H	0.284494	-0.491320	-0.493154
H80	H	0.417834	-0.496893	-0.498728
C81	C	1.096431	-0.651931	-0.316473
C82	C	1.154896	-0.605024	-0.347355
C83	C	1.204179	-0.564685	-0.298135
C84	C	1.194996	-0.571253	-0.218033
C85	C	1.136528	-0.618162	-0.187147
C86	C	1.087245	-0.658501	-0.236367
H87	H	1.161696	-0.600160	-0.406655
H88	H	1.247461	-0.529960	-0.320999
H89	H	1.231478	-0.541392	-0.181597
H90	H	1.129728	-0.623026	-0.127847
H91	H	1.043963	-0.693226	-0.213502
C92	C	1.117786	-1.137469	-0.295440
C93	C	1.114504	-1.218153	-0.298767
C94	C	1.160499	-1.258493	-0.252877
C95	C	1.209776	-1.218149	-0.203660
C96	C	1.213060	-1.137461	-0.200331
C97	C	1.167065	-1.097121	-0.246221
H98	H	1.078024	-1.248022	-0.335202
H99	H	1.158067	-1.318224	-0.255341
H100	H	1.243824	-1.248012	-0.169690
H101	H	1.249539	-1.107592	-0.163896
H102	H	1.169496	-1.037390	-0.243756
C103	C	0.942189	-0.983449	-0.470674
C104	C	0.861553	-0.990016	-0.461907
C105	C	0.815563	-0.949686	-0.507811
C106	C	0.850210	-0.902790	-0.562482
C107	C	0.930851	-0.896220	-0.571251
C108	C	0.976841	-0.936550	-0.525347
H109	H	0.835901	-1.024733	-0.421435
H110	H	0.755867	-0.954550	-0.501319
H111	H	0.816166	-0.872935	-0.596462
H112	H	0.956503	-0.861503	-0.611723
H113	H	1.036537	-0.931687	-0.531839
H114	H	1.079013	-0.463077	-1.000889
C115	C	1.124055	-0.983438	-0.289077
C116	C	1.093512	-0.929497	-0.230250
C117	C	1.142784	-0.889161	-0.181017
C118	C	1.222599	-0.902765	-0.190611
C119	C	1.253147	-0.956708	-0.249440
C120	C	1.203874	-0.997044	-0.298673
H121	H	1.034424	-0.919425	-0.223146
H122	H	1.120171	-0.849229	-0.137468
H123	H	1.259074	-0.872906	-0.154165
H124	H	1.312235	-0.966781	-0.256544
H125	H	1.226488	-1.036976	-0.342223
C126	C	0.914559	-0.651928	-0.498053
C127	C	0.833922	-0.658489	-0.489282
C128	C	0.787933	-0.618145	-0.535174
C129	C	0.822581	-0.571240	-0.589836
C130	C	0.903222	-0.564677	-0.598610
C131	C	0.949212	-0.605021	-0.552718
H132	H	0.808270	-0.693213	-0.448816
H133	H	0.728236	-0.623003	-0.528679
H134	H	0.788537	-0.541375	-0.623808
H135	H	0.928875	-0.529953	-0.639076
H136	H	1.008908	-0.600163	-0.559213
H137	H	1.109912	-0.496673	-0.806813
C138	C	0.758974	-0.285889	-0.287395
C139	C	0.812977	-0.234178	-0.317950
C140	C	0.853533	-0.184326	-0.268025
C141	C	0.840088	-0.186186	-0.187544
C142	C	0.786083	-0.237899	-0.156985
C143	C	0.745526	-0.287751	-0.206910
H144	H	0.822932	-0.232800	-0.377531
H145	H	0.893511	-0.146045	-0.290647
H146	H	0.870110	-0.149283	-0.150586
H147	H	0.776128	-0.239277	-0.097404
H148	H	0.705548	-0.326032	-0.184288
C149	C	1.085307	-0.871784	-0.327717
C150	C	1.054764	-0.817834	-0.268899
C151	C	1.104038	-0.777482	-0.219678
C152	C	1.183854	-0.791081	-0.229274
C153	C	1.214401	-0.845034	-0.288094
C154	C	1.165128	-0.885385	-0.337315
H155	H	0.995676	-0.807765	-0.261793
H156	H	1.081424	-0.737543	-0.176135
H157	H	1.220329	-0.761211	-0.192838
H158	H	1.273489	-0.855103	-0.295200
H159	H	1.187741	-0.925325	-0.380858
C160	C	0.604628	-0.279437	-0.280946
C161	C	0.618275	-0.200271	-0.284007
C162	C	0.577981	-0.147040	-0.230703
C163	C	0.524042	-0.172976	-0.174339
C164	C	0.510393	-0.252146	-0.171276
C165	C	0.550686	-0.305377	-0.224580
H166	H	0.658206	-0.181068	-0.325733
H167	H	0.588086	-0.088433	-0.232971
H168	H	0.494215	-0.133572	-0.134880
H169	H	0.470462	-0.271349	-0.129550
H170	H	0.540582	-0.363984	-0.222313
H171	H	0.959838	-0.907152	-0.452996
H172	H	0.927676	-0.298775	-1.121174
C173	C	0.935910	-1.137481	-0.477022
C174	C	0.889925	-1.097145	-0.522919
C175	C	0.840648	-1.137493	-0.572139
C176	C	0.837356	-1.218176	-0.575461
C177	C	0.883342	-1.258516	-0.529561
C178	C	0.932620	-1.218168	-0.480342
H179	H	0.892361	-1.037415	-0.520462
H180	H	0.806605	-1.107630	-0.606116
H181	H	0.800877	-1.248044	-0.611896
H182	H	0.880907	-1.318247	-0.532019
H183	H	0.966662	-1.248031	-0.446365
H184	H	0.284932	-0.321302	-0.322890
C185	C	1.116676	-0.504065	-0.663536
C186	C	1.165688	-0.557226	-0.708188
C187	C	1.211570	-0.607031	-0.671721
C188	C	1.208440	-0.603676	-0.590601
C189	C	1.159425	-0.550513	-0.545944
C190	C	1.113543	-0.500708	-0.582412
H191	H	1.168007	-0.559712	-0.768242
H192	H	1.247854	-0.646386	-0.704779
H193	H	1.242404	-0.640545	-0.563606
H194	H	1.157106	-0.548028	-0.485891
H195	H	1.077259	-0.461353	-0.549354
H196	H	0.614668	-0.463277	-0.465060
H197	H	0.418261	-0.326877	-0.328457
H198	H	1.078209	-0.795481	-0.334752
H199	H	0.921088	-0.795494	-0.491628
H200	H	0.948251	-0.321294	-0.659512
H201	H	1.084188	-0.468605	-1.134676
