data_functionalizedCrystal
_audit_creation_method	'MofGen! by Chris Wilmer'
_symmetry_space_group_name_H-M	'P1'
_symmetry_Int_Tables_number	1
_symmetry_cell_setting	triclinic
loop_
_symmetry_equiv_pos_as_xyz
  x,y,z
_cell_length_a	12.970454
_cell_length_b	12.970454
_cell_length_c	18.878441
_cell_angle_alpha	59.999238
_cell_angle_beta	90.000130
_cell_angle_gamma	59.999320
loop_
_atom_site_label
_atom_site_type_symbol
_atom_site_fract_x
_atom_site_fract_y
_atom_site_fract_z
Zr1	Zr	0.993216	1.128520	-0.092974
O2	O	0.828585	1.343618	-0.206080
O3	O	1.043684	0.913428	-0.058300
O4	O	1.043676	1.128526	-0.206082
O5	O	0.828600	1.128514	0.058273
O6	O	1.213344	1.128525	-0.206083
O7	O	0.828594	1.128520	-0.058299
O8	O	1.213358	0.743753	0.058270
O9	O	0.828585	1.513285	-0.206081
O10	O	1.191829	1.001896	-0.043514
O11	O	1.065213	1.001892	0.043483
O12	O	1.065204	1.255143	-0.130510
O13	O	0.938588	1.255139	-0.043513
Zr14	Zr	1.263827	1.128509	0.092942
Zr15	Zr	1.263816	1.128519	-0.092977
Zr16	Zr	0.993227	1.128511	0.092945
Zr17	Zr	0.993216	1.399120	-0.092975
Zr18	Zr	1.263826	0.857909	0.092943
O19	O	1.213358	1.343602	0.058268
O20	O	1.213344	1.343616	-0.206084
O21	O	0.828600	1.343604	0.058272
O22	O	1.428457	0.913412	0.206048
O23	O	1.428443	0.913426	-0.058304
O24	O	1.043699	0.913414	0.206052
O25	O	1.428443	1.128516	-0.058305
O26	O	1.213367	1.128504	0.206050
O27	O	1.043699	1.128505	0.206052
O28	O	1.428449	1.128510	0.058267
O29	O	1.043676	1.513284	-0.206083
O30	O	1.213366	0.743746	0.206051
O31	O	1.428457	0.743744	0.206049
O32	O	1.428449	0.743752	0.058268
O33	O	0.828594	1.513278	-0.058300
O34	O	1.043684	1.513277	-0.058302
O35	O	1.191839	1.001887	0.130478
O36	O	1.318455	1.001891	0.043481
O37	O	1.191829	1.255138	-0.043515
O38	O	1.065213	1.255134	0.043482
C39	C	1.128521	0.790036	-0.000015
C40	C	1.128521	0.675159	-0.000014
C41	C	0.790042	1.128517	-0.000012
C42	C	0.675165	1.128517	-0.000011
C43	C	1.467001	1.128513	-0.000020
C44	C	1.581877	1.128513	-0.000021
C45	C	1.128508	1.128527	-0.232572
C46	C	1.128504	1.128531	-0.311499
C47	C	1.128521	1.466994	-0.000017
C48	C	1.128521	1.581871	-0.000018
C49	C	1.062407	1.260722	-0.393991
C50	C	1.062419	1.260717	-0.468148
C51	C	1.128522	1.128520	-0.459813
C52	C	1.194627	0.996319	-0.377313
C53	C	1.194622	0.996325	-0.303157
C54	C	1.194632	0.996315	-0.531880
C55	C	1.194636	0.996308	-0.606041
C56	C	1.062429	1.260707	-0.696872
C57	C	1.062424	1.260713	-0.622716
C58	C	1.128527	1.128512	-0.540221
C59	C	1.128534	1.128503	0.232540
C60	C	1.128539	1.128499	0.311468
C61	C	1.467001	0.790034	-0.000018
C62	C	1.581877	0.675157	-0.000019
C63	C	1.128534	0.790024	0.232541
C64	C	1.128539	0.675143	0.311469
C65	C	1.467014	0.790022	0.232538
C66	C	1.581895	0.675140	0.311464
C67	C	0.790029	1.467008	-0.232570
C68	C	0.675148	1.581889	-0.311496
C69	C	0.790042	1.466996	-0.000014
C70	C	0.675165	1.581873	-0.000013
C71	C	1.128509	1.467006	-0.232573
C72	C	1.128504	1.581887	-0.311501
C73	C	1.194638	0.621191	0.393953
C74	C	1.194637	0.513263	0.468121
C75	C	1.128544	0.459282	0.459804
C76	C	1.062436	0.513245	0.377311
C77	C	1.062430	0.621178	0.303145
C78	C	1.701948	0.621193	0.303117
C79	C	1.809901	0.513265	0.377270
C80	C	1.797799	0.459278	0.459769
C81	C	1.677733	0.513237	0.468115
C82	C	1.569782	0.621170	0.393963
C83	C	0.555095	1.635850	-0.303149
C84	C	0.447142	1.743812	-0.377302
C85	C	0.459244	1.797804	-0.459801
C86	C	0.579310	1.743839	-0.468146
C87	C	0.687260	1.635886	-0.393994
C88	C	1.194610	1.635834	-0.303156
C89	C	1.194631	1.743762	-0.377310
C90	C	1.128537	1.797749	-0.459808
C91	C	1.062429	1.743792	-0.468152
C92	C	1.062416	1.635858	-0.393998
H93	H	1.008570	1.368373	-0.400788
C94	C	0.931790	0.610264	0.220853
C95	C	0.989785	0.680457	0.212479
H96	H	0.886947	0.646852	0.164880
H97	H	0.874741	0.627978	0.251660
H98	H	0.994356	0.508357	0.251688
H99	H	0.927218	0.782363	0.181650
H100	H	1.046839	0.662754	0.181660
C101	C	1.056581	1.952404	-0.615495
C102	C	1.128552	1.916399	-0.541315
H103	H	1.056600	2.025648	-0.665810
H104	H	0.972378	1.987793	-0.615495
H105	H	1.091972	1.868188	-0.615493
H106	H	1.093155	2.000612	-0.541313
H107	H	1.212771	1.881014	-0.541314
H108	H	1.711826	0.665133	0.235949
H109	H	1.248456	0.888682	-0.370531
H110	H	1.008600	1.368350	-0.764044
C111	C	1.037891	1.688939	-0.568436
C112	C	0.989780	1.803152	-0.558841
H113	H	0.993041	1.725598	-0.624428
H114	H	1.028408	1.616954	-0.525483
H115	H	1.124853	1.646825	-0.561920
H116	H	0.902820	1.845260	-0.565351
H117	H	0.999252	1.875163	-0.601806
H118	H	0.349390	1.787732	-0.370490
H119	H	0.545217	1.591896	-0.235981
H120	H	0.371333	1.885705	-0.520173
C121	C	1.880506	0.304641	0.615456
C122	C	1.916467	0.340641	0.541274
H123	H	1.953772	0.231407	0.665770
H124	H	1.831701	0.269240	0.615464
H125	H	1.831673	0.388862	0.615448
H126	H	1.965293	0.256422	0.541279
H127	H	1.965294	0.376037	0.541266
H128	H	1.008579	1.591946	-0.400805
H129	H	1.128559	0.371396	0.520202
H130	H	1.472034	0.665080	0.400771
H131	H	1.008599	1.368360	-0.535314
C132	C	1.219145	0.770971	-0.202900
C133	C	1.267271	0.851018	-0.212478
H134	H	1.263997	0.681267	-0.146916
H135	H	1.228614	0.752051	-0.245866
H136	H	1.132187	0.825305	-0.209410
H137	H	1.354228	0.796689	-0.205975
H138	H	1.257814	0.869935	-0.169500
H139	H	1.248461	0.888661	-0.599249
H140	H	1.008625	0.469277	0.370552
C141	C	1.598354	0.568097	0.568398
C142	C	1.664452	0.453880	0.558805
H143	H	1.590168	0.531442	0.624391
H144	H	1.516881	0.640080	0.525448
H145	H	1.643200	0.610213	0.561876
H146	H	1.619601	0.411771	0.565322
H147	H	1.745939	0.381872	0.601769
H148	H	1.907654	0.469343	0.370460
C149	C	0.472486	1.909319	-0.622148
C150	C	0.592599	1.803184	-0.558835
H151	H	0.480691	1.945944	-0.678135
H152	H	0.427666	1.986791	-0.615635
H153	H	0.427650	1.867191	-0.615618
H154	H	0.637432	1.845316	-0.565361
H155	H	0.637438	1.725699	-0.565350
H156	H	1.008590	1.368360	-0.629508
C157	C	0.807031	1.646752	-0.491253
C158	C	0.819222	1.576562	-0.403179
H159	H	0.888499	1.610122	-0.496925
H160	H	0.762194	1.748640	-0.518277
H161	H	0.762148	1.629071	-0.518283
H162	H	0.864097	1.594251	-0.376150
H163	H	0.864079	1.474649	-0.376144
H164	H	1.248432	1.591894	-0.235988
H165	H	1.248463	0.888662	-0.464710
C166	C	1.325266	0.610385	0.491179
C167	C	1.267272	0.680535	0.403111
H168	H	1.370094	0.647033	0.496836
H169	H	1.382327	0.508493	0.518218
H170	H	1.262700	0.628077	0.518206
H171	H	1.329840	0.662833	0.376086
H172	H	1.210206	0.782451	0.376061
H173	H	1.248474	0.469340	0.535282
H174	H	1.248462	1.787683	-0.370499
