data_functionalizedCrystal
_audit_creation_method	'MofGen! by Chris Wilmer'
_symmetry_space_group_name_H-M	'P1'
_symmetry_Int_Tables_number	1
_symmetry_cell_setting	triclinic
loop_
_symmetry_equiv_pos_as_xyz
  x,y,z
_cell_length_a	25.639242
_cell_length_b	25.639239
_cell_length_c	18.215399
_cell_angle_alpha	90.030035
_cell_angle_beta	90.020639
_cell_angle_gamma	90.030990
loop_
_atom_site_label
_atom_site_type_symbol
_atom_site_fract_x
_atom_site_fract_y
_atom_site_fract_z
Zn1	Zn	0.799257	-0.208264	0.416121
Zn2	Zn	1.299257	0.291736	0.916121
Zn3	Zn	0.799171	-0.295700	0.293050
Zn4	Zn	1.299171	0.204300	0.793050
Zn5	Zn	0.711824	-0.208268	0.293067
Zn6	Zn	1.211824	0.291732	0.793067
Zn7	Zn	0.711779	-0.295658	0.416073
Zn8	Zn	1.211779	0.204342	0.916073
O9	O	0.755508	-0.251972	0.354578
O10	O	1.255508	0.248028	0.854578
O11	O	0.872411	-0.219878	0.399808
O12	O	1.372411	0.280122	0.899808
O13	O	0.787567	-0.284121	0.190068
O14	O	1.287567	0.215879	0.690068
O15	O	0.723477	-0.135102	0.309417
O16	O	1.223477	0.364898	0.809417
O17	O	0.872348	-0.284116	0.309389
O18	O	1.372348	0.215884	0.809389
O19	O	0.787714	-0.135099	0.399824
O20	O	1.287714	0.364901	0.899824
O21	O	0.723394	-0.219885	0.190080
O22	O	1.223394	0.280115	0.690080
O23	O	0.638653	-0.219845	0.309371
O24	O	1.138653	0.280155	0.809371
O25	O	0.723400	-0.284046	0.519064
O26	O	1.223400	0.215954	1.019064
O27	O	0.638620	-0.284050	0.399743
O28	O	1.138620	0.215950	0.899743
O29	O	0.787670	-0.219837	0.519099
O30	O	1.287670	0.280163	1.019099
O31	O	0.787524	-0.368859	0.309343
O32	O	1.287524	0.131141	0.809343
O33	O	0.723317	-0.368829	0.399727
O34	O	1.223317	0.131171	0.899727
C35	C	0.619665	-0.251944	0.354554
C36	C	1.119665	0.248056	0.854554
C37	C	0.561551	-0.251945	0.354561
C38	C	1.061551	0.248055	0.854561
C39	C	0.310399	-0.218583	0.401745
C40	C	0.810399	0.281417	0.901745
C41	C	0.365003	-0.218577	0.401741
C42	C	0.865003	0.281423	0.901741
O43	O	0.393275	-0.190189	0.441853
O44	O	0.893275	0.309811	0.941853
N45	N	0.392277	-0.251966	0.354586
N46	N	0.892277	0.248034	0.854586
C47	C	0.364945	-0.285366	0.307438
C48	C	0.864945	0.214634	0.807438
O49	O	0.393157	-0.313766	0.267329
O50	O	0.893157	0.186234	0.767329
C51	C	0.310341	-0.285374	0.307446
C52	C	0.810341	0.214626	0.807446
C53	C	0.283070	-0.251979	0.354599
C54	C	0.783070	0.248021	0.854599
C55	C	0.283127	-0.185191	0.448894
C56	C	0.783127	0.314809	0.948894
C57	C	0.228527	-0.185195	0.448897
C58	C	0.728527	0.314805	0.948897
C59	C	0.201198	-0.218592	0.401751
C60	C	0.701198	0.281408	0.901751
C61	C	0.228469	-0.251983	0.354602
C62	C	0.728469	0.248017	0.854602
C63	C	0.283009	-0.318776	0.260302
C64	C	0.783009	0.181224	0.760302
C65	C	0.228402	-0.318781	0.260315
C66	C	0.728402	0.181219	0.760315
C67	C	0.201131	-0.285386	0.307468
C68	C	0.701131	0.214614	0.807468
C69	C	0.146540	-0.285384	0.307459
C70	C	0.646540	0.214616	0.807459
N71	N	0.119265	-0.251995	0.354613
N72	N	0.619265	0.248005	0.854613
C73	C	0.146595	-0.218599	0.401760
C74	C	0.646595	0.281401	0.901760
C75	C	0.479615	-0.285349	0.307425
C76	C	0.979615	0.214651	0.807425
C77	C	0.534218	-0.285339	0.307412
C78	C	1.034218	0.214661	0.807412
C79	C	0.534272	-0.218551	0.401716
C80	C	1.034272	0.281449	0.901716
C81	C	0.479669	-0.218558	0.401725
C82	C	0.979669	0.281442	0.901725
C83	C	0.452341	-0.251960	0.354579
C84	C	0.952341	0.248040	0.854579
C85	C	0.031929	-0.218611	0.401762
C86	C	0.531929	0.281389	0.901762
C87	C	-0.022676	-0.218617	0.401759
C88	C	0.477324	0.281383	0.901759
C89	C	-0.022726	-0.285407	0.307458
C90	C	0.477274	0.214593	0.807458
C91	C	0.031875	-0.285399	0.307458
C92	C	0.531875	0.214601	0.807458
C93	C	0.059201	-0.252000	0.354616
C94	C	0.559201	0.248000	0.854616
O95	O	0.118234	-0.313760	0.267369
O96	O	0.618234	0.186240	0.767369
O97	O	0.118375	-0.190209	0.441868
O98	O	0.618375	0.309791	0.941868
C99	C	0.755420	-0.387815	0.354544
C100	C	1.255420	0.112185	0.854544
C101	C	0.755430	-0.445929	0.354554
C102	C	1.255430	0.054071	0.854554
C103	C	0.789028	-0.806295	0.307595
C104	C	1.289028	-0.306295	0.807595
C105	C	0.789048	-0.860900	0.307605
C106	C	1.289048	-0.360900	0.807605
O107	O	0.817523	-0.889139	0.267641
O108	O	1.317523	-0.389139	0.767641
N109	N	0.755600	-0.888211	0.354627
N110	N	1.255600	-0.388211	0.854627
C111	C	0.722133	-0.860916	0.401647
C112	C	1.222133	-0.360916	0.901647
O113	O	0.693685	-0.889161	0.441644
O114	O	1.193685	-0.389161	0.941644
C115	C	0.722116	-0.806313	0.401640
C116	C	1.222116	-0.306313	0.901640
C117	C	0.755562	-0.779004	0.354610
C118	C	1.255562	-0.279004	0.854610
C119	C	0.822472	-0.778986	0.260569
C120	C	1.322472	-0.278986	0.760569
C121	C	0.822451	-0.724386	0.260558
C122	C	1.322451	-0.224386	0.760558
C123	C	0.788986	-0.697094	0.307573
C124	C	1.288986	-0.197094	0.807573
C125	C	0.755541	-0.724403	0.354599
C126	C	1.255541	-0.224403	0.854599
C127	C	0.688652	-0.779018	0.448664
C128	C	1.188652	-0.279018	0.948664
C129	C	0.688638	-0.724411	0.448654
C130	C	1.188638	-0.224411	0.948654
C131	C	0.722085	-0.697102	0.401623
C132	C	1.222085	-0.197102	0.901623
C133	C	0.722055	-0.642511	0.401604
C134	C	1.222055	-0.142511	0.901604
N135	N	0.755503	-0.615199	0.354582
N136	N	1.255503	-0.115199	0.854582
C137	C	0.788968	-0.642491	0.307567
C138	C	1.288968	-0.142491	0.807567
C139	C	0.722172	-0.975587	0.401658
C140	C	1.222172	-0.475587	0.901658
C141	C	0.722187	-1.030189	0.401662
C142	C	1.222187	-0.530189	0.901662
C143	C	0.789102	-1.030169	0.307620
C144	C	1.289102	-0.530169	0.807620
C145	C	0.789085	-0.975565	0.307613
C146	C	1.289085	-0.475565	0.807613
C147	C	0.755621	-0.948275	0.354636
C148	C	1.255621	-0.448275	0.854636
C149	C	0.788921	-0.527826	0.307548
C150	C	1.288921	-0.027826	0.807548
C151	C	0.788896	-0.473220	0.307539
C152	C	1.288896	0.026780	0.807539
C153	C	0.721982	-0.473245	0.401583
C154	C	1.221982	0.026755	0.901583
C155	C	0.722005	-0.527846	0.401589
C156	C	1.222005	-0.027846	0.901589
C157	C	0.755479	-0.555135	0.354569
C158	C	1.255479	-0.055135	0.854569
O159	O	0.693596	-0.614237	0.441549
O160	O	1.193596	-0.114237	0.941549
O161	O	0.817416	-0.614239	0.267583
O162	O	1.317416	-0.114239	0.767583
C163	C	0.891881	-0.252001	0.354602
C164	C	1.391881	0.247999	0.854602
C165	C	0.949995	-0.252013	0.354612
C166	C	1.449995	0.247987	0.854612
C167	C	0.755540	-0.251936	0.546531
C168	C	1.255540	0.248064	1.046531
C169	C	0.755553	-0.251921	0.628330
C170	C	1.255553	0.248079	1.128330
C171	C	0.755610	-0.115599	0.354628
C172	C	1.255610	0.384401	0.854628
C173	C	0.755654	-0.057485	0.354649
C174	C	1.255654	0.442515	0.854649
C175	C	0.755506	-0.251970	0.163372
C176	C	1.255506	0.248030	0.663372
C177	C	0.755594	-0.251839	0.081573
C178	C	1.255594	0.248161	0.581573
C179	C	0.789031	-0.218456	0.816543
C180	C	1.289031	0.281544	1.316543
C181	C	0.789037	-0.218441	0.893402
C182	C	1.289037	0.281559	1.393402
C183	C	0.722113	-0.285305	0.893354
C184	C	1.222113	0.214695	1.393354
C185	C	0.722104	-0.285317	0.816497
C186	C	1.222104	0.214683	1.316497
C187	C	0.755566	-0.251893	0.778093
C188	C	1.255566	0.248107	1.278093
C189	C	0.755581	-0.251866	0.931809
C190	C	1.255581	0.248134	1.431809
C191	C	0.755588	-0.251850	1.015143
C192	C	1.255588	0.248150	1.515143
C193	C	0.755559	-0.251909	0.694754
C194	C	1.255559	0.248091	1.194754
H195	H	0.054172	-0.191413	0.440162
H196	H	0.554172	0.308587	0.940162
N197	N	0.686005	-0.321386	0.775032
N198	N	1.186005	0.178614	1.275032
H199	H	0.707228	-0.345626	0.743137
H200	H	1.207228	0.154374	1.243137
H201	H	0.661792	-0.300101	0.743191
H202	H	1.161792	0.199899	1.243191
N203	N	0.825021	-0.557248	0.256823
N204	N	1.325021	-0.057248	0.756823
H205	H	0.803794	-0.579936	0.222693
H206	H	1.303794	-0.079936	0.722693
H207	H	0.849246	-0.579838	0.286806
H208	H	1.349246	-0.079838	0.786806
H209	H	-0.044987	-0.312595	0.269069
H210	H	0.455013	0.187405	0.769069
N211	N	0.450263	-0.182541	0.452589
N212	N	0.950263	0.317459	0.952589
H213	H	0.427612	-0.203821	0.486647
H214	H	0.927612	0.296179	0.986647
H215	H	0.427637	-0.158292	0.422700
H216	H	0.927637	0.341708	0.922700
H217	H	0.694946	-1.052419	0.439952
H218	H	1.194946	-0.552419	0.939952
H219	H	0.816320	-0.953334	0.269318
H220	H	1.316320	-0.453334	0.769318
N221	N	0.652544	-0.694977	0.499374
N222	N	1.152544	-0.194977	0.999374
H223	H	0.631362	-0.720566	0.529165
H224	H	1.131362	-0.220566	1.029165
H225	H	0.628350	-0.672357	0.469385
H226	H	1.128350	-0.172357	0.969385
N227	N	0.825123	-0.182410	0.775123
N228	N	1.325123	0.317590	1.275123
H229	H	0.820044	-0.187494	0.720599
H230	H	1.320044	0.312506	1.220599
H231	H	0.862456	-0.190559	0.788573
H232	H	1.362456	0.309441	1.288573
H233	H	-0.044878	-0.191420	0.440156
H234	H	0.455122	0.308580	0.940156
N235	N	0.825125	-0.182371	0.934874
N236	N	1.325125	0.317629	1.434874
H237	H	0.846318	-0.161199	0.898880
H238	H	1.346318	0.338801	1.398880
H239	H	0.849310	-0.203647	0.966766
H240	H	1.349310	0.296353	1.466766
N241	N	0.686022	-0.321344	0.934787
N242	N	1.186022	0.178656	1.434787
H243	H	0.707253	-0.345573	0.966675
H244	H	1.207253	0.154427	1.466675
H245	H	0.664822	-0.342494	0.898726
H246	H	1.164822	0.157506	1.398726
N247	N	0.199117	-0.149172	0.499748
N248	N	0.699117	0.350828	0.999748
H249	H	0.224722	-0.128016	0.529609
H250	H	0.724722	0.371984	1.029609
H251	H	0.176460	-0.170481	0.533760
H252	H	0.676460	0.329519	1.033760
N253	N	0.563754	-0.182531	0.452571
N254	N	1.063754	0.317469	0.952571
H255	H	0.602482	-0.187598	0.445409
H256	H	1.102482	0.312402	0.945409
H257	H	0.554224	-0.190720	0.505111
H258	H	1.054224	0.309280	1.005111
H259	H	0.694733	-0.451016	0.439860
H260	H	1.194733	0.048984	0.939860
N261	N	0.686067	-0.946152	0.452365
N262	N	1.186067	-0.446152	0.952365
H263	H	0.707288	-0.923462	0.486500
H264	H	1.207288	-0.423462	0.986500
H265	H	0.664889	-0.971775	0.482100
H266	H	1.164889	-0.471775	0.982100
H267	H	0.556417	-0.312527	0.269008
H268	H	1.056417	0.187473	0.769008
N269	N	0.198924	-0.354805	0.209465
N270	N	0.698924	0.145195	0.709465
H271	H	0.208413	-0.392171	0.220800
H272	H	0.708413	0.107829	0.720800
H273	H	0.208426	-0.346592	0.156923
H274	H	0.708426	0.153408	0.656923
N275	N	0.312599	-0.149169	0.499751
N276	N	0.812599	0.350831	0.999751
H277	H	0.287029	-0.128021	0.529617
H278	H	0.787029	0.371979	1.029617
H279	H	0.335252	-0.124940	0.469855
H280	H	0.835252	0.375060	0.969855
H281	H	0.457368	-0.312547	0.269027
H282	H	0.957368	0.187453	0.769027
N283	N	0.312415	-0.354793	0.209442
N284	N	0.812415	0.145207	0.709442
H285	H	0.286809	-0.375949	0.179583
H286	H	0.786809	0.124051	0.679583
H287	H	0.335068	-0.379016	0.239332
H288	H	0.835068	0.120984	0.739332
H289	H	0.054080	-0.312587	0.269056
H290	H	0.554080	0.187413	0.769056
N291	N	0.824973	-0.443766	0.256813
N292	N	1.324973	0.056234	0.756813
H293	H	0.846177	-0.469344	0.227035
H294	H	1.346177	0.030656	0.727035
H295	H	0.849148	-0.421076	0.286800
H296	H	1.349148	0.078924	0.786800
H297	H	0.849687	-0.702154	0.222264
H298	H	1.349687	-0.202154	0.722264
H299	H	0.849726	-0.801201	0.222283
H300	H	1.349726	-0.301201	0.722283
H301	H	0.816354	-1.052399	0.269340
H302	H	1.316354	-0.552399	0.769340
N303	N	0.652574	-0.808464	0.499386
N304	N	1.152574	-0.308464	0.999386
H305	H	0.631377	-0.782882	0.529166
H306	H	1.131377	-0.282882	1.029166
H307	H	0.673849	-0.831085	0.533478
H308	H	1.173849	-0.331085	1.033478
N309	N	0.685927	-0.557305	0.452305
N310	N	1.185927	-0.057305	0.952305
H311	H	0.664722	-0.531728	0.482085
H312	H	1.164722	-0.031728	0.982085
H313	H	0.707205	-0.579921	0.486397
H314	H	1.207205	-0.079921	0.986397
