data_functionalizedCrystal
_audit_creation_method	'MofGen! by Chris Wilmer'
_symmetry_space_group_name_H-M	'P1'
_symmetry_Int_Tables_number	1
_symmetry_cell_setting	triclinic
loop_
_symmetry_equiv_pos_as_xyz
  x,y,z
_cell_length_a	29.839131
_cell_length_b	29.839134
_cell_length_c	18.101390
_cell_angle_alpha	90.030791
_cell_angle_beta	89.964218
_cell_angle_gamma	89.963233
loop_
_atom_site_label
_atom_site_type_symbol
_atom_site_fract_x
_atom_site_fract_y
_atom_site_fract_z
Zn1	Zn	-0.178892	-0.686751	-0.418945
Zn2	Zn	0.321108	-0.186751	0.081055
Zn3	Zn	-0.254028	-0.686674	-0.295097
Zn4	Zn	0.245972	-0.186674	0.204903
Zn5	Zn	-0.178906	-0.611625	-0.295093
Zn6	Zn	0.321094	-0.111625	0.204907
Zn7	Zn	-0.253989	-0.611582	-0.418872
Zn8	Zn	0.246011	-0.111582	0.081128
O9	O	-0.216454	-0.649158	-0.357002
O10	O	0.283546	-0.149158	0.142998
O11	O	-0.188869	-0.749608	-0.402548
O12	O	0.311131	-0.249608	0.097452
O13	O	-0.244085	-0.676704	-0.191463
O14	O	0.255915	-0.176704	0.308537
O15	O	-0.116037	-0.621641	-0.311550
O16	O	0.383963	-0.121641	0.188450
O17	O	-0.244071	-0.749551	-0.311558
O18	O	0.255929	-0.249551	0.188442
O19	O	-0.116027	-0.676836	-0.402544
O20	O	0.383973	-0.176836	0.097456
O21	O	-0.188893	-0.621566	-0.191460
O22	O	0.311107	-0.121566	0.308540
O23	O	-0.188856	-0.548752	-0.311480
O24	O	0.311144	-0.048752	0.188520
O25	O	-0.244006	-0.621567	-0.522515
O26	O	0.255994	-0.121567	-0.022515
O27	O	-0.244020	-0.548720	-0.402421
O28	O	0.255980	-0.048720	0.097579
O29	O	-0.188832	-0.676794	-0.522568
O30	O	0.311168	-0.176794	-0.022568
O31	O	-0.316890	-0.676663	-0.311487
O32	O	0.183110	-0.176663	0.188513
O33	O	-0.316862	-0.621493	-0.402425
O34	O	0.183138	-0.121493	0.097575
C35	C	-0.216436	-0.532435	-0.356942
C36	C	0.283564	-0.032435	0.143058
C37	C	-0.216439	-0.482501	-0.356935
C38	C	0.283561	0.017499	0.143065
C39	C	-0.245224	-0.172851	-0.404273
C40	C	0.254776	0.327149	0.095727
C41	C	-0.245238	0.014823	-0.404297
C42	C	0.254762	0.514823	0.095703
O43	O	-0.269689	0.039093	-0.444525
O44	O	0.230311	0.539093	0.055475
N45	N	-0.216476	0.038284	-0.357024
N46	N	0.283524	0.538284	0.142976
C47	C	-0.187706	0.014825	-0.309745
C48	C	0.312294	0.514825	0.190255
O49	O	-0.163240	0.039087	-0.269542
O50	O	0.336760	0.539087	0.230458
C51	C	-0.187690	-0.172847	-0.309725
C52	C	0.312310	0.327153	0.190275
C53	C	-0.216457	-0.196307	-0.356996
C54	C	0.283543	0.303693	0.143004
C55	C	-0.273988	-0.196310	-0.451540
C56	C	0.226012	0.303690	0.048460
C57	C	-0.273986	-0.243225	-0.451531
C58	C	0.226014	0.256775	0.048469
C59	C	-0.245220	-0.266681	-0.404254
C60	C	0.254780	0.233319	0.095746
C61	C	-0.216455	-0.243222	-0.356987
C62	C	0.283545	0.256778	0.143013
C63	C	-0.158919	-0.196306	-0.262451
C64	C	0.341081	0.303694	0.237549
C65	C	-0.158916	-0.243227	-0.262452
C66	C	0.341084	0.256773	0.237548
C67	C	-0.187683	-0.266686	-0.309722
C68	C	0.312317	0.233314	0.190278
C69	C	-0.187687	-0.313594	-0.309701
C70	C	0.312313	0.186406	0.190299
N71	N	-0.216449	-0.337055	-0.356974
N72	N	0.283551	0.162945	0.143026
C73	C	-0.245215	-0.313599	-0.404251
C74	C	0.254785	0.186401	0.095749
C75	C	-0.187718	0.113355	-0.309757
C76	C	0.312282	0.613355	0.190243
C77	C	-0.187722	0.160273	-0.309761
C78	C	0.312278	0.660273	0.190239
C79	C	-0.245253	0.160268	-0.404314
C80	C	0.254747	0.660268	0.095686
C81	C	-0.245251	0.113349	-0.404306
C82	C	0.254749	0.613349	0.095694
C83	C	-0.216480	0.089894	-0.357030
C84	C	0.283520	0.589894	0.142970
C85	C	-0.245209	-0.412125	-0.404227
C86	C	0.254791	0.087875	0.095773
C87	C	-0.245205	-0.459045	-0.404211
C88	C	0.254795	0.040955	0.095789
C89	C	-0.187673	-0.459035	-0.309662
C90	C	0.312327	0.040965	0.190338
C91	C	-0.187678	-0.412120	-0.309674
C92	C	0.312322	0.087880	0.190326
C93	C	-0.216447	-0.388666	-0.356963
C94	C	0.283553	0.111334	0.143037
O95	O	-0.163245	-0.337893	-0.269499
O96	O	0.336755	0.162107	0.230501
O97	O	-0.269671	-0.337869	-0.444459
O98	O	0.230329	0.162131	0.055541
C99	C	-0.245226	-0.125935	-0.404282
C100	C	0.254774	0.374065	0.095718
C101	C	-0.216462	-0.102476	-0.357015
C102	C	0.283538	0.397524	0.142985
C103	C	-0.187695	-0.125932	-0.309738
C104	C	0.312305	0.374068	0.190262
C105	C	-0.216466	-0.055558	-0.357018
C106	C	0.283534	0.444442	0.142982
C107	C	-0.245233	-0.032102	-0.404295
C108	C	0.254767	0.467898	0.095705
C109	C	-0.273995	-0.055563	-0.451568
C110	C	0.226005	0.444437	0.048432
C111	C	-0.273993	-0.102479	-0.451559
C112	C	0.226007	0.397521	0.048441
C113	C	-0.158933	-0.102470	-0.262465
C114	C	0.341067	0.397530	0.237535
C115	C	-0.158938	-0.055555	-0.262477
C116	C	0.341062	0.444445	0.237523
C117	C	-0.187704	-0.032099	-0.309754
C118	C	0.312296	0.467901	0.190246
C119	C	-0.333176	-0.649077	-0.356965
C120	C	0.166824	-0.149077	0.143035
C121	C	-0.383111	-0.649083	-0.356974
C122	C	0.116889	-0.149083	0.143026
C123	C	-0.692756	-0.677937	-0.309720
C124	C	-0.192756	-0.177937	0.190280
C125	C	-0.880429	-0.677993	-0.309749
C126	C	-0.380429	-0.177993	0.190251
O127	O	-0.904696	-0.702461	-0.269543
O128	O	-0.404696	-0.202461	0.230457
N129	N	-0.903896	-0.649251	-0.357057
N130	N	-0.403896	-0.149251	0.142943
C131	C	-0.880441	-0.620496	-0.404366
C132	C	-0.380441	-0.120496	0.095634
O133	O	-0.904708	-0.596054	-0.444611
O134	O	-0.404708	-0.096054	0.055389
C135	C	-0.692769	-0.620443	-0.404340
C136	C	-0.192769	-0.120443	0.095660
C137	C	-0.669305	-0.649183	-0.357023
C138	C	-0.169305	-0.149183	0.142977
C139	C	-0.669292	-0.706675	-0.262407
C140	C	-0.169292	-0.206675	0.237593
C141	C	-0.622376	-0.706659	-0.262397
C142	C	-0.122376	-0.206659	0.237603
C143	C	-0.598925	-0.677905	-0.309701
C144	C	-0.098925	-0.177905	0.190299
C145	C	-0.622390	-0.649167	-0.357014
C146	C	-0.122390	-0.149167	0.142986
C147	C	-0.669316	-0.591690	-0.451652
C148	C	-0.169316	-0.091690	0.048348
C149	C	-0.622395	-0.591680	-0.451643
C150	C	-0.122395	-0.091680	0.048357
C151	C	-0.598930	-0.620420	-0.404326
C152	C	-0.098930	-0.120420	0.095674
C153	C	-0.552023	-0.620397	-0.404307
C154	C	-0.052023	-0.120397	0.095693
N155	N	-0.528556	-0.649139	-0.356998
N156	N	-0.028556	-0.149139	0.143002
C157	C	-0.552007	-0.677893	-0.309695
C158	C	-0.052007	-0.177893	0.190305
C159	C	-0.978972	-0.620525	-0.404375
C160	C	-0.478972	-0.120525	0.095625
C161	C	-1.025890	-0.620537	-0.404381
C162	C	-0.525890	-0.120537	0.095619
C163	C	-1.025874	-0.678035	-0.309764
C164	C	-0.525874	-0.178035	0.190236
C165	C	-0.978956	-0.678020	-0.309755
C166	C	-0.478956	-0.178020	0.190245
C167	C	-0.955505	-0.649266	-0.357066
C168	C	-0.455505	-0.149266	0.142934
C169	C	-0.453482	-0.677857	-0.309678
C170	C	0.046518	-0.177857	0.190322
C171	C	-0.406562	-0.677837	-0.309671
C172	C	0.093438	-0.177837	0.190329
C173	C	-0.406582	-0.620341	-0.404290
C174	C	0.093418	-0.120341	0.095710
C175	C	-0.453497	-0.620359	-0.404295
C176	C	0.046503	-0.120359	0.095705
C177	C	-0.476946	-0.649121	-0.356987
C178	C	0.023054	-0.149121	0.143013
O179	O	-0.527728	-0.595945	-0.444498
O180	O	-0.027728	-0.095945	0.055502
O181	O	-0.527733	-0.702338	-0.269468
O182	O	-0.027733	-0.202338	0.230532
C183	C	-0.739672	-0.677953	-0.309729
C184	C	-0.239672	-0.177953	0.190271
C185	C	-0.763136	-0.649215	-0.357042
C186	C	-0.263136	-0.149215	0.142958
C187	C	-0.739685	-0.620461	-0.404346
C188	C	-0.239685	-0.120461	0.095654
C189	C	-0.810054	-0.649227	-0.357048
C190	C	-0.310054	-0.149227	0.142952
C191	C	-0.833505	-0.677981	-0.309745
C192	C	-0.333505	-0.177981	0.190255
C193	C	-0.810038	-0.706723	-0.262436
C194	C	-0.310038	-0.206723	0.237564
C195	C	-0.763123	-0.706707	-0.262426
C196	C	-0.263123	-0.206707	0.237574
C197	C	-0.763151	-0.591719	-0.451654
C198	C	-0.263151	-0.091719	0.048346
C199	C	-0.810067	-0.591737	-0.451660
C200	C	-0.310067	-0.091737	0.048340
C201	C	-0.833518	-0.620491	-0.404356
C202	C	-0.333518	-0.120491	0.095644
C203	C	-0.099275	-0.649252	-0.357055
C204	C	0.400725	-0.149252	0.142945
C205	C	-0.049341	-0.649291	-0.357077
C206	C	0.450659	-0.149291	0.142923
C207	C	-0.216413	-0.649185	-0.550164
C208	C	0.283587	-0.149185	-0.050164
C209	C	-0.216395	-0.649196	-0.632478
C210	C	0.283605	-0.149196	-0.132478
C211	C	-0.216474	0.233664	-0.357049
C212	C	0.283526	0.733664	0.142951
C213	C	-0.216489	0.183729	-0.357038
C214	C	0.283511	0.683729	0.142962
C215	C	-0.216367	-0.649220	-0.931569
C216	C	0.283633	-0.149220	-0.431569
C217	C	-0.181776	-0.684082	-0.900277
C218	C	0.318224	-0.184082	-0.400277
C219	C	-0.181647	-0.683973	-0.814659
C220	C	0.318353	-0.183973	-0.314659
C221	C	-0.216381	-0.649209	-0.783186
C222	C	0.283619	-0.149209	-0.283186
C223	C	-0.203515	-0.601883	-0.814246
C224	C	0.296485	-0.101883	-0.314246
C225	C	-0.203255	-0.602092	-0.899891
C226	C	0.296745	-0.102092	-0.399891
C227	C	-0.263914	-0.661267	-0.899981
C228	C	0.236086	-0.161267	-0.399981
C229	C	-0.263672	-0.662306	-0.814331
C230	C	0.236328	-0.162306	-0.314331
C231	C	-0.216390	-0.649199	-0.699327
C232	C	0.283610	-0.149199	-0.199327
C233	C	-0.216358	-0.649227	-1.015428
C234	C	0.283642	-0.149227	-0.515428
C235	C	-0.216462	-0.649157	-0.164591
C236	C	0.283538	-0.149157	0.335409
C237	C	-0.216353	-0.649233	-0.082277
C238	C	0.283647	-0.149233	0.417723
H239	H	-0.135507	-0.121564	-0.223966
H240	H	0.364493	0.378436	0.276034
Cl241	Cl	-1.055382	-0.584400	-0.463859
Cl242	Cl	-0.555382	-0.084400	0.036141
H243	H	-0.164302	0.179370	-0.271261
H244	H	0.335698	0.679370	0.228739
H245	H	-0.168499	-0.591878	-0.919881
H246	H	0.331501	-0.091878	-0.419881
Cl247	Cl	-0.377067	-0.713971	-0.250182
Cl248	Cl	0.122933	-0.213971	0.249818
Cl249	Cl	-0.150447	-0.585827	-0.781155
Cl250	Cl	0.349553	-0.085827	-0.281155
Cl251	Cl	-0.240454	-0.560621	-0.931849
Cl252	Cl	0.259546	-0.060621	-0.431849
H253	H	-0.472568	-0.701278	-0.271157
H254	H	0.027432	-0.201278	0.228843
H255	H	-0.603275	-0.730063	-0.223870
H256	H	-0.103275	-0.230063	0.276130
H257	H	-0.959882	-0.597109	-0.442902
H258	H	-0.459882	-0.097109	0.057098
H259	H	-0.297418	-0.121575	-0.490052
H260	H	0.202582	0.378425	0.009948
Cl261	Cl	-0.698765	-0.742829	-0.202932
Cl262	Cl	-0.198765	-0.242829	0.297068
H263	H	-0.289689	-0.635878	-0.920221
H264	H	0.210311	-0.135878	-0.420221
Cl265	Cl	-0.949463	-0.714152	-0.250270
Cl266	Cl	-0.449463	-0.214152	0.249730
Cl267	Cl	-0.122744	-0.272711	-0.203016
Cl268	Cl	0.377256	0.227289	0.296984
H269	H	-0.603304	-0.568266	-0.490172
H270	H	-0.103304	-0.068266	0.009828
H271	H	-0.135495	-0.177214	-0.223956
H272	H	0.364505	0.322786	0.276044
Cl273	Cl	-0.281373	-0.488533	-0.463641
Cl274	Cl	0.218627	0.011467	0.036359
Cl275	Cl	-0.310160	-0.026067	-0.510998
Cl276	Cl	0.189840	0.473933	-0.010998
Cl277	Cl	-1.055364	-0.714182	-0.250296
Cl278	Cl	-0.555364	-0.214182	0.249704
H279	H	-0.164254	-0.393018	-0.271181
H280	H	0.335746	0.106982	0.228819
H281	H	-0.744021	-0.730110	-0.223896
H282	H	-0.244021	-0.230110	0.276104
Cl283	Cl	-0.151510	-0.488532	-0.250232
Cl284	Cl	0.348490	0.011468	0.249768
H285	H	-0.135513	-0.036458	-0.223977
H286	H	0.364487	0.463542	0.276023
Cl287	Cl	-0.127264	-0.671662	-0.783046
Cl288	Cl	0.372736	-0.171662	-0.283046
H289	H	-0.268635	-0.393035	-0.442736
H290	H	0.231365	0.106965	0.057264
Cl291	Cl	-0.310150	-0.272710	-0.510965
Cl292	Cl	0.189850	0.227290	-0.010965
H293	H	-0.688412	-0.568284	-0.490180
H294	H	-0.188412	-0.068284	0.009820
Cl295	Cl	-0.482996	-0.584219	-0.463765
Cl296	Cl	0.017004	-0.084219	0.036235
Cl297	Cl	-0.377091	-0.584198	-0.463757
Cl298	Cl	0.122909	-0.084198	0.036243
H299	H	-0.829140	-0.730134	-0.223917
H300	H	-0.329140	-0.230134	0.276083
H301	H	-0.189705	-0.719066	-0.793661
H302	H	0.310295	-0.219066	-0.293661
Cl303	Cl	-0.839559	-0.555602	-0.511150
Cl304	Cl	-0.339559	-0.055602	-0.011150
H305	H	-0.275629	-0.695171	-0.921635
H306	H	0.224371	-0.195171	-0.421635
Cl307	Cl	-0.281414	0.189764	-0.463753
Cl308	Cl	0.218586	0.689764	0.036247
Cl309	Cl	-0.733677	-0.555567	-0.511128
Cl310	Cl	-0.233677	-0.055567	-0.011128
H311	H	-0.227934	-0.575204	-0.793856
H312	H	0.272066	-0.075204	-0.293856
Cl313	Cl	-0.278652	-0.716078	-0.782997
Cl314	Cl	0.221348	-0.216078	-0.282997
Cl315	Cl	-0.310157	-0.166831	-0.510982
Cl316	Cl	0.189843	0.333169	-0.010982
H317	H	-0.268675	0.094252	-0.442799
H318	H	0.231325	0.594252	0.057201
Cl319	Cl	-0.194059	-0.738442	-0.932105
Cl320	Cl	0.305941	-0.238442	-0.432105
Cl321	Cl	-0.127695	-0.671930	-0.933528
Cl322	Cl	0.372305	-0.171930	-0.433528
H323	H	-0.164288	0.094262	-0.271256
H324	H	0.335712	0.594262	0.228744
Cl325	Cl	-0.305604	-0.625950	-0.781259
Cl326	Cl	0.194396	-0.125950	-0.281259
