data_functionalizedCrystal
_audit_creation_method	'MofGen! by Chris Wilmer'
_symmetry_space_group_name_H-M	'P1'
_symmetry_Int_Tables_number	1
_symmetry_cell_setting	triclinic
loop_
_symmetry_equiv_pos_as_xyz
  x,y,z
_cell_length_a	19.288864
_cell_length_b	15.944551
_cell_length_c	18.366186
_cell_angle_alpha	89.992809
_cell_angle_beta	89.977106
_cell_angle_gamma	83.317492
loop_
_atom_site_label
_atom_site_type_symbol
_atom_site_fract_x
_atom_site_fract_y
_atom_site_fract_z
O1	O	0.921629	0.104784	-0.060785
O2	O	1.421629	0.604784	0.439215
O3	O	0.719405	0.118919	-0.060735
O4	O	1.219405	0.618919	0.439265
O5	O	0.826039	-0.010445	-0.060755
O6	O	1.326039	0.489555	0.439245
O7	O	0.814995	0.234147	-0.060765
O8	O	1.314995	0.734147	0.439235
O9	O	0.826021	-0.010451	0.060345
O10	O	1.326021	0.489549	0.560345
O11	O	0.719387	0.118912	0.060364
O12	O	1.219387	0.618912	0.560364
O13	O	0.921611	0.104777	0.060315
O14	O	1.421611	0.604777	0.560315
Zn15	Zn	0.820496	0.111844	0.079567
Zn16	Zn	1.320496	0.611844	0.579567
Zn17	Zn	0.820520	0.111852	-0.079987
Zn18	Zn	1.320520	0.611852	0.420013
O19	O	0.814977	0.234141	0.060334
O20	O	1.314977	0.734141	0.560334
C21	C	0.693519	0.118461	-0.000179
C22	C	1.193519	0.618461	0.499821
C23	C	0.616411	0.117095	-0.000160
C24	C	1.116411	0.617095	0.499840
C25	C	0.571915	0.193000	-0.000175
C26	C	1.071915	0.693000	0.499825
C27	C	0.499465	0.191717	-0.000183
C28	C	0.999465	0.691717	0.499817
C29	C	0.471514	0.114526	-0.000191
C30	C	0.971514	0.614526	0.499809
C31	C	0.516020	0.038611	-0.000172
C32	C	1.016020	0.538611	0.499828
C33	C	0.588469	0.039896	-0.000156
C34	C	1.088469	0.539896	0.499844
C35	C	0.363098	0.053847	-0.042639
C36	C	0.863098	0.553847	0.457361
C37	C	0.290650	0.052565	-0.042659
C38	C	0.790650	0.552565	0.457341
C39	C	0.248058	0.110560	-0.000234
C40	C	0.748058	0.610560	0.499766
C41	C	0.277920	0.169850	0.042200
C42	C	0.777920	0.669850	0.542200
C43	C	0.350369	0.171135	0.042216
C44	C	0.850369	0.671135	0.542216
C45	C	0.392956	0.113124	-0.000207
C46	C	0.892956	0.613124	0.499793
C47	C	0.125002	0.185079	-0.000257
C48	C	0.625002	0.685079	0.499743
C49	C	0.052550	0.183793	-0.000260
C50	C	0.552550	0.683793	0.499740
C51	C	0.069107	0.030684	-0.000257
C52	C	0.569107	0.530684	0.499743
C53	C	0.141557	0.031972	-0.000246
C54	C	0.641557	0.531972	0.499754
C55	C	0.169500	0.109172	-0.000249
C56	C	0.669500	0.609172	0.499751
C57	C	0.825572	-0.041740	-0.000205
C58	C	1.325572	0.458260	0.499795
C59	C	0.824197	-0.134981	-0.000204
C60	C	1.324197	0.365019	0.499796
C61	C	0.754815	-0.349571	-0.000197
C62	C	1.254815	0.150429	0.499803
C63	C	0.787025	-0.410715	0.059504
C64	C	1.287025	0.089285	0.559504
C65	C	0.821710	-0.305697	-0.000209
C66	C	1.321710	0.194303	0.499791
C67	C	0.787058	-0.410692	-0.059890
C68	C	1.287058	0.089308	0.440110
C69	C	0.819303	-0.470601	-0.000217
C70	C	1.319303	0.029399	0.499783
C71	C	0.853939	-0.365614	0.059542
C72	C	1.353939	0.134386	0.559542
C73	C	0.853963	-0.365585	-0.059906
C74	C	1.353963	0.134415	0.440094
C75	C	0.886222	-0.426712	-0.000190
C76	C	1.386222	0.073288	0.499810
C77	C	0.823095	-0.210700	-0.000204
C78	C	1.323095	0.289300	0.499796
C79	C	0.817924	-0.565597	-0.000217
C80	C	1.317924	-0.065597	0.499783
C81	C	0.947497	0.105235	-0.000243
C82	C	1.447497	0.605235	0.499757
C83	C	1.024605	0.106600	-0.000267
C84	C	1.524605	0.606600	0.499733
C85	C	0.815444	0.265436	-0.000217
C86	C	1.315444	0.765436	0.499783
C87	C	0.816819	0.358677	-0.000223
C88	C	1.316819	0.858677	0.499777
N89	N	0.820485	0.111838	0.188458
N90	N	1.320485	0.611838	0.688458
N91	N	0.820537	0.111852	-0.188878
N92	N	1.320537	0.611852	0.311122
C93	C	0.867718	0.054583	0.226549
C94	C	1.367718	0.554583	0.726549
C95	C	0.867722	0.054580	0.302777
C96	C	1.367722	0.554580	0.802777
C97	C	0.820500	0.111844	0.340910
C98	C	1.320500	0.611844	0.840910
C99	C	0.773258	0.169103	0.302810
C100	C	1.273258	0.669103	0.802810
C101	C	0.773251	0.169100	0.226583
C102	C	1.273251	0.669100	0.726583
C103	C	0.811404	0.188378	0.461669
C104	C	1.311404	0.688378	0.961669
C105	C	0.811416	0.188383	0.537894
C106	C	1.311416	0.688383	1.037894
C107	C	0.820520	0.111855	0.576018
C108	C	1.320520	0.611855	1.076018
C109	C	0.829626	0.035320	0.537908
C110	C	1.329626	0.535320	1.037908
C111	C	0.829618	0.035316	0.461681
C112	C	1.329618	0.535316	0.961681
C113	C	0.820503	0.111854	0.423565
C114	C	1.320503	0.611854	0.923565
C115	C	0.867760	0.054592	0.696765
C116	C	1.367760	0.554592	1.196765
C117	C	0.867760	0.054587	0.772994
C118	C	1.367760	0.554587	1.272994
C119	C	0.773299	0.169118	0.773025
C120	C	1.273299	0.669118	1.273025
C121	C	0.773296	0.169115	0.696797
C122	C	1.273296	0.669115	1.196797
C123	C	0.820531	0.111853	0.658671
C124	C	1.320531	0.611853	1.158671
H125	H	0.374680	0.219409	0.076770
H126	H	0.874680	0.719409	0.576770
H127	H	0.594661	0.255862	-0.000179
H128	H	1.094661	0.755862	0.499821
H129	H	0.734787	0.215724	0.195568
H130	H	1.234787	0.715724	0.695568
H131	H	0.803978	0.250700	0.430635
H132	H	1.303978	0.750700	0.930635
C133	C	0.891676	-0.338712	-0.127161
C134	C	1.391676	0.161288	0.372839
C135	C	0.893016	-0.251115	-0.125890
C136	C	1.393016	0.248885	0.374110
C137	C	0.927753	-0.226328	-0.187835
C138	C	1.427753	0.273672	0.312165
H139	H	0.867900	-0.353879	-0.169593
H140	H	1.367900	0.146121	0.330407
H141	H	0.938117	-0.366142	-0.127603
H142	H	1.438117	0.133858	0.372397
H143	H	0.846584	-0.223694	-0.125455
H144	H	1.346584	0.276306	0.374545
H145	H	0.916797	-0.235926	-0.083472
H146	H	1.416797	0.264074	0.416528
H147	H	0.974194	-0.253758	-0.188277
H148	H	1.474194	0.246242	0.311723
H149	H	0.903973	-0.241500	-0.230262
H150	H	1.403973	0.258500	0.269738
H151	H	0.928673	-0.166893	-0.186977
H152	H	1.428673	0.333107	0.313023
H153	H	0.906177	0.007955	0.195510
H154	H	1.406177	0.507955	0.695510
H155	H	0.266342	0.004290	-0.077214
H156	H	0.766342	0.504290	0.422786
H157	H	0.758763	-0.430658	-0.110366
H158	H	1.258763	0.069342	0.389634
H159	H	0.397772	0.006619	-0.077190
H160	H	0.897772	0.506619	0.422810
C161	C	0.485772	-0.045259	-0.000297
C162	C	0.985772	0.454741	0.499703
C163	C	0.508441	-0.091137	-0.062584
C164	C	1.008441	0.408863	0.437416
C165	C	0.480600	-0.168409	-0.062715
C166	C	0.980600	0.331591	0.437285
H167	H	0.436253	-0.035273	-0.000348
H168	H	0.936253	0.464727	0.499652
H169	H	0.501040	-0.076550	0.041916
H170	H	1.001040	0.423450	0.541916
H171	H	0.493169	-0.059852	-0.104785
H172	H	0.993169	0.440148	0.395215
H173	H	0.557956	-0.101145	-0.062546
H174	H	1.057956	0.398855	0.437454
H175	H	0.495868	-0.199700	-0.020503
H176	H	0.995868	0.300300	0.479497
H177	H	0.431082	-0.158415	-0.062764
H178	H	0.931082	0.341585	0.437236
H179	H	0.495982	-0.199550	-0.104973
H180	H	0.995982	0.300450	0.395027
C181	C	0.680793	-0.304827	-0.000257
C182	C	1.180793	0.195173	0.499743
C183	C	0.670384	-0.254858	-0.062873
C184	C	1.170384	0.245142	0.437127
C185	C	0.602203	-0.213638	-0.062955
C186	C	1.102203	0.286362	0.437045
H187	H	0.673856	-0.270053	0.041714
H188	H	1.173856	0.229947	0.541714
H189	H	0.648537	-0.345542	0.000178
H190	H	1.148537	0.154458	0.500178
H191	H	0.702630	-0.214148	-0.063301
H192	H	1.202630	0.285852	0.436699
H193	H	0.677306	-0.289612	-0.104854
H194	H	1.177306	0.210388	0.395146
H195	H	0.569947	-0.254353	-0.062521
H196	H	1.069947	0.245647	0.437479
H197	H	0.595272	-0.178869	-0.020981
H198	H	1.095272	0.321131	0.479019
H199	H	0.595130	-0.179736	-0.105442
H200	H	1.095130	0.320264	0.394558
H201	H	0.734808	0.215728	0.333861
H202	H	1.234808	0.715728	0.833861
H203	H	0.804006	0.250702	0.568917
H204	H	1.304006	0.750702	1.068917
H205	H	0.016321	0.245606	-0.000268
H206	H	0.516321	0.745606	0.499732
C207	C	0.749161	-0.437325	0.126760
C208	C	1.249161	0.062675	0.626760
C209	C	0.680395	-0.397909	0.126495
C210	C	1.180395	0.102091	0.626495
C211	C	0.645487	-0.422406	0.188431
C212	C	1.145487	0.077594	0.688431
H213	H	0.772385	-0.421139	0.169207
H214	H	1.272385	0.078861	0.669207
H215	H	0.748892	-0.496871	0.126498
H216	H	1.248892	0.003129	0.626498
H217	H	0.680667	-0.338377	0.126764
H218	H	1.180667	0.161623	0.626764
H219	H	0.657151	-0.414089	0.084062
H220	H	1.157151	0.085911	0.584062
H221	H	0.645219	-0.481952	0.188169
H222	H	1.145219	0.018048	0.688169
H223	H	0.668718	-0.406220	0.230873
H224	H	1.168718	0.093780	0.730873
H225	H	0.598825	-0.395673	0.188256
H226	H	1.098825	0.104327	0.688256
H227	H	0.882201	-0.345735	0.110070
H228	H	1.382201	0.154265	0.610070
H229	H	0.906186	0.007955	0.333797
H230	H	1.406186	0.507955	0.833797
C231	C	0.636818	-0.042493	0.000002
C232	C	1.136818	0.457507	0.500002
C233	C	0.678851	-0.046242	0.062320
C234	C	1.178851	0.453758	0.562320
C235	C	0.723394	-0.122131	0.062494
C236	C	1.223394	0.377869	0.562494
H237	H	0.665511	-0.045251	-0.042174
H238	H	1.165511	0.454749	0.457826
H239	H	0.609823	-0.088676	0.000038
H240	H	1.109823	0.411324	0.500038
H241	H	0.705844	-0.000071	0.062278
H242	H	1.205844	0.499929	0.562278
H243	H	0.650177	-0.043498	0.104507
H244	H	1.150177	0.456502	0.604507
H245	H	0.696399	-0.168314	0.062529
H246	H	1.196399	0.331686	0.562529
H247	H	0.752082	-0.124882	0.020314
H248	H	1.252082	0.375118	0.520314
H249	H	0.751914	-0.124688	0.104779
H250	H	1.251914	0.375312	0.604779
C251	C	0.960336	-0.471176	-0.000017
C252	C	1.460336	0.028824	0.499983
C253	C	0.995018	-0.448327	0.062602
C254	C	1.495018	0.051673	0.562602
C255	C	1.063288	-0.489281	0.062795
C256	C	1.563288	0.010719	0.562795
H257	H	0.984366	-0.455074	-0.041987
H258	H	1.484366	0.044926	0.458013
H259	H	0.959088	-0.530565	-0.000379
H260	H	1.459088	-0.030565	0.499621
H261	H	0.996269	-0.388951	0.062957
H262	H	1.496269	0.111049	0.562957
H263	H	0.971009	-0.464430	0.104581
H264	H	1.471009	0.035570	0.604581
H265	H	1.062041	-0.548670	0.062432
H266	H	1.562041	-0.048670	0.562432
H267	H	1.087312	-0.473176	0.020822
H268	H	1.587312	0.026824	0.520822
H269	H	1.086827	-0.473789	0.105284
H270	H	1.586827	0.026211	0.605284
H271	H	0.837031	-0.027002	0.430655
H272	H	1.337031	0.472998	0.930655
H273	H	0.837039	-0.026997	0.568947
H274	H	1.337039	0.473003	1.068947
H275	H	0.463229	0.253530	-0.000193
H276	H	0.963229	0.753530	0.499807
C277	C	0.919065	-0.007677	0.655497
C278	C	1.419065	0.492323	1.155497
C279	C	0.960416	-0.057841	0.705176
C280	C	1.460416	0.442159	1.205176
C281	C	1.007678	-0.115220	0.667189
C282	C	1.507678	0.384780	1.167189
H283	H	0.948043	0.022350	0.625740
H284	H	1.448043	0.522350	1.125740
H285	H	0.894095	-0.042612	0.625793
H286	H	1.394095	0.457388	1.125793
H287	H	0.985385	-0.022911	0.734867
H288	H	1.485385	0.477089	1.234867
H289	H	0.931457	-0.087887	0.734934
H290	H	1.431457	0.412113	1.234934
H291	H	0.982708	-0.150155	0.637486
H292	H	1.482708	0.349845	1.137486
H293	H	1.036651	-0.085186	0.637434
H294	H	1.536651	0.414814	1.137434
H295	H	1.035736	-0.149269	0.700890
H296	H	1.535736	0.350731	1.200890
C297	C	0.918934	-0.007676	0.814391
C298	C	1.418934	0.492324	1.314391
C299	C	0.881945	-0.059004	0.858162
C300	C	1.381945	0.440996	1.358162
C301	C	0.929064	-0.116378	0.896300
C302	C	1.429064	0.383622	1.396300
H303	H	0.947864	0.022355	0.844169
H304	H	1.447864	0.522355	1.344169
H305	H	0.947052	-0.041824	0.780786
H306	H	1.447052	0.458176	1.280786
H307	H	0.853839	-0.024860	0.891763
H308	H	1.353839	0.475140	1.391763
H309	H	0.853018	-0.089054	0.828402
H310	H	1.353018	0.410946	1.328402
H311	H	0.957182	-0.150526	0.862695
H312	H	1.457182	0.349474	1.362695
H313	H	0.957991	-0.086340	0.926074
H314	H	1.457991	0.413660	1.426074
H315	H	0.903974	-0.151216	0.925998
H316	H	1.403974	0.348784	1.425998
H317	H	0.734848	0.215741	0.804072
H318	H	1.234848	0.715741	1.304072
C319	C	0.721989	0.231381	0.655567
C320	C	1.221989	0.731381	1.155567
C321	C	0.680645	0.281546	0.705274
C322	C	1.180645	0.781546	1.205274
C323	C	0.633375	0.338922	0.667320
C324	C	1.133375	0.838922	1.167320
H325	H	0.693007	0.201351	0.625847
H326	H	1.193007	0.701351	1.125847
H327	H	0.746954	0.266315	0.625829
H328	H	1.246954	0.766315	1.125829
H329	H	0.655681	0.246616	0.735000
H330	H	1.155681	0.746616	1.235000
H331	H	0.709607	0.311594	0.734995
H332	H	1.209607	0.811594	1.234995
H333	H	0.658341	0.373857	0.637582
H334	H	1.158341	0.873857	1.137582
H335	H	0.604399	0.308886	0.637602
H336	H	1.104399	0.808886	1.137602
H337	H	0.605323	0.372971	0.701041
H338	H	1.105323	0.872971	1.201041
H339	H	0.243242	0.217075	0.076747
H340	H	0.743242	0.717075	0.576747
H341	H	0.046351	-0.032167	-0.000308
H342	H	0.546351	0.467833	0.499692
C343	C	0.155211	0.268977	-0.000215
C344	C	0.655211	0.768977	0.499785
C345	C	0.100731	0.335180	-0.000203
C346	C	0.600731	0.835180	0.499797
C347	C	0.128531	0.412478	-0.000154
C348	C	0.628531	0.912478	0.499846
H349	H	0.183140	0.272785	-0.042429
H350	H	0.683140	0.772785	0.457571
H351	H	0.183088	0.272702	0.042037
H352	H	0.683088	0.772702	0.542037
H353	H	0.072866	0.331457	-0.042450
H354	H	0.572866	0.831457	0.457550
H355	H	0.072798	0.331400	0.042009
H356	H	0.572798	0.831400	0.542009
H357	H	0.156408	0.416203	0.042097
H358	H	0.656408	0.916203	0.542097
H359	H	0.156460	0.416278	-0.042369
H360	H	0.656460	0.916278	0.457631
H361	H	0.091571	0.457406	-0.000139
H362	H	0.591571	0.957406	0.499861
C363	C	0.189757	-0.050531	-0.000276
C364	C	0.689757	0.449469	0.499724
C365	C	0.149775	-0.118409	-0.000303
C366	C	0.649775	0.381591	0.499697
C367	C	0.194153	-0.194428	-0.000338
C368	C	0.694153	0.305572	0.499662
H369	H	0.218356	-0.053335	0.041948
H370	H	0.718356	0.446665	0.541948
H371	H	0.218377	-0.053255	-0.042517
H372	H	0.718377	0.446745	0.457483
H373	H	0.121168	-0.115687	0.041934
H374	H	0.621168	0.384313	0.541934
H375	H	0.121178	-0.115633	-0.042524
H376	H	0.621178	0.384367	0.457476
H377	H	0.222773	-0.197151	-0.042579
H378	H	0.722773	0.302849	0.457421
H379	H	0.222750	-0.197223	0.041887
H380	H	0.722750	0.302777	0.541887
H381	H	0.167032	-0.240492	-0.000363
H382	H	0.667032	0.259508	0.499637
