data_functionalizedCrystal
_audit_creation_method	'MofGen! by Chris Wilmer'
_symmetry_space_group_name_H-M	'P1'
_symmetry_Int_Tables_number	1
_symmetry_cell_setting	triclinic
loop_
_symmetry_equiv_pos_as_xyz
  x,y,z
_cell_length_a	19.077105
_cell_length_b	12.594516
_cell_length_c	19.076919
_cell_angle_alpha	87.722761
_cell_angle_beta	89.923776
_cell_angle_gamma	87.712633
loop_
_atom_site_label
_atom_site_type_symbol
_atom_site_fract_x
_atom_site_fract_y
_atom_site_fract_z
Zn1	Zn	1.058319	-0.514930	0.440450
Zn2	Zn	1.062975	-0.686069	0.322954
Zn3	Zn	0.945535	-0.500672	0.318243
Zn4	Zn	0.940797	-0.685427	0.435707
O5	O	1.001907	-0.596775	0.379338
O6	O	1.157269	-0.543868	0.428821
O7	O	1.051328	-0.655777	0.223998
O8	O	0.960531	-0.353620	0.334467
O9	O	1.160690	-0.669603	0.342497
O10	O	1.043393	-0.364096	0.424253
O11	O	0.965046	-0.519567	0.220536
O12	O	0.846574	-0.518944	0.329868
O13	O	0.952455	-0.668509	0.534668
O14	O	0.843093	-0.654683	0.416168
O15	O	1.038798	-0.543246	0.538153
O16	O	1.046733	-0.834927	0.337898
O17	O	0.956969	-0.834455	0.420737
C18	C	0.819337	-0.585197	0.371992
C19	C	0.741233	-0.580271	0.368866
C20	C	1.001861	-0.873312	0.379330
C21	C	1.001905	-0.991622	0.379352
C22	C	0.702747	-0.648728	0.412259
C23	C	0.629360	-0.644085	0.409325
C24	C	0.594459	-0.570991	0.362994
C25	C	0.632949	-0.502527	0.319600
C26	C	0.706335	-0.507165	0.322538
C27	C	0.375169	-0.549525	0.349400
C28	C	0.301778	-0.544895	0.346464
C29	C	0.298194	-0.686452	0.436191
C30	C	0.371582	-0.691088	0.439121
C31	C	0.410065	-0.622620	0.395730
N32	N	0.519445	-0.566246	0.359993
N33	N	0.485078	-0.627361	0.398735
C34	C	0.953079	-1.060655	0.424375
C35	C	0.938538	-1.126689	0.359570
C36	C	1.016509	-1.136391	0.444171
C37	C	0.987331	-1.056094	0.314511
C38	C	1.065330	-1.065794	0.399157
C39	C	1.050816	-1.131795	0.334309
C40	C	1.185189	-0.608398	0.386714
C41	C	1.263293	-0.613351	0.389857
C42	C	0.994578	-0.607396	0.562619
C43	C	0.991455	-0.611923	0.640723
C44	C	1.001971	-0.319159	0.379363
C45	C	1.001998	-0.200856	0.379374
C46	C	1.009247	-0.586120	0.196772
C47	C	1.012506	-0.581302	0.118675
C48	C	1.034940	-0.548834	0.679231
C49	C	1.031997	-0.553083	0.752617
C50	C	0.985572	-0.620426	0.787494
C51	C	0.942083	-0.683517	0.748980
C52	C	0.945023	-0.679262	0.675595
C53	C	0.971956	-0.640139	1.006776
C54	C	0.969021	-0.644391	1.080166
C55	C	1.058935	-0.513955	1.083799
C56	C	1.061873	-0.509711	1.010412
C57	C	1.018381	-0.572798	0.971905
N58	N	0.982565	-0.624772	0.862506
N59	N	1.021386	-0.568445	0.896894
H60	H	0.731159	-0.708252	0.449984
H61	H	0.737669	-0.451416	0.287206
C62	C	0.263388	-0.464481	0.295495
N63	N	0.234473	-0.403917	0.257107
C64	C	1.086010	-0.474750	0.640874
N65	N	1.124476	-0.418943	0.611986
C66	C	0.409967	-0.771502	0.490085
N67	N	0.438880	-0.832076	0.528469
H68	H	0.266852	-0.742192	0.471519
H69	H	1.028824	-1.171502	0.498979
C70	C	0.917946	-0.718473	1.118528
N71	N	0.879479	-0.774270	1.147423
H72	H	0.884944	-1.153628	0.342835
H73	H	1.118911	-1.038859	0.415922
C74	C	0.587030	-0.719412	0.457047
N75	N	0.555147	-0.776159	0.492989
H76	H	1.094343	-0.462592	1.115159
H77	H	0.911720	-1.029418	0.462389
H78	H	0.974954	-1.021106	0.259686
C79	C	0.417492	-0.474215	0.301663
N80	N	0.449372	-0.417489	0.265704
C81	C	1.112937	-0.435617	0.972054
N82	N	1.151398	-0.379807	0.943162
C83	C	1.079835	-0.483682	0.794974
N84	N	1.115869	-0.431406	0.826876
C85	C	0.891008	-0.757584	0.787346
N86	N	0.852538	-0.813373	0.816243
H87	H	0.604527	-0.443008	0.281879
C88	C	1.106652	-1.173728	0.282824
N89	N	1.148704	-1.205315	0.244043
H90	H	0.909606	-0.730624	0.644242
H91	H	0.936552	-0.691524	0.975432
