data_functionalizedCrystal
_audit_creation_method	'MofGen! by Chris Wilmer'
_symmetry_space_group_name_H-M	'P1'
_symmetry_Int_Tables_number	1
_symmetry_cell_setting	triclinic
loop_
_symmetry_equiv_pos_as_xyz
  x,y,z
_cell_length_a	19.188923
_cell_length_b	19.188924
_cell_length_c	18.266242
_cell_angle_alpha	89.991576
_cell_angle_beta	90.011115
_cell_angle_gamma	96.858228
loop_
_atom_site_label
_atom_site_type_symbol
_atom_site_fract_x
_atom_site_fract_y
_atom_site_fract_z
O1	O	-0.926151	0.087143	-0.060919
O2	O	-0.722838	0.098883	-0.060913
O3	O	-0.830364	-0.008643	-0.060908
O4	O	-0.818625	0.194669	-0.060925
O5	O	-0.830346	-0.008649	0.060854
O6	O	-0.722820	0.098877	0.060849
O7	O	-0.926132	0.087137	0.060843
Zn8	Zn	-0.824473	0.093007	0.080178
Zn9	Zn	-0.824497	0.093014	-0.080249
O10	O	-0.818607	0.194664	0.060837
C11	C	-0.696818	0.098501	-0.000032
C12	C	-0.619313	0.097362	-0.000029
C13	C	-0.057541	0.152831	-0.000024
C14	C	-0.130364	0.153907	-0.000029
C15	C	-0.175300	0.090815	-0.000024
C16	C	-0.147408	0.026641	-0.000031
C17	C	-0.074586	0.025567	-0.000033
N18	N	-0.295973	0.045135	0.041426
N19	N	-0.365150	0.046160	0.041430
C20	C	-0.394710	0.094047	-0.000020
N21	N	-0.352477	0.140881	-0.041464
N22	N	-0.283293	0.139858	-0.041464
C23	C	-0.254265	0.091972	-0.000022
C24	C	-0.501557	0.159383	-0.000024
C25	C	-0.574382	0.160456	-0.000034
C26	C	-0.591425	0.033188	-0.000028
C27	C	-0.518601	0.032116	-0.000025
C28	C	-0.473671	0.095216	-0.000020
C29	C	-0.829976	-0.034657	-0.000026
C30	C	-0.828837	-0.112162	-0.000024
C31	C	-0.828315	-0.148558	-0.066397
C32	C	-0.827235	-0.221380	-0.066402
C33	C	-0.826691	-0.257806	-0.000031
C34	C	-0.827209	-0.221401	0.066350
C35	C	-0.828282	-0.148579	0.066354
N36	N	-0.864732	-0.377473	0.049366
N37	N	-0.863714	-0.446651	0.049358
C38	C	-0.823457	-0.477215	-0.000038
N39	N	-0.784265	-0.435989	-0.049437
N40	N	-0.785286	-0.366805	-0.049432
C41	C	-0.825527	-0.336770	-0.000028
C42	C	-0.821763	-0.592574	-0.066422
C43	C	-0.820679	-0.665397	-0.066424
C44	C	-0.820660	-0.665417	0.066330
C45	C	-0.821737	-0.592594	0.066331
C46	C	-0.822292	-0.556177	-0.000047
C47	C	0.047848	0.087522	-0.000035
C48	C	-0.029656	0.088666	-0.000027
C49	C	-0.818995	0.220677	-0.000046
C50	C	-0.820134	0.298182	-0.000053
N51	N	-0.824462	0.093001	0.189665
N52	N	-0.824514	0.093014	-0.189736
C53	C	-0.872090	0.045412	0.227976
C54	C	-0.872095	0.045409	0.304621
C55	C	-0.824478	0.093007	0.342952
C56	C	-0.776841	0.140600	0.304631
C57	C	-0.776833	0.140597	0.227988
N58	N	-0.815400	0.154815	0.463279
N59	N	-0.815412	0.154815	0.536087
C60	C	-0.824497	0.093017	0.573874
N61	N	-0.833584	0.031216	0.536103
N62	N	-0.833576	0.031216	0.463288
C63	C	-0.824480	0.093015	0.426059
C64	C	-0.872133	0.045420	0.695293
C65	C	-0.872132	0.045416	0.771939
C66	C	-0.776882	0.140613	0.771948
C67	C	-0.776879	0.140611	0.695303
C68	C	-0.824508	0.093015	0.656980
H69	H	-0.495897	-0.020134	-0.000024
O70	O	-0.822349	-0.557091	-0.130832
C71	C	-0.823407	-0.485011	-0.116597
H72	H	-0.845627	-0.478038	-0.059545
H73	H	-0.857734	-0.461879	-0.158973
H74	H	-0.767718	-0.456831	-0.119763
H75	H	-0.153073	0.206160	-0.000020
O76	O	-0.918428	-0.000720	0.809239
C77	C	-0.961392	0.036571	0.853541
H78	H	-0.933410	0.091275	0.865020
H79	H	-0.972533	0.007403	0.907440
H80	H	-1.012975	0.041191	0.823990
O81	O	-0.918427	-0.000851	0.341734
C82	C	-0.960447	-0.042876	0.291474
H83	H	-0.961145	-0.014255	0.236833
H84	H	-1.016236	-0.053668	0.313608
H85	H	-0.937938	-0.094688	0.283339
H86	H	-0.464973	0.210762	-0.000020
H87	H	-0.820251	-0.695029	-0.120475
O88	O	-0.730692	0.186822	0.809286
C89	C	-0.740896	0.176607	0.885150
H90	H	-0.796486	0.150375	0.895607
H91	H	-0.732962	0.229502	0.914272
H92	H	-0.701492	0.141684	0.906916
O93	O	-0.918159	-0.001041	0.190782
C94	C	-0.880725	-0.044017	0.146645
H95	H	-0.826098	-0.015903	0.135066
H96	H	-0.909888	-0.055439	0.092786
H97	H	-0.875921	-0.095459	0.176390
O98	O	-0.826653	-0.256670	0.130888
C99	C	-0.827362	-0.208928	0.189474
H100	H	-0.806028	-0.154056	0.170019
H101	H	-0.793155	-0.225440	0.235895
H102	H	-0.883474	-0.208684	0.209883
H103	H	-0.183999	-0.024729	-0.000029
O104	O	-0.047612	-0.036827	0.000000
C105	C	-0.102885	-0.092286	-0.000019
H106	H	-0.152295	-0.072870	0.023031
H107	H	-0.087798	-0.137103	0.035334
H108	H	-0.113258	-0.111732	-0.058434
H109	H	-0.820211	-0.695074	0.120370
H110	H	-0.738098	0.179366	0.664108
H111	H	-0.597083	0.212709	-0.000037
H112	H	-0.020963	0.204212	-0.000023
H113	H	-0.828765	-0.118911	-0.120447
O114	O	-0.635166	-0.028037	0.000007
C115	C	-0.705421	-0.013332	-0.000014
H116	H	-0.708041	0.041498	0.023038
H117	H	-0.738535	-0.053567	0.035335
H118	H	-0.726498	-0.016035	-0.058431
O119	O	-0.730637	0.186928	0.190802
C120	C	-0.741759	0.256017	0.209531
H121	H	-0.797657	0.256218	0.230586
H122	H	-0.733616	0.291078	0.159124
H123	H	-0.703000	0.276621	0.254026
H124	H	-0.822167	-0.562961	0.120378
O125	O	-0.730558	0.186741	0.341944
C126	C	-0.687599	0.149456	0.386287
H127	H	-0.715580	0.094752	0.397771
H128	H	-0.676470	0.178628	0.440181
H129	H	-0.636011	0.144838	0.356769
O130	O	-0.918418	-0.000885	0.658174
C131	C	-0.960465	-0.042884	0.708429
H132	H	-0.931847	-0.043601	0.763071
H133	H	-0.971288	-0.098671	0.686290
H134	H	-1.012260	-0.020344	0.716562
H135	H	-0.826806	-0.251019	-0.120453
H136	H	-0.828703	-0.118945	0.120404
