data_functionalizedCrystal
_audit_creation_method	'MofGen! by Chris Wilmer'
_symmetry_space_group_name_H-M	'P1'
_symmetry_Int_Tables_number	1
_symmetry_cell_setting	triclinic
loop_
_symmetry_equiv_pos_as_xyz
  x,y,z
_cell_length_a	12.759395
_cell_length_b	16.120531
_cell_length_c	12.759387
_cell_angle_alpha	87.139919
_cell_angle_beta	89.980569
_cell_angle_gamma	87.068019
loop_
_atom_site_label
_atom_site_type_symbol
_atom_site_fract_x
_atom_site_fract_y
_atom_site_fract_z
Zn1	Zn	1.584935	0.331865	-0.615114
Zn2	Zn	1.575863	0.471302	-0.448316
Zn3	Zn	1.409231	0.331907	-0.439456
Zn4	Zn	1.400267	0.471238	-0.623954
O5	O	1.492574	0.401578	-0.531710
O6	O	1.730752	0.350371	-0.592995
O7	O	1.553713	0.452854	-0.300122
O8	O	1.440087	0.215236	-0.455350
O9	O	1.724087	0.452814	-0.470450
O10	O	1.569176	0.215206	-0.584405
O11	O	1.431290	0.350442	-0.293613
O12	O	1.261021	0.350380	-0.463923
O13	O	1.424809	0.452706	-0.769800
O14	O	1.254435	0.452746	-0.599472
O15	O	1.560484	0.350310	-0.763305
O16	O	1.545021	0.587958	-0.479022
O17	O	1.416011	0.587912	-0.608063
C18	C	1.219607	0.401561	-0.531696
C19	C	1.102830	0.401574	-0.531716
C20	C	1.109740	0.295073	-0.659551
C21	C	1.058334	0.241832	-0.723478
C22	C	0.948612	0.241847	-0.723492
C23	C	0.890293	0.295106	-0.659570
C24	C	0.941699	0.348347	-0.595643
C25	C	1.051424	0.348328	-0.595639
C26	C	0.934788	0.454843	-0.467804
C27	C	1.044511	0.454834	-0.467794
C28	C	0.876469	0.508103	-0.403883
C29	C	0.927875	0.561349	-0.339960
C30	C	1.037604	0.561333	-0.339950
C31	C	1.095917	0.508075	-0.403868
C32	C	1.478587	0.618185	-0.545486
C33	C	1.472700	0.710851	-0.551414
C34	C	1.461957	0.880511	-0.562260
C35	C	1.523230	0.921804	-0.501101
C36	C	1.517253	1.016209	-0.507135
C37	C	1.467933	0.786098	-0.556227
C38	C	1.766606	0.401595	-0.531725
C39	C	1.883382	0.401603	-0.531731
C40	C	1.506606	1.184125	-0.517884
C41	C	1.512491	1.091460	-0.511943
C42	C	1.492658	0.401496	-0.805738
C43	C	1.492694	0.401461	-0.922513
C44	C	1.633982	0.294843	-0.915770
C45	C	1.704641	0.241521	-0.967258
C46	C	1.704669	0.241491	-1.076978
C47	C	1.634027	0.294786	-1.135212
C48	C	1.563368	0.348108	-1.083724
C49	C	1.563350	0.348134	-0.974001
C50	C	1.422077	0.454721	-1.090466
C51	C	1.422053	0.454757	-0.980747
C52	C	1.351436	0.508016	-1.148700
C53	C	1.280780	0.561344	-1.097212
C54	C	1.280756	0.561372	-0.987486
C55	C	1.351394	0.508079	-0.929258
C56	C	1.492554	0.401599	-0.258744
C57	C	1.492736	0.401399	-0.141955
H58	H	1.185259	0.508052	-0.403860
C59	C	1.203081	0.619962	-1.161268
C60	C	1.203103	0.619924	-1.281956
C61	C	1.125404	0.678545	-1.346016
C62	C	1.047683	0.737203	-1.289389
C63	C	1.047659	0.737243	-1.168695
C64	C	1.125358	0.678623	-1.104634
H65	H	1.260639	0.576499	-1.323881
H66	H	1.125422	0.678514	-1.435363
H67	H	0.990166	0.780597	-1.336811
H68	H	0.990123	0.780668	-1.126770
H69	H	1.125339	0.678653	-1.015288
C70	C	1.203029	0.620028	-0.930850
C71	C	1.084039	0.613203	-0.945487
C72	C	1.006311	0.671860	-0.888856
C73	C	1.047574	0.737343	-0.817587
C74	C	1.166571	0.744171	-0.802948
C75	C	1.244298	0.685514	-0.859579
H76	H	1.053488	0.564726	-0.998247
H77	H	0.918222	0.666805	-0.899693
H78	H	0.990036	0.780764	-0.775665
H79	H	1.197121	0.792648	-0.750188
H80	H	1.332388	0.690569	-0.848741
C81	C	1.385020	0.928528	-0.639106
C82	C	1.314026	0.880786	-0.709956
C83	C	1.237087	0.928814	-0.786797
C84	C	1.231142	1.024585	-0.792788
C85	C	1.302138	1.072333	-0.721936
C86	C	1.379077	1.024304	-0.645095
H87	H	1.318426	0.809886	-0.705523
H88	H	1.184531	0.893468	-0.839246
H89	H	1.174186	1.060139	-0.849671
H90	H	1.297739	1.143233	-0.726369
H91	H	1.431633	1.059651	-0.592646
C92	C	1.782347	0.182902	-0.903199
C93	C	1.741055	0.117463	-0.823605
C94	C	1.818759	0.058844	-0.759549
C95	C	1.937755	0.065663	-0.775087
C96	C	1.979053	0.131105	-0.854684
C97	C	1.901349	0.189724	-0.918740
H98	H	1.652961	0.112412	-0.812099
H99	H	1.788186	0.010399	-0.700625
H100	H	1.995276	0.022270	-0.727668
H101	H	2.067147	0.136156	-0.866189
H102	H	1.931922	0.238168	-0.977664
C103	C	1.782392	0.182838	-1.133623
C104	C	1.862544	0.218960	-1.211360
C105	C	1.940266	0.160308	-1.268006
C106	C	1.937836	0.065534	-1.246916
C107	C	1.857681	0.029407	-1.169175
C108	C	1.779959	0.088059	-1.112529
H109	H	1.864346	0.289122	-1.226976
H110	H	1.999602	0.187053	-1.325554
H111	H	1.995371	0.022117	-1.288848
H112	H	1.855879	-0.040755	-1.153560
H113	H	1.720622	0.061315	-1.054981
H114	H	1.580176	0.886255	-0.444208
H115	H	1.199083	0.295052	-0.659541
H116	H	1.633976	0.294870	-0.826430
H117	H	1.634047	0.294749	-1.224551
H118	H	1.105830	0.198468	-0.775520
H119	H	1.351460	0.507985	-1.238040
H120	H	0.906758	0.198489	-0.775540
H121	H	0.800951	0.295107	-0.659578
H122	H	0.787128	0.508109	-0.403896
H123	H	0.880383	0.604705	-0.287916
H124	H	1.351386	0.508100	-0.839919
H125	H	1.079452	0.604685	-0.287889
