data_functionalizedCrystal
_audit_creation_method	'MofGen! by Chris Wilmer'
_symmetry_space_group_name_H-M	'P1'
_symmetry_Int_Tables_number	1
_symmetry_cell_setting	triclinic
loop_
_symmetry_equiv_pos_as_xyz
  x,y,z
_cell_length_a	27.440280
_cell_length_b	14.560438
_cell_length_c	14.560438
_cell_angle_alpha	60.005799
_cell_angle_beta	89.994691
_cell_angle_gamma	59.993522
loop_
_atom_site_label
_atom_site_type_symbol
_atom_site_fract_x
_atom_site_fract_y
_atom_site_fract_z
Zr1	Zr	0.469518	1.005107	-0.120411
O2	O	0.391704	1.196709	-0.267026
O3	O	0.493369	0.813517	-0.075485
O4	O	0.493373	1.005105	-0.267061
O5	O	0.391700	1.005118	0.075691
O6	O	0.573575	1.005091	-0.267067
O7	O	0.391700	1.005121	-0.075450
O8	O	0.573568	0.662375	0.075628
O9	O	0.391707	1.347834	-0.267004
O10	O	0.563399	0.892306	-0.056305
O11	O	0.503545	0.892315	0.056494
O12	O	0.503550	1.117885	-0.169063
O13	O	0.443696	1.117894	-0.056264
Zr14	Zr	0.597431	1.005080	0.120633
Zr15	Zr	0.597431	1.005084	-0.120420
Zr16	Zr	0.469518	1.005103	0.120641
Zr17	Zr	0.469523	1.246135	-0.120376
Zr18	Zr	0.597426	0.764052	0.120597
O19	O	0.573580	1.196670	0.075707
O20	O	0.573579	1.196675	-0.267039
O21	O	0.391704	1.196703	0.075719
O22	O	0.675245	0.813478	0.267248
O23	O	0.675245	0.813484	-0.075497
O24	O	0.493370	0.813511	0.267260
O25	O	0.675249	1.005069	-0.075469
O26	O	0.573576	1.005082	0.267283
O27	O	0.493374	1.005096	0.267288
O28	O	0.675249	1.005066	0.075672
O29	O	0.493381	1.347816	-0.267011
O30	O	0.573568	0.662371	0.267233
O31	O	0.675242	0.662353	0.267226
O32	O	0.675242	0.662356	0.075621
O33	O	0.391707	1.347831	-0.075400
O34	O	0.493381	1.347812	-0.075407
O35	O	0.563399	0.892302	0.169284
O36	O	0.623253	0.892293	0.056485
O37	O	0.563404	1.117872	-0.056272
O38	O	0.503550	1.117881	0.056527
C39	C	0.533468	0.703605	0.000067
C40	C	0.533466	0.601282	0.000052
C41	C	0.489286	0.636418	-0.083167
C42	C	0.489295	0.540229	-0.083111
C43	C	0.577668	0.373769	0.083393
C44	C	0.577660	0.469957	0.083331
C45	C	0.445091	0.767743	-0.166447
C46	C	0.400907	0.802886	-0.249671
C47	C	0.400916	0.706697	-0.249615
C48	C	0.445110	0.575365	-0.166334
C49	C	0.373475	1.005123	0.000122
C50	C	0.319173	1.005133	0.000126
C51	C	-0.017525	1.005066	-0.083156
C52	C	-0.068543	1.005057	-0.083156
O53	O	-0.094918	1.005009	-0.153946
N54	N	-0.094061	1.005058	0.000107
C55	C	-0.068555	1.005055	0.083383
O56	O	-0.094944	1.005053	0.154206
C57	C	-0.017535	1.005055	0.083388
C58	C	0.007977	1.005067	0.000112
C59	C	0.007987	1.005077	-0.166424
C60	C	0.059001	1.005088	-0.166424
C61	C	0.084502	1.005089	-0.083156
C62	C	0.058990	1.005079	0.000112
C63	C	0.007973	1.005042	0.166667
C64	C	0.058996	1.005041	0.166665
C65	C	0.084508	1.005054	0.083389
C66	C	0.135506	1.005091	0.083379
N67	N	0.161024	1.005090	0.000116
C68	C	0.135522	1.005089	-0.083152
C69	C	-0.175698	1.005053	0.083369
C70	C	-0.226719	1.005062	0.083361
C71	C	-0.226704	1.005061	-0.083178
C72	C	-0.175684	1.005061	-0.083173
C73	C	-0.150180	1.005052	0.000106
C74	C	0.242654	1.005115	-0.083147
C75	C	0.293671	1.005132	-0.083142
C76	C	0.293653	1.005125	0.083399
C77	C	0.242638	1.005115	0.083392
C78	C	0.217142	1.005106	0.000114
O79	O	0.161914	1.005133	0.154136
O80	O	0.161922	1.005073	-0.153954
C81	C	0.693474	1.005064	0.000100
C82	C	0.747777	1.005054	0.000096
C83	C	0.533474	1.005099	-0.301409
C84	C	0.533474	1.005100	-0.403742
C85	C	0.533481	1.306582	0.000155
C86	C	0.533483	1.408905	0.000170
C87	C	0.502231	1.122848	-0.510676
C88	C	0.502233	1.122842	-0.606825
C89	C	0.564722	0.887330	-0.489091
C90	C	0.564723	0.887337	-0.392945
C91	C	0.470983	1.240611	-0.521473
C92	C	0.439736	1.358369	-0.628413
C93	C	0.439738	1.358363	-0.724561
C94	C	0.470986	1.240599	-0.713771
C95	C	0.533475	1.005088	0.301630
C96	C	0.533475	1.005087	0.403963
C97	C	0.693468	0.703575	0.000056
C98	C	0.747768	0.601243	0.000037
C99	C	0.533468	0.703600	0.301586
C100	C	0.533466	0.601275	0.403904
C101	C	0.693468	0.703570	0.301575
C102	C	0.747768	0.601236	0.403889
C103	C	0.373481	1.306617	-0.301354
C104	C	0.319181	1.408951	-0.403668
C105	C	0.373481	1.306612	0.000166
C106	C	0.319181	1.408944	0.000185
C107	C	0.533481	1.306587	-0.301364
C108	C	0.533483	1.408912	-0.403682
C109	C	0.742025	0.553193	-0.058857
C110	C	0.793041	0.457054	-0.058898
C111	C	0.849799	0.408960	-0.000036
C112	C	0.855541	0.457019	0.058860
C113	C	0.804526	0.553163	0.058893
C114	C	0.804517	0.553174	0.393057
C115	C	0.855542	0.457033	0.489183
C116	C	0.849818	0.408950	0.596140
C117	C	0.793064	0.457021	0.606970
C118	C	0.742040	0.553167	0.510845
C119	C	0.262433	1.457025	-0.392836
C120	C	0.211407	1.553195	-0.488962
C121	C	0.217131	1.601284	-0.595918
C122	C	0.273885	1.553206	-0.606748
C123	C	0.324910	1.457044	-0.510623
C124	C	0.324924	1.457004	0.059069
C125	C	0.273908	1.553169	0.059083
C126	C	0.217150	1.601267	0.000218
C127	C	0.211408	1.553203	-0.058674
C128	C	0.262423	1.457046	-0.058693
C129	C	0.564709	0.553192	0.510849
C130	C	0.564703	0.457052	0.606984
C131	C	0.502209	0.457085	0.489215
C132	C	0.502213	0.553229	0.393083
C133	C	0.595963	0.601238	0.521670
C134	C	0.627209	0.553153	0.628620
C135	C	0.627202	0.457013	0.724755
C136	C	0.595949	0.408959	0.713940
H137	H	0.364929	0.909819	-0.317481
H138	H	0.257761	1.417876	-0.305755
H139	H	0.079760	1.005029	0.234484
H140	H	-0.247476	1.005058	-0.150978
F141	F	0.681623	0.604364	-0.121514
H142	H	0.414299	1.454248	-0.637190
H143	H	0.445077	0.846074	-0.166500
F144	F	0.151010	1.604342	-0.477412
F145	F	0.904129	0.306621	0.698436
H146	H	0.788412	0.417858	0.694067
H147	H	0.695834	0.592286	0.519680
H148	H	0.364943	0.735317	-0.317387
F149	F	0.162820	1.703628	-0.698215
F150	F	0.904090	0.306633	-0.000080
F151	F	0.597986	0.762017	-0.279132
H152	H	0.221901	1.005105	-0.150958
F153	F	0.406489	1.483688	-0.838371
F154	F	0.660451	0.405851	0.838575
F155	F	0.810647	0.604284	0.121587
H156	H	0.278539	1.592372	-0.693844
F157	F	0.468951	0.405936	0.477713
F158	F	0.470993	1.240598	-0.816105
H159	H	0.445124	0.497048	-0.166312
F160	F	0.624697	0.234000	0.172023
H161	H	0.079771	1.005093	-0.234231
H162	H	0.901750	0.417903	0.480345
F163	F	0.624684	0.432562	0.171898
F164	F	0.385304	1.405883	-0.522169
F165	F	0.915953	0.405818	0.121504
H166	H	0.590161	0.791452	-0.480316
F167	F	0.385326	1.405835	0.121723
F168	F	0.786917	0.405919	-0.121582
F169	F	0.595974	0.703556	0.419361
F170	F	0.810622	0.604336	0.279235
H171	H	0.278595	1.592287	0.107044
F172	F	0.162860	1.703606	0.000250
H173	H	0.165188	1.592379	-0.106600
H174	H	-0.012771	1.005071	-0.234231
F175	F	0.256302	1.405900	-0.121363
H176	H	0.652650	0.592293	0.637417
F177	F	0.320819	1.005149	-0.171781
H178	H	-0.154915	1.005070	-0.150983
H179	H	0.595941	0.330685	0.792224
F180	F	0.468959	0.604408	0.279259
H181	H	-0.247493	1.005072	0.151161
H182	H	-0.012791	1.005031	0.234478
F183	F	0.215483	1.005123	0.172014
F184	F	-0.148563	1.005055	0.172005
H185	H	0.314423	1.005132	0.151192
F186	F	0.470976	1.240628	-0.419149
