data_functionalizedCrystal
_audit_creation_method	'MofGen! by Chris Wilmer'
_symmetry_space_group_name_H-M	'P1'
_symmetry_Int_Tables_number	1
_symmetry_cell_setting	triclinic
loop_
_symmetry_equiv_pos_as_xyz
  x,y,z
_cell_length_a	11.792241
_cell_length_b	19.188930
_cell_length_c	10.268362
_cell_angle_alpha	89.989600
_cell_angle_beta	89.999626
_cell_angle_gamma	83.669099
loop_
_atom_site_label
_atom_site_type_symbol
_atom_site_fract_x
_atom_site_fract_y
_atom_site_fract_z
O1	O	1.505476	0.095695	-0.108190
O2	O	1.174988	0.105558	-0.108222
O3	O	1.349769	-0.000975	-0.108179
O4	O	1.330695	0.202228	-0.108232
O5	O	1.349754	-0.000980	0.108421
O6	O	1.174973	0.105553	0.108379
O7	O	1.505461	0.095691	0.108411
Cu8	Cu	1.340216	0.100622	0.128172
Cu9	Cu	1.340233	0.100627	-0.127983
O10	O	1.330680	0.202224	0.108368
C11	C	1.132699	0.104936	0.000075
C12	C	1.006713	0.103082	0.000064
C13	C	0.776051	0.099672	0.000102
C14	C	0.904408	0.101566	0.000081
C15	C	1.349144	-0.026992	0.000125
C16	C	1.347290	-0.104507	0.000136
C17	C	1.449846	-0.148850	0.000152
C18	C	1.448104	-0.221684	0.000131
C19	C	1.343800	-0.250171	0.000120
C20	C	1.241230	-0.205818	0.000096
C21	C	1.242975	-0.132986	0.000104
N22	N	1.264067	-0.358629	0.073825
N23	N	1.262416	-0.427817	0.073820
C24	C	1.338536	-0.469609	0.000093
N25	N	1.416387	-0.439602	-0.073614
N26	N	1.418041	-0.370407	-0.073603
C27	C	1.341896	-0.329144	0.000110
C28	C	1.439211	-0.592928	0.000084
C29	C	1.437464	-0.665762	0.000055
C30	C	1.230588	-0.649895	0.000034
C31	C	1.232337	-0.577062	0.000050
C32	C	1.336652	-0.548583	0.000081
C33	C	1.547751	0.096313	0.000111
C34	C	1.673737	0.098167	0.000114
C35	C	1.331305	0.228240	0.000062
C36	C	1.333159	0.305755	0.000042
N37	N	1.340211	0.100617	0.308338
N38	N	1.340247	0.100625	-0.308149
C39	C	1.340228	0.100625	0.574009
C40	C	1.340215	0.100623	0.426171
H41	H	1.531620	-0.257795	0.000139
C42	C	1.564592	-0.117527	0.000162
C43	C	1.649682	-0.134100	0.112639
C44	C	1.764429	-0.102776	0.112641
C45	C	1.794085	-0.054879	0.000167
C46	C	1.708993	-0.038303	-0.112318
C47	C	1.594246	-0.069627	-0.112320
H48	H	1.627731	-0.169559	0.195906
H49	H	1.827420	-0.115047	0.195911
H50	H	1.879028	-0.031691	0.000169
H51	H	1.730944	-0.002844	-0.195585
H52	H	1.531255	-0.057356	-0.195590
C53	C	1.126494	-0.237151	0.000082
C54	C	1.124569	-0.317263	0.000079
C55	C	1.009828	-0.348594	0.000056
C56	C	0.897013	-0.299813	0.000037
C57	C	0.898934	-0.219696	0.000040
C58	C	1.013674	-0.188365	0.000063
H59	H	1.208086	-0.353377	0.000094
H60	H	1.008407	-0.407902	0.000054
H61	H	0.812075	-0.323006	0.000020
H62	H	0.815417	-0.183581	0.000025
H63	H	1.015096	-0.129057	0.000065
H64	H	1.524150	-0.569739	0.000104
H65	H	1.159459	-0.096881	0.000091
C66	C	1.115848	-0.681219	0.000021
C67	C	1.030747	-0.664672	0.112487
C68	C	0.916002	-0.695999	0.112469
C69	C	0.886358	-0.743872	-0.000015
C70	C	0.971461	-0.760421	-0.112490
C71	C	1.086206	-0.729095	-0.112472
H72	H	1.052690	-0.629232	0.195762
H73	H	0.853004	-0.683747	0.195730
H74	H	0.801417	-0.767061	-0.000029
H75	H	0.949518	-0.795862	-0.195765
H76	H	1.149204	-0.741346	-0.195733
C77	C	1.119520	-0.528281	0.000050
C78	C	1.092275	-0.476015	-0.112421
C79	C	0.979452	-0.427235	-0.112426
C80	C	0.893875	-0.430719	0.000042
C81	C	0.921118	-0.482987	0.112522
C82	C	1.033941	-0.531768	0.112526
H83	H	1.155626	-0.473434	-0.195684
H84	H	0.959285	-0.388543	-0.195691
H85	H	0.810356	-0.394609	0.000039
H86	H	0.857766	-0.485569	0.195785
H87	H	1.054108	-0.570460	0.195792
H88	H	1.520981	-0.701866	0.000061
