data_functionalizedCrystal
_audit_creation_method	'MofGen! by Chris Wilmer'
_symmetry_space_group_name_H-M	'P1'
_symmetry_Int_Tables_number	1
_symmetry_cell_setting	triclinic
loop_
_symmetry_equiv_pos_as_xyz
  x,y,z
_cell_length_a	18.050591
_cell_length_b	21.295417
_cell_length_c	18.050591
_cell_angle_alpha	90.009154
_cell_angle_beta	90.008268
_cell_angle_gamma	90.026512
loop_
_atom_site_label
_atom_site_type_symbol
_atom_site_fract_x
_atom_site_fract_y
_atom_site_fract_z
Zn1	Zn	1.135188	-0.250826	0.420010
Zn2	Zn	1.468521	0.082508	0.753343
Zn3	Zn	1.801855	0.415841	1.086676
Zn4	Zn	1.135121	-0.356055	0.295811
Zn5	Zn	1.468454	-0.022721	0.629144
Zn6	Zn	1.801788	0.310612	0.962477
Zn7	Zn	1.011035	-0.250796	0.295821
Zn8	Zn	1.344368	0.082538	0.629154
Zn9	Zn	1.677701	0.415871	0.962487
Zn10	Zn	1.010950	-0.356054	0.419946
Zn11	Zn	1.344283	-0.022720	0.753279
Zn12	Zn	1.677617	0.310613	1.086613
O13	O	1.073073	-0.303432	0.357897
O14	O	1.406407	0.029901	0.691230
O15	O	1.739740	0.363234	1.024563
O16	O	1.239104	-0.264797	0.403557
O17	O	1.572437	0.068536	0.736890
O18	O	1.905770	0.401869	1.070223
O19	O	1.118668	-0.342080	0.191887
O20	O	1.452001	-0.008746	0.525221
O21	O	1.785335	0.324587	0.858554
O22	O	1.027567	-0.162710	0.312326
O23	O	1.360900	0.170623	0.645659
O24	O	1.694234	0.503956	0.978992
O25	O	1.239055	-0.342109	0.312308
O26	O	1.572388	-0.008775	0.645641
O27	O	1.905721	0.324558	0.978975
O28	O	1.118782	-0.162732	0.403567
O29	O	1.452115	0.170601	0.736900
O30	O	1.785449	0.503934	1.070233
O31	O	1.027502	-0.264747	0.191895
O32	O	1.360836	0.068587	0.525228
O33	O	1.694169	0.401920	0.858561
O34	O	0.907099	-0.264746	0.312264
O35	O	1.240432	0.068588	0.645597
O36	O	1.573765	0.401921	0.978931
O37	O	1.027423	-0.342107	0.523879
O38	O	1.360757	-0.008774	0.857212
O39	O	1.694090	0.324560	1.190546
O40	O	0.907037	-0.342078	0.403458
O41	O	1.240370	-0.008745	0.736791
O42	O	1.573703	0.324589	1.070125
O43	O	1.118700	-0.264796	0.523926
O44	O	1.452033	0.068537	0.857259
O45	O	1.785367	0.401870	1.190592
O46	O	1.118586	-0.444144	0.312246
O47	O	1.451920	-0.110810	0.645580
O48	O	1.785253	0.222523	0.978913
O49	O	1.027358	-0.444143	0.403448
O50	O	1.360692	-0.110810	0.736782
O51	O	1.694025	0.222524	1.070115
C52	C	0.880121	-0.303409	0.357856
C53	C	1.213455	0.029924	0.691189
C54	C	1.546788	0.363258	1.024522
C55	C	0.797576	-0.303414	0.357856
C56	C	1.130909	0.029919	0.691189
C57	C	1.464242	0.363253	1.024522
C58	C	0.598137	-0.261312	0.308378
C59	C	0.931470	0.072021	0.641712
C60	C	1.264804	0.405355	0.975045
C61	C	0.548719	-0.318722	0.290097
C62	C	0.882052	0.014611	0.623431
C63	C	1.215385	0.347945	0.956764
C64	C	0.646445	-0.303433	0.357889
C65	C	0.979778	0.029900	0.691223
C66	C	1.313112	0.363233	1.024556
C67	C	0.548782	-0.246043	0.376168
C68	C	0.882115	0.087290	0.709502
C69	C	1.215448	0.420624	1.042835
C70	C	0.500460	-0.303447	0.357920
C71	C	0.833793	0.029887	0.691254
C72	C	1.167127	0.363220	1.024587
C73	C	0.598114	-0.360873	0.339573
C74	C	0.931447	-0.027540	0.672906
C75	C	1.264781	0.305793	1.006239
C76	C	0.598182	-0.288156	0.425675
C77	C	0.931515	0.045178	0.759009
C78	C	1.264848	0.378511	1.092342
C79	C	0.548785	-0.345605	0.407420
C80	C	0.882119	-0.012272	0.740753
C81	C	1.215452	0.321061	1.074087
C82	C	0.730543	-0.303425	0.357869
C83	C	1.063877	0.029909	0.691203
C84	C	1.397210	0.363242	1.024536
C85	C	0.416364	-0.303462	0.357940
C86	C	0.749697	0.029872	0.691273
C87	C	1.083030	0.363205	1.024607
C88	C	1.072976	-0.466984	0.357856
C89	C	1.406309	-0.133651	0.691189
C90	C	1.739643	0.199683	1.024522
C91	C	1.073002	-0.536952	0.357863
C92	C	1.406336	-0.203619	0.691196
C93	C	1.739669	0.129715	1.024529
C94	C	1.120547	-0.569798	0.310423
C95	C	1.453880	-0.236465	0.643756
C96	C	1.787214	0.096868	0.977089
C97	C	1.120582	-0.635541	0.310439
C98	C	1.453915	-0.302207	0.643773
C99	C	1.787248	0.031126	0.977106
C100	C	1.073059	-0.668435	0.357888
C101	C	1.406392	-0.335101	0.691222
C102	C	1.739725	-0.001768	1.024555
C103	C	1.025511	-0.635581	0.405338
C104	C	1.358844	-0.302247	0.738671
C105	C	1.692178	0.031086	1.072004
C106	C	1.025483	-0.569839	0.405325
C107	C	1.358816	-0.236506	0.738658
C108	C	1.692149	0.096827	1.071992
N109	N	1.008090	-0.771698	0.363536
N110	N	1.341424	-0.438365	0.696869
N111	N	1.674757	-0.105032	1.030203
N112	N	1.008119	-0.834150	0.363544
N113	N	1.341453	-0.500817	0.696877
N114	N	1.674786	-0.167483	1.030211
C115	C	1.073142	-0.866509	0.357931
C116	C	1.406475	-0.533176	0.691264
C117	C	1.739809	-0.199843	1.024598
N118	N	1.138136	-0.834058	0.352295
N119	N	1.471469	-0.500725	0.685629
N120	N	1.804803	-0.167391	1.018962
N121	N	1.138106	-0.771601	0.352284
N122	N	1.471439	-0.438268	0.685617
N123	N	1.804773	-0.104934	1.018950
C124	C	1.073084	-0.739720	0.357908
C125	C	1.406418	-0.406387	0.691241
C126	C	1.739751	-0.073053	1.024575
C127	C	1.120728	-0.970641	0.310506
C128	C	1.454061	-0.637308	0.643840
C129	C	1.787395	-0.303974	0.977173
C130	C	1.120764	-1.036385	0.310528
C131	C	1.454098	-0.703051	0.643862
C132	C	1.787431	-0.369718	0.977195
C133	C	1.025687	-1.036423	0.405423
C134	C	1.359020	-0.703090	0.738756
C135	C	1.692353	-0.369757	1.072089
C136	C	1.025657	-0.970681	0.405405
C137	C	1.358991	-0.637347	0.738738
C138	C	1.692324	-0.304014	1.072071
C139	C	1.073177	-0.937794	0.357943
C140	C	1.406510	-0.604460	0.691276
C141	C	1.739844	-0.271127	1.024609
C142	C	1.266779	-0.303456	0.357938
C143	C	1.600112	0.029877	0.691272
C144	C	1.933446	0.363210	1.024605
C145	C	1.349325	-0.303467	0.357956
C146	C	1.682658	0.029867	0.691289
C147	C	2.015991	0.363200	1.024623
C148	C	1.073060	-0.303455	0.551602
C149	C	1.406393	0.029878	0.884936
C150	C	1.739726	0.363212	1.218269
C151	C	1.073054	-0.303465	0.634148
C152	C	1.406387	0.029869	0.967481
C153	C	1.739721	0.363202	1.300815
C154	C	1.073191	-0.139242	0.357954
C155	C	1.406525	0.194091	0.691288
C156	C	1.739858	0.527425	1.024621
C157	C	1.073242	-0.069274	0.357979
C158	C	1.406575	0.264059	0.691312
C159	C	1.739908	0.597393	1.024645
C160	C	1.023411	-0.345501	0.833573
C161	C	1.356745	-0.012167	1.166907
C162	C	1.690078	0.321166	1.500240
C163	C	1.091155	-0.360905	0.882970
C164	C	1.424488	-0.027571	1.216304
C165	C	1.757822	0.305762	1.549637
C166	C	1.073057	-0.303456	0.785278
C167	C	1.406390	0.029877	1.118612
C168	C	1.739724	0.363211	1.451945
C169	C	1.005318	-0.288072	0.882963
C170	C	1.338652	0.045261	1.216296
C171	C	1.671985	0.378594	1.549630
C172	C	1.073054	-0.303449	0.931263
C173	C	1.406388	0.029885	1.264597
C174	C	1.739721	0.363218	1.597930
C175	C	1.140836	-0.318890	0.833588
C176	C	1.474170	0.014443	1.166922
C177	C	1.807503	0.347777	1.500255
C178	C	1.054954	-0.246031	0.833577
C179	C	1.388287	0.087302	1.166910
C180	C	1.721621	0.420636	1.500243
C181	C	1.122744	-0.261413	0.882951
C182	C	1.456078	0.071920	1.216285
C183	C	1.789411	0.405253	1.549618
C184	C	1.073058	-0.303462	0.701180
C185	C	1.406391	0.029872	1.034513
C186	C	1.739724	0.363205	1.367847
C187	C	1.073061	-0.303443	1.015360
C188	C	1.406395	0.029891	1.348693
C189	C	1.739728	0.363224	1.682027
C190	C	1.073074	-0.303430	1.164945
C191	C	1.406408	0.029903	1.498278
C192	C	1.739741	0.363237	1.831611
C193	C	1.073059	-0.303438	1.082399
C194	C	1.406392	0.029895	1.415732
C195	C	1.739725	0.363229	1.749065
H196	H	0.619925	-0.275206	0.482970
H197	H	0.953258	0.058127	0.816303
H198	H	1.286592	0.391460	1.149637
H199	H	0.526993	-0.331654	0.232785
H200	H	0.860326	0.001679	0.566119
H201	H	1.193660	0.335013	0.899452
H202	H	0.986939	-0.943936	0.444032
H203	H	1.320272	-0.610602	0.777365
H204	H	1.653606	-0.277269	1.110699
C205	C	0.627264	-0.426466	0.318609
C206	C	0.960598	-0.093133	0.651942
C207	C	1.293931	0.240200	0.985275
N208	N	0.649222	-0.475869	0.302815
N209	N	0.982556	-0.142536	0.636148
N210	N	1.315889	0.190797	0.969482
H211	H	1.159242	-0.543023	0.271778
H212	H	1.492575	-0.209690	0.605111
H213	H	1.825909	0.123643	0.938445
C214	C	0.519687	-0.393790	0.463998
C215	C	0.853021	-0.060456	0.797332
C216	C	1.186354	0.272877	1.130665
N217	N	0.497768	-0.430084	0.506609
N218	N	0.831101	-0.096751	0.839942
N219	N	1.164434	0.236583	1.173275
C220	C	1.173011	-0.934463	0.258309
C221	C	1.506344	-0.601129	0.591642
C222	C	1.839678	-0.267796	0.924975
N223	N	1.212394	-0.907215	0.218995
N224	N	1.545727	-0.573882	0.552329
N225	N	1.879061	-0.240549	0.885662
H226	H	0.986819	-0.662367	0.443972
H227	H	1.320152	-0.329034	0.777306
H228	H	1.653485	0.004300	1.110639
H229	H	0.527073	-0.197510	0.391590
H230	H	0.860406	0.135824	0.724924
H231	H	1.193740	0.469157	1.058257
C232	C	1.173069	-1.072515	0.258337
C233	C	1.506403	-0.739182	0.591670
C234	C	1.839736	-0.405849	0.925004
N235	N	1.212465	-1.099729	0.219024
N236	N	1.545798	-0.766396	0.552357
N237	N	1.879132	-0.433063	0.885691
H238	H	1.159301	-0.662289	0.271808
H239	H	1.492634	-0.328956	0.605142
H240	H	1.825967	0.004377	0.938475
H241	H	1.198138	-0.331953	0.811991
H242	H	1.531471	0.001380	1.145324
H243	H	1.864805	0.334713	1.478657
C244	C	0.973187	-0.533707	0.457524
C245	C	1.306520	-0.200374	0.790858
C246	C	1.639854	0.132959	1.124191
N247	N	0.933800	-0.506492	0.496845
N248	N	1.267133	-0.173159	0.830178
N249	N	1.600467	0.160175	1.163511
H250	H	0.981481	-0.381087	0.811893
H251	H	1.314814	-0.047753	1.145227
H252	H	1.648147	0.285580	1.478560
H253	H	0.986996	-1.063205	0.444060
H254	H	1.320329	-0.729871	0.777393
H255	H	1.653663	-0.396538	1.110727
C256	C	1.111844	-0.426506	0.912286
C257	C	1.445178	-0.093173	1.245619
C258	C	1.778511	0.240160	1.578952
N259	N	1.127422	-0.475919	0.934364
N260	N	1.460756	-0.142585	1.267697
N261	N	1.794089	0.190748	1.601031
H262	H	1.164775	-0.225854	0.904495
H263	H	1.498109	0.107479	1.237828
H264	H	1.831442	0.440812	1.571162
H265	H	1.039619	-0.197485	0.811864
H266	H	1.372952	0.135849	1.145197
H267	H	1.706285	0.469182	1.478530
H268	H	0.948033	-0.275064	0.904652
H269	H	1.281367	0.058269	1.237985
H270	H	1.614700	0.391603	1.571319
C271	C	0.627417	-0.213244	0.251754
C272	C	0.960750	0.120089	0.585088
C273	C	1.294083	0.453423	0.918421
N274	N	0.649472	-0.177043	0.209104
N275	N	0.982805	0.156291	0.542437
N276	N	1.316138	0.489624	0.875770
