data_functionalizedCrystal
_audit_creation_method	'MofGen! by Chris Wilmer'
_symmetry_space_group_name_H-M	'P1'
_symmetry_Int_Tables_number	1
_symmetry_cell_setting	triclinic
loop_
_symmetry_equiv_pos_as_xyz
  x,y,z
_cell_length_a	14.044220
_cell_length_b	17.699103
_cell_length_c	16.776229
_cell_angle_alpha	89.988386
_cell_angle_beta	89.997978
_cell_angle_gamma	88.239969
loop_
_atom_site_label
_atom_site_type_symbol
_atom_site_fract_x
_atom_site_fract_y
_atom_site_fract_z
O1	O	1.257306	0.182443	-0.066220
O2	O	1.757306	0.682443	0.433780
O3	O	0.981351	0.175860	-0.066240
O4	O	1.481351	0.675860	0.433760
O5	O	1.127115	0.069500	-0.066214
O6	O	1.627115	0.569500	0.433786
O7	O	1.111542	0.288802	-0.066246
O8	O	1.611542	0.788802	0.433754
O9	O	1.127096	0.069492	0.066362
O10	O	1.627096	0.569492	0.566362
O11	O	0.981332	0.175851	0.066337
O12	O	1.481332	0.675851	0.566337
O13	O	1.257287	0.182435	0.066356
O14	O	1.757287	0.682435	0.566356
Zn15	Zn	1.119306	0.179141	0.087396
Zn16	Zn	1.619306	0.679141	0.587396
Zn17	Zn	1.119332	0.179153	-0.087279
Zn18	Zn	1.619332	0.679153	0.412721
O19	O	1.111523	0.288794	0.066331
O20	O	1.611523	0.788794	0.566331
C21	C	1.126545	0.041261	0.000076
C22	C	1.626545	0.541261	0.500076
C23	C	1.124861	-0.042873	0.000083
C24	C	1.624861	0.457127	0.500083
C25	C	0.946034	0.172974	0.000046
C26	C	1.446034	0.672974	0.500046
C27	C	0.840827	0.164378	0.000039
C28	C	1.340827	0.664378	0.500039
C29	C	1.114573	-0.559290	-0.072238
C30	C	1.614573	-0.059290	0.427762
C31	C	1.116154	-0.480238	-0.072230
C32	C	1.616154	0.019762	0.427770
C33	C	1.116932	-0.440730	0.000042
C34	C	1.616932	0.059270	0.500042
C35	C	1.116139	-0.480278	0.072312
C36	C	1.616139	0.019722	0.572312
C37	C	1.114565	-0.559329	0.072304
C38	C	1.614565	-0.059329	0.572304
C39	C	1.122487	-0.161474	0.072345
C40	C	1.622487	0.338526	0.572345
C41	C	1.124058	-0.082417	0.072348
C42	C	1.624058	0.417583	0.572348
C43	C	1.124076	-0.082382	-0.072189
C44	C	1.624076	0.417618	0.427811
C45	C	1.122502	-0.161433	-0.072197
C46	C	1.622502	0.338567	0.427803
C47	C	1.121714	-0.200975	0.000073
C48	C	1.621714	0.299025	0.500073
C49	C	1.120002	-0.286693	0.000064
C50	C	1.620002	0.213307	0.500064
C51	C	1.118637	-0.355013	0.000051
C52	C	1.618637	0.144987	0.500051
C53	C	0.648200	0.148662	0.000057
C54	C	1.148200	0.648662	0.500057
C55	C	0.590432	0.209628	0.000052
C56	C	1.090432	0.709628	0.500052
C57	C	0.483248	0.200884	0.000062
C58	C	0.983248	0.700884	0.500062
C59	C	0.755394	0.157405	0.000047
C60	C	1.255394	0.657405	0.500047
C61	C	1.292604	0.185321	0.000068
C62	C	1.792604	0.685321	0.500068
C63	C	1.397811	0.193916	0.000070
C64	C	1.897811	0.693916	0.500070
C65	C	1.112094	0.317033	0.000038
C66	C	1.612094	0.817033	0.500038
C67	C	1.113777	0.401167	0.000027
C68	C	1.613777	0.901167	0.500027
N69	N	1.119296	0.179134	0.206607
N70	N	1.619296	0.679134	0.706607
N71	N	1.119350	0.179155	-0.206491
N72	N	1.619350	0.679155	0.293509
C73	C	1.183860	0.132060	0.248335
C74	C	1.683860	0.632060	0.748335
C75	C	1.183865	0.132060	0.331788
C76	C	1.683865	0.632060	0.831788
C77	C	1.119310	0.179138	0.373510
C78	C	1.619310	0.679138	0.873510
C79	C	1.054739	0.226213	0.331776
C80	C	1.554739	0.726213	0.831776
C81	C	1.054730	0.226209	0.248325
C82	C	1.554730	0.726209	0.748325
C83	C	1.054774	0.226230	0.668323
C84	C	1.554774	0.726230	1.168323
C85	C	1.054790	0.226233	0.751779
C86	C	1.554790	0.726233	1.251779
C87	C	1.183908	0.132082	0.751786
C88	C	1.683908	0.632082	1.251786
C89	C	1.183899	0.132077	0.668335
C90	C	1.683899	0.632077	1.168335
C91	C	1.119326	0.179150	0.626608
C92	C	1.619326	0.679150	1.126608
C93	C	1.119320	0.179148	0.536120
C94	C	1.619320	0.679148	1.036120
C95	C	1.119320	0.179144	0.463997
C96	C	1.619320	0.679144	0.963997
H97	H	1.113931	-0.591452	-0.131090
H98	H	1.613931	-0.091452	0.368910
H99	H	0.621473	0.268390	0.000040
H100	H	1.121473	0.768390	0.500040
Cl101	Cl	0.973579	0.285394	0.384225
Cl102	Cl	1.473579	0.785394	0.884225
H103	H	1.124721	-0.050178	-0.131034
H104	H	1.624721	0.449822	0.368966
Cl105	Cl	1.125037	-0.032751	0.163212
Cl106	Cl	1.625037	0.467249	0.663212
H107	H	0.617161	0.089906	0.000070
H108	H	1.117161	0.589906	0.500070
H109	H	1.236432	0.093728	0.214371
H110	H	1.736432	0.593728	0.714371
Cl111	Cl	1.265031	0.072880	0.384248
Cl112	Cl	1.765031	0.572880	0.884248
Cl113	Cl	1.121487	-0.211173	0.163199
Cl114	Cl	1.621487	0.288827	0.663199
H115	H	1.236469	0.093745	0.634367
H116	H	1.736469	0.593745	1.134367
Cl117	Cl	1.265085	0.072901	0.804247
Cl118	Cl	1.765085	0.572901	1.304247
H119	H	1.121864	-0.193597	-0.131048
H120	H	1.621864	0.306403	0.368952
Cl121	Cl	0.973627	0.285419	0.804230
Cl122	Cl	1.473627	0.785419	1.304230
H123	H	1.002197	0.264560	0.634355
H124	H	1.502197	0.764560	1.134355
H125	H	1.002155	0.264540	0.214350
H126	H	1.502155	0.764540	0.714350
H127	H	1.116804	-0.448045	-0.131075
H128	H	1.616804	0.051955	0.368925
Cl129	Cl	1.113570	-0.609041	0.163154
Cl130	Cl	1.613570	-0.109041	0.663154
Cl131	Cl	1.117122	-0.430611	0.163169
Cl132	Cl	1.617122	0.069389	0.663169
