data_functionalizedCrystal
_audit_creation_method	'MofGen! by Chris Wilmer'
_symmetry_space_group_name_H-M	'P1'
_symmetry_Int_Tables_number	1
_symmetry_cell_setting	triclinic
loop_
_symmetry_equiv_pos_as_xyz
  x,y,z
_cell_length_a	29.839134
_cell_length_b	21.295417
_cell_length_c	29.839104
_cell_angle_alpha	90.132525
_cell_angle_beta	89.913447
_cell_angle_gamma	89.974633
loop_
_atom_site_label
_atom_site_type_symbol
_atom_site_fract_x
_atom_site_fract_y
_atom_site_fract_z
Zn1	Zn	0.687040	0.250078	-0.254122
Zn2	Zn	0.686902	0.355534	-0.178990
Zn3	Zn	0.611838	0.250273	-0.178991
Zn4	Zn	0.611885	0.355304	-0.254079
O5	O	0.649416	0.302797	-0.216546
O6	O	0.749889	0.264081	-0.244173
O7	O	0.676867	0.341748	-0.116123
O8	O	0.621852	0.162157	-0.188976
O9	O	0.749787	0.341559	-0.188974
O10	O	0.677103	0.162014	-0.244175
O11	O	0.621718	0.264413	-0.116124
O12	O	0.548977	0.264191	-0.188934
O13	O	0.621932	0.341168	-0.316952
O14	O	0.549012	0.341357	-0.244101
O15	O	0.677148	0.263859	-0.316984
O16	O	0.676913	0.443593	-0.188932
O17	O	0.621798	0.443424	-0.244099
C18	C	0.649358	0.466349	-0.216521
C19	C	0.649373	0.536317	-0.216525
C20	C	0.532694	0.302770	-0.216513
C21	C	0.482759	0.302774	-0.216510
C22	C	0.649561	0.302466	-0.333725
C23	C	0.649622	0.302325	-0.383659
C24	C	0.173143	0.343037	-0.245236
C25	C	-0.014530	0.343055	-0.245256
O26	O	-0.038771	0.377258	-0.269660
N27	N	-0.038026	0.302820	-0.216579
C28	C	-0.014600	0.262575	-0.187898
O29	O	-0.038891	0.228349	-0.163511
C30	C	0.173072	0.262555	-0.187881
C31	C	0.196565	0.302797	-0.216556
C32	C	0.196637	0.383275	-0.273908
C33	C	0.243552	0.383273	-0.273901
C34	C	0.266974	0.343032	-0.245222
C35	C	0.243481	0.302794	-0.216549
C36	C	0.196496	0.222307	-0.159203
C37	C	0.243417	0.222305	-0.159202
C38	C	0.266911	0.262546	-0.187876
C39	C	0.313818	0.262551	-0.187862
N40	N	0.337314	0.302786	-0.216538
C41	C	0.313892	0.343026	-0.245218
C42	C	-0.113131	0.262590	-0.187909
C43	C	-0.160049	0.262595	-0.187913
C44	C	-0.159975	0.343074	-0.245270
C45	C	-0.113056	0.343071	-0.245264
C46	C	-0.089635	0.302824	-0.216585
C47	C	0.412418	0.343019	-0.245201
C48	C	0.459338	0.343015	-0.245190
C49	C	0.459259	0.262534	-0.187834
C50	C	0.412344	0.262540	-0.187843
C51	C	0.388924	0.302784	-0.216530
O52	O	0.338089	0.228361	-0.163474
O53	O	0.338191	0.377238	-0.269608
C54	C	0.126228	0.343039	-0.245243
C55	C	0.102734	0.302801	-0.216570
C56	C	0.126156	0.262561	-0.187890
C57	C	0.055817	0.302807	-0.216574
C58	C	0.032395	0.343048	-0.245253
C59	C	0.055891	0.383282	-0.273929
C60	C	0.102806	0.383280	-0.273922
C61	C	0.102660	0.222326	-0.159214
C62	C	0.055745	0.222333	-0.159223
C63	C	0.032323	0.262573	-0.187903
C64	C	0.766595	0.302824	-0.216578
C65	C	0.816529	0.302836	-0.216592
C66	C	0.649488	0.138607	-0.216580
C67	C	0.649518	0.068639	-0.216595
C68	C	0.678097	0.569250	-0.187829
C69	C	0.678118	0.634993	-0.187839
C70	C	0.649408	0.667799	-0.216541
C71	C	0.620682	0.634858	-0.245242
C72	C	0.620665	0.569117	-0.245235
N73	N	0.610111	0.771052	-0.219955
N74	N	0.610128	0.833503	-0.219959
C75	C	0.649458	0.865874	-0.216566
N76	N	0.688770	0.833434	-0.213160
N77	N	0.688752	0.770977	-0.213153
C78	C	0.649423	0.739085	-0.216552
C79	C	0.678207	0.970093	-0.187880
C80	C	0.678229	1.035837	-0.187893
C81	C	0.620788	1.035700	-0.245294
C82	C	0.620770	0.969958	-0.245283
C83	C	0.649479	0.937158	-0.216573
C84	C	0.649299	0.303081	-0.099823
C85	C	0.649324	0.303045	-0.049888
C86	C	0.678413	0.342627	0.306721
C87	C	0.678326	0.342831	0.119048
O88	O	0.702923	0.376831	0.094802
N89	N	0.649394	0.302886	0.095557
C90	C	0.620484	0.262884	0.118986
O91	O	0.595877	0.228908	0.094699
C92	C	0.620574	0.262678	0.306658
C93	C	0.649505	0.302630	0.330147
C94	C	0.707342	0.382576	0.330209
C95	C	0.707362	0.382527	0.377125
C96	C	0.678453	0.342530	0.400551
C97	C	0.649524	0.302581	0.377062
C98	C	0.591666	0.222674	0.330087
C99	C	0.591692	0.222625	0.377008
C100	C	0.620623	0.262577	0.400497
C101	C	0.620635	0.262535	0.447404
N102	N	0.649567	0.302480	0.470896
C103	C	0.678476	0.342478	0.447469
C104	C	0.620438	0.262996	0.020456
C105	C	0.620415	0.263048	-0.026462
C106	C	0.678258	0.342994	-0.026397
C107	C	0.678279	0.342944	0.020522
C108	C	0.649370	0.302941	0.043947
C109	C	0.678515	0.342372	0.545995
C110	C	0.678531	0.342322	0.592914
C111	C	0.620690	0.262374	0.592846
C112	C	0.620672	0.262427	0.545930
C113	C	0.649589	0.302428	0.522506
O114	O	0.596055	0.228548	0.471679
O115	O	0.703086	0.376438	0.471764
C116	C	0.678394	0.342676	0.259805
C117	C	0.649465	0.302728	0.236316
C118	C	0.620556	0.262731	0.259743
C119	C	0.649442	0.302780	0.189399
C120	C	0.678351	0.342777	0.165972
C121	C	0.707283	0.382722	0.189463
C122	C	0.707302	0.382673	0.236379
C123	C	0.591624	0.222786	0.236252
C124	C	0.591606	0.222838	0.189336
C125	C	0.620515	0.262835	0.165910
H126	H	0.478464	0.375787	-0.268541
H127	H	0.568044	0.190305	0.170216
H128	H	0.597274	0.542301	-0.268603
C129	C	0.560307	0.179283	0.261706
C130	C	0.585559	0.138640	0.288497
C131	C	0.556721	0.098551	0.311945
H132	H	0.540845	0.203465	0.280134
H133	H	0.543083	0.155466	0.241007
H134	H	0.602775	0.162454	0.309194
H135	H	0.605020	0.114443	0.270080
H136	H	0.539496	0.074735	0.291246
H137	H	0.537260	0.122739	0.330371
H138	H	0.573850	0.070967	0.330123
C139	C	0.560278	0.179295	0.402499
C140	C	0.531669	0.215190	0.429577
C141	C	0.502728	0.175299	0.453070
H142	H	0.543004	0.155497	0.381840
H143	H	0.577329	0.151689	0.420735
H144	H	0.514620	0.242785	0.411343
H145	H	0.548931	0.238987	0.450245
H146	H	0.519780	0.147692	0.471305
H147	H	0.485457	0.151503	0.432407
H148	H	0.483317	0.199647	0.471448
H149	H	0.597152	0.229812	0.611928
H150	H	0.597306	0.661573	-0.268612
H151	H	0.730919	0.415062	0.396245
C152	C	0.589242	0.218987	0.520506
C153	C	0.563935	0.183941	0.551067
C154	C	0.534984	0.143907	0.527666
H155	H	0.569734	0.243207	0.502290
H156	H	0.606280	0.191373	0.502122
H157	H	0.546898	0.211551	0.569443
H158	H	0.583431	0.159708	0.569284
H159	H	0.552022	0.116293	0.509282
H160	H	0.515479	0.168132	0.509451
H161	H	0.517813	0.120119	0.548398
H162	H	0.393355	0.375788	-0.268561
C163	C	0.268975	0.426983	-0.305088
C164	C	0.238413	0.462207	-0.330211
C165	C	0.261812	0.502473	-0.358952
H166	H	0.287245	0.454480	-0.287919
H167	H	0.287305	0.402902	-0.324718
H168	H	0.220091	0.486286	-0.310584
H169	H	0.220142	0.434726	-0.347389
H170	H	0.280142	0.478393	-0.378582
H171	H	0.280081	0.529967	-0.341779
H172	H	0.241079	0.526373	-0.376004
H173	H	0.596896	0.230419	0.039525
C174	C	0.738765	0.426071	0.261796
C175	C	0.764083	0.461092	0.231230
C176	C	0.793077	0.501072	0.254624
H177	H	0.721771	0.453707	0.280195
H178	H	0.758260	0.401794	0.279996
H179	H	0.744590	0.485368	0.213037
H180	H	0.781085	0.433473	0.212830
H181	H	0.812572	0.476795	0.272824
H182	H	0.776080	0.528704	0.273022
H183	H	0.810261	0.524835	0.233889
H184	H	0.036620	0.189564	-0.135868
C185	C	0.709225	0.670832	-0.156642
C186	C	0.683771	0.708703	-0.127836
C187	C	0.712408	0.741726	-0.099091
H188	H	0.726325	0.641947	-0.139501
H189	H	0.728812	0.696440	-0.173827
H190	H	0.664192	0.683097	-0.110653
H191	H	0.666672	0.737599	-0.144965
H192	H	0.731995	0.767334	-0.116275
H193	H	0.729506	0.712838	-0.081953
H194	H	0.695142	0.767430	-0.079545
H195	H	0.730820	0.415290	0.170381
H196	H	0.568107	0.190141	0.310971
H197	H	0.177572	0.416044	-0.297265
H198	H	0.121930	0.416049	-0.297273
C199	C	-0.087632	0.386782	-0.276449
C200	C	-0.118192	0.422010	-0.301571
C201	C	-0.094791	0.462277	-0.330310
H202	H	-0.069361	0.414276	-0.259279
H203	H	-0.069304	0.362700	-0.296080
H204	H	-0.136513	0.446090	-0.281943
H205	H	-0.136464	0.394533	-0.318751
H206	H	-0.076462	0.438196	-0.349941
H207	H	-0.076520	0.489767	-0.313136
H208	H	-0.115522	0.486181	-0.347362
H209	H	-0.179053	0.375839	-0.268623
H210	H	-0.179173	0.229833	-0.164558
C211	C	0.709919	0.385802	0.618359
C212	C	0.700433	0.448190	0.607090
C213	C	0.729341	0.488258	0.630514
H214	H	0.705821	0.380133	0.649664
H215	H	0.740064	0.376335	0.610580
H216	H	0.670295	0.457654	0.614872
H217	H	0.704534	0.453879	0.575789
H218	H	0.759486	0.478792	0.622735
H219	H	0.725241	0.482584	0.661818
H220	H	0.722912	0.530593	0.622868
C221	C	-0.087787	0.218869	-0.156718
C222	C	-0.118411	0.183652	-0.131600
C223	C	-0.095084	0.143377	-0.102857
H224	H	-0.069449	0.191367	-0.173885
H225	H	-0.069532	0.242944	-0.137084
H226	H	-0.136659	0.159578	-0.151231
H227	H	-0.136751	0.211136	-0.114424
H228	H	-0.076829	0.167452	-0.083223
H229	H	-0.076746	0.115880	-0.120027
H230	H	-0.115859	0.119482	-0.085808
H231	H	0.177376	0.189540	-0.135851
H232	H	0.597413	1.062411	-0.268665
C233	C	0.709516	1.071595	-0.156834
C234	C	0.738341	1.109160	-0.182339
C235	C	0.767192	1.142088	-0.153754
H236	H	0.692424	1.097405	-0.137215
H237	H	0.726635	1.042635	-0.139766
H238	H	0.721224	1.138117	-0.199400
H239	H	0.755443	1.083366	-0.201956
H240	H	0.784311	1.113128	-0.136685
H241	H	0.750096	1.167895	-0.134136
H242	H	0.786756	1.167576	-0.171055
H243	H	0.597379	0.943142	-0.268648
C244	C	0.709739	0.386343	0.045940
C245	C	0.735056	0.421370	0.015376
C246	C	0.764048	0.461350	0.038773
H247	H	0.692744	0.413975	0.064340
H248	H	0.729236	0.362066	0.064140
H249	H	0.715562	0.445645	-0.002815
H250	H	0.752060	0.393754	-0.003025
H251	H	0.783544	0.437073	0.056972
H252	H	0.747049	0.488979	0.057172
H253	H	0.781231	0.485117	0.018039
H254	H	0.702062	0.374944	0.526928
C255	C	0.030512	0.426932	-0.305143
C256	C	0.042007	0.413202	-0.349609
C257	C	0.018639	0.453398	-0.378375
H258	H	-0.000801	0.421204	-0.301098
H259	H	0.038183	0.469245	-0.298542
H260	H	0.034333	0.370899	-0.356207
H261	H	0.073316	0.418933	-0.353668
H262	H	0.026310	0.495711	-0.371774
H263	H	-0.012673	0.447667	-0.374326
H264	H	0.026438	0.444091	-0.408548
C265	C	0.709220	0.533527	-0.156679
C266	C	0.703051	0.468903	-0.162805
C267	C	0.731709	0.435973	-0.134114
H268	H	0.739429	0.544169	-0.163258
H269	H	0.702629	0.544377	-0.126479
H270	H	0.709645	0.458057	-0.192998
H271	H	0.672848	0.458242	-0.156222
H272	H	0.725118	0.446824	-0.103913
H273	H	0.761916	0.446621	-0.140696
H274	H	0.727524	0.392123	-0.138263
C275	C	0.128004	0.178612	-0.128023
C276	C	0.097381	0.143392	-0.102907
C277	C	0.120709	0.103121	-0.074162
H278	H	0.146346	0.151112	-0.145188
H279	H	0.146257	0.202689	-0.108389
H280	H	0.079136	0.119316	-0.122539
H281	H	0.079038	0.170875	-0.085733
H282	H	0.138961	0.127199	-0.054527
H283	H	0.139049	0.075626	-0.091330
H284	H	0.099934	0.079224	-0.057114
H285	H	0.393215	0.229773	-0.164493
C286	C	0.709426	0.934590	-0.156696
C287	C	0.734597	0.977507	-0.131577
C288	C	0.763364	0.944827	-0.102849
H289	H	0.692274	0.909033	-0.137059
H290	H	0.729024	0.908873	-0.173888
H291	H	0.715001	1.003214	-0.114386
H292	H	0.751758	1.003065	-0.151202
H293	H	0.782963	0.919109	-0.120041
H294	H	0.746209	0.919271	-0.083215
H295	H	0.780449	0.973941	-0.085805
H296	H	0.478338	0.229773	-0.164482
C297	C	0.268764	0.178587	-0.128010
C298	C	0.238143	0.143363	-0.102893
C299	C	0.261475	0.103093	-0.074150
H300	H	0.287106	0.151090	-0.145177
H301	H	0.287016	0.202666	-0.108376
H302	H	0.219899	0.119286	-0.122525
H303	H	0.219800	0.170844	-0.085718
H304	H	0.279727	0.127172	-0.054516
H305	H	0.279816	0.075601	-0.091320
H306	H	0.240702	0.079193	-0.057102
C307	C	0.588983	0.219607	-0.051880
C308	C	0.563682	0.184559	-0.021316
C309	C	0.534728	0.144525	-0.044713
H310	H	0.569472	0.243828	-0.070092
H311	H	0.606019	0.191995	-0.070267
H312	H	0.546648	0.212168	-0.002936
H313	H	0.583182	0.160326	-0.003103
H314	H	0.551764	0.116913	-0.063100
H315	H	0.515220	0.168750	-0.062924
H316	H	0.517561	0.120736	-0.023979
H317	H	0.730885	0.415146	0.311140
H318	H	0.701798	0.375559	-0.045479
