data_functionalizedCrystal
_audit_creation_method	'MofGen! by Chris Wilmer'
_symmetry_space_group_name_H-M	'P1'
_symmetry_Int_Tables_number	1
_symmetry_cell_setting	triclinic
loop_
_symmetry_equiv_pos_as_xyz
  x,y,z
_cell_length_a	12.827893
_cell_length_b	29.839131
_cell_length_c	12.827885
_cell_angle_alpha	89.967159
_cell_angle_beta	89.980538
_cell_angle_gamma	90.041863
loop_
_atom_site_label
_atom_site_type_symbol
_atom_site_fract_x
_atom_site_fract_y
_atom_site_fract_z
Zn1	Zn	1.597481	-0.178829	-0.590828
Zn2	Zn	1.597294	-0.253966	-0.416079
Zn3	Zn	1.422721	-0.178851	-0.416101
Zn4	Zn	1.422627	-0.253933	-0.590779
O5	O	1.510031	-0.216395	-0.503447
O6	O	1.743692	-0.188801	-0.567658
O7	O	1.574098	-0.244025	-0.269846
O8	O	1.446021	-0.115981	-0.439309
O9	O	1.743555	-0.244004	-0.439271
O10	O	1.574416	-0.115965	-0.567680
O11	O	1.445840	-0.188839	-0.269862
O12	O	1.276473	-0.188806	-0.439262
O13	O	1.445860	-0.243947	-0.737022
O14	O	1.276403	-0.243968	-0.567597
O15	O	1.574324	-0.188768	-0.737058
O16	O	1.574006	-0.316829	-0.439224
O17	O	1.445679	-0.316804	-0.567575
C18	C	1.238521	-0.216386	-0.503427
C19	C	1.122368	-0.216394	-0.503443
C20	C	1.070651	-0.189126	-0.567072
C21	C	0.950600	-0.189133	-0.567091
C22	C	1.509841	-0.333117	-0.503415
C23	C	1.509855	-0.383052	-0.503436
C24	C	1.443254	-0.739642	-0.570275
C25	C	1.443116	-0.551969	-0.570242
O26	O	1.386261	-0.527707	-0.627051
N27	N	1.509965	-0.528497	-0.503467
C28	C	1.576859	-0.551946	-0.436701
O29	O	1.633723	-0.527676	-0.379911
C30	C	1.577002	-0.739618	-0.436739
C31	C	1.510140	-0.763088	-0.503511
C32	C	1.376399	-0.763111	-0.637042
C33	C	1.376430	-0.810027	-0.637046
C34	C	1.443316	-0.833473	-0.570282
C35	C	1.510171	-0.810003	-0.503515
C36	C	1.643900	-0.763067	-0.369979
C37	C	1.643932	-0.809988	-0.369996
C38	C	1.577070	-0.833457	-0.436768
C39	C	1.577089	-0.880365	-0.436754
N40	N	1.510239	-0.903836	-0.503529
C41	C	1.443353	-0.880390	-0.570293
C42	C	1.576778	-0.453416	-0.436684
C43	C	1.576741	-0.406498	-0.436672
C44	C	1.442999	-0.406524	-0.570216
C45	C	1.443031	-0.453442	-0.570221
C46	C	1.509928	-0.476887	-0.503459
C47	C	1.443423	-0.978916	-0.570295
C48	C	1.443457	-1.025836	-0.570289
C49	C	1.577203	-1.025806	-0.436750
C50	C	1.577165	-0.978891	-0.436751
C51	C	1.510272	-0.955447	-0.503532
O52	O	1.633922	-0.904656	-0.379983
O53	O	1.386514	-0.904669	-0.627090
C54	C	1.443223	-0.692726	-0.570272
C55	C	1.510078	-0.669257	-0.503504
C56	C	1.576964	-0.692703	-0.436741
C57	C	1.510041	-0.622339	-0.503493
C58	C	1.443155	-0.598893	-0.570257
C59	C	1.376305	-0.622365	-0.637032
C60	C	1.376336	-0.669280	-0.637035
C61	C	1.643814	-0.669231	-0.369966
C62	C	1.643777	-0.622316	-0.369967
C63	C	1.576890	-0.598870	-0.436730
C64	C	1.782601	-0.216403	-0.503468
C65	C	1.898754	-0.216407	-0.503476
C66	C	1.510103	-0.216351	-0.776017
C67	C	1.510133	-0.216333	-0.892171
C68	C	1.510250	-0.099216	-0.503502
C69	C	1.510343	-0.049282	-0.503525
C70	C	1.446586	-0.243626	-0.943938
C71	C	1.446616	-0.243607	-1.063988
C72	C	1.510019	-0.216406	-0.231937
C73	C	1.510191	-0.216298	-0.115784
H74	H	1.115250	-0.165774	-0.621530
Br75	Br	1.734658	-0.731227	-0.279365
H76	H	0.906124	-0.165789	-0.621569
Br77	Br	1.285699	-0.841871	-0.727685
Br78	Br	0.972869	-0.255324	-0.412681
Br79	Br	1.285614	-0.731300	-0.727665
H80	H	1.077768	-0.239743	-0.448980
Br81	Br	1.285527	-0.590536	-0.727635
Br82	Br	1.600865	-0.177365	-0.966424
Br83	Br	1.352708	-1.057684	-0.660912
H84	H	1.388592	-0.472548	-0.624598
Br85	Br	1.352638	-0.947107	-0.660926
H86	H	1.392204	-0.266971	-1.108507
H87	H	1.388536	-0.387426	-0.624576
Br88	Br	1.667470	-0.374652	-0.346034
Br89	Br	1.734523	-0.590470	-0.279336
Br90	Br	1.734730	-0.841804	-0.279389
Br91	Br	1.667576	-0.485227	-0.346068
Br92	Br	1.355868	-0.282599	-0.869684
H93	H	1.631599	-0.959781	-0.382369
Br94	Br	1.667977	-1.057635	-0.346151
H95	H	1.321892	-0.688385	-0.691409
H96	H	1.698283	-0.688316	-0.315598
H97	H	1.564595	-0.192928	-1.071273
