data_functionalizedCrystal
_audit_creation_method	'MofGen! by Chris Wilmer'
_symmetry_space_group_name_H-M	'P1'
_symmetry_Int_Tables_number	1
_symmetry_cell_setting	triclinic
loop_
_symmetry_equiv_pos_as_xyz
  x,y,z
_cell_length_a	16.625548
_cell_length_b	16.625545
_cell_length_c	12.759393
_cell_angle_alpha	89.966045
_cell_angle_beta	89.978375
_cell_angle_gamma	90.026626
loop_
_atom_site_label
_atom_site_type_symbol
_atom_site_fract_x
_atom_site_fract_y
_atom_site_fract_z
Zn1	Zn	1.232672	-0.320931	-0.594053
Zn2	Zn	1.732672	0.179069	-0.094053
Zn3	Zn	1.232565	-0.455788	-0.418366
Zn4	Zn	1.732565	0.044212	0.081634
Zn5	Zn	1.097831	-0.320975	-0.418383
Zn6	Zn	1.597831	0.179025	0.081617
Zn7	Zn	1.097797	-0.455728	-0.593998
Zn8	Zn	1.597797	0.044272	-0.093998
O9	O	1.165216	-0.388355	-0.506200
O10	O	1.665216	0.111645	-0.006200
O11	O	1.345490	-0.338826	-0.570764
O12	O	1.845490	0.161174	-0.070764
O13	O	1.214662	-0.437948	-0.271347
O14	O	1.714662	0.062052	0.228653
O15	O	1.115777	-0.208137	-0.441716
O16	O	1.615777	0.291863	0.058284
O17	O	1.345412	-0.437905	-0.441688
O18	O	1.845412	0.062095	0.058312
O19	O	1.214844	-0.208104	-0.570780
O20	O	1.714844	0.291896	-0.070780
O21	O	1.115673	-0.338902	-0.271359
O22	O	1.615673	0.161098	0.228641
O23	O	0.984994	-0.338844	-0.441662
O24	O	1.484994	0.161156	0.058338
O25	O	1.115718	-0.437803	-0.741026
O26	O	1.615718	0.062197	-0.241026
O27	O	0.984969	-0.437846	-0.570686
O28	O	1.484969	0.062154	-0.070686
O29	O	1.214810	-0.338768	-0.741067
O30	O	1.714810	0.161232	-0.241067
O31	O	1.214629	-0.568612	-0.441634
O32	O	1.714629	-0.068612	0.058366
O33	O	1.115615	-0.568568	-0.570670
O34	O	1.615615	-0.068568	-0.070670
C35	C	1.165128	-0.597846	-0.506167
C36	C	1.665128	-0.097846	-0.006167
C37	C	1.165165	-0.687467	-0.506188
C38	C	1.665165	-0.187467	-0.006188
C39	C	0.955725	-0.388344	-0.506171
C40	C	1.455725	0.111656	-0.006171
C41	C	0.866104	-0.388358	-0.506183
C42	C	1.366104	0.111642	-0.006183
C43	C	1.165196	-0.760250	-0.506209
C44	C	1.665196	-0.260250	-0.006209
C45	C	1.165243	-0.851558	-0.506232
C46	C	1.665243	-0.351558	-0.006232
C47	C	1.165285	-0.924334	-0.506245
C48	C	1.665285	-0.424334	-0.006245
C49	C	1.165331	-1.015649	-0.506267
C50	C	1.665331	-0.515649	-0.006267
C51	C	0.537928	-0.388363	-0.506228
C52	C	1.037928	0.111637	-0.006228
C53	C	0.629237	-0.388360	-0.506212
C54	C	1.129237	0.111640	-0.006212
C55	C	0.702013	-0.388361	-0.506205
C56	C	1.202013	0.111639	-0.006205
C57	C	0.793328	-0.388357	-0.506190
C58	C	1.293328	0.111643	-0.006190
C59	C	1.375525	-0.388367	-0.506230
C60	C	1.875525	0.111633	-0.006230
C61	C	1.465146	-0.388373	-0.506243
C62	C	1.965146	0.111627	-0.006243
C63	C	1.165272	-0.388274	-0.780233
C64	C	1.665272	0.111726	-0.280233
C65	C	1.165296	-0.388239	-0.897010
C66	C	1.665296	0.111761	-0.397010
C67	C	1.165326	-0.178046	-0.506256
C68	C	1.665326	0.321954	-0.006256
C69	C	1.165373	-0.088425	-0.506280
C70	C	1.665373	0.411575	-0.006280
C71	C	1.113771	-0.336656	-0.951878
C72	C	1.613771	0.163344	-0.451878
C73	C	1.113790	-0.336631	-1.061602
C74	C	1.613790	0.163369	-0.561602
C75	C	1.216866	-0.439774	-1.061581
C76	C	1.716866	0.060226	-0.561581
C77	C	1.216842	-0.439803	-0.951859
C78	C	1.716842	0.060197	-0.451859
C79	C	1.165206	-0.388378	-0.233233
C80	C	1.665206	0.111622	0.266767
C81	C	1.165339	-0.388186	-0.116456
C82	C	1.665339	0.111814	0.383544
H83	H	1.071799	-0.294670	-0.907224
H84	H	1.571799	0.205330	-0.407224
H85	H	1.258833	-0.481755	-1.106252
H86	H	1.758833	0.018245	-0.606252
H87	H	1.071833	-0.294628	-1.106271
H88	H	1.571833	0.205372	-0.606271
H89	H	1.258802	-0.481811	-0.907184
H90	H	1.758802	0.018189	-0.407184
