data_functionalizedCrystal
_audit_creation_method	'MofGen! by Chris Wilmer'
_symmetry_space_group_name_H-M	'P1'
_symmetry_Int_Tables_number	1
_symmetry_cell_setting	triclinic
loop_
_symmetry_equiv_pos_as_xyz
  x,y,z
_cell_length_a	16.625548
_cell_length_b	18.101395
_cell_length_c	16.625539
_cell_angle_alpha	89.974216
_cell_angle_beta	89.982945
_cell_angle_gamma	90.032172
loop_
_atom_site_label
_atom_site_type_symbol
_atom_site_fract_x
_atom_site_fract_y
_atom_site_fract_z
Zn1	Zn	1.232604	-0.294821	-0.455913
Zn2	Zn	1.232495	-0.418666	-0.321082
Zn3	Zn	1.097774	-0.294845	-0.321094
Zn4	Zn	1.097716	-0.418627	-0.455872
O5	O	1.165147	-0.356740	-0.388490
O6	O	1.345422	-0.311255	-0.438040
O7	O	1.214603	-0.402267	-0.208251
O8	O	1.115730	-0.191209	-0.339000
O9	O	1.345342	-0.402244	-0.338980
O10	O	1.214789	-0.191191	-0.438051
O11	O	1.115624	-0.311296	-0.208260
O12	O	0.984934	-0.311259	-0.338960
O13	O	1.115630	-0.402178	-0.568710
O14	O	0.984891	-0.402201	-0.437981
O15	O	1.214732	-0.311218	-0.568740
O16	O	1.214547	-0.522294	-0.338940
O17	O	1.115525	-0.522265	-0.437969
C18	C	0.955657	-0.356729	-0.388467
C19	C	0.866035	-0.356742	-0.388477
C20	C	0.537860	-0.356747	-0.388511
C21	C	0.629168	-0.356744	-0.388499
C22	C	0.701945	-0.356745	-0.388494
C23	C	0.793259	-0.356741	-0.388483
C24	C	1.165040	-0.549150	-0.388466
C25	C	1.165067	-0.631464	-0.388483
C26	C	1.165244	-0.930555	-0.388527
C27	C	1.103087	-0.899243	-0.450988
C28	C	1.102791	-0.813625	-0.450793
C29	C	1.165156	-0.782173	-0.388506
C30	C	1.142154	-0.813322	-0.303528
C31	C	1.141754	-0.898968	-0.303901
C32	C	1.250539	-0.898898	-0.410295
C33	C	1.250038	-0.813247	-0.412159
C34	C	1.165108	-0.698313	-0.388489
C35	C	1.165290	-1.014415	-0.388538
C36	C	1.375456	-0.356751	-0.388513
C37	C	1.465077	-0.356756	-0.388523
C38	C	1.165187	-0.356691	-0.598799
C39	C	1.165204	-0.356670	-0.688420
C40	C	1.165278	-0.163578	-0.388531
C41	C	1.165333	-0.081264	-0.388549
C42	C	1.165217	-0.356654	-0.761203
C43	C	1.165236	-0.356626	-0.852511
C44	C	1.165255	-0.356600	-0.925288
C45	C	1.165275	-0.356573	-1.016602
C46	C	1.165154	-0.356735	-0.178999
C47	C	1.165294	-0.356547	-0.089378
H48	H	1.117182	-0.792562	-0.513803
N49	N	1.121948	-0.926464	-0.534725
H50	H	1.170966	-0.959359	-0.532988
H51	H	1.074600	-0.955358	-0.556154
H52	H	1.298798	-0.791833	-0.369981
N53	N	1.199104	-0.926427	-0.240151
H54	H	1.255095	-0.907720	-0.252094
H55	H	1.181286	-0.907729	-0.185768
N56	N	1.200231	-0.786343	-0.240195
H57	H	1.242111	-0.753589	-0.266041
H58	H	1.169930	-0.757358	-0.198068
N59	N	1.060441	-0.785000	-0.278655
H60	H	1.038206	-0.752000	-0.322303
H61	H	1.022876	-0.828133	-0.269922
N62	N	1.019847	-0.927832	-0.432135
H63	H	1.022225	-0.960978	-0.383310
H64	H	0.982831	-0.884826	-0.420935
N65	N	1.311889	-0.925719	-0.350044
H66	H	1.337236	-0.881943	-0.322185
H67	H	1.284556	-0.958227	-0.308892
H68	H	1.079403	-0.919011	-0.285461
H69	H	1.039568	-0.793203	-0.436373
N70	N	1.278326	-0.927439	-0.490975
H71	H	1.235899	-0.961185	-0.514233
H72	H	1.287506	-0.884453	-0.528628
N73	N	1.273023	-0.786278	-0.494997
H74	H	1.228645	-0.754064	-0.517117
H75	H	1.324453	-0.756732	-0.491534
