data_functionalizedCrystal
_audit_creation_method	'MofGen! by Chris Wilmer'
_symmetry_space_group_name_H-M	'P1'
_symmetry_Int_Tables_number	1
_symmetry_cell_setting	triclinic
loop_
_symmetry_equiv_pos_as_xyz
  x,y,z
_cell_length_a	14.853568
_cell_length_b	10.654550
_cell_length_c	9.130313
_cell_angle_alpha	89.998468
_cell_angle_beta	89.996955
_cell_angle_gamma	95.939828
loop_
_atom_site_label
_atom_site_type_symbol
_atom_site_fract_x
_atom_site_fract_y
_atom_site_fract_z
O1	O	-1.197237	0.163963	-0.121689
O2	O	-0.934882	0.183493	-0.121716
O3	O	-1.072091	-0.009074	-0.121691
O4	O	-1.060027	0.356530	-0.121714
O5	O	-1.072090	-0.009069	0.121908
O6	O	-0.934880	0.183498	0.121883
O7	O	-1.197235	0.163968	0.121910
Cu8	Cu	-1.066057	0.173733	0.144139
Cu9	Cu	-1.066059	0.173727	-0.143945
O10	O	-1.060026	0.356535	0.121885
C11	C	-0.901288	0.182610	0.000080
C12	C	-0.801190	0.179958	0.000070
C13	C	-0.377946	0.168735	-0.132695
C14	C	-0.377966	0.168741	0.132886
C15	C	-0.472013	0.171232	0.132882
C16	C	-0.519031	0.172477	0.000088
C17	C	-0.472002	0.171230	-0.132703
C18	C	-0.519048	0.172492	0.265671
C19	C	-0.613101	0.174985	0.265673
C20	C	-0.660122	0.176220	0.132877
C21	C	-0.613087	0.174972	0.000081
C22	C	-0.660105	0.176216	-0.132714
C23	C	-0.613073	0.174959	-0.265511
C24	C	-0.519023	0.172465	-0.265498
C25	C	-0.754172	0.178713	0.132864
C26	C	-0.754161	0.178711	-0.132721
C27	C	-1.071205	-0.055860	0.000108
C28	C	-1.068555	-0.195276	0.000107
N29	N	-1.066063	0.173737	0.346762
C30	C	-0.230830	0.164847	0.000108
C31	C	-0.330928	0.167491	0.000099
C32	C	-1.060912	0.403321	0.000083
C33	C	-1.063562	0.542737	0.000075
C34	C	-0.982776	0.623061	0.000080
C35	C	-0.985271	0.754056	0.000091
C36	C	-1.149347	0.724389	0.000097
C37	C	-1.146851	0.593397	0.000075
C38	C	-0.899487	0.572401	0.000079
C39	C	-0.818694	0.652727	0.000086
C40	C	-0.821189	0.783722	0.000097
C41	C	-0.904478	0.834391	0.000101
N42	N	-1.066061	0.173714	-0.346568
C43	C	-1.126835	0.088497	0.423425
C44	C	-1.126832	0.088482	0.576762
C45	C	-1.005283	0.258958	0.576759
C46	C	-1.005282	0.258966	0.423425
C47	C	-1.187616	0.003268	0.346762
C48	C	-1.248393	-0.081977	0.423425
C49	C	-1.248391	-0.081992	0.576762
C50	C	-1.187611	0.003238	0.653435
H51	H	-0.651366	0.175980	-0.373632
H52	H	-0.750883	0.611463	0.000072
F53	F	-0.735204	0.869207	0.000086
F54	F	-0.896824	0.432987	0.000075
H55	H	-1.297874	-0.151377	0.360989
H56	H	-1.187608	0.003210	0.778293
F57	F	-1.313067	-0.172725	0.658350
F58	F	-0.804194	0.180026	-0.274062
H59	H	-0.955799	0.328350	0.639196
F60	F	-0.907130	0.973810	0.000097
H61	H	-0.339649	0.167706	-0.240816
H62	H	-0.955795	0.328375	0.361005
F63	F	-1.237983	0.778320	0.000104
F64	F	-0.327923	0.167430	0.274206
H65	H	-0.480720	0.171440	-0.373615
F66	F	-1.232833	0.507905	0.000062
H67	H	-0.792460	0.179749	0.240986
H68	H	-0.480759	0.171487	0.373784
H69	H	-1.187625	0.003275	0.221907
F70	F	-0.663148	0.176320	0.407005
