data_functionalizedCrystal
_audit_creation_method	'MofGen! by Chris Wilmer'
_symmetry_space_group_name_H-M	'P1'
_symmetry_Int_Tables_number	1
_symmetry_cell_setting	triclinic
loop_
_symmetry_equiv_pos_as_xyz
  x,y,z
_cell_length_a	12.811445
_cell_length_b	12.837942
_cell_length_c	9.130313
_cell_angle_alpha	89.996012
_cell_angle_beta	84.565059
_cell_angle_gamma	89.412982
loop_
_atom_site_label
_atom_site_type_symbol
_atom_site_fract_x
_atom_site_fract_y
_atom_site_fract_z
O1	O	1.406645	0.139718	-0.308625
O2	O	1.102579	0.154899	-0.268243
O3	O	1.247870	-0.003624	-0.287529
O4	O	1.261354	0.298240	-0.289338
O5	O	1.247858	-0.003628	-0.043929
O6	O	1.102568	0.154895	-0.024642
O7	O	1.406633	0.139713	-0.065024
Cu8	Cu	1.254599	0.147303	-0.022591
Cu9	Cu	1.254613	0.147309	-0.310676
O10	O	1.261343	0.298236	-0.045738
C11	C	1.063384	0.154045	-0.141238
C12	C	0.946611	0.151493	-0.125729
C13	C	0.727193	0.146724	-0.362188
C14	C	0.617474	0.144327	-0.347622
C15	C	0.617454	0.144310	-0.082035
C16	C	0.727172	0.146707	-0.096600
C17	C	0.782038	0.147912	-0.236681
C18	C	0.891759	0.150302	-0.251245
C19	C	0.891736	0.150292	0.014341
C20	C	0.782018	0.147896	0.028906
C21	C	1.243309	-0.042266	-0.165125
C22	C	1.229722	-0.157402	-0.163323
C23	C	1.393052	-0.397652	-0.185045
C24	C	1.380292	-0.505834	-0.183353
C25	C	1.191442	-0.481948	-0.158257
C26	C	1.204202	-0.373767	-0.159949
C27	C	1.305011	-0.331623	-0.173341
C28	C	1.317770	-0.223440	-0.175023
C29	C	1.128921	-0.199556	-0.149938
C30	C	1.116161	-0.307738	-0.148246
C31	C	1.445828	0.140567	-0.192033
C32	C	1.562601	0.143119	-0.207551
C33	C	1.265904	0.336878	-0.168145
C34	C	1.279490	0.452014	-0.169957
N35	N	1.254597	0.147299	0.180032
N36	N	1.254622	0.147305	-0.513300
C37	C	1.318959	0.077135	0.248140
C38	C	1.318969	0.077135	0.401476
C39	C	1.190254	0.217473	0.418582
C40	C	1.190239	0.217467	0.265250
H41	H	0.771865	0.147700	-0.476247
H42	H	1.399854	-0.189129	-0.185922
O43	O	1.381589	0.008940	0.467395
C44	C	1.509212	-0.130295	0.434242
C45	C	1.438363	-0.053100	0.359399
H46	H	1.555115	-0.180490	0.346964
H47	H	1.566216	-0.085312	0.498400
H48	H	1.458691	-0.182283	0.512798
H49	H	1.488800	-0.001093	0.280776
H50	H	1.381353	-0.098148	0.295335
O51	O	1.127589	0.285529	0.501323
C52	C	0.951086	0.345434	0.571661
C53	C	1.021929	0.268284	0.477912
H54	H	0.865647	0.331533	0.552743
H55	H	0.962063	0.333387	0.692980
H56	H	0.973117	0.428558	0.538586
H57	H	0.999942	0.185129	0.510859
H58	H	1.010942	0.280422	0.356615
O59	O	1.127834	0.285775	0.199132
C60	C	1.084277	0.465797	0.158040
C61	C	1.155036	0.388562	0.232970
H62	H	1.106229	0.548917	0.185395
H63	H	1.095326	0.453828	0.033794
H64	H	0.998829	0.451814	0.199546
H65	H	1.240510	0.402498	0.191583
H66	H	1.143896	0.400549	0.357208
H67	H	0.936429	0.151282	-0.365306
H68	H	1.475134	-0.363339	-0.195935
H69	H	0.572823	0.143362	-0.449823
O70	O	1.465895	-0.569869	-0.194923
C71	C	1.623367	-0.623418	-0.342098
C72	C	1.526476	-0.550822	-0.329164
H73	H	1.672362	-0.608059	-0.450638
H74	H	1.672513	-0.608031	-0.246753
H75	H	1.596910	-0.707970	-0.338515
H76	H	1.552840	-0.466244	-0.332787
H77	H	1.477351	-0.566298	-0.424503
O78	O	0.564194	0.143332	0.054064
C79	C	0.527749	0.232301	0.285932
C80	C	0.588104	0.233551	0.131830
H81	H	0.547075	0.305224	0.348861
H82	H	0.439894	0.230457	0.274875
H83	H	0.551653	0.160245	0.348183
H84	H	0.564288	0.305596	0.069494
H85	H	0.675946	0.235341	0.142992
O86	O	0.945131	0.151308	0.136161
C87	C	1.071849	0.064216	0.273510
C88	C	1.011469	0.062958	0.135475
H89	H	1.125481	-0.007218	0.273017
H90	H	1.120940	0.137775	0.273667
H91	H	1.013760	0.062991	0.376100
H92	H	1.069483	0.064145	0.032812
H93	H	0.962362	-0.010595	0.135448
H94	H	0.737331	0.146918	0.142956
H95	H	1.109368	-0.516281	-0.147369
H96	H	1.057232	-0.145783	-0.140396
O97	O	1.018316	-0.348852	-0.135178
C98	C	0.914960	-0.504925	-0.121534
C99	C	1.025830	-0.458505	-0.136313
H100	H	0.920998	-0.593584	-0.122477
H101	H	0.870886	-0.477849	-0.013702
H102	H	0.870910	-0.477694	-0.217596
H103	H	1.069968	-0.485714	-0.040331
H104	H	1.069825	-0.485575	-0.244202
H105	H	1.371362	0.019998	0.178759
