data_functionalizedCrystal
_audit_creation_method	'MofGen! by Chris Wilmer'
_symmetry_space_group_name_H-M	'P1'
_symmetry_Int_Tables_number	1
_symmetry_cell_setting	triclinic
loop_
_symmetry_equiv_pos_as_xyz
  x,y,z
_cell_length_a	12.594516
_cell_length_b	17.077404
_cell_length_c	17.077396
_cell_angle_alpha	89.980499
_cell_angle_beta	90.023145
_cell_angle_gamma	89.983722
loop_
_atom_site_label
_atom_site_type_symbol
_atom_site_fract_x
_atom_site_fract_y
_atom_site_fract_z
Zn1	Zn	-0.423736	-1.200092	0.443872
Zn2	Zn	-0.601736	-1.200015	0.312618
Zn3	Zn	-0.423773	-1.068824	0.312620
Zn4	Zn	-0.601673	-1.068807	0.443842
O5	O	-0.512730	-1.134434	0.378238
O6	O	-0.447359	-1.309929	0.426473
O7	O	-0.578171	-1.182586	0.202771
O8	O	-0.274822	-1.086276	0.330044
O9	O	-0.578135	-1.309872	0.330041
O10	O	-0.274795	-1.182718	0.426474
O11	O	-0.447422	-1.086201	0.202773
O12	O	-0.447361	-0.958975	0.330015
O13	O	-0.578027	-1.086248	0.553693
O14	O	-0.578064	-0.958963	0.426423
O15	O	-0.447297	-1.182702	0.553715
O16	O	-0.750674	-1.182571	0.330012
O17	O	-0.750627	-1.086173	0.426421
C18	C	-0.512710	-0.930487	0.378216
C19	C	-0.512728	-0.843237	0.378226
C20	C	-0.789271	-1.134383	0.378230
C21	C	-0.907576	-1.134433	0.378253
C22	C	-0.512651	-1.134482	0.582982
C23	C	-0.512618	-1.134502	0.670232
C24	C	-0.976843	-1.081997	0.430653
C25	C	-1.047703	-1.062873	0.359026
C26	C	-1.047515	-1.153628	0.449893
C27	C	-0.976878	-1.115271	0.306587
C28	C	-0.976684	-1.206059	0.397503
C29	C	-1.047512	-1.186963	0.325826
C30	C	-0.235109	-1.134507	0.378263
C31	C	-0.116803	-1.134539	0.378273
C32	C	-0.512750	-1.339179	0.378260
C33	C	-0.512758	-1.426428	0.378269
C34	C	-0.580887	-0.802261	0.428345
C35	C	-0.580890	-0.720280	0.428357
C36	C	-0.512737	-0.679277	0.378246
C37	C	-0.444570	-0.720259	0.328125
C38	C	-0.444563	-0.802238	0.328117
C39	C	-0.444591	-0.549389	0.328144
C40	C	-0.444599	-0.467404	0.328150
C41	C	-0.580917	-0.467431	0.428384
C42	C	-0.580910	-0.549410	0.428376
C43	C	-0.512745	-0.590386	0.378253
C44	C	-0.512731	-1.134432	0.174290
C45	C	-0.512465	-1.134564	0.087041
C46	C	-0.444541	-1.184728	0.711235
C47	C	-0.444506	-1.184737	0.793216
C48	C	-0.512553	-1.134524	0.834192
C49	C	-0.580633	-1.084293	0.793183
C50	C	-0.580662	-1.084281	0.711204
C51	C	-0.580569	-1.084325	0.964053
C52	C	-0.580541	-1.084339	1.046038
C53	C	-0.444412	-1.184782	1.046065
C54	C	-0.444442	-1.184769	0.964086
C55	C	-0.512523	-1.134538	0.923083
H56	H	-0.945811	-1.037575	0.474902
C57	C	-1.089179	-1.246925	0.265910
H58	H	-1.064863	-1.233198	0.215073
H59	H	-1.063788	-1.297615	0.279143
H60	H	-1.164604	-1.246938	0.266540
C61	C	-0.655892	-0.422362	0.483523
H62	H	-0.646128	-0.367666	0.476359
H63	H	-0.727386	-0.435778	0.471944
H64	H	-0.640400	-0.435826	0.536285
H65	H	-0.389073	-0.582749	0.287335
C66	C	-0.369623	-0.422302	0.273037
H67	H	-0.329012	-0.458445	0.243194
H68	H	-0.410274	-0.390299	0.238785
H69	H	-0.323306	-0.390344	0.303139
H70	H	-0.945468	-1.266570	0.413803
H71	H	-1.078543	-1.169821	0.510470
H72	H	-0.389074	-0.686868	0.287327
H73	H	-1.078921	-1.002349	0.342760
C74	C	-0.655492	-1.029099	0.918951
H75	H	-0.696033	-0.999209	0.955095
H76	H	-0.614819	-0.994893	0.886954
H77	H	-0.701874	-1.059139	0.886987
H78	H	-0.388976	-1.225680	1.079453
H79	H	-0.389055	-0.835599	0.287309
H80	H	-0.636034	-1.043406	0.826552
C81	C	-0.655855	-0.847357	0.483469
H82	H	-0.696440	-0.811209	0.513325
H83	H	-0.702178	-0.879318	0.453384
H84	H	-0.615187	-0.879357	0.517721
H85	H	-0.635949	-1.043449	1.079398
H86	H	-0.945978	-1.099008	0.245994
H87	H	-0.389132	-1.225619	0.677878
C88	C	-0.655573	-1.029052	0.666100
H89	H	-0.696110	-0.999159	0.702244
H90	H	-0.614887	-0.994850	0.634109
H91	H	-0.701960	-1.059083	0.634131
H92	H	-0.636412	-0.582793	0.469177
H93	H	-0.389073	-1.225638	0.826597
H94	H	-0.636393	-0.686922	0.469169
C95	C	-0.369592	-1.240002	0.919013
H96	H	-0.329034	-1.269914	0.955173
H97	H	-0.410324	-1.274185	0.887034
H98	H	-0.323222	-1.209974	0.887034
