data_functionalizedCrystal
_audit_creation_method	'MofGen! by Chris Wilmer'
_symmetry_space_group_name_H-M	'P1'
_symmetry_Int_Tables_number	1
_symmetry_cell_setting	triclinic
loop_
_symmetry_equiv_pos_as_xyz
  x,y,z
_cell_length_a	11.026607
_cell_length_b	10.723023
_cell_length_c	9.798715
_cell_angle_alpha	89.996770
_cell_angle_beta	89.998891
_cell_angle_gamma	96.526782
loop_
_atom_site_label
_atom_site_type_symbol
_atom_site_fract_x
_atom_site_fract_y
_atom_site_fract_z
O1	O	0.170514	1.693992	-0.113473
O2	O	0.670514	2.193992	0.386527
O3	O	0.186836	1.334362	-0.113478
O4	O	0.686836	1.834362	0.386522
O5	O	0.001774	1.484371	-0.113471
O6	O	0.501774	1.984371	0.386529
O7	O	0.355576	1.543983	-0.113480
O8	O	0.855576	2.043983	0.386520
O9	O	0.001773	1.484357	0.113511
O10	O	0.501773	1.984357	0.613511
O11	O	0.186836	1.334348	0.113504
O12	O	0.686836	1.834348	0.613504
O13	O	0.170513	1.693977	0.113509
O14	O	0.670513	2.193977	0.613509
Zn15	Zn	0.178674	1.514160	0.149545
Zn16	Zn	0.678674	2.014160	0.649545
Zn17	Zn	0.178675	1.514179	-0.149514
Zn18	Zn	0.678675	2.014179	0.350486
O19	O	0.355576	1.543968	0.113502
O20	O	0.855576	2.043968	0.613502
C21	C	0.185649	1.287599	0.000012
C22	C	0.685649	1.787599	0.500012
C23	C	0.182095	1.148278	0.000010
C24	C	0.682095	1.648278	0.500010
C25	C	0.180511	1.086156	0.117593
C26	C	0.680511	1.586156	0.617593
C27	C	0.176838	0.942161	0.117593
C28	C	0.676838	1.442161	0.617593
C29	C	-0.043529	1.473367	0.000018
C30	C	0.456471	1.973367	0.500018
C31	C	-0.178516	1.440583	0.000013
C32	C	0.321484	1.940583	0.500013
C33	C	-0.251568	1.531104	0.000012
C34	C	0.248432	2.031104	0.500012
C35	C	-0.391084	1.497223	0.000007
C36	C	0.108916	1.997223	0.500007
C37	C	0.400878	1.554973	0.000010
C38	C	0.900878	2.054973	0.500010
C39	C	0.535865	1.587756	0.000006
C40	C	1.035865	2.087756	0.500006
C41	C	0.171701	1.740740	0.000016
C42	C	0.671701	2.240740	0.500016
C43	C	0.175254	1.880062	0.000009
C44	C	0.675254	2.380062	0.500009
N45	N	0.178673	1.514156	0.353645
N46	N	0.678673	2.014156	0.853645
N47	N	0.178667	1.514191	-0.353613
N48	N	0.678667	2.014191	0.146387
C49	C	0.100628	1.577067	0.421425
C50	C	0.600628	2.077067	0.921425
C51	C	0.100624	1.577086	0.578587
C52	C	0.600624	2.077086	1.078587
H53	H	0.181866	1.139576	0.218259
H54	H	0.681866	1.639576	0.718259
H55	H	0.175482	0.888738	0.218260
H56	H	0.675482	1.388738	0.718260
O57	O	0.012118	1.648436	0.655796
O58	O	0.512118	2.148436	1.155796
H59	H	0.028195	1.749411	0.628436
H60	H	0.528195	2.249411	1.128436
O61	O	0.180283	1.077546	-0.133353
O62	O	0.680283	1.577546	0.366647
H63	H	0.261484	1.025364	-0.139210
H64	H	0.761484	1.525364	0.360790
O65	O	-0.197605	1.666986	0.000015
O66	O	0.302395	2.166986	0.500015
H67	H	-0.228367	1.714174	-0.092506
H68	H	0.271633	2.214174	0.407494
O69	O	-0.410175	1.723645	0.000005
O70	O	0.089825	2.223645	0.500005
H71	H	-0.440937	1.770830	-0.092518
H72	H	0.059063	2.270830	0.407482
H73	H	-0.431824	1.394636	-0.000004
H74	H	0.068176	1.894636	0.499996
O75	O	-0.232468	1.304697	0.000020
O76	O	0.267532	1.804697	0.500020
H77	H	-0.333583	1.299410	0.000029
H78	H	0.166417	1.799410	0.500029
H79	H	0.033809	1.630909	0.363105
H80	H	0.533809	2.130909	0.863105
O81	O	0.267164	1.442823	0.569187
O82	O	0.767164	1.942823	1.069187
H83	H	0.326504	1.508899	0.504058
H84	H	0.826504	2.008899	1.004058
O85	O	0.177052	0.950816	-0.133344
O86	O	0.677052	1.450816	0.366656
H87	H	0.259137	0.933236	-0.192713
H88	H	0.759137	1.433236	0.307287
O89	O	0.267201	1.442838	0.430871
O90	O	0.767201	1.942838	0.930871
H91	H	0.215622	1.370504	0.495999
H92	H	0.715622	1.870504	0.995999
