data_functionalizedCrystal
_audit_creation_method	'MofGen! by Chris Wilmer'
_symmetry_space_group_name_H-M	'P1'
_symmetry_Int_Tables_number	1
_symmetry_cell_setting	triclinic
loop_
_symmetry_equiv_pos_as_xyz
  x,y,z
_cell_length_a	10.686220
_cell_length_b	18.101395
_cell_length_c	10.686551
_cell_angle_alpha	85.593544
_cell_angle_beta	90.308082
_cell_angle_gamma	94.412841
loop_
_atom_site_label
_atom_site_type_symbol
_atom_site_fract_x
_atom_site_fract_y
_atom_site_fract_z
Zn1	Zn	1.972201	-0.180552	-0.562382
Zn2	Zn	1.955907	-0.314596	-0.352620
Zn3	Zn	1.746310	-0.199497	-0.368699
Zn4	Zn	1.762338	-0.313095	-0.578398
O5	O	1.859189	-0.251935	-0.465525
O6	O	2.145585	-0.191033	-0.521125
O7	O	1.914577	-0.307884	-0.179207
O8	O	1.776386	-0.093345	-0.394418
O9	O	2.133614	-0.289514	-0.367014
O10	O	1.942347	-0.079426	-0.536716
O11	O	1.760587	-0.223322	-0.191020
O12	O	1.572891	-0.221866	-0.409948
O13	O	1.803703	-0.286956	-0.751819
O14	O	1.584666	-0.305327	-0.564013
O15	O	1.957888	-0.189578	-0.740052
O16	O	1.930118	-0.418036	-0.382544
O17	O	1.787904	-0.416933	-0.548422
C18	C	1.533261	-0.265490	-0.490464
C19	C	1.393831	-0.271305	-0.501162
C20	C	1.859018	-0.444354	-0.465501
C21	C	1.859063	-0.526665	-0.465524
C22	C	1.859343	-0.825742	-0.465570
C23	C	1.770109	-0.793732	-0.570159
C24	C	1.769626	-0.708148	-0.569891
C25	C	1.859204	-0.677366	-0.465548
C26	C	1.813255	-0.716429	-0.336079
C27	C	1.812677	-0.802072	-0.336708
C28	C	1.994649	-0.786916	-0.489270
C29	C	1.994091	-0.701157	-0.492229
C30	C	1.859127	-0.593511	-0.465527
C31	C	1.859417	-0.909597	-0.465582
C32	C	2.186389	-0.238328	-0.440489
C33	C	2.325822	-0.232529	-0.429821
C34	C	1.884401	-0.235986	-0.792725
C35	C	1.895145	-0.229190	-0.932159
C36	C	1.859396	-0.058762	-0.465574
C37	C	1.859485	0.023558	-0.465595
C38	C	1.834147	-0.267765	-0.139591
C39	C	1.823646	-0.274343	-0.000140
H40	H	1.345381	-0.308959	-0.570423
C41	C	1.300763	-0.147006	-0.272459
C42	C	1.391208	-0.181706	-0.336310
H43	H	1.341137	-0.115634	-0.214723
H44	H	1.253909	-0.118165	-0.331069
H45	H	1.245915	-0.183689	-0.228263
H46	H	1.446050	-0.145023	-0.380514
H47	H	1.438083	-0.210549	-0.277691
C48	C	2.110699	-0.182322	-0.956499
C49	C	1.988888	-0.169981	-0.997589
H50	H	2.168568	-0.145771	-0.996901
H51	H	2.115523	-0.179271	-0.868249
H52	H	2.130621	-0.230290	-0.976501
H53	H	1.968962	-0.122014	-0.977579
H54	H	1.984059	-0.173024	-1.085859
C55	C	1.759333	-0.404250	-0.964199
C56	C	1.729919	-0.333554	-0.934711
H57	H	1.701475	-0.440804	-0.923791
H58	H	1.754486	-0.407293	-1.052450
H59	H	1.841984	-0.412600	-0.936335
H60	H	1.647271	-0.325201	-0.962584
H61	H	1.734754	-0.330509	-0.846442
C62	C	1.834838	-0.727456	-0.778770
C63	C	1.809994	-0.672022	-0.699923
H64	H	1.859743	-0.705154	-0.859054
H65	H	1.900309	-0.755103	-0.743770
H66	H	1.761300	-0.759697	-0.786974
H67	H	1.883535	-0.639783	-0.691711
H68	H	1.744517	-0.644362	-0.734931
H69	H	1.799836	-0.808581	-0.666812
C70	C	2.053224	-0.701361	-0.275146
C71	C	2.089697	-0.672295	-0.395795
H72	H	2.112249	-0.683546	-0.215607
H73	H	1.972645	-0.686173	-0.256771
H74	H	2.050065	-0.754077	-0.271235
H75	H	2.092847	-0.619578	-0.399708
H76	H	2.170298	-0.687478	-0.414175
H77	H	1.670643	-0.820464	-0.555499
H78	H	1.715034	-0.700458	-0.314229
H79	H	1.669540	-0.692909	-0.554993
H80	H	1.713467	-0.827546	-0.315451
C81	C	1.848501	-0.812552	-0.114270
C82	C	1.895852	-0.831187	-0.228668
H83	H	1.899842	-0.830534	-0.047575
H84	H	1.848309	-0.760074	-0.114609
H85	H	1.765241	-0.834423	-0.103036
H86	H	1.979109	-0.809311	-0.239907
H87	H	1.896057	-0.883675	-0.228330
H88	H	2.034561	-0.802503	-0.581535
C89	C	2.064645	-0.721850	-0.698680
C90	C	2.040574	-0.665787	-0.620816
H91	H	2.093314	-0.700015	-0.778076
H92	H	2.127148	-0.750989	-0.661394
H93	H	1.989787	-0.752560	-0.709394
H94	H	2.115434	-0.635080	-0.610094
H95	H	1.978067	-0.636635	-0.658110
H96	H	1.875757	-0.696831	-0.256471
H97	H	2.061256	-0.807605	-0.412970
