data_functionalizedCrystal
_audit_creation_method	'MofGen! by Chris Wilmer'
_symmetry_space_group_name_H-M	'P1'
_symmetry_Int_Tables_number	1
_symmetry_cell_setting	triclinic
loop_
_symmetry_equiv_pos_as_xyz
  x,y,z
_cell_length_a	29.917948
_cell_length_b	29.917021
_cell_length_c	29.913391
_cell_angle_alpha	60.005297
_cell_angle_beta	60.010472
_cell_angle_gamma	59.993667
loop_
_atom_site_label
_atom_site_type_symbol
_atom_site_fract_x
_atom_site_fract_y
_atom_site_fract_z
O1	O	0.061938	-0.653075	0.546110
O2	O	0.561938	-0.153075	1.046110
O3	O	0.023328	-0.508466	0.440017
O4	O	0.523328	-0.008466	0.940017
O5	O	0.114898	-0.599963	0.439941
O6	O	0.614898	-0.099963	0.939941
O7	O	-0.029633	-0.561578	0.546186
O8	O	0.470367	-0.061578	1.046186
O9	O	0.145278	-0.569587	0.470242
O10	O	0.645278	-0.069587	0.970242
O11	O	0.053708	-0.478090	0.470318
O12	O	0.553708	0.021910	0.970318
O13	O	0.092318	-0.622699	0.576411
O14	O	0.592318	-0.122699	1.076411
Zn15	Zn	0.077836	-0.545572	0.528175
Zn16	Zn	0.577836	-0.045572	1.028175
Zn17	Zn	0.037809	-0.585593	0.488253
Zn18	Zn	0.537809	-0.085593	0.988253
O19	O	0.000747	-0.531202	0.576487
O20	O	0.500747	-0.031202	1.076487
N21	N	0.105154	-0.518262	0.555424
N22	N	0.605154	-0.018262	1.055424
N23	N	0.010496	-0.612908	0.461004
N24	N	0.510496	-0.112908	0.961004
C25	C	0.164136	-0.309209	0.614352
C26	C	0.664136	0.190791	1.114352
C27	C	0.164251	-0.459335	0.764424
C28	C	0.664251	0.040665	1.264424
C29	C	0.164150	-0.459313	0.614341
C30	C	0.664150	0.040687	1.114341
C31	C	0.314282	-0.459305	0.614278
C32	C	0.814282	0.040695	1.114278
C33	C	0.180666	-0.358742	0.630849
C34	C	0.680666	0.141258	1.130849
C35	C	0.180732	-0.442815	0.714891
C36	C	0.680732	0.057185	1.214891
C37	C	0.264747	-0.442797	0.630809
C38	C	0.764747	0.057203	1.130809
C39	C	0.180676	-0.442802	0.630843
C40	C	0.680676	0.057198	1.130843
C41	C	0.143097	-0.246161	0.593354
C42	C	0.643097	0.253839	1.093354
C43	C	0.143120	-0.480326	0.593337
C44	C	0.643120	0.019674	1.093337
C45	C	0.201706	-0.421790	0.651848
C46	C	0.701706	0.078210	1.151848
C47	C	0.405963	-0.443499	0.565998
C48	C	0.905963	0.056501	1.065998
C49	C	0.463273	-0.462598	0.546874
C50	C	0.963273	0.037402	1.046874
C51	C	0.463297	-0.555329	0.582235
C52	C	0.963297	-0.055329	1.082235
C53	C	0.405988	-0.536228	0.601360
C54	C	0.905988	-0.036228	1.101360
C55	C	0.156905	-0.217495	0.537012
C56	C	0.656905	0.282505	1.037012
C57	C	0.137776	-0.160180	0.517926
C58	C	0.637776	0.339820	1.017926
C59	C	0.091035	-0.160201	0.611524
C60	C	0.591035	0.339799	1.111524
C61	C	0.110164	-0.217516	0.630611
C62	C	0.610164	0.282484	1.130611
C63	C	0.086772	-0.466488	0.607209
C64	C	0.586772	0.033512	1.107209
C65	C	0.067659	-0.485590	0.588108
C66	C	0.567659	0.014410	1.088108
C67	C	0.161236	-0.532368	0.541277
C68	C	0.661236	-0.032368	1.041277
C69	C	0.180352	-0.513266	0.560371
C70	C	0.680352	-0.013266	1.060371
C71	C	0.086942	-0.466529	0.856152
C72	C	0.586942	0.033471	1.356152
C73	C	0.067877	-0.485647	0.913465
C74	C	0.567877	0.014353	1.413465
C75	C	0.161489	-0.532436	0.913415
C76	C	0.661489	-0.032436	1.413415
C77	C	0.180552	-0.513318	0.856101
C78	C	0.680552	-0.013318	1.356101
C79	C	0.143277	-0.480363	0.827471
C80	C	0.643277	0.019637	1.327471
C81	C	0.377323	-0.480313	0.593239
C82	C	0.877323	0.019687	1.093239
C83	C	-0.111377	-0.650681	0.422736
C84	C	0.388623	-0.150681	0.922736
C85	C	-0.027364	-0.650787	0.422929
C86	C	0.472636	-0.150787	0.922929
C87	C	-0.048335	-0.671770	0.401835
C88	C	0.451665	-0.171770	0.901835
C89	C	-0.064214	-0.763416	0.450041
C90	C	0.435786	-0.263416	0.950041
C91	C	-0.045160	-0.820731	0.469172
C92	C	0.454840	-0.320731	0.969172
C93	C	0.047573	-0.820841	0.433980
C94	C	0.547573	-0.320841	0.933980
C95	C	0.028517	-0.763527	0.414847
C96	C	0.528517	-0.263527	0.914847
C97	C	-0.140115	-0.664483	0.479060
C98	C	0.359885	-0.164483	0.979060
C99	C	-0.197425	-0.645309	0.498058
C100	C	0.302575	-0.145309	0.998058
C101	C	-0.197256	-0.598535	0.404405
C102	C	0.302744	-0.098535	0.904405
C103	C	-0.139946	-0.617709	0.385407
C104	C	0.360054	-0.117709	0.885407
C105	C	-0.041168	-0.594444	0.409067
C106	C	0.458832	-0.094444	0.909067
C107	C	-0.022104	-0.575374	0.428250
C108	C	0.477896	-0.075374	0.928250
C109	C	0.024568	-0.668986	0.475143
C110	C	0.524568	-0.168986	0.975143
C111	C	0.005504	-0.688059	0.455967
C112	C	0.505504	-0.188059	0.955967
C113	C	-0.041000	-0.594453	0.310105
C114	C	0.459000	-0.094453	0.810105
C115	C	-0.021803	-0.575386	0.252792
C116	C	0.478197	-0.075386	0.752792
C117	C	0.024951	-0.669004	0.252854
C118	C	0.524951	-0.169004	0.752854
C119	C	0.005755	-0.688070	0.310168
C120	C	0.505755	-0.188070	0.810168
C121	C	-0.027222	-0.650793	0.338792
C122	C	0.472778	-0.150793	0.838792
C123	C	-0.027377	-0.734817	0.422881
C124	C	0.472623	-0.234817	0.922881
N125	N	0.491125	-0.518235	0.555255
N126	N	0.991125	-0.018235	1.055255
O127	O	0.678406	-0.527360	0.420422
O128	O	1.178406	-0.027360	0.920422
O129	O	0.678588	-0.633782	0.564887
O130	O	1.178588	-0.133782	1.064887
O131	O	0.678516	-0.633539	0.473265
O132	O	1.178516	-0.133539	0.973265
O133	O	0.678478	-0.527602	0.512044
O134	O	1.178478	-0.027602	1.012044
O135	O	0.587469	-0.603251	0.503685
O136	O	1.087469	-0.103251	1.003685
O137	O	0.587541	-0.603493	0.595307
O138	O	1.087541	-0.103493	1.095307
O139	O	0.587359	-0.497071	0.450842
O140	O	1.087359	0.002929	0.950842
Zn141	Zn	0.572994	-0.545473	0.527905
Zn142	Zn	1.072994	-0.045473	1.027905
Zn143	Zn	0.692953	-0.585380	0.487825
Zn144	Zn	1.192953	-0.085380	0.987825
O145	O	0.587431	-0.497313	0.542465
O146	O	1.087431	0.002687	1.042465
N147	N	0.774821	-0.612618	0.460470
N148	N	1.274821	-0.112618	0.960470
N149	N	0.105125	-0.132348	0.555445
N150	N	0.605125	0.367652	1.055445
O151	O	-0.029633	0.055031	0.546198
O152	O	0.470367	0.555031	1.046198
O153	O	0.114837	0.055047	0.439777
O154	O	0.614837	0.555047	0.939777
O155	O	0.023189	0.055024	0.440050
O156	O	0.523189	0.555024	0.940050
O157	O	0.062016	0.055054	0.545925
O158	O	0.562016	0.555054	1.045925
O159	O	0.053572	-0.036031	0.470398
O160	O	0.553572	0.463969	0.970398
O161	O	0.145220	-0.036008	0.470125
O162	O	0.645220	0.463992	0.970125
O163	O	0.000750	-0.036024	0.576546
O164	O	0.500750	0.463976	1.076546
Zn165	Zn	0.077809	-0.050473	0.528154
Zn166	Zn	0.577809	0.449527	1.028154
Zn167	Zn	0.037778	0.069496	0.488169
Zn168	Zn	0.537778	0.569496	0.988169
O169	O	0.092399	-0.036001	0.576273
O170	O	0.592399	0.463999	1.076273
N171	N	0.010456	0.151371	0.460879
N172	N	0.510456	0.651371	0.960879
N173	N	0.105414	-0.518315	0.941279
N174	N	0.605414	-0.018315	1.441279
O175	O	0.096182	-0.653057	1.128644
O176	O	0.596182	-0.153057	1.628644
O177	O	-0.010215	-0.508539	1.128670
O178	O	0.489785	-0.008539	1.628670
O179	O	-0.009968	-0.600172	1.128636
O180	O	0.490032	-0.100172	1.628636
O181	O	0.095935	-0.561424	1.128678
O182	O	0.595935	-0.061424	1.628678
O183	O	0.020367	-0.569808	1.037586
O184	O	0.520367	-0.069808	1.537586
O185	O	0.020121	-0.478175	1.037620
O186	O	0.520121	0.021825	1.537620
O187	O	0.126517	-0.622693	1.037594
O188	O	0.626517	-0.122693	1.537594
Zn189	Zn	0.078135	-0.545613	1.023151
Zn190	Zn	0.578135	-0.045613	1.523151
Zn191	Zn	0.038167	-0.585619	1.143113
Zn192	Zn	0.538167	-0.085619	1.643113
O193	O	0.126270	-0.531061	1.037628
O194	O	0.626270	-0.031061	1.537628
N195	N	0.010887	-0.612923	1.224985
N196	N	0.510887	-0.112923	1.724985
C197	C	0.034899	-0.475056	0.440551
C198	C	0.534899	0.024944	0.940551
C199	C	0.148298	-0.588365	0.440456
C200	C	0.648298	-0.088365	0.940456
C201	C	0.080746	-0.656109	0.575876
C202	C	0.580746	-0.156109	1.075876
C203	C	-0.032653	-0.542801	0.575971
C204	C	0.467347	-0.042801	1.075971
C205	C	0.633086	-0.633292	0.598298
C206	C	1.133086	-0.133292	1.098298
C207	C	0.632998	-0.632993	0.484834
C208	C	1.132998	-0.132993	0.984834
C209	C	0.632857	-0.497559	0.417433
C210	C	1.132857	0.002441	0.917433
C211	C	0.632949	-0.497860	0.530895
C212	C	1.132949	0.002140	1.030895
C213	C	0.148191	0.009634	0.440259
C214	C	0.648191	0.509634	0.940259
C215	C	0.034733	0.009493	0.440634
C216	C	0.534733	0.509493	0.940634
C217	C	-0.032641	0.009502	0.576027
C218	C	0.467359	0.509502	1.076027
C219	C	0.080854	0.009529	0.575690
C220	C	0.580854	0.509529	1.075690
C221	C	-0.009699	-0.475150	1.083148
C222	C	0.490301	0.024850	1.583148
C223	C	-0.009388	-0.588620	1.083088
C224	C	0.490612	-0.088620	1.583088
C225	C	0.126001	-0.656082	1.083116
C226	C	0.626001	-0.156082	1.583116
C227	C	0.125697	-0.542605	1.083155
C228	C	0.625697	-0.042605	1.583155
H229	H	0.056584	-0.439691	0.832846
H230	H	0.556584	0.060309	1.332846
H231	H	0.026418	0.009490	0.407371
H232	H	0.526418	0.509490	0.907371
H233	H	0.158967	-0.534314	1.083161
H234	H	0.658967	-0.034314	1.583161
H235	H	0.632798	-0.464146	0.375944
H236	H	1.132798	0.035854	0.875944
H237	H	-0.074166	-0.534620	0.609333
H238	H	0.425834	-0.034620	1.109333
O239	O	0.632990	-0.672629	0.474856
O240	O	1.132990	-0.172629	0.974856
C241	C	0.632986	-0.697685	0.409809
C242	C	1.132986	-0.197685	0.909809
C243	C	0.632983	-0.652745	0.421041
C244	C	1.132983	-0.152745	0.921041
H245	H	0.632992	-0.681629	0.366297
H246	H	1.132992	-0.181629	0.866297
H247	H	0.594902	-0.709677	0.440103
H248	H	1.094902	-0.209677	0.940103
H249	H	0.671109	-0.735037	0.414706
H250	H	1.171109	-0.235037	0.914706
H251	H	0.594886	-0.615363	0.416137
H252	H	1.094886	-0.115363	0.916137
H253	H	0.671092	-0.640799	0.390749
H254	H	1.171092	-0.140799	0.890749
H255	H	0.089168	0.009538	0.608950
H256	H	0.589168	0.509538	1.108950
H257	H	0.632941	-0.464583	0.539193
H258	H	1.132941	0.035417	1.039193
O259	O	-0.049133	-0.598406	1.083052
O260	O	0.450867	-0.098406	1.583052
C261	C	-0.141340	-0.562539	1.082939
C262	C	0.358660	-0.062539	1.582939
C263	C	-0.096382	-0.551388	1.082992
C264	C	0.403618	-0.051388	1.582992
H265	H	-0.179547	-0.524530	1.082879
H266	H	0.320453	-0.024530	1.582879
H267	H	-0.151621	-0.598356	1.121032
H268	H	0.348379	-0.098356	1.621032
H269	H	-0.126116	-0.572980	1.044823
H270	H	0.373884	-0.072980	1.544823
H271	H	-0.111568	-0.540924	1.121082
H272	H	0.388432	-0.040924	1.621082
H273	H	-0.086107	-0.515587	1.044874
H274	H	0.413893	-0.015587	1.544874
H275	H	0.022003	-0.474373	0.936811
H276	H	0.522003	0.025627	1.436811
O277	O	-0.082179	0.009531	0.615816
O278	O	0.417821	0.509531	1.115816
C279	C	-0.172362	0.009501	0.641294
C280	C	0.327638	0.509501	1.141294
C281	C	-0.116288	0.009475	0.596184
C282	C	0.383712	0.509475	1.096184
H283	H	-0.199950	0.009444	0.625442
H284	H	0.300050	0.509444	1.125442
H285	H	-0.192050	0.047624	0.653217
H286	H	0.307950	0.547624	1.153217
H287	H	-0.166580	-0.028589	0.678640
H288	H	0.333420	0.471411	1.178640
H289	H	-0.122022	0.047539	0.558809
H290	H	0.377978	0.547539	1.058809
H291	H	-0.096618	-0.028673	0.584307
H292	H	0.403382	0.471327	1.084307
O293	O	0.197772	-0.564459	0.941142
O294	O	0.697772	-0.064459	1.441142
C295	C	0.292634	-0.608828	0.935044
C296	C	0.792634	-0.108828	1.435044
C297	C	0.251605	-0.572561	0.903575
C298	C	0.751605	-0.072561	1.403575
H299	H	0.336167	-0.615380	0.904685
H300	H	0.836167	-0.115380	1.404685
H301	H	0.286091	-0.650080	0.961852
H302	H	0.786091	-0.150080	1.461852
H303	H	0.286015	-0.587839	0.961897
H304	H	0.786015	-0.087839	1.461897
H305	H	0.258200	-0.593501	0.876693
H306	H	0.758200	-0.093501	1.376693
H307	H	0.258159	-0.531310	0.876801
H308	H	0.758159	-0.031310	1.376801
O309	O	0.025162	-0.425524	0.400744
O310	O	0.525162	0.074476	0.900744
C311	C	0.061054	-0.369248	0.308455
C312	C	0.561054	0.130752	0.808455
C313	C	0.072159	-0.425362	0.353492
C314	C	0.572159	0.074638	0.853492
H315	H	0.099039	-0.369102	0.270237
H316	H	0.599039	0.130898	0.770237
H317	H	0.050679	-0.335832	0.323533
H318	H	0.550679	0.164168	0.823533
H319	H	0.025202	-0.361278	0.298242
H320	H	0.525202	0.138722	0.798242
H321	H	0.108017	-0.433384	0.363725
H322	H	0.608017	0.066616	0.863725
H323	H	0.082502	-0.458747	0.338390
H324	H	0.582502	0.041253	0.838390
O325	O	0.197857	-0.598204	0.400719
O326	O	0.697857	-0.098204	0.900719
C327	C	0.287997	-0.663084	0.375392
C328	C	0.787997	-0.163084	0.875392
C329	C	0.231901	-0.652010	0.420447
C330	C	0.731901	-0.152010	0.920447
H331	H	0.315533	-0.706589	0.391322
H332	H	0.815533	-0.206589	0.891322
H333	H	0.307731	-0.632755	0.363422
H334	H	0.807731	-0.132755	0.863422
H335	H	0.282240	-0.658114	0.338059
H336	H	0.782240	-0.158114	0.838059
H337	H	0.237610	-0.656987	0.457811
H338	H	0.737610	-0.156987	0.957811
H339	H	0.212186	-0.682336	0.432371
H340	H	0.712186	-0.182336	0.932371
O341	O	0.197606	0.009968	0.400350
O342	O	0.697606	0.509968	0.900350
C343	C	0.287653	0.010402	0.374737
C344	C	0.787653	0.510402	0.874737
C345	C	0.231711	0.010036	0.419978
C346	C	0.731711	0.510036	0.919978
H347	H	0.315247	0.010446	0.390594
H348	H	0.815247	0.510446	0.890594
H349	H	0.281699	0.048599	0.337520
H350	H	0.781699	0.548599	0.837520
H351	H	0.307442	-0.027612	0.362615
H352	H	0.807442	0.472388	0.862615
H353	H	0.211893	0.048024	0.432146
H354	H	0.711893	0.548024	0.932146
H355	H	0.237702	-0.028186	0.457165
H356	H	0.737702	0.471814	0.957165
H357	H	0.088995	-0.697649	0.609197
H358	H	0.588995	-0.197649	1.109197
H359	H	0.633132	-0.666701	0.639790
H360	H	1.133132	-0.166701	1.139790
O361	O	-0.049500	-0.425613	1.083180
O362	O	0.450500	0.074387	1.583180
C363	C	-0.074941	-0.335413	1.083172
C364	C	0.425059	0.164587	1.583172
C365	C	-0.029824	-0.391492	1.083149
C366	C	0.470176	0.108508	1.583149
H367	H	-0.059045	-0.307807	1.083135
H368	H	0.440955	0.192193	1.583135
H369	H	-0.112276	-0.341129	1.121282
H370	H	0.387724	0.158871	1.621282
H371	H	-0.086892	-0.315773	1.045073
H372	H	0.413108	0.184227	1.545073
H373	H	-0.017826	-0.411162	1.121222
H374	H	0.482174	0.088838	1.621222
H375	H	0.007482	-0.385740	1.045014
H376	H	0.507482	0.114260	1.545014
O377	O	0.165787	-0.705634	1.083129
O378	O	0.665787	-0.205634	1.583129
C379	C	0.191253	-0.795809	1.083061
C380	C	0.691253	-0.295809	1.583061
C381	C	0.146144	-0.739722	1.083061
C382	C	0.646144	-0.239722	1.583061
H383	H	0.175393	-0.823381	1.082994
H384	H	0.675393	-0.323381	1.582994
H385	H	0.203195	-0.815516	1.121177
H386	H	0.703195	-0.315516	1.621177
H387	H	0.228587	-0.790037	1.044968
H388	H	0.728587	-0.290037	1.544968
H389	H	0.108781	-0.745446	1.121128
H390	H	0.608781	-0.245446	1.621128
H391	H	0.134249	-0.720034	1.044919
H392	H	0.634249	-0.220034	1.544919
H393	H	0.226428	-0.524588	0.832752
H394	H	0.726428	-0.024588	1.332752
H395	H	0.056452	-0.439666	0.634048
H396	H	0.556452	0.060334	1.134048
O397	O	0.101886	-0.848712	0.426083
O398	O	0.601886	-0.348712	0.926083
C399	C	0.193076	-0.866332	0.360659
C400	C	0.693076	-0.366332	0.860659
C401	C	0.131583	-0.834746	0.369526
C402	C	0.631583	-0.334746	0.869526
H403	H	0.217105	-0.855044	0.314936
H404	H	0.717105	-0.355044	0.814936
H405	H	0.200402	-0.912216	0.378959
H406	H	0.700402	-0.412216	0.878959
H407	H	0.207249	-0.855093	0.381528
H408	H	0.707249	-0.355093	0.881528
H409	H	0.117368	-0.845940	0.348658
H410	H	0.617368	-0.345940	0.848658
H411	H	0.124292	-0.788870	0.351240
H412	H	0.624292	-0.288870	0.851240
O413	O	0.012904	-0.472124	0.601655
O414	O	0.512904	0.027876	1.101655
C415	C	-0.077899	-0.423701	0.650110
C416	C	0.422101	0.076299	1.150110
C417	C	-0.015907	-0.438918	0.634818
C418	C	0.484093	0.061082	1.134818
H419	H	-0.101211	-0.396843	0.676915
H420	H	0.398789	0.103157	1.176915
H421	H	-0.089186	-0.462583	0.673471
H422	H	0.410814	0.037417	1.173471
H423	H	-0.089194	-0.400381	0.611225
H424	H	0.410806	0.099619	1.111225
H425	H	-0.004567	-0.462225	0.673674
H426	H	0.495433	0.037775	1.173674
H427	H	-0.004653	-0.400016	0.611435
H428	H	0.495347	0.099984	1.111435
H429	H	0.226235	-0.524529	0.549071
H430	H	0.726235	-0.024529	1.049071
O431	O	0.197481	-0.564346	0.509242
O432	O	0.697481	-0.064346	1.009242
C433	C	0.292318	-0.608759	0.464837
C434	C	0.792318	-0.108759	0.964837
C435	C	0.251334	-0.572532	0.501110
C436	C	0.751334	-0.072532	1.001110
H437	H	0.335866	-0.615398	0.458260
H438	H	0.835866	-0.115398	0.958260
H439	H	0.285727	-0.587759	0.423599
H440	H	0.785727	-0.087759	0.923599
H441	H	0.285696	-0.649973	0.485834
H442	H	0.785696	-0.149973	0.985834
H443	H	0.257931	-0.531312	0.480161
H444	H	0.757931	-0.031312	0.980161
H445	H	0.257935	-0.593575	0.542346
H446	H	0.757935	-0.093575	1.042346
H447	H	0.486634	-0.600858	0.588843
H448	H	0.986634	-0.100858	1.088843
O449	O	0.378254	-0.572063	0.627791
O450	O	0.878254	-0.072063	1.127791
C451	C	0.384334	-0.666061	0.660871
C452	C	0.884334	-0.166061	1.160871
C453	C	0.415811	-0.625535	0.630919
C454	C	0.915811	-0.125535	1.130919
H455	H	0.414686	-0.709304	0.663420
H456	H	0.914686	-0.209304	1.163420
H457	H	0.357497	-0.654600	0.637453
H458	H	0.857497	-0.154600	1.137453
H459	H	0.357511	-0.664283	0.703953
H460	H	0.857511	-0.164283	1.203953
H461	H	0.442664	-0.627293	0.587836
H462	H	0.942664	-0.127293	1.087836
H463	H	0.442613	-0.637010	0.654379
H464	H	0.942613	-0.137010	1.154379
H465	H	0.486593	-0.432619	0.524694
H466	H	0.986593	0.067381	1.024694
H467	H	0.382624	-0.397967	0.559385
H468	H	0.882624	0.102033	1.059385
H469	H	0.183721	-0.240813	0.506671
H470	H	0.683721	0.259187	1.006671
H471	H	0.149018	-0.136838	0.472047
H472	H	0.649018	0.363162	0.972047
O473	O	-0.118485	-0.735461	0.457739
O474	O	0.381515	-0.235461	0.957739
C475	C	-0.187707	-0.670714	0.415343
C476	C	0.312293	-0.170714	0.915343
C477	C	-0.126229	-0.702334	0.406553
C478	C	0.373771	-0.202334	0.906553
H479	H	-0.193989	-0.643932	0.373966
H480	H	0.306011	-0.143932	0.873966
H481	H	-0.203889	-0.643830	0.440511
H482	H	0.296111	-0.143830	0.940511
H483	H	-0.210761	-0.701005	0.438064
H484	H	0.289239	-0.201005	0.938064
H485	H	-0.103130	-0.672083	0.383817
H486	H	0.396870	-0.172083	0.883817
H487	H	-0.110089	-0.729226	0.381407
H488	H	0.389911	-0.229226	0.881407
O489	O	0.059035	-0.132457	0.647789
O490	O	0.559035	0.367543	1.147789
C491	C	0.014733	-0.138528	0.742643
C492	C	0.514733	0.361472	1.242643
C493	C	0.050967	-0.170013	0.701633
C494	C	0.550967	0.329987	1.201633
H495	H	0.008208	-0.168878	0.786184
H496	H	0.508208	0.331122	1.286184
H497	H	-0.026530	-0.111716	0.736107
H498	H	0.473470	0.388284	1.236107
H499	H	0.035729	-0.111675	0.735994
H500	H	0.535729	0.388325	1.235994
H501	H	0.030019	-0.196896	0.708257
H502	H	0.530019	0.303104	1.208257
H503	H	0.092228	-0.196791	0.708179
H504	H	0.592228	0.303209	1.208179
H505	H	-0.033030	-0.529506	0.229442
H506	H	0.466970	-0.029506	0.729442
O507	O	0.096863	-0.245406	0.685332
O508	O	0.596863	0.254594	1.185332
C509	C	0.129887	-0.310049	0.761178
C510	C	0.629887	0.189951	1.261178
C511	C	0.145020	-0.278516	0.699193
C512	C	0.645020	0.221484	1.199193
H513	H	0.168812	-0.336817	0.772406
H514	H	0.668812	0.163183	1.272406
H515	H	0.106583	-0.336938	0.772530
H516	H	0.606583	0.163062	1.272530
H517	H	0.103053	-0.279701	0.784493
H518	H	0.603053	0.220299	1.284493
H519	H	0.171871	-0.308825	0.675835
H520	H	0.671871	0.191175	1.175835
H521	H	0.168295	-0.251618	0.687884
H522	H	0.668295	0.248382	1.187884
H523	H	-0.067855	-0.564093	0.333408
H524	H	0.432145	-0.064093	0.833408
H525	H	0.016979	-0.733950	0.333522
H526	H	0.516979	-0.233950	0.833522
O527	O	0.056912	-0.705270	0.225113
O528	O	0.556912	-0.205270	0.725113
C529	C	0.064225	-0.779381	0.207527
C530	C	0.564225	-0.279381	0.707527
C531	C	0.027976	-0.738347	0.238985
C532	C	0.527976	-0.238347	0.738985
H533	H	0.040841	-0.806127	0.218721
H534	H	0.540841	-0.306127	0.718721
H535	H	0.103065	-0.806295	0.218895
H536	H	0.603065	-0.306295	0.718895
H537	H	0.075595	-0.756070	0.161639
H538	H	0.575595	-0.256070	0.661639
H539	H	0.016564	-0.761614	0.284880
H540	H	0.516564	-0.261614	0.784880
H541	H	-0.010839	-0.711434	0.227572
H542	H	0.489161	-0.211434	0.727572
O543	O	-0.073176	-0.558214	0.377061
O544	O	0.426824	-0.058214	0.877061
C545	C	-0.157446	-0.483964	0.369572
C546	C	0.342554	0.016036	0.869572
C547	C	-0.121256	-0.524974	0.405882
C548	C	0.378744	-0.024974	0.905882
H549	H	-0.196321	-0.457071	0.392855
H550	H	0.303679	0.042929	0.892855
H551	H	-0.168749	-0.507240	0.358251
H552	H	0.331251	-0.007240	0.858251
H553	H	-0.134036	-0.457193	0.330707
H554	H	0.365964	0.042807	0.830707
H555	H	-0.144633	-0.551755	0.444770
H556	H	0.355367	-0.051755	0.944770
H557	H	-0.109951	-0.501665	0.417159
H558	H	0.390049	-0.001665	0.917159
O559	O	-0.035406	-0.520655	0.414765
O560	O	0.464594	-0.020655	0.914765
C561	C	-0.002386	-0.444856	0.370718
C562	C	0.497614	0.055144	0.870718
C563	C	0.012752	-0.506830	0.385965
C564	C	0.512752	-0.006830	0.885965
H565	H	0.036540	-0.433657	0.347421
H566	H	0.536540	0.066343	0.847421
H567	H	-0.025743	-0.433526	0.409582
H568	H	0.474257	0.066474	0.909582
H569	H	-0.029170	-0.421495	0.343830
H570	H	0.470830	0.078505	0.843830
H571	H	0.039553	-0.530233	0.412839
H572	H	0.539553	-0.030233	0.912839
H573	H	0.036082	-0.518118	0.347079
H574	H	0.536082	-0.018118	0.847079
O575	O	0.056472	-0.705267	0.507245
O576	O	0.556472	-0.205267	1.007245
C577	C	0.100781	-0.800135	0.551702
C578	C	0.600781	-0.300135	1.051702
C579	C	0.064635	-0.759106	0.515350
C580	C	0.564635	-0.259106	1.015350
H581	H	0.107402	-0.843673	0.558257
H582	H	0.607402	-0.343673	1.058257
H583	H	0.079731	-0.793550	0.592945
H584	H	0.579731	-0.293550	1.092945
H585	H	0.142005	-0.793554	0.530782
H586	H	0.642005	-0.293554	1.030782
H587	H	0.023405	-0.765663	0.536222
H588	H	0.523405	-0.265663	1.036222
H589	H	0.085728	-0.765702	0.474109
H590	H	0.585728	-0.265702	0.974109
H591	H	0.058518	-0.740243	0.392731
H592	H	0.558518	-0.240243	0.892731
O593	O	-0.081016	-0.848427	0.495530
O594	O	0.418984	-0.348427	0.995530
C595	C	-0.148426	-0.865868	0.490382
C596	C	0.351574	-0.365868	0.990382
C597	C	-0.107828	-0.834475	0.460442
C598	C	0.392172	-0.334475	0.960442
H599	H	-0.170105	-0.854608	0.462022
H600	H	0.329895	-0.354608	0.962022
H601	H	-0.179960	-0.854505	0.528550
H602	H	0.320040	-0.354505	1.028550
H603	H	-0.125234	-0.911769	0.502729
H604	H	0.374766	-0.411769	1.002729
H605	H	-0.130973	-0.788567	0.448057
H606	H	0.369027	-0.288567	0.948057
H607	H	-0.076295	-0.845883	0.422298
H608	H	0.423705	-0.345883	0.922298
O609	O	-0.112447	-0.696485	0.515393
O610	O	0.387553	-0.196485	1.015393
C611	C	-0.118664	-0.740876	0.610291
C612	C	0.381336	-0.240876	1.110291
C613	C	-0.150065	-0.704619	0.569202
C614	C	0.349935	-0.204619	1.069202
H615	H	-0.149064	-0.747473	0.653804
H616	H	0.350936	-0.247473	1.153804
H617	H	-0.091844	-0.719927	0.603792
H618	H	0.408156	-0.219927	1.103792
H619	H	-0.091830	-0.782107	0.603689
H620	H	0.408170	-0.282107	1.103689
H621	H	-0.176928	-0.663382	0.575779
H622	H	0.323072	-0.163382	1.075779
H623	H	-0.176850	-0.725611	0.575711
H624	H	0.323150	-0.225611	1.075711
H625	H	-0.220824	-0.656545	0.543924
H626	H	0.279176	-0.156545	1.043924
O627	O	-0.225039	-0.566585	0.368170
O628	O	0.274961	-0.066585	0.868170
C629	C	-0.289692	-0.556275	0.335284
C630	C	0.210308	-0.056275	0.835284
C631	C	-0.258253	-0.592521	0.376340
C632	C	0.241747	-0.092521	0.876340
H633	H	-0.316563	-0.577224	0.341883
H634	H	0.183437	-0.077224	0.841883
H635	H	-0.259336	-0.549718	0.291748
H636	H	0.240664	-0.049718	0.791748
H637	H	-0.316483	-0.515026	0.341853
H638	H	0.183517	-0.015026	0.841853
H639	H	-0.231462	-0.633790	0.369821
H640	H	0.268538	-0.133790	0.869821
H641	H	-0.288639	-0.599032	0.419861
H642	H	0.211361	-0.099032	0.919861
O643	O	-0.112050	-0.604371	0.330686
O644	O	0.387950	-0.104371	0.830686
C645	C	-0.094398	-0.608737	0.244800
C646	C	0.405602	-0.108737	0.744800
C647	C	-0.126014	-0.623888	0.306764
C648	C	0.373986	-0.123888	0.806764
H649	H	-0.105685	-0.624499	0.225439
H650	H	0.394315	-0.124499	0.725439
H651	H	-0.048523	-0.628121	0.237603
H652	H	0.451477	-0.128121	0.737603
H653	H	-0.105608	-0.562333	0.225478
H654	H	0.394392	-0.062333	0.725478
H655	H	-0.114850	-0.670283	0.326127
H656	H	0.385150	-0.170283	0.826127
H657	H	-0.171881	-0.604464	0.313923
H658	H	0.328119	-0.104464	0.813923
H659	H	0.016742	-0.733938	0.467255
H660	H	0.516742	-0.233938	0.967255
