data_functionalizedCrystal
_audit_creation_method	'MofGen! by Chris Wilmer'
_symmetry_space_group_name_H-M	'P1'
_symmetry_Int_Tables_number	1
_symmetry_cell_setting	triclinic
loop_
_symmetry_equiv_pos_as_xyz
  x,y,z
_cell_length_a	18.050591
_cell_length_b	21.295417
_cell_length_c	21.295120
_cell_angle_alpha	89.638316
_cell_angle_beta	89.926922
_cell_angle_gamma	90.026512
loop_
_atom_site_label
_atom_site_type_symbol
_atom_site_fract_x
_atom_site_fract_y
_atom_site_fract_z
Zn1	Zn	1.135664	-0.248635	-0.356024
Zn2	Zn	1.385664	0.001365	-0.106024
Zn3	Zn	1.635664	0.251365	0.143976
Zn4	Zn	1.885664	0.501365	0.393976
Zn5	Zn	1.135457	-0.354512	-0.250746
Zn6	Zn	1.385457	-0.104512	-0.000746
Zn7	Zn	1.635457	0.145488	0.249254
Zn8	Zn	1.885457	0.395488	0.499254
Zn9	Zn	1.011370	-0.249253	-0.250755
Zn10	Zn	1.261370	0.000747	-0.000755
Zn11	Zn	1.511370	0.250747	0.249245
Zn12	Zn	1.761370	0.500747	0.499245
Zn13	Zn	1.011426	-0.353863	-0.355970
Zn14	Zn	1.261426	-0.103863	-0.105970
Zn15	Zn	1.511426	0.146137	0.144030
Zn16	Zn	1.761426	0.396137	0.394030
O17	O	1.073479	-0.301566	-0.303374
O18	O	1.323479	-0.051566	-0.053374
O19	O	1.573479	0.198434	0.196626
O20	O	1.823479	0.448434	0.446626
O21	O	1.239561	-0.262692	-0.342078
O22	O	1.489561	-0.012692	-0.092078
O23	O	1.739561	0.237308	0.157922
O24	O	1.989561	0.487308	0.407922
O25	O	1.118886	-0.341079	-0.162655
O26	O	1.368886	-0.091079	0.087345
O27	O	1.618886	0.158921	0.337345
O28	O	1.868886	0.408921	0.587345
O29	O	1.027921	-0.161081	-0.264745
O30	O	1.277921	0.088919	-0.014745
O31	O	1.527921	0.338919	0.235255
O32	O	1.777921	0.588919	0.485255
O33	O	1.239409	-0.340480	-0.264730
O34	O	1.489409	-0.090480	-0.014730
O35	O	1.739409	0.159520	0.235270
O36	O	1.989409	0.409520	0.485270
O37	O	1.119240	-0.160627	-0.342086
O38	O	1.369240	0.089373	-0.092086
O39	O	1.619240	0.339373	0.157914
O40	O	1.869240	0.589373	0.407914
O41	O	1.027720	-0.263746	-0.162661
O42	O	1.277720	-0.013746	0.087339
O43	O	1.527720	0.236254	0.337339
O44	O	1.777720	0.486254	0.587339
O45	O	0.907453	-0.263117	-0.264693
O46	O	1.157453	-0.013117	-0.014693
O47	O	1.407453	0.236883	0.235307
O48	O	1.657453	0.486883	0.485307
O49	O	1.028017	-0.339375	-0.444070
O50	O	1.278017	-0.089375	-0.194070
O51	O	1.528017	0.160625	0.055930
O52	O	1.778017	0.410625	0.305930
O53	O	0.907494	-0.339974	-0.341994
O54	O	1.157494	-0.089974	-0.091994
O55	O	1.407494	0.160026	0.158006
O56	O	1.657494	0.410026	0.408006
O57	O	1.119294	-0.262064	-0.444109
O58	O	1.369294	-0.012064	-0.194109
O59	O	1.619294	0.237936	0.055891
O60	O	1.869294	0.487936	0.305891
O61	O	1.118940	-0.442515	-0.264678
O62	O	1.368940	-0.192515	-0.014678
O63	O	1.618940	0.057485	0.235322
O64	O	1.868940	0.307485	0.485322
O65	O	1.027816	-0.442039	-0.341986
O66	O	1.277816	-0.192039	-0.091986
O67	O	1.527816	0.057961	0.158014
O68	O	1.777816	0.307961	0.408014
C69	C	0.880527	-0.301542	-0.303339
C70	C	1.130527	-0.051542	-0.053339
C71	C	1.380527	0.198458	0.196661
C72	C	1.630527	0.448458	0.446661
C73	C	0.797981	-0.301548	-0.303339
C74	C	1.047981	-0.051548	-0.053339
C75	C	1.297981	0.198452	0.196661
C76	C	1.547981	0.448452	0.446661
C77	C	0.598487	-0.259704	-0.261399
C78	C	0.848487	-0.009704	-0.011399
C79	C	1.098487	0.240296	0.238601
C80	C	1.348487	0.490296	0.488601
C81	C	0.549048	-0.317209	-0.245903
C82	C	0.799048	-0.067209	0.004097
C83	C	1.049048	0.182791	0.254097
C84	C	1.299048	0.432791	0.504097
C85	C	0.646851	-0.301567	-0.303367
C86	C	0.896851	-0.051567	-0.053367
C87	C	1.146851	0.198433	0.196633
C88	C	1.396851	0.448433	0.446633
C89	C	0.549208	-0.244081	-0.318862
C90	C	0.799208	0.005919	-0.068862
C91	C	1.049208	0.255919	0.181138
C92	C	1.299208	0.505919	0.431138
C93	C	0.500866	-0.301580	-0.303394
C94	C	0.750866	-0.051580	-0.053394
C95	C	1.000866	0.198420	0.196606
C96	C	1.250866	0.448420	0.446606
C97	C	0.598499	-0.359102	-0.287841
C98	C	0.848499	-0.109102	-0.037841
C99	C	1.098499	0.140898	0.212159
C100	C	1.348499	0.390898	0.462159
C101	C	0.598664	-0.285935	-0.360827
C102	C	0.848664	-0.035935	-0.110827
C103	C	1.098664	0.214065	0.139173
C104	C	1.348664	0.464065	0.389173
C105	C	0.549247	-0.343480	-0.345353
C106	C	0.799247	-0.093480	-0.095353
C107	C	1.049247	0.156520	0.154647
C108	C	1.299247	0.406520	0.404647
C109	C	0.730949	-0.301558	-0.303351
C110	C	0.980949	-0.051558	-0.053351
C111	C	1.230949	0.198442	0.196649
C112	C	1.480949	0.448442	0.446649
C113	C	0.416769	-0.301595	-0.303411
C114	C	0.666769	-0.051595	-0.053411
C115	C	0.916769	0.198405	0.196589
C116	C	1.166769	0.448405	0.446589
C117	C	1.073382	-0.465118	-0.303339
C118	C	1.323382	-0.215118	-0.053339
C119	C	1.573382	0.034882	0.196661
C120	C	1.823382	0.284882	0.446661
C121	C	1.073408	-0.535086	-0.303345
C122	C	1.323408	-0.285086	-0.053345
C123	C	1.573408	-0.035086	0.196655
C124	C	1.823408	0.214914	0.446655
C125	C	1.120899	-0.568179	-0.263132
C126	C	1.370899	-0.318179	-0.013132
C127	C	1.620899	-0.068179	0.236868
C128	C	1.870899	0.181821	0.486868
C129	C	1.120934	-0.633922	-0.263146
C130	C	1.370934	-0.383922	-0.013146
C131	C	1.620934	-0.133922	0.236854
C132	C	1.870934	0.116078	0.486854
C133	C	1.073465	-0.666568	-0.303367
C134	C	1.323465	-0.416568	-0.053367
C135	C	1.573465	-0.166568	0.196633
C136	C	1.823465	0.083432	0.446633
C137	C	1.025971	-0.633466	-0.343588
C138	C	1.275971	-0.383466	-0.093588
C139	C	1.525971	-0.133466	0.156412
C140	C	1.775971	0.116534	0.406412
C141	C	1.025942	-0.567725	-0.343577
C142	C	1.275942	-0.317725	-0.093577
C143	C	1.525942	-0.067725	0.156423
C144	C	1.775942	0.182275	0.406423
N145	N	1.008503	-0.769802	-0.308154
N146	N	1.258503	-0.519802	-0.058154
N147	N	1.508503	-0.269802	0.191846
N148	N	1.758503	-0.019802	0.441846
N149	N	1.008532	-0.832254	-0.308161
N150	N	1.258532	-0.582254	-0.058161
N151	N	1.508532	-0.332254	0.191839
N152	N	1.758532	-0.082254	0.441839
C153	C	1.073548	-0.864642	-0.303403
C154	C	1.323548	-0.614642	-0.053403
C155	C	1.573548	-0.364642	0.196597
C156	C	1.823548	-0.114642	0.446597
N157	N	1.138535	-0.832221	-0.298626
N158	N	1.388535	-0.582221	-0.048626
N159	N	1.638535	-0.332221	0.201374
N160	N	1.888535	-0.082221	0.451374
N161	N	1.138506	-0.769763	-0.298616
N162	N	1.388506	-0.519763	-0.048616
N163	N	1.638506	-0.269763	0.201384
N164	N	1.888506	-0.019763	0.451384
C165	C	1.073490	-0.737853	-0.303383
C166	C	1.323490	-0.487853	-0.053383
C167	C	1.573490	-0.237853	0.196617
C168	C	1.823490	0.012147	0.446617
C169	C	1.121080	-0.969021	-0.263203
C170	C	1.371080	-0.719021	-0.013203
C171	C	1.621080	-0.469021	0.236797
C172	C	1.871080	-0.219021	0.486797
C173	C	1.121116	-1.034765	-0.263222
C174	C	1.371116	-0.784765	-0.013222
C175	C	1.621116	-0.534765	0.236778
C176	C	1.871116	-0.284765	0.486778
C177	C	1.026147	-1.034309	-0.343660
C178	C	1.276147	-0.784309	-0.093660
C179	C	1.526147	-0.534309	0.156340
C180	C	1.776147	-0.284309	0.406340
C181	C	1.026117	-0.968566	-0.343644
C182	C	1.276117	-0.718566	-0.093644
C183	C	1.526117	-0.468566	0.156356
C184	C	1.776117	-0.218566	0.406356
C185	C	1.073583	-0.935927	-0.303413
C186	C	1.323583	-0.685927	-0.053413
C187	C	1.573583	-0.435927	0.196587
C188	C	1.823583	-0.185927	0.446587
C189	C	1.267185	-0.301589	-0.303409
C190	C	1.517185	-0.051589	-0.053409
C191	C	1.767185	0.198411	0.196591
C192	C	2.017185	0.448411	0.446591
C193	C	1.349731	-0.301600	-0.303424
C194	C	1.599731	-0.051600	-0.053424
C195	C	1.849731	0.198400	0.196576
C196	C	2.099731	0.448400	0.446576
C197	C	1.073685	-0.300578	-0.467570
C198	C	1.323685	-0.050578	-0.217570
C199	C	1.573685	0.199422	0.032430
C200	C	1.823685	0.449422	0.282430
C201	C	1.073773	-0.300157	-0.537540
C202	C	1.323773	-0.050157	-0.287540
C203	C	1.573773	0.199843	-0.037540
C204	C	1.823773	0.449843	0.212460
C205	C	1.073597	-0.137375	-0.303423
C206	C	1.323597	0.112625	-0.053423
C207	C	1.573597	0.362625	0.196577
C208	C	1.823597	0.612625	0.446577
C209	C	1.073648	-0.067407	-0.303443
C210	C	1.323648	0.182593	-0.053443
C211	C	1.573648	0.432593	0.196557
C212	C	1.823648	0.682593	0.446557
C213	C	1.073317	-0.302504	-0.139817
C214	C	1.323317	-0.052504	0.110183
C215	C	1.573317	0.197496	0.360183
C216	C	1.823317	0.447496	0.610183
C217	C	1.073373	-0.302748	-0.069846
C218	C	1.323373	-0.052748	0.180154
C219	C	1.573373	0.197252	0.430154
C220	C	1.823373	0.447252	0.680154
C221	C	1.120567	-0.262042	-0.037511
C222	C	1.370567	-0.012042	0.212489
C223	C	1.620567	0.237958	0.462489
C224	C	1.870567	0.487958	0.712489
C225	C	1.120622	-0.261724	0.028230
C226	C	1.370622	-0.011724	0.278230
C227	C	1.620622	0.238276	0.528230
C228	C	1.870622	0.488276	0.778230
C229	C	1.073469	-0.302105	0.061632
C230	C	1.323469	-0.052105	0.311632
C231	C	1.573469	0.197895	0.561632
C232	C	1.823469	0.447895	0.811632
C233	C	1.026271	-0.342819	0.029289
C234	C	1.276271	-0.092819	0.279289
C235	C	1.526271	0.157181	0.529289
C236	C	1.776271	0.407181	0.779289
C237	C	1.026223	-0.343140	-0.036451
C238	C	1.276223	-0.093140	0.213549
C239	C	1.526223	0.156860	0.463549
C240	C	1.776223	0.406860	0.713549
N241	N	1.008576	-0.306821	0.165012
N242	N	1.258576	-0.056821	0.415012
N243	N	1.508576	0.193179	0.665012
N244	N	1.758576	0.443179	0.915012
N245	N	1.008624	-0.306512	0.227461
N246	N	1.258624	-0.056512	0.477461
N247	N	1.508624	0.193488	0.727461
N248	N	1.758624	0.443488	0.977461
C249	C	1.073612	-0.301141	0.259701
C250	C	1.323612	-0.051141	0.509701
C251	C	1.573612	0.198859	0.759701
C252	C	1.823612	0.448859	1.009701
N253	N	1.138552	-0.296077	0.227132
N254	N	1.388552	-0.046077	0.477132
N255	N	1.638552	0.203923	0.727132
N256	N	1.888552	0.453923	0.977132
N257	N	1.138503	-0.296383	0.164677
N258	N	1.388503	-0.046383	0.414677
N259	N	1.638503	0.203617	0.664677
N260	N	1.888503	0.453617	0.914677
C261	C	1.073516	-0.301762	0.132915
C262	C	1.323516	-0.051762	0.382915
C263	C	1.573516	0.198238	0.632915
C264	C	1.823516	0.448238	0.882915
C265	C	1.120870	-0.260088	0.363320
C266	C	1.370870	-0.010088	0.613320
C267	C	1.620870	0.239912	0.863320
C268	C	1.870870	0.489912	1.113320
C269	C	1.120926	-0.259774	0.429062
C270	C	1.370926	-0.009774	0.679062
C271	C	1.620926	0.240226	0.929062
C272	C	1.870926	0.490226	1.179062
C273	C	1.026568	-0.340866	0.430120
C274	C	1.276568	-0.090866	0.680120
C275	C	1.526568	0.159134	0.930120
C276	C	1.776568	0.409134	1.180120
C277	C	1.026519	-0.341183	0.364379
C278	C	1.276519	-0.091183	0.614379
C279	C	1.526519	0.158817	0.864379
C280	C	1.776519	0.408817	1.114379
C281	C	1.073669	-0.300791	0.330983
C282	C	1.323669	-0.050791	0.580983
C283	C	1.573669	0.199209	0.830983
C284	C	1.823669	0.449209	1.080983
H285	H	1.159550	-0.541606	-0.230375
H286	H	1.409550	-0.291606	0.019625
H287	H	1.659550	-0.041606	0.269625
H288	H	1.909550	0.208394	0.519625
H289	H	0.987269	-0.540780	-0.376324
H290	H	1.237269	-0.290780	-0.126324
H291	H	1.487269	-0.040780	0.123676
H292	H	1.737269	0.209220	0.373676
Cl293	Cl	0.631872	-0.205105	-0.206548
Cl294	Cl	0.881872	0.044895	0.043452
Cl295	Cl	1.131872	0.294895	0.293452
Cl296	Cl	1.381872	0.544895	0.543452
H297	H	1.159732	-0.942445	-0.230446
H298	H	1.409732	-0.692445	0.019554
H299	H	1.659732	-0.442445	0.269554
H300	H	1.909732	-0.192445	0.519554
Cl301	Cl	0.515402	-0.337637	-0.170899
Cl302	Cl	0.765402	-0.087637	0.079101
Cl303	Cl	1.015402	0.162363	0.329101
Cl304	Cl	1.265402	0.412363	0.579101
Cl305	Cl	1.180266	-0.208600	0.469713
Cl306	Cl	1.430266	0.041400	0.719713
Cl307	Cl	1.680266	0.291400	0.969713
Cl308	Cl	1.930266	0.541400	1.219713
Cl309	Cl	0.967298	-0.391639	0.472105
Cl310	Cl	1.217298	-0.141639	0.722105
Cl311	Cl	1.467298	0.108361	0.972105
Cl312	Cl	1.717298	0.358361	1.222105
Cl313	Cl	0.967184	-0.392358	0.323726
Cl314	Cl	1.217184	-0.142358	0.573726
Cl315	Cl	1.467184	0.107642	0.823726
Cl316	Cl	1.717184	0.357642	1.073726
Cl317	Cl	0.631784	-0.434191	-0.267537
Cl318	Cl	0.881784	-0.184191	-0.017537
Cl319	Cl	1.131784	0.065809	0.232463
Cl320	Cl	1.381784	0.315809	0.482463
H321	H	1.159794	-1.061709	-0.230477
H322	H	1.409794	-0.811709	0.019523
H323	H	1.659794	-0.561709	0.269523
H324	H	1.909794	-0.311709	0.519523
Cl325	Cl	0.966475	-1.075344	-0.394228
Cl326	Cl	1.216475	-0.825344	-0.144228
Cl327	Cl	1.466475	-0.575344	0.105772
Cl328	Cl	1.716475	-0.325344	0.355772
Cl329	Cl	0.516072	-0.398208	-0.400166
Cl330	Cl	0.766072	-0.148208	-0.150166
Cl331	Cl	1.016072	0.101792	0.099834
Cl332	Cl	1.266072	0.351792	0.349834
Cl333	Cl	0.632335	-0.265483	-0.435812
Cl334	Cl	0.882335	-0.015483	-0.185812
Cl335	Cl	1.132335	0.234517	0.064188
Cl336	Cl	1.382335	0.484517	0.314188
H337	H	0.987442	-0.941620	-0.376387
H338	H	1.237442	-0.691620	-0.126387
H339	H	1.487442	-0.441620	0.123613
H340	H	1.737442	-0.191620	0.373613
H341	H	1.159609	-0.660872	-0.230400
H342	H	1.409609	-0.410872	0.019600
H343	H	1.659609	-0.160872	0.269600
H344	H	1.909609	0.089128	0.519600
H345	H	0.987322	-0.660051	-0.376336
H346	H	1.237322	-0.410051	-0.126336
H347	H	1.487322	-0.160051	0.123664
H348	H	1.737322	0.089949	0.373664
Cl349	Cl	1.179871	-0.211288	-0.079491
Cl350	Cl	1.429871	0.038712	0.170509
Cl351	Cl	1.679871	0.288712	0.420509
Cl352	Cl	1.929871	0.538712	0.670509
H353	H	0.527517	-0.195467	-0.331934
H354	H	0.777517	0.054533	-0.081934
H355	H	1.027517	0.304533	0.168066
H356	H	1.277517	0.554533	0.418066
Cl357	Cl	1.179956	-0.210546	0.068889
Cl358	Cl	1.429956	0.039454	0.318889
Cl359	Cl	1.679956	0.289454	0.568889
Cl360	Cl	1.929956	0.539454	0.818889
H361	H	0.987880	-0.375699	0.056489
H362	H	1.237880	-0.125699	0.306489
H363	H	1.487880	0.124301	0.556489
H364	H	1.737880	0.374301	0.806489
H365	H	0.987791	-0.376289	-0.062778
H366	H	1.237791	-0.126289	0.187222
H367	H	1.487791	0.123711	0.437222
H368	H	1.737791	0.373711	0.687222
Cl369	Cl	1.180129	-0.209299	0.321334
Cl370	Cl	1.430129	0.040701	0.571334
Cl371	Cl	1.680129	0.290701	0.821334
Cl372	Cl	1.930129	0.540701	1.071334
