data_functionalizedCrystal
_audit_creation_method	'MofGen! by Chris Wilmer'
_symmetry_space_group_name_H-M	'P1'
_symmetry_Int_Tables_number	1
_symmetry_cell_setting	triclinic
loop_
_symmetry_equiv_pos_as_xyz
  x,y,z
_cell_length_a	23.532407
_cell_length_b	14.586319
_cell_length_c	23.532407
_cell_angle_alpha	90.020857
_cell_angle_beta	97.151291
_cell_angle_gamma	89.998126
loop_
_atom_site_label
_atom_site_type_symbol
_atom_site_fract_x
_atom_site_fract_y
_atom_site_fract_z
O1	O	-0.755262	0.076120	0.069141
O2	O	-0.421929	0.409453	0.402474
O3	O	-0.088595	0.742786	0.735807
O4	O	-0.589399	0.076154	0.079144
O5	O	-0.256065	0.409487	0.412477
O6	O	0.077268	0.742821	0.745811
O7	O	-0.677332	0.076110	-0.008789
O8	O	-0.343998	0.409443	0.324544
O9	O	-0.010665	0.742777	0.657877
O10	O	-0.667329	0.076164	0.157074
O11	O	-0.333995	0.409497	0.490407
O12	O	-0.000662	0.742830	0.823741
O13	O	-0.677320	-0.076371	-0.008804
O14	O	-0.343986	0.256963	0.324529
O15	O	-0.010653	0.590296	0.657863
O16	O	-0.589386	-0.076327	0.079129
O17	O	-0.256053	0.257007	0.412463
O18	O	0.077280	0.590340	0.745796
O19	O	-0.755250	-0.076361	0.069126
O20	O	-0.421916	0.256972	0.402459
O21	O	-0.088583	0.590306	0.735793
Cu22	Cu	-0.672317	-0.090267	0.074126
Cu23	Cu	-0.338983	0.243067	0.407460
Cu24	Cu	-0.005650	0.576400	0.740793
Cu25	Cu	-0.672331	0.090060	0.074144
Cu26	Cu	-0.338998	0.423393	0.407477
Cu27	Cu	-0.005665	0.756726	0.740810
O28	O	-0.667316	-0.076317	0.157059
O29	O	-0.333983	0.257016	0.490393
O30	O	-0.000650	0.590349	0.823726
C31	C	-0.568176	-0.000082	0.078882
C32	C	-0.234843	0.333251	0.412215
C33	C	0.098490	0.666584	0.745549
C34	C	-0.504959	-0.000070	0.078116
C35	C	-0.171626	0.333263	0.411449
C36	C	0.161707	0.666596	0.744783
N37	N	-0.672311	-0.217098	0.074114
N38	N	-0.338977	0.116235	0.407447
N39	N	-0.005644	0.449568	0.740780
C40	C	-0.637984	-0.548132	0.039772
C41	C	-0.304651	-0.214798	0.373105
C42	C	0.028682	0.118535	0.706439
C43	C	-0.637980	-0.452150	0.039764
C44	C	-0.304646	-0.118817	0.373098
C45	C	0.028687	0.214516	0.706431
C46	C	-0.706672	-0.452082	0.108495
C47	C	-0.373339	-0.118749	0.441828
C48	C	-0.040006	0.214584	0.775161
C49	C	-0.706680	-0.548062	0.108499
C50	C	-0.373346	-0.214728	0.441833
C51	C	-0.040013	0.118605	0.775166
C52	C	-0.672332	-0.596084	0.074139
C53	C	-0.338999	-0.262751	0.407472
C54	C	-0.005666	0.070583	0.740806
C55	C	-0.672321	-0.404123	0.074127
C56	C	-0.338987	-0.070790	0.407460
C57	C	-0.005654	0.262544	0.740793
C58	C	-0.672316	-0.300056	0.074118
C59	C	-0.338983	0.033277	0.407452
C60	C	-0.005649	0.366611	0.740785
C61	C	-0.672337	-0.700158	0.074146
C62	C	-0.339004	-0.366824	0.407480
C63	C	-0.005671	-0.033491	0.740813
C64	C	-0.105856	-0.000085	0.125350
C65	C	0.227477	0.333249	0.458683
C66	C	0.560810	0.666582	0.792016
C67	C	-0.046456	-0.000089	0.124638
C68	C	0.286877	0.333245	0.457971
C69	C	0.620211	0.666578	0.791305
O70	O	-0.009711	-0.000107	0.168424
O71	O	0.323622	0.333226	0.501757
O72	O	0.656955	0.666560	0.835091
N73	N	-0.023830	-0.000103	0.072362
N74	N	0.309503	0.333230	0.405695
N75	N	0.642837	0.666563	0.739028
C76	C	-0.060607	-0.000123	0.020794
C77	C	0.272726	0.333210	0.354127
C78	C	0.606059	0.666543	0.687460
O79	O	-0.035908	-0.000137	-0.023737
O80	O	0.297426	0.333197	0.309596
O81	O	0.630759	0.666530	0.642930
C82	C	-0.120006	-0.000126	0.021506
C83	C	0.213327	0.333208	0.354839
C84	C	0.546660	0.666541	0.688172
C85	C	-0.142629	-0.000102	0.073785
C86	C	0.190704	0.333231	0.407119
C87	C	0.524038	0.666565	0.740452
C88	C	-0.128480	-0.000062	0.177625
C89	C	0.204854	0.333271	0.510958
C90	C	0.538187	0.666605	0.844292
C91	C	-0.187876	-0.000056	0.178336
C92	C	0.145458	0.333277	0.511670
C93	C	0.478791	0.666610	0.845003
C94	C	-0.224649	-0.000073	0.126772
C95	C	0.108685	0.333260	0.460105
C96	C	0.442018	0.666593	0.793439
C97	C	-0.202025	-0.000096	0.074496
C98	C	0.131308	0.333237	0.407830
C99	C	0.464641	0.666571	0.741163
C100	C	-0.156783	-0.000152	-0.030062
C101	C	0.176550	0.333181	0.303271
C102	C	0.509884	0.666515	0.636605
C103	C	-0.216185	-0.000155	-0.029345
C104	C	0.117148	0.333178	0.303988
C105	C	0.450481	0.666511	0.637321
C106	C	-0.238808	-0.000131	0.022934
C107	C	0.094525	0.333202	0.356268
C108	C	0.427859	0.666535	0.689601
C109	C	-0.298194	-0.000107	0.023643
C110	C	0.035139	0.333226	0.356977
C111	C	0.368472	0.666559	0.690310
N112	N	-0.320821	-0.000093	0.075920
N113	N	0.012513	0.333240	0.409253
N114	N	0.345846	0.666574	0.742586
C115	C	-0.284048	-0.000076	0.127484
C116	C	0.049286	0.333258	0.460817
C117	C	0.382619	0.666591	0.794151
C118	C	0.064135	-0.000120	0.019302
C119	C	0.397468	0.333214	0.352635
C120	C	0.730802	0.666547	0.685969
C121	C	0.123533	-0.000110	0.018589
C122	C	0.456866	0.333223	0.351923
C123	C	0.790200	0.666556	0.685256
C124	C	0.137680	-0.000078	0.122434
C125	C	0.471014	0.333256	0.455768
C126	C	0.804347	0.666589	0.789101
C127	C	0.078281	-0.000080	0.123146
C128	C	0.411615	0.333253	0.456480
C129	C	0.744948	0.666586	0.789813
C130	C	0.041509	-0.000105	0.071578
C131	C	0.374842	0.333228	0.404912
C132	C	0.708176	0.666562	0.738245
C133	C	-0.408784	-0.000063	0.128974
C134	C	-0.075451	0.333270	0.462307
C135	C	0.257882	0.666604	0.795640
C136	C	-0.468186	-0.000053	0.129680
C137	C	-0.134853	0.333280	0.463014
C138	C	0.198480	0.666613	0.796347
C139	C	-0.482329	-0.000091	0.025836
C140	C	-0.148995	0.333242	0.359169
C141	C	0.184338	0.666576	0.692502
C142	C	-0.422932	-0.000096	0.025129
C143	C	-0.089598	0.333238	0.358462
C144	C	0.243735	0.666571	0.691796
C145	C	-0.386160	-0.000085	0.076702
C146	C	-0.052827	0.333249	0.410036
C147	C	0.280506	0.666582	0.743369
O148	O	-0.334974	-0.000093	-0.020119
O149	O	-0.001640	0.333240	0.313214
O150	O	0.331693	0.666574	0.646547
O151	O	-0.308756	-0.000074	0.172007
O152	O	0.024578	0.333259	0.505340
O153	O	0.357911	0.666592	0.838674
C154	C	0.223528	-0.000115	0.069388
C155	C	0.556862	0.333218	0.402721
C156	C	0.890195	0.666552	0.736055
C157	C	0.160311	-0.000098	0.070154
C158	C	0.493644	0.333235	0.403487
C159	C	0.826978	0.666568	0.736821
C160	C	-0.677071	-0.000135	-0.030013
C161	C	-0.343738	0.333198	0.303321
C162	C	-0.010404	0.666532	0.636654
C163	C	-0.676305	-0.000149	-0.093230
C164	C	-0.342972	0.333185	0.240104
C165	C	-0.009638	0.666518	0.573437
N166	N	-0.672342	0.216891	0.074152
N167	N	-0.339009	0.550225	0.407485
N168	N	-0.005675	0.883558	0.740818
C169	C	-0.621110	-0.000080	-0.359397
C170	C	-0.287776	0.333253	-0.026064
C171	C	0.045557	0.666587	0.307269
C172	C	-0.621821	-0.000087	-0.299997
C173	C	-0.288488	0.333246	0.033336
C174	C	0.044846	0.666579	0.366670
O175	O	-0.578035	-0.000049	-0.263252
O176	O	-0.244702	0.333284	0.070081
O177	O	0.088632	0.666618	0.403414
N178	N	-0.674097	-0.000109	-0.277371
N179	N	-0.340764	0.333225	0.055963
N180	N	-0.007431	0.666558	0.389296
C181	C	-0.725666	-0.000113	-0.314148
C182	C	-0.392332	0.333220	0.019185
C183	C	-0.058999	0.666553	0.352518
O184	O	-0.770196	-0.000131	-0.289449
O185	O	-0.436863	0.333202	0.043885
O186	O	-0.103529	0.666535	0.377218
C187	C	-0.724954	-0.000100	-0.373547
C188	C	-0.391620	0.333234	-0.040214
C189	C	-0.058287	0.666567	0.293119
C190	C	-0.672674	-0.000088	-0.396170
C191	C	-0.339341	0.333246	-0.062837
C192	C	-0.006007	0.666579	0.270497
C193	C	-0.568834	-0.000067	-0.382020
C194	C	-0.235501	0.333266	-0.048687
C195	C	0.097833	0.666600	0.284646
C196	C	-0.568123	-0.000061	-0.441417
C197	C	-0.234790	0.333272	-0.108083
C198	C	0.098544	0.666605	0.225250
C199	C	-0.619687	-0.000069	-0.478190
C200	C	-0.286354	0.333264	-0.144856
C201	C	0.046979	0.666598	0.188477
C202	C	-0.671963	-0.000082	-0.455566
C203	C	-0.338629	0.333251	-0.122233
C204	C	-0.005296	0.666585	0.211100
C205	C	-0.776521	-0.000098	-0.410324
C206	C	-0.443188	0.333235	-0.076990
C207	C	-0.109854	0.666569	0.256343
C208	C	-0.775805	-0.000083	-0.469726
C209	C	-0.442471	0.333250	-0.136393
C210	C	-0.109138	0.666583	0.196940
C211	C	-0.723525	-0.000071	-0.492349
C212	C	-0.390192	0.333262	-0.159016
C213	C	-0.056858	0.666595	0.174318
C214	C	-0.722816	-0.000084	-0.551735
C215	C	-0.389482	0.333249	-0.218402
C216	C	-0.056149	0.666582	0.114931
N217	N	-0.670539	-0.000063	-0.574361
N218	N	-0.337206	0.333270	-0.241028
N219	N	-0.003873	0.666604	0.092305
C220	C	-0.618975	-0.000055	-0.537589
C221	C	-0.285642	0.333278	-0.204255
C222	C	0.047691	0.666611	0.129078
C223	C	-0.727157	-0.000141	-0.189406
C224	C	-0.393824	0.333193	0.143928
C225	C	-0.060490	0.666526	0.477261
C226	C	-0.727870	-0.000161	-0.130008
C227	C	-0.394536	0.333172	0.203325
C228	C	-0.061203	0.666506	0.536659
C229	C	-0.624025	-0.000133	-0.115861
C230	C	-0.290691	0.333200	0.217473
C231	C	0.042642	0.666534	0.550806
C232	C	-0.623313	-0.000119	-0.175260
C233	C	-0.289979	0.333214	0.158074
C234	C	0.043354	0.666547	0.491407
C235	C	-0.674881	-0.000119	-0.212032
C236	C	-0.341547	0.333214	0.121301
C237	C	-0.008214	0.666547	0.454635
C238	C	-0.617486	-0.000045	-0.662325
C239	C	-0.284152	0.333289	-0.328992
C240	C	0.049181	0.666622	0.004341
C241	C	-0.616779	-0.000043	-0.721727
C242	C	-0.283446	0.333290	-0.388394
C243	C	0.049888	0.666624	-0.055061
C244	C	-0.720623	-0.000066	-0.735869
C245	C	-0.387290	0.333267	-0.402536
C246	C	-0.053957	0.666601	-0.069203
C247	C	-0.721330	-0.000072	-0.676473
C248	C	-0.387997	0.333261	-0.343139
C249	C	-0.054664	0.666594	-0.009806
C250	C	-0.669757	-0.000059	-0.639701
C251	C	-0.336423	0.333275	-0.306368
C252	C	-0.003090	0.666608	0.026965
O253	O	-0.766579	-0.000119	-0.588514
O254	O	-0.433245	0.333215	-0.255181
O255	O	-0.099912	0.666548	0.078152
O256	O	-0.574452	-0.000025	-0.562297
O257	O	-0.241119	0.333308	-0.228963
O258	O	0.092215	0.666641	0.104370
C259	C	-0.667577	-0.000070	0.178283
C260	C	-0.334244	0.333263	0.511616
C261	C	-0.000911	0.666597	0.844949
C262	C	-0.668343	-0.000050	0.241500
C263	C	-0.335010	0.333283	0.574833
C264	C	-0.001677	0.666616	0.908166
H265	H	-0.610017	-0.587228	0.011793
H266	H	-0.276684	-0.253895	0.345127
H267	H	0.056650	0.079438	0.678460
H268	H	-0.734653	-0.587106	0.136485
H269	H	-0.401319	-0.253772	0.469818
H270	H	-0.067986	0.079561	0.803152
H271	H	-0.378852	-0.000057	0.170970
H272	H	-0.045518	0.333276	0.504303
H273	H	0.287815	0.666610	0.837637
H274	H	-0.098544	-0.000051	0.219617
H275	H	0.234789	0.333282	0.552951
H276	H	0.568122	0.666615	0.886284
F277	F	-0.492259	-0.000025	0.185326
F278	F	-0.158926	0.333308	0.518659
F279	F	0.174408	0.666642	0.851992
F280	F	-0.601420	-0.401120	0.003189
F281	F	-0.268086	-0.067787	0.336522
F282	F	0.065247	0.265547	0.669855
F283	F	-0.512479	-0.000040	-0.465485
F284	F	-0.179146	0.333293	-0.132152
F285	F	0.154187	0.666626	0.201181
H286	H	-0.734636	-0.412971	0.136470
H287	H	-0.401303	-0.079638	0.469804
H288	H	-0.067969	0.253696	0.803137
H289	H	0.167632	-0.000068	0.164421
H290	H	0.500965	0.333265	0.497754
H291	H	0.834299	0.666599	0.831087
H292	H	-0.404512	-0.000102	-0.017441
H293	H	-0.071178	0.333232	0.315892
H294	H	0.262155	0.666565	0.649225
F295	F	-0.211945	-0.000035	0.233980
F296	F	0.121389	0.333298	0.567313
F297	F	0.454722	0.666631	0.900646
F298	F	0.054210	-0.000057	0.178789
F299	F	0.387544	0.333277	0.512122
F300	F	0.720877	0.666610	0.845455
F301	F	0.147603	-0.000115	-0.037054
F302	F	0.480936	0.333218	0.296280
F303	F	0.814270	0.666552	0.629613
F304	F	-0.561133	-0.000032	-0.745800
F305	F	-0.227800	0.333301	-0.412467
F306	F	0.105533	0.666634	-0.079133
F307	F	0.025003	-0.000137	-0.035587
F308	F	0.358337	0.333196	0.297746
F309	F	0.691670	0.666530	0.631079
H310	H	-0.762606	-0.000076	-0.765820
H311	H	-0.429272	0.333257	-0.432487
H312	H	-0.095939	0.666590	-0.099154
H313	H	-0.138374	-0.000172	-0.072634
H314	H	0.194959	0.333161	0.260700
H315	H	0.528292	0.666494	0.594033
F316	F	-0.255318	-0.000184	-0.084233
F317	F	0.078015	0.333149	0.249100
F318	F	0.411348	0.666483	0.582434
F319	F	-0.513947	-0.000056	-0.342892
F320	F	-0.180614	0.333278	-0.009558
F321	F	0.152719	0.666611	0.323775
H322	H	-0.512280	-0.000101	-0.016146
H323	H	-0.178946	0.333232	0.317187
H324	H	0.154387	0.666565	0.650520
F325	F	-0.562595	-0.000031	-0.623199
F326	F	-0.229262	0.333303	-0.289865
F327	F	0.104072	0.666636	0.043468
F328	F	-0.567670	-0.000105	-0.199331
F329	F	-0.234337	0.333228	0.134003
F330	F	0.098996	0.666562	0.467336
F331	F	-0.569145	-0.000124	-0.076714
F332	F	-0.235812	0.333209	0.256620
F333	F	0.097522	0.666542	0.589953
H334	H	-0.770441	-0.000185	-0.111594
H335	H	-0.437108	0.333148	0.221739
H336	H	-0.103774	0.666482	0.555072
H337	H	-0.817799	-0.000079	-0.499664
H338	H	-0.484465	0.333255	-0.166331
H339	H	-0.151132	0.666588	0.167002
H340	H	-0.769152	-0.000147	-0.219343
H341	H	-0.435819	0.333186	0.113990
H342	H	-0.102486	0.666520	0.447323
H343	H	-0.819093	-0.000107	-0.391915
H344	H	-0.485759	0.333226	-0.058582
H345	H	-0.152426	0.666560	0.274751
H346	H	-0.763901	-0.000095	-0.658053
H347	H	-0.430567	0.333238	-0.324719
H348	H	-0.097234	0.666571	0.008614
