data_functionalizedCrystal
_audit_creation_method	'MofGen! by Chris Wilmer'
_symmetry_space_group_name_H-M	'P1'
_symmetry_Int_Tables_number	1
_symmetry_cell_setting	triclinic
loop_
_symmetry_equiv_pos_as_xyz
  x,y,z
_cell_length_a	12.759401
_cell_length_b	13.032721
_cell_length_c	12.759393
_cell_angle_alpha	97.149226
_cell_angle_beta	89.979062
_cell_angle_gamma	97.205831
loop_
_atom_site_label
_atom_site_type_symbol
_atom_site_fract_x
_atom_site_fract_y
_atom_site_fract_z
Zn1	Zn	1.553113	-0.415945	-0.647098
Zn2	Zn	1.530669	-0.590725	-0.493722
Zn3	Zn	1.377404	-0.416001	-0.471441
Zn4	Zn	1.355078	-0.590652	-0.669350
O5	O	1.454066	-0.503331	-0.570403
O6	O	1.697156	-0.439137	-0.626765
O7	O	1.510289	-0.567601	-0.343752
O8	O	1.419449	-0.269756	-0.476105
O9	O	1.680666	-0.567547	-0.514080
O10	O	1.548541	-0.269715	-0.605160
O11	O	1.397686	-0.439232	-0.327382
O12	O	1.227423	-0.439161	-0.497681
O13	O	1.381397	-0.567423	-0.813412
O14	O	1.211019	-0.567477	-0.643084
O15	O	1.526892	-0.439067	-0.797064
O16	O	1.488640	-0.736953	-0.535656
O17	O	1.359634	-0.736899	-0.664689
C18	C	1.181100	-0.503318	-0.570380
C19	C	1.064321	-0.503338	-0.570399
C20	C	1.000932	-0.570253	-0.646017
C21	C	0.891208	-0.570257	-0.646038
C22	C	0.908271	-0.436427	-0.494813
C23	C	1.017994	-0.436419	-0.494797
C24	C	1.419307	-0.774844	-0.605028
C25	C	1.404533	-0.890999	-0.619876
C26	C	1.461832	-0.942776	-0.562700
C27	C	1.446564	-1.062828	-0.578045
C28	C	1.728097	-0.503344	-0.570426
C29	C	1.844873	-0.503350	-0.570436
C30	C	1.454157	-0.503230	-0.844423
C31	C	1.454196	-0.503188	-0.961194
C32	C	1.488989	-0.230757	-0.535665
C33	C	1.503872	-0.114602	-0.520862
C34	C	1.529962	-0.436342	-1.007544
C35	C	1.529986	-0.436297	-1.117263
C36	C	1.378473	-0.569952	-1.134273
C37	C	1.378446	-0.569991	-1.024556
C38	C	1.454045	-0.503355	-0.297438
C39	C	1.454247	-0.503104	-0.180630
H40	H	1.069608	-0.381922	-0.433219
C41	C	1.612031	-0.363742	-0.938610
C42	C	1.561106	-0.296799	-0.867061
C43	C	1.636671	-0.229908	-0.803536
H44	H	1.657190	-0.323824	-0.981801
H45	H	1.652667	-0.403701	-0.900845
H46	H	1.520488	-0.256843	-0.904823
H47	H	1.515952	-0.336688	-0.823847
H48	H	1.677307	-0.269867	-0.765771
H49	H	1.681826	-0.189998	-0.846736
H50	H	1.602129	-0.184486	-0.754976
H51	H	1.591680	-0.381863	-1.154995
H52	H	0.839601	-0.624745	-0.707616
H53	H	1.522197	-0.898229	-0.502394
C54	C	1.366058	-1.122026	-0.658562
C55	C	1.316173	-1.050992	-0.708355
C56	C	1.242018	-1.105487	-0.782540
H57	H	1.314824	-1.164682	-0.623863
H58	H	1.400838	-1.164511	-0.709824
H59	H	1.281394	-1.008524	-0.657101
H60	H	1.367379	-1.008334	-0.743074
H61	H	1.276797	-1.147973	-0.833802
H62	H	1.190791	-1.148141	-0.747833
H63	H	1.208168	-1.057299	-0.816341
H64	H	1.316802	-0.624344	-1.185875
H65	H	0.870537	-0.381946	-0.433260
C66	C	1.584270	-1.055030	-0.440450
C67	C	1.583407	-0.947800	-0.441187
C68	C	1.657443	-0.892891	-0.367118
H69	H	1.652669	-1.072668	-0.458058
H70	H	1.566664	-1.072873	-0.372088
H71	H	1.601020	-0.929965	-0.509534
H72	H	1.515026	-0.930132	-0.423569
H73	H	1.639837	-0.910733	-0.298756
H74	H	1.725837	-0.910536	-0.384732
H75	H	1.656860	-0.820130	-0.367601
C76	C	1.296128	-0.642688	-0.974429
C77	C	1.229818	-0.701210	-1.053402
C78	C	1.153986	-0.768192	-1.007266
H79	H	1.255358	-0.602839	-0.926537
H80	H	1.330444	-0.688293	-0.937467
H81	H	1.195504	-0.655610	-1.090347
H82	H	1.270558	-0.741080	-1.101299
H83	H	1.188302	-0.813797	-0.970304
H84	H	1.113223	-0.728335	-0.959375
H85	H	1.108992	-0.807914	-1.060842
H86	H	1.344178	-0.935548	-0.680190
H87	H	1.038649	-0.624740	-0.707579
