data_functionalizedCrystal
_audit_creation_method	'MofGen! by Chris Wilmer'
_symmetry_space_group_name_H-M	'P1'
_symmetry_Int_Tables_number	1
_symmetry_cell_setting	triclinic
loop_
_symmetry_equiv_pos_as_xyz
  x,y,z
_cell_length_a	16.992695
_cell_length_b	17.699104
_cell_length_c	16.776229
_cell_angle_alpha	90.006643
_cell_angle_beta	90.003575
_cell_angle_gamma	86.979870
loop_
_atom_site_label
_atom_site_type_symbol
_atom_site_fract_x
_atom_site_fract_y
_atom_site_fract_z
O1	O	0.099220	1.010245	0.066305
O2	O	0.112102	0.790671	0.066304
O3	O	-0.008480	0.899578	0.066298
O4	O	0.219802	0.901338	0.066311
O5	O	-0.008480	0.899564	-0.066278
O6	O	0.112102	0.790657	-0.066273
O7	O	0.099220	1.010232	-0.066271
Zn8	Zn	0.105661	0.900442	-0.087321
Zn9	Zn	0.105661	0.900460	0.087354
O10	O	0.219802	0.901325	-0.066266
C11	C	0.111638	0.762438	0.000015
C12	C	0.110245	0.678334	0.000014
C13	C	0.173167	0.157381	0.000026
C14	C	0.174472	0.236406	0.000028
C15	C	0.103685	0.280616	0.000024
C16	C	0.031590	0.245798	0.000026
C17	C	0.030287	0.166774	0.000029
C18	C	0.036845	0.564491	0.000013
C19	C	0.038154	0.643520	0.000008
C20	C	0.181030	0.634123	0.000013
C21	C	0.179727	0.555099	0.000016
C22	C	0.107632	0.520288	0.000022
C23	C	0.106219	0.434600	0.000021
C24	C	0.105098	0.366303	0.000020
C25	C	-0.037688	0.897306	0.000010
C26	C	-0.124720	0.890549	0.000010
C27	C	-0.175080	0.955746	0.000010
C28	C	-0.256855	0.949393	0.000017
C29	C	-0.288269	0.877841	0.000019
C30	C	-0.237902	0.812639	0.000022
C31	C	-0.156129	0.818993	0.000020
C32	C	-0.531818	0.851505	0.000030
C33	C	-0.613598	0.845156	0.000030
C34	C	-0.632545	0.981910	0.000026
C35	C	-0.550769	0.988258	0.000020
C36	C	-0.500410	0.923056	0.000027
N37	N	-0.371855	0.871345	0.000025
N38	N	-0.416825	0.929553	0.000027
C39	C	0.249011	0.903596	0.000024
C40	C	0.336042	0.910353	0.000029
C41	C	0.099684	1.038464	0.000019
C42	C	0.101078	1.122568	0.000025
N43	N	0.105660	0.900436	-0.206533
C44	C	0.153157	0.949208	-0.248243
C45	C	0.153154	0.949216	-0.331695
C46	C	0.105658	0.900448	-0.373436
C47	C	0.058156	0.851674	-0.331719
C48	C	0.058155	0.851671	-0.248269
C49	C	0.058157	0.851690	-0.668267
C50	C	0.058163	0.851696	-0.751723
C51	C	0.153156	0.949235	-0.751693
C52	C	0.153155	0.949231	-0.668243
C53	C	0.105650	0.900461	-0.626534
C54	C	0.105653	0.900453	-0.536045
C55	C	0.105659	0.900451	-0.463922
N56	N	0.105656	0.900472	0.206565
H57	H	-0.021859	0.536157	0.000016
O58	O	-0.686861	1.052231	0.000019
H59	H	-0.675702	1.086248	0.054051
O60	O	0.252231	0.273946	0.000022
H61	H	0.256258	0.309724	0.054060
O62	O	-0.101812	0.748671	0.000017
H63	H	-0.039673	0.765109	0.000023
H64	H	0.237368	0.519107	0.000015
O65	O	-0.038197	0.691209	0.000004
H66	H	-0.072698	0.678313	0.054046
H67	H	-0.639171	0.786887	0.000018
O68	O	0.204385	1.001807	-0.203224
H69	H	0.237406	1.035727	-0.246251
H70	H	0.230810	0.121390	0.000023
H71	H	-0.297855	1.002484	0.000015
O72	O	0.006904	0.799101	-0.203258
H73	H	0.044517	0.760701	-0.165216
H74	H	-0.490825	0.798413	0.000036
H75	H	-0.525198	1.046523	0.000018
H76	H	-0.026045	0.281800	0.000027
O77	O	-0.047466	0.129220	0.000020
H78	H	-0.096470	0.173236	0.000007
O79	O	0.204385	1.001817	-0.376686
H80	H	0.237419	1.035720	-0.333642
H81	H	0.239733	0.662476	0.000011
H82	H	0.019483	0.811981	-0.785706
H83	H	-0.149510	1.014011	0.000003
H84	H	-0.263486	0.754380	0.000029
O85	O	0.204383	1.001829	-0.623220
H86	H	0.237407	1.035750	-0.666245
O87	O	0.204379	1.001853	-0.796684
H88	H	0.246555	0.968126	-0.834717
O89	O	0.006931	0.799082	-0.623284
H90	H	-0.026085	0.765165	-0.666331
O91	O	0.006928	0.799070	-0.376733
H92	H	0.014914	0.807259	-0.441770
