data_functionalizedCrystal
_audit_creation_method	'MofGen! by Chris Wilmer'
_symmetry_space_group_name_H-M	'P1'
_symmetry_Int_Tables_number	1
_symmetry_cell_setting	triclinic
loop_
_symmetry_equiv_pos_as_xyz
  x,y,z
_cell_length_a	16.109301
_cell_length_b	19.288864
_cell_length_c	18.366186
_cell_angle_alpha	90.022894
_cell_angle_beta	89.992337
_cell_angle_gamma	96.701137
loop_
_atom_site_label
_atom_site_type_symbol
_atom_site_fract_x
_atom_site_fract_y
_atom_site_fract_z
O1	O	0.103716	-0.921600	-0.060785
O2	O	0.603716	-0.421600	0.439215
O3	O	0.117707	-0.719373	-0.060736
O4	O	0.617707	-0.219373	0.439264
O5	O	-0.010339	-0.826042	-0.060755
O6	O	0.489661	-0.326042	0.439245
O7	O	0.231761	-0.814931	-0.060767
O8	O	0.731761	-0.314931	0.439233
O9	O	-0.010345	-0.826024	0.060345
O10	O	0.489655	-0.326024	0.560345
O11	O	0.117701	-0.719355	0.060363
O12	O	0.617701	-0.219355	0.560363
O13	O	0.103710	-0.921582	0.060314
O14	O	0.603710	-0.421582	0.560314
Zn15	Zn	0.110704	-0.820466	0.079566
Zn16	Zn	0.610704	-0.320466	0.579566
Zn17	Zn	0.110712	-0.820490	-0.079988
Zn18	Zn	0.610712	-0.320490	0.420012
O19	O	0.231755	-0.814913	0.060333
O20	O	0.731755	-0.314913	0.560333
C21	C	0.117254	-0.693487	-0.000180
C22	C	0.617254	-0.193487	0.499820
C23	C	0.115902	-0.616380	-0.000161
C24	C	0.615902	-0.116380	0.499839
C25	C	-0.041315	-0.825583	-0.000205
C26	C	0.458685	-0.325583	0.499795
C27	C	-0.133606	-0.824234	-0.000203
C28	C	0.366394	-0.324234	0.499797
C29	C	0.104163	-0.947469	-0.000244
C30	C	0.604163	-0.447469	0.499756
C31	C	0.105514	-1.024576	-0.000268
C32	C	0.605514	-0.524576	0.499732
C33	C	-0.356084	-0.884391	-0.000229
C34	C	0.143916	-0.384391	0.499771
C35	C	-0.442800	-0.883118	-0.000235
C36	C	0.057200	-0.383118	0.499765
C37	C	-0.422493	-0.756559	-0.000201
C38	C	0.077507	-0.256559	0.499799
C39	C	-0.335778	-0.757833	-0.000201
C40	C	0.164222	-0.257833	0.499799
C41	C	-0.302577	-0.821751	-0.000211
C42	C	0.197423	-0.321751	0.499789
C43	C	-0.476007	-0.819204	-0.000217
C44	C	0.023993	-0.319204	0.499783
C45	C	-0.570028	-0.817823	-0.000223
C46	C	-0.070028	-0.317823	0.499777
C47	C	-0.208549	-0.823133	-0.000206
C48	C	0.291451	-0.323133	0.499794
C49	C	0.262732	-0.815372	-0.000219
C50	C	0.762732	-0.315372	0.499781
C51	C	0.355022	-0.816722	-0.000225
C52	C	0.855022	-0.316722	0.499775
N53	N	0.110698	-0.820455	0.188457
N54	N	0.610698	-0.320455	0.688457
C55	C	0.191034	-0.571863	-0.000176
C56	C	0.691034	-0.071863	0.499824
C57	C	0.189764	-0.499413	-0.000184
C58	C	0.689764	0.000587	0.499816
C59	C	0.113359	-0.471483	-0.000191
C60	C	0.613359	0.028517	0.499809
C61	C	0.038218	-0.516009	-0.000172
C62	C	0.538218	-0.016009	0.499828
C63	C	0.039489	-0.588458	-0.000157
C64	C	0.539489	-0.088458	0.499843
C65	C	0.053298	-0.363084	-0.042639
C66	C	0.553298	0.136916	0.457361
C67	C	0.052029	-0.290636	-0.042659
C68	C	0.552029	0.209364	0.457341
C69	C	0.109433	-0.248028	-0.000235
C70	C	0.609433	0.251972	0.499765
C71	C	0.168120	-0.277874	0.042199
C72	C	0.668120	0.222126	0.542199
C73	C	0.169391	-0.350323	0.042214
C74	C	0.669391	0.149677	0.542214
C75	C	0.111971	-0.392925	-0.000207
C76	C	0.611971	0.107075	0.499793
C77	C	0.183193	-0.124952	-0.000258
C78	C	0.683193	0.375048	0.499742
C79	C	0.181920	-0.052501	-0.000262
C80	C	0.681920	0.447499	0.499738
C81	C	0.030372	-0.069099	-0.000257
C82	C	0.530372	0.430901	0.499743
C83	C	0.031647	-0.141548	-0.000246
C84	C	0.531647	0.358452	0.499754
C85	C	0.108060	-0.169470	-0.000250
C86	C	0.608060	0.330530	0.499750
N87	N	0.110712	-0.820506	-0.188879
N88	N	0.610712	-0.320506	0.311121
C89	C	0.054027	-0.867703	0.226549
C90	C	0.554027	-0.367703	0.726549
C91	C	0.054023	-0.867707	0.302777
C92	C	0.554023	-0.367707	0.802777
C93	C	0.110705	-0.820470	0.340910
C94	C	0.610705	-0.320470	0.840910
C95	C	0.167380	-0.773213	0.302808
C96	C	0.667380	-0.273213	0.802808
C97	C	0.167377	-0.773205	0.226582
C98	C	0.667377	-0.273205	0.726582
C99	C	0.186459	-0.811353	0.461668
C100	C	0.686459	-0.311353	0.961668
C101	C	0.186463	-0.811365	0.537893
C102	C	0.686463	-0.311365	1.037893
C103	C	0.110715	-0.820490	0.576017
C104	C	0.610715	-0.320490	1.076017
C105	C	0.034960	-0.829616	0.537908
C106	C	0.534960	-0.329616	1.037908
C107	C	0.034956	-0.829609	0.461681
C108	C	0.534956	-0.329609	0.961681
C109	C	0.110715	-0.820473	0.423564
C110	C	0.610715	-0.320473	0.923564
C111	C	0.054036	-0.867746	0.696764
C112	C	0.554036	-0.367746	1.196764
C113	C	0.054031	-0.867745	0.772993
C114	C	0.554031	-0.367745	1.272993
C115	C	0.167395	-0.773254	0.773023
C116	C	0.667395	-0.273254	1.273023
C117	C	0.167392	-0.773251	0.696796
C118	C	0.667392	-0.273251	1.196796
C119	C	0.110714	-0.820500	0.658671
C120	C	0.610714	-0.320500	1.158671
H121	H	-0.329054	-0.936438	-0.000239
H122	H	0.170946	-0.436438	0.499761
C123	C	-0.051005	-0.190519	-0.000238
C124	C	0.448995	0.309481	0.499762
N125	N	-0.113262	-0.227404	-0.000230
N126	N	0.386738	0.272596	0.499770
C127	C	-0.048373	-0.839639	0.419763
C128	C	0.451627	-0.339639	0.919763
N129	N	-0.111139	-0.847189	0.388191
N130	N	0.388861	-0.347189	0.888191
H131	H	-0.031839	-0.046359	-0.000308
H132	H	0.468161	0.453641	0.499692
C133	C	0.275090	-0.602572	-0.000166
C134	C	0.775090	-0.102572	0.499834
N135	N	0.338403	-0.625704	-0.000153
N136	N	0.838403	-0.125704	0.499847
H137	H	-0.292210	-0.706821	-0.000188
H138	H	0.207790	-0.206821	0.499812
C139	C	-0.501655	-0.952028	-0.000249
C140	C	-0.001655	-0.452028	0.499751
N141	N	-0.545985	-1.003933	-0.000257
N142	N	-0.045985	-0.503933	0.499743
H143	H	0.217173	-0.374621	0.076768
H144	H	0.717173	0.125379	0.576768
C145	C	-0.048370	-0.839652	0.579839
C146	C	0.451630	-0.339652	1.079839
N147	N	-0.111132	-0.847212	0.611425
N148	N	0.388868	-0.347212	1.111425
C149	C	-0.008319	-0.919714	0.654824
C150	C	0.491681	-0.419714	1.154824
N151	N	-0.055286	-0.958856	0.623237
N152	N	0.444714	-0.458856	1.123237
C153	C	0.269793	-0.801315	0.419738
C154	C	0.769793	-0.301315	0.919738
N155	N	0.332558	-0.793754	0.388158
N156	N	0.832558	-0.293754	0.888158
H157	H	-0.449537	-0.704519	-0.000191
H158	H	0.050463	-0.204519	0.499809
H159	H	0.007878	-0.906218	0.804009
H160	H	0.507878	-0.406218	1.304009
H161	H	0.250947	-0.463160	-0.000194
H162	H	0.750947	0.036840	0.499806
C163	C	0.229795	-0.721323	0.654893
C164	C	0.729795	-0.221323	1.154893
N165	N	0.276819	-0.682224	0.623332
N166	N	0.776819	-0.182224	1.123332
H167	H	0.004247	-0.266341	-0.077214
H168	H	0.504247	0.233659	0.422786
H169	H	0.214863	-0.243184	0.076745
H170	H	0.714863	0.256816	0.576745
C171	C	0.264575	-0.003531	-0.000268
C172	C	0.764575	0.496469	0.499732
N173	N	0.326833	0.033354	-0.000270
N174	N	0.826833	0.533354	0.499730
C175	C	0.267248	-0.155668	-0.000253
C176	C	0.767248	0.344332	0.499747
N177	N	0.330559	-0.178801	-0.000248
N178	N	0.830559	0.321199	0.499752
H179	H	0.006551	-0.397770	-0.077190
H180	H	0.506551	0.102230	0.422810
H181	H	0.213530	-0.734750	0.333860
H182	H	0.713530	-0.234750	0.833860
C183	C	-0.045828	-0.485285	-0.000181
C184	C	0.454172	0.014715	0.499819
N185	N	-0.109135	-0.462144	-0.000186
N186	N	0.390865	0.037856	0.499814
C187	C	-0.008329	-0.919673	0.184616
C188	C	0.491671	-0.419673	0.684616
N189	N	-0.055299	-0.958814	0.153031
N190	N	0.444701	-0.458814	0.653031
H191	H	-0.021694	-0.624704	-0.000145
H192	H	0.478306	-0.124704	0.499855
C193	C	0.229746	-0.721292	0.814965
C194	C	0.729746	-0.221292	1.314965
N195	N	0.276710	-0.682153	0.846559
N196	N	0.776710	-0.182153	1.346559
C197	C	-0.008313	-0.919693	0.344687
C198	C	0.491687	-0.419693	0.844687
N199	N	-0.055262	-0.958852	0.376251
N200	N	0.444738	-0.458852	0.876251
C201	C	0.269795	-0.801319	0.579806
C202	C	0.769795	-0.301319	1.079806
N203	N	0.332563	-0.793748	0.611373
N204	N	0.832563	-0.293748	1.111373
H205	H	0.213526	-0.734729	0.195567
H206	H	0.713526	-0.234729	0.695567
