data_functionalizedCrystal
_audit_creation_method	'MofGen! by Chris Wilmer'
_symmetry_space_group_name_H-M	'P1'
_symmetry_Int_Tables_number	1
_symmetry_cell_setting	triclinic
loop_
_symmetry_equiv_pos_as_xyz
  x,y,z
_cell_length_a	10.654553
_cell_length_b	14.472310
_cell_length_c	10.654551
_cell_angle_alpha	89.998156
_cell_angle_beta	84.485770
_cell_angle_gamma	90.013523
loop_
_atom_site_label
_atom_site_type_symbol
_atom_site_fract_x
_atom_site_fract_y
_atom_site_fract_z
O1	O	1.667856	0.076845	0.176409
O2	O	1.302378	0.076844	0.193211
O3	O	1.493519	0.076845	0.002071
O4	O	1.476715	0.076844	0.367549
O5	O	1.493470	-0.076837	0.002081
O6	O	1.302329	-0.076838	0.193222
O7	O	1.667807	-0.076837	0.176420
Cu8	Cu	1.485063	-0.090870	0.184822
Cu9	Cu	1.485122	0.090877	0.184809
O10	O	1.476665	-0.076838	0.367560
C11	C	1.255555	0.000003	0.191982
C12	C	1.116112	0.000003	0.188288
N13	N	1.485031	-0.218701	0.184830
C14	C	0.919545	-0.083763	0.183080
C15	C	1.050566	-0.083768	0.186558
C16	C	1.050630	0.083784	0.186553
C17	C	0.919610	0.083789	0.183085
C18	C	0.919510	-0.180498	0.183078
C19	C	1.050531	-0.180503	0.186555
C20	C	1.485120	-0.592792	0.184804
C21	C	1.382495	-0.553627	0.286730
C22	C	1.382737	-0.446539	0.287107
C23	C	1.485075	-0.407201	0.184817
C24	C	1.616367	-0.446038	0.214581
C25	C	1.615792	-0.553159	0.215307
C26	C	1.457619	-0.553321	0.052818
C27	C	1.454621	-0.446194	0.053671
C28	C	1.485057	-0.302313	0.184822
C29	C	1.485146	-0.697680	0.184802
C30	C	1.714629	0.000006	0.177649
C31	C	1.854072	0.000012	0.181342
N32	N	1.485164	0.218708	0.184791
C33	C	1.492261	0.000006	-0.044722
C34	C	1.488568	0.000012	-0.184165
C35	C	1.486863	0.083783	-0.249683
C36	C	1.483383	0.083779	-0.380703
C37	C	1.483318	-0.083774	-0.380677
C38	C	1.486789	-0.083769	-0.249658
C39	C	1.486905	0.180518	-0.249700
C40	C	1.483425	0.180514	-0.380720
C41	C	1.477924	0.000003	0.414352
C42	C	1.481617	0.000003	0.553795
H43	H	0.866305	0.152007	0.181685
Br44	Br	1.746864	-0.596343	0.096239
Br45	Br	1.570978	-0.401583	-0.078825
Br46	Br	1.657387	-0.401310	0.373253
H47	H	1.104007	0.151992	0.187975
H48	H	0.873215	-0.217642	0.269870
Br49	Br	1.293636	-0.403892	0.016060
Br50	Br	0.870177	-0.230673	0.030512
Br51	Br	1.219360	-0.596581	0.257336
H52	H	1.080086	-0.210521	0.278159
H53	H	1.488171	-0.151983	-0.196317
H54	H	1.578514	0.210532	-0.220135
H55	H	1.481868	-0.151986	-0.434017
Br56	Br	1.330776	0.230546	-0.430021
H57	H	1.363897	-0.580389	0.024481
H58	H	1.400128	0.217664	-0.203422
H59	H	1.096803	-0.217640	0.099760
H60	H	1.285182	-0.420283	0.269205
H61	H	1.570228	0.217656	-0.427013
H62	H	1.399938	-0.580536	0.384098
H63	H	1.400418	-0.420905	0.385027
Br64	Br	1.746777	-0.403573	0.094217
Br65	Br	1.655894	-0.594793	0.375797
H66	H	1.532445	-0.578647	-0.023045
