data_functionalizedCrystal
_audit_creation_method	'MofGen! by Chris Wilmer'
_symmetry_space_group_name_H-M	'P1'
_symmetry_Int_Tables_number	1
_symmetry_cell_setting	triclinic
loop_
_symmetry_equiv_pos_as_xyz
  x,y,z
_cell_length_a	10.489716
_cell_length_b	10.489716
_cell_length_c	13.930277
_cell_angle_alpha	90.000485
_cell_angle_beta	90.006844
_cell_angle_gamma	84.529136
loop_
_atom_site_label
_atom_site_type_symbol
_atom_site_fract_x
_atom_site_fract_y
_atom_site_fract_z
O1	O	1.694061	0.179820	0.079814
O2	O	1.322860	0.196746	0.079816
O3	O	1.516923	0.002682	0.079818
O4	O	1.499998	0.373883	0.079812
O5	O	1.516896	0.002678	-0.079843
O6	O	1.322833	0.196741	-0.079845
O7	O	1.694034	0.179815	-0.079848
Zn8	Zn	1.508429	0.188278	-0.105197
Zn9	Zn	1.508465	0.188283	0.105165
O10	O	1.499971	0.373879	-0.079850
C11	C	1.275314	0.195472	-0.000014
C12	C	1.133684	0.191667	-0.000013
C13	C	1.035999	0.310673	-0.000012
C14	C	0.958645	0.247786	-0.078737
C15	C	0.958679	0.247762	0.078677
C16	C	1.058195	0.128829	-0.078802
C17	C	1.058234	0.128823	0.078682
C18	C	0.980929	0.065848	-0.000062
C19	C	1.515638	-0.044852	-0.000010
C20	C	1.511833	-0.186483	-0.000001
C21	C	1.630839	-0.284167	-0.000010
C22	C	1.567967	-0.361520	0.078709
C23	C	1.567913	-0.361488	-0.078705
C24	C	1.449011	-0.261970	0.078784
C25	C	1.448974	-0.261933	-0.078701
C26	C	1.386015	-0.339237	0.000038
C27	C	1.741580	0.181089	-0.000016
C28	C	1.883210	0.184894	-0.000011
C29	C	1.501256	0.421413	-0.000020
C30	C	1.505061	0.563044	-0.000022
N31	N	1.508414	0.188273	-0.248763
C32	C	1.422530	0.274181	-0.701033
C33	C	1.594435	0.102377	-0.701000
C34	C	1.594420	0.102372	-0.600505
C35	C	1.508460	0.188275	-0.550268
C36	C	1.422515	0.274182	-0.600528
C37	C	1.680372	0.016476	-0.550238
C38	C	1.680361	0.016469	-0.449736
C39	C	1.594394	0.102367	-0.399498
C40	C	1.508444	0.188276	-0.449763
C41	C	1.422484	0.274179	-0.399527
C42	C	1.336528	0.360083	-0.449791
C43	C	1.336547	0.360079	-0.550290
C44	C	1.594374	0.102370	-0.298999
C45	C	1.422469	0.274180	-0.299022
N46	N	1.508490	0.188278	0.248731
H47	H	0.915202	0.298025	0.145223
O48	O	1.110015	0.068822	-0.158188
C49	C	1.256073	-0.102759	-0.220161
C50	C	1.197510	-0.034909	-0.130179
H51	H	1.326804	-0.186655	-0.197549
H52	H	1.308063	-0.032269	-0.264330
H53	H	1.176625	-0.139634	-0.265230
H54	H	1.276879	0.001968	-0.085036
H55	H	1.145488	-0.105447	-0.086083
O56	O	1.110384	0.068940	0.158009
C57	C	1.303296	0.004640	0.246440
C58	C	1.244405	0.072452	0.156541
H59	H	1.411657	0.007480	0.245293
H60	H	1.279648	-0.099203	0.247134
H61	H	1.262158	0.055523	0.313488
H62	H	1.285510	0.021674	0.089445
H63	H	1.268044	0.176298	0.155932
H64	H	0.956508	-0.037744	-0.000105
O65	O	1.678103	0.019052	-0.749747
C66	C	1.899216	-0.053642	-0.780407
C67	C	1.804606	0.040829	-0.725158
H68	H	2.001513	-0.036087	-0.760533
H69	H	1.884582	-0.038897	-0.860884
H70	H	1.881581	-0.155957	-0.760657
H71	H	1.822183	0.143181	-0.744829
H72	H	1.819262	0.025972	-0.644696
O73	O	1.763972	-0.067029	-0.598886
C74	C	1.934386	-0.237531	-0.588262
C75	C	1.839810	-0.142992	-0.533042
H76	H	1.995708	-0.298990	-0.535051
H77	H	1.998705	-0.181931	-0.635291
H78	H	1.878690	-0.301723	-0.635334
H79	H	1.895402	-0.078777	-0.485918
H80	H	1.775491	-0.198671	-0.486074
O81	O	0.906532	0.307623	-0.158101
C82	C	0.713878	0.370130	-0.247356
C83	C	0.772733	0.302285	-0.157458
H84	H	0.605691	0.365861	-0.246856
H85	H	0.756262	0.320437	-0.314483
H86	H	0.736115	0.474412	-0.247249
H87	H	0.750517	0.198002	-0.157473
H88	H	0.730347	0.352078	-0.090372
O89	O	1.754330	-0.254742	0.000270
C90	C	1.956580	-0.272298	0.083578
C91	C	1.816764	-0.305718	0.083373
H92	H	2.007106	-0.313520	0.150749
H93	H	1.958381	-0.163805	0.082967
H94	H	2.007787	-0.314903	0.017121
H95	H	1.765472	-0.263197	0.149819
H96	H	1.815055	-0.414220	0.083934
H97	H	1.618215	-0.405018	0.145262
H98	H	1.750350	-0.053479	-0.408817
H99	H	1.398813	-0.218660	0.145409
H100	H	1.282422	-0.363659	0.000081
H101	H	1.398770	-0.218413	-0.145256
H102	H	1.618164	-0.404967	-0.145255
O103	O	1.338918	0.357751	-0.250375
C104	C	1.168354	0.528102	-0.261013
C105	C	1.262925	0.433548	-0.316225
H106	H	1.106871	0.589390	-0.314229
H107	H	1.223928	0.592455	-0.213982
H108	H	1.104189	0.472387	-0.213944
H109	H	1.327113	0.489158	-0.363347
H110	H	1.207271	0.369195	-0.363195
O111	O	1.253158	0.443705	-0.401030
C112	C	1.180366	0.664786	-0.370322
C113	C	1.274869	0.570229	-0.425591
H114	H	1.197868	0.767100	-0.390175
H115	H	1.195132	0.650140	-0.289849
H116	H	1.078062	0.647106	-0.390078
H117	H	1.377211	0.587852	-0.405916
H118	H	1.259991	0.584897	-0.506051
O119	O	1.253187	0.443480	-0.599264
C120	C	1.176994	0.519576	-0.754106
C121	C	1.271480	0.425074	-0.698758
H122	H	1.191732	0.504709	-0.834557
H123	H	1.194539	0.621935	-0.734411
H124	H	1.074685	0.501983	-0.734314
H125	H	1.373824	0.442550	-0.718521
H126	H	1.253823	0.322747	-0.718458
H127	H	1.664364	0.032434	-0.258079
H128	H	1.060659	0.414190	-0.000088
H129	H	1.352542	0.344119	-0.741960
