data_functionalizedCrystal
_audit_creation_method	'MofGen! by Chris Wilmer'
_symmetry_space_group_name_H-M	'P1'
_symmetry_Int_Tables_number	1
_symmetry_cell_setting	triclinic
loop_
_symmetry_equiv_pos_as_xyz
  x,y,z
_cell_length_a	6.817900
_cell_length_b	13.694049
_cell_length_c	10.943624
_cell_angle_alpha	78.135196
_cell_angle_beta	108.838799
_cell_angle_gamma	106.285429
loop_
_atom_site_label
_atom_site_type_symbol
_atom_site_fract_x
_atom_site_fract_y
_atom_site_fract_z
V1	V	-4.076265	-0.140244	-0.353027
O2	O	-4.075097	0.006767	-0.397278
O3	O	-4.015652	-0.278106	-0.301591
O4	O	-4.054835	-0.138074	-0.529360
O5	O	-4.035643	-0.134234	-0.167932
V6	V	-4.557981	-0.122661	-0.336843
O7	O	-4.341488	-0.178813	-0.388527
O8	O	-4.742956	-0.084092	-0.301343
O9	O	-4.395388	0.015201	-0.388280
O10	O	-4.676546	-0.269671	-0.292593
O11	O	-4.716000	-0.128670	-0.521938
O12	O	-4.356205	-0.124830	-0.160511
C13	C	-3.856809	-0.311714	-0.283373
C14	C	-3.888717	-0.424418	-0.242493
C15	C	-3.846647	-0.462883	-0.110154
C16	C	-3.876652	-0.568773	-0.071729
C17	C	-3.948715	-0.636208	-0.165639
C18	C	-3.990772	-0.597743	-0.297980
C19	C	-3.960780	-0.491843	-0.336409
C20	C	-4.062848	-0.665168	-0.391893
C21	C	-4.104906	-0.626703	-0.524235
C22	C	-4.074913	-0.520813	-0.562657
C23	C	-4.002850	-0.453378	-0.468748
C24	C	-4.092841	-0.771068	-0.353464
C25	C	-4.206974	-0.800028	-0.579719
C26	C	-4.176968	-0.694138	-0.618144
C27	C	-3.906789	-0.133089	-0.573913
C28	C	-3.970470	-0.132227	-0.717744
C29	C	-3.816923	-0.126427	-0.796939
C30	C	-3.982197	-0.212525	-0.872526
C31	C	-3.918688	-0.044604	-0.898437
C32	C	-4.134933	-0.218407	-0.791425
C33	C	-4.071364	-0.050409	-0.817339
C34	C	-4.236768	-0.136532	-0.892887
C35	C	-4.217572	0.048804	-0.406493
C36	C	-4.164903	0.161507	-0.447380
C37	C	-4.167591	-0.129819	-0.115950
C38	C	-4.083149	-0.130675	0.027880
H39	H	-4.265650	-0.854934	-0.656188
H40	H	-3.945163	-0.281062	-0.897272
C41	C	-4.255734	-0.316423	-0.729167
C42	C	-4.194091	-0.316138	-0.594148
C43	C	-4.305294	-0.406419	-0.536749
H44	H	-4.404400	-0.320322	-0.762638
H45	H	-4.224283	-0.373962	-0.748333
H46	H	-4.225558	-0.258615	-0.574992
H47	H	-4.045443	-0.312255	-0.560641
H48	H	-4.273842	-0.463959	-0.555915
H49	H	-4.453954	-0.410311	-0.570230
H50	H	-4.263471	-0.406243	-0.445132
H51	H	-3.827881	0.028833	-0.945132
C52	C	-3.830761	-0.610330	0.072012
C53	C	-3.761176	-0.528612	0.146032
C54	C	-3.718848	-0.566854	0.278459
H55	H	-3.956819	-0.654314	0.088930
H56	H	-3.723152	-0.647710	0.094720
H57	H	-3.868777	-0.491249	0.123332
H58	H	-3.635106	-0.484621	0.129154
H59	H	-3.611239	-0.604233	0.301167
H60	H	-3.844913	-0.610837	0.295363
H61	H	-3.671611	-0.511414	0.328698
H62	H	-4.414882	-0.140825	-0.934615
H63	H	-3.787992	-0.407970	-0.033708
C64	C	-3.579545	-0.120835	-0.740704
C65	C	-3.522112	-0.120805	-0.605779
C66	C	-3.303462	-0.115647	-0.553930
H67	H	-3.547449	-0.178498	-0.759059
H68	H	-3.502273	-0.059676	-0.778691
H69	H	-3.599357	-0.181957	-0.567804
H70	H	-3.554154	-0.063145	-0.587388
H71	H	-3.226190	-0.054488	-0.591917
H72	H	-3.271387	-0.173311	-0.572294
H73	H	-3.264461	-0.115616	-0.462380
C74	C	-4.120994	-0.479205	-0.706396
C75	C	-4.335096	-0.518589	-0.769659
C76	C	-4.377619	-0.480298	-0.902074
H77	H	-4.093006	-0.406492	-0.716023
H78	H	-4.032607	-0.499246	-0.743684
H79	H	-4.423456	-0.498541	-0.732382
H80	H	-4.363134	-0.591299	-0.760069
H81	H	-4.289232	-0.500339	-0.939363
H82	H	-4.349621	-0.407585	-0.911688
H83	H	-4.522885	-0.507021	-0.945017
C84	C	-4.120197	0.041024	-0.784098
C85	C	-3.931637	0.101300	-0.713177
C86	C	-3.976513	0.185540	-0.682516
H87	H	-4.180571	0.080823	-0.862067
H88	H	-4.218155	0.017477	-0.733412
H89	H	-3.833714	0.124848	-0.763861
H90	H	-3.871235	0.061532	-0.635193
H91	H	-4.074470	0.161993	-0.631830
H92	H	-4.036889	0.225330	-0.760491
H93	H	-3.848587	0.226443	-0.634383
C94	C	-4.047397	-0.812687	-0.209750
C95	C	-4.178027	-0.783028	-0.155207
C96	C	-4.136196	-0.821334	-0.022808
H97	H	-4.075594	-0.885407	-0.200123
H98	H	-3.902203	-0.786053	-0.166556
H99	H	-4.323187	-0.809667	-0.198388
H100	H	-4.149852	-0.710314	-0.164798
H101	H	-3.991002	-0.794699	0.020386
H102	H	-4.164393	-0.894052	-0.013194
H103	H	-4.224806	-0.801208	0.014219
C104	C	-4.223041	-0.652519	-0.761879
C105	C	-4.437145	-0.691894	-0.825151
C106	C	-4.479657	-0.653588	-0.957561
H107	H	-4.195044	-0.579806	-0.771494
H108	H	-4.134656	-0.672558	-0.799172
H109	H	-4.525502	-0.671849	-0.787869
H110	H	-4.465192	-0.764603	-0.815574
H111	H	-4.391272	-0.673627	-0.994854
H112	H	-4.451648	-0.580876	-0.967162
H113	H	-4.624923	-0.680305	-1.000510
H114	H	-3.978429	-0.367153	-0.500027
H115	H	-3.973142	-0.722427	-0.134345
