data_functionalizedCrystal
_audit_creation_method	'MofGen! by Chris Wilmer'
_symmetry_space_group_name_H-M	'P1'
_symmetry_Int_Tables_number	1
_symmetry_cell_setting	triclinic
loop_
_symmetry_equiv_pos_as_xyz
  x,y,z
_cell_length_a	17.699083
_cell_length_b	15.625429
_cell_length_c	16.776229
_cell_angle_alpha	71.916203
_cell_angle_beta	89.998886
_cell_angle_gamma	83.783281
loop_
_atom_site_label
_atom_site_type_symbol
_atom_site_fract_x
_atom_site_fract_y
_atom_site_fract_z
O1	O	1.004375	0.114008	-0.099126
O2	O	0.784035	0.128841	-0.103439
O3	O	0.900090	-0.009827	-0.063343
O4	O	0.888320	0.252675	-0.139222
O5	O	0.900075	-0.009835	0.069235
O6	O	0.784020	0.128832	0.029140
O7	O	1.004359	0.113999	0.033453
Zn8	Zn	0.894187	0.121414	0.052346
Zn9	Zn	0.894207	0.121426	-0.122332
O10	O	0.888304	0.252667	-0.006643
C11	C	0.755829	0.128305	-0.036999
C12	C	0.671807	0.126710	-0.036548
C13	C	0.899549	-0.043418	0.012653
C14	C	0.897950	-0.143495	0.041575
C15	C	0.623397	0.208105	-0.060076
C16	C	0.544450	0.206602	-0.059631
C17	C	0.513914	0.123702	-0.035664
C18	C	0.562329	0.042301	-0.012132
C19	C	0.641275	0.043806	-0.012572
C20	C	0.243951	0.036232	-0.010358
C21	C	0.164999	0.034734	-0.009923
C22	C	0.147125	0.199028	-0.057417
C23	C	0.226071	0.200533	-0.057857
C24	C	0.274480	0.119132	-0.034321
C25	C	0.360083	0.120763	-0.034802
C26	C	0.428312	0.122070	-0.035188
C27	C	0.892713	-0.472616	-0.224618
C28	C	0.891207	-0.566654	-0.197416
C29	C	0.891191	-0.566649	-0.052888
C30	C	0.892700	-0.472610	-0.080077
C31	C	0.893460	-0.425601	-0.165943
C32	C	0.893447	-0.425595	-0.021402
C33	C	0.894953	-0.331564	-0.048590
C34	C	0.895710	-0.284548	-0.134452
C35	C	0.894965	-0.331570	-0.193131
C36	C	0.892682	-0.472605	0.064463
C37	C	0.893429	-0.425590	0.123138
C38	C	0.894940	-0.331558	0.095950
C39	C	0.895698	-0.284542	0.010088
C40	C	0.895685	-0.284536	0.154629
C41	C	0.897190	-0.190505	0.127441
C42	C	0.897203	-0.190511	-0.017100
C43	C	1.032565	0.114535	-0.032989
C44	C	1.116588	0.116130	-0.033445
C45	C	0.888846	0.286258	-0.082640
C46	C	0.890444	0.386335	-0.111568
N47	N	0.894179	0.121406	0.171560
N48	N	0.894222	0.121427	-0.241544
C49	C	0.945584	0.060029	0.231024
C50	C	0.945588	0.060029	0.314476
C51	C	0.894190	0.121410	0.338462
C52	C	0.842780	0.182789	0.278991
C53	C	0.842772	0.182785	0.195541
C54	C	0.842807	0.182807	0.615533
C55	C	0.842820	0.182808	0.698989
C56	C	0.945622	0.060051	0.734468
C57	C	0.945615	0.060046	0.651018
C58	C	0.894202	0.121422	0.591556
C59	C	0.894198	0.121421	0.501068
C60	C	0.894198	0.121416	0.428947
H61	H	0.648253	0.275612	-0.079593
H62	H	0.987440	0.010050	0.211501
Br63	Br	0.773062	0.266118	0.731539
H64	H	0.107701	0.265308	-0.076577
Br65	Br	0.890185	-0.630457	-0.277056
Br66	Br	0.267509	0.313043	-0.090392
Br67	Br	0.309638	-0.074241	0.021585
H68	H	0.537461	-0.025197	0.007394
H69	H	0.897782	-0.152222	0.175219
H70	H	0.895591	-0.293293	-0.263051
Br71	Br	1.015350	-0.023273	0.395182
Br72	Br	0.706975	-0.066663	0.019367
Br73	Br	0.773037	0.266102	0.534839
Br74	Br	0.478754	0.317071	-0.091565
H75	H	0.987470	0.010067	0.631493
Br76	Br	1.015398	-0.023249	0.815172
Br77	Br	0.890150	-0.630454	0.063640
H78	H	0.800927	0.232764	0.298525
Br79	Br	0.898250	-0.126706	-0.133633
H80	H	0.892807	-0.463878	0.193050
H81	H	0.140140	-0.032777	0.009596
H82	H	0.800912	0.232763	0.147125
H83	H	0.896928	-0.207980	-0.156588
H84	H	0.893339	-0.434339	-0.294538
H85	H	0.891448	-0.549171	0.086596
Br86	Br	0.894634	-0.348342	0.271156
