data_functionalizedCrystal
_audit_creation_method	'MofGen! by Chris Wilmer'
_symmetry_space_group_name_H-M	'P1'
_symmetry_Int_Tables_number	1
_symmetry_cell_setting	triclinic
loop_
_symmetry_equiv_pos_as_xyz
  x,y,z
_cell_length_a	13.897441
_cell_length_b	12.759401
_cell_length_c	12.759399
_cell_angle_alpha	90.016641
_cell_angle_beta	90.029233
_cell_angle_gamma	90.020083
loop_
_atom_site_label
_atom_site_type_symbol
_atom_site_fract_x
_atom_site_fract_y
_atom_site_fract_z
Zn1	Zn	-0.545374	-1.606254	0.418190
Zn2	Zn	-0.212040	-1.272921	0.751523
Zn3	Zn	0.121293	-0.939588	1.084857
Zn4	Zn	-0.384079	-1.606147	0.593901
Zn5	Zn	-0.050746	-1.272814	0.927234
Zn6	Zn	0.282588	-0.939480	1.260567
Zn7	Zn	-0.384094	-1.430556	0.418241
Zn8	Zn	-0.050760	-1.097222	0.751574
Zn9	Zn	0.282573	-0.763889	1.084907
Zn10	Zn	-0.545333	-1.430544	0.593832
Zn11	Zn	-0.212000	-1.097210	0.927166
Zn12	Zn	0.121333	-0.763877	1.260499
O13	O	-0.464720	-1.518375	0.506041
O14	O	-0.131387	-1.185042	0.839374
O15	O	0.201947	-0.851709	1.172708
O16	O	-0.523988	-1.753261	0.441506
O17	O	-0.190655	-1.419928	0.774839
O18	O	0.142679	-1.086595	1.108172
O19	O	-0.249099	-1.582814	0.570649
O20	O	0.084234	-1.249481	0.903982
O21	O	0.417568	-0.916148	1.237315
O22	O	-0.405511	-1.453913	0.271213
O23	O	-0.072178	-1.120579	0.604546
O24	O	0.261156	-0.787246	0.937880
O25	O	-0.405486	-1.753182	0.570599
O26	O	-0.072152	-1.419849	0.903933
O27	O	0.261181	-1.086516	1.237266
O28	O	-0.524003	-1.582998	0.271176
O29	O	-0.190669	-1.249664	0.604509
O30	O	0.142664	-0.916331	0.937842
O31	O	-0.249110	-1.453808	0.441592
O32	O	0.084223	-1.120475	0.774926
O33	O	0.417557	-0.787142	1.108259
O34	O	-0.405472	-1.283533	0.441526
O35	O	-0.072139	-0.950200	0.774859
O36	O	0.261195	-0.616867	1.108193
O37	O	-0.680320	-1.453892	0.570483
O38	O	-0.346987	-1.120559	0.903816
O39	O	-0.013654	-0.787226	1.237150
O40	O	-0.523934	-1.283524	0.570532
O41	O	-0.190601	-0.950191	0.903866
O42	O	0.142733	-0.616858	1.237199
O43	O	-0.680350	-1.582986	0.441440
O44	O	-0.347017	-1.249653	0.774773
O45	O	-0.013683	-0.916319	1.108106
O46	O	-0.405446	-1.582803	0.740912
O47	O	-0.072113	-1.249469	1.074246
O48	O	0.261220	-0.916136	1.407579
O49	O	-0.523919	-1.453788	0.740862
O50	O	-0.190586	-1.120455	1.074196
O51	O	0.142747	-0.787121	1.407529
C52	C	-0.464701	-1.245408	0.506028
C53	C	-0.131367	-0.912075	0.839361
C54	C	0.201966	-0.578741	1.172695
C55	C	-0.464715	-1.128631	0.506048
C56	C	-0.131382	-0.795298	0.839381
C57	C	0.201951	-0.461965	1.172715
C58	C	-0.716313	-1.518450	0.505948
C59	C	-0.382980	-1.185116	0.839281
C60	C	-0.049646	-0.851783	1.172615
C61	C	-0.823527	-1.518482	0.505908
C62	C	-0.490194	-1.185148	0.839242
C63	C	-0.156860	-0.851815	1.172575
C64	C	-0.464698	-1.518311	0.779008
C65	C	-0.131365	-1.184978	1.112342
C66	C	0.201969	-0.851644	1.445675
C67	C	-0.464721	-1.518379	0.895785
C68	C	-0.131387	-1.185046	1.229118
C69	C	0.201946	-0.851713	1.562452
C70	C	-1.019822	-1.518510	0.505837
C71	C	-0.686489	-1.185177	0.839171
C72	C	-0.353156	-0.851843	1.172504
C73	C	-0.910590	-1.518491	0.505880
C74	C	-0.577256	-1.185158	0.839213
C75	C	-0.243923	-0.851824	1.172547
C76	C	-0.214106	-1.518361	0.506058
C77	C	0.119228	-1.185028	0.839391
C78	C	0.452561	-0.851695	1.172724
C79	C	-0.106892	-1.518533	0.505801
C80	C	0.226441	-1.185200	0.839135
C81	C	0.559775	-0.851867	1.172468
C82	C	-0.464740	-1.792408	0.506055
C83	C	-0.131406	-1.459075	0.839388
C84	C	0.201927	-1.125742	1.172721
C85	C	-0.464748	-1.909185	0.506060
C86	C	-0.131415	-1.575852	0.839394
C87	C	0.201919	-1.242518	1.172727
C88	C	-0.526301	-1.073792	0.573324
C89	C	-0.192968	-0.740459	0.906657
C90	C	0.140365	-0.407126	1.239990
C91	C	-0.526321	-0.964068	0.573328
C92	C	-0.192987	-0.630735	0.906661
C93	C	0.140346	-0.297401	1.239994
C94	C	-0.403159	-0.964032	0.438777
C95	C	-0.069826	-0.630699	0.772111
C96	C	0.263507	-0.297365	1.105444
C97	C	-0.403146	-1.073754	0.438769
C98	C	-0.069812	-0.740421	0.772102
C99	C	0.263521	-0.407087	1.105435
C100	C	-0.464763	-1.518469	0.232008
C101	C	-0.131430	-1.185135	0.565341
C102	C	0.201904	-0.851802	0.898674
C103	C	-0.464781	-1.518508	0.115231
C104	C	-0.131448	-1.185175	0.448564
C105	C	0.201885	-0.851842	0.781898
C106	C	-0.403102	-1.585634	0.950638
C107	C	-0.069769	-1.252301	1.283971
C108	C	0.263565	-0.918967	1.617305
C109	C	-0.403134	-1.585702	1.060362
C110	C	-0.069801	-1.252368	1.393695
C111	C	0.263532	-0.919035	1.727029
C112	C	-0.526407	-1.451251	1.060370
C113	C	-0.193074	-1.117917	1.393703
C114	C	0.140260	-0.784584	1.727037
C115	C	-0.526379	-1.451189	0.950648
C116	C	-0.193045	-1.117856	1.283981
C117	C	0.140288	-0.784523	1.617315
H118	H	-0.576438	-1.118470	0.628104
H119	H	-0.243105	-0.785137	0.961437
H120	H	0.090229	-0.451803	1.294771
N121	N	-0.336712	-1.132897	0.366199
N122	N	-0.003378	-0.799564	0.699532
N123	N	0.329955	-0.466231	1.032865
H124	H	-0.291937	-1.178391	0.408828
H125	H	0.041396	-0.845058	0.742161
H126	H	0.374730	-0.511725	1.075494
H127	H	-0.376054	-1.178389	0.317573
H128	H	-0.042720	-0.845055	0.650906
H129	H	0.290613	-0.511722	0.984239
H130	H	-0.576472	-0.919423	0.628109
H131	H	-0.243138	-0.586090	0.961442
H132	H	0.090195	-0.252756	1.294775
H133	H	-0.576561	-1.396422	0.905984
H134	H	-0.243227	-1.063089	1.239317
H135	H	0.090106	-0.729756	1.572650
H136	H	-0.353030	-0.919337	0.384003
H137	H	-0.019697	-0.586004	0.717336
H138	H	0.313637	-0.252671	1.050669
H139	H	-0.352898	-1.640346	0.905971
H140	H	-0.019565	-1.307013	1.239304
H141	H	0.313769	-0.973679	1.572638
H142	H	-0.352960	-1.640469	1.105019
H143	H	-0.019626	-1.307135	1.438352
H144	H	0.313707	-0.973802	1.771685
H145	H	-0.576605	-1.396545	1.105053
H146	H	-0.243272	-1.063212	1.438386
H147	H	0.090061	-0.729879	1.771720
