data_functionalizedCrystal
_audit_creation_method	'MofGen! by Chris Wilmer'
_symmetry_space_group_name_H-M	'P1'
_symmetry_Int_Tables_number	1
_symmetry_cell_setting	triclinic
loop_
_symmetry_equiv_pos_as_xyz
  x,y,z
_cell_length_a	19.077236
_cell_length_b	12.594516
_cell_length_c	19.076919
_cell_angle_alpha	87.724265
_cell_angle_beta	90.112677
_cell_angle_gamma	92.304758
loop_
_atom_site_label
_atom_site_type_symbol
_atom_site_fract_x
_atom_site_fract_y
_atom_site_fract_z
Zn1	Zn	1.058347	-0.386368	0.440560
Zn2	Zn	1.063012	-0.556940	0.323062
Zn3	Zn	0.945562	-0.385810	0.318340
Zn4	Zn	0.940833	-0.571140	0.435801
O5	O	1.001938	-0.475065	0.379441
O6	O	1.157299	-0.403286	0.428942
O7	O	1.051363	-0.528063	0.224104
O8	O	0.960551	-0.236938	0.334569
O9	O	1.160726	-0.528605	0.342616
O10	O	1.043413	-0.237348	0.424364
O11	O	0.965074	-0.402335	0.220636
O12	O	0.846602	-0.416104	0.329954
O13	O	0.952490	-0.552806	0.534763
O14	O	0.843127	-0.552265	0.416251
O15	O	1.038827	-0.417055	0.538260
O16	O	1.046777	-0.707771	0.338001
O17	O	0.957013	-0.718203	0.420830
C18	C	0.819368	-0.485665	0.372074
C19	C	0.741263	-0.490227	0.368939
C20	C	0.702783	-0.427236	0.412480
C21	C	0.629395	-0.431517	0.409529
C22	C	0.594489	-0.498795	0.363039
C23	C	0.632974	-0.561788	0.319494
C24	C	0.706361	-0.557501	0.322442
C25	C	0.375198	-0.518595	0.349391
C26	C	0.301806	-0.522880	0.346447
C27	C	0.298232	-0.392606	0.436482
C28	C	0.371620	-0.388330	0.439429
C29	C	0.410099	-0.451319	0.395881
N30	N	0.519475	-0.503174	0.360023
N31	N	0.485112	-0.446933	0.398894
C32	C	1.001906	-0.751607	0.379427
C33	C	1.001956	-0.869910	0.379448
C34	C	1.050831	-0.933451	0.334449
C35	C	1.065423	-1.007210	0.399276
C36	C	0.987451	-1.006947	0.314666
C37	C	1.016579	-0.942112	0.444309
C38	C	0.938579	-0.941842	0.359654
C39	C	0.953144	-1.015574	0.424524
C40	C	1.185222	-0.464423	0.386837
C41	C	1.263326	-0.459889	0.389988
C42	C	0.994611	-0.486577	0.562721
C43	C	0.991488	-0.491482	0.640824
C44	C	1.001989	-0.197443	0.379471
C45	C	1.002011	-0.079137	0.379483
C46	C	1.009278	-0.463518	0.196876
C47	C	1.012537	-0.458305	0.118779
C48	C	1.034970	-0.423112	0.679338
C49	C	1.032027	-0.427718	0.752724
C50	C	0.985605	-0.500700	0.787594
C51	C	0.942119	-0.569073	0.749074
C52	C	0.945059	-0.564462	0.675689
C53	C	0.971990	-0.522067	1.006874
C54	C	0.969055	-0.526676	1.080264
C55	C	1.058963	-0.385318	1.083909
C56	C	1.061901	-0.380717	1.010523
C57	C	1.018412	-0.449086	0.972009
N58	N	0.982598	-0.505412	0.862606
N59	N	1.021417	-0.444369	0.896999
H60	H	0.604548	-0.616563	0.281637
Cl61	Cl	0.889364	-1.070668	0.483367
Cl62	Cl	1.148209	-1.051659	0.425166
Cl63	Cl	0.746657	-0.342658	0.470931
Cl64	Cl	1.086723	-0.341807	0.801141
H65	H	1.094368	-0.329654	1.115275
Cl66	Cl	0.415497	-0.303755	0.497880
Cl67	Cl	0.855816	-0.897336	0.333751
H68	H	0.406519	-0.569887	0.313931
H69	H	0.273388	-0.577671	0.308589
H70	H	1.028815	-0.913671	0.499154
Cl71	Cl	0.968473	-1.051072	0.230060
H72	H	0.931251	-0.586109	1.108653
Cl73	Cl	1.114649	-0.878062	0.275752
Cl74	Cl	1.093335	-0.331363	0.635509
Cl75	Cl	1.120262	-0.288964	0.966692
H76	H	0.904319	-0.628494	0.777471
H77	H	0.598067	-0.380224	0.444986
H78	H	0.936589	-0.577753	0.975525
H79	H	0.909644	-0.620126	0.644331
H80	H	0.737691	-0.608795	0.286986
Cl81	Cl	0.249854	-0.313422	0.491223
