data_functionalizedCrystal
_audit_creation_method	'MofGen! by Chris Wilmer'
_symmetry_space_group_name_H-M	'P1'
_symmetry_Int_Tables_number	1
_symmetry_cell_setting	triclinic
loop_
_symmetry_equiv_pos_as_xyz
  x,y,z
_cell_length_a	14.853567
_cell_length_b	14.853567
_cell_length_c	13.330367
_cell_angle_alpha	89.999156
_cell_angle_beta	89.995418
_cell_angle_gamma	83.634930
loop_
_atom_site_label
_atom_site_type_symbol
_atom_site_fract_x
_atom_site_fract_y
_atom_site_fract_z
O1	O	1.196369	0.117704	-0.083346
O2	O	0.933909	0.131725	-0.083362
O3	O	1.072150	-0.006515	-0.083356
O4	O	1.058128	0.255944	-0.083351
O5	O	1.072130	-0.006519	0.083491
O6	O	0.933889	0.131722	0.083485
O7	O	1.196349	0.117700	0.083501
Cu8	Cu	1.065117	0.124711	0.098728
Cu9	Cu	1.065141	0.124715	-0.098588
O10	O	1.058108	0.255941	0.083496
C11	C	0.900311	0.131088	0.000060
C12	C	0.800227	0.129184	0.000053
C13	C	1.071504	-0.040106	0.000064
C14	C	1.069601	-0.140189	0.000055
C15	C	0.387693	0.039019	0.000074
C16	C	0.366412	0.203251	0.000076
C17	C	0.460446	0.205042	0.000073
C18	C	0.518108	0.123819	0.000069
C19	C	0.481736	0.040806	0.000067
C20	C	0.496825	0.288053	0.000064
C21	C	0.590864	0.289846	0.000059
C22	C	0.648528	0.208623	0.000062
C23	C	0.612150	0.125607	0.000062
C24	C	0.669812	0.044384	0.000058
C25	C	0.633437	-0.038633	0.000065
C26	C	0.539399	-0.040417	0.000070
C27	C	0.742565	0.210407	0.000057
C28	C	0.763855	0.046172	0.000052
C29	C	0.979435	-0.552723	0.000069
C30	C	1.143668	-0.574004	0.000079
C31	C	1.145458	-0.479971	0.000073
C32	C	1.064235	-0.422309	0.000067
C33	C	0.981223	-0.458680	0.000066
C34	C	1.228469	-0.443591	0.000084
C35	C	1.230262	-0.349552	0.000079
C36	C	1.149039	-0.291889	0.000066
C37	C	1.066023	-0.328266	0.000064
C38	C	0.984800	-0.270604	0.000058
C39	C	0.901783	-0.306979	0.000049
C40	C	0.899999	-0.401017	0.000053
C41	C	1.150823	-0.197851	0.000062
C42	C	0.986588	-0.176561	0.000055
C43	C	1.229947	0.118337	0.000078
C44	C	1.330031	0.120241	0.000078
C45	C	1.058754	0.289531	0.000073
C46	C	1.060657	0.389615	0.000075
N47	N	1.065107	0.124708	0.237509
N48	N	1.065158	0.124711	-0.237370
C49	C	1.003925	0.185903	0.710130
C50	C	1.126381	0.063519	0.710103
C51	C	1.126371	0.063516	0.605084
C52	C	1.065138	0.124709	0.552584
C53	C	1.003915	0.185904	0.605102
C54	C	1.187598	0.002328	0.552559
C55	C	1.187591	0.002323	0.447534
C56	C	1.126353	0.063512	0.395031
C57	C	1.065127	0.124710	0.447556
C58	C	1.003895	0.185902	0.395055
C59	C	0.942664	0.247096	0.447578
C60	C	0.942677	0.247093	0.552599
C61	C	1.126340	0.063515	0.290010
C62	C	1.003884	0.185903	0.290027
H63	H	0.810798	-0.019971	0.000052
N64	N	1.253624	-0.063685	0.390897
H65	H	1.219120	-0.103667	0.347336
H66	H	1.293563	-0.029102	0.347368
H67	H	1.209795	-0.620958	0.000092
H68	H	0.680397	-0.104764	0.000055
N69	N	1.192378	-0.002471	0.233360
H70	H	1.231174	-0.041232	0.282555
H71	H	1.157818	-0.042396	0.189794
N72	N	0.630095	0.379380	0.000045
H73	H	0.579296	0.430561	0.000045
H74	H	0.668646	0.383703	0.061895
H75	H	1.294596	-0.490546	0.000099
N76	N	0.814175	-0.244792	0.000041
H77	H	0.777957	-0.256507	0.061888
H78	H	0.827977	-0.179726	0.000008
H79	H	1.297860	-0.319944	0.000085
N80	N	0.500167	-0.129950	0.000086
H81	H	0.431846	-0.118756	0.000088
H82	H	0.521252	-0.165501	-0.061765
H83	H	1.237457	-0.047489	0.595308
N84	N	0.348456	-0.050512	0.000079
H85	H	0.369473	-0.086101	-0.061773
H86	H	0.369486	-0.086029	0.061968
N87	N	1.240350	-0.158615	0.000082
H88	H	1.291533	-0.209413	0.000093
H89	H	1.244683	-0.120065	-0.061772
N90	N	0.937832	0.251898	0.233404
H91	H	0.899047	0.290658	0.282615
H92	H	0.972384	0.291823	0.189823
H93	H	0.892811	0.296924	0.404820
N94	N	0.898980	-0.114374	0.000067
H95	H	0.912706	-0.049281	0.000074
H96	H	0.862810	-0.126158	-0.061785
N97	N	0.876640	0.313090	0.609246
H98	H	0.885943	0.303805	0.683743
H99	H	0.887128	0.377066	0.590885
N100	N	0.810470	-0.440257	0.000055
H101	H	0.774875	-0.419234	0.061903
H102	H	0.774957	-0.419237	-0.061838
N103	N	0.937888	0.251908	0.766765
H104	H	0.873894	0.241406	0.748496
H105	H	0.947257	0.242594	0.841246
N106	N	0.889903	-0.591957	0.000065
H107	H	0.854308	-0.570938	0.061914
H108	H	0.854393	-0.570928	-0.061827
N109	N	1.192422	-0.002471	0.766733
H110	H	1.157926	-0.042447	0.810318
H111	H	1.231191	-0.041179	0.717468
N112	N	0.304226	0.290852	0.000070
H113	H	0.239134	0.277123	0.000070
H114	H	0.316010	0.327022	0.061923
H115	H	0.772178	0.277998	0.000053
N116	N	0.434637	0.375652	0.000058
H117	H	0.369546	0.361921	0.000067
H118	H	0.446426	0.411827	0.061906
