data_functionalizedCrystal
_audit_creation_method	'MofGen! by Chris Wilmer'
_symmetry_space_group_name_H-M	'P1'
_symmetry_Int_Tables_number	1
_symmetry_cell_setting	triclinic
loop_
_symmetry_equiv_pos_as_xyz
  x,y,z
_cell_length_a	16.109318
_cell_length_b	15.944493
_cell_length_c	15.186229
_cell_angle_alpha	90.002130
_cell_angle_beta	90.000224
_cell_angle_gamma	83.471803
loop_
_atom_site_label
_atom_site_type_symbol
_atom_site_fract_x
_atom_site_fract_y
_atom_site_fract_z
O1	O	1.103134	0.108039	-0.073144
O2	O	0.861076	0.121460	-0.073160
O3	O	0.988740	-0.007531	-0.073159
O4	O	0.975470	0.237029	-0.073145
O5	O	0.988732	-0.007533	0.073299
O6	O	0.861067	0.121458	0.073297
O7	O	1.103126	0.108037	0.073314
Zn8	Zn	0.982095	0.114747	0.096559
Zn9	Zn	0.982106	0.114750	-0.096405
O10	O	0.975461	0.237027	0.073312
C11	C	0.830097	0.120913	0.000066
C12	C	0.737802	0.119275	0.000059
C13	C	0.988194	-0.038826	0.000066
C14	C	0.986568	-0.132074	0.000055
C15	C	0.438733	0.113987	-0.079759
C16	C	0.525454	0.115520	-0.079765
C17	C	0.525464	0.115507	0.079911
C18	C	0.438744	0.113968	0.079916
C19	C	0.395381	0.113212	0.000078
C20	C	0.568821	0.116284	0.000068
C21	C	0.662848	0.117947	0.000063
C22	C	0.301348	0.111548	0.000083
C23	C	1.061714	-0.367854	0.000077
C24	C	1.021194	-0.418411	-0.072137
C25	C	0.983555	-0.302795	0.000065
C26	C	1.021168	-0.418389	0.072259
C27	C	0.980650	-0.467703	0.000079
C28	C	0.943056	-0.352123	-0.072208
C29	C	0.943041	-0.352097	0.072253
C30	C	0.902464	-0.402621	0.000022
C31	C	0.985230	-0.207795	0.000056
C32	C	0.978968	-0.562700	0.000082
C33	C	1.134105	0.108584	0.000085
C34	C	1.226400	0.110221	0.000086
C35	C	0.976008	0.268323	0.000085
C36	C	0.977634	0.361571	0.000091
N37	N	0.982094	0.114745	0.228251
N38	N	0.982115	0.114745	-0.228098
C39	C	1.038643	0.057647	0.453975
C40	C	1.038645	0.057645	0.546164
C41	C	0.925560	0.171846	0.546172
C42	C	0.925554	0.171843	0.453984
C43	C	0.982100	0.114745	0.407888
C44	C	0.982108	0.114745	0.592266
C45	C	0.982111	0.114744	0.692222
C46	C	0.982097	0.114745	0.307925
H47	H	0.560747	0.116150	-0.144776
H48	H	1.054188	-0.447329	0.133305
O49	O	0.396476	0.113280	-0.157231
C50	C	0.310641	0.111735	-0.140112
H51	H	0.295353	0.138100	-0.071497
H52	H	0.294764	0.043950	-0.143901
C53	C	0.277756	0.133618	-0.293256
C54	C	0.258977	0.166006	-0.208985
H55	H	0.245886	0.167091	-0.335741
H56	H	0.335585	0.134655	-0.304791
H57	H	0.264525	0.077131	-0.296400
H58	H	0.272218	0.222488	-0.205838
H59	H	0.201149	0.164979	-0.197451
O60	O	0.396612	0.113062	0.157453
C61	C	0.355864	0.039474	0.162208
H62	H	0.388587	-0.010871	0.116892
H63	H	0.288009	0.054744	0.140764
C64	C	0.318622	0.068303	0.313241
C65	C	0.358817	0.006467	0.257589
H66	H	0.320440	0.047944	0.372077
H67	H	0.346072	0.117883	0.310037
H68	H	0.262080	0.081023	0.295361
H69	H	0.415361	-0.006244	0.275463
H70	H	0.331377	-0.043116	0.260798
H71	H	0.910058	-0.323128	0.133302
H72	H	1.084685	0.011153	0.416445
H73	H	1.084687	0.011150	0.583686
O74	O	0.870719	0.227282	0.591089
C75	C	0.882835	0.215030	0.682339
H76	H	0.948937	0.183657	0.694925
H77	H	0.835788	0.172886	0.708506
C78	C	0.789144	0.339490	0.714210
C79	C	0.870334	0.300963	0.729669
H80	H	0.781429	0.392496	0.743407
H81	H	0.780978	0.347743	0.652733
H82	H	0.749947	0.304361	0.736016
H83	H	0.909529	0.336086	0.707853
H84	H	0.878506	0.292718	0.791144
O85	O	0.567695	0.116138	0.157405
C86	C	0.627272	0.044314	0.162182
H87	H	0.643401	0.020309	0.092862
H88	H	0.600457	-0.007193	0.201578
C89	C	0.686974	0.097345	0.292962
C90	C	0.706790	0.067866	0.207822
H91	H	0.736024	0.111871	0.321118
H92	H	0.646834	0.145733	0.289746
H93	H	0.664627	0.054418	0.325781
H94	H	0.729127	0.110797	0.175001
H95	H	0.746936	0.019486	0.211033
O96	O	1.142030	-0.349233	-0.000175
C97	C	1.182946	-0.383171	-0.076452
H98	H	1.134665	-0.392496	-0.129388
H99	H	1.219792	-0.446548	-0.059978
C100	C	1.302387	-0.310577	-0.045504
C101	C	1.243087	-0.322024	-0.110523
H102	H	1.339488	-0.272862	-0.066520
H103	H	1.274823	-0.287715	0.005887
H104	H	1.333083	-0.363396	-0.031782
H105	H	1.212386	-0.269208	-0.124236
H106	H	1.270648	-0.344876	-0.161918
O107	O	1.060634	-0.452825	-0.144991
C108	C	1.090482	-0.388521	-0.195713
H109	H	1.098273	-0.331946	-0.151816
H110	H	1.043939	-0.368556	-0.250430
C111	C	1.165862	-0.491158	-0.290419
C112	C	1.175439	-0.421674	-0.236502
H113	H	1.218266	-0.511608	-0.315583
H114	H	1.145751	-0.534481	-0.256249
H115	H	1.127074	-0.474511	-0.336009
H116	H	1.214219	-0.438324	-0.190908
H117	H	1.195559	-0.378354	-0.270666
O118	O	0.870594	0.227393	0.409346
C119	C	0.820677	0.277780	0.469798
H120	H	0.854764	0.278748	0.535511
H121	H	0.758924	0.250484	0.479607
C122	C	0.761657	0.367200	0.353104
C123	C	0.803526	0.368394	0.433812
H124	H	0.751074	0.423094	0.330905
H125	H	0.795284	0.333252	0.312375
H126	H	0.710201	0.344449	0.361289
H127	H	0.854985	0.391135	0.425624
H128	H	0.769907	0.402349	0.474538
H129	H	0.835088	-0.418069	-0.000022
O130	O	0.903780	-0.317606	-0.145103
C131	C	0.905830	-0.229442	-0.144240
H132	H	0.960004	-0.213472	-0.101433
H133	H	0.844585	-0.197373	-0.116337
C134	C	0.851085	-0.217643	-0.291390
C135	C	0.917627	-0.198029	-0.238820
H136	H	0.858358	-0.198264	-0.349732
H137	H	0.849700	-0.277040	-0.291971
H138	H	0.800054	-0.190917	-0.268128
H139	H	0.968655	-0.224763	-0.262076
H140	H	0.919021	-0.138635	-0.238245
