data_functionalizedCrystal
_audit_creation_method	'MofGen! by Chris Wilmer'
_symmetry_space_group_name_H-M	'P1'
_symmetry_Int_Tables_number	1
_symmetry_cell_setting	triclinic
loop_
_symmetry_equiv_pos_as_xyz
  x,y,z
_cell_length_a	21.295418
_cell_length_b	29.839131
_cell_length_c	21.295411
_cell_angle_alpha	90.028018
_cell_angle_beta	90.043738
_cell_angle_gamma	90.051038
loop_
_atom_site_label
_atom_site_type_symbol
_atom_site_fract_x
_atom_site_fract_y
_atom_site_fract_z
Zn1	Zn	0.962335	-0.178715	0.356206
Zn2	Zn	1.295668	0.154618	0.689539
Zn3	Zn	1.629002	0.487952	1.022872
Zn4	Zn	0.962229	-0.253830	0.250919
Zn5	Zn	1.295562	0.079503	0.584253
Zn6	Zn	1.628896	0.412836	0.917586
Zn7	Zn	0.857058	-0.178736	0.250916
Zn8	Zn	1.190392	0.154597	0.584249
Zn9	Zn	1.523725	0.487931	0.917582
Zn10	Zn	0.857019	-0.253839	0.356116
Zn11	Zn	1.190352	0.079494	0.689449
Zn12	Zn	1.523686	0.412827	1.022783
O13	O	0.909660	-0.216280	0.303539
O14	O	1.242994	0.117053	0.636872
O15	O	1.576327	0.450387	0.970206
O16	O	1.050410	-0.188667	0.342279
O17	O	1.383744	0.144667	0.675612
O18	O	1.717077	0.478000	1.008945
O19	O	0.948250	-0.243874	0.162829
O20	O	1.281583	0.089459	0.496163
O21	O	1.614916	0.422793	0.829496
O22	O	0.871084	-0.115866	0.264918
O23	O	1.204418	0.217467	0.598252
O24	O	1.537751	0.550801	0.931585
O25	O	1.050332	-0.243854	0.264925
O26	O	1.383666	0.089480	0.598258
O27	O	1.716999	0.422813	0.931592
O28	O	0.948431	-0.115851	0.342275
O29	O	1.281764	0.217483	0.675608
O30	O	1.615098	0.550816	1.008941
O31	O	0.870981	-0.188703	0.162827
O32	O	1.204315	0.144631	0.496160
O33	O	1.537648	0.477964	0.829493
O34	O	0.768964	-0.188711	0.264831
O35	O	1.102297	0.144622	0.598165
O36	O	1.435630	0.477956	0.931498
O37	O	0.871017	-0.243869	0.444217
O38	O	1.204351	0.089465	0.777551
O39	O	1.537684	0.422798	1.110884
O40	O	0.768935	-0.243889	0.342122
O41	O	1.102268	0.089444	0.675455
O42	O	1.435601	0.422777	1.008788
O43	O	0.948393	-0.188675	0.444283
O44	O	1.281726	0.144658	0.777617
O45	O	1.615059	0.477991	1.110950
O46	O	0.948212	-0.316699	0.264838
O47	O	1.281545	0.016635	0.598171
O48	O	1.614878	0.349968	0.931505
O49	O	0.870914	-0.316705	0.342125
O50	O	1.204248	0.016628	0.675459
O51	O	1.537581	0.349961	1.008792
C52	C	0.746109	-0.216304	0.303467
C53	C	1.079442	0.117030	0.636800
C54	C	1.412775	0.450363	0.970133
C55	C	0.676141	-0.216325	0.303451
C56	C	1.009474	0.117009	0.636784
C57	C	1.342807	0.450342	0.970117
C58	C	0.909564	-0.333003	0.303486
C59	C	1.242898	0.000331	0.636819
C60	C	1.576231	0.333664	0.970153
C61	C	0.909581	-0.382937	0.303484
C62	C	1.242914	-0.049604	0.636818
C63	C	1.576248	0.283729	0.970151
C64	C	0.643275	-0.245094	0.343635
C65	C	0.976609	0.088239	0.676969
C66	C	1.309942	0.421573	1.010302
C67	C	0.577533	-0.245083	0.343664
C68	C	0.910866	0.088250	0.676997
C69	C	1.244199	0.421584	1.010330
C70	C	0.544658	-0.216307	0.303496
C71	C	0.877991	0.117026	0.636829
C72	C	1.211325	0.450359	0.970163
C73	C	0.577531	-0.187532	0.263308
C74	C	0.910865	0.145801	0.596642
C75	C	1.244198	0.479134	0.929975
C76	C	0.643272	-0.187541	0.263286
C77	C	0.976606	0.145792	0.596619
C78	C	1.309939	0.479126	0.929952
N79	N	0.441382	-0.212791	0.248439
N80	N	0.774716	0.120542	0.581772
N81	N	1.108049	0.453876	0.915105
N82	N	0.378931	-0.212785	0.248462
N83	N	0.712264	0.120548	0.581795
N84	N	1.045598	0.453881	0.915129
C85	C	0.346583	-0.216279	0.303563
C86	C	0.679917	0.117055	0.636896
C87	C	1.013250	0.450388	0.970229
N88	N	0.379046	-0.219787	0.358640
N89	N	0.712380	0.113547	0.691974
N90	N	1.045713	0.446880	1.025307
N91	N	0.441504	-0.219795	0.358616
N92	N	0.774837	0.113539	0.691950
N93	N	1.108170	0.446872	1.025283
C94	C	0.473373	-0.216294	0.303516
C95	C	0.806706	0.117039	0.636850
C96	C	1.140039	0.450372	0.970183
C97	C	0.242433	-0.245037	0.343782
C98	C	0.575766	0.088296	0.677115
C99	C	0.909099	0.421629	1.010448
C100	C	0.176689	-0.245023	0.343811
C101	C	0.510022	0.088310	0.677144
C102	C	0.843356	0.421643	1.010478
C103	C	0.176689	-0.187475	0.263450
C104	C	0.510022	0.145858	0.596783
C105	C	0.843355	0.479192	0.930116
C106	C	0.242431	-0.187487	0.263426
C107	C	0.575764	0.145846	0.596759
C108	C	0.909098	0.479180	0.930093
C109	C	0.275299	-0.216271	0.303591
C110	C	0.608632	0.117063	0.636924
C111	C	0.941966	0.450396	0.970258
C112	C	0.949926	-0.692538	0.343876
C113	C	1.283259	-0.359204	0.677209
C114	C	1.616593	-0.025871	1.010543
C115	C	0.949994	-0.880211	0.343914
C116	C	1.283328	-0.546877	0.677247
C117	C	1.616661	-0.213544	1.010580
O118	O	0.984203	-0.904439	0.378217
O119	O	1.317536	-0.571106	0.711550
O120	O	1.650870	-0.237772	1.044883
N121	N	0.909767	-0.903722	0.303609
N122	N	1.243101	-0.570389	0.636942
N123	N	1.576434	-0.237056	0.970276
C124	C	0.869517	-0.880313	0.263295
C125	C	1.202851	-0.546979	0.596628
C126	C	1.536184	-0.213646	0.929962
O127	O	0.835299	-0.904617	0.229019
O128	O	1.168632	-0.571284	0.562352
O129	O	1.501966	-0.237950	0.895685
C130	C	0.869446	-0.692640	0.263261
C131	C	1.202780	-0.359307	0.596594
C132	C	1.536113	-0.025974	0.929927
C133	C	0.909680	-0.669131	0.303564
C134	C	1.243014	-0.335798	0.636897
C135	C	1.576347	-0.002465	0.970230
C136	C	0.990156	-0.669028	0.384176
C137	C	1.323489	-0.335695	0.717509
C138	C	1.656823	-0.002362	1.050843
C139	C	0.990141	-0.622113	0.384164
C140	C	1.323474	-0.288780	0.717497
C141	C	1.656808	0.044554	1.050830
C142	C	0.949896	-0.598707	0.343851
C143	C	1.283229	-0.265373	0.677185
C144	C	1.616562	0.067960	1.010518
C145	C	0.909665	-0.622216	0.303551
C146	C	1.242999	-0.288883	0.636885
C147	C	1.576332	0.044451	0.970218
C148	C	0.829194	-0.669232	0.222950
C149	C	1.162527	-0.335898	0.556283
C150	C	1.495861	-0.002565	0.889617
C151	C	0.829179	-0.622311	0.222946
C152	C	1.162512	-0.288977	0.556280
C153	C	1.495845	0.044356	0.889613
C154	C	0.869413	-0.598802	0.263249
C155	C	1.202746	-0.265468	0.596583
C156	C	1.536079	0.067865	0.929916
C157	C	0.869405	-0.551894	0.263227
C158	C	1.202738	-0.218561	0.596560
C159	C	1.536072	0.114773	0.929893
N160	N	0.909632	-0.528383	0.303531
N161	N	1.242965	-0.195049	0.636865
N162	N	1.576299	0.138284	0.970198
C163	C	0.949877	-0.551789	0.343844
C164	C	1.283211	-0.218456	0.677177
C165	C	1.616544	0.114878	1.010510
C166	C	0.869558	-0.978843	0.263315
C167	C	1.202892	-0.645510	0.596648
C168	C	1.536225	-0.312177	0.929981
C169	C	0.869577	-1.025761	0.263322
C170	C	1.202910	-0.692428	0.596656
C171	C	1.536244	-0.359094	0.929989
C172	C	0.950053	-1.025656	0.343942
C173	C	1.283386	-0.692322	0.677276
C174	C	1.616720	-0.358989	1.010609
C175	C	0.950037	-0.978737	0.343931
C176	C	1.283371	-0.645404	0.677264
C177	C	1.616704	-0.312070	1.010598
C178	C	0.909785	-0.955332	0.303620
C179	C	1.243119	-0.621998	0.636953
C180	C	1.576452	-0.288665	0.970286
C181	C	0.949843	-0.453263	0.343814
C182	C	1.283176	-0.119930	0.677148
C183	C	1.616510	0.213404	1.010481
C184	C	0.949826	-0.406343	0.343797
C185	C	1.283160	-0.073010	0.677130
C186	C	1.616493	0.260323	1.010463
C187	C	0.869348	-0.406453	0.263180
C188	C	1.202681	-0.073119	0.596513
C189	C	1.536015	0.260214	0.929846
C190	C	0.869367	-0.453368	0.263195
C191	C	1.202700	-0.120035	0.596528
C192	C	1.536034	0.213298	0.929861
C193	C	0.909616	-0.476772	0.303517
C194	C	1.242950	-0.143439	0.636851
C195	C	1.576283	0.189894	0.970184
O196	O	0.835209	-0.527637	0.228947
O197	O	1.168543	-0.194304	0.562280
O198	O	1.501876	0.139030	0.895613
O199	O	0.984081	-0.527476	0.378125
O200	O	1.317414	-0.194143	0.711458
O201	O	1.650747	0.139190	1.044791
C202	C	0.949941	-0.739453	0.343888
C203	C	1.283274	-0.406120	0.677222
C204	C	1.616608	-0.072786	1.010555
C205	C	0.909711	-0.762962	0.303588
C206	C	1.243044	-0.429629	0.636921
C207	C	1.576377	-0.096296	0.970255
C208	C	0.869465	-0.739556	0.263276
C209	C	1.202799	-0.406223	0.596609
C210	C	1.536132	-0.072889	0.929942
C211	C	0.909729	-0.809880	0.303596
C212	C	1.243062	-0.476547	0.636929
C213	C	1.576396	-0.143213	0.970262
C214	C	0.949974	-0.833286	0.343908
C215	C	1.283308	-0.499953	0.677241
C216	C	1.616641	-0.166620	1.010575
C217	C	0.990201	-0.809775	0.384213
C218	C	1.323535	-0.476441	0.717546
C219	C	1.656868	-0.143108	1.050880
C220	C	0.990186	-0.762859	0.384201
C221	C	1.323520	-0.429526	0.717534
C222	C	1.656853	-0.096193	1.050867
C223	C	0.829238	-0.763068	0.222971
C224	C	1.162572	-0.429734	0.556304
C225	C	1.495905	-0.096401	0.889638
C226	C	0.829257	-0.809983	0.222986
C227	C	1.162591	-0.476650	0.556319
C228	C	1.495924	-0.143316	0.889653
C229	C	0.869503	-0.833389	0.263298
C230	C	1.202836	-0.500056	0.596632
C231	C	1.536169	-0.166723	0.929965
C232	C	1.073851	-0.216257	0.303612
C233	C	1.407184	0.117077	0.636946
C234	C	1.740517	0.450410	0.970279
C235	C	1.143819	-0.216247	0.303643
C236	C	1.477152	0.117087	0.636977
C237	C	1.810485	0.450420	0.970310
C238	C	0.909713	-0.216271	0.467729
C239	C	1.243046	0.117063	0.801063
C240	C	1.576379	0.450396	1.134396
C241	C	0.909735	-0.216267	0.537698
C242	C	1.243068	0.117067	0.871031
C243	C	1.576402	0.450400	1.204364
C244	C	0.909774	-0.099102	0.303606
C245	C	1.243107	0.234232	0.636940
C246	C	1.576441	0.567565	0.970273
C247	C	0.909822	-0.049167	0.303635
C248	C	1.243156	0.284166	0.636968
C249	C	1.576489	0.617499	0.970301
C250	C	0.909645	-0.216257	0.139988
C251	C	1.242978	0.117076	0.473321
C252	C	1.576311	0.450409	0.806654
C253	C	0.909744	-0.216135	0.070020
C254	C	1.243078	0.117199	0.403353
C255	C	1.576411	0.450532	0.736687
C256	C	0.950022	-0.187526	0.570600
C257	C	1.283356	0.145807	0.903933
C258	C	1.616689	0.479141	1.237266
C259	C	0.950022	-0.187507	0.636342
C260	C	1.283355	0.145827	0.969676
C261	C	1.616688	0.479160	1.303009
C262	C	0.909740	-0.216236	0.669180
C263	C	1.243073	0.117098	1.002514
C264	C	1.576406	0.450431	1.335847
C265	C	0.869444	-0.244978	0.636270
C266	C	1.202778	0.088355	0.969604
C267	C	1.536111	0.421688	1.302937
C268	C	0.869442	-0.244994	0.570529
C269	C	1.202775	0.088340	0.903862
C270	C	1.536109	0.421673	1.237196
N271	N	0.904879	-0.255537	0.772388
N272	N	1.238212	0.077796	1.105721
N273	N	1.571545	0.411130	1.439054
N274	N	0.904885	-0.255521	0.834839
N275	N	1.238218	0.077812	1.168173
N276	N	1.571551	0.411146	1.501506
C277	C	0.909744	-0.216190	0.867255
C278	C	1.243077	0.117143	1.200588
C279	C	1.576410	0.450477	1.533922
N280	N	0.914609	-0.176875	0.834860
N281	N	1.247942	0.156458	1.168193
N282	N	1.581276	0.489792	1.501527
N283	N	0.914606	-0.176891	0.772403
N284	N	1.247940	0.156442	1.105736
N285	N	1.581273	0.489775	1.439069
C286	C	0.909738	-0.216222	0.740466
C287	C	1.243071	0.117111	1.073799
C288	C	1.576404	0.450445	1.407132
C289	C	0.950033	-0.187426	0.971443
C290	C	1.283366	0.145907	1.304776
C291	C	1.616699	0.479241	1.638109
C292	C	0.950027	-0.187406	1.037186
C293	C	1.283361	0.145928	1.370520
C294	C	1.616694	0.479261	1.703853
C295	C	0.869453	-0.244882	1.037113
C296	C	1.202787	0.088452	1.370447
C297	C	1.536120	0.421785	1.703780
C298	C	0.869455	-0.244898	0.971371
C299	C	1.202789	0.088436	1.304704
C300	C	1.536122	0.421769	1.638037
C301	C	0.909748	-0.216171	0.938539
C302	C	1.243082	0.117163	1.271873
C303	C	1.576415	0.450496	1.605206
H304	H	0.670032	-0.268531	0.376342
H305	H	1.003366	0.064802	0.709675
H306	H	1.336699	0.398135	1.043009
Cl307	Cl	0.818949	-0.949426	0.212634
Cl308	Cl	1.152282	-0.616092	0.545967
Cl309	Cl	1.485616	-0.282759	0.879300
Cl310	Cl	0.135372	-0.281191	0.394338
Cl311	Cl	0.468705	0.052142	0.727671
Cl312	Cl	0.802039	0.385475	1.061004
Cl313	Cl	1.000660	-0.151364	0.677714
Cl314	Cl	1.333993	0.181970	1.011047
Cl315	Cl	1.667327	0.515303	1.344380
H316	H	0.550769	-0.268510	0.376389
H317	H	0.884102	0.064823	0.709723
H318	H	1.217435	0.398157	1.043056
H319	H	0.836649	-0.268269	1.063849
H320	H	1.169982	0.065065	1.397183
H321	H	1.503315	0.398398	1.730516
H322	H	0.149923	-0.164043	0.230747
H323	H	0.483256	0.169290	0.564081
H324	H	0.816589	0.502623	0.897414
Cl325	Cl	0.818791	-0.281128	0.529164
Cl326	Cl	1.152124	0.052205	0.862497
Cl327	Cl	1.485457	0.385538	1.195831
H328	H	0.550760	-0.164102	0.230604
H329	H	0.884094	0.169231	0.563938
H330	H	1.217427	0.502564	0.897271
Cl331	Cl	0.818802	-0.281093	0.677551
Cl332	Cl	1.152135	0.052240	1.010885
Cl333	Cl	1.485469	0.385573	1.344218
Cl334	Cl	1.000445	-0.482678	0.394504
Cl335	Cl	1.333778	-0.149345	0.727838
Cl336	Cl	1.667112	0.183989	1.061171
H337	H	1.022901	-0.602975	0.416984
H338	H	1.356235	-0.269641	0.750317
H339	H	1.689568	0.063692	1.083650
H340	H	0.269190	-0.164062	0.230700
H341	H	0.602524	0.169271	0.564033
H342	H	0.935857	0.502605	0.897367
Cl343	Cl	1.000682	-0.151310	0.930166
Cl344	Cl	1.334015	0.182023	1.263499
Cl345	Cl	1.667349	0.515356	1.596833
Cl346	Cl	0.684591	-0.151371	0.212763
Cl347	Cl	1.017924	0.181962	0.546096
Cl348	Cl	1.351258	0.515296	0.879430
Cl349	Cl	1.040756	-0.698445	0.434863
Cl350	Cl	1.374089	-0.365112	0.768197
Cl351	Cl	1.707422	-0.031778	1.101530
H352	H	0.982833	-0.163999	1.063974
H353	H	1.316167	0.169334	1.397308
H354	H	1.649500	0.502668	1.730641
Cl355	Cl	0.818808	-0.281033	0.930006
Cl356	Cl	1.152141	0.052300	1.263339
Cl357	Cl	1.485474	0.385634	1.596672
Cl358	Cl	1.000411	-0.376792	0.394466
Cl359	Cl	1.333744	-0.043459	0.727800
Cl360	Cl	1.667077	0.289875	1.061133
Cl361	Cl	0.283756	-0.281219	0.394277
Cl362	Cl	0.617089	0.052114	0.727611
Cl363	Cl	0.950422	0.385448	1.060944
H364	H	0.982799	-0.959599	0.376749
H365	H	1.316132	-0.626265	0.710083
H366	H	1.649466	-0.292932	1.043416
H367	H	1.022948	-0.743722	0.417019
H368	H	1.356282	-0.410388	0.750352
H369	H	1.689615	-0.077055	1.083686
Cl370	Cl	0.819003	-1.055310	0.212645
Cl371	Cl	1.152337	-0.721976	0.545978
Cl372	Cl	1.485670	-0.388643	0.879312
Cl373	Cl	1.000646	-1.055089	0.394621
Cl374	Cl	1.333980	-0.721756	0.727954
Cl375	Cl	1.667313	-0.388423	1.061288
H376	H	0.796399	-0.603256	0.190120
H377	H	1.129732	-0.269923	0.523454
H378	H	1.463065	0.063410	0.856787
Cl379	Cl	0.778608	-0.698775	0.172283
Cl380	Cl	1.111941	-0.365441	0.505616
Cl381	Cl	1.445275	-0.032108	0.838949
H382	H	0.836583	-0.387388	0.230356
H383	H	1.169916	-0.054055	0.563689
H384	H	1.503249	0.279279	0.897022
Cl385	Cl	0.818795	-0.482923	0.212520
Cl386	Cl	1.152128	-0.149590	0.545853
Cl387	Cl	1.485461	0.183743	0.879186
Cl388	Cl	0.778674	-0.839532	0.172312
Cl389	Cl	1.112007	-0.506198	0.505645
Cl390	Cl	1.445341	-0.172865	0.838979
Cl391	Cl	1.040797	-0.839209	0.434889
Cl392	Cl	1.374130	-0.505875	0.768222
Cl393	Cl	1.707463	-0.172542	1.101556
Cl394	Cl	0.778636	-0.733650	0.172290
Cl395	Cl	1.111969	-0.400316	0.505623
Cl396	Cl	1.445303	-0.066983	0.838957
H397	H	0.982831	-0.164134	0.543872
H398	H	1.316165	0.169200	0.877206
H399	H	1.649498	0.502533	1.210539
