data_functionalizedCrystal
_audit_creation_method	'MofGen! by Chris Wilmer'
_symmetry_space_group_name_H-M	'P1'
_symmetry_Int_Tables_number	1
_symmetry_cell_setting	triclinic
loop_
_symmetry_equiv_pos_as_xyz
  x,y,z
_cell_length_a	19.077105
_cell_length_b	16.959454
_cell_length_c	16.959455
_cell_angle_alpha	90.005969
_cell_angle_beta	92.303322
_cell_angle_gamma	87.716588
loop_
_atom_site_label
_atom_site_type_symbol
_atom_site_fract_x
_atom_site_fract_y
_atom_site_fract_z
Zn1	Zn	1.075912	-0.363466	0.495441
Zn2	Zn	1.575912	0.136534	0.995441
Zn3	Zn	1.075861	-0.495608	0.363268
Zn4	Zn	1.575861	0.004392	0.863268
Zn5	Zn	0.958241	-0.358130	0.357973
Zn6	Zn	1.458241	0.141870	0.857973
Zn7	Zn	0.958192	-0.490285	0.490101
Zn8	Zn	1.458192	0.009715	0.990101
O9	O	1.017052	-0.426872	0.426696
O10	O	1.517052	0.073128	0.926696
O11	O	1.174396	-0.385456	0.482359
O12	O	1.674396	0.114544	0.982359
O13	O	1.060257	-0.477366	0.251955
O14	O	1.560257	0.022634	0.751955
O15	O	0.973893	-0.248229	0.376227
O16	O	1.473893	0.251771	0.876227
O17	O	1.174358	-0.482540	0.385252
O18	O	1.674358	0.017460	0.885252
O19	O	1.060345	-0.252149	0.477224
O20	O	1.560345	0.247851	0.977224
O21	O	0.973843	-0.376362	0.248064
O22	O	1.473843	0.123638	0.748064
O23	O	0.859744	-0.371200	0.371049
O24	O	1.359744	0.128800	0.871049
O25	O	0.973809	-0.473467	0.601420
O26	O	1.473809	0.026533	1.101420
O27	O	0.859708	-0.468293	0.468123
O28	O	1.359708	0.031707	0.968123
O29	O	1.060297	-0.380294	0.605343
O30	O	1.560297	0.119706	1.105343
O31	O	1.060210	-0.605511	0.380075
O32	O	1.560210	-0.105511	0.880075
O33	O	0.973759	-0.601600	0.473258
O34	O	1.473759	-0.101600	0.973258
C35	C	0.834189	-0.418591	0.418432
C36	C	1.334189	0.081409	0.918432
C37	C	0.755960	-0.415067	0.414916
C38	C	1.255960	0.084933	0.914916
C39	C	0.719207	-0.464039	0.463726
C40	C	1.219207	0.035961	0.963726
C41	C	0.645702	-0.460717	0.460426
C42	C	1.145702	0.039283	0.960426
C43	C	0.608951	-0.408427	0.408311
C44	C	1.108951	0.091573	0.908311
C45	C	0.645709	-0.359450	0.359499
C46	C	1.145709	0.140550	0.859499
C47	C	0.719212	-0.362768	0.362804
C48	C	1.219212	0.137232	0.862804
C49	C	0.389119	-0.393071	0.393020
C50	C	0.889119	0.106929	0.893020
C51	C	0.315610	-0.389758	0.389717
C52	C	0.815610	0.110242	0.889717
C53	C	0.315608	-0.491025	0.490645
C54	C	0.815608	0.008975	0.990645
C55	C	0.389113	-0.494341	0.493942
C56	C	0.889113	0.005659	0.993942
C57	C	0.425865	-0.445361	0.445133
C58	C	0.925865	0.054639	0.945133
N59	N	0.533817	-0.405033	0.404935
N60	N	1.033817	0.094967	0.904935
N61	N	0.500997	-0.448753	0.448514
N62	N	1.000997	0.051247	0.948514
C63	C	1.016993	-0.632236	0.426680
C64	C	1.516993	-0.132236	0.926680
C65	C	1.017032	-0.720094	0.426702
C66	C	1.517032	-0.220094	0.926702
C67	C	0.972102	-1.089567	0.475214
C68	C	1.472102	-0.589567	0.975214
C69	C	1.062197	-1.093583	0.378267
C70	C	1.562197	-0.593583	0.878267
C71	C	1.062173	-1.011036	0.378259
C72	C	1.562173	-0.511036	0.878259
C73	C	1.017111	-0.967751	0.426728
C74	C	1.517111	-0.467751	0.926728
C75	C	0.972075	-1.007012	0.475205
C76	C	1.472075	-0.507012	0.975205
C77	C	1.107203	-0.971768	0.329776
C78	C	1.607203	-0.471768	0.829776
C79	C	1.107180	-0.889216	0.329765
C80	C	1.607180	-0.389216	0.829765
C81	C	1.062122	-0.845929	0.378239
C82	C	1.562122	-0.345929	0.878239
C83	C	1.017084	-0.885196	0.426719
C84	C	1.517084	-0.385196	0.926719
C85	C	0.972023	-0.841911	0.475188
C86	C	1.472023	-0.341911	0.975188
C87	C	0.926988	-0.881176	0.523673
C88	C	1.426988	-0.381176	1.023673
C89	C	0.927016	-0.963726	0.523679
C90	C	1.427016	-0.463726	1.023679
C91	C	1.062093	-0.763380	0.378233
C92	C	1.562093	-0.263380	0.878233
C93	C	0.971995	-0.759356	0.475180
C94	C	1.471995	-0.259356	0.975180
C95	C	1.200628	-0.435187	0.434992
C96	C	1.700628	0.064813	0.934992
C97	C	1.278858	-0.438730	0.438527
C98	C	1.778858	0.061270	0.938527
C99	C	1.017054	-0.426882	0.632864
C100	C	1.517054	0.073118	1.132864
C101	C	1.017054	-0.426886	0.720721
C102	C	1.517054	0.073114	1.220721
C103	C	1.017130	-0.220708	0.426730
C104	C	1.517130	0.279292	0.926730
C105	C	1.017163	-0.132853	0.426745
C106	C	1.517163	0.367147	0.926745
C107	C	0.972025	-0.475399	0.759954
C108	C	1.472025	0.024601	1.259954
C109	C	1.062080	-0.378371	0.764041
C110	C	1.562080	0.121629	1.264041
C111	C	1.062080	-0.378369	0.846587
C112	C	1.562080	0.121631	1.346587
C113	C	1.017051	-0.426883	0.885820
C114	C	1.517051	0.073117	1.385820
C115	C	0.972022	-0.475398	0.842507
C116	C	1.472022	0.024602	1.342507
C117	C	1.107103	-0.329850	0.889906
C118	C	1.607103	0.170150	1.389906
C119	C	1.107104	-0.329846	0.972457
C120	C	1.607104	0.170154	1.472457
C121	C	1.062077	-0.378364	1.011691
C122	C	1.562077	0.121636	1.511691
C123	C	1.017047	-0.426882	0.968373
C124	C	1.517047	0.073118	1.468373
C125	C	0.972018	-0.475396	1.007606
C126	C	1.472018	0.024604	1.507606
C127	C	0.926991	-0.523918	0.964290
C128	C	1.426991	-0.023918	1.464290
C129	C	0.926996	-0.523916	0.881742
C130	C	1.426996	-0.023916	1.381742
C131	C	1.062073	-0.378366	1.094240
C132	C	1.562073	0.121634	1.594240
C133	C	0.972015	-0.475394	1.090160
C134	C	1.472015	0.024606	1.590160
C135	C	1.017044	-0.426881	1.221329
C136	C	1.517044	0.073119	1.721329
C137	C	1.017044	-0.426879	1.133473
C138	C	1.517044	0.073121	1.633473
H139	H	0.419031	-0.536923	0.536378
H140	H	0.919031	-0.036923	1.036378
Cl141	Cl	1.163668	-0.268820	0.840579
Cl142	Cl	1.663668	0.231180	1.340579
Cl143	Cl	1.118658	-0.317353	1.148690
Cl144	Cl	1.618658	0.182647	1.648690
Cl145	Cl	0.915424	-0.536397	0.705502
Cl146	Cl	1.415424	-0.036397	1.205502
H147	H	0.285690	-0.347168	0.347284
H148	H	0.785690	0.152832	0.847284
Cl149	Cl	0.599502	-0.522285	0.521790
Cl150	Cl	1.099502	-0.022285	1.021790
Cl151	Cl	1.118661	-0.317357	0.714718
Cl152	Cl	1.618661	0.182643	1.214718
H153	H	0.285678	-0.530900	0.530384
H154	H	0.785678	-0.030900	1.030384
Cl155	Cl	1.163800	-0.839862	0.268821
Cl156	Cl	1.663800	-0.339862	0.768821
Cl157	Cl	1.163724	-0.268867	1.026905
Cl158	Cl	1.663724	0.231133	1.526905
H159	H	1.143884	-1.007017	0.290309
H160	H	1.643884	-0.507017	0.790309
Cl161	Cl	0.435311	-0.331493	0.331662
Cl162	Cl	0.935311	0.168507	0.831662
Cl163	Cl	0.765401	-0.529782	0.529241
Cl164	Cl	1.265401	-0.029782	1.029241
H165	H	0.615781	-0.316871	0.317070
H166	H	1.115781	0.183129	0.817070
H167	H	0.749136	-0.322886	0.323062
H168	H	1.249136	0.177114	0.823062
Cl169	Cl	0.870390	-0.584903	0.827282
Cl170	Cl	1.370390	-0.084903	1.327282
Cl171	Cl	0.870381	-0.584899	1.013621
Cl172	Cl	1.370381	-0.084899	1.513621
Cl173	Cl	0.915493	-1.138926	0.536167
Cl174	Cl	1.415493	-0.638926	1.036167
H175	H	0.935303	-0.724118	0.514653
H176	H	1.435303	-0.224118	1.014653
Cl177	Cl	1.118843	-1.148000	0.317338
Cl178	Cl	1.618843	-0.648000	0.817338
H179	H	1.098756	-0.731414	0.338753
H180	H	1.598756	-0.231414	0.838753
H181	H	0.890295	-0.845923	0.563134
H182	H	1.390295	-0.345923	1.063134
Cl183	Cl	0.915407	-0.536391	1.139475
Cl184	Cl	1.415407	-0.036391	1.639475
H185	H	0.890351	-0.995703	0.563152
H186	H	1.390351	-0.495703	1.063152
