data_functionalizedCrystal
_audit_creation_method	'MofGen! by Chris Wilmer'
_symmetry_space_group_name_H-M	'P1'
_symmetry_Int_Tables_number	1
_symmetry_cell_setting	triclinic
loop_
_symmetry_equiv_pos_as_xyz
  x,y,z
_cell_length_a	14.908571
_cell_length_b	13.897449
_cell_length_c	14.908183
_cell_angle_alpha	86.690601
_cell_angle_beta	90.178529
_cell_angle_gamma	93.298820
loop_
_atom_site_label
_atom_site_type_symbol
_atom_site_fract_x
_atom_site_fract_y
_atom_site_fract_z
Zn1	Zn	1.353858	0.601770	0.437605
Zn2	Zn	1.345123	0.430652	0.587936
Zn3	Zn	1.203531	0.431765	0.428900
Zn4	Zn	1.194799	0.583181	0.579236
O5	O	1.274328	0.511842	0.508419
O6	O	1.478523	0.586385	0.464831
O7	O	1.326339	0.295818	0.566837
O8	O	1.230782	0.462562	0.304225
O9	O	1.472105	0.460665	0.575278
O10	O	1.341227	0.587464	0.310621
O11	O	1.222311	0.296636	0.449995
O12	O	1.076549	0.444536	0.441559
O13	O	1.215901	0.720628	0.560450
O14	O	1.070134	0.555781	0.552009
O15	O	1.332760	0.734286	0.456395
O16	O	1.317872	0.442640	0.712611
O17	O	1.207430	0.554702	0.706220
C18	C	1.040717	0.498263	0.494896
C19	C	0.940775	0.492475	0.489132
C20	C	0.746334	0.597261	0.593493
C21	C	0.652430	0.591826	0.588080
C22	C	0.659063	0.476176	0.472890
C23	C	0.752966	0.481611	0.478303
C24	C	0.796599	0.542154	0.538607
C25	C	0.890504	0.547583	0.544024
C26	C	0.897135	0.431939	0.428830
C27	C	0.803231	0.426504	0.423417
C28	C	1.274331	0.763435	0.508423
C29	C	1.274332	0.870649	0.508425
C30	C	1.274309	1.066942	0.508428
C31	C	1.274319	0.957710	0.508428
C32	C	1.508851	0.525475	0.521996
C33	C	1.608791	0.531284	0.527782
C34	C	1.260780	0.496555	0.742043
C35	C	1.255067	0.490053	0.841993
C36	C	1.274315	1.261226	0.508433
C37	C	1.274308	1.154012	0.508425
C38	C	1.287953	0.527211	0.273884
C39	C	1.293759	0.533760	0.173940
C40	C	1.189559	0.415810	0.979616
C41	C	1.194924	0.421917	0.885704
C42	C	1.309848	0.552087	0.892201
C43	C	1.304483	0.545979	0.986113
C44	C	1.244338	0.477837	1.029818
C45	C	1.238978	0.471726	1.123732
C46	C	1.353897	0.601899	1.130227
C47	C	1.359261	0.608007	1.036315
H48	H	0.781859	0.646552	0.642599
N49	N	1.124703	0.342310	1.026763
H50	H	1.090817	0.303937	0.980709
H51	H	1.080833	0.376576	1.063344
N52	N	0.756165	0.361199	0.358387
H53	H	0.802259	0.327112	0.324441
H54	H	0.719617	0.400994	0.314581
N55	N	0.951348	0.372491	0.369633
H56	H	1.017457	0.385116	0.382213
H57	H	0.938655	0.390859	0.304487
N58	N	1.135847	0.355017	0.831552
H59	H	1.070655	0.365137	0.844231
H60	H	1.149006	0.285890	0.848743
H61	H	1.190006	0.416240	1.159314
N62	N	1.424136	0.681490	0.989171
H63	H	1.458026	0.719855	1.035227
H64	H	1.389731	0.726504	0.948105
H65	H	0.611508	0.636701	0.632772
H66	H	1.358810	0.607572	0.856604
H67	H	1.398504	0.652405	1.171111
H68	H	0.926027	0.596879	0.593128
H69	H	0.623521	0.426891	0.423788
