data_functionalizedCrystal
_audit_creation_method	'MofGen! by Chris Wilmer'
_symmetry_space_group_name_H-M	'P1'
_symmetry_Int_Tables_number	1
_symmetry_cell_setting	triclinic
loop_
_symmetry_equiv_pos_as_xyz
  x,y,z
_cell_length_a	19.805407
_cell_length_b	16.959454
_cell_length_c	19.805399
_cell_angle_alpha	89.977613
_cell_angle_beta	89.980427
_cell_angle_gamma	90.020075
loop_
_atom_site_label
_atom_site_type_symbol
_atom_site_fract_x
_atom_site_fract_y
_atom_site_fract_z
Zn1	Zn	1.034765	-0.314700	-0.382744
Zn2	Zn	1.534765	0.185300	0.117256
Zn3	Zn	1.034693	-0.446882	-0.269566
Zn4	Zn	1.534693	0.053118	0.230434
Zn5	Zn	0.921580	-0.314722	-0.269569
Zn6	Zn	1.421580	0.185278	0.230431
Zn7	Zn	0.921556	-0.446840	-0.382713
Zn8	Zn	1.421556	0.053160	0.117287
O9	O	0.978149	-0.380786	-0.326148
O10	O	1.478149	0.119214	0.173852
O11	O	1.129472	-0.332243	-0.367743
O12	O	1.629472	0.167757	0.132257
O13	O	1.019668	-0.429378	-0.174850
O14	O	1.519668	0.070622	0.325150
O15	O	0.936635	-0.204108	-0.284596
O16	O	1.436635	0.295892	0.215404
O17	O	1.129419	-0.429356	-0.284591
O18	O	1.629419	0.070644	0.215409
O19	O	1.019792	-0.204092	-0.367745
O20	O	1.519792	0.295908	0.132255
O21	O	0.936564	-0.332280	-0.174852
O22	O	1.436564	0.167720	0.325148
O23	O	0.826860	-0.332239	-0.284565
O24	O	1.326860	0.167761	0.215435
O25	O	0.936594	-0.429285	-0.477434
O26	O	1.436594	0.070715	0.022566
O27	O	0.826843	-0.429306	-0.367692
O28	O	1.326843	0.070694	0.132308
O29	O	1.019768	-0.332202	-0.477457
O30	O	1.519768	0.167798	0.022543
O31	O	1.019645	-0.557488	-0.284561
O32	O	1.519645	-0.057488	0.215439
O33	O	0.936524	-0.557457	-0.367690
O34	O	1.436524	-0.057457	0.132310
C35	C	0.802293	-0.380771	-0.326126
C36	C	1.302293	0.119229	0.173874
C37	C	0.727061	-0.380783	-0.326133
C38	C	1.227061	0.119217	0.173867
C39	C	0.691725	-0.431402	-0.369347
C40	C	1.191725	0.068598	0.130653
C41	C	0.621037	-0.431404	-0.369356
C42	C	1.121037	0.068596	0.130644
C43	C	0.585685	-0.380790	-0.326148
C44	C	1.085685	0.119210	0.173852
C45	C	0.621026	-0.330165	-0.282932
C46	C	1.121026	0.169835	0.217068
C47	C	0.691713	-0.330160	-0.282926
C48	C	1.191713	0.169840	0.217074
C49	C	0.335952	-0.330183	-0.282954
C50	C	0.835952	0.169817	0.217046
C51	C	0.265260	-0.330193	-0.282962
C52	C	0.765260	0.169807	0.217038
C53	C	0.265276	-0.431426	-0.369384
C54	C	0.765276	0.068574	0.130616
C55	C	0.335963	-0.431421	-0.369379
C56	C	0.835963	0.068579	0.130621
C57	C	0.371298	-0.380794	-0.326166
C58	C	0.871298	0.119206	0.173834
C59	C	0.447946	-0.380792	-0.326157
C60	C	0.947946	0.119208	0.173843
C61	C	0.509038	-0.380795	-0.326153
C62	C	1.009038	0.119205	0.173847
C63	C	0.978092	-0.586152	-0.326136
C64	C	1.478092	-0.086152	0.173864
C65	C	0.978130	-0.674009	-0.326154
C66	C	1.478130	-0.174009	0.173846
C67	C	0.934930	-1.045498	-0.369428
C68	C	1.434930	-0.545498	0.130572
C69	C	1.021555	-1.045470	-0.282937
C70	C	1.521555	-0.545470	0.217063
C71	C	1.021532	-0.962925	-0.282930
C72	C	1.521532	-0.462925	0.217070
C73	C	0.978206	-0.921662	-0.326173
C74	C	1.478206	-0.421662	0.173827
C75	C	0.934904	-0.962945	-0.369422
C76	C	1.434904	-0.462945	0.130578
C77	C	1.064828	-0.921635	-0.239677
C78	C	1.564828	-0.421635	0.260323
C79	C	1.064806	-0.839085	-0.239669
C80	C	1.564806	-0.339085	0.260331
C81	C	1.021483	-0.797820	-0.282915
C82	C	1.521483	-0.297820	0.217085
C83	C	0.978180	-0.839108	-0.326167
C84	C	1.478180	-0.339108	0.173833
C85	C	0.934854	-0.797845	-0.369409
C86	C	1.434854	-0.297845	0.130591
C87	C	0.891553	-0.839132	-0.412665
C88	C	1.391553	-0.339132	0.087335
C89	C	0.891581	-0.921680	-0.412669
C90	C	1.391581	-0.421680	0.087331
C91	C	1.021455	-0.715272	-0.282911
C92	C	1.521455	-0.215272	0.217089
C93	C	0.934827	-0.715292	-0.369403
C94	C	1.434827	-0.215292	0.130597
C95	C	1.154691	-0.380802	-0.326170
C96	C	1.654691	0.119198	0.173830
C97	C	1.229923	-0.380808	-0.326180
C98	C	1.729923	0.119192	0.173820
C99	C	0.978187	-0.380736	-0.502691
C100	C	1.478187	0.119264	-0.002691
C101	C	0.978203	-0.380715	-0.577923
C102	C	1.478203	0.119285	-0.077923
C103	C	0.978224	-0.174618	-0.326174
C104	C	1.478224	0.325382	0.173826
C105	C	0.978256	-0.086761	-0.326186
C106	C	1.478256	0.413239	0.173814
C107	C	1.021513	-0.330161	-0.613280
C108	C	1.521513	0.169839	-0.113280
C109	C	1.021520	-0.330138	-0.683968
C110	C	1.521520	0.169862	-0.183968
C111	C	0.978220	-0.380674	-0.719298
C112	C	1.478220	0.119326	-0.219298
C113	C	0.934905	-0.431230	-0.683936
C114	C	1.434905	0.068770	-0.183936
C115	C	0.934895	-0.431248	-0.613249
C116	C	1.434895	0.068752	-0.113249
C117	C	0.934943	-0.431156	-0.969010
C118	C	1.434943	0.068844	-0.469010
C119	C	0.934958	-0.431135	-1.039702
C120	C	1.434958	0.068865	-0.539702
C121	C	1.021568	-0.330046	-1.039729
C122	C	1.521568	0.169954	-0.539729
C123	C	1.021558	-0.330065	-0.969042
C124	C	1.521558	0.169935	-0.469042
C125	C	0.978241	-0.380617	-0.933686
C126	C	1.478241	0.119383	-0.433686
C127	C	0.978233	-0.380641	-0.857037
C128	C	1.478233	0.119359	-0.357037
C129	C	0.978230	-0.380655	-0.795946
C130	C	1.478230	0.119345	-0.295946
C131	C	0.978150	-0.380779	-0.150292
C132	C	1.478150	0.119221	0.349708
C133	C	0.978265	-0.380577	-0.075060
C134	C	1.478265	0.119423	0.424940
H135	H	0.236479	-0.288972	-0.247776
H136	H	0.736479	0.211028	0.252224
N137	N	0.888207	-0.485741	-0.722041
N138	N	1.388207	0.014259	-0.222041
H139	H	0.860768	-0.517769	-0.688914
H140	H	1.360768	-0.017769	-0.188914
H141	H	0.856900	-0.453558	-0.751370
H142	H	1.356900	0.046442	-0.251370
H143	H	0.592269	-0.472623	-0.404545
H144	H	1.092269	0.027377	0.095455
N145	N	0.888187	-0.485781	-0.575113
N146	N	1.388187	0.014219	-0.075113
H147	H	0.894749	-0.478123	-0.524972
H148	H	1.394749	0.021877	-0.024972
H149	H	0.839854	-0.473470	-0.587461
H150	H	1.339854	0.026530	-0.087461
N151	N	0.374086	-0.486013	-0.415986
N152	N	0.874086	0.013987	0.084014
H153	H	0.403435	-0.453935	-0.447395
H154	H	0.903435	0.046065	0.052605
H155	H	0.403355	-0.522590	-0.388377
H156	H	0.903355	-0.022590	0.111623
N157	N	0.374055	-0.275592	-0.236337
N158	N	0.874055	0.224408	0.263663
H159	H	0.424200	-0.283263	-0.242887
H160	H	0.924200	0.216737	0.257113
H161	H	0.361716	-0.219156	-0.246952
H162	H	0.861716	0.280844	0.253048
N163	N	0.729852	-0.485999	-0.415946
N164	N	1.229852	0.014001	0.084054
H165	H	0.696738	-0.518065	-0.443323
H166	H	1.196738	-0.018065	0.056677
H167	H	0.759203	-0.453872	-0.447314
H168	H	1.259203	0.046128	0.052686
N169	N	0.888090	-0.670792	-0.416040
N170	N	1.388090	-0.170792	0.083960
H171	H	0.894640	-0.612232	-0.409472
H172	H	1.394640	-0.112232	0.090528
H173	H	0.898601	-0.685181	-0.464392
H174	H	1.398601	-0.185181	0.035608
N175	N	0.844818	-0.794624	-0.459297
N176	N	1.344818	-0.294624	0.040703
H177	H	0.851371	-0.736066	-0.452724
H178	H	1.351371	-0.236066	0.047276
H179	H	0.855326	-0.809008	-0.507651
H180	H	1.355326	-0.309008	-0.007651
N181	N	0.582903	-0.275578	-0.236321
N182	N	1.082903	0.224422	0.263679
H183	H	0.595191	-0.287786	-0.187945
H184	H	1.095191	0.212214	0.312055
H185	H	0.595238	-0.219138	-0.246969
H186	H	1.095238	0.280862	0.253031
N187	N	0.888254	-0.485644	-1.077810
N188	N	1.388254	0.014356	-0.577810
H189	H	0.860809	-0.517670	-1.044687
H190	H	1.360809	-0.017670	-0.544687
H191	H	0.856952	-0.453454	-1.107140
H192	H	1.356952	0.046546	-0.607140
H193	H	0.236498	-0.472646	-0.404573
H194	H	0.736498	0.027354	0.095427
N195	N	1.068287	-1.089963	-0.236297
N196	N	1.568287	-0.589963	0.263703
H197	H	1.057799	-1.075629	-0.187926
H198	H	1.557799	-0.575629	0.312074
H199	H	1.061714	-1.148509	-0.242916
H200	H	1.561714	-0.648509	0.257084
H201	H	1.056836	-0.288881	-1.068524
H202	H	1.556836	0.211119	-0.568524
N203	N	0.729828	-0.275559	-0.236322
N204	N	1.229828	0.224441	0.263678
H205	H	0.696709	-0.243496	-0.208950
H206	H	1.196709	0.256504	0.291050
H207	H	0.759139	-0.307679	-0.204949
H208	H	1.259139	0.192321	0.295051
N209	N	0.888203	-0.485652	-0.930881
N210	N	1.388203	0.014348	-0.430881
H211	H	0.860770	-0.517655	-0.963990
H212	H	1.360770	-0.017655	-0.463990
H213	H	0.915711	-0.522252	-0.901538
H214	H	1.415711	-0.022252	-0.401538
H215	H	0.856327	-0.955303	-0.447884
H216	H	1.356327	-0.455303	0.052116
H217	H	0.899678	-1.079117	-0.404647
H218	H	1.399678	-0.579117	0.095353
H219	H	1.056819	-0.288916	-0.940280
H220	H	1.556819	0.211084	-0.440280
N221	N	1.068239	-0.275609	-0.722092
N222	N	1.568239	0.224391	-0.222092
H223	H	1.099599	-0.307721	-0.751424
H224	H	1.599599	0.192279	-0.251424
H225	H	1.040706	-0.238970	-0.751377
H226	H	1.540706	0.261030	-0.251377
H227	H	1.100097	-0.955238	-0.204466
H228	H	1.600097	-0.455238	0.295534
N229	N	1.111515	-0.794557	-0.193028
N230	N	1.611515	-0.294557	0.306972
H231	H	1.084023	-0.760344	-0.161631
H232	H	1.584023	-0.260344	0.338369
H233	H	1.138956	-0.833275	-0.165682
H234	H	1.638956	-0.333275	0.334318
N235	N	1.068147	-0.670740	-0.236260
N236	N	1.568147	-0.170740	0.263740
H237	H	1.095594	-0.709406	-0.208864
H238	H	1.595594	-0.209406	0.291136
H239	H	1.099446	-0.636450	-0.263836
H240	H	1.599446	-0.136450	0.236164
N241	N	1.068224	-0.275663	-0.575179
N242	N	1.568224	0.224337	-0.075179
H243	H	1.061653	-0.283349	-0.525033
H244	H	1.561653	0.216651	-0.025033
H245	H	1.116557	-0.287979	-0.587550
H246	H	1.616557	0.212021	-0.087550
