data_functionalizedCrystal
_audit_creation_method	'MofGen! by Chris Wilmer'
_symmetry_space_group_name_H-M	'P1'
_symmetry_Int_Tables_number	1
_symmetry_cell_setting	triclinic
loop_
_symmetry_equiv_pos_as_xyz
  x,y,z
_cell_length_a	19.288864
_cell_length_b	12.837942
_cell_length_c	17.766277
_cell_angle_alpha	89.994736
_cell_angle_beta	89.976791
_cell_angle_gamma	88.982593
loop_
_atom_site_label
_atom_site_type_symbol
_atom_site_fract_x
_atom_site_fract_y
_atom_site_fract_z
O1	O	0.930181	0.129276	-0.062838
O2	O	1.430181	0.629276	0.437162
O3	O	0.729111	0.146715	-0.062786
O4	O	1.229111	0.646715	0.437214
O5	O	0.825187	-0.012886	-0.062806
O6	O	1.325187	0.487114	0.437194
O7	O	0.834104	0.288878	-0.062818
O8	O	1.334104	0.788878	0.437182
O9	O	0.825168	-0.012894	0.062382
O10	O	1.325168	0.487106	0.562382
O11	O	0.729091	0.146707	0.062402
O12	O	1.229091	0.646707	0.562402
O13	O	0.930161	0.129268	0.062351
O14	O	1.430161	0.629268	0.562351
Cu15	Cu	0.829625	0.137987	0.073807
Cu16	Cu	1.329625	0.637987	0.573807
Cu17	Cu	0.829647	0.137996	-0.074243
Cu18	Cu	1.329647	0.637996	0.425757
O19	O	0.834085	0.288870	0.062371
O20	O	1.334085	0.788870	0.562371
C21	C	0.703186	0.146150	-0.000185
C22	C	1.203186	0.646150	0.499815
C23	C	0.625968	0.144466	-0.000166
C24	C	1.125968	0.644466	0.499834
C25	C	0.587666	0.238113	-0.000181
C26	C	1.087666	0.738113	0.499819
C27	C	0.515111	0.236530	-0.000189
C28	C	1.015111	0.736530	0.499811
C29	C	0.480860	0.141295	-0.000197
C30	C	0.980860	0.641295	0.499803
C31	C	0.519171	0.047636	-0.000178
C32	C	1.019171	0.547636	0.499822
C33	C	0.591725	0.049221	-0.000162
C34	C	1.091725	0.549221	0.499838
C35	C	0.367493	0.066433	-0.044079
C36	C	0.867493	0.566433	0.455921
C37	C	0.294941	0.064852	-0.044099
C38	C	0.794941	0.564852	0.455901
C39	C	0.257081	0.136402	-0.000243
C40	C	0.757081	0.636402	0.499757
C41	C	0.291782	0.209552	0.043625
C42	C	0.791782	0.709552	0.543625
C43	C	0.364335	0.211137	0.043640
C44	C	0.864335	0.711137	0.543640
C45	C	0.402188	0.139566	-0.000214
C46	C	0.902188	0.639566	0.499786
C47	C	0.140106	0.228340	-0.000266
C48	C	0.640106	0.728340	0.499734
C49	C	0.067550	0.226753	-0.000270
C50	C	0.567550	0.726753	0.499730
C51	C	0.071611	0.037857	-0.000265
C52	C	0.571611	0.537857	0.499735
C53	C	0.144166	0.039446	-0.000254
C54	C	0.644166	0.539446	0.499746
C55	C	0.178409	0.134690	-0.000258
C56	C	0.678409	0.634690	0.499742
C57	C	0.822165	-0.051497	-0.000212
C58	C	1.322165	0.448503	0.499788
C59	C	0.813181	-0.166532	-0.000211
C60	C	1.313181	0.333468	0.499789
C61	C	0.921187	-0.407995	-0.000254
C62	C	1.421187	0.092005	0.499746
C63	C	0.912748	-0.516081	-0.000253
C64	C	1.412748	-0.016081	0.499747
C65	C	0.787867	-0.490793	-0.000213
C66	C	1.287867	0.009207	0.499787
C67	C	0.796305	-0.382707	-0.000214
C68	C	1.296305	0.117293	0.499786
C69	C	0.862967	-0.341312	-0.000233
C70	C	1.362967	0.158688	0.499767
C71	C	0.871405	-0.233223	-0.000229
C72	C	1.371405	0.266777	0.499771
C73	C	0.746524	-0.207938	-0.000195
C74	C	1.246524	0.292062	0.499805
C75	C	0.738086	-0.316024	-0.000194
C76	C	1.238086	0.183976	0.499806
C77	C	0.956086	0.129833	-0.000252
C78	C	1.456086	0.629833	0.499748
C79	C	1.033304	0.131518	-0.000276
C80	C	1.533304	0.631518	0.499724
C81	C	0.837107	0.327480	-0.000225
C82	C	1.337107	0.827480	0.499775
C83	C	0.846091	0.442515	-0.000231
C84	C	1.346091	0.942515	0.499769
N85	N	0.829614	0.137979	0.177938
N86	N	1.329614	0.637979	0.677938
N87	N	0.829663	0.137996	-0.178373
N88	N	1.329663	0.637996	0.321627
C89	C	0.872174	0.067342	0.217316
C90	C	1.372174	0.567342	0.717316
C91	C	0.872178	0.067338	0.296118
C92	C	1.372178	0.567338	0.796118
C93	C	0.829629	0.137988	0.335538
C94	C	1.329629	0.637988	0.835538
C95	C	0.787060	0.208630	0.296151
C96	C	1.287060	0.708630	0.796151
C97	C	0.787052	0.208626	0.217350
C98	C	1.287052	0.708626	0.717350
C99	C	0.826778	0.232410	0.460374
C100	C	1.326778	0.732410	0.960374
C101	C	0.826790	0.232416	0.539173
C102	C	1.326790	0.732416	1.039173
C103	C	0.829648	0.138000	0.578584
C104	C	1.329648	0.638000	1.078584
C105	C	0.832508	0.043575	0.539188
C106	C	1.332508	0.543575	1.039188
C107	C	0.832501	0.043571	0.460387
C108	C	1.332501	0.543571	0.960387
C109	C	0.829632	0.138000	0.420984
C110	C	1.329632	0.638000	0.920984
C111	C	0.872215	0.067352	0.703409
C112	C	1.372215	0.567352	1.203409
C113	C	0.872213	0.067346	0.782212
C114	C	1.372213	0.567346	1.282212
C115	C	0.787100	0.208647	0.782243
C116	C	1.287100	0.708647	1.282243
C117	C	0.787097	0.208645	0.703442
C118	C	1.287097	0.708645	1.203442
C119	C	0.829658	0.137998	0.664029
C120	C	1.329658	0.637998	1.164029
H121	H	0.491280	-0.029905	-0.000194
H122	H	0.991280	0.470095	0.499806
F123	F	0.992132	-0.363936	-0.000258
F124	F	1.492132	0.136064	0.499742
H125	H	0.752415	0.266153	0.328251
H126	H	1.252415	0.766153	0.828251
F127	F	0.667144	-0.360092	-0.000179
F128	F	1.167144	0.139908	0.499821
H129	H	0.752394	0.266148	0.185288
H130	H	1.252394	0.766148	0.685288
F131	F	0.474339	0.336206	-0.000204
F132	F	0.974339	0.836206	0.499796
F133	F	0.624106	0.339481	-0.000183
F134	F	1.124106	0.839481	0.499817
F135	F	0.407780	-0.009727	-0.090760
F136	F	0.907780	0.490273	0.409240
H137	H	0.392586	0.270694	0.079361
H138	H	0.892586	0.770694	0.579361
F139	F	0.251494	0.285708	0.090303
F140	F	0.751494	0.785708	0.590303
H141	H	0.906828	0.009816	0.185228
H142	H	1.406828	0.509816	0.685228
F143	F	0.176553	0.329705	-0.000264
F144	F	0.676553	0.829705	0.499736
F145	F	0.917510	-0.007845	0.824123
F146	F	1.417510	0.492155	1.324123
F147	F	0.026786	0.326431	-0.000282
F148	F	0.526786	0.826431	0.499718
H149	H	0.043725	-0.039685	-0.000319
H150	H	0.543725	0.460315	0.499681
F151	F	0.741812	0.283832	0.824194
F152	F	1.241812	0.783832	1.324194
F153	F	0.716927	-0.534868	-0.000211
F154	F	1.216927	-0.034868	0.499789
H155	H	0.175352	-0.036812	-0.000246
H156	H	0.675352	0.463188	0.499754
H157	H	0.266693	0.005293	-0.079822
H158	H	0.766693	0.505293	0.420178
H159	H	0.925684	-0.199522	-0.000242
H160	H	1.425684	0.300478	0.499758
F161	F	0.684559	-0.136961	-0.000165
F162	F	1.184559	0.363039	0.499835
F163	F	0.823751	0.332910	0.581095
F164	F	1.323751	0.832910	1.081095
H165	H	0.960157	-0.570371	-0.000272
H166	H	1.460157	-0.070371	0.499728
F167	F	0.823786	0.332909	0.418437
F168	F	1.323786	0.832909	0.918437
F169	F	0.835539	-0.056920	0.418461
F170	F	1.335539	0.443080	0.918461
H171	H	0.622910	-0.027040	-0.000150
H172	H	1.122910	0.472960	0.499850
H173	H	0.752444	0.266168	0.671378
H174	H	1.252444	0.766168	1.171378
H175	H	0.906836	0.009814	0.328185
H176	H	1.406836	0.509814	0.828185
H177	H	0.834835	-0.033307	0.571275
H178	H	1.334835	0.466693	1.071275
H179	H	0.906868	0.009824	0.671317
H180	H	1.406868	0.509824	1.171317
