data_functionalizedCrystal
_audit_creation_method	'MofGen! by Chris Wilmer'
_symmetry_space_group_name_H-M	'P1'
_symmetry_Int_Tables_number	1
_symmetry_cell_setting	triclinic
loop_
_symmetry_equiv_pos_as_xyz
  x,y,z
_cell_length_a	21.295417
_cell_length_b	19.805407
_cell_length_c	19.805398
_cell_angle_alpha	90.015489
_cell_angle_beta	89.970820
_cell_angle_gamma	89.973343
loop_
_atom_site_label
_atom_site_type_symbol
_atom_site_fract_x
_atom_site_fract_y
_atom_site_fract_z
Zn1	Zn	-0.250699	-1.034692	-0.382697
Zn2	Zn	-0.355964	-1.034606	-0.269503
Zn3	Zn	-0.250706	-0.921514	-0.269523
Zn4	Zn	-0.355927	-0.921462	-0.382650
O5	O	-0.303324	-0.978068	-0.326093
O6	O	-0.264675	-1.129397	-0.367693
O7	O	-0.342020	-1.019590	-0.174789
O8	O	-0.162616	-0.936585	-0.284564
O9	O	-0.342013	-1.129334	-0.284530
O10	O	-0.162610	-1.019736	-0.367713
O11	O	-0.264688	-0.936501	-0.174804
O12	O	-0.264651	-0.826790	-0.284518
O13	O	-0.341950	-0.936496	-0.477373
O14	O	-0.341957	-0.826752	-0.367632
O15	O	-0.264639	-1.019686	-0.477408
O16	O	-0.444049	-1.019539	-0.284484
O17	O	-0.444021	-0.936413	-0.367613
C18	C	-0.303301	-0.802212	-0.326073
C19	C	-0.303306	-0.726980	-0.326080
C20	C	-0.263107	-0.691669	-0.369448
C21	C	-0.263109	-0.620981	-0.369449
C22	C	-0.303314	-0.585605	-0.326085
C23	C	-0.343515	-0.620920	-0.282711
C24	C	-0.343510	-0.691607	-0.282708
C25	C	-0.343538	-0.335847	-0.282725
C26	C	-0.343542	-0.265155	-0.282734
C27	C	-0.263137	-0.265221	-0.369467
C28	C	-0.263132	-0.335908	-0.369463
C29	C	-0.303330	-0.371217	-0.326088
C30	C	-0.303327	-0.447866	-0.326086
C31	C	-0.303321	-0.508957	-0.326089
C32	C	-0.466876	-0.977979	-0.326056
C33	C	-0.536844	-0.978003	-0.326062
C34	C	-0.569704	-1.021326	-0.282822
C35	C	-0.635446	-1.021357	-0.282837
C36	C	-0.668326	-0.978055	-0.326086
C37	C	-0.635458	-0.934729	-0.369335
C38	C	-0.569717	-0.934704	-0.369323
N39	N	-0.771589	-0.918844	-0.331239
N40	N	-0.834040	-0.918870	-0.331246
C41	C	-0.866401	-0.978131	-0.326125
N42	N	-0.833951	-1.037365	-0.320983
N43	N	-0.771494	-1.037338	-0.320972
C44	C	-0.739612	-0.978078	-0.326104
C45	C	-0.970547	-1.021491	-0.282898
C46	C	-1.036290	-1.021524	-0.282918
C47	C	-1.036301	-0.934890	-0.369413
C48	C	-0.970558	-0.934863	-0.369396
C49	C	-0.937685	-0.978163	-0.326135
C50	C	-0.139134	-0.978176	-0.326146
C51	C	-0.069166	-0.978221	-0.326168
C52	C	-0.303289	-0.978095	-0.502636
C53	C	-0.303274	-0.978106	-0.577868
C54	C	-0.303343	-0.154611	-0.326108
C55	C	-0.303339	-0.229843	-0.326099
C56	C	-0.262907	-1.021504	-1.039679
C57	C	-0.262926	-1.021494	-0.968990
C58	C	-0.303187	-0.978175	-0.933630
C59	C	-0.343435	-0.934870	-0.968962
C60	C	-0.343418	-0.934884	-1.039649
C61	C	-0.343503	-0.934811	-0.683889
C62	C	-0.343515	-0.934798	-0.613197
C63	C	-0.263011	-1.021420	-0.613229
C64	C	-0.262995	-1.021435	-0.683917
C65	C	-0.303245	-0.978132	-0.719243
C66	C	-0.303224	-0.978145	-0.795891
C67	C	-0.303205	-0.978159	-0.856983
C68	C	-0.303313	-0.978081	-0.150237
C69	C	-0.303151	-0.978201	-0.075006
H70	H	-0.376283	-0.236353	-0.247419
C71	C	-0.387731	-0.730452	-0.235003
C72	C	-0.360381	-0.779040	-0.181915
C73	C	-0.404602	-0.817885	-0.134207
C74	C	-0.476171	-0.808142	-0.139587
C75	C	-0.503524	-0.759552	-0.192678
C76	C	-0.459304	-0.720708	-0.240386
H77	H	-0.307398	-0.786254	-0.177930
H78	H	-0.384352	-0.853854	-0.094906
H79	H	-0.508906	-0.836897	-0.104271
H80	H	-0.556508	-0.752338	-0.196663
H81	H	-0.479553	-0.684738	-0.279687
C82	C	-0.671624	-0.887095	-0.416909
C83	C	-0.662645	-0.810150	-0.411315
C84	C	-0.698810	-0.762516	-0.458893
C85	C	-0.743953	-0.791828	-0.512065
C86	C	-0.752933	-0.868777	-0.517660
C87	C	-0.716769	-0.916410	-0.470082
H88	H	-0.629226	-0.788448	-0.371953
H89	H	-0.692162	-0.705553	-0.454751
H90	H	-0.770724	-0.756567	-0.547285
H91	H	-0.786353	-0.890478	-0.557023
H92	H	-0.723417	-0.973373	-0.474225
H93	H	-0.376300	-0.899519	-0.584408
C94	C	-0.218912	-0.226378	-0.417175
C95	C	-0.224147	-0.236118	-0.494109
C96	C	-0.179925	-0.197277	-0.541818
C97	C	-0.130466	-0.148696	-0.512592
C98	C	-0.125228	-0.138954	-0.435653
C99	C	-0.169451	-0.177795	-0.387945
H100	H	-0.260762	-0.272082	-0.515748
H101	H	-0.183803	-0.204489	-0.598773
H102	H	-0.097730	-0.119944	-0.547908
H103	H	-0.088614	-0.102989	-0.414015
H104	H	-0.165573	-0.170583	-0.330990
C105	C	-0.387772	-0.887174	-0.722741
C106	C	-0.387763	-0.887185	-0.800495
C107	C	-0.432034	-0.839544	-0.839351
C108	C	-0.476314	-0.791893	-0.800454
C109	C	-0.476325	-0.791879	-0.722696
C110	C	-0.432054	-0.839520	-0.683840
H111	H	-0.354983	-0.922461	-0.829292
H112	H	-0.432025	-0.839554	-0.896912
H113	H	-0.509086	-0.756626	-0.829217
H114	H	-0.509106	-0.756603	-0.693898
H115	H	-0.432063	-0.839510	-0.626279
C116	C	-0.218878	-0.730580	-0.417149
C117	C	-0.218868	-0.808333	-0.417149
C118	C	-0.174636	-0.847242	-0.464849
C119	C	-0.130413	-0.808398	-0.512549
C120	C	-0.130422	-0.730640	-0.512550
C121	C	-0.174654	-0.691732	-0.464851
H122	H	-0.251606	-0.837092	-0.381837
H123	H	-0.174630	-0.904803	-0.464847
H124	H	-0.097670	-0.837200	-0.547859
H125	H	-0.097684	-0.701881	-0.547862
H126	H	-0.174660	-0.634170	-0.464852
C127	C	-0.934381	-1.069124	-0.235319
C128	C	-0.970530	-1.116788	-0.187760
C129	C	-0.934366	-1.164422	-0.140181
C130	C	-0.862053	-1.164391	-0.140161
C131	C	-0.825900	-1.116726	-0.187722
C132	C	-0.862064	-1.069092	-0.235301
H133	H	-1.024064	-1.116812	-0.187773
H134	H	-0.961129	-1.199707	-0.104974
H135	H	-0.835283	-1.199653	-0.104941
H136	H	-0.772366	-1.116702	-0.187709
H137	H	-0.835301	-1.033807	-0.270508
H138	H	-1.063071	-0.899635	-0.404630
H139	H	-0.376190	-0.899622	-1.068412
C140	C	-0.387764	-0.374681	-0.235023
C141	C	-0.431994	-0.335766	-0.187332
C142	C	-0.476225	-0.374604	-0.139630
C143	C	-0.476226	-0.452357	-0.139619
C144	C	-0.431994	-0.491277	-0.187312
C145	C	-0.387763	-0.452439	-0.235014
H146	H	-0.431995	-0.278205	-0.187338
H147	H	-0.508968	-0.345793	-0.104324
H148	H	-0.508968	-0.481107	-0.104307
H149	H	-0.431994	-0.548838	-0.187306
H150	H	-0.355020	-0.481250	-0.270320
H151	H	-1.063044	-1.056806	-0.247707
H152	H	-0.376218	-0.899602	-0.940166
H153	H	-0.230376	-0.592234	-0.404765
C154	C	-0.218904	-0.374821	-0.417163
C155	C	-0.174681	-0.335981	-0.464865
C156	C	-0.130451	-0.374893	-0.512564
C157	C	-0.130444	-0.452646	-0.512561
C158	C	-0.174669	-0.491491	-0.464857
C159	C	-0.218899	-0.452579	-0.417158
H160	H	-0.174685	-0.278419	-0.464869
H161	H	-0.097713	-0.346137	-0.547878
H162	H	-0.097702	-0.481451	-0.547870
H163	H	-0.174665	-0.549053	-0.464853
H164	H	-0.251637	-0.481335	-0.381844
C165	C	-0.533547	-1.068961	-0.235240
C166	C	-0.542643	-1.063492	-0.158292
C167	C	-0.506486	-1.111129	-0.110711
C168	C	-0.461233	-1.164236	-0.140078
C169	C	-0.452136	-1.169707	-0.217030
C170	C	-0.488293	-1.122070	-0.264611
H171	H	-0.576143	-1.024177	-0.136549
H172	H	-0.513220	-1.107079	-0.053745
H173	H	-0.434468	-1.199500	-0.104856
H174	H	-0.418635	-1.209022	-0.238773
H175	H	-0.481558	-1.126121	-0.321576
C176	C	-0.533566	-0.887043	-0.416887
C177	C	-0.488312	-0.916318	-0.470043
C178	C	-0.452159	-0.868656	-0.517606
C179	C	-0.461261	-0.791718	-0.512013
C180	C	-0.506518	-0.762438	-0.458855
C181	C	-0.542670	-0.810101	-0.411292
H182	H	-0.481572	-0.973276	-0.474186
H183	H	-0.418657	-0.890331	-0.556958
H184	H	-0.434499	-0.756435	-0.547222
H185	H	-0.513257	-0.705480	-0.454713
H186	H	-0.576172	-0.788425	-0.371941
H187	H	-0.376248	-0.592111	-0.247400
H188	H	-0.662206	-1.056638	-0.247625
C189	C	-0.934408	-0.887203	-0.416959
C190	C	-0.970570	-0.839572	-0.464535
C191	C	-0.934420	-0.791912	-0.512103
C192	C	-0.862107	-0.791884	-0.512095
C193	C	-0.825941	-0.839517	-0.464516
C194	C	-0.862091	-0.887177	-0.416948
H195	H	-1.024104	-0.839591	-0.464543
H196	H	-0.961193	-0.756651	-0.547324
H197	H	-0.835346	-0.756604	-0.547308
H198	H	-0.772407	-0.839498	-0.464509
H199	H	-0.835318	-0.922438	-0.381728
H200	H	-0.230119	-1.056775	-1.068464
C201	C	-0.218657	-1.069128	-0.930130
C202	C	-0.174368	-1.116773	-0.969024
C203	C	-0.130097	-1.164411	-0.930164
C204	C	-0.130116	-1.164404	-0.852411
C205	C	-0.174406	-1.116757	-0.813513
C206	C	-0.218677	-1.069119	-0.852373
H207	H	-0.174353	-1.116781	-1.026585
H208	H	-0.097310	-1.199683	-0.958959
H209	H	-0.097344	-1.199668	-0.823644
H210	H	-0.174422	-1.116749	-0.755951
H211	H	-0.251464	-1.033847	-0.823577
H212	H	-0.230208	-1.056707	-0.712703
H213	H	-0.230239	-1.056682	-0.584459
