data_functionalizedCrystal
_audit_creation_method	'MofGen! by Chris Wilmer'
_symmetry_space_group_name_H-M	'P1'
_symmetry_Int_Tables_number	1
_symmetry_cell_setting	triclinic
loop_
_symmetry_equiv_pos_as_xyz
  x,y,z
_cell_length_a	19.288840
_cell_length_b	11.892095
_cell_length_c	19.288857
_cell_angle_alpha	93.873351
_cell_angle_beta	83.129562
_cell_angle_gamma	86.107712
loop_
_atom_site_label
_atom_site_type_symbol
_atom_site_fract_x
_atom_site_fract_y
_atom_site_fract_z
O1	O	-0.925821	0.094198	-0.082101
O2	O	-0.723556	0.094160	-0.093810
O3	O	-0.830535	0.094166	0.013175
O4	O	-0.818842	0.094191	-0.189086
O5	O	-0.821616	-0.093842	0.004269
O6	O	-0.714637	-0.093848	-0.102716
O7	O	-0.916902	-0.093810	-0.091008
Zn8	Zn	-0.814353	-0.123680	-0.098276
Zn9	Zn	-0.826105	0.124029	-0.086541
O10	O	-0.809922	-0.093817	-0.197993
C11	C	-0.693219	0.000150	-0.097890
C12	C	-0.616114	0.000135	-0.096768
C13	C	-0.825700	0.000161	0.034598
C14	C	-0.824573	0.000158	0.111702
N15	N	-0.806338	-0.292734	-0.106284
C16	C	-0.947239	0.000202	-0.086928
C17	C	-1.024344	0.000224	-0.088049
C18	C	-0.584773	0.102621	-0.091374
C19	C	-0.512327	0.102635	-0.090311
C20	C	-0.471226	0.000157	-0.094629
C21	C	-0.502575	-0.102343	-0.100028
C22	C	-0.575019	-0.102353	-0.101097
C23	C	-0.358175	-0.078345	-0.055970
C24	C	-0.285733	-0.078330	-0.054896
C25	C	-0.247784	0.000186	-0.091334
C26	C	-0.282287	0.078706	-0.128836
C27	C	-0.354732	0.078695	-0.129905
C28	C	-0.392672	0.000157	-0.093470
C29	C	-0.137888	0.102694	-0.084788
C30	C	-0.065440	0.102703	-0.083730
C31	C	-0.055690	-0.102277	-0.093439
C32	C	-0.128137	-0.102284	-0.094504
C33	C	-0.169232	0.000205	-0.090175
C34	C	-0.889901	-0.529377	-0.022763
C35	C	-0.884303	-0.647719	-0.028366
C36	C	-0.789542	-0.647763	-0.123089
C37	C	-0.795139	-0.529421	-0.117486
C38	C	-0.845321	-0.470232	-0.067322
C39	C	-0.850922	-0.351887	-0.061723
C40	C	-0.756157	-0.351934	-0.156442
C41	C	-0.750560	-0.470276	-0.162045
N42	N	-0.834126	0.293084	-0.078528
C43	C	-0.814758	0.000191	-0.219416
C44	C	-0.815885	0.000202	-0.296519
C45	C	-0.828909	0.102641	0.152767
C46	C	-0.827841	0.102649	0.225214
C47	C	-0.822450	0.000168	0.256593
C48	C	-0.818110	-0.102328	0.215518
C49	C	-0.819171	-0.102334	0.143072
C50	C	-0.857728	-0.078331	0.373110
C51	C	-0.856671	-0.078321	0.445555
C52	C	-0.819173	0.000180	0.480040
C53	C	-0.782742	0.078692	0.442072
C54	C	-0.783803	0.078686	0.369627
C55	C	-0.821298	0.000163	0.335148
C56	C	-0.822350	0.102680	0.599660
C57	C	-0.821277	0.102684	0.672107
C58	C	-0.811553	-0.102297	0.662410
C59	C	-0.812619	-0.102298	0.589964
C60	C	-0.818021	0.000194	0.558594
H61	H	-0.618229	0.186076	-0.087849
H62	H	-0.719860	-0.303764	-0.192727
Cl63	Cl	-0.835696	0.231487	0.113334
H64	H	-0.748680	-0.695970	-0.163926
H65	H	-0.920603	-0.695872	0.007919
H66	H	-0.709701	-0.518481	-0.202886
H67	H	-0.039923	0.186163	-0.079341
Cl68	Cl	-0.833292	0.231495	0.276849
H69	H	-0.754138	0.142610	0.338716
Cl70	Cl	-0.914008	-0.277480	0.001337
H71	H	-0.752207	0.142615	0.470148
Cl72	Cl	-0.004027	-0.231109	-0.098875
H73	H	-0.153655	-0.185739	-0.098892
H74	H	-0.813718	-0.185769	0.241072
Cl75	Cl	-0.826724	0.231532	0.723733
H76	H	-0.257647	-0.142260	-0.024356
H77	H	-0.486803	0.186094	-0.085920
Cl78	Cl	-0.829135	0.231523	0.560219
Cl79	Cl	-0.902472	-0.177015	0.493278
Cl80	Cl	-0.405875	-0.177063	-0.010159
H81	H	-0.807158	-0.185739	0.687958
Cl82	Cl	-0.398105	0.177396	-0.177051
H83	H	-0.809093	-0.185751	0.556528
H84	H	-0.469106	-0.185781	-0.103545
Cl85	Cl	-0.813718	-0.231181	0.091444
Cl86	Cl	-0.234587	0.177415	-0.174650
Cl87	Cl	-0.189553	0.231534	-0.079352
Cl88	Cl	-0.904893	-0.177003	0.329769
Cl89	Cl	-0.614421	-0.231204	-0.107878
Cl90	Cl	-0.952992	-0.454966	0.040291
