data_functionalizedCrystal
_audit_creation_method	'MofGen! by Chris Wilmer'
_symmetry_space_group_name_H-M	'P1'
_symmetry_Int_Tables_number	1
_symmetry_cell_setting	triclinic
loop_
_symmetry_equiv_pos_as_xyz
  x,y,z
_cell_length_a	19.288866
_cell_length_b	14.750779
_cell_length_c	19.288865
_cell_angle_alpha	102.602845
_cell_angle_beta	96.863554
_cell_angle_gamma	102.598815
loop_
_atom_site_label
_atom_site_type_symbol
_atom_site_fract_x
_atom_site_fract_y
_atom_site_fract_z
O1	O	-0.906227	0.079805	0.101764
O2	O	-0.406227	0.579805	0.601764
O3	O	-0.703964	0.079816	0.113454
O4	O	-0.203964	0.579816	0.613454
O5	O	-0.810944	0.079791	0.006475
O6	O	-0.310944	0.579791	0.506475
O7	O	-0.799247	0.079830	0.208743
O8	O	-0.299247	0.579830	0.708743
O9	O	-0.841185	-0.079866	-0.023763
O10	O	-0.341185	0.420134	0.476237
O11	O	-0.734206	-0.079841	0.083216
O12	O	-0.234206	0.420159	0.583216
O13	O	-0.936469	-0.079852	0.071526
O14	O	-0.436469	0.420148	0.571526
Zn15	Zn	-0.840139	-0.105196	0.072570
Zn16	Zn	-0.340139	0.394804	0.572570
Zn17	Zn	-0.800294	0.105160	0.112410
Zn18	Zn	-0.300294	0.605160	0.612410
O19	O	-0.829489	-0.079828	0.178505
O20	O	-0.329489	0.420172	0.678505
C21	C	-0.693208	-0.000012	0.097959
C22	C	-0.193208	0.499988	0.597959
C23	C	-0.616104	-0.000008	0.096830
C24	C	-0.116104	0.499992	0.596830
N25	N	-0.867337	-0.248758	0.045379
N26	N	-0.367337	0.251242	0.545379
C27	C	-0.044056	0.087009	0.105177
C28	C	0.455944	0.587009	0.605177
C29	C	-0.116503	0.087013	0.106234
C30	C	0.383497	0.587013	0.606234
C31	C	-0.169216	-0.000016	0.090283
C32	C	0.330784	0.499984	0.590283
C33	C	-0.149480	-0.087055	0.073255
C34	C	0.350520	0.412945	0.573255
C35	C	-0.077035	-0.087057	0.072191
C36	C	0.422965	0.412943	0.572191
C37	C	-0.291172	-0.066684	0.120024
C38	C	0.208828	0.433316	0.620024
C39	C	-0.363614	-0.066679	0.121093
C40	C	0.136386	0.433321	0.621093
C41	C	-0.392662	-0.000016	0.093561
C42	C	0.107338	0.499984	0.593561
C43	C	-0.349254	0.066658	0.064973
C44	C	0.150746	0.566658	0.564973
C45	C	-0.276809	0.066657	0.063909
C46	C	0.223191	0.566657	0.563909
C47	C	-0.247773	-0.000025	0.091435
C48	C	0.252227	0.499975	0.591435
C49	C	-0.490946	0.087021	0.111730
C50	C	0.009054	0.587021	0.611730
C51	C	-0.563396	0.087022	0.112783
C52	C	-0.063396	0.587022	0.612783
C53	C	-0.596371	-0.087049	0.079810
C54	C	-0.096371	0.412951	0.579810
C55	C	-0.523924	-0.087047	0.078751
C56	C	-0.023924	0.412953	0.578751
C57	C	-0.471214	-0.000009	0.094715
C58	C	0.028786	0.499991	0.594715
C59	C	-0.697141	-0.600537	0.215503
C60	C	-0.197141	-0.100537	0.715503
C61	C	-0.716205	-0.701040	0.196454
C62	C	-0.216205	-0.201040	0.696454
C63	C	-0.810954	-0.701025	0.101759
C64	C	-0.310954	-0.201025	0.601759
C65	C	-0.791896	-0.600519	0.120798
C66	C	-0.291896	-0.100519	0.620798
C67	C	-0.734990	-0.550283	0.177671
C68	C	-0.234990	-0.050283	0.677671
C69	C	-0.829745	-0.550266	0.082965
C70	C	-0.329745	-0.050266	0.582965
C71	C	-0.810690	-0.449769	0.102005
C72	C	-0.310690	0.050231	0.602005
C73	C	-0.753787	-0.399526	0.158877
C74	C	-0.253787	0.100474	0.658877
C75	C	-0.715935	-0.449786	0.196711
C76	C	-0.215935	0.050214	0.696711
C77	C	-0.886655	-0.600504	0.026096
C78	C	-0.386655	-0.100504	0.526096
C79	C	-0.924503	-0.550250	-0.011736
C80	C	-0.424503	-0.050250	0.488264
C81	C	-0.905446	-0.449752	0.007300
C82	C	-0.405446	0.050248	0.507300
C83	C	-0.848543	-0.399508	0.064172
C84	C	-0.348543	0.100492	0.564172
C85	C	-0.943298	-0.399491	-0.030534
C86	C	-0.443298	0.100509	0.469466
C87	C	-0.924243	-0.298994	-0.011494
C88	C	-0.424243	0.201006	0.488506
C89	C	-0.829488	-0.299011	0.083212
C90	C	-0.329488	0.200989	0.583212
C91	C	0.052776	-0.000022	0.087022
C92	C	0.552776	0.499978	0.587022
C93	C	-0.024326	-0.000019	0.088155
C94	C	0.475674	0.499981	0.588155
C95	C	-0.825689	-0.000040	-0.034521
C96	C	-0.325689	0.499960	0.465479
C97	C	-0.824561	-0.000049	-0.111626
C98	C	-0.324561	0.499951	0.388374
N99	N	-0.773101	0.248722	0.139595
N100	N	-0.273101	0.748722	0.639595
C101	C	-0.887331	-0.000057	-0.156324
C102	C	-0.387331	0.499943	0.343676
C103	C	-0.886267	-0.000042	-0.228768
C104	C	-0.386267	0.499958	0.271232
C105	C	-0.822434	-0.000038	-0.256515
C106	C	-0.322434	0.499962	0.243485
C107	C	-0.759656	-0.000024	-0.211807
C108	C	-0.259656	0.499976	0.288193
C109	C	-0.760719	-0.000030	-0.139362
C110	C	-0.260719	0.499970	0.360638
C111	C	-0.782847	-0.055959	-0.375394
C112	C	-0.282847	0.444041	0.124606
C113	C	-0.781788	-0.055960	-0.447839
C114	C	-0.281788	0.444040	0.052161
C115	C	-0.819151	-0.000016	-0.479957
C116	C	-0.319151	0.499984	0.020043
C117	C	-0.857588	0.055916	-0.439625
C118	C	-0.357588	0.555916	0.060375
C119	C	-0.858651	0.055910	-0.367181
C120	C	-0.358651	0.555910	0.132819
C121	C	-0.821274	-0.000031	-0.335068
C122	C	-0.321274	0.499969	0.164932
C123	C	-0.880771	-0.000006	-0.603207
C124	C	-0.380771	0.499994	-0.103207
C125	C	-0.879704	0.000015	-0.675651
C126	C	-0.379704	0.500015	-0.175651
C127	C	-0.753092	0.000023	-0.658690
C128	C	-0.253092	0.500023	-0.158690
C129	C	-0.754159	0.000012	-0.586245
C130	C	-0.254159	0.500012	-0.086245
C131	C	-0.818001	-0.000008	-0.558509
C132	C	-0.318001	0.499992	-0.058509
C133	C	-0.814744	0.000006	0.219501
C134	C	-0.314744	0.500006	0.719501
C135	C	-0.815870	0.000021	0.296608
C136	C	-0.315870	0.500021	0.796608
H137	H	-0.001144	0.157882	0.118173
H138	H	0.498856	0.657882	0.618173
H139	H	-0.372902	0.120944	0.042557
H140	H	0.127098	0.620944	0.542557
F141	F	-0.137507	0.179643	0.124353
F142	F	0.362493	0.679643	0.624353
H143	H	-0.937383	-0.000044	-0.265167
H144	H	-0.437383	0.499956	0.234833
H145	H	-0.448028	0.157893	0.124727
H146	H	0.051972	0.657893	0.624727
F147	F	-0.687351	0.000016	-0.538673
F148	F	-0.187351	0.500016	-0.038673
H149	H	-0.241470	0.120943	0.040629
H150	H	0.258530	0.620943	0.540629
F151	F	-1.003867	-0.452967	-0.091054
F152	F	-0.503867	0.047033	0.408946
F153	F	-0.964529	-0.245510	-0.051759
F154	F	-0.464529	0.254490	0.448241
H155	H	-0.889946	0.101453	-0.334345
H156	H	-0.389946	0.601453	0.165655
F157	F	-0.502924	-0.179675	0.060643
F158	F	-0.002924	0.320325	0.560643
F159	F	-0.740883	-0.115490	-0.490757
F160	F	-0.240883	0.384510	0.009243
H161	H	-0.857290	-0.741939	0.055454
H162	H	-0.357290	-0.241939	0.555454
H163	H	-0.939315	-0.000069	-0.133746
H164	H	-0.439315	0.499931	0.366254
H165	H	-0.579457	0.157893	0.126639
H166	H	-0.079457	0.657893	0.626639
H167	H	-0.783144	-0.258107	0.129518
H168	H	-0.283144	0.241893	0.629518
H169	H	-0.709603	-0.000023	-0.102969
H170	H	-0.209603	0.499977	0.397031
H171	H	-0.888012	0.101471	-0.465773
H172	H	-0.388012	0.601471	0.034227
H173	H	-0.639290	-0.157910	0.066820
H174	H	-0.139290	0.342090	0.566820
H175	H	-0.192404	-0.157915	0.060266
H176	H	0.307596	0.342085	0.560266
H177	H	-0.060974	-0.157927	0.058332
H178	H	0.439026	0.342073	0.558332
H179	H	-0.932754	-0.000017	-0.580622
H180	H	-0.432754	0.499983	-0.080622
H181	H	-0.669591	-0.408882	0.243017
H182	H	-0.169591	0.091118	0.743017
F183	F	-0.675916	-0.754517	0.236729
F184	F	-0.175916	-0.254517	0.736729
F185	F	-0.733511	-0.292567	0.179143
F186	F	-0.233511	0.207433	0.679143
H187	H	-0.930819	0.000014	-0.712043
H188	H	-0.430819	0.500014	-0.212043
F189	F	-0.409803	-0.137632	0.151526
F190	F	0.090197	0.362368	0.651526
H191	H	-0.267530	-0.120979	0.142438
H192	H	0.232470	0.379021	0.642438
F193	F	-0.685155	0.000032	-0.688214
F194	F	-0.185155	0.500032	-0.188214
H195	H	-0.752421	-0.101521	-0.349251
H196	H	-0.252421	0.398479	0.150749
H197	H	-0.650797	-0.559632	0.261810
H198	H	-0.150797	-0.059632	0.761810
H199	H	-0.902169	-0.682335	0.010598
H200	H	-0.402169	-0.182335	0.510598
F201	F	-0.691719	-0.000013	-0.241337
F202	F	-0.191719	0.499987	0.258663
H203	H	-0.970839	-0.591164	-0.058041
H204	H	-0.470839	-0.091164	0.441959
