data_functionalizedCrystal
_audit_creation_method	'MofGen! by Chris Wilmer'
_symmetry_space_group_name_H-M	'P1'
_symmetry_Int_Tables_number	1
_symmetry_cell_setting	triclinic
loop_
_symmetry_equiv_pos_as_xyz
  x,y,z
_cell_length_a	10.654550
_cell_length_b	10.654550
_cell_length_c	9.130313
_cell_angle_alpha	90.004369
_cell_angle_beta	90.007043
_cell_angle_gamma	84.484916
loop_
_atom_site_label
_atom_site_type_symbol
_atom_site_fract_x
_atom_site_fract_y
_atom_site_fract_z
O1	O	-1.667840	-0.176398	-0.121919
O2	O	-1.302361	-0.193205	-0.121896
O3	O	-1.493503	-0.002062	-0.121899
O4	O	-1.476697	-0.367541	-0.121916
O5	O	-1.493490	-0.002057	0.121700
O6	O	-1.302348	-0.193199	0.121703
O7	O	-1.667826	-0.176393	0.121679
Cu8	Cu	-1.485086	-0.184795	0.143934
Cu9	Cu	-1.485101	-0.184802	-0.144150
O10	O	-1.476684	-0.367535	0.121682
C11	C	-1.492263	0.044739	-0.000100
C12	C	-1.488571	0.184182	-0.000102
C13	C	-1.255556	-0.191968	-0.000093
C14	C	-1.116113	-0.188276	-0.000084
C15	C	-1.714631	-0.177630	-0.000126
C16	C	-1.854074	-0.181321	-0.000145
C17	C	-1.036628	-0.300817	-0.000111
C18	C	-0.905607	-0.297341	-0.000136
C19	C	-0.933570	-0.068771	-0.000114
C20	C	-1.064588	-0.072249	-0.000078
C21	C	-1.088152	-0.416844	-0.000117
C22	C	-1.008665	-0.529395	-0.000145
C23	C	-0.877645	-0.525918	-0.000170
C24	C	-0.826111	-0.409891	-0.000167
C25	C	-1.477925	-0.414336	-0.000120
C26	C	-1.481617	-0.553779	-0.000127
N27	N	-1.485084	-0.184790	0.346556
C28	C	-1.601112	0.263667	-0.000110
C29	C	-1.597636	0.394688	-0.000128
C30	C	-1.369066	0.366725	-0.000124
C31	C	-1.372544	0.235707	-0.000117
N32	N	-1.485113	-0.184798	-0.346773
C33	C	-1.569751	-0.100188	0.423207
C34	C	-1.569763	-0.100188	0.576544
C35	C	-1.400437	-0.269403	0.576566
C36	C	-1.400420	-0.269396	0.423232
H37	H	-1.194834	-0.419688	-0.000103
H38	H	-1.129308	0.019392	-0.000061
H39	H	-1.331508	-0.338290	0.639011
H40	H	-1.050633	-0.623860	-0.000135
H41	H	-1.695588	0.221721	-0.000102
Cl42	Cl	-0.777722	-0.667407	-0.000192
Cl43	Cl	-0.661396	-0.405525	-0.000178
Cl44	Cl	-1.676180	0.006179	0.326821
Cl45	Cl	-1.223212	0.431509	-0.000141
Cl46	Cl	-1.676202	0.006175	0.672900
H47	H	-1.689279	0.459401	-0.000137
Cl48	Cl	-1.231051	0.135774	-0.000120
H49	H	-0.891600	0.025693	-0.000136
Cl50	Cl	-1.293968	-0.375755	0.326862
