data_functionalizedCrystal
_audit_creation_method	'MofGen! by Chris Wilmer'
_symmetry_space_group_name_H-M	'P1'
_symmetry_Int_Tables_number	1
_symmetry_cell_setting	triclinic
loop_
_symmetry_equiv_pos_as_xyz
  x,y,z
_cell_length_a	15.944551
_cell_length_b	19.188930
_cell_length_c	14.421503
_cell_angle_alpha	89.999163
_cell_angle_beta	89.996859
_cell_angle_gamma	83.321760
loop_
_atom_site_label
_atom_site_type_symbol
_atom_site_fract_x
_atom_site_fract_y
_atom_site_fract_z
O1	O	1.114192	0.090038	-0.077026
O2	O	0.869601	0.101140	-0.077050
O3	O	0.998955	-0.006048	-0.077019
O4	O	0.984838	0.197227	-0.077057
O5	O	0.998934	-0.006032	0.077204
O6	O	0.869580	0.101156	0.077173
O7	O	1.114171	0.090054	0.077198
Cu8	Cu	0.991873	0.095607	0.091267
Cu9	Cu	0.991899	0.095588	-0.091120
O10	O	0.984817	0.197243	0.077167
C11	C	0.838298	0.100687	0.000059
C12	C	0.745057	0.099306	0.000050
C13	C	0.530462	0.029563	0.000081
C14	C	0.469331	0.061941	-0.075965
C15	C	0.574341	0.096806	0.000062
C16	C	0.469332	0.061973	0.076087
C17	C	0.409437	0.094386	0.000077
C18	C	0.514438	0.129203	-0.076047
C19	C	0.514446	0.129225	0.076073
C20	C	0.453332	0.161652	0.000008
C21	C	0.669338	0.098198	0.000052
C22	C	0.314441	0.093000	0.000080
C23	C	0.998487	-0.032052	0.000095
C24	C	0.997115	-0.109560	0.000103
C25	C	1.073016	-0.154288	0.000115
C26	C	1.071726	-0.227115	0.000100
C27	C	0.994532	-0.255211	0.000092
C28	C	0.918622	-0.210474	0.000075
C29	C	0.919913	-0.137648	0.000080
N30	N	0.935519	-0.363364	0.052571
N31	N	0.934298	-0.432545	0.052568
C32	C	0.990637	-0.474630	0.000073
N33	N	1.048256	-0.444921	-0.052407
N34	N	1.049480	-0.375733	-0.052400
C35	C	0.993123	-0.334178	0.000085
C36	C	1.065145	-0.598326	0.000067
C37	C	1.063852	-0.671154	0.000046
C38	C	0.910745	-0.654511	0.000030
C39	C	0.912040	-0.581685	0.000041
C40	C	0.989242	-0.553597	0.000064
C41	C	1.145474	0.090507	0.000087
C42	C	1.238715	0.091889	0.000089
C43	C	0.985285	0.223247	0.000050
C44	C	0.986657	0.300755	0.000036
N45	N	0.991862	0.095619	0.219549
N46	N	0.991917	0.095569	-0.219401
C47	C	0.932038	0.145161	0.469188
C48	C	1.007887	0.158716	0.530995
C49	C	0.991882	0.095603	0.408710
C50	C	0.916052	0.082064	0.530997
C51	C	0.991895	0.095588	0.591431
C52	C	1.067770	0.109189	0.469157
C53	C	0.975885	0.032510	0.469153
C54	C	1.051789	0.046038	0.530932
C55	C	0.991874	0.095613	0.303449
C56	C	0.991913	0.095578	0.696690
H57	H	0.534329	0.157616	-0.140409
O58	O	0.839582	0.068441	0.563557
C59	C	0.840894	0.067974	0.661312
H60	H	0.892213	0.099910	0.687053
H61	H	0.854567	0.011641	0.687114
C62	C	0.691502	0.061198	0.666849
C63	C	0.754528	0.100427	0.698466
H64	H	0.638227	0.081214	0.689769
H65	H	0.690618	0.061510	0.600990
H66	H	0.702907	0.014256	0.688353
H67	H	0.743128	0.147366	0.676952
H68	H	0.755408	0.100124	0.764323
H69	H	0.847892	-0.677386	0.000019
O70	O	1.112341	-0.003896	0.563037
C71	C	1.192139	0.010627	0.531336
H72	H	1.189522	0.068816	0.514083
H73	H	1.210122	-0.021759	0.466558
C74	C	1.261762	-0.079831	0.628709
C75	C	1.258550	-0.008361	0.607526
H76	H	1.302729	-0.091546	0.675703
H77	H	1.208001	-0.089618	0.650064
H78	H	1.276745	-0.106811	0.574721
H79	H	1.243557	0.018618	0.661510
H80	H	1.312310	0.001431	0.586181
H81	H	0.534462	0.157649	0.140358
O82	O	0.959554	-0.031087	0.436755
C83	C	0.879508	-0.045156	0.468227
H84	H	0.839449	0.006317	0.485602
H85	H	0.887313	-0.079481	0.532883
C86	C	0.884837	-0.146908	0.370455
C87	C	0.835634	-0.083687	0.391787
H88	H	0.857774	-0.170679	0.323305
H89	H	0.938767	-0.137431	0.349253
H90	H	0.891338	-0.175504	0.424341
H91	H	0.829143	-0.055090	0.337904
H92	H	0.781701	-0.093160	0.412978
H93	H	0.449336	0.033493	-0.140247
O94	O	0.445371	0.028137	0.152815
C95	C	0.389316	0.074411	0.205864
H96	H	0.358188	0.118027	0.159382
H97	H	0.425719	0.098227	0.263554
C98	C	0.359192	-0.019702	0.305761
C99	C	0.320954	0.033865	0.248670
H100	H	0.317025	-0.044712	0.332169
H101	H	0.396960	-0.050877	0.270023
H102	H	0.389527	0.000153	0.353828
H103	H	0.290630	0.014009	0.200597
H104	H	0.283180	0.065036	0.284400
H105	H	1.021430	0.212066	0.558159
H106	H	0.564003	-0.026244	-0.000003
H107	H	0.419965	0.217516	-0.000045
H108	H	0.858103	-0.101230	0.000071
H109	H	1.135880	-0.131424	0.000131
H110	H	1.133536	-0.263540	0.000106
O111	O	0.843688	-0.237846	-0.000056
C112	C	0.838365	-0.279458	-0.079943
H113	H	0.904640	-0.297591	-0.106563
H114	H	0.801094	-0.247286	-0.135878
C115	C	0.711969	-0.321609	-0.022993
C116	C	0.793370	-0.343884	-0.055684
H117	H	0.684211	-0.361348	-0.008032
H118	H	0.715553	-0.293572	0.030827
H119	H	0.680921	-0.294797	-0.069611
H120	H	0.824419	-0.370687	-0.009062
H121	H	0.789790	-0.371927	-0.109496
H122	H	1.125662	-0.707571	0.000051
H123	H	1.128007	-0.575456	0.000081
O124	O	0.838231	-0.538332	0.000083
C125	C	0.769819	-0.578743	0.000049
H126	H	0.791336	-0.633097	0.029243
H127	H	0.746153	-0.583925	-0.073943
C128	C	0.671565	-0.475705	0.024670
C129	C	0.697991	-0.542461	0.060534
H130	H	0.627256	-0.453324	0.061976
H131	H	0.717655	-0.448478	0.024690
H132	H	0.651849	-0.480033	-0.036989
H133	H	0.717716	-0.538132	0.122187
H134	H	0.651902	-0.569687	0.060527
O135	O	0.871814	0.195287	0.436878
C136	C	0.889004	0.261713	0.468410
H137	H	0.958996	0.259746	0.485742
H138	H	0.849911	0.276667	0.533104
C139	C	0.780077	0.319145	0.370761
C140	C	0.866044	0.316731	0.392041
H141	H	0.765911	0.353083	0.323655
H142	H	0.768493	0.274392	0.349519
H143	H	0.747510	0.331604	0.424679
H144	H	0.898609	0.304263	0.338126
H145	H	0.877632	0.361482	0.413272
H146	H	1.131917	0.120698	0.442107
