data_functionalizedCrystal
_audit_creation_method	'MofGen! by Chris Wilmer'
_symmetry_space_group_name_H-M	'P1'
_symmetry_Int_Tables_number	1
_symmetry_cell_setting	triclinic
loop_
_symmetry_equiv_pos_as_xyz
  x,y,z
_cell_length_a	12.759400
_cell_length_b	13.897449
_cell_length_c	12.759393
_cell_angle_alpha	90.021539
_cell_angle_beta	89.968231
_cell_angle_gamma	89.985483
loop_
_atom_site_label
_atom_site_type_symbol
_atom_site_fract_x
_atom_site_fract_y
_atom_site_fract_z
Zn1	Zn	-0.418207	-1.474710	-0.594098
Zn2	Zn	-0.593926	-1.474616	-0.418418
Zn3	Zn	-0.418261	-1.313403	-0.418425
Zn4	Zn	-0.593844	-1.313390	-0.594047
O5	O	-0.506060	-1.394030	-0.506247
O6	O	-0.441528	-1.609679	-0.570812
O7	O	-0.570681	-1.453198	-0.271398
O8	O	-0.271233	-1.334846	-0.441752
O9	O	-0.570628	-1.609610	-0.441741
O10	O	-0.271193	-1.453357	-0.570819
O11	O	-0.441621	-1.334755	-0.271403
O12	O	-0.441541	-1.178420	-0.441703
O13	O	-0.570488	-1.334823	-0.741075
O14	O	-0.570541	-1.178410	-0.570731
O15	O	-0.441448	-1.453344	-0.741112
O16	O	-0.740936	-1.453184	-0.441691
O17	O	-0.740876	-1.334732	-0.570725
C18	C	-0.779027	-1.393973	-0.506225
C19	C	-0.895804	-1.394036	-0.506251
C20	C	-0.506039	-1.143415	-0.506213
C21	C	-0.506055	-1.036202	-0.506223
C22	C	-0.950662	-1.455783	-0.439137
C23	C	-1.060386	-1.455842	-0.439170
C24	C	-1.060383	-1.332400	-0.573432
C25	C	-0.950661	-1.332346	-0.573404
C26	C	-0.895805	-1.517473	-0.371984
C27	C	-0.950663	-1.579224	-0.304864
C28	C	-1.060387	-1.579283	-0.304896
C29	C	-1.115253	-1.517592	-0.372049
C30	C	-0.506053	-0.839906	-0.506243
C31	C	-0.506051	-0.949139	-0.506229
C32	C	-0.232026	-1.394114	-0.506292
C33	C	-0.115250	-1.394149	-0.506311
C34	C	-0.505953	-1.394092	-0.780280
C35	C	-0.505907	-1.394119	-0.897057
C36	C	-0.506074	-0.645623	-0.506272
C37	C	-0.506063	-0.752837	-0.506256
C38	C	-0.438693	-1.332472	-0.951928
C39	C	-0.438662	-1.332501	-1.061652
C40	C	-0.573061	-1.455833	-1.061625
C41	C	-0.573097	-1.455798	-0.951903
C42	C	-0.371503	-1.270793	-0.897082
C43	C	-0.304282	-1.209142	-0.951952
C44	C	-0.304251	-1.209171	-1.061677
C45	C	-0.371440	-1.270852	-1.116530
C46	C	-0.506090	-1.394023	-0.233279
C47	C	-0.505840	-1.394183	-0.116503
H48	H	-0.806462	-1.517429	-0.371947
C49	C	-1.119778	-1.646513	-0.232093
C50	C	-1.092916	-1.741907	-0.255070
C51	C	-1.147575	-1.803877	-0.188012
H52	H	-1.193005	-1.637878	-0.241637
H53	H	-1.101832	-1.632485	-0.161468
H54	H	-1.110869	-1.755931	-0.325679
H55	H	-1.019699	-1.750573	-0.245520
H56	H	-1.129629	-1.789849	-0.117387
H57	H	-1.220800	-1.795233	-0.197561
H58	H	-1.129351	-1.868608	-0.203586
H59	H	-0.371519	-1.270764	-0.807739
H60	H	-0.905995	-1.282067	-0.628055
H61	H	-0.249585	-1.158919	-0.907284
H62	H	-0.249524	-1.158966	-1.106349
C63	C	-0.371218	-1.270774	-1.235661
C64	C	-0.297959	-1.203597	-1.271978
C65	C	-0.297711	-1.203511	-1.381712
H66	H	-0.438945	-1.254046	-1.260594
H67	H	-0.352996	-1.333017	-1.260529
H68	H	-0.316187	-1.141368	-1.247120
H69	H	-0.230221	-1.220310	-1.247073
H70	H	-0.279490	-1.265754	-1.406581
H71	H	-0.365442	-1.186784	-1.406635
H72	H	-0.248000	-1.157939	-1.406367
H73	H	-0.627761	-1.506052	-1.106296
H74	H	-0.627815	-1.506009	-0.907226
H75	H	-1.204597	-1.517653	-0.372078
C76	C	-0.891045	-1.646042	-0.231832
C77	C	-0.828182	-1.591423	-0.164401
C78	C	-0.773259	-1.652943	-0.097100
H79	H	-0.848083	-1.688046	-0.271927
H80	H	-0.939400	-1.682810	-0.191805
H81	H	-0.779832	-1.554671	-0.204423
H82	H	-0.871117	-1.549421	-0.124283
H83	H	-0.821615	-1.689711	-0.057074
H84	H	-0.730304	-1.694944	-0.137204
H85	H	-0.730608	-1.615893	-0.051334
C86	C	-1.120138	-1.265454	-0.646214
C87	C	-1.227969	-1.278699	-0.631853
C88	C	-1.283046	-1.217033	-0.698869
H89	H	-1.102216	-1.279463	-0.716858
H90	H	-1.102284	-1.200623	-0.630756
H91	H	-1.245816	-1.343516	-0.647318
H92	H	-1.245922	-1.264683	-0.561222
H93	H	-1.265192	-1.152201	-0.683412
H94	H	-1.265116	-1.231047	-0.769509
H95	H	-1.356215	-1.226005	-0.689127
