data_functionalizedCrystal
_audit_creation_method	'MofGen! by Chris Wilmer'
_symmetry_space_group_name_H-M	'P1'
_symmetry_Int_Tables_number	1
_symmetry_cell_setting	triclinic
loop_
_symmetry_equiv_pos_as_xyz
  x,y,z
_cell_length_a	18.101398
_cell_length_b	18.101397
_cell_length_c	16.959447
_cell_angle_alpha	90.033674
_cell_angle_beta	90.010791
_cell_angle_gamma	90.018618
loop_
_atom_site_label
_atom_site_type_symbol
_atom_site_fract_x
_atom_site_fract_y
_atom_site_fract_z
Zn1	Zn	1.132150	-0.294852	0.446816
Zn2	Zn	1.632150	0.205148	0.946816
Zn3	Zn	1.132076	-0.418704	0.314630
Zn4	Zn	1.632076	0.081296	0.814630
Zn5	Zn	1.008316	-0.294877	0.314661
Zn6	Zn	1.508316	0.205123	0.814661
Zn7	Zn	1.008282	-0.418652	0.446776
Zn8	Zn	1.508282	0.081348	0.946776
O9	O	1.070206	-0.356771	0.380721
O10	O	1.570206	0.143229	0.880721
O11	O	1.235773	-0.311292	0.429284
O12	O	1.735773	0.188708	0.929284
O13	O	1.115643	-0.402311	0.204023
O14	O	1.615643	0.097689	0.704023
O15	O	1.024788	-0.191241	0.332222
O16	O	1.524788	0.308759	0.832222
O17	O	1.235719	-0.402286	0.332168
O18	O	1.735719	0.097714	0.832168
O19	O	1.115768	-0.191222	0.429315
O20	O	1.615768	0.308778	0.929315
O21	O	1.024717	-0.311336	0.204046
O22	O	1.524717	0.188664	0.704046
O23	O	0.904679	-0.311285	0.332184
O24	O	1.404679	0.188715	0.832184
O25	O	1.024730	-0.402196	0.557392
O26	O	1.524730	0.097804	1.057392
O27	O	0.904654	-0.402222	0.429248
O28	O	1.404654	0.097778	0.929248
O29	O	1.115735	-0.311241	0.557422
O30	O	1.615735	0.188759	1.057422
O31	O	1.115610	-0.522330	0.332129
O32	O	1.615610	-0.022330	0.832129
O33	O	1.024659	-0.522292	0.429217
O34	O	1.524659	-0.022292	0.929217
C35	C	0.877796	-0.356751	0.380715
C36	C	1.377796	0.143249	0.880715
C37	C	0.795482	-0.356760	0.380732
C38	C	1.295482	0.143240	0.880732
C39	C	0.644773	-0.356774	0.380730
C40	C	1.144773	0.143226	0.880730
C41	C	0.613429	-0.414077	0.441706
C42	C	1.113429	0.085923	0.941706
C43	C	0.527810	-0.414309	0.441525
C44	C	1.027810	0.085691	0.941525
C45	C	0.496391	-0.356787	0.380731
C46	C	0.996391	0.143213	0.880731
C47	C	0.527452	-0.377618	0.297326
C48	C	1.027452	0.122382	0.797326
C49	C	0.613097	-0.378026	0.297679
C50	C	1.113097	0.121974	0.797679
C51	C	0.613236	-0.278498	0.402431
C52	C	1.113236	0.221502	0.902431
C53	C	0.527586	-0.278927	0.404268
C54	C	1.027586	0.221073	0.904268
C55	C	0.412531	-0.356794	0.380725
C56	C	0.912531	0.143206	0.880725
C57	C	0.728633	-0.356769	0.380730
C58	C	1.228633	0.143231	0.880730
C59	C	1.070143	-0.549182	0.380682
C60	C	1.570143	-0.049182	0.880682
C61	C	1.070183	-0.631496	0.380692
C62	C	1.570183	-0.131496	0.880692
C63	C	1.070278	-0.930587	0.380765
C64	C	1.570278	-0.430587	0.880765
C65	C	1.127342	-0.899255	0.319516
C66	C	1.627342	-0.399255	0.819516
C67	C	1.127540	-0.813637	0.319675
C68	C	1.627540	-0.313637	0.819675
C69	C	1.070231	-0.782204	0.380728
C70	C	1.570231	-0.282204	0.880728
C71	C	1.091382	-0.813208	0.464043
C72	C	1.591382	-0.313208	0.964043
C73	C	1.091824	-0.898853	0.463710
C74	C	1.591824	-0.398853	0.963710
C75	C	0.991910	-0.899094	0.359419
C76	C	1.491910	-0.399094	0.859419
C77	C	0.992298	-0.813445	0.357559
C78	C	1.492298	-0.313445	0.857559
C79	C	1.070203	-0.698345	0.380713
C80	C	1.570203	-0.198345	0.880713
C81	C	1.070308	-1.014446	0.380786
C82	C	1.570308	-0.514446	0.880786
C83	C	1.263368	-0.356792	0.380727
C84	C	1.763368	0.143208	0.880727
C85	C	1.345682	-0.356801	0.380729
C86	C	1.845682	0.143199	0.880729
C87	C	1.070237	-0.356710	0.586889
C88	C	1.570237	0.143290	1.086889
C89	C	1.070250	-0.356684	0.674746
C90	C	1.570250	0.143316	1.174746
C91	C	1.070290	-0.163609	0.380777
C92	C	1.570290	0.336391	0.880777
C93	C	1.070326	-0.081295	0.380800
C94	C	1.570326	0.418705	0.880800
C95	C	1.070218	-0.356779	0.175355
C96	C	1.570218	0.143221	0.675355
C97	C	1.070348	-0.356596	0.087498
C98	C	1.570348	0.143404	0.587498
C99	C	1.022957	-0.403962	1.046209
C100	C	1.522957	0.096038	1.546209
C101	C	1.117721	-0.309249	1.046234
C102	C	1.617721	0.190751	1.546234
C103	C	1.117701	-0.309265	0.963688
C104	C	1.617701	0.190735	1.463688
C105	C	1.070309	-0.356631	0.922399
C106	C	1.570309	0.143369	1.422399
C107	C	1.022937	-0.403981	0.963655
C108	C	1.522937	0.096019	1.463655
C109	C	1.165078	-0.261921	0.922426
C110	C	1.665078	0.238079	1.422426
C111	C	1.165060	-0.261936	0.839875
C112	C	1.665060	0.238064	1.339875
C113	C	1.117664	-0.309298	0.798584
C114	C	1.617664	0.190702	1.298584
C115	C	1.070289	-0.356649	0.839845
C116	C	1.570289	0.143351	1.339845
C117	C	1.022898	-0.404015	0.798556
C118	C	1.522898	0.095985	1.298556
C119	C	0.975519	-0.451363	0.839816
C120	C	1.475519	0.048637	1.339816
C121	C	0.975541	-0.451343	0.922364
C122	C	1.475541	0.048657	1.422364
C123	C	1.117642	-0.309318	0.716035
C124	C	1.617642	0.190682	1.216035
C125	C	1.022878	-0.404034	0.716002
C126	C	1.522878	0.095966	1.216002
H127	H	0.507300	-0.472315	0.427128
H128	H	1.007300	0.027685	0.927128
F129	F	0.640201	-0.325825	0.236241
F130	F	1.140201	0.174175	0.736241
F131	F	1.215517	-0.211520	0.966372
F132	F	1.715517	0.288480	1.466372
H133	H	1.185075	-0.920724	0.333476
H134	H	1.685075	-0.420724	0.833476
H135	H	0.634043	-0.401233	0.503731
H136	H	1.134043	0.098767	1.003731
H137	H	1.149107	-0.918773	0.481791
H138	H	1.649107	-0.418773	0.981791
H139	H	0.633508	-0.235808	0.358024
H140	H	1.133508	0.264192	0.858024
H141	H	0.976349	-0.793189	0.296246
H142	H	1.476349	-0.293189	0.796246
H143	H	0.505984	-0.434202	0.278673
H144	H	1.005984	0.065798	0.778673
H145	H	0.634855	-0.259468	0.462225
H146	H	1.134855	0.240532	0.962225
H147	H	1.156309	-0.270691	1.079857
H148	H	1.656309	0.229309	1.579857
H149	H	0.947494	-0.792056	0.398903
H150	H	1.447494	-0.292056	0.898903
H151	H	0.949393	-0.919356	0.404029
H152	H	1.449393	-0.419356	0.904029
F153	F	1.110261	-0.926244	0.238525
F154	F	1.610261	-0.426244	0.738525
H155	H	0.507287	-0.263214	0.465649
H156	H	1.007287	0.236786	0.965649
F157	F	1.215483	-0.211543	0.795970
F158	F	1.715483	0.288457	1.295970
H159	H	0.506199	-0.233979	0.363130
H160	H	1.006199	0.266021	0.863130
F161	F	1.203415	-0.786783	0.338137
F162	F	1.703415	-0.286783	0.838137
F163	F	1.038714	-0.786601	0.525296
F164	F	1.538714	-0.286601	1.025296
H165	H	1.156219	-0.270770	0.682445
H166	H	1.656219	0.229230	1.182445
H167	H	0.984279	-0.442599	0.682390
H168	H	1.484279	0.057401	1.182390
H169	H	1.114308	-0.792678	0.257898
H170	H	1.614308	-0.292678	0.757898
H171	H	0.506809	-0.401314	0.503358
H172	H	1.006809	0.098686	1.003358
H173	H	1.052081	-0.919576	0.510917
H174	H	1.552081	-0.419576	1.010917
F175	F	1.165417	-0.785100	0.488079
F176	F	1.665417	-0.285100	0.988079
F177	F	0.925124	-0.501732	0.966281
F178	F	1.425124	-0.001732	1.466281
F179	F	0.641531	-0.489460	0.423119
F180	F	1.141531	0.010540	0.923119
H181	H	0.972668	-0.920757	0.299720
H182	H	1.472668	-0.420757	0.799720
H183	H	0.936936	-0.489932	0.806187
H184	H	1.436936	0.010068	1.306187
F185	F	0.639180	-0.452804	0.273720
F186	F	1.139180	0.047196	0.773720
H187	H	0.984380	-0.442510	1.079806
H188	H	1.484380	0.057490	1.579806
H189	H	0.507101	-0.337161	0.250647
H190	H	1.007101	0.162839	0.750647
