data_functionalizedCrystal
_audit_creation_method	'MofGen! by Chris Wilmer'
_symmetry_space_group_name_H-M	'P1'
_symmetry_Int_Tables_number	1
_symmetry_cell_setting	triclinic
loop_
_symmetry_equiv_pos_as_xyz
  x,y,z
_cell_length_a	18.050590
_cell_length_b	13.897449
_cell_length_c	13.897441
_cell_angle_alpha	90.020733
_cell_angle_beta	89.977321
_cell_angle_gamma	89.990680
loop_
_atom_site_label
_atom_site_type_symbol
_atom_site_fract_x
_atom_site_fract_y
_atom_site_fract_z
Zn1	Zn	0.295610	1.474767	0.545434
Zn2	Zn	0.419815	1.474688	0.384158
Zn3	Zn	0.295646	1.313456	0.384153
Zn4	Zn	0.419766	1.313465	0.545411
O5	O	0.357709	1.394094	0.464789
O6	O	0.312092	1.609738	0.524053
O7	O	0.403379	1.453264	0.249176
O8	O	0.191716	1.334884	0.405555
O9	O	0.403344	1.609681	0.405564
O10	O	0.191690	1.453398	0.524048
O11	O	0.312152	1.334808	0.249172
O12	O	0.312105	1.178476	0.405532
O13	O	0.403261	1.334899	0.680395
O14	O	0.403295	1.178483	0.524007
O15	O	0.312045	1.453407	0.680413
O16	O	0.523733	1.453273	0.405541
O17	O	0.523697	1.334823	0.524012
C18	C	0.357699	1.143480	0.464767
C19	C	0.357713	1.036266	0.464780
C20	C	0.164004	1.394149	0.464803
C21	C	0.081458	1.394172	0.464809
C22	C	0.357715	0.839971	0.464806
C23	C	0.357712	0.949204	0.464789
C24	C	-0.118007	1.458617	0.529266
C25	C	-0.167376	1.482186	0.441268
C26	C	-0.069673	1.394163	0.464814
C27	C	-0.167385	1.370629	0.552815
C28	C	-0.215658	1.394155	0.464827
C29	C	-0.117955	1.417777	0.376770
C30	C	-0.117959	1.306180	0.488376
C31	C	-0.167306	1.329715	0.400318
C32	C	0.014426	1.394169	0.464808
C33	C	-0.299754	1.394148	0.464823
C34	C	0.550661	1.394066	0.464796
C35	C	0.633207	1.394142	0.464831
C36	C	0.357643	1.394163	0.716382
C37	C	0.357615	1.394192	0.823596
C38	C	0.357720	1.645687	0.464812
C39	C	0.357724	1.752901	0.464821
C40	C	0.357721	1.394082	0.214175
C41	C	0.357540	1.394239	0.106961
C42	C	0.357565	1.394218	1.019891
C43	C	0.357595	1.394201	0.910659
H44	H	-0.096361	1.513168	0.583698
H45	H	-0.096238	1.231798	0.508331
O46	O	-0.193375	1.346764	0.641515
C47	C	-0.236293	1.262267	0.634877
H48	H	-0.257567	1.253699	0.558127
H49	H	-0.285265	1.267361	0.686452
H50	H	-0.200755	1.197415	0.654683
O51	O	-0.193007	1.264574	0.335365
C52	C	-0.236004	1.194691	0.383207
H53	H	-0.219325	1.191818	0.462261
H54	H	-0.226311	1.121331	0.348696
H55	H	-0.297143	1.214416	0.377350
H56	H	-0.189082	1.556588	0.421338
H57	H	-0.096333	1.437770	0.302335
