data_functionalizedCrystal
_audit_creation_method	'MofGen! by Chris Wilmer'
_symmetry_space_group_name_H-M	'P1'
_symmetry_Int_Tables_number	1
_symmetry_cell_setting	triclinic
loop_
_symmetry_equiv_pos_as_xyz
  x,y,z
_cell_length_a	12.594516
_cell_length_b	12.759401
_cell_length_c	12.759393
_cell_angle_alpha	89.979062
_cell_angle_beta	90.028050
_cell_angle_gamma	89.982423
loop_
_atom_site_label
_atom_site_type_symbol
_atom_site_fract_x
_atom_site_fract_y
_atom_site_fract_z
Zn1	Zn	-0.423647	-1.606257	0.594038
Zn2	Zn	-0.601663	-1.606143	0.418366
Zn3	Zn	-0.423704	-1.430555	0.418373
Zn4	Zn	-0.601589	-1.430543	0.594003
O5	O	-0.512651	-1.518375	0.506195
O6	O	-0.447269	-1.753263	0.570746
O7	O	-0.578111	-1.582809	0.271345
O8	O	-0.274751	-1.453915	0.441693
O9	O	-0.578056	-1.753179	0.441680
O10	O	-0.274709	-1.583002	0.570754
O11	O	-0.447365	-1.453805	0.271351
O12	O	-0.447293	-1.283533	0.441659
O13	O	-0.577930	-1.453894	0.741029
O14	O	-0.577985	-1.283524	0.570694
O15	O	-0.447197	-1.582990	0.741054
O16	O	-0.750599	-1.582797	0.441646
O17	O	-0.750545	-1.453784	0.570686
C18	C	-0.512638	-1.245407	0.506174
C19	C	-0.512658	-1.128631	0.506190
C20	C	-0.512549	-1.518453	0.780228
C21	C	-0.512505	-1.518487	0.897005
C22	C	-0.789192	-1.518306	0.506185
C23	C	-0.907497	-1.518372	0.506215
C24	C	-0.976759	-1.448195	0.576351
C25	C	-1.047629	-1.422594	0.480484
C26	C	-1.047427	-1.544069	0.602099
C27	C	-0.976808	-1.492721	0.410297
C28	C	-0.976600	-1.614240	0.531977
C29	C	-1.047438	-1.588675	0.436044
C30	C	-0.235030	-1.518472	0.506228
C31	C	-0.116725	-1.518514	0.506242
C32	C	-0.512665	-1.792408	0.506216
C33	C	-0.512671	-1.909184	0.506226
C34	C	-0.580812	-1.073791	0.573272
C35	C	-0.580817	-0.964067	0.573293
C36	C	-0.444509	-0.964031	0.439140
C37	C	-0.444500	-1.073753	0.439125
C38	C	-0.512676	-1.518357	0.233228
C39	C	-0.512420	-1.518527	0.116451
C40	C	-0.444422	-1.585712	0.951882
C41	C	-0.444376	-1.585730	1.061606
C42	C	-0.580506	-1.451294	1.061567
C43	C	-0.580546	-1.451272	0.951844
H44	H	-0.945724	-1.388743	0.635576
Br45	Br	-0.673311	-0.889646	0.664343
H46	H	-0.389018	-0.919337	0.384537
H47	H	-0.945916	-1.470950	0.329198
Br48	Br	-0.673309	-1.148265	0.664290
Br49	Br	-0.672942	-1.360021	0.877361
H50	H	-0.945381	-1.695229	0.553791
H51	H	-1.078851	-1.341587	0.458716
H52	H	-1.078276	-1.648082	0.376676
H53	H	-0.388994	-1.118405	0.384499
H54	H	-0.389016	-1.640440	0.907235
H55	H	-0.635905	-1.396572	1.106230
Br56	Br	-1.099139	-1.580197	0.737228
Br57	Br	-0.351980	-1.676976	1.136079
