data_functionalizedCrystal
_audit_creation_method	'MofGen! by Chris Wilmer'
_symmetry_space_group_name_H-M	'P1'
_symmetry_Int_Tables_number	1
_symmetry_cell_setting	triclinic
loop_
_symmetry_equiv_pos_as_xyz
  x,y,z
_cell_length_a	16.992694
_cell_length_b	22.010155
_cell_length_c	16.992695
_cell_angle_alpha	90.004303
_cell_angle_beta	89.331777
_cell_angle_gamma	90.003362
loop_
_atom_site_label
_atom_site_type_symbol
_atom_site_fract_x
_atom_site_fract_y
_atom_site_fract_z
O1	O	1.050856	0.050450	-0.166906
O2	O	0.822456	0.050467	-0.165075
O3	O	0.935740	0.050454	-0.051790
O4	O	0.937571	0.050463	-0.280190
O5	O	0.935719	-0.050597	-0.051807
O6	O	0.822435	-0.050583	-0.165092
O7	O	1.050835	-0.050601	-0.166923
Cu8	Cu	0.936633	-0.059819	-0.166009
Cu9	Cu	0.936658	0.059685	-0.165989
O10	O	0.937550	-0.050587	-0.280207
C11	C	0.793085	-0.000055	-0.162727
C12	C	0.705600	-0.000049	-0.155699
C13	C	0.659610	-0.000046	-0.223517
C14	C	0.577409	-0.000055	-0.216908
C15	C	0.541201	-0.000062	-0.142480
C16	C	0.587198	-0.000066	-0.074657
C17	C	0.669397	-0.000062	-0.081267
C18	C	0.295886	-0.000079	-0.115086
C19	C	0.213681	-0.000082	-0.108481
C20	C	0.203898	-0.000072	-0.250732
C21	C	0.286099	-0.000064	-0.257336
C22	C	0.332089	-0.000071	-0.189512
N23	N	0.457178	-0.000069	-0.135723
N24	N	0.416110	-0.000069	-0.196270
N25	N	0.936621	-0.143871	-0.166022
C26	C	0.986823	-0.563656	-0.115834
C27	C	0.986827	-0.627264	-0.115829
O28	O	1.029479	-0.660161	-0.073166
N29	N	0.936656	-0.659078	-0.165972
C30	C	0.886473	-0.627281	-0.216118
O31	O	0.843799	-0.660182	-0.258768
C32	C	0.886466	-0.563675	-0.216119
C33	C	0.936646	-0.531864	-0.165978
C34	C	1.036998	-0.531846	-0.065697
C35	C	1.036996	-0.468242	-0.065703
C36	C	0.986819	-0.436450	-0.115847
C37	C	0.936644	-0.468261	-0.165985
C38	C	0.836280	-0.531879	-0.266260
C39	C	0.836277	-0.468268	-0.266256
C40	C	0.886457	-0.436458	-0.216115
C41	C	0.886464	-0.372865	-0.216135
N42	N	0.936634	-0.341051	-0.165992
C43	C	0.986812	-0.372844	-0.115848
C44	C	0.886490	-0.760859	-0.216112
C45	C	0.886500	-0.824464	-0.216116
C46	C	0.986853	-0.824443	-0.115826
C47	C	0.986846	-0.760836	-0.115827
C48	C	0.936661	-0.729045	-0.165969
C49	C	0.986803	-0.239272	-0.115866
C50	C	0.986799	-0.175663	-0.115879
C51	C	0.886443	-0.175691	-0.216166
C52	C	0.886450	-0.239294	-0.216156
C53	C	0.936633	-0.271083	-0.165999
O54	O	0.843830	-0.339928	-0.258774
O55	O	1.029472	-0.339935	-0.073198
C56	C	1.080205	-0.000077	-0.169270
C57	C	1.167690	-0.000079	-0.176299
C58	C	0.933374	-0.000071	-0.022439
C59	C	0.926345	-0.000070	0.065046
N60	N	0.936675	0.143738	-0.165969
C61	C	0.939917	-0.000061	-0.309559
C62	C	0.946945	-0.000058	-0.397044
C63	C	0.994163	-0.000076	0.111037
C64	C	0.987554	-0.000070	0.193238
C65	C	0.913127	-0.000062	0.229446
C66	C	0.845303	-0.000054	0.183449
C67	C	0.851913	-0.000056	0.101250
C68	C	0.885732	-0.000052	0.474760
C69	C	0.879127	-0.000052	0.556966
C70	C	1.021379	-0.000066	0.566749
C71	C	1.027982	-0.000072	0.484547
C72	C	0.960159	-0.000061	0.438558
N73	N	0.906369	-0.000058	0.313468
N74	N	0.966917	-0.000061	0.354537
H75	H	0.315574	-0.000052	-0.317942
H76	H	1.042779	-0.000076	0.230680
H77	H	1.076596	-0.000074	0.604202
H78	H	0.795419	-0.557771	-0.307089
C79	C	1.117923	-0.052026	0.397780
C80	C	1.109794	-0.000077	0.444746
H81	H	1.168432	-0.052031	0.373212
H82	H	1.078480	-0.052019	0.358632
H83	H	1.112383	-0.087259	0.429650
H84	H	1.115328	0.035156	0.412875
H85	H	1.149248	-0.000079	0.483899
H86	H	0.845625	-0.734978	-0.256951
H87	H	0.557710	-0.000080	-0.014056
H88	H	0.706842	-0.000063	-0.026042
C89	C	0.092017	-0.000091	-0.035190
C90	C	0.173878	-0.000093	-0.026664
H91	H	0.067446	-0.000094	0.015318
H92	H	0.076541	-0.035324	-0.063338
H93	H	0.076548	0.035154	-0.063322
H94	H	0.189348	-0.035340	0.001463
H95	H	0.189361	0.035143	0.001495
C96	C	0.739175	-0.000019	0.539043
C97	C	0.797310	-0.000033	0.596767
H98	H	0.688668	-0.000003	0.563617
H99	H	0.744692	-0.035256	0.507185
H100	H	0.744730	0.035221	0.507187
H101	H	0.791758	-0.035275	0.628620
H102	H	0.791790	0.035208	0.628639
H103	H	0.539966	-0.000052	-0.272133
C104	C	0.810638	0.051906	0.376667
C105	C	0.811178	-0.000043	0.424220
H106	H	0.764606	0.051912	0.345469
H107	H	0.855899	0.051897	0.343336
H108	H	0.811030	0.087139	0.408951
H109	H	0.810793	-0.035276	0.391936
H110	H	0.765905	-0.000040	0.457554
C111	C	0.105777	0.051872	-0.325814
C112	C	0.153342	-0.000070	-0.325279
H113	H	0.074564	0.051868	-0.371836
H114	H	0.138047	0.087105	-0.325434
H115	H	0.072453	0.051862	-0.280539
H116	H	0.186671	-0.000058	-0.370552
H117	H	0.121069	-0.035313	-0.325666
C118	C	1.024545	-0.844016	0.017534
C119	C	1.042007	-0.859395	-0.060699
H120	H	1.058597	-0.865593	0.051563
H121	H	0.971480	-0.854444	0.029397
H122	H	1.031730	-0.801582	0.024702
H123	H	1.034817	-0.901829	-0.067868
H124	H	1.095085	-0.848972	-0.072566
H125	H	0.333322	-0.000086	-0.059859
H126	H	0.795407	-0.442387	-0.307087
H127	H	0.784703	-0.000044	0.212936
C128	C	1.085993	-0.182041	-0.016740
C129	C	1.041956	-0.140698	-0.060756
H130	H	1.120038	-0.160455	0.017293
H131	H	1.116359	-0.206849	-0.051296
H132	H	1.051443	-0.206850	0.013647
H133	H	1.076506	-0.115891	-0.091147
H134	H	1.011587	-0.115879	-0.026195
H135	H	1.027666	-0.265148	-0.075023
H136	H	1.077854	-0.442346	-0.024872
C137	C	1.136198	-0.525419	0.033421
C138	C	1.092165	-0.566785	-0.010577
H139	H	1.170264	-0.546986	0.067445
H140	H	1.101653	-0.500616	0.063809
H141	H	1.166549	-0.500606	-0.001154
H142	H	1.061809	-0.591595	0.023998
H143	H	1.126714	-0.591598	-0.040967
C144	C	0.997154	-0.689349	-0.009720
C145	C	1.041970	-0.725893	-0.060656
H146	H	1.031179	-0.667783	0.024353
H147	H	0.962599	-0.714181	0.020614
H148	H	0.967299	-0.661291	-0.039588
H149	H	1.071821	-0.753953	-0.030789
H150	H	1.076540	-0.701059	-0.090993
H151	H	0.845648	-0.850360	-0.256954
C152	C	0.710641	-0.000047	0.099831
C153	C	0.777366	-0.000052	0.050693
H154	H	0.664619	-0.000045	0.068618
H155	H	0.711031	0.035189	0.132097
H156	H	0.711018	-0.035288	0.132093
H157	H	0.776992	0.035192	0.018435
H158	H	0.776976	-0.035291	0.018413
C159	C	0.787246	-0.232923	-0.315279
C160	C	0.831290	-0.274264	-0.271267
H161	H	0.753183	-0.254510	-0.349293
H162	H	0.821784	-0.208123	-0.345678
H163	H	0.756891	-0.208105	-0.280713
H164	H	0.861650	-0.299079	-0.305834
H165	H	0.796747	-0.299074	-0.240866
H166	H	0.689084	-0.000041	-0.284124
H167	H	0.845592	-0.149795	-0.256995
H168	H	1.054770	-0.000087	0.081563
