data_functionalizedCrystal
_audit_creation_method	'MofGen! by Chris Wilmer'
_symmetry_space_group_name_H-M	'P1'
_symmetry_Int_Tables_number	1
_symmetry_cell_setting	triclinic
loop_
_symmetry_equiv_pos_as_xyz
  x,y,z
_cell_length_a	16.109301
_cell_length_b	16.109301
_cell_length_c	14.586319
_cell_angle_alpha	90.004358
_cell_angle_beta	90.001418
_cell_angle_gamma	83.461532
loop_
_atom_site_label
_atom_site_type_symbol
_atom_site_fract_x
_atom_site_fract_y
_atom_site_fract_z
O1	O	1.103132	0.106867	0.076182
O2	O	1.353132	0.356867	0.326182
O3	O	1.603132	0.606867	0.576182
O4	O	1.853132	0.856867	0.826182
O5	O	0.861070	0.120166	0.076197
O6	O	1.111070	0.370166	0.326197
O7	O	1.361070	0.620166	0.576197
O8	O	1.611070	0.870166	0.826197
O9	O	0.988750	-0.007515	0.076183
O10	O	1.238750	0.242485	0.326183
O11	O	1.488750	0.492485	0.576183
O12	O	1.738750	0.742485	0.826183
O13	O	0.975451	0.234547	0.076196
O14	O	1.225451	0.484547	0.326196
O15	O	1.475451	0.734547	0.576196
O16	O	1.725451	0.984547	0.826196
O17	O	0.988740	-0.007518	-0.076298
O18	O	1.238740	0.242482	0.173702
O19	O	1.488740	0.492482	0.423702
O20	O	1.738740	0.742482	0.673702
O21	O	0.861059	0.120163	-0.076284
O22	O	1.111059	0.370163	0.173716
O23	O	1.361059	0.620163	0.423716
O24	O	1.611059	0.870163	0.673716
O25	O	1.103121	0.106864	-0.076298
O26	O	1.353121	0.356864	0.173702
O27	O	1.603121	0.606864	0.423702
O28	O	1.853121	0.856864	0.673702
Cu29	Cu	0.982089	0.113513	-0.090214
Cu30	Cu	1.232089	0.363513	0.159786
Cu31	Cu	1.482089	0.613513	0.409786
Cu32	Cu	1.732089	0.863513	0.659786
Cu33	Cu	0.982102	0.113517	0.090112
Cu34	Cu	1.232102	0.363517	0.340112
Cu35	Cu	1.482102	0.613517	0.590112
Cu36	Cu	1.732102	0.863517	0.840112
O37	O	0.975441	0.234544	-0.076285
O38	O	1.225441	0.484544	0.173715
O39	O	1.475441	0.734544	0.423715
O40	O	1.725441	0.984544	0.673715
C41	C	0.830090	0.119626	-0.000042
C42	C	1.080090	0.369626	0.249958
C43	C	1.330090	0.619626	0.499958
C44	C	1.580090	0.869626	0.749958
C45	C	0.737794	0.118011	-0.000036
C46	C	0.987794	0.368011	0.249964
C47	C	1.237794	0.618011	0.499964
C48	C	1.487794	0.868011	0.749964
C49	C	0.988206	-0.038491	-0.000057
C50	C	1.238206	0.211509	0.249943
C51	C	1.488206	0.461509	0.499943
C52	C	1.738206	0.711509	0.749943
C53	C	0.986591	-0.130786	-0.000055
C54	C	1.236591	0.119214	0.249945
C55	C	1.486591	0.369214	0.499945
C56	C	1.736591	0.619214	0.749945
C57	C	0.515522	0.190018	-0.000043
C58	C	0.765522	0.440018	0.249957
C59	C	1.015522	0.690018	0.499957
C60	C	1.265522	0.940018	0.749957
C61	C	0.428802	0.188494	-0.000049
C62	C	0.678802	0.438494	0.249951
C63	C	0.928802	0.688494	0.499951
C64	C	1.178802	0.938494	0.749951
C65	C	0.448676	0.037006	-0.000053
C66	C	0.698676	0.287006	0.249947
C67	C	0.948676	0.537006	0.499947
C68	C	1.198676	0.787006	0.749947
C69	C	0.535395	0.038530	-0.000054
C70	C	0.785395	0.288530	0.249946
C71	C	1.035395	0.538530	0.499946
C72	C	1.285395	0.788530	0.749946
C73	C	0.568815	0.115039	-0.000044
C74	C	0.818815	0.365039	0.249956
C75	C	1.068815	0.615039	0.499956
C76	C	1.318815	0.865039	0.749956
C77	C	0.395376	0.111990	-0.000049
C78	C	0.645376	0.361990	0.249951
C79	C	0.895376	0.611990	0.499951
C80	C	1.145376	0.861990	0.749951
C81	C	0.301350	0.110337	-0.000056
C82	C	0.551350	0.360337	0.249944
C83	C	0.801350	0.610337	0.499944
C84	C	1.051350	0.860337	0.749944
C85	C	0.662847	0.116693	-0.000039
C86	C	0.912847	0.366693	0.249961
C87	C	1.162847	0.616693	0.499961
C88	C	1.412847	0.866693	0.749961
C89	C	1.134101	0.107404	-0.000058
C90	C	1.384101	0.357404	0.249942
C91	C	1.634101	0.607404	0.499942
C92	C	1.884101	0.857404	0.749942
C93	C	1.226397	0.109019	-0.000057
C94	C	1.476397	0.359019	0.249943
C95	C	1.726397	0.609019	0.499943
C96	C	1.976397	0.859019	0.749943
C97	C	1.057074	-0.439785	-0.000044
C98	C	1.307074	-0.189785	0.249956
C99	C	1.557074	0.060215	0.499956
C100	C	1.807074	0.310215	0.749956
C101	C	1.058600	-0.353064	-0.000049
C102	C	1.308600	-0.103064	0.249951
C103	C	1.558600	0.146936	0.499951
C104	C	1.808600	0.396936	0.749951
C105	C	0.907111	-0.333191	-0.000052
C106	C	1.157111	-0.083191	0.249948
C107	C	1.407111	0.166809	0.499948
C108	C	1.657111	0.416809	0.749948
C109	C	0.905586	-0.419910	-0.000053
C110	C	1.155586	-0.169910	0.249947
C111	C	1.405586	0.080090	0.499947
C112	C	1.655586	0.330090	0.749947
C113	C	0.980571	-0.473205	-0.000045
C114	C	1.230571	-0.223205	0.249955
C115	C	1.480571	0.026795	0.499955
C116	C	1.730571	0.276795	0.749955
C117	C	0.983620	-0.299766	-0.000049
C118	C	1.233620	-0.049766	0.249951
C119	C	1.483620	0.200234	0.499951
C120	C	1.733620	0.450234	0.749951
C121	C	0.985274	-0.205740	-0.000055
C122	C	1.235274	0.044260	0.249945
C123	C	1.485274	0.294260	0.499945
C124	C	1.735274	0.544260	0.749945
C125	C	0.978917	-0.567237	-0.000041
C126	C	1.228917	-0.317237	0.249959
C127	C	1.478917	-0.067237	0.499959
C128	C	1.728917	0.182763	0.749959
C129	C	0.975985	0.265521	-0.000043
C130	C	1.225985	0.515521	0.249957
C131	C	1.475985	0.765521	0.499957
C132	C	1.725985	1.015521	0.749957
C133	C	0.977600	0.357816	-0.000038
C134	C	1.227600	0.607816	0.249962
C135	C	1.477600	0.857816	0.499962
C136	C	1.727600	1.107816	0.749962
N137	N	0.982087	0.113510	-0.217046
N138	N	1.232087	0.363510	0.032954
N139	N	1.482087	0.613510	0.282954
N140	N	1.732087	0.863510	0.532954
C141	C	1.038646	0.056991	-0.548045
C142	C	1.288646	0.306991	-0.298045
C143	C	1.538646	0.556991	-0.048045
C144	C	1.788646	0.806991	0.201955
C145	C	1.038644	0.056992	-0.452064
C146	C	1.288644	0.306992	-0.202064
C147	C	1.538644	0.556992	0.047936
C148	C	1.788644	0.806992	0.297936
C149	C	0.925549	0.170038	-0.452063
C150	C	1.175549	0.420038	-0.202063
C151	C	1.425549	0.670038	0.047937
C152	C	1.675549	0.920038	0.297937
C153	C	0.925556	0.170040	-0.548042
C154	C	1.175556	0.420040	-0.298042
C155	C	1.425556	0.670040	-0.048042
C156	C	1.675556	0.920040	0.201958
C157	C	0.982103	0.113513	-0.596031
C158	C	1.232103	0.363513	-0.346031
C159	C	1.482103	0.613513	-0.096031
C160	C	1.732103	0.863513	0.153969
C161	C	0.982094	0.113510	-0.404070
C162	C	1.232094	0.363510	-0.154070
C163	C	1.482094	0.613510	0.095930
C164	C	1.732094	0.863510	0.345930
C165	C	0.982092	0.113511	-0.300003
C166	C	1.232092	0.363511	-0.050003
C167	C	1.482092	0.613511	0.199997
C168	C	1.732092	0.863511	0.449997
C169	C	0.982107	0.113513	-0.700105
C170	C	1.232107	0.363513	-0.450105
C171	C	1.482107	0.613513	-0.200105
C172	C	1.732107	0.863513	0.049895
N173	N	0.982111	0.113513	0.216944
N174	N	1.232111	0.363513	0.466944
N175	N	1.482111	0.613513	0.716944
N176	N	1.732111	0.863513	0.966944
H177	H	0.542730	0.252317	-0.000042
H178	H	0.792730	0.502317	0.249958
H179	H	1.042730	0.752317	0.499958
H180	H	1.292730	1.002317	0.749958
H181	H	0.879511	0.216071	-0.587115
H182	H	1.129511	0.466071	-0.337115
H183	H	1.379511	0.716071	-0.087115
H184	H	1.629511	0.966071	0.162885
H185	H	0.385413	0.249550	-0.000050
H186	H	0.635413	0.499550	0.249950
H187	H	0.885413	0.749550	0.499950
H188	H	1.135413	0.999550	0.749950
H189	H	0.846062	-0.289788	-0.000057
H190	H	1.096062	-0.039788	0.249943
H191	H	1.346062	0.210212	0.499943
H192	H	1.596062	0.460212	0.749943
Cl193	Cl	0.406655	-0.059172	-0.000059
Cl194	Cl	0.656655	0.190828	0.249941
Cl195	Cl	0.906655	0.440828	0.499941
Cl196	Cl	1.156655	0.690828	0.749941
Cl197	Cl	0.854461	0.241095	-0.391730
Cl198	Cl	1.104461	0.491095	-0.141730
Cl199	Cl	1.354461	0.741095	0.108270
Cl200	Cl	1.604461	0.991095	0.358270
H201	H	1.118131	-0.483175	-0.000037
H202	H	1.368131	-0.233175	0.249963
H203	H	1.618131	0.016825	0.499963
H204	H	1.868131	0.266825	0.749963
Cl205	Cl	0.602397	-0.055737	-0.000063
Cl206	Cl	0.852397	0.194263	0.249937
Cl207	Cl	1.102397	0.444263	0.499937
Cl208	Cl	1.352397	0.694263	0.749937
H209	H	1.120896	-0.325859	-0.000050
H210	H	1.370896	-0.075859	0.249950
H211	H	1.620896	0.174141	0.499950
H212	H	1.870896	0.424141	0.749950
H213	H	1.084691	0.010964	-0.587116
H214	H	1.334691	0.260964	-0.337116
H215	H	1.584691	0.510964	-0.087116
H216	H	1.834691	0.760964	0.162884
H217	H	1.084687	0.010968	-0.412997
H218	H	1.334687	0.260968	-0.162997
H219	H	1.584687	0.510968	0.087003
H220	H	1.834687	0.760968	0.337003
Cl221	Cl	0.809402	-0.461927	-0.000060
Cl222	Cl	1.059402	-0.211927	0.249940
Cl223	Cl	1.309402	0.038073	0.499940
Cl224	Cl	1.559402	0.288073	0.749940
