data_functionalizedCrystal
_audit_creation_method	'MofGen! by Chris Wilmer'
_symmetry_space_group_name_H-M	'P1'
_symmetry_Int_Tables_number	1
_symmetry_cell_setting	triclinic
loop_
_symmetry_equiv_pos_as_xyz
  x,y,z
_cell_length_a	21.295419
_cell_length_b	19.077432
_cell_length_c	19.076919
_cell_angle_alpha	89.934943
_cell_angle_beta	87.719625
_cell_angle_gamma	87.741771
loop_
_atom_site_label
_atom_site_type_symbol
_atom_site_fract_x
_atom_site_fract_y
_atom_site_fract_z
Zn1	Zn	0.959068	-0.295446	0.386087
Zn2	Zn	0.967437	-0.408230	0.263864
Zn3	Zn	0.857860	-0.290775	0.268593
Zn4	Zn	0.858161	-0.412943	0.381330
O5	O	0.910632	-0.351849	0.324969
O6	O	1.048267	-0.310390	0.369885
O7	O	0.956277	-0.388722	0.166160
O8	O	0.867657	-0.193065	0.288149
O9	O	1.054415	-0.393252	0.280089
O10	O	0.942014	-0.196497	0.374471
O11	O	0.875771	-0.302428	0.169635
O12	O	0.769811	-0.306998	0.283537
O13	O	0.868171	-0.401285	0.480292
O14	O	0.770033	-0.396755	0.366364
O15	O	0.942307	-0.314960	0.483787
O16	O	0.956570	-0.507185	0.275476
O17	O	0.876285	-0.510647	0.361778
C18	C	0.917385	-0.534412	0.317613
C19	C	0.920331	-0.612514	0.314489
C20	C	0.747082	-0.351882	0.324947
C21	C	0.677115	-0.351913	0.324954
C22	C	0.879889	-0.651034	0.357918
C23	C	0.882660	-0.724419	0.354980
C24	C	0.925876	-0.759284	0.308617
C25	C	0.966320	-0.720759	0.265184
C26	C	0.963545	-0.647375	0.268119
C27	C	0.938656	-0.978563	0.295023
C28	C	0.941428	-1.051952	0.292094
C29	C	0.857767	-1.055607	0.381889
C30	C	0.854999	-0.982222	0.384822
C31	C	0.895441	-0.943703	0.341387
N32	N	0.928711	-0.834295	0.305615
N33	N	0.892603	-0.868693	0.344386
C34	C	0.641069	-0.308843	0.371778
C35	C	0.575326	-0.308824	0.371782
C36	C	0.545631	-0.351889	0.324968
C37	C	0.581684	-0.394961	0.278136
C38	C	0.647426	-0.394974	0.278129
N39	N	0.444847	-0.413149	0.317013
N40	N	0.382395	-0.413135	0.317023
C41	C	0.347554	-0.351853	0.324985
N42	N	0.377525	-0.290584	0.332950
N43	N	0.439983	-0.290598	0.332943
C44	C	0.474345	-0.351880	0.324970
C45	C	0.240222	-0.308759	0.371815
C46	C	0.174478	-0.308738	0.371814
C47	C	0.180838	-0.394882	0.278171
C48	C	0.246581	-0.394896	0.278169
C49	C	0.276269	-0.351835	0.324995
C50	C	1.074820	-0.351816	0.324990
C51	C	1.144787	-0.351802	0.324999
C52	C	0.904339	-0.359169	0.508249
C53	C	0.901657	-0.362288	0.586352
C54	C	0.903868	-0.168573	0.332368
C55	C	0.900986	-0.090472	0.335522
C56	C	0.916934	-0.344506	0.142403
C57	C	0.919730	-0.341189	0.064309
C58	C	0.938994	-0.318811	0.624866
C59	C	0.936467	-0.321739	0.698252
C60	C	0.896606	-0.368149	0.733123
C61	C	0.859265	-0.411628	0.694604
C62	C	0.861789	-0.408696	0.621219
C63	C	0.884914	-0.381735	0.952405
C64	C	0.882393	-0.384666	1.025795
C65	C	0.959595	-0.294776	1.029438
C66	C	0.962119	-0.291851	0.956051
C67	C	0.924775	-0.335327	0.917539
N68	N	0.894023	-0.371145	0.808135
N69	N	0.927355	-0.332327	0.842528
H70	H	0.849722	-0.755779	0.390337
H71	H	0.145130	-0.273661	0.409942
C72	C	1.005960	-0.240794	0.917691
C73	C	1.058237	-0.269214	0.866018
C74	C	1.102078	-0.218158	0.827655
C75	C	1.093641	-0.138682	0.840966
C76	C	1.041361	-0.110258	0.892641
C77	C	0.997520	-0.161314	0.931004
H78	H	1.064485	-0.328050	0.856162
H79	H	1.140779	-0.239200	0.789402
H80	H	1.126095	-0.100887	0.812568
H81	H	1.035114	-0.051421	0.902497
H82	H	0.958819	-0.140272	0.969258
H83	H	0.275929	-0.429971	0.240043
C84	C	0.687081	-0.442358	0.226624
C85	C	0.733258	-0.498792	0.254755
C86	C	0.772914	-0.546178	0.203251
C87	C	0.766394	-0.537129	0.123615
C88	C	0.720214	-0.480692	0.095479
C89	C	0.680558	-0.433306	0.146983
H90	H	0.738087	-0.505493	0.313710
H91	H	0.807099	-0.587957	0.224079
H92	H	0.795750	-0.572206	0.085488
H93	H	0.715386	-0.473991	0.036524
H94	H	0.646373	-0.391528	0.126155
H95	H	0.545972	-0.273748	0.409910
H96	H	0.976624	-1.080337	0.254340
H97	H	0.971456	-0.281021	0.596479
H98	H	0.831379	-0.444092	0.589862
C99	C	0.843830	-0.429564	0.910062
C100	C	0.771713	-0.424238	0.920398
C101	C	0.730623	-0.472070	0.878059
C102	C	0.761648	-0.525228	0.825385
C103	C	0.833769	-0.530556	0.815047
C104	C	0.874860	-0.482724	0.857386
H105	H	0.748743	-0.384886	0.959392
H106	H	0.677234	-0.468126	0.885712
H107	H	0.731231	-0.560637	0.794043
H108	H	0.856740	-0.569909	0.776053
H109	H	0.928248	-0.486668	0.849733
H110	H	0.989997	-0.259379	1.060802
C111	C	1.008034	-0.604999	0.220350
C112	C	0.980786	-0.552405	0.167169
C113	C	1.025274	-0.510030	0.119396
C114	C	1.097010	-0.520249	0.124805
C115	C	1.124261	-0.572847	0.177988
C116	C	1.079774	-0.615222	0.225761
H117	H	0.927679	-0.544837	0.163163
H118	H	1.005100	-0.471094	0.080026
H119	H	1.129942	-0.488881	0.089441
H120	H	1.177368	-0.580414	0.181994
H121	H	1.099948	-0.654157	0.265131
C122	C	0.832349	-0.612686	0.408917
C123	C	0.761377	-0.622642	0.402698
C124	C	0.713834	-0.584296	0.453697
C125	C	0.737263	-0.535994	0.510915
C126	C	0.808239	-0.526036	0.517136
C127	C	0.855782	-0.564382	0.466137
H128	H	0.744029	-0.658400	0.360340
H129	H	0.661292	-0.591668	0.449091
H130	H	0.702069	-0.507608	0.548667
H131	H	0.825586	-0.490277	0.559495
H132	H	0.908323	-0.557010	0.470743
H133	H	0.819809	-0.953837	0.422574
C134	C	0.272885	-0.261387	0.423315
C135	C	0.233232	-0.214000	0.474815
C136	C	0.265892	-0.166629	0.526314
C137	C	0.338206	-0.166644	0.526313
C138	C	0.377863	-0.214034	0.474812
C139	C	0.345202	-0.261405	0.423312
H140	H	0.179697	-0.213987	0.474817
H141	H	0.236535	-0.131548	0.564439
H142	H	0.362383	-0.131577	0.564436
H143	H	0.431397	-0.214047	0.474809
H144	H	0.374560	-0.296486	0.385187
H145	H	0.156660	-0.429946	0.240055
H146	H	0.824841	-1.086977	0.417251
H147	H	0.971586	-0.947207	0.259658
H148	H	1.001505	-0.749151	0.227432
C149	C	0.549023	-0.442334	0.226641
C150	C	0.588676	-0.489712	0.175133
C151	C	0.556015	-0.537083	0.123633
C152	C	0.483702	-0.537075	0.123641
C153	C	0.444045	-0.489694	0.175151
C154	C	0.476705	-0.442324	0.226651
H155	H	0.642210	-0.489720	0.175125
H156	H	0.585372	-0.572158	0.085502
H157	H	0.459524	-0.572142	0.085518
H158	H	0.390510	-0.489687	0.175158
H159	H	0.447348	-0.407249	0.264781
C160	C	0.673726	-0.261470	0.423278
C161	C	0.634071	-0.214088	0.474781
C162	C	0.666729	-0.166714	0.526280
C163	C	0.739042	-0.166721	0.526275
C164	C	0.778701	-0.214105	0.474770
C165	C	0.746043	-0.261479	0.423272
H166	H	0.580536	-0.214081	0.474786
H167	H	0.637370	-0.131637	0.564407
H168	H	0.763218	-0.131651	0.564397
H169	H	0.832236	-0.214112	0.474765
H170	H	0.775402	-0.296556	0.385145
H171	H	0.966872	-0.286337	0.729607
H172	H	0.849932	-0.422460	1.054185
H173	H	0.826806	-0.449413	0.723002
