data_functionalizedCrystal
_audit_creation_method	'MofGen! by Chris Wilmer'
_symmetry_space_group_name_H-M	'P1'
_symmetry_Int_Tables_number	1
_symmetry_cell_setting	triclinic
loop_
_symmetry_equiv_pos_as_xyz
  x,y,z
_cell_length_a	12.784890
_cell_length_b	17.699083
_cell_length_c	16.776229
_cell_angle_alpha	90.007545
_cell_angle_beta	89.993656
_cell_angle_gamma	101.805214
loop_
_atom_site_label
_atom_site_type_symbol
_atom_site_fract_x
_atom_site_fract_y
_atom_site_fract_z
O1	O	1.410310	-0.004737	-0.066264
O2	O	1.910310	0.495263	0.433736
O3	O	1.100771	-0.037157	-0.066271
O4	O	1.600771	0.462843	0.433729
O5	O	1.264285	0.089806	-0.066260
O6	O	1.764285	0.589806	0.433740
O7	O	1.246795	-0.131701	-0.066275
O8	O	1.746795	0.368299	0.433725
O9	O	1.264264	0.089812	0.066316
O10	O	1.764264	0.589812	0.566316
O11	O	1.100749	-0.037152	0.066305
O12	O	1.600749	0.462848	0.566305
O13	O	1.410288	-0.004732	0.066313
O14	O	1.910288	0.495268	0.566313
Zn15	Zn	1.255515	-0.020941	0.087358
Zn16	Zn	1.755515	0.479059	0.587358
Zn17	Zn	1.255544	-0.020948	-0.087317
Zn18	Zn	1.755544	0.479052	0.412683
O19	O	1.246773	-0.131695	0.066302
O20	O	1.746773	0.368305	0.566302
C21	C	1.061155	-0.039263	0.000016
C22	C	1.561155	0.460737	0.500016
C23	C	0.943145	-0.045537	0.000013
C24	C	1.443145	0.454463	0.500013
N25	N	1.255503	-0.020935	0.206570
N26	N	1.755503	0.479065	0.706570
C27	C	1.263648	0.117965	0.000028
C28	C	1.763648	0.617965	0.500028
C29	C	1.261768	0.201862	0.000028
C30	C	1.761768	0.701862	0.500028
C31	C	0.763965	-0.124166	0.000007
C32	C	1.263965	0.375834	0.500007
C33	C	0.874845	-0.118277	0.000008
C34	C	1.374845	0.381723	0.500008
C35	C	0.900557	0.021317	0.000016
C36	C	1.400557	0.521317	0.500016
C37	C	0.789677	0.015427	0.000016
C38	C	1.289677	0.515427	0.500016
C39	C	0.721384	-0.057317	0.000013
C40	C	1.221384	0.442683	0.500013
C41	C	0.610502	-0.063206	0.000018
C42	C	1.110502	0.436794	0.500018
C43	C	0.636216	0.076387	0.000021
C44	C	1.136216	0.576387	0.500021
C45	C	0.747096	0.082277	0.000022
C46	C	1.247096	0.582277	0.500022
C47	C	1.449904	-0.002626	0.000024
C48	C	1.949904	0.497374	0.500024
C49	C	1.567914	0.003648	0.000021
C50	C	2.067914	0.503648	0.500021
C51	C	1.247411	-0.159854	0.000012
C52	C	1.747411	0.340146	0.500012
C53	C	1.249291	-0.243751	0.000006
C54	C	1.749291	0.256249	0.500006
C55	C	1.357748	0.256675	0.000032
C56	C	1.857748	0.756675	0.500032
C57	C	1.355975	0.335503	0.000025
C58	C	1.855975	0.835503	0.500025
C59	C	1.258221	0.359518	0.000020
C60	C	1.758221	0.859518	0.500020
C61	C	1.162234	0.304699	0.000014
C62	C	1.662234	0.804699	0.500014
C63	C	1.164008	0.225872	0.000015
C64	C	1.664008	0.725872	0.500015
C65	C	1.155077	0.622601	0.000007
C66	C	1.655077	1.122601	0.500007
C67	C	1.153310	0.701435	0.000008
C68	C	1.653310	1.201435	0.500008
C69	C	1.347044	0.732232	0.000017
C70	C	1.847044	1.232232	0.500017
C71	C	1.348818	0.653405	0.000018
C72	C	1.848818	1.153405	0.500018
C73	C	1.252831	0.598593	0.000008
C74	C	1.752831	1.098593	0.500008
C75	C	1.254755	0.513118	0.000014
C76	C	1.754755	1.013118	0.500014
C77	C	1.256296	0.444992	0.000019
C78	C	1.756296	0.944992	0.500019
N79	N	1.255564	-0.020948	-0.206528
N80	N	1.755564	0.479052	0.293472
C81	C	1.327930	0.035265	0.248292
C82	C	1.827930	0.535265	0.748292
C83	C	1.327936	0.035266	0.331744
C84	C	1.827936	0.535266	0.831744
C85	C	1.255520	-0.020937	0.373472
C86	C	1.755520	0.479063	0.873472
C87	C	1.183085	-0.077139	0.331745
C88	C	1.683085	0.422861	0.831745
C89	C	1.183075	-0.077136	0.248294
C90	C	1.683075	0.422864	0.748294
C91	C	1.183124	-0.077152	0.668292
C92	C	1.683124	0.422848	1.168292
C93	C	1.183142	-0.077152	0.751748
C94	C	1.683142	0.422848	1.251748
C95	C	1.327984	0.035251	0.751742
C96	C	1.827984	0.535251	1.251742
C97	C	1.327974	0.035254	0.668291
C98	C	1.827974	0.535254	1.168291
C99	C	1.255537	-0.020946	0.626570
C100	C	1.755537	0.479054	1.126570
C101	C	1.255530	-0.020946	0.536082
C102	C	1.755530	0.479054	1.036082
C103	C	1.255531	-0.020941	0.463959
C104	C	1.755531	0.479059	0.963959
H105	H	0.554899	-0.122438	0.000019
H106	H	1.054899	0.377562	0.500019
F107	F	1.049262	0.726990	0.000002
F108	F	1.549262	1.226990	0.500002
F109	F	1.461792	0.231124	0.000045
F110	F	1.961792	0.731124	0.500045
F111	F	0.691281	-0.201585	0.000016
F112	F	1.191281	0.298415	0.500016
H113	H	1.434131	0.380130	0.000029
H114	H	1.934131	0.880130	0.500029
F115	F	0.590891	0.147537	0.000033
F116	F	1.090891	0.647537	0.500033
F117	F	1.452861	0.627851	0.000022
F118	F	1.952861	1.127851	0.500022
F119	F	1.449203	0.790574	0.000025
F120	F	1.949203	1.290574	0.500025
F121	F	1.405012	0.095082	0.203889
F122	F	1.905012	0.595082	0.703889
H123	H	1.124145	-0.122913	0.634330
H124	H	1.624145	0.377087	1.134330
F125	F	0.920159	-0.189427	-0.000001
F126	F	1.420159	0.310573	0.499999
H127	H	0.956179	0.080542	0.000013
H128	H	1.456179	0.580542	0.500013
F129	F	1.106008	-0.136952	0.376156
F130	F	1.606008	0.363048	0.876156
H131	H	0.802714	0.141503	0.000022
H132	H	1.302714	0.641503	0.500022
F133	F	1.405052	0.095069	0.623883
F134	F	1.905052	0.595069	1.123883
H135	H	1.082641	0.324258	0.000005
H136	H	1.582641	0.824258	0.500005
F137	F	1.052919	0.564275	-0.000005
F138	F	1.552919	1.064275	0.499995
H139	H	1.386964	0.081014	0.785719
H140	H	1.886964	0.581014	1.285719
F141	F	1.106062	-0.136972	0.796158
F142	F	1.606062	0.363028	1.296158
F143	F	1.061853	0.167536	0.000009
F144	F	1.561853	0.667536	0.500009
F145	F	1.105986	-0.136950	0.203892
F146	F	1.605986	0.363050	0.703892
H147	H	1.386910	0.081028	0.365713
H148	H	1.886910	0.581028	0.865713
