data_functionalizedCrystal
_audit_creation_method	'MofGen! by Chris Wilmer'
_symmetry_space_group_name_H-M	'P1'
_symmetry_Int_Tables_number	1
_symmetry_cell_setting	triclinic
loop_
_symmetry_equiv_pos_as_xyz
  x,y,z
_cell_length_a	17.077404
_cell_length_b	17.077402
_cell_length_c	17.077396
_cell_angle_alpha	89.970216
_cell_angle_beta	89.980499
_cell_angle_gamma	90.023108
loop_
_atom_site_label
_atom_site_type_symbol
_atom_site_fract_x
_atom_site_fract_y
_atom_site_fract_z
Zn1	Zn	1.200055	-0.312503	-0.443836
Zn2	Zn	1.700055	0.187497	0.056164
Zn3	Zn	1.199962	-0.443778	-0.312567
Zn4	Zn	1.699962	0.056222	0.187433
Zn5	Zn	1.068786	-0.312531	-0.312584
Zn6	Zn	1.568786	0.187469	0.187416
Zn7	Zn	1.068754	-0.443732	-0.443790
Zn8	Zn	1.568754	0.056268	0.056210
O9	O	1.134389	-0.378136	-0.378194
O10	O	1.634389	0.121864	0.121806
O11	O	1.309889	-0.329925	-0.426434
O12	O	1.809889	0.170075	0.073566
O13	O	1.182536	-0.426399	-0.202722
O14	O	1.682536	0.073601	0.297278
O15	O	1.086252	-0.202680	-0.330021
O16	O	1.586252	0.297320	0.169979
O17	O	1.309821	-0.426372	-0.329992
O18	O	1.809821	0.073628	0.170008
O19	O	1.182694	-0.202660	-0.426451
O20	O	1.682694	0.297340	0.073549
O21	O	1.086162	-0.329972	-0.202734
O22	O	1.586162	0.170028	0.297266
O23	O	0.958935	-0.329927	-0.329976
O24	O	1.458935	0.170073	0.170024
O25	O	1.086197	-0.426293	-0.553643
O26	O	1.586197	0.073707	-0.053643
O27	O	0.958912	-0.426320	-0.426373
O28	O	1.458912	0.073680	0.073627
O29	O	1.182663	-0.329880	-0.553677
O30	O	1.682663	0.170120	-0.053677
O31	O	1.182505	-0.553619	-0.329948
O32	O	1.682505	-0.053619	0.170052
O33	O	1.086107	-0.553585	-0.426357
O34	O	1.586107	-0.053585	0.073643
C35	C	0.930441	-0.378122	-0.378172
C36	C	1.430441	0.121878	0.121828
C37	C	0.843192	-0.378135	-0.378182
C38	C	1.343192	0.121865	0.121818
C39	C	0.802210	-0.428402	-0.428295
C40	C	1.302210	0.071598	0.071705
C41	C	0.720229	-0.428404	-0.428308
C42	C	1.220229	0.071596	0.071692
C43	C	0.679232	-0.378141	-0.378202
C44	C	1.179232	0.121859	0.121798
C45	C	0.720220	-0.327869	-0.328087
C46	C	1.220220	0.172131	0.171913
C47	C	0.802199	-0.327863	-0.328079
C48	C	1.302199	0.172137	0.171921
C49	C	0.549350	-0.327884	-0.328106
C50	C	1.049350	0.172116	0.171894
C51	C	0.467365	-0.327890	-0.328112
C52	C	0.967365	0.172110	0.171888
C53	C	0.467380	-0.428424	-0.428335
C54	C	0.967380	0.071576	0.071665
C55	C	0.549359	-0.428419	-0.428327
C56	C	1.049359	0.071581	0.071673
C57	C	0.590341	-0.378147	-0.378210
C58	C	1.090341	0.121853	0.121790
C59	C	1.134314	-0.582084	-0.378163
C60	C	1.634314	-0.082084	0.121837
C61	C	1.134353	-0.669334	-0.378176
C62	C	1.634353	-0.169334	0.121824
C63	C	1.184598	-0.710316	-0.328029
C64	C	1.684598	-0.210316	0.171971
C65	C	1.184637	-0.792296	-0.328049
C66	C	1.684637	-0.292296	0.171951
C67	C	1.134425	-0.833293	-0.378212
C68	C	1.634425	-0.333293	0.121788
C69	C	1.084178	-0.792305	-0.428364
C70	C	1.584178	-0.292305	0.071636
C71	C	1.084144	-0.710327	-0.428348
C72	C	1.584144	-0.210327	0.071652
C73	C	1.084250	-0.963175	-0.428394
C74	C	1.584250	-0.463175	0.071606
C75	C	1.084283	-1.045160	-0.428410
C76	C	1.584283	-0.545160	0.071590
C77	C	1.184743	-1.045145	-0.328096
C78	C	1.684743	-0.545145	0.171904
C79	C	1.184709	-0.963166	-0.328079
C80	C	1.684709	-0.463166	0.171921
C81	C	1.134461	-0.922184	-0.378230
C82	C	1.634461	-0.422184	0.121770
C83	C	1.339134	-0.378151	-0.378216
C84	C	1.839134	0.121849	0.121784
C85	C	1.426383	-0.378157	-0.378226
C86	C	1.926383	0.121843	0.121774
C87	C	1.134437	-0.378078	-0.582938
C88	C	1.634437	0.121922	-0.082938
C89	C	1.134457	-0.378054	-0.670188
C90	C	1.634457	0.121946	-0.170188
C91	C	1.134487	-0.173392	-0.378243
C92	C	1.634487	0.326608	0.121757
C93	C	1.134528	-0.086142	-0.378263
C94	C	1.634528	0.413858	0.121737
C95	C	1.184689	-0.327847	-0.711197
C96	C	1.684689	0.172153	-0.211197
C97	C	1.184698	-0.327821	-0.793178
C98	C	1.684698	0.172179	-0.293178
C99	C	1.134479	-0.378006	-0.834148
C100	C	1.634479	0.121994	-0.334148
C101	C	1.084242	-0.428214	-0.793133
C102	C	1.584242	0.071786	-0.293133
C103	C	1.084229	-0.428236	-0.711154
C104	C	1.584229	0.071764	-0.211154
C105	C	1.084274	-0.428167	-0.964003
C106	C	1.584274	0.071833	-0.464003
C107	C	1.084288	-0.428147	-1.045988
C108	C	1.584288	0.071853	-0.545988
C109	C	1.184742	-0.327752	-1.046027
C110	C	1.684742	0.172248	-0.546027
C111	C	1.184730	-0.327774	-0.964048
C112	C	1.684730	0.172226	-0.464048
C113	C	1.134493	-0.377984	-0.923039
C114	C	1.634493	0.122016	-0.423039
C115	C	1.134387	-0.378137	-0.174246
C116	C	1.634387	0.121863	0.325754
C117	C	1.134519	-0.377941	-0.086997
C118	C	1.634519	0.122059	0.413003
H119	H	0.582715	-0.286940	-0.287302
H120	H	1.082715	0.213060	0.212698
C121	C	1.239333	-0.273410	-0.919513
C122	C	1.739333	0.226590	-0.419513
C123	C	1.289628	-0.317863	-0.872450
C124	C	1.789628	0.182137	-0.372450
C125	C	1.339937	-0.267805	-0.831417
C126	C	1.839937	0.232195	-0.331417
H127	H	1.209389	-0.239209	-0.887478
H128	H	1.709389	0.260791	-0.387478
H129	H	1.269299	-0.243508	-0.955643
H130	H	1.769299	0.256492	-0.455643
H131	H	1.259665	-0.347753	-0.836323
H132	H	1.759665	0.152247	-0.336323
H133	H	1.319589	-0.352062	-0.904465
H134	H	1.819589	0.147938	-0.404465
H135	H	1.369903	-0.237902	-0.867547
H136	H	1.869903	0.262098	-0.367547
H137	H	1.309986	-0.233606	-0.799387
H138	H	1.809986	0.266394	-0.299387
H139	H	1.374073	-0.297959	-0.799485
H140	H	1.874073	0.202041	-0.299485
C141	C	0.593916	-0.483084	-0.482596
C142	C	1.093916	0.016916	0.017404
C143	C	0.640930	-0.533347	-0.438053
C144	C	1.140930	-0.033347	0.061947
C145	C	0.681980	-0.583719	-0.488021
C146	C	1.181980	-0.083719	0.011979
H147	H	0.625984	-0.453184	-0.516861
H148	H	1.125984	0.046816	-0.016861
H149	H	0.557795	-0.513070	-0.512434
H150	H	1.057795	-0.013070	-0.012434
H151	H	0.677047	-0.503364	-0.408228
H152	H	1.177047	-0.003364	0.091772
H153	H	0.608881	-0.563264	-0.403790
H154	H	1.108881	-0.063264	0.096210
H155	H	0.645859	-0.613705	-0.517859
H156	H	1.145859	-0.113705	-0.017859
H157	H	0.714044	-0.553813	-0.522283
H158	H	1.214044	-0.053813	-0.022283
H159	H	0.713878	-0.617833	-0.457806
H160	H	1.213878	-0.117833	0.042194
C161	C	1.239217	-0.836649	-0.273515
C162	C	1.739217	-0.336649	0.226485
C163	C	1.283163	-0.783200	-0.229562
C164	C	1.783163	-0.283200	0.270438
C165	C	1.333445	-0.824028	-0.179308
C166	C	1.833445	-0.324028	0.320692
H167	H	1.273488	-0.868581	-0.303490
H168	H	1.773488	-0.368581	0.196510
H169	H	1.209237	-0.868663	-0.239251
H170	H	1.709237	-0.368663	0.260749
H171	H	1.313140	-0.751200	-0.263821
H172	H	1.813140	-0.251200	0.236179
H173	H	1.248913	-0.751266	-0.199571
H174	H	1.748913	-0.251266	0.300429
H175	H	1.303466	-0.856042	-0.145045
H176	H	1.803466	-0.356042	0.354955
H177	H	1.367712	-0.855959	-0.209290
H178	H	1.867712	-0.355959	0.290710
H179	H	1.363264	-0.787769	-0.149475
H180	H	1.863264	-0.287769	0.350525
C181	C	1.239188	-0.273255	-1.090688
C182	C	1.739188	0.226745	-0.590688
C183	C	1.228432	-0.283953	-1.171251
C184	C	1.728432	0.216047	-0.671251
C185	C	1.278564	-0.233758	-1.212420
C186	C	1.778564	0.266242	-0.712420
H187	H	1.291957	-0.284696	-1.077361
H188	H	1.791957	0.215304	-0.577361
H189	H	1.227710	-0.220502	-1.077302
H190	H	1.727710	0.279498	-0.577302
H191	H	1.239916	-0.336694	-1.184631
H192	H	1.739916	0.163306	-0.684631
H193	H	1.175674	-0.272507	-1.184601
H194	H	1.675674	0.227493	-0.684601
H195	H	1.267085	-0.181005	-1.199034
H196	H	1.767085	0.318995	-0.699034
H197	H	1.331329	-0.245203	-1.199086
H198	H	1.831329	0.254797	-0.699086
H199	H	1.271267	-0.241005	-1.267086
H200	H	1.771267	0.258995	-0.767086
H201	H	1.225585	-0.286983	-0.677845
H202	H	1.725585	0.213017	-0.177845
C203	C	1.029747	-1.089532	-0.482967
C204	C	1.529747	-0.589532	0.017033
C205	C	0.985756	-1.036097	-0.526906
C206	C	1.485756	-0.536097	-0.026906
C207	C	0.935520	-1.076944	-0.577182
C208	C	1.435520	-0.576944	-0.077182
H209	H	0.995502	-1.121566	-0.453008
H210	H	1.495502	-0.621566	0.046992
H211	H	1.059762	-1.121444	-0.517238
H212	H	1.559762	-0.621444	-0.017238
H213	H	0.955744	-1.004198	-0.492640
H214	H	1.455744	-0.504198	0.007360
H215	H	1.019980	-1.004061	-0.556881
H216	H	1.519980	-0.504061	-0.056881
H217	H	0.965534	-1.108856	-0.611453
H218	H	1.465534	-0.608856	-0.111453
H219	H	0.901280	-1.108977	-0.547217
H220	H	1.401280	-0.608977	-0.047217
H221	H	0.905671	-1.040695	-0.607006
H222	H	1.405671	-0.540695	-0.107006
C223	C	1.029675	-0.482658	-1.090331
C224	C	1.529675	0.017342	-0.590331
C225	C	0.985658	-0.526615	-1.036873
C226	C	1.485658	-0.026615	-0.536873
C227	C	0.935333	-0.576832	-1.077692
C228	C	1.435333	-0.076832	-0.577692
H229	H	1.059603	-0.516926	-1.122309
H230	H	1.559603	-0.016926	-0.622309
H231	H	0.995456	-0.452632	-1.122297
H232	H	1.495456	0.047368	-0.622297
H233	H	1.019873	-0.556640	-1.004920
H234	H	1.519873	-0.056640	-0.504920
H235	H	0.955714	-0.492368	-1.004892
H236	H	1.455714	0.007632	-0.504892
H237	H	0.901114	-0.546805	-1.109658
H238	H	1.401114	-0.046805	-0.609658
H239	H	0.965267	-0.611095	-1.109670
H240	H	1.465267	-0.111095	-0.609670
H241	H	0.905457	-0.606658	-1.041428
H242	H	1.405457	-0.106658	-0.541428
H243	H	1.225603	-0.286940	-0.826563
H244	H	1.725603	0.213060	-0.326563
C245	C	1.239476	-1.089483	-0.273696
C246	C	1.739476	-0.589483	0.226304
C247	C	1.317096	-1.069385	-0.290886
C248	C	1.817096	-0.569385	0.209114
C249	C	1.367552	-1.110186	-0.240783
C250	C	1.867552	-0.610186	0.259217
H251	H	1.232462	-1.144200	-0.280810
H252	H	1.732462	-0.644200	0.219190
H253	H	1.228069	-1.076064	-0.220929
H254	H	1.728069	-0.576064	0.279071
H255	H	1.328499	-1.082810	-0.343640
H256	H	1.828499	-0.582810	0.156360
H257	H	1.324135	-1.014675	-0.283767
H258	H	1.824135	-0.514675	0.216233
H259	H	1.356145	-1.096766	-0.188017
H260	H	1.856145	-0.596766	0.311983
H261	H	1.360531	-1.164901	-0.247902
H262	H	1.860531	-0.664901	0.252098
H263	H	1.420222	-1.096549	-0.252435
H264	H	1.920222	-0.596549	0.247565
H265	H	1.043335	-0.929811	-0.469235
H266	H	1.543335	-0.429811	0.030765
H267	H	1.043230	-0.676960	-0.469183
H268	H	1.543230	-0.176960	0.030817
C269	C	1.029867	-0.482728	-0.919370
C270	C	1.529867	0.017272	-0.419370
C271	C	1.074294	-0.533034	-0.872289
C272	C	1.574294	-0.033034	-0.372289
C273	C	1.024210	-0.583300	-0.831150
C274	C	1.524210	-0.083300	-0.331150
H275	H	0.999941	-0.512695	-0.955413
H276	H	1.499941	-0.012695	-0.455413
H277	H	0.995688	-0.452729	-0.887343
H278	H	1.495688	0.047271	-0.387343
H279	H	1.108460	-0.563030	-0.904313
H280	H	1.608460	-0.063030	-0.404313
H281	H	1.104219	-0.503088	-0.836231
H282	H	1.604219	-0.003088	-0.336231
H283	H	0.990030	-0.553301	-0.799122
H284	H	1.490030	-0.053301	-0.299122
H285	H	0.994286	-0.613262	-0.867199
H286	H	1.494286	-0.113262	-0.367199
H287	H	1.054345	-0.617434	-0.799195
H288	H	1.554345	-0.117434	-0.299195
C289	C	1.029633	-0.836672	-0.482916
C290	C	1.529633	-0.336672	0.017084
C291	C	0.985638	-0.783232	-0.526845
C292	C	1.485638	-0.283232	-0.026845
C293	C	0.935389	-0.824072	-0.577113
C294	C	1.435389	-0.324072	-0.077113
H295	H	0.995390	-0.868705	-0.452952
H296	H	1.495390	-0.368705	0.047048
H297	H	1.059638	-0.868587	-0.517193
H298	H	1.559638	-0.368587	-0.017193
H299	H	0.955635	-0.751332	-0.492572
H300	H	1.455635	-0.251332	0.007428
H301	H	1.019860	-0.751198	-0.556825
H302	H	1.519860	-0.251198	-0.056825
H303	H	0.965394	-0.855986	-0.611391
H304	H	1.465394	-0.355986	-0.111391
H305	H	0.901152	-0.856103	-0.547143
H306	H	1.401152	-0.356103	-0.047143
H307	H	0.905538	-0.787820	-0.606930
H308	H	1.405538	-0.287820	-0.106930
H309	H	1.043318	-0.469111	-0.677766
H310	H	1.543318	0.030889	-0.177766
H311	H	0.686866	-0.469337	-0.469114
H312	H	1.186866	0.030663	0.030886
C313	C	0.846676	-0.482876	-0.482829
C314	C	1.346676	0.017124	0.017171
C315	C	0.826789	-0.465867	-0.560528
C316	C	1.326789	0.034133	-0.060528
C317	C	0.867741	-0.516024	-0.610790
C318	C	1.367741	-0.016024	-0.110790
H319	H	0.833252	-0.535633	-0.471354
H320	H	1.333252	-0.035633	0.028646
H321	H	0.901377	-0.475670	-0.475701
H322	H	1.401377	0.024330	0.024299
H323	H	0.772100	-0.473080	-0.567652
H324	H	1.272100	0.026920	-0.067652
H325	H	0.840216	-0.413119	-0.572027
H326	H	1.340216	0.086881	-0.072027
H327	H	0.922442	-0.508817	-0.603662
H328	H	1.422442	-0.008817	-0.103662
H329	H	0.854313	-0.568778	-0.599307
H330	H	1.354313	-0.068778	-0.099307
H331	H	0.854259	-0.504485	-0.663514
H332	H	1.354259	-0.004485	-0.163514
C333	C	0.422748	-0.482917	-0.482723
C334	C	0.922748	0.017083	0.017277
C335	C	0.342180	-0.472149	-0.472026
C336	C	0.842180	0.027851	0.027974
C337	C	0.301038	-0.522326	-0.522118
C338	C	0.801038	-0.022326	-0.022118
H339	H	0.436064	-0.535676	-0.471186
H340	H	0.936064	-0.035676	0.028814
H341	H	0.436169	-0.471489	-0.535501
H342	H	0.936169	0.028511	-0.035501
H343	H	0.328765	-0.483582	-0.419261
H344	H	0.828765	0.016418	0.080739
H345	H	0.328841	-0.419401	-0.483569
H346	H	0.828841	0.080599	0.016431
H347	H	0.314458	-0.510899	-0.574895
H348	H	0.814458	-0.010899	-0.074895
H349	H	0.314359	-0.575082	-0.510577
H350	H	0.814359	-0.075082	-0.010577
H351	H	0.246368	-0.515022	-0.514872
H352	H	0.746368	-0.015022	-0.014872
H353	H	1.043350	-0.469073	-0.826498
H354	H	1.543350	0.030927	-0.326498
H355	H	0.433988	-0.286953	-0.287321
H356	H	0.933988	0.213047	0.212679
C357	C	0.675667	-0.273425	-0.273592
C358	C	1.175667	0.226575	0.226408
C359	C	0.628581	-0.317809	-0.223189
C360	C	1.128581	0.182191	0.276811
C361	C	0.587537	-0.267683	-0.172971
C362	C	1.087537	0.232317	0.327029
H363	H	0.643648	-0.239250	-0.303596
H364	H	1.143648	0.260750	0.196404
H365	H	0.711791	-0.243497	-0.243700
H366	H	1.211791	0.256503	0.256300
H367	H	0.592461	-0.347723	-0.253079
H368	H	1.092461	0.152277	0.246921
H369	H	0.660581	-0.351982	-0.193168
H370	H	1.160581	0.148018	0.306832
H371	H	0.623661	-0.237755	-0.143078
H372	H	1.123661	0.262245	0.356922
H373	H	0.555522	-0.233511	-0.202981
H374	H	1.055522	0.266489	0.297019
H375	H	0.555590	-0.297790	-0.138762
H376	H	1.055590	0.202210	0.361238
H377	H	1.225483	-0.676941	-0.287177
H378	H	1.725483	-0.176941	0.212823
C379	C	0.846555	-0.273262	-0.273578
C380	C	1.346555	0.226738	0.226422
C381	C	0.793107	-0.229262	-0.229682
C382	C	1.293107	0.270738	0.270318
C383	C	0.833938	-0.178960	-0.179460
C384	C	1.333938	0.321040	0.320540
H385	H	0.878564	-0.239026	-0.303574
H386	H	1.378564	0.260974	0.196426
H387	H	0.878492	-0.303230	-0.239278
H388	H	1.378492	0.196770	0.260722
H389	H	0.761184	-0.199296	-0.263978
H390	H	1.261184	0.300704	0.236022
H391	H	0.761097	-0.263478	-0.199670
H392	H	1.261097	0.236522	0.300330
H393	H	0.865875	-0.208928	-0.145160
H394	H	1.365875	0.291072	0.354840
H395	H	0.865946	-0.144729	-0.209463
H396	H	1.365946	0.355271	0.290537
H397	H	0.797681	-0.149105	-0.149666
H398	H	1.297681	0.350895	0.350334
H399	H	1.225591	-0.929786	-0.287228
H400	H	1.725591	-0.429786	0.212772
