data_functionalizedCrystal
_audit_creation_method	'MofGen! by Chris Wilmer'
_symmetry_space_group_name_H-M	'P1'
_symmetry_Int_Tables_number	1
_symmetry_cell_setting	triclinic
loop_
_symmetry_equiv_pos_as_xyz
  x,y,z
_cell_length_a	6.817900
_cell_length_b	12.840933
_cell_length_c	17.078472
_cell_angle_alpha	81.675883
_cell_angle_beta	79.875873
_cell_angle_gamma	88.345099
loop_
_atom_site_label
_atom_site_type_symbol
_atom_site_fract_x
_atom_site_fract_y
_atom_site_fract_z
V1	V	-3.878750	0.281214	0.111637
O2	O	-3.888907	0.320379	-0.003441
O3	O	-3.812211	0.236475	0.219508
O4	O	-3.774495	0.423395	0.110764
O5	O	-3.926883	0.132165	0.106055
V6	V	-4.371965	0.268588	0.097773
O7	O	-4.118746	0.308911	0.142050
O8	O	-4.582166	0.240891	0.067360
O9	O	-4.215298	0.313327	-0.010098
O10	O	-4.479205	0.229423	0.212851
O11	O	-4.441229	0.417637	0.103354
O12	O	-4.253013	0.126407	0.098646
C13	C	-3.654606	0.220990	0.245778
C14	C	-3.681117	0.185358	0.333969
C15	C	-3.872927	0.172230	0.379460
C16	C	-3.897865	0.138765	0.462327
C17	C	-3.730991	0.118421	0.499702
C18	C	-3.539166	0.131554	0.454205
C19	C	-3.514231	0.165026	0.371340
C20	C	-3.606509	0.459426	0.107060
C21	C	-3.602356	0.577559	0.107059
C22	C	-4.084342	0.090371	0.102348
C23	C	-4.067346	-0.027761	0.102347
V24	V	-3.861697	0.767376	0.111642
O25	O	-3.899212	0.920782	0.106060
O26	O	-3.767590	0.620536	0.110770
O27	O	-3.793620	0.766265	0.219512
O28	O	-3.873002	0.774045	-0.003435
V29	V	-4.352966	0.810284	0.097783
O30	O	-4.103631	0.739862	0.142058
O31	O	-4.560435	0.860482	0.067372
O32	O	-4.224261	0.945877	0.098653
O33	O	-4.432641	0.662793	0.103366
O34	O	-4.458851	0.809531	0.212861
O35	O	-4.198231	0.800148	-0.010089
C36	C	-4.036245	0.328807	-0.036364
C37	C	-3.988969	0.364446	-0.124555
C38	C	-3.635567	0.763448	0.245776
C39	C	-3.660743	0.765682	0.333966
C40	C	-4.020219	0.786000	-0.036361
C41	C	-3.974319	0.782730	-0.124552
C42	C	-3.851902	0.770570	0.379471
C43	C	-3.875545	0.772674	0.462333
C44	C	-3.708028	0.769883	0.499691
C45	C	-3.516854	0.764997	0.454179
C46	C	-3.493212	0.762901	0.371317
C47	C	-3.759503	0.775748	0.747074
C48	C	-3.783161	0.777842	0.829943
C49	C	-4.141851	0.785521	0.838091
C50	C	-4.118193	0.783417	0.755228
C51	C	-3.927022	0.778538	0.709723
N52	N	-3.732191	0.772030	0.584390
N53	N	-3.902860	0.776398	0.625024
C54	C	-4.142146	0.377576	-0.170045
C55	C	-4.097749	0.411046	-0.252912
C56	C	-3.900176	0.431392	-0.290286
C57	C	-3.746988	0.418257	-0.244790
C58	C	-3.791384	0.384780	-0.161926
H59	H	-3.358035	0.175707	0.334307
H60	H	-4.008827	0.188784	0.349040
H61	H	-3.988318	0.772834	0.349062
Cl62	Cl	-4.390541	0.352004	-0.123079
Cl63	Cl	-4.139029	0.122256	0.519505
H64	H	-4.222508	0.421738	-0.289943
H65	H	-4.254607	0.785695	0.724817
H66	H	-3.666640	0.374101	-0.124892
H67	H	-4.031203	0.776656	0.499380
Cl68	Cl	-3.844397	0.473478	-0.394461
Cl69	Cl	-3.498617	0.443834	-0.291788
H70	H	-3.337552	0.758926	0.334267
Cl71	Cl	-3.572549	0.774343	0.876904
H72	H	-3.751324	0.091167	0.567176
H73	H	-4.297497	0.789494	0.875150
H74	H	-3.603844	0.771768	0.710035
Cl75	Cl	-3.306259	0.761494	0.501142
H76	H	-3.403307	0.114986	0.484648
