data_functionalizedCrystal
_audit_creation_method	'MofGen! by Chris Wilmer'
_symmetry_space_group_name_H-M	'P1'
_symmetry_Int_Tables_number	1
_symmetry_cell_setting	triclinic
loop_
_symmetry_equiv_pos_as_xyz
  x,y,z
_cell_length_a	10.654550
_cell_length_b	14.519731
_cell_length_c	9.730223
_cell_angle_alpha	89.994614
_cell_angle_beta	89.999957
_cell_angle_gamma	84.086892
loop_
_atom_site_label
_atom_site_type_symbol
_atom_site_fract_x
_atom_site_fract_y
_atom_site_fract_z
O1	O	1.666607	0.129531	-0.114191
O2	O	1.301011	0.141872	-0.114216
O3	O	1.493488	0.001514	-0.114190
O4	O	1.474130	0.269888	-0.114217
O5	O	1.493476	0.001511	0.114390
O6	O	1.300999	0.141868	0.114364
O7	O	1.666595	0.129527	0.114389
Zn8	Zn	1.483795	0.135697	0.150668
Zn9	Zn	1.483811	0.135702	-0.150496
O10	O	1.474117	0.269884	0.114363
C11	C	1.254216	0.140964	0.000071
C12	C	1.114798	0.138253	0.000061
C13	C	1.492575	-0.032852	0.000100
C14	C	1.489857	-0.135246	0.000100
C15	C	1.034527	0.220893	0.000057
C16	C	0.903530	0.218340	0.000081
C17	C	0.933090	0.050500	0.000108
C18	C	1.064084	0.053053	0.000094
C19	C	1.487648	-0.218402	0.000097
C20	C	1.484889	-0.322725	0.000086
C21	C	1.482698	-0.405875	0.000077
C22	C	1.479939	-0.510205	0.000069
C23	C	1.713390	0.130435	0.000099
C24	C	1.852808	0.133146	0.000100
C25	C	1.475031	0.304251	0.000070
C26	C	1.477749	0.406645	0.000060
N27	N	1.483793	0.135693	0.356205
N28	N	1.483823	0.135699	-0.356032
C29	C	1.569051	0.073569	0.428142
C30	C	1.569063	0.073569	0.572025
C31	C	1.398556	0.197825	0.572021
C32	C	1.398539	0.197820	0.428140
H33	H	1.075814	0.290268	0.000041
H34	H	1.329105	0.248409	0.369565
H35	H	0.838177	0.285634	0.000081
H36	H	0.891781	-0.018867	0.000143
Br37	Br	1.684769	-0.010749	0.669652
Br38	Br	1.684750	-0.010748	0.330520
Br39	Br	1.173034	-0.059109	0.000117
Br40	Br	1.282860	0.282140	0.669652
