data_functionalizedCrystal
_audit_creation_method	'MofGen! by Chris Wilmer'
_symmetry_space_group_name_H-M	'P1'
_symmetry_Int_Tables_number	1
_symmetry_cell_setting	triclinic
loop_
_symmetry_equiv_pos_as_xyz
  x,y,z
_cell_length_a	21.295418
_cell_length_b	21.295417
_cell_length_c	17.640968
_cell_angle_alpha	101.233941
_cell_angle_beta	101.240429
_cell_angle_gamma	90.045515
loop_
_atom_site_label
_atom_site_type_symbol
_atom_site_fract_x
_atom_site_fract_y
_atom_site_fract_z
Zn1	Zn	1.034385	-0.178287	0.447373
Zn2	Zn	1.534385	0.321713	0.947373
Zn3	Zn	1.013004	-0.304854	0.315169
Zn4	Zn	1.513004	0.195146	0.815169
Zn5	Zn	0.907820	-0.199635	0.315147
Zn6	Zn	1.407820	0.300365	0.815147
Zn7	Zn	0.929063	-0.283567	0.447278
Zn8	Zn	1.429063	0.216433	0.947278
O9	O	0.971068	-0.241586	0.381242
O10	O	1.471068	0.258414	0.881242
O11	O	1.119646	-0.195051	0.429886
O12	O	1.619646	0.304949	0.929886
O13	O	0.981213	-0.308739	0.204541
O14	O	1.481213	0.191261	0.704541
O15	O	0.924666	-0.108709	0.332718
O16	O	1.424666	0.391291	0.832718
O17	O	1.103938	-0.288039	0.332756
O18	O	1.603938	0.211961	0.832756
O19	O	1.017653	-0.093025	0.429864
O20	O	1.517653	0.406975	0.929864
O21	O	0.903935	-0.231435	0.204525
O22	O	1.403935	0.268565	0.704525
O23	O	0.822541	-0.210794	0.332625
O24	O	1.322541	0.289206	0.832625
O25	O	0.960873	-0.251759	0.557916
O26	O	1.460873	0.248241	1.057916
O27	O	0.838148	-0.272459	0.429701
O28	O	1.338148	0.227541	0.929701
O29	O	1.038252	-0.174410	0.557986
O30	O	1.538252	0.325590	1.057986
O31	O	1.001812	-0.390124	0.332663
O32	O	1.501812	0.109876	0.832663
O33	O	0.940141	-0.374485	0.429722
O34	O	1.440141	0.125515	0.929722
C35	C	0.807502	-0.241634	0.381151
C36	C	1.307502	0.258366	0.881151
C37	C	0.737530	-0.241666	0.381131
C38	C	1.237530	0.258334	0.881131
C39	C	0.970981	-0.405144	0.381202
C40	C	1.470981	0.094856	0.881202
C41	C	0.971006	-0.475110	0.381211
C42	C	1.471006	0.024890	0.881211
C43	C	0.712795	-0.273840	0.431603
C44	C	1.212795	0.226160	0.931603
C45	C	0.647058	-0.273819	0.431638
C46	C	1.147058	0.226181	0.931638
C47	C	0.606057	-0.241633	0.381188
C48	C	1.106057	0.258367	0.881188
C49	C	0.630800	-0.209451	0.330712
C50	C	1.130800	0.290549	0.830712
C51	C	0.696537	-0.209468	0.330684
C52	C	1.196537	0.290532	0.830684
N53	N	0.491649	-0.247853	0.312045
N54	N	0.991649	0.252147	0.812045
N55	N	0.429202	-0.247840	0.312074
N56	N	0.929202	0.252160	0.812074
C57	C	0.407996	-0.241579	0.381271
C58	C	0.907996	0.258421	0.881271
N59	N	0.451595	-0.235343	0.450440
N60	N	0.951595	0.264657	0.950440
N61	N	0.514047	-0.235359	0.450410
N62	N	1.014047	0.264641	0.950410
C63	C	0.534776	-0.241610	0.381213
C64	C	1.034776	0.258390	0.881213
C65	C	0.311982	-0.273732	0.431786
C66	C	0.811982	0.226268	0.931786
C67	C	0.246244	-0.273706	0.431823
C68	C	0.746244	0.226294	0.931823
C69	C	0.229986	-0.209342	0.330890
C70	C	0.729986	0.290658	0.830890
C71	C	0.295724	-0.209364	0.330860
C72	C	0.795724	0.290636	0.830860
C73	C	0.336717	-0.241562	0.381307
C74	C	0.836717	0.258438	0.881307
C75	C	1.019407	-0.499747	0.431831
C76	C	1.519407	0.000253	0.931831
C77	C	1.019432	-0.565487	0.431851
C78	C	1.519432	-0.065487	0.931851
C79	C	0.971061	-0.606589	0.381236
C80	C	1.471061	-0.106589	0.881236
C81	C	0.922652	-0.581945	0.330612
C82	C	1.422652	-0.081945	0.830612
C83	C	0.922624	-0.516205	0.330600
C84	C	1.422624	-0.016205	0.830600
N85	N	0.955163	-0.720997	0.312049
N86	N	1.455163	-0.220997	0.812049
N87	N	0.955193	-0.783446	0.312063
N88	N	1.455193	-0.283446	0.812063
C89	C	0.971140	-0.804658	0.381272
C90	C	1.471140	-0.304658	0.881272
N91	N	0.987069	-0.761061	0.450467
N92	N	1.487069	-0.261061	0.950467
N93	N	0.987042	-0.698606	0.450452
N94	N	1.487042	-0.198606	0.950452
C95	C	0.971085	-0.677873	0.381244
C96	C	1.471085	-0.177873	0.881244
C97	C	1.019572	-0.900576	0.431917
C98	C	1.519572	-0.400576	0.931917
C99	C	1.019593	-0.966317	0.431938
C100	C	1.519593	-0.466317	0.931938
C101	C	0.922814	-0.982774	0.330693
C102	C	1.422814	-0.482774	0.830693
C103	C	0.922791	-0.917034	0.330679
C104	C	1.422791	-0.417034	0.830679
C105	C	0.971173	-0.875939	0.381290
C106	C	1.471173	-0.375939	0.881290
C107	C	1.135273	-0.241538	0.381334
C108	C	1.635273	0.258462	0.881334
C109	C	1.205247	-0.241518	0.381373
C110	C	1.705247	0.258482	0.881373
C111	C	1.004317	-0.208329	0.587437
C112	C	1.504317	0.291671	1.087437
C113	C	1.018485	-0.194157	0.675304
C114	C	1.518485	0.305843	1.175304
C115	C	0.971175	-0.077386	0.381299
C116	C	1.471175	0.422614	0.881299
C117	C	0.971220	-0.007414	0.381324
C118	C	1.471220	0.492586	0.881324
C119	C	0.937985	-0.274668	0.175849
C120	C	1.437985	0.225332	0.675849
C121	C	0.923938	-0.288663	0.087982
C122	C	1.423938	0.211337	0.587982
C123	C	0.863672	-0.348908	0.964108
C124	C	1.363672	0.151092	1.464108
C125	C	0.876999	-0.335583	1.046673
C126	C	1.376999	0.164417	1.546673
C127	C	0.957567	-0.255047	1.046736
C128	C	1.457567	0.244953	1.546736
C129	C	0.944245	-0.268363	0.964169
C130	C	1.444245	0.231637	1.464169
C131	C	0.897297	-0.315294	0.922861
C132	C	1.397297	0.184706	1.422861
C133	C	0.977870	-0.234749	0.922922
C134	C	1.477870	0.265251	1.422922
C135	C	0.964551	-0.248067	0.840363
C136	C	1.464551	0.251933	1.340363
C137	C	0.917607	-0.294998	0.799049
C138	C	1.417607	0.205002	1.299049
C139	C	0.883978	-0.328612	0.840302
C140	C	1.383978	0.171388	1.340302
C141	C	1.024820	-0.187821	0.964231
C142	C	1.524820	0.312179	1.464231
C143	C	1.058445	-0.154207	0.922985
C144	C	1.558445	0.345793	1.422985
C145	C	1.045123	-0.167522	0.840424
C146	C	1.545123	0.332478	1.340424
C147	C	0.998179	-0.214452	0.799111
C148	C	1.498179	0.285548	1.299111
C149	C	1.078752	-0.133907	0.799172
C150	C	1.578752	0.366093	1.299172
C151	C	1.065433	-0.147225	0.716612
C152	C	1.565433	0.352775	1.216612
C153	C	0.984860	-0.227770	0.716551
C154	C	1.484860	0.272230	1.216551
H155	H	0.746169	-0.300058	0.472681
H156	H	1.246169	0.199942	0.972681
H157	H	0.995794	-0.216837	1.080380
H158	H	1.495794	0.283163	1.580380
F159	F	0.587164	-0.175193	0.277023
F160	F	1.087164	0.324807	0.777023
F161	F	1.070897	-0.456014	0.485700
F162	F	1.570897	0.043986	0.985700
F163	F	0.871276	-0.890813	0.276801
F164	F	1.371276	-0.390813	0.776801
F165	F	0.219920	-0.307948	0.485549
F166	F	0.719920	0.192052	0.985549
H167	H	0.345361	-0.299945	0.472867
H168	H	0.845361	0.200055	0.972867
H169	H	1.058842	-0.585549	0.473081
H170	H	1.558842	-0.085549	0.973081
H171	H	1.035665	-0.176981	1.031457
H172	H	1.535665	0.323019	1.531457
H173	H	0.716675	-0.183266	0.289583
H174	H	1.216675	0.316734	0.789583
H175	H	0.626914	-0.300018	0.472741
H176	H	1.126914	0.199982	0.972741
H177	H	0.196604	-0.183132	0.289816
H178	H	0.696604	0.316868	0.789816
H179	H	0.883210	-0.496147	0.289378
H180	H	1.383210	0.003853	0.789378
H181	H	1.096672	-0.115997	0.956629
H182	H	1.596672	0.384003	1.456629
H183	H	1.058965	-0.867115	0.473131
H184	H	1.558965	-0.367115	0.973131
F185	F	0.934888	-0.277715	0.672584
F186	F	1.434888	0.222285	1.172584
H187	H	1.092813	-0.119852	0.683028
H188	H	1.592813	0.380148	1.183028
F189	F	0.813700	-0.398853	0.920141
F190	F	1.313700	0.101147	1.420141
H191	H	0.883267	-0.615414	0.289403
H192	H	1.383267	-0.115414	0.789403
F193	F	0.322049	-0.175121	0.277139
F194	F	0.822049	0.324879	0.777139
F195	F	1.128721	-0.083967	0.843144
F196	F	1.628721	0.416033	1.343144
F197	F	0.841205	-0.371361	1.090568
F198	F	1.341205	0.128639	1.590568
F199	F	0.871332	-1.026514	0.276826
F200	F	1.371332	-0.526514	0.776826
F201	F	1.071105	-0.992535	0.485826
F202	F	1.571105	-0.492535	0.985826
H203	H	0.906766	-0.305842	0.731824
H204	H	1.406766	0.194158	1.231824
F205	F	0.834006	-0.378557	0.796334
F206	F	1.334006	0.121443	1.296334
