data_functionalizedCrystal
_audit_creation_method	'MofGen! by Chris Wilmer'
_symmetry_space_group_name_H-M	'P1'
_symmetry_Int_Tables_number	1
_symmetry_cell_setting	triclinic
loop_
_symmetry_equiv_pos_as_xyz
  x,y,z
_cell_length_a	14.971486
_cell_length_b	11.026607
_cell_length_c	13.448316
_cell_angle_alpha	89.996104
_cell_angle_beta	89.998199
_cell_angle_gamma	96.100073
loop_
_atom_site_label
_atom_site_type_symbol
_atom_site_fract_x
_atom_site_fract_y
_atom_site_fract_z
O1	O	1.212292	0.158181	-0.082572
O2	O	0.954927	0.177123	-0.082599
O3	O	1.062279	-0.009032	-0.082584
O4	O	1.104940	0.344336	-0.082587
O5	O	1.062260	-0.009044	0.082800
O6	O	0.954908	0.177112	0.082785
O7	O	1.212273	0.158169	0.082812
Cu8	Cu	1.083589	0.167639	0.097899
Cu9	Cu	1.083611	0.167653	-0.097686
O10	O	1.104921	0.344324	0.082797
C11	C	0.921457	0.176270	0.000090
C12	C	0.821753	0.173732	0.000079
C13	C	1.054400	-0.054260	0.000106
C14	C	1.030939	-0.189008	0.000100
C15	C	0.782051	0.283093	0.000080
C16	C	0.688368	0.280700	0.000095
C17	C	0.634389	0.168945	0.000102
C18	C	0.674098	0.059576	0.000105
C19	C	0.767779	0.061969	0.000097
C20	C	0.478837	0.054594	0.000118
C21	C	0.385150	0.052200	0.000124
C22	C	0.399426	0.273325	0.000116
C23	C	0.493107	0.275718	0.000109
C24	C	0.532809	0.166348	0.000109
C25	C	1.095719	-0.262720	0.000105
C26	C	1.071472	-0.401989	0.000099
C27	C	1.245743	0.159022	0.000121
C28	C	1.345447	0.161561	0.000125
C29	C	1.112800	0.389552	0.000105
C30	C	1.136261	0.524300	0.000104
N31	N	1.083579	0.167629	0.235463
N32	N	1.083626	0.167654	-0.235251
C33	C	1.131139	0.085233	0.287510
C34	C	1.131145	0.085232	0.391614
C35	C	1.083595	0.167634	0.443668
C36	C	1.036029	0.250033	0.391614
C37	C	1.036019	0.250028	0.287513
C38	C	1.036055	0.250042	0.608594
C39	C	1.036066	0.250049	0.712703
C40	C	1.131181	0.085246	0.712695
C41	C	1.131171	0.085241	0.608594
C42	C	1.083606	0.167642	0.556547
H43	H	0.825994	0.374096	0.000073
C44	C	0.917099	-0.361179	0.000076
C45	C	0.972362	-0.455964	0.000082
H46	H	0.855915	-0.394504	0.000059
H47	H	0.928935	-0.312394	0.057750
H48	H	0.928962	-0.312367	-0.057597
H49	H	0.960504	-0.504770	0.057759
H50	H	0.960521	-0.504770	-0.057598
C51	C	1.252827	-0.349772	-0.084897
C52	C	1.235372	-0.421726	0.000116
H53	H	1.314011	-0.316447	-0.084885
H54	H	1.240991	-0.398576	-0.142561
H55	H	1.215323	-0.285482	-0.084890
H56	H	1.272871	-0.486021	0.000105
H57	H	1.247217	-0.372919	0.057794
C58	C	1.149922	-0.124773	0.744739
C59	C	1.183468	-0.005335	0.769894
H60	H	1.182210	-0.180686	0.780049
H61	H	1.088098	-0.138093	0.761818
H62	H	1.156723	-0.136546	0.675287
H63	H	1.176661	0.006440	0.839345
H64	H	1.245308	0.007990	0.752822
C65	C	1.225147	-0.077674	0.297970
C66	C	1.183406	-0.005349	0.230297
H67	H	1.257409	-0.133604	0.262649
H68	H	1.265468	-0.027075	0.338560
H69	H	1.180868	-0.121411	0.338586
H70	H	1.227686	0.038395	0.189686
H71	H	1.143082	-0.055955	0.189690
C72	C	1.043217	0.415179	0.491504
C73	C	0.983774	0.340617	0.551377
H74	H	1.010942	0.471091	0.456177
H75	H	1.087484	0.458925	0.532107
H76	H	1.071528	0.366086	0.445612
H77	H	0.955468	0.389710	0.597275
H78	H	0.939492	0.296868	0.510772
C79	C	1.123998	-0.079927	0.508682
C80	C	1.183431	-0.005339	0.448816
H81	H	1.156280	-0.135850	0.543988
H82	H	1.095689	-0.030861	0.554583
H83	H	1.079726	-0.123671	0.468069
H84	H	1.227699	0.038412	0.489430
H85	H	1.211754	-0.054411	0.402910
C86	C	0.942012	0.412910	0.702259
C87	C	0.983779	0.340602	0.769923
H88	H	0.909724	0.468804	0.737588
H89	H	0.986272	0.456677	0.661653
H90	H	0.901703	0.362286	0.661659
H91	H	1.024094	0.391226	0.810520
H92	H	0.939514	0.296833	0.810547
H93	H	0.537055	0.366719	0.000093
C94	C	0.942014	0.412939	0.297970
C95	C	0.983745	0.340605	0.230299
H96	H	0.909745	0.468861	0.262647
H97	H	0.901702	0.362343	0.338581
H98	H	0.986300	0.456684	0.338564
H99	H	0.939458	0.296853	0.189709
H100	H	1.024060	0.391207	0.189670
H101	H	0.367096	0.362378	0.000120
H102	H	1.169895	0.018149	0.566211
H103	H	0.656047	0.369753	0.000094
H104	H	0.341202	-0.038801	0.000131
H105	H	0.511159	-0.034467	0.000120
H106	H	1.169129	-0.222722	0.000119
H107	H	0.630141	-0.031417	0.000125
H108	H	0.800103	-0.027084	0.000096
H109	H	0.957528	-0.229006	0.000086
H110	H	0.997308	0.317122	0.434003
