data_functionalizedCrystal
_audit_creation_method	'MofGen! by Chris Wilmer'
_symmetry_space_group_name_H-M	'P1'
_symmetry_Int_Tables_number	1
_symmetry_cell_setting	triclinic
loop_
_symmetry_equiv_pos_as_xyz
  x,y,z
_cell_length_a	13.635800
_cell_length_b	17.110477
_cell_length_c	11.102291
_cell_angle_alpha	84.812473
_cell_angle_beta	108.605752
_cell_angle_gamma	80.939702
loop_
_atom_site_label
_atom_site_type_symbol
_atom_site_fract_x
_atom_site_fract_y
_atom_site_fract_z
V1	V	2.031680	-0.109493	0.396095
O2	O	2.036441	0.005251	0.388724
O3	O	1.996395	-0.217095	0.393224
O4	O	2.020442	-0.107813	0.568920
O5	O	2.012228	-0.104788	0.211811
V6	V	2.273251	-0.095767	0.374073
O7	O	2.162728	-0.139600	0.444402
O8	O	2.367302	-0.065660	0.325766
O9	O	2.196933	0.011836	0.376944
O10	O	2.327189	-0.210511	0.381444
O11	O	2.351402	-0.100472	0.558357
O12	O	2.172886	-0.097447	0.201248
V13	V	2.531680	-0.109493	0.396095
O14	O	2.536441	0.005251	0.388724
O15	O	2.496395	-0.217095	0.393224
O16	O	2.520442	-0.107813	0.568920
O17	O	2.512228	-0.104788	0.211811
V18	V	2.773251	-0.095767	0.374073
O19	O	2.662728	-0.139600	0.444402
O20	O	2.867302	-0.065660	0.325766
O21	O	2.696933	0.011836	0.376944
O22	O	2.827189	-0.210511	0.381444
O23	O	2.851402	-0.100472	0.558357
O24	O	2.672886	-0.097447	0.201248
C25	C	1.915779	-0.243327	0.386933
C26	C	1.927660	-0.331293	0.385738
C27	C	2.024358	-0.376651	0.391510
C28	C	2.035516	-0.459306	0.390394
C29	C	1.949973	-0.496600	0.383497
C30	C	1.853268	-0.451237	0.377729
C31	C	1.842113	-0.368585	0.378854
C32	C	1.979098	-0.745956	0.379792
C33	C	1.990260	-0.828614	0.378663
C34	C	2.172508	-0.836677	0.391331
C35	C	2.161343	-0.754022	0.392447
C36	C	2.064641	-0.708667	0.386686
C37	C	1.961376	-0.581086	0.382352
C38	C	2.053242	-0.624183	0.387840
C39	C	1.946453	-0.103925	0.611049
C40	C	1.977833	-0.103263	0.752333
C41	C	2.109219	0.038063	0.383231
C42	C	2.086958	0.126029	0.384435
C43	C	2.078545	-0.101338	0.159112
C44	C	2.036784	-0.101995	0.017827
C45	C	2.415779	-0.243327	0.386933
C46	C	2.427660	-0.331293	0.385738
C47	C	2.446453	-0.103925	0.611049
C48	C	2.477833	-0.103263	0.752333
C49	C	2.083711	-0.106899	0.825176
C50	C	2.113186	-0.106262	0.957923
C51	C	1.930897	-0.098357	0.944974
C52	C	1.901422	-0.098988	0.812228
C53	C	2.188955	-0.111467	0.832654
C54	C	2.218431	-0.110830	0.965401
C55	C	2.609219	0.038063	0.383231
C56	C	2.586958	0.126029	0.384435
C57	C	2.578545	-0.101338	0.159112
C58	C	2.536784	-0.101995	0.017827
C59	C	2.524368	-0.376639	0.391520
C60	C	2.535550	-0.459295	0.390417
C61	C	2.450019	-0.496604	0.383521
C62	C	2.353303	-0.451253	0.377742
C63	C	2.342125	-0.368599	0.378855
C64	C	2.662743	0.171373	0.378656
C65	C	2.641834	0.254029	0.379766
C66	C	2.545142	0.291338	0.386664
C67	C	2.469351	0.245988	0.392440
C68	C	2.490257	0.163334	0.391320
C69	C	2.583711	-0.106899	0.825176
C70	C	2.613186	-0.106262	0.957923
C71	C	2.430897	-0.098357	0.944974
C72	C	2.401422	-0.098988	0.812228
C73	C	2.688955	-0.111467	0.832654
C74	C	2.718431	-0.110830	0.965401
H75	H	2.094016	-0.346291	0.397113
H76	H	2.114257	-0.496233	0.395096
H77	H	2.231005	-0.723663	0.398072
Br78	Br	2.724869	-0.021950	0.754279
H79	H	2.251240	-0.873614	0.396021
H80	H	2.283669	-0.481643	0.372128
Br81	Br	2.327204	-0.092554	1.026267
H82	H	2.777691	-0.168046	1.018163
H83	H	2.277691	-0.168046	1.018163
H84	H	2.528132	0.358641	0.387574
Br85	Br	2.640466	-0.326025	0.400889
H86	H	2.263371	-0.331684	0.374140
H87	H	2.315209	-0.096028	0.752924
H88	H	2.223670	-0.170479	0.808102
Br89	Br	1.874161	-0.879230	0.369320
H90	H	1.900357	-0.709037	0.375093
Br91	Br	2.666812	-0.520825	0.398256
H92	H	2.703560	0.290942	0.375064
H93	H	1.783620	-0.481610	0.372121
Br94	Br	2.746811	-0.209821	0.791719
Br95	Br	1.845286	-0.631707	0.372991
Br96	Br	1.757726	-0.094045	0.713370
H97	H	2.749022	-0.054645	0.994587
H98	H	1.763373	-0.331656	0.374159
Br99	Br	2.338127	0.296635	0.401790
H100	H	1.868690	-0.094874	0.993756
Br101	Br	2.169334	-0.573569	0.397210
H102	H	2.210508	-0.057758	0.785638
H103	H	2.249022	-0.054645	0.994587
Br104	Br	2.793978	0.120759	0.369295
H105	H	2.428542	0.126419	0.396038
H106	H	2.459135	-0.563907	0.382616
