data_functionalizedCrystal
_audit_creation_method	'MofGen! by Chris Wilmer'
_symmetry_space_group_name_H-M	'P1'
_symmetry_Int_Tables_number	1
_symmetry_cell_setting	triclinic
loop_
_symmetry_equiv_pos_as_xyz
  x,y,z
_cell_length_a	12.759401
_cell_length_b	12.645330
_cell_length_c	12.759393
_cell_angle_alpha	89.970471
_cell_angle_beta	89.979527
_cell_angle_gamma	90.019217
loop_
_atom_site_label
_atom_site_type_symbol
_atom_site_fract_x
_atom_site_fract_y
_atom_site_fract_z
Zn1	Zn	1.606240	-0.421939	-0.594031
Zn2	Zn	1.606123	-0.599241	-0.418356
Zn3	Zn	1.430540	-0.421997	-0.418366
Zn4	Zn	1.430521	-0.599166	-0.593993
O5	O	1.518356	-0.510586	-0.506187
O6	O	1.753245	-0.445466	-0.570739
O7	O	1.582791	-0.575786	-0.271336
O8	O	1.453903	-0.273642	-0.441689
O9	O	1.753160	-0.575729	-0.441671
O10	O	1.582989	-0.273600	-0.570749
O11	O	1.453790	-0.445565	-0.271344
O12	O	1.283516	-0.445492	-0.441652
O13	O	1.453872	-0.575600	-0.741019
O14	O	1.283503	-0.575657	-0.570684
O15	O	1.582971	-0.445393	-0.741047
O16	O	1.582772	-0.747579	-0.441634
O17	O	1.453758	-0.747523	-0.570674
C18	C	1.245389	-0.510573	-0.506166
C19	C	1.128612	-0.510593	-0.506182
C20	C	1.073770	-0.578473	-0.573263
C21	C	0.964046	-0.578477	-0.573284
C22	C	0.964015	-0.442718	-0.439133
C23	C	1.073737	-0.442709	-0.439118
C24	C	1.518279	-0.786016	-0.506172
C25	C	1.518343	-0.903846	-0.506201
C26	C	1.437515	-1.071419	-0.587630
C27	C	1.437101	-0.948859	-0.587368
C28	C	1.488368	-0.948450	-0.395479
C29	C	1.487875	-1.071048	-0.395973
C30	C	1.629640	-1.070930	-0.534596
C31	C	1.628958	-0.948323	-0.537017
C32	C	1.792389	-0.510600	-0.506208
C33	C	1.909166	-0.510606	-0.506217
C34	C	1.518432	-0.510481	-0.780220
C35	C	1.518465	-0.510437	-0.896997
C36	C	1.518462	-0.234081	-0.506224
C37	C	1.518507	-0.116251	-0.506241
C38	C	1.585714	-0.442587	-1.061606
C39	C	1.585694	-0.442628	-0.951882
C40	C	1.451259	-0.578217	-0.951841
C41	C	1.451286	-0.578180	-1.061564
C42	C	1.518340	-0.510613	-0.233219
C43	C	1.518511	-0.510359	-0.116443
H44	H	0.919323	-0.387451	-0.384531
H45	H	1.692478	-0.917675	-0.482054
O46	O	1.650921	-0.376748	-1.115080
C47	C	1.710589	-0.316642	-1.284128
C48	C	1.636668	-0.391240	-1.223705
H49	H	1.699108	-0.328349	-1.371962
H50	H	1.692168	-0.231145	-1.262644
H51	H	1.795281	-0.335261	-1.262498
H52	H	1.551952	-0.372716	-1.245303
H53	H	1.655180	-0.476715	-1.245194
H54	H	1.396560	-0.633374	-1.106213
O55	O	1.126855	-0.376734	-0.373851
C56	C	1.115254	-0.242035	-0.240838
C57	C	1.054968	-0.316714	-0.314673
H58	H	1.057161	-0.193473	-0.192989
H59	H	1.166557	-0.290584	-0.185745
H60	H	1.166689	-0.186706	-0.289182
H61	H	1.003477	-0.372057	-0.266414
H62	H	1.003732	-0.268098	-0.369769
H63	H	1.396525	-0.633433	-0.907145
H64	H	1.406636	-1.099743	-0.371952
H65	H	1.455855	-0.918698	-0.669468
H66	H	1.456096	-1.100823	-0.669999
O67	O	1.338791	-0.913928	-0.565136
C68	C	1.190120	-0.812426	-0.623731
C69	C	1.301445	-0.851930	-0.649058
H70	H	1.159900	-0.762275	-0.691557
H71	H	1.135890	-0.883043	-0.611550
H72	H	1.192184	-0.762653	-0.549289
H73	H	1.299482	-0.901685	-0.723510
H74	H	1.355628	-0.781267	-0.661172
O75	O	1.651005	-0.376691	-0.898777
C76	C	1.784389	-0.242243	-0.910404
C77	C	1.710455	-0.316846	-0.970675
H78	H	1.832489	-0.193855	-0.968507
H79	H	1.736214	-0.186758	-0.859065
H80	H	1.839252	-0.290950	-0.859007
H81	H	1.655577	-0.268225	-1.022129
H82	H	1.758695	-0.372335	-1.021948
H83	H	1.118446	-0.633745	-0.627873
H84	H	0.919399	-0.633750	-0.627910
O85	O	1.555190	-1.106263	-0.321079
C86	C	1.677620	-1.059186	-0.185116
C87	C	1.601411	-1.019168	-0.269885
H88	H	1.715027	-0.988790	-0.143717
H89	H	1.632954	-1.109181	-0.125622
H90	H	1.741355	-1.109227	-0.223313
H91	H	1.537659	-0.969084	-0.231780
H92	H	1.646150	-0.969230	-0.329370
O93	O	1.339908	-1.108459	-0.565485
C94	C	1.229261	-1.261639	-0.545662
C95	C	1.339850	-1.219832	-0.570741
H96	H	1.229172	-1.351687	-0.549924
H97	H	1.205593	-1.235531	-0.463489
H98	H	1.171122	-1.228631	-0.605084
H99	H	1.398064	-1.252820	-0.511387
H100	H	1.363431	-1.245929	-0.652942
O101	O	1.556366	-0.913666	-0.321025
C102	C	1.578375	-0.816319	-0.160224
C103	C	1.501243	-0.855641	-0.244458
H104	H	1.533842	-0.769379	-0.098310
H105	H	1.618427	-0.886950	-0.121767
H106	H	1.639980	-0.763452	-0.198283
H107	H	1.439577	-0.908489	-0.206481
H108	H	1.461270	-0.784961	-0.282908
O109	O	1.392406	-0.912131	-0.366247
C110	C	1.215445	-0.957082	-0.317462
C111	C	1.324079	-0.998353	-0.350526
H112	H	1.160166	-1.026770	-0.304764
H113	H	1.222905	-0.910178	-0.241548
H114	H	1.182819	-0.903727	-0.381676
H115	H	1.356766	-1.051749	-0.286384
H116	H	1.316553	-1.045197	-0.426469
O117	O	1.662319	-1.107529	-0.629329
C118	C	1.715821	-1.063196	-0.805084
C119	C	1.678857	-1.021602	-0.697840
H120	H	1.729181	-0.993746	-0.860511
H121	H	1.792148	-1.108905	-0.794941
H122	H	1.653419	-1.117747	-0.839215
H123	H	1.741186	-0.967010	-0.663649
H124	H	1.602504	-0.975954	-0.708049
H125	H	1.651562	-0.919165	-0.618502
O126	O	1.701630	-1.105696	-0.463968
C127	C	1.786738	-1.256362	-0.385704
C128	C	1.705207	-1.217124	-0.465743
H129	H	1.789641	-1.346455	-0.387096
H130	H	1.867168	-1.223276	-0.406743
H131	H	1.763708	-1.228395	-0.303954
H132	H	1.728138	-1.245077	-0.547521
H133	H	1.624797	-1.250201	-0.444614
