data_functionalizedCrystal
_audit_creation_method	'MofGen! by Chris Wilmer'
_symmetry_space_group_name_H-M	'P1'
_symmetry_Int_Tables_number	1
_symmetry_cell_setting	triclinic
loop_
_symmetry_equiv_pos_as_xyz
  x,y,z
_cell_length_a	14.044220
_cell_length_b	8.140239
_cell_length_c	9.065218
_cell_angle_alpha	90.001686
_cell_angle_beta	89.102381
_cell_angle_gamma	89.997843
loop_
_atom_site_label
_atom_site_type_symbol
_atom_site_fract_x
_atom_site_fract_y
_atom_site_fract_z
O1	O	1.260761	0.136426	0.356074
O2	O	1.760761	0.636426	0.856074
O3	O	0.984682	0.136468	0.343225
O4	O	1.484682	0.636468	0.843225
O5	O	1.128428	0.136443	0.135640
O6	O	1.628428	0.636443	0.635640
O7	O	1.117015	0.136451	0.563660
O8	O	1.617015	0.636451	1.063660
O9	O	1.128420	-0.136784	0.135636
O10	O	1.628420	0.363216	0.635636
O11	O	0.984674	-0.136759	0.343222
O12	O	1.484674	0.363241	0.843222
O13	O	1.260753	-0.136801	0.356071
O14	O	1.760753	0.363199	0.856071
Zn15	Zn	1.122712	-0.180160	0.349646
Zn16	Zn	1.622712	0.319840	0.849646
Zn17	Zn	1.122723	0.179828	0.349650
Zn18	Zn	1.622723	0.679828	0.849650
O19	O	1.117007	-0.136776	0.563656
O20	O	1.617007	0.363224	1.063656
C21	C	0.949315	-0.000140	0.337599
C22	C	1.449315	0.499860	0.837599
C23	C	0.843945	-0.000124	0.320822
C24	C	1.343945	0.499876	0.820822
N25	N	1.122712	-0.425843	0.349642
N26	N	1.622712	0.074157	0.849642
C27	C	0.651021	-0.000157	0.290150
C28	C	1.151021	0.499843	0.790150
C29	C	0.594409	-0.000161	0.409139
C30	C	1.094409	0.499839	0.909139
C31	C	0.487059	-0.000180	0.392073
C32	C	0.987059	0.499820	0.892073
C33	C	0.758381	-0.000138	0.307214
C34	C	1.258381	0.499862	0.807214
C35	C	1.296120	-0.000189	0.361697
C36	C	1.796120	0.499811	0.861697
C37	C	1.401490	-0.000195	0.378474
C38	C	1.901490	0.499805	0.878474
C39	C	1.127327	-0.000168	0.080530
C40	C	1.627327	0.499832	0.580530
C41	C	1.124048	-0.000159	-0.083677
C42	C	1.624048	0.499841	0.416323
N43	N	1.122731	0.425511	0.349643
N44	N	1.622731	0.925511	0.849643
C45	C	1.118108	-0.000161	0.618766
C46	C	1.618108	0.499839	1.118766
C47	C	1.121388	-0.000159	0.782972
C48	C	1.621388	0.499841	1.282972
H49	H	0.626565	-0.000151	0.523826
H50	H	1.126565	0.499849	1.023826
H51	H	0.618867	-0.000168	0.175472
H52	H	1.118867	0.499832	0.675472
