data_functionalizedCrystal
_audit_creation_method	'MofGen! by Chris Wilmer'
_symmetry_space_group_name_H-M	'P1'
_symmetry_Int_Tables_number	1
_symmetry_cell_setting	triclinic
loop_
_symmetry_equiv_pos_as_xyz
  x,y,z
_cell_length_a	23.096457
_cell_length_b	23.096457
_cell_length_c	23.096457
_cell_angle_alpha	90.003973
_cell_angle_beta	59.997717
_cell_angle_gamma	60.004020
loop_
_atom_site_label
_atom_site_type_symbol
_atom_site_fract_x
_atom_site_fract_y
_atom_site_fract_z
Zr1	Zr	0.633730	0.557814	-0.075986
O2	O	0.754526	0.465361	-0.168435
O3	O	0.512944	0.586148	-0.047648
O4	O	0.633746	0.586138	-0.168444
O5	O	0.633707	0.465388	0.047650
O6	O	0.633748	0.681418	-0.168447
O7	O	0.633723	0.465371	-0.047639
O8	O	0.417655	0.681436	0.047634
O9	O	0.849800	0.465371	-0.168432
O10	O	0.562622	0.669349	-0.035561
O11	O	0.562609	0.598255	0.035555
O12	O	0.704838	0.598243	-0.106667
O13	O	0.704825	0.527149	-0.035551
Zr14	Zr	0.633707	0.709803	0.075984
Zr15	Zr	0.633732	0.709776	-0.075991
Zr16	Zr	0.633704	0.557842	0.075990
Zr17	Zr	0.785682	0.557830	-0.075980
Zr18	Zr	0.481754	0.709788	0.075979
O19	O	0.754493	0.681470	0.047646
O20	O	0.754529	0.681430	-0.168443
O21	O	0.754489	0.465401	0.047654
O22	O	0.512911	0.802257	0.168434
O23	O	0.512947	0.802217	-0.047656
O24	O	0.512907	0.586187	0.168441
O25	O	0.633729	0.802229	-0.047652
O26	O	0.633691	0.681480	0.168442
O27	O	0.633689	0.586199	0.168446
O28	O	0.633713	0.802247	0.047638
O29	O	0.849802	0.586160	-0.168436
O30	O	0.417634	0.681458	0.168435
O31	O	0.417636	0.802247	0.168430
O32	O	0.417657	0.802225	0.047630
O33	O	0.849780	0.465393	-0.047632
O34	O	0.849782	0.586182	-0.047636
O35	O	0.562598	0.669374	0.106665
O36	O	0.562612	0.740468	0.035549
O37	O	0.704827	0.669363	-0.035556
O38	O	0.704814	0.598269	0.035560
C39	C	0.443649	0.633790	-0.000008
C40	C	0.379142	0.633783	-0.000010
C41	C	0.296348	0.686284	0.052479
C42	C	0.235726	0.686289	0.052486
C43	C	0.257903	0.633798	-0.000007
C44	C	0.340711	0.581288	-0.052501
C45	C	0.401330	0.581281	-0.052502
N46	N	0.201803	0.617908	-0.062258
N47	N	0.144214	0.617920	-0.062254
C48	C	0.075264	0.633817	-0.000006
N49	N	0.066070	0.649716	0.062242
N50	N	0.123663	0.649708	0.062238
C51	C	0.192178	0.633800	-0.000012
C52	C	-0.073266	0.686326	0.052494
C53	C	-0.133887	0.686326	0.052501
C54	C	-0.028900	0.581328	-0.052491
C55	C	0.031719	0.581325	-0.052493
C56	C	0.009530	0.633828	-0.000000
C57	C	0.633715	0.443729	0.000006
C58	C	0.633714	0.379217	0.000009
C59	C	0.559481	0.386028	0.037118
C60	C	0.559480	0.325412	0.037121
C61	C	0.633716	0.257986	0.000001
C62	C	0.707959	0.251178	-0.037110
C63	C	0.707958	0.311794	-0.037107
N64	N	0.688979	0.135185	-0.060413
N65	N	0.688975	0.077606	-0.060415
C66	C	0.633723	0.075354	-0.000012
N67	N	0.578463	0.132863	0.060393
N68	N	0.578465	0.190448	0.060394
C69	C	0.633725	0.192255	-0.000007
C70	C	0.559484	0.016441	0.037105
C71	C	0.559486	-0.044177	0.037110
C72	C	0.707967	-0.118411	-0.037129
C73	C	0.707963	-0.057793	-0.037127
C74	C	0.633719	0.009630	-0.000012
C75	C	0.823787	0.633828	0.000006
C76	C	0.888295	0.633834	0.000008
C77	C	0.633750	0.633774	-0.190099
C78	C	0.633761	0.633762	-0.254616
C79	C	0.633721	0.823889	-0.000008
C80	C	0.633723	0.888401	-0.000010
C81	C	0.633764	0.686255	-0.284912
C82	C	0.633747	0.686271	-0.345520
C83	C	0.633745	0.633783	-0.375838
C84	C	0.633738	0.581286	-0.345532
C85	C	0.633746	0.581276	-0.284922
N86	N	0.680086	0.571551	-0.494192
N87	N	0.680080	0.571564	-0.551771
C88	C	0.633718	0.633812	-0.558453
N89	N	0.587372	0.696051	-0.505387
N90	N	0.587382	0.696039	-0.447805
C91	C	0.633735	0.633789	-0.441559
C92	C	0.633701	0.686326	-0.654466
C93	C	0.633679	0.686343	-0.715072
C94	C	0.633678	0.581352	-0.715088
C95	C	0.633691	0.581342	-0.654479
C96	C	0.633707	0.633828	-0.624173
C97	C	0.633686	0.633843	0.190097
C98	C	0.633675	0.633855	0.254615
C99	C	0.443652	0.823870	-0.000014
C100	C	0.379146	0.888375	-0.000019
C101	C	0.443617	0.633824	0.190090
C102	C	0.379098	0.633830	0.254606
C103	C	0.443620	0.823905	0.190084
C104	C	0.379103	0.888422	0.254596
C105	C	0.823816	0.443713	-0.190085
C106	C	0.888334	0.379196	-0.254598
C107	C	0.823784	0.443748	0.000013
C108	C	0.888291	0.379243	0.000018
C109	C	0.823819	0.633793	-0.190092
C110	C	0.888338	0.633788	-0.254607
C111	C	0.348859	0.881544	-0.037147
C112	C	0.288256	0.942147	-0.037165
C113	C	0.257938	1.009581	-0.000052
C114	C	0.288231	1.016412	0.037077
C115	C	0.348837	0.955809	0.037091
C116	C	0.348794	0.670956	0.322028
C117	C	0.288181	0.670958	0.382653
C118	C	0.257868	0.633838	0.375854
C119	C	0.288178	0.596707	0.308424
C120	C	0.348795	0.596701	0.247801
C121	C	0.348812	0.955836	0.247771
C122	C	0.288199	1.016462	0.308381
C123	C	0.257874	1.009672	0.375818
C124	C	0.288172	0.942251	0.382642
C125	C	0.348787	0.881626	0.322032
C126	C	0.918632	0.311782	-0.247772
C127	C	0.979264	0.251156	-0.308383
C128	C	1.009591	0.257945	-0.375819
C129	C	0.979290	0.325367	-0.382644
C130	C	0.918664	0.385991	-0.322033
C131	C	0.918584	0.386074	0.037139
C132	C	0.979203	0.325471	0.037141
C133	C	1.009524	0.258036	0.000025
C134	C	0.979228	0.251206	-0.037101
C135	C	0.918614	0.311809	-0.037107
C136	C	0.918631	0.670915	-0.247785
C137	C	0.979245	0.670924	-0.308398
C138	C	1.009569	0.633801	-0.375833
C139	C	0.979270	0.596673	-0.382654
C140	C	0.918653	0.596668	-0.322041
H141	H	0.278275	0.729035	0.095223
H142	H	0.263473	0.936733	0.437556
H143	H	0.499030	0.071340	0.067341
H144	H	1.003908	0.701158	-0.302831
H145	H	0.499026	0.440923	0.067336
H146	H	0.893943	0.306240	-0.192868
H147	H	0.208517	1.059043	0.425164
H148	H	0.373493	0.961378	0.192866
H149	H	0.893996	0.440882	-0.327600
H150	H	0.373443	0.826737	0.327599
H151	H	1.003860	0.331046	0.067376
H152	H	0.633734	0.538551	-0.370219
H153	H	1.003925	0.196264	-0.302813
H154	H	0.263537	1.071325	0.067293
H155	H	1.003969	0.566448	-0.437567
H156	H	1.058928	0.633810	-0.425182
H157	H	0.893902	0.440977	0.067368
H158	H	0.893995	0.566432	-0.327606
H159	H	0.499034	-0.038626	0.067334
H160	H	0.893950	0.306237	-0.067333
H161	H	0.168304	0.729042	0.095231
H162	H	0.208588	1.058922	-0.000068
H163	H	0.208510	0.633849	0.425223
H164	H	0.768411	-0.063342	-0.067351
H165	H	1.058879	0.208695	0.000035
H166	H	0.373543	0.826641	-0.067378
H167	H	1.003924	0.196293	-0.067320
H168	H	1.058957	0.208575	-0.425166
H169	H	0.099135	0.538577	-0.095238
H170	H	-0.091333	0.729074	0.095240
H171	H	0.263599	0.936572	-0.067400
H172	H	0.358764	0.538549	-0.095241
H173	H	0.893951	0.701145	-0.192882
H174	H	0.633694	0.538595	-0.629813
H175	H	1.003991	0.330887	-0.437557
H176	H	0.373489	0.961381	0.067329
H177	H	0.633749	0.729018	-0.370191
H178	H	0.468748	0.538525	-0.095245
H179	H	0.633671	0.538618	-0.739770
H180	H	-0.201304	0.729078	0.095248
H181	H	0.499029	0.330958	0.067341
H182	H	-0.010842	0.538588	-0.095232
H183	H	0.768402	0.196276	-0.067334
H184	H	0.768409	0.306243	-0.067324
H185	H	0.373468	0.701184	0.327578
H186	H	0.263509	0.701197	0.437551
H187	H	0.263489	0.566485	0.302898
H188	H	0.633773	0.728994	-0.260238
H189	H	0.768411	-0.173309	-0.067354
H190	H	0.633744	0.538529	-0.260254
H191	H	0.263537	1.071354	0.302812
H192	H	0.633676	0.729092	-0.739737
H193	H	0.373461	0.566471	0.192905
H194	H	0.633709	0.729066	-0.629788
