data_functionalizedCrystal
_audit_creation_method	'MofGen! by Chris Wilmer'
_symmetry_space_group_name_H-M	'P1'
_symmetry_Int_Tables_number	1
_symmetry_cell_setting	triclinic
loop_
_symmetry_equiv_pos_as_xyz
  x,y,z
_cell_length_a	10.685901
_cell_length_b	10.685194
_cell_length_c	19.076919
_cell_angle_alpha	92.275516
_cell_angle_beta	83.170935
_cell_angle_gamma	90.347428
loop_
_atom_site_label
_atom_site_type_symbol
_atom_site_fract_x
_atom_site_fract_y
_atom_site_fract_z
Zn1	Zn	1.857244	-0.665522	0.289846
Zn2	Zn	1.850794	-0.866987	0.163816
Zn3	Zn	1.655804	-0.642350	0.181795
Zn4	Zn	1.631292	-0.859290	0.291214
O5	O	1.748784	-0.758537	0.231668
O6	O	2.032555	-0.705166	0.265031
O7	O	1.832487	-0.830712	0.067665
O8	O	1.695483	-0.470319	0.203080
O9	O	2.027816	-0.853181	0.172437
O10	O	1.843481	-0.487344	0.282465
O11	O	1.689229	-0.665672	0.080874
O12	O	1.476386	-0.658208	0.204407
O13	O	1.653706	-0.840062	0.389569
O14	O	1.458377	-0.817593	0.284796
O15	O	1.819713	-0.697702	0.388564
O16	O	1.808719	-1.041070	0.173764
O17	O	1.647451	-1.035415	0.267363
C18	C	1.421704	-0.734552	0.246701
C19	C	1.281774	-0.724322	0.253148
C20	C	1.724758	-1.083648	0.218775
C21	C	1.714593	-1.222742	0.213277
C22	C	2.077140	-0.782617	0.216576
C23	C	2.217067	-0.792878	0.210145
C24	C	1.734695	-0.770608	0.415330
C25	C	1.728691	-0.775752	0.493596
C26	C	1.772936	-0.432160	0.244625
C27	C	1.783228	-0.293077	0.250147
C28	C	1.762897	-0.746428	0.048720
C29	C	1.769171	-0.740949	-0.029543
C30	C	1.812296	-0.704053	0.529844
C31	C	1.806640	-0.708880	0.603384
C32	C	1.717383	-0.785414	0.640675
C33	C	1.633769	-0.857116	0.604422
C34	C	1.639420	-0.852281	0.530884
C35	C	1.691208	-0.807816	0.860667
C36	C	1.685565	-0.812649	0.934210
C37	C	1.858436	-0.664410	0.933166
C38	C	1.864084	-0.659587	0.859626
C39	C	1.780465	-0.731284	0.823381
N40	N	1.711602	-0.790354	0.715844
N41	N	1.786242	-0.726337	0.748213
H42	H	1.648039	-1.268942	0.177507
H43	H	1.849767	-1.246884	0.285921
H44	H	1.884983	-0.641734	0.499486
H45	H	1.874723	-0.650498	0.632893
H46	H	1.230116	-0.657805	0.294901
O47	O	1.601024	-0.885153	0.821582
H48	H	1.619931	-0.868928	0.764182
H49	H	1.268717	-0.859402	0.168401
H50	H	1.936770	-0.597269	0.829269
O51	O	1.537488	-0.939659	0.644638
H52	H	1.547608	-0.930985	0.701864
O53	O	1.948588	-0.587042	0.972261
H54	H	1.929651	-0.603239	1.029663
H55	H	1.571327	-0.910653	0.501374
O56	O	1.589283	-0.895191	0.974436
H57	H	1.532078	-0.944224	0.936880
