data_functionalizedCrystal
_audit_creation_method	'MofGen! by Chris Wilmer'
_symmetry_space_group_name_H-M	'P1'
_symmetry_Int_Tables_number	1
_symmetry_cell_setting	triclinic
loop_
_symmetry_equiv_pos_as_xyz
  x,y,z
_cell_length_a	17.077404
_cell_length_b	21.395361
_cell_length_c	17.077396
_cell_angle_alpha	89.966749
_cell_angle_beta	89.981638
_cell_angle_gamma	90.028678
loop_
_atom_site_label
_atom_site_type_symbol
_atom_site_fract_x
_atom_site_fract_y
_atom_site_fract_z
Zn1	Zn	1.200012	-0.249472	-0.443793
Zn2	Zn	1.533345	0.083861	-0.110459
Zn3	Zn	1.866679	0.417194	0.222874
Zn4	Zn	1.199901	-0.354254	-0.312516
Zn5	Zn	1.533234	-0.020920	0.020817
Zn6	Zn	1.866568	0.312413	0.354151
Zn7	Zn	1.068744	-0.249490	-0.312543
Zn8	Zn	1.402077	0.083843	0.020790
Zn9	Zn	1.735410	0.417176	0.354123
Zn10	Zn	1.068694	-0.354212	-0.443742
Zn11	Zn	1.402027	-0.020879	-0.110409
Zn12	Zn	1.735360	0.312454	0.222925
O13	O	1.134338	-0.301857	-0.378149
O14	O	1.467671	0.031476	-0.044815
O15	O	1.801004	0.364809	0.288518
O16	O	1.309844	-0.263382	-0.426388
O17	O	1.643177	0.069952	-0.093055
O18	O	1.976511	0.403285	0.240278
O19	O	1.182477	-0.340381	-0.202673
O20	O	1.515811	-0.007048	0.130661
O21	O	1.849144	0.326285	0.463994
O22	O	1.086224	-0.161810	-0.329987
O23	O	1.419557	0.171523	0.003347
O24	O	1.752891	0.504857	0.336680
O25	O	1.309763	-0.340364	-0.329940
O26	O	1.643096	-0.007031	0.003394
O27	O	1.976429	0.326303	0.336727
O28	O	1.182666	-0.161797	-0.426415
O29	O	1.516000	0.171536	-0.093082
O30	O	1.849333	0.504870	0.240252
O31	O	1.086117	-0.263412	-0.202693
O32	O	1.419450	0.069921	0.130641
O33	O	1.752783	0.403254	0.463974
O34	O	0.958890	-0.263372	-0.329937
O35	O	1.292224	0.069961	0.003396
O36	O	1.625557	0.403295	0.336729
O37	O	1.086139	-0.340294	-0.553596
O38	O	1.419472	-0.006960	-0.220262
O39	O	1.752806	0.326373	0.113071
O40	O	0.958854	-0.340311	-0.426329
O41	O	1.292187	-0.006978	-0.092995
O42	O	1.625520	0.326356	0.240338
O43	O	1.182618	-0.263342	-0.553633
O44	O	1.515951	0.069992	-0.220300
O45	O	1.849284	0.403325	0.113034
O46	O	1.182429	-0.441926	-0.329891
O47	O	1.515762	-0.108593	0.003443
O48	O	1.849096	0.224740	0.336776
O49	O	1.086031	-0.441896	-0.426302
O50	O	1.419365	-0.108563	-0.092969
O51	O	1.752698	0.224771	0.240365
C52	C	0.930390	-0.301840	-0.378131
C53	C	1.263723	0.031494	-0.044798
C54	C	1.597056	0.364827	0.288536
C55	C	0.843140	-0.301847	-0.378142
C56	C	1.176473	0.031486	-0.044809
C57	C	1.509807	0.364820	0.288525
C58	C	0.802193	-0.261834	-0.428439
C59	C	1.135526	0.071500	-0.095106
C60	C	1.468860	0.404833	0.238227
C61	C	0.720213	-0.261838	-0.428443
C62	C	1.053546	0.071496	-0.095110
C63	C	1.386879	0.404829	0.238224
C64	C	0.679181	-0.301859	-0.378153
C65	C	1.012514	0.031475	-0.044819
C66	C	1.345847	0.364808	0.288514
C67	C	0.720133	-0.341874	-0.327850
C68	C	1.053467	-0.008541	0.005484
C69	C	1.386800	0.324793	0.338817
C70	C	0.802112	-0.341866	-0.327843
C71	C	1.135446	-0.008533	0.005491
C72	C	1.468779	0.324800	0.338824
C73	C	0.549263	-0.341888	-0.327869
C74	C	0.882597	-0.008555	0.005464
C75	C	1.215930	0.324779	0.338798
C76	C	0.467279	-0.341897	-0.327877
C77	C	0.800612	-0.008563	0.005456
C78	C	1.133945	0.324770	0.338790
C79	C	0.467364	-0.261859	-0.428470
C80	C	0.800697	0.071474	-0.095136
C81	C	1.134030	0.404807	0.238197
C82	C	0.549342	-0.261852	-0.428463
C83	C	0.882676	0.071482	-0.095129
C84	C	1.216009	0.404815	0.238204
C85	C	0.590290	-0.301868	-0.378160
C86	C	0.923623	0.031465	-0.044827
C87	C	1.256956	0.364799	0.288506
C88	C	1.134234	-0.464645	-0.378105
C89	C	1.467567	-0.131312	-0.044772
C90	C	1.800901	0.202022	0.288562
C91	C	1.134261	-0.534286	-0.378112
C92	C	1.467595	-0.200953	-0.044779
C93	C	1.800928	0.132381	0.288554
C94	C	1.184500	-0.566994	-0.327962
C95	C	1.517833	-0.233661	0.005371
C96	C	1.851167	0.099672	0.338704
C97	C	1.184537	-0.632430	-0.327980
C98	C	1.517870	-0.299096	0.005353
C99	C	1.851203	0.034237	0.338687
C100	C	1.134320	-0.665154	-0.378139
C101	C	1.467654	-0.331821	-0.044806
C102	C	1.800987	0.001512	0.288527
C103	C	1.084078	-0.632438	-0.428299
C104	C	1.417412	-0.299105	-0.094966
C105	C	1.750745	0.034228	0.238368
C106	C	1.084049	-0.567004	-0.428286
C107	C	1.417382	-0.233671	-0.094952
C108	C	1.750716	0.099662	0.238381
C109	C	1.063641	-0.768867	-0.384292
C110	C	1.396974	-0.435533	-0.050959
C111	C	1.730308	-0.102200	0.282374
C112	C	1.063669	-0.834300	-0.384300
C113	C	1.397003	-0.500966	-0.050967
C114	C	1.730336	-0.167633	0.282366
C115	C	1.134412	-0.866975	-0.378185
C116	C	1.467745	-0.533642	-0.044852
C117	C	1.801079	-0.200308	0.288481
C118	C	1.205129	-0.834210	-0.372046
C119	C	1.538462	-0.500876	-0.038713
C120	C	1.871795	-0.167543	0.294621
C121	C	1.205099	-0.768776	-0.372033
C122	C	1.538432	-0.435442	-0.038699
C123	C	1.871766	-0.102109	0.294634
C124	C	1.134347	-0.736107	-0.378160
C125	C	1.467681	-0.402773	-0.044826
C126	C	1.801014	-0.069440	0.288507
C127	C	1.184694	-0.970636	-0.328052
C128	C	1.518028	-0.637302	0.005282
C129	C	1.851361	-0.303969	0.338615
C130	C	1.184732	-1.036072	-0.328075
C131	C	1.518066	-0.702739	0.005259
C132	C	1.851399	-0.369406	0.338592
C133	C	1.084267	-1.036080	-0.428390
C134	C	1.417600	-0.702747	-0.095056
C135	C	1.750934	-0.369413	0.238277
C136	C	1.084236	-0.970645	-0.428371
C137	C	1.417569	-0.637311	-0.095037
C138	C	1.750903	-0.303978	0.238296
C139	C	1.134449	-0.937926	-0.378198
C140	C	1.467782	-0.604593	-0.044864
C141	C	1.801115	-0.271260	0.288469
C142	C	1.339082	-0.301876	-0.378167
C143	C	1.672415	0.031458	-0.044833
C144	C	2.005749	0.364791	0.288500
C145	C	1.426332	-0.301883	-0.378174
C146	C	1.759665	0.031450	-0.044841
C147	C	2.092998	0.364783	0.288492
C148	C	1.134385	-0.301811	-0.582893
C149	C	1.467718	0.031522	-0.249560
C150	C	1.801052	0.364856	0.083774
C151	C	1.134405	-0.301791	-0.670143
C152	C	1.467739	0.031542	-0.336809
C153	C	1.801072	0.364875	-0.003476
C154	C	1.134463	-0.138434	-0.378210
C155	C	1.467796	0.194899	-0.044876
C156	C	1.801130	0.528233	0.288457
C157	C	1.134516	-0.068793	-0.378236
C158	C	1.467850	0.264541	-0.044902
C159	C	1.801183	0.597874	0.288431
C160	C	1.184644	-0.261719	-0.711154
C161	C	1.517977	0.071614	-0.377820
C162	C	1.851310	0.404947	-0.044487
C163	C	1.184653	-0.261698	-0.793134
C164	C	1.517987	0.071635	-0.459801
C165	C	1.851320	0.404968	-0.126467
C166	C	1.134428	-0.301753	-0.834102
C167	C	1.467761	0.031580	-0.500769
C168	C	1.801094	0.364913	-0.167436
C169	C	1.084184	-0.341827	-0.793086
C170	C	1.417517	-0.008494	-0.459752
C171	C	1.750850	0.324839	-0.126419
C172	C	1.084171	-0.341845	-0.711107
C173	C	1.417504	-0.008511	-0.377773
C174	C	1.750838	0.324822	-0.044440
C175	C	1.084215	-0.341790	-0.963956
C176	C	1.417549	-0.008456	-0.630622
C177	C	1.750882	0.324877	-0.297289
C178	C	1.084229	-0.341773	-1.045940
C179	C	1.417562	-0.008440	-0.712607
C180	C	1.750896	0.324893	-0.379274
C181	C	1.184698	-0.261643	-1.045983
C182	C	1.518031	0.071690	-0.712650
C183	C	1.851364	0.405023	-0.379317
C184	C	1.184685	-0.261661	-0.964004
C185	C	1.518018	0.071673	-0.630671
C186	C	1.851351	0.405006	-0.297338
C187	C	1.134442	-0.301736	-0.922993
C188	C	1.467775	0.031598	-0.589660
C189	C	1.801108	0.364931	-0.256327
C190	C	1.134335	-0.301858	-0.174201
C191	C	1.467669	0.031475	0.159133
C192	C	1.801002	0.364809	0.492466
C193	C	1.134467	-0.301701	-0.086951
C194	C	1.467801	0.031632	0.246382
C195	C	1.801134	0.364965	0.579715
H196	H	0.686719	-0.374457	-0.286899
H197	H	1.020052	-0.041123	0.046435
H198	H	1.353385	0.292210	0.379768
Br199	Br	0.605029	-0.207544	-0.496723
Br200	Br	0.938362	0.125789	-0.163390
Br201	Br	1.271695	0.459123	0.169943
H202	H	1.225388	-0.540357	-0.287110
H203	H	1.558721	-0.207024	0.046223
H204	H	1.892055	0.126310	0.379556
Br205	Br	1.016015	-0.396185	-0.848684
Br206	Br	1.349348	-0.062851	-0.515351
Br207	Br	1.682681	0.270482	-0.182018
Br208	Br	1.252873	-0.207341	-0.848789
Br209	Br	1.586207	0.125992	-0.515456
Br210	Br	1.919540	0.459325	-0.182122
H211	H	1.043383	-1.062724	-0.469234
H212	H	1.376717	-0.729390	-0.135901
H213	H	1.710050	-0.396057	0.197433
H214	H	0.835450	-0.374449	-0.286885
H215	H	1.168784	-0.041116	0.046449
H216	H	1.502117	0.292218	0.379782
Br217	Br	1.252723	-0.676829	-0.259915
Br218	Br	1.586056	-0.343496	0.073419
Br219	Br	1.919389	-0.010163	0.406752
Br220	Br	1.015983	-0.396227	-0.655448
Br221	Br	1.349316	-0.062893	-0.322115
Br222	Br	1.682649	0.270440	0.011219
H223	H	1.006029	-0.742269	-0.389275
H224	H	1.339363	-0.408935	-0.055941
H225	H	1.672696	-0.075602	0.277392
Br226	Br	0.411794	-0.207551	-0.496737
Br227	Br	0.745127	0.125782	-0.163404
Br228	Br	1.078461	0.459115	0.169930
H229	H	1.043324	-0.944012	-0.469204
H230	H	1.376657	-0.610679	-0.135871
H231	H	1.709990	-0.277345	0.197462
Br232	Br	1.015933	-0.676849	-0.496379
Br233	Br	1.349267	-0.343515	-0.163046
Br234	Br	1.682600	-0.010182	0.170287
H235	H	1.225583	-0.943996	-0.287200
H236	H	1.558916	-0.610662	0.046133
H237	H	1.892250	-0.277329	0.379467
Br238	Br	0.664644	-0.207532	-0.496708
Br239	Br	0.997978	0.125802	-0.163374
Br240	Br	1.331311	0.459135	0.169959
Br241	Br	1.016058	-0.396128	-1.101540
Br242	Br	1.349391	-0.062795	-0.768207
Br243	Br	1.682724	0.270538	-0.434874
H244	H	0.433873	-0.374486	-0.286927
H245	H	0.767206	-0.041153	0.046407
H246	H	1.100539	0.292181	0.379740
Br247	Br	0.604834	-0.396200	-0.259606
Br248	Br	0.938167	-0.062866	0.073728
Br249	Br	1.271501	0.270467	0.407061
H250	H	1.225606	-0.229012	-1.079378
H251	H	1.558939	0.104321	-0.746045
H252	H	1.892273	0.437655	-0.412712
Br253	Br	1.301066	-0.724310	-0.363707
Br254	Br	1.634400	-0.390976	-0.030374
Br255	Br	1.967733	-0.057643	0.302960
H256	H	0.835595	-0.229245	-0.469394
H257	H	1.168929	0.104088	-0.136061
H258	H	1.502262	0.437421	0.197273
Br259	Br	1.301143	-0.878546	-0.363735
Br260	Br	1.634476	-0.545213	-0.030401
Br261	Br	1.967810	-0.211880	0.302932
H262	H	1.225647	-1.062702	-0.287238
H263	H	1.558981	-0.729369	0.046095
H264	H	1.892314	-0.396036	0.379428
Br265	Br	0.967698	-0.878760	-0.392627
Br266	Br	1.301032	-0.545427	-0.059294
Br267	Br	1.634365	-0.212094	0.274039
H268	H	1.043138	-0.540373	-0.469125
H269	H	1.376471	-0.207039	-0.135791
H270	H	1.709805	0.126294	0.197542
H271	H	1.225546	-0.229104	-0.677803
H272	H	1.558879	0.104230	-0.344470
H273	H	1.892212	0.437563	-0.011137
Br274	Br	1.252856	-0.207305	-0.908404
Br275	Br	1.586189	0.126028	-0.575071
Br276	Br	1.919522	0.459361	-0.241738
H277	H	1.043290	-0.374413	-0.930567
H278	H	1.376623	-0.041080	-0.597234
H279	H	1.709956	0.292253	-0.263901
