data_functionalizedCrystal
_audit_creation_method	'MofGen! by Chris Wilmer'
_symmetry_space_group_name_H-M	'P1'
_symmetry_Int_Tables_number	1
_symmetry_cell_setting	triclinic
loop_
_symmetry_equiv_pos_as_xyz
  x,y,z
_cell_length_a	16.625547
_cell_length_b	21.295417
_cell_length_c	16.625539
_cell_angle_alpha	90.033373
_cell_angle_beta	90.024822
_cell_angle_gamma	90.030443
loop_
_atom_site_label
_atom_site_type_symbol
_atom_site_fract_x
_atom_site_fract_y
_atom_site_fract_z
Zn1	Zn	1.232635	-0.250609	0.455972
Zn2	Zn	1.732635	0.249391	0.955972
Zn3	Zn	1.232520	-0.355882	0.321128
Zn4	Zn	1.732520	0.144118	0.821128
Zn5	Zn	1.097797	-0.250631	0.321143
Zn6	Zn	1.597797	0.249369	0.821143
Zn7	Zn	1.097749	-0.355844	0.455908
Zn8	Zn	1.597749	0.144156	0.955908
O9	O	1.165175	-0.303242	0.388538
O10	O	1.665175	0.196758	0.888538
O11	O	1.345452	-0.264581	0.438106
O12	O	1.845452	0.235419	0.938106
O13	O	1.214620	-0.341946	0.208297
O14	O	1.714620	0.158054	0.708297
O15	O	1.115753	-0.162539	0.339062
O16	O	1.615753	0.337461	0.839062
O17	O	1.345367	-0.341925	0.339036
O18	O	1.845367	0.158075	0.839036
O19	O	1.214818	-0.162523	0.438121
O20	O	1.714818	0.337477	0.938121
O21	O	1.115640	-0.264618	0.208308
O22	O	1.615640	0.235382	0.708308
O23	O	0.984958	-0.264581	0.338999
O24	O	1.484958	0.235419	0.838999
O25	O	1.115670	-0.341859	0.568749
O26	O	1.615670	0.158141	1.068749
O27	O	0.984923	-0.341881	0.438010
O28	O	1.484923	0.158119	0.938010
O29	O	1.214771	-0.264544	0.568796
O30	O	1.714771	0.235456	1.068796
O31	O	1.214573	-0.443967	0.338973
O32	O	1.714573	0.056033	0.838973
O33	O	1.115558	-0.443939	0.437995
O34	O	1.615558	0.056061	0.937995
C35	C	0.955684	-0.303229	0.388500
C36	C	1.455684	0.196771	0.888500
C37	C	0.866063	-0.303239	0.388502
C38	C	1.366063	0.196761	0.888502
C39	C	0.793281	-0.303241	0.388512
C40	C	1.293281	0.196759	0.888512
C41	C	0.701972	-0.303244	0.388533
C42	C	1.201972	0.196756	0.888533
C43	C	0.629196	-0.303250	0.388553
C44	C	1.129196	0.196750	0.888553
C45	C	0.537882	-0.303254	0.388572
C46	C	1.037882	0.196746	0.888572
C47	C	1.165070	-0.466793	0.388493
C48	C	1.665070	0.033207	0.888493
C49	C	1.165098	-0.536761	0.388501
C50	C	1.665098	-0.036761	0.888501
C51	C	1.216701	-0.569622	0.336993
C52	C	1.716701	-0.069622	0.836993
C53	C	1.216739	-0.635364	0.337011
C54	C	1.716739	-0.135364	0.837011
C55	C	1.165159	-0.668244	0.388529
C56	C	1.665159	-0.168244	0.888529
C57	C	1.113552	-0.635376	0.440047
C58	C	1.613552	-0.135376	0.940047
C59	C	1.113522	-0.569634	0.440033
C60	C	1.613522	-0.069634	0.940033
N61	N	1.094624	-0.771510	0.394663
N62	N	1.594624	-0.271510	0.894663
N63	N	1.094656	-0.833961	0.394671
N64	N	1.594656	-0.333961	0.894671
C65	C	1.165250	-0.866319	0.388575
C66	C	1.665250	-0.366319	0.888575
N67	N	1.235813	-0.833866	0.382454
N68	N	1.735813	-0.333866	0.882454
N69	N	1.235780	-0.771408	0.382441
N70	N	1.735780	-0.271408	0.882441
C71	C	1.165187	-0.739529	0.388550
C72	C	1.665187	-0.239529	0.888550
C73	C	1.216898	-0.970465	0.337084
C74	C	1.716898	-0.470465	0.837084
C75	C	1.216937	-1.036208	0.337108
C76	C	1.716937	-0.536208	0.837108
C77	C	1.113743	-1.036218	0.440139
C78	C	1.613743	-0.536218	0.940139
C79	C	1.113712	-0.970476	0.440120
C80	C	1.613712	-0.470476	0.940120
C81	C	1.165288	-0.937603	0.388588
C82	C	1.665288	-0.437603	0.888588
C83	C	1.375484	-0.303254	0.388576
C84	C	1.875484	0.196746	0.888576
C85	C	1.465105	-0.303260	0.388593
C86	C	1.965105	0.196740	0.888593
C87	C	1.165228	-0.303195	0.598847
C88	C	1.665228	0.196805	1.098847
C89	C	1.165250	-0.303175	0.688468
C90	C	1.665250	0.196825	1.188468
C91	C	1.165303	-0.139051	0.388600
C92	C	1.665303	0.360949	0.888600
C93	C	1.165358	-0.069083	0.388627
C94	C	1.665358	0.430917	0.888627
C95	C	1.165169	-0.303243	0.179047
C96	C	1.665169	0.196757	0.679047
C97	C	1.165303	-0.303086	0.089426
C98	C	1.665303	0.196914	0.589426
C99	C	1.165287	-0.303104	1.016644
C100	C	1.665287	0.196896	1.516644
C101	C	1.165275	-0.303126	0.925335
C102	C	1.665275	0.196874	1.425335
C103	C	1.165269	-0.303140	0.852559
C104	C	1.665269	0.196860	1.352559
C105	C	1.165256	-0.303161	0.761244
C106	C	1.665256	0.196839	1.261244
H107	H	1.258764	-0.662124	0.295067
H108	H	1.758764	-0.162124	0.795067
C109	C	1.056750	-0.533484	0.496691
C110	C	1.556750	-0.033484	0.996691
C111	C	0.993445	-0.488356	0.461677
C112	C	1.493445	0.011644	0.961677
C113	C	0.936671	-0.452205	0.518334
C114	C	1.436671	0.047795	1.018334
C115	C	0.943202	-0.461182	0.610006
C116	C	1.443202	0.038818	1.110006
C117	C	1.006510	-0.506313	0.645024
C118	C	1.506510	-0.006313	1.145024
C119	C	1.063284	-0.542464	0.588367
C120	C	1.563284	-0.042464	1.088367
H121	H	0.988607	-0.481708	0.393812
H122	H	1.488607	0.018292	0.893812
H123	H	0.889806	-0.418796	0.492411
H124	H	1.389806	0.081204	0.992411
H125	H	0.901175	-0.434421	0.651947
H126	H	1.401175	0.065579	1.151947
H127	H	1.011348	-0.512961	0.712889
H128	H	1.511348	-0.012961	1.212889
H129	H	1.110149	-0.575873	0.614291
H130	H	1.610149	-0.075873	1.114291
H131	H	1.071557	-0.662150	0.481994
H132	H	1.571557	-0.162150	0.981994
C133	C	1.273710	-1.072357	0.280449
C134	C	1.773710	-0.572357	0.780449
C135	C	1.330440	-1.036195	0.223771
C136	C	1.830440	-0.536195	0.723771
C137	C	1.387214	-1.072345	0.167114
C138	C	1.887214	-0.572345	0.667114
C139	C	1.387259	-1.144658	0.167134
C140	C	1.887259	-0.644658	0.667134
C141	C	1.330527	-1.180825	0.223814
C142	C	1.830527	-0.680825	0.723814
C143	C	1.273752	-1.144674	0.280472
C144	C	1.773752	-0.644674	0.780472
H145	H	1.330408	-0.982661	0.223754
H146	H	1.830408	-0.482661	0.723754
H147	H	1.429211	-1.045572	0.125155
H148	H	1.929211	-0.545572	0.625155
H149	H	1.429287	-1.171418	0.125193
H150	H	1.929287	-0.671418	0.625193
H151	H	1.330558	-1.234358	0.223831
H152	H	1.830558	-0.734358	0.723831
H153	H	1.231755	-1.171448	0.322430
H154	H	1.731755	-0.671448	0.822430
H155	H	1.258897	-0.943698	0.295126
H156	H	1.758897	-0.443698	0.795126
C157	C	1.057002	-1.072378	0.496808
C158	C	1.557002	-0.572378	0.996808
C159	C	1.057031	-1.144690	0.496826
C160	C	1.557031	-0.644690	0.996826
C161	C	1.000289	-1.180853	0.553498
C162	C	1.500289	-0.680853	1.053498
C163	C	0.943518	-1.144703	0.610153
C164	C	1.443518	-0.644703	1.110153
C165	C	0.943487	-1.072386	0.610138
C166	C	1.443487	-0.572386	1.110138
C167	C	1.000229	-1.036223	0.553465
C168	C	1.500229	-0.536223	1.053465
H169	H	1.099058	-1.171454	0.454885
H170	H	1.599058	-0.671454	0.954885
H171	H	1.000312	-1.234387	0.553510
H172	H	1.500312	-0.734387	1.053510
H173	H	0.901514	-1.171473	0.652105
H174	H	1.401514	-0.671473	1.152105
H175	H	0.901460	-1.045622	0.652079
H176	H	1.401460	-0.545622	1.152079
H177	H	1.000206	-0.982690	0.553454
H178	H	1.500206	-0.482690	1.053454
H179	H	1.071688	-0.943719	0.482059
H180	H	1.571688	-0.443719	0.982059
H181	H	1.258700	-0.542859	0.295035
H182	H	1.758700	-0.042859	0.795035
