data_functionalizedCrystal
_audit_creation_method	'MofGen! by Chris Wilmer'
_symmetry_space_group_name_H-M	'P1'
_symmetry_Int_Tables_number	1
_symmetry_cell_setting	triclinic
loop_
_symmetry_equiv_pos_as_xyz
  x,y,z
_cell_length_a	8.140239
_cell_length_b	14.971486
_cell_length_c	14.971486
_cell_angle_alpha	83.614129
_cell_angle_beta	89.996272
_cell_angle_gamma	90.002234
loop_
_atom_site_label
_atom_site_type_symbol
_atom_site_fract_x
_atom_site_fract_y
_atom_site_fract_z
O1	O	0.136425	-1.186943	-0.116561
O2	O	0.136470	-0.926542	-0.130520
O3	O	0.136435	-1.063722	0.006659
O4	O	0.136461	-1.049763	-0.253741
O5	O	-0.136792	-1.063714	0.006661
O6	O	-0.136757	-0.926535	-0.130519
O7	O	-0.136802	-1.186935	-0.116560
Zn8	Zn	-0.180160	-1.056734	-0.123539
Zn9	Zn	0.179828	-1.056744	-0.123541
O10	O	-0.136766	-1.049756	-0.253739
C11	C	-0.000138	-0.893214	-0.129895
C12	C	-0.000121	-0.793917	-0.128024
C13	C	-0.000178	-1.063094	0.039985
C14	C	-0.000176	-1.061223	0.139282
N15	N	-0.425843	-1.056733	-0.123537
N16	N	0.425511	-1.056751	-0.123536
C17	C	-0.000190	-1.220263	-0.117185
C18	C	-0.000196	-1.319561	-0.119056
C19	C	-0.000115	-0.736692	-0.208614
C20	C	-0.000140	-0.643392	-0.206850
C21	C	-0.000159	-0.607320	-0.124497
C22	C	-0.000169	-0.664552	-0.043902
C23	C	-0.000156	-0.757850	-0.045666
C24	C	-0.000192	-0.470090	-0.040231
C25	C	-0.000202	-0.376786	-0.038466
C26	C	-0.000176	-0.355632	-0.201415
C27	C	-0.000163	-0.448930	-0.203179
C28	C	-0.000170	-0.506156	-0.122584
C29	C	-0.000150	-1.050384	-0.287065
C30	C	-0.000141	-1.052254	-0.386362
C31	C	-0.000191	-1.141812	0.196507
C32	C	-0.000175	-1.140049	0.289807
C33	C	-0.000154	-1.057696	0.325879
C34	C	-0.000134	-0.977101	0.268646
C35	C	-0.000139	-0.978865	0.175349
C36	C	-0.000128	-0.973430	0.463109
C37	C	-0.000126	-0.971665	0.556413
C38	C	-0.000163	-1.134614	0.577567
C39	C	-0.000168	-1.136378	0.484269
C40	C	-0.000151	-1.055782	0.427043
H41	H	-0.000099	-0.766054	-0.275675
H42	H	-0.000133	-0.596802	-0.272474
Cl43	Cl	-0.000234	-1.245348	0.151169
Cl44	Cl	-0.000106	-0.872107	0.391168
H45	H	-0.000177	-0.309033	-0.267039
Cl46	Cl	-0.000198	-1.241366	0.361744
Cl47	Cl	-0.000185	-1.239909	0.438922
Cl48	Cl	-0.000203	-0.619204	0.059629
Cl49	Cl	-0.000089	-0.873570	0.313995
Cl50	Cl	-0.000122	-0.494276	-0.306711
Cl51	Cl	-0.000114	-0.877548	0.103407
H52	H	-0.000219	-0.347419	0.028593
Cl53	Cl	-0.000175	-1.235935	0.649508
Cl54	Cl	-0.000102	-0.868134	0.601760
H55	H	-0.000201	-0.516682	0.025399
H56	H	-0.000160	-0.804443	0.019958
