data_functionalizedCrystal
_audit_creation_method	'MofGen! by Chris Wilmer'
_symmetry_space_group_name_H-M	'P1'
_symmetry_Int_Tables_number	1
_symmetry_cell_setting	triclinic
loop_
_symmetry_equiv_pos_as_xyz
  x,y,z
_cell_length_a	16.992694
_cell_length_b	17.038272
_cell_length_c	16.053802
_cell_angle_alpha	92.751609
_cell_angle_beta	87.249047
_cell_angle_gamma	90.889890
loop_
_atom_site_label
_atom_site_type_symbol
_atom_site_fract_x
_atom_site_fract_y
_atom_site_fract_z
O1	O	1.054593	0.163385	-0.069325
O2	O	0.826187	0.161558	-0.069350
O3	O	0.939032	0.048571	-0.069331
O4	O	0.941748	0.276372	-0.069344
O5	O	0.932819	0.054763	0.069527
O6	O	0.819974	0.167750	0.069508
O7	O	1.048380	0.169577	0.069533
Zn8	Zn	0.933190	0.169646	0.091567
Zn9	Zn	0.941376	0.161489	-0.091384
O10	O	0.935535	0.282564	0.069514
C11	C	0.793711	0.162304	0.000076
C12	C	0.706200	0.155293	0.000067
C13	C	0.660472	0.222933	0.000064
C14	C	0.578245	0.216342	0.000076
C15	C	0.541748	0.142110	0.000085
C16	C	0.587482	0.074465	0.000091
C17	C	0.669707	0.081057	0.000085
C18	C	0.296327	0.114789	0.000109
C19	C	0.214096	0.108201	0.000112
C20	C	0.204864	0.250079	0.000099
C21	C	0.287091	0.256665	0.000088
C22	C	0.332818	0.189020	0.000098
N23	N	0.457699	0.135371	0.000094
N24	N	0.416865	0.195760	0.000095
C25	C	0.933456	0.022384	0.000098
C26	C	0.926089	-0.064871	0.000097
C27	C	0.993729	-0.110741	0.000105
C28	C	0.986802	-0.192727	0.000096
C29	C	0.912235	-0.228840	0.000085
C30	C	0.844590	-0.182964	0.000075
C31	C	0.851518	-0.100981	0.000077
C32	C	0.887761	-0.476135	0.000071
C33	C	0.880838	-0.558124	0.000071
C34	C	1.023051	-0.567881	0.000091
C35	C	1.029972	-0.485895	0.000099
C36	C	0.962328	-0.440026	0.000084
C37	C	0.905153	-0.312643	0.000079
C38	C	0.969410	-0.356226	0.000084
C39	C	1.080856	0.168831	0.000105
C40	C	1.168367	0.175841	0.000109
C41	C	0.941111	0.308751	0.000084
C42	C	0.948478	0.396006	0.000079
N43	N	0.927609	0.175214	0.216427
N44	N	0.946963	0.155915	-0.216243
C45	C	0.975645	0.127157	0.260129
C46	C	0.971749	0.131060	0.347535
C47	C	0.919820	0.183023	0.391237
C48	C	0.871779	0.231082	0.347529
C49	C	0.875672	0.227175	0.260125
C50	C	0.902815	0.200067	0.652644
C51	C	0.898928	0.203972	0.740055
C52	C	0.998897	0.103948	0.740054
C53	C	1.002788	0.100050	0.652648
C54	C	0.954744	0.148105	0.608948
N55	N	0.915838	0.187015	0.480580
N56	N	0.958723	0.144109	0.519606
H57	H	0.541016	0.271422	0.000072
O58	O	0.322413	0.328836	0.000121
C59	C	0.264420	0.387125	0.000100
H60	H	0.205988	0.362804	0.026394
H61	H	0.283151	0.440440	0.040410
H62	H	0.257226	0.405265	-0.066518
O63	O	0.856270	0.246794	0.610114
C64	C	0.903921	0.295645	0.559561
H65	H	0.964027	0.267667	0.546453
H66	H	0.874618	0.303260	0.498105
H67	H	0.911649	0.355509	0.593244
O68	O	1.088678	-0.612556	0.000061
C69	C	1.066578	-0.692660	0.000077
H70	H	1.005699	-0.700835	-0.026216
H71	H	1.111160	-0.728729	-0.040235
H72	H	1.065005	-0.713192	0.066694
H73	H	0.844440	-0.342056	0.000072
H74	H	1.038011	0.064823	0.775643
O75	O	0.848588	0.254536	0.782542
C76	C	0.891727	0.307886	0.833099
H77	H	0.955082	0.311956	0.806748
H78	H	0.863712	0.368307	0.834082
H79	H	0.891270	0.286537	0.899346
O80	O	1.052933	0.049214	0.610294
C81	C	1.009486	-0.004124	0.560034
H82	H	0.950725	0.022961	0.546763
H83	H	1.044208	-0.017714	0.498642
H84	H	0.998395	-0.060750	0.594054
H85	H	0.836555	0.266306	0.224543
H86	H	0.829494	0.273389	0.383117
O87	O	0.808342	-0.593082	0.000015
C88	C	0.750120	-0.535018	0.000019
H89	H	0.777079	-0.479176	-0.026263
H90	H	0.700201	-0.557092	-0.040310
H91	H	0.726002	-0.521833	0.066630
O92	O	0.772107	-0.217947	0.000173
C93	C	0.727329	-0.191755	0.072093
H94	H	0.751505	-0.132551	0.096073
H95	H	0.663243	-0.185203	0.055908
H96	H	0.731030	-0.236331	0.122451
H97	H	0.184383	0.047750	0.000119
O98	O	0.695793	0.295105	0.000091
C99	C	0.637796	0.353391	0.000071
H100	H	0.579366	0.329066	0.026366
H101	H	0.656525	0.406707	0.040380
H102	H	0.630601	0.371530	-0.066547
H103	H	0.333548	0.059707	0.000118
O104	O	1.066226	-0.075791	0.000076
C105	C	1.124439	-0.133862	0.000100
H106	H	1.099829	-0.192042	-0.026191
H107	H	1.177974	-0.115384	-0.040212
H108	H	1.142588	-0.141115	0.066718
H109	H	0.167624	0.305152	0.000092
O110	O	0.551907	0.002414	0.000064
C111	C	0.469526	0.011099	0.000087
H112	H	0.455499	0.069990	-0.026206
H113	H	0.443025	-0.038509	-0.040222
H114	H	0.443440	0.008838	0.066706
H115	H	1.090692	-0.456497	0.000108
O116	O	1.026001	0.076553	0.217736
C117	C	1.007059	-0.001006	0.239154
H118	H	0.942918	-0.004269	0.263176
H119	H	1.016052	-0.042429	0.181697
H120	H	1.046888	-0.019037	0.289905
O121	O	0.714015	0.015270	0.000046
C122	C	0.664172	-0.051662	0.000074
H123	H	0.605377	-0.036738	-0.026212
H124	H	0.692958	-0.101169	-0.040238
H125	H	0.653877	-0.071204	0.066693
H126	H	1.041882	-0.230071	0.000105
H127	H	1.010863	0.091928	0.383116
H128	H	0.832680	-0.438798	0.000059
H129	H	0.796438	-0.063634	0.000071
H130	H	1.030124	-0.326819	0.000074
