data_functionalizedCrystal
_audit_creation_method	'MofGen! by Chris Wilmer'
_symmetry_space_group_name_H-M	'P1'
_symmetry_Int_Tables_number	1
_symmetry_cell_setting	triclinic
loop_
_symmetry_equiv_pos_as_xyz
  x,y,z
_cell_length_a	14.044220
_cell_length_b	16.109301
_cell_length_c	15.186229
_cell_angle_alpha	90.013398
_cell_angle_beta	90.002347
_cell_angle_gamma	88.325179
loop_
_atom_site_label
_atom_site_type_symbol
_atom_site_fract_x
_atom_site_fract_y
_atom_site_fract_z
O1	O	-1.257648	-0.200445	-0.073140
O2	O	-0.924315	0.132888	0.260193
O3	O	-0.590982	0.466221	0.593526
O4	O	-0.981681	-0.193213	-0.073163
O5	O	-0.648348	0.140121	0.260171
O6	O	-0.315015	0.473454	0.593504
O7	O	-1.127246	-0.076362	-0.073142
O8	O	-0.793913	0.256971	0.260191
O9	O	-0.460579	0.590305	0.593525
O10	O	-1.112084	-0.317296	-0.073161
O11	O	-0.778750	0.016037	0.260172
O12	O	-0.445417	0.349371	0.593506
O13	O	-1.127226	-0.076340	0.073315
O14	O	-0.793893	0.256993	0.406649
O15	O	-0.460559	0.590327	0.739982
O16	O	-0.981662	-0.193191	0.073295
O17	O	-0.648328	0.140143	0.406628
O18	O	-0.314995	0.473476	0.739961
O19	O	-1.257629	-0.200423	0.073317
O20	O	-0.924295	0.132910	0.406650
O21	O	-0.590962	0.466243	0.739984
Zn22	Zn	-1.119642	-0.196803	0.096559
Zn23	Zn	-0.786309	0.136530	0.429892
Zn24	Zn	-0.452975	0.469863	0.763226
Zn25	Zn	-1.119668	-0.196833	-0.096405
Zn26	Zn	-0.786335	0.136501	0.236929
Zn27	Zn	-0.453001	0.469834	0.570262
O28	O	-1.112064	-0.317274	0.073296
O29	O	-0.778731	0.016059	0.406630
O30	O	-0.445397	0.349393	0.739963
C31	C	-1.126622	-0.045330	0.000087
C32	C	-0.793289	0.288003	0.333420
C33	C	-0.459955	0.621336	0.666754
C34	C	-1.124780	0.047102	0.000088
C35	C	-0.791447	0.380435	0.333422
C36	C	-0.458114	0.713769	0.666755
C37	C	-0.946358	-0.190036	0.000063
C38	C	-0.613025	0.143298	0.333397
C39	C	-0.279691	0.476631	0.666730
C40	C	-0.841135	-0.180592	0.000055
C41	C	-0.507802	0.152742	0.333389
C42	C	-0.174468	0.486075	0.666722
C43	C	-1.292952	-0.203600	0.000089
C44	C	-0.959619	0.129733	0.333422
C45	C	-0.626285	0.463066	0.666756
C46	C	-1.398175	-0.213044	0.000091
C47	C	-1.064841	0.120289	0.333425
C48	C	-0.731508	0.453622	0.666758
C49	C	-0.648479	-0.163326	0.000074
C50	C	-0.315146	0.170007	0.333407
C51	C	0.018188	0.503340	0.666741
C52	C	-0.590825	-0.230306	0.000072
C53	C	-0.257492	0.103028	0.333406
C54	C	0.075841	0.436361	0.666739
C55	C	-0.483625	-0.220699	0.000083
C56	C	-0.150291	0.112634	0.333416
C57	C	0.183042	0.445968	0.666750
C58	C	-0.755690	-0.172932	0.000064
C59	C	-0.422356	0.160402	0.333397
C60	C	-0.089023	0.493735	0.666730
C61	C	-1.112688	-0.348305	0.000065
C62	C	-0.779355	-0.014972	0.333399
C63	C	-0.446021	0.318361	0.666732
C64	C	-1.114529	-0.440738	0.000058
C65	C	-0.781196	-0.107404	0.333392
C66	C	-0.447863	0.225929	0.666725
N67	N	-1.119631	-0.196784	0.228252
N68	N	-0.786298	0.136550	0.561585
N69	N	-0.452964	0.469883	0.894918
C70	C	-1.206874	0.263266	0.000081
C71	C	-0.873541	0.596600	0.333414
C72	C	-0.540207	0.929933	0.666748
C73	C	-1.205137	0.350116	0.000073
C74	C	-0.871803	0.683449	0.333407
C75	C	-0.538470	1.016783	0.666740
C76	C	-1.032429	0.343091	0.000063
C77	C	-0.699096	0.676425	0.333396
C78	C	-0.365763	1.009758	0.666730
C79	C	-1.034168	0.256243	0.000064
C80	C	-0.700834	0.589577	0.333398
C81	C	-0.367501	0.922910	0.666731
C82	C	-1.121393	0.216333	0.000078
C83	C	-0.788060	0.549666	0.333411
C84	C	-0.454726	0.883000	0.666744
C85	C	-1.117917	0.390031	0.000069
C86	C	-0.784584	0.723364	0.333402
C87	C	-0.451250	1.056698	0.666736
C88	C	-1.116032	0.484197	0.000061
C89	C	-0.782699	0.817530	0.333394
C90	C	-0.449366	1.150864	0.666728
C91	C	-1.123278	0.122161	0.000084
C92	C	-0.789945	0.455494	0.333417
C93	C	-0.456611	0.788828	0.666751
N94	N	-1.119686	-0.196846	-0.228097
N95	N	-0.786353	0.136487	0.105236
N96	N	-0.453020	0.469820	0.438569
C97	C	-1.062193	-0.142107	0.546203
C98	C	-0.728860	0.191226	0.879537
C99	C	-0.395527	0.524559	1.212870
C100	C	-1.062185	-0.142095	0.454014
C101	C	-0.728852	0.191239	0.787347
C102	C	-0.395519	0.524572	1.120680
C103	C	-1.177131	-0.251525	0.453958
C104	C	-0.843797	0.081808	0.787291
C105	C	-0.510464	0.415141	1.120624
C106	C	-1.177143	-0.251533	0.546146
C107	C	-0.843810	0.081800	0.879479
C108	C	-0.510476	0.415134	1.212812
C109	C	-1.119669	-0.196825	0.592266
C110	C	-0.786336	0.136508	0.925599
C111	C	-0.453002	0.469841	1.258933
C112	C	-1.119648	-0.196805	0.407888
C113	C	-0.786315	0.136529	0.741222
C114	C	-0.452982	0.469862	1.074555
C115	C	-1.119640	-0.196791	0.307932
C116	C	-0.786307	0.136542	0.641266
C117	C	-0.452973	0.469875	0.974599
C118	C	-1.119678	-0.196837	0.692228
C119	C	-0.786345	0.136496	1.025562
C120	C	-0.453012	0.469829	1.358895
H121	H	-0.621976	-0.294863	0.000063
H122	H	-0.288643	0.038470	0.333396
H123	H	0.044690	0.371803	0.666730
N124	N	-0.609393	-0.082349	0.000087
N125	N	-0.276060	0.250984	0.333420
N126	N	0.057273	0.584318	0.666754
N127	N	-0.521100	-0.074564	0.000094
N128	N	-0.187767	0.258770	0.333428
N129	N	0.145567	0.592103	0.666761
H130	H	-0.493484	-0.017374	0.000101
H131	H	-0.160151	0.315959	0.333434
H132	H	0.173183	0.649292	0.666768
H133	H	-0.964554	0.218029	0.000059
H134	H	-0.631221	0.551362	0.333392
H135	H	-0.297888	0.884695	0.666726
N136	N	-1.235854	-0.307444	0.593186
N137	N	-0.902521	0.025889	0.926520
N138	N	-0.569188	0.359222	1.259853
N139	N	-1.224481	-0.384076	0.582863
N140	N	-0.891147	-0.050743	0.916196
N141	N	-0.557814	0.282590	1.249529
H142	H	-1.265946	-0.423562	0.616083
H143	H	-0.932612	-0.090229	0.949416
H144	H	-0.599279	0.243105	1.282750
H145	H	-1.015395	-0.097560	0.583752
H146	H	-0.682062	0.235773	0.917085
H147	H	-0.348728	0.569107	1.250418
N148	N	-1.295968	0.222497	0.000105
N149	N	-0.962635	0.555831	0.333439
N150	N	-0.629301	0.889164	0.666772
N151	N	-1.353585	0.234564	0.061845
N152	N	-1.020252	0.567897	0.395179
N153	N	-0.686919	0.901230	0.728512
H154	H	-1.416511	0.205772	0.061863
H155	H	-1.083177	0.539105	0.395196
H156	H	-0.749844	0.872439	0.728529
H157	H	-1.274744	0.388326	0.000074
H158	H	-0.941411	0.721659	0.333408
H159	H	-0.608077	1.054992	0.666741
H160	H	-0.961413	0.375597	0.000054
H161	H	-0.628080	0.708930	0.333387
H162	H	-0.294747	1.042263	0.666721
H163	H	-1.015384	-0.097537	0.416513
H164	H	-0.682051	0.235796	0.749847
H165	H	-0.348717	0.569130	1.083180
H166	H	-1.223923	-0.296067	0.416395
H167	H	-0.890589	0.037266	0.749728
H168	H	-0.557256	0.370599	1.083062
