data_functionalizedCrystal
_audit_creation_method	'MofGen! by Chris Wilmer'
_symmetry_space_group_name_H-M	'P1'
_symmetry_Int_Tables_number	1
_symmetry_cell_setting	triclinic
loop_
_symmetry_equiv_pos_as_xyz
  x,y,z
_cell_length_a	17.019282
_cell_length_b	27.732048
_cell_length_c	15.500227
_cell_angle_alpha	92.799543
_cell_angle_beta	91.034464
_cell_angle_gamma	83.017024
loop_
_atom_site_label
_atom_site_type_symbol
_atom_site_fract_x
_atom_site_fract_y
_atom_site_fract_z
O1	O	1.045624	0.061734	0.005975
O2	O	1.378957	0.395067	0.339308
O3	O	1.712290	0.728401	0.672642
O4	O	0.816739	0.069061	-0.011086
O5	O	1.150072	0.402395	0.322247
O6	O	1.483406	0.735728	0.655580
O7	O	0.938289	-0.004955	-0.002009
O8	O	1.271622	0.328379	0.331324
O9	O	1.604956	0.661712	0.664657
O10	O	0.924073	0.135750	-0.003102
O11	O	1.257407	0.469083	0.330231
O12	O	1.590740	0.802416	0.663565
O13	O	0.930913	-0.000481	0.141328
O14	O	1.264247	0.332853	0.474662
O15	O	1.597580	0.666186	0.807995
O16	O	0.809363	0.073535	0.132252
O17	O	1.142697	0.406868	0.465585
O18	O	1.476030	0.740202	0.798918
O19	O	1.038248	0.066208	0.149313
O20	O	1.371581	0.399541	0.482646
O21	O	1.704914	0.732874	0.815979
Cu22	Cu	0.923132	0.070280	0.153870
Cu23	Cu	1.256465	0.403613	0.487203
Cu24	Cu	1.589799	0.736947	0.820537
Cu25	Cu	0.931855	0.064989	-0.015644
Cu26	Cu	1.265188	0.398322	0.317690
Cu27	Cu	1.598521	0.731656	0.651023
O28	O	0.916698	0.140224	0.140236
O29	O	1.250031	0.473557	0.473569
O30	O	1.583364	0.806890	0.806903
C31	C	0.783778	0.070933	0.058401
C32	C	1.117111	0.404267	0.391734
C33	C	1.450444	0.737600	0.725067
C34	C	0.696552	0.069840	0.051900
C35	C	1.029886	0.403173	0.385233
C36	C	1.363219	0.736507	0.718566
C37	C	0.651558	0.071764	0.126981
C38	C	0.984891	0.405097	0.460314
C39	C	1.318224	0.738431	0.793648
C40	C	0.569602	0.070729	0.120875
C41	C	0.902935	0.404062	0.454208
C42	C	1.236268	0.737396	0.787542
C43	C	0.532641	0.067774	0.039687
C44	C	0.865974	0.401107	0.373020
C45	C	1.199308	0.734441	0.706354
C46	C	0.577642	0.065848	-0.035400
C47	C	0.910975	0.399182	0.297933
C48	C	1.244309	0.732515	0.631267
C49	C	0.659597	0.066880	-0.029293
C50	C	0.992931	0.400213	0.304040
C51	C	1.326264	0.733546	0.637373
C52	C	0.285391	0.064535	0.017339
C53	C	0.618724	0.397868	0.350673
C54	C	0.952058	0.731201	0.684006
C55	C	0.203429	0.063505	0.011238
C56	C	0.536763	0.396838	0.344571
C57	C	0.870096	0.730171	0.677905
C58	C	0.195395	0.068385	0.167514
C59	C	0.528728	0.401718	0.500847
C60	C	0.862062	0.735051	0.834180
C61	C	0.277352	0.069419	0.173613
C62	C	0.610685	0.402752	0.506947
C63	C	0.944018	0.736086	0.840280
C64	C	0.322346	0.067491	0.098527
C65	C	0.655679	0.400824	0.431860
C66	C	0.989012	0.734157	0.765193
C67	C	0.448869	0.066718	0.033444
C68	C	0.782202	0.400051	0.366777
C69	C	1.115535	0.733384	0.700110
C70	C	0.406117	0.068544	0.104771
C71	C	0.739451	0.401877	0.438104
C72	C	1.072784	0.735210	0.771437
C73	C	0.934303	-0.020726	0.069640
C74	C	1.267636	0.312607	0.402973
C75	C	1.600969	0.645940	0.736306
C76	C	0.933404	-0.074387	0.069580
C77	C	1.266737	0.258947	0.402913
C78	C	1.600070	0.592280	0.736246
C79	C	0.999577	-0.412793	0.074468
C80	C	1.332910	-0.079460	0.407801
C81	C	1.666244	0.253874	0.741135
C82	C	0.996243	-0.614474	0.074207
C83	C	1.329577	-0.281140	0.407541
C84	C	1.662910	0.052193	0.740874
O85	O	1.056754	-0.645356	0.078680
O86	O	1.390087	-0.312022	0.412013
O87	O	1.723421	0.021311	0.745347
N88	N	0.924169	-0.634044	0.068836
N89	N	1.257502	-0.300711	0.402169
N90	N	1.590835	0.032623	0.735502
C91	C	0.852923	-0.603191	0.063523
C92	C	1.186256	-0.269857	0.396856
C93	C	1.519589	0.063476	0.730190
O94	O	0.791543	-0.624464	0.058939
O95	O	1.124876	-0.291131	0.392273
O96	O	1.458209	0.042202	0.725606
C97	C	0.856257	-0.401511	0.063778
C98	C	1.189591	-0.068178	0.397111
C99	C	1.522924	0.265155	0.730444
C100	C	0.928336	-0.381944	0.069158
C101	C	1.261670	-0.048610	0.402492
C102	C	1.595003	0.284723	0.735825
C103	C	1.071650	-0.393225	0.079847
C104	C	1.404983	-0.059892	0.413181
C105	C	1.738317	0.273442	0.746514
C106	C	1.072483	-0.342808	0.079917
C107	C	1.405816	-0.009474	0.413250
C108	C	1.739149	0.323859	0.746584
C109	C	1.001242	-0.311958	0.074607
C110	C	1.334575	0.021375	0.407941
C111	C	1.667908	0.354708	0.741274
C112	C	0.929169	-0.331526	0.069228
C113	C	1.262502	0.001807	0.402561
C114	C	1.595835	0.335140	0.735895
C115	C	0.785012	-0.370659	0.058459
C116	C	1.118346	-0.037326	0.391792
C117	C	1.451679	0.296007	0.725126
C118	C	0.785853	-0.320237	0.058521
C119	C	1.119186	0.013096	0.391854
C120	C	1.452519	0.346430	0.725187
C121	C	0.857932	-0.300669	0.063902
C122	C	1.191265	0.032664	0.397235
C123	C	1.524598	0.365997	0.730568
C124	C	0.858760	-0.250260	0.063988
C125	C	1.192094	0.083074	0.397322
C126	C	1.525427	0.416407	0.730655
N127	N	0.930835	-0.230690	0.069360
N128	N	1.264168	0.102644	0.402693
N129	N	1.597502	0.435977	0.736027
C130	C	1.002076	-0.261539	0.074670
C131	C	1.335409	0.071795	0.408003
C132	C	1.668742	0.405128	0.741336
C133	C	0.851177	-0.709076	0.063392
C134	C	1.184510	-0.375742	0.396725
C135	C	1.517843	-0.042409	0.730058
C136	C	0.850343	-0.759495	0.063330
C137	C	1.183676	-0.426162	0.396663
C138	C	1.517009	-0.092829	0.729996
C139	C	0.993664	-0.770775	0.074012
C140	C	1.326997	-0.437442	0.407346
C141	C	1.660331	-0.104108	0.740679
C142	C	0.994497	-0.720354	0.074080
C143	C	1.327830	-0.387021	0.407414
C144	C	1.661164	-0.053687	0.740747
C145	C	0.923251	-0.689506	0.068763
C146	C	1.256585	-0.356172	0.402097
C147	C	1.589918	-0.022839	0.735430
C148	C	1.003818	-0.155658	0.074816
C149	C	1.337152	0.177675	0.408150
C150	C	1.670485	0.511008	0.741483
C151	C	1.004644	-0.105236	0.074889
C152	C	1.337978	0.228097	0.408223
C153	C	1.671311	0.561431	0.741556
C154	C	0.861324	-0.093961	0.064202
C155	C	1.194657	0.239372	0.397535
C156	C	1.527991	0.572706	0.730869
C157	C	0.860497	-0.144379	0.064134
C158	C	1.193831	0.188955	0.397467
C159	C	1.527164	0.522288	0.730800
C160	C	0.931751	-0.175227	0.069439
C161	C	1.265084	0.158107	0.402772
C162	C	1.598418	0.491440	0.736105
O163	O	0.798283	-0.219350	0.059508
O164	O	1.131616	0.113984	0.392842
O165	O	1.464949	0.447317	0.726175
O166	O	1.063448	-0.240256	0.079234
O167	O	1.396781	0.093077	0.412567
O168	O	1.730115	0.426410	0.745900
C169	C	0.998745	-0.463210	0.074398
C170	C	1.332078	-0.129877	0.407731
C171	C	1.665411	0.203456	0.741065
C172	C	0.926672	-0.482778	0.069019
C173	C	1.260005	-0.149445	0.402352
C174	C	1.593338	0.183888	0.735685
C175	C	0.855431	-0.451929	0.063709
C176	C	1.188764	-0.118596	0.397043
C177	C	1.522097	0.214737	0.730376
C178	C	0.925838	-0.533198	0.068957
C179	C	1.259171	-0.199865	0.402290
C180	C	1.592504	0.133469	0.735623
C181	C	0.997078	-0.564047	0.074266
C182	C	1.330412	-0.230714	0.407600
C183	C	1.663745	0.102619	0.740933
C184	C	1.069153	-0.544477	0.079638
C185	C	1.402486	-0.211144	0.412971
C186	C	1.735820	0.122190	0.746305
C187	C	1.069985	-0.494060	0.079708
C188	C	1.403319	-0.160726	0.413041
C189	C	1.736652	0.172607	0.746374
C190	C	0.783356	-0.471499	0.058338
C191	C	1.116689	-0.138166	0.391671
C192	C	1.450023	0.195167	0.725004
C193	C	0.782529	-0.521917	0.058269
C194	C	1.115863	-0.188584	0.391602
C195	C	1.449196	0.144749	0.724936
C196	C	0.853770	-0.552767	0.063579
C197	C	1.187104	-0.219433	0.396912
C198	C	1.520437	0.113900	0.730245
C199	C	1.071209	0.064336	0.079824
C200	C	1.404542	0.397669	0.413157
C201	C	1.737876	0.731002	0.746490
C202	C	1.158435	0.065429	0.086319
C203	C	1.491768	0.398762	0.419653
C204	C	1.825102	0.732095	0.752986
C205	C	0.920684	0.155995	0.068585
C206	C	1.254018	0.489329	0.401918
C207	C	1.587351	0.822662	0.735252
C208	C	0.921584	0.209655	0.068639
C209	C	1.254917	0.542989	0.401972
C210	C	1.588250	0.876322	0.735306
N211	N	0.917003	0.074001	0.273097
N212	N	1.250336	0.407334	0.606431
N213	N	1.583669	0.740668	0.939764
N214	N	0.937990	0.061264	-0.134870
N215	N	1.271324	0.394598	0.198463
N216	N	1.604657	0.727931	0.531796
C217	C	0.968525	0.042649	0.322221
C218	C	1.301859	0.375983	0.655555
C219	C	1.635192	0.709316	0.988888
C220	C	0.963897	0.045468	0.412449
C221	C	1.297230	0.378801	0.745782
C222	C	1.630564	0.712135	1.079115
C223	C	0.907749	0.079641	0.453550
C224	C	1.241083	0.412974	0.786884
C225	C	1.574416	0.746307	1.120217
C226	C	0.856221	0.110994	0.404419
C227	C	1.189554	0.444327	0.737753
C228	C	1.522888	0.777660	1.071086
C229	C	0.860846	0.108172	0.314194
C230	C	1.194180	0.441506	0.647527
C231	C	1.527513	0.774839	0.980860
C232	C	0.891087	0.089796	0.725773
C233	C	1.224421	0.423129	1.059106
C234	C	1.557754	0.756463	1.392440
C235	C	0.886468	0.092616	0.816005
C236	C	1.219801	0.425949	1.149339
C237	C	1.553134	0.759282	1.482672
C238	C	0.994143	0.027089	0.824028
C239	C	1.327476	0.360423	1.157362
C240	C	1.660810	0.693756	1.490695
C241	C	0.998766	0.024273	0.733801
C242	C	1.332100	0.357606	1.067134
C243	C	1.665433	0.690940	1.400467
C244	C	0.947236	0.055624	0.684678
C245	C	1.280569	0.388957	1.018011
C246	C	1.613902	0.722291	1.351344
C247	C	0.903019	0.082524	0.545777
C248	C	1.236352	0.415857	0.879110
C249	C	1.569685	0.749190	1.212444
C250	C	0.951963	0.052739	0.592452
C251	C	1.285296	0.386072	0.925786
C252	C	1.618630	0.719405	1.259119
H253	H	1.063342	-0.089307	0.079273
H254	H	1.396675	0.244026	0.412607
H255	H	1.730009	0.577360	0.745940
H256	H	1.051671	-0.795901	0.078336
H257	H	1.385004	-0.462568	0.411669
H258	H	1.718338	-0.129234	0.745003
F259	F	1.079655	-0.188482	0.080462
F260	F	1.412988	0.144851	0.413795
F261	F	1.746322	0.478184	0.747129
H262	H	0.818890	0.133701	0.274197
H263	H	1.152224	0.467035	0.607530
H264	H	1.485557	0.800368	0.940864
H265	H	1.129666	-0.418338	0.084168
H266	H	1.463000	-0.085005	0.417501
H267	H	1.796333	0.248328	0.750835
H268	H	0.532972	0.072288	0.182014
H269	H	0.866306	0.405621	0.515348
H270	H	1.199639	0.738954	0.848681
H271	H	0.997676	0.024913	0.558985
H272	H	1.331009	0.358247	0.892318
H273	H	1.664343	0.691580	1.225651
F274	F	0.836247	0.123163	0.673500
F275	F	1.169581	0.456496	1.006833
F276	F	1.502914	0.789830	1.340166
H277	H	1.044486	-0.003553	0.700338
H278	H	1.377820	0.329780	1.033671
H279	H	1.711153	0.663114	1.367005
F280	F	0.164095	0.060361	-0.075178
F281	F	0.497428	0.393694	0.258156
F282	F	0.830762	0.727027	0.591489
H283	H	0.810500	0.138816	0.437889
H284	H	1.143834	0.472150	0.771223
H285	H	1.477167	0.805483	1.104556
H286	H	0.726318	-0.386582	0.054072
H287	H	1.059652	-0.053249	0.387405
H288	H	1.392985	0.280084	0.720739
F289	F	1.048980	-0.006276	0.876314
F290	F	1.382314	0.327058	1.209647
F291	F	1.715647	0.660391	1.542981
F292	F	1.144972	-0.577318	0.085293
F293	F	1.478306	-0.243985	0.418627
F294	F	1.811639	0.089349	0.751960
F295	F	0.826705	0.128990	0.859743
F296	F	1.160038	0.462324	1.193076
F297	F	1.493371	0.795657	1.526409
F298	F	0.785508	-0.061120	0.058552
F299	F	1.118842	0.272213	0.391885
F300	F	1.452175	0.605546	0.725219
H301	H	0.857303	0.110349	0.579249
H302	H	1.190637	0.443682	0.912583
H303	H	1.523970	0.777015	1.245916
H304	H	0.681644	0.074174	0.193093
H305	H	1.014977	0.407508	0.526426
H306	H	1.348311	0.740841	0.859760
H307	H	0.158752	0.069954	0.228645
H308	H	0.492086	0.403287	0.561978
H309	H	0.825419	0.736620	0.895312
F310	F	0.316681	0.072567	0.260025
F311	F	0.650014	0.405900	0.593358
F312	F	0.983348	0.739234	0.926691
H313	H	0.322016	0.062963	-0.043802
H314	H	0.655349	0.396296	0.289531
H315	H	0.988683	0.729630	0.622865
H316	H	0.547543	0.063439	-0.101505
H317	H	0.880876	0.396772	0.231828
H318	H	1.214210	0.730105	0.565162
F319	F	1.149200	-0.321990	0.085625
F320	F	1.482534	0.011344	0.418959
F321	F	1.815867	0.344677	0.752292
H322	H	0.696231	0.065314	-0.090433
H323	H	1.029564	0.398647	0.242901
H324	H	1.362898	0.731981	0.576234
H325	H	1.014250	0.014824	0.288763
H326	H	1.347583	0.348158	0.622096
H327	H	1.680917	0.681491	0.955430
H328	H	0.436215	0.070947	0.170874
H329	H	0.769548	0.404281	0.504207
H330	H	1.102882	0.737614	0.837540
H331	H	1.005850	0.019939	0.452445
H332	H	1.339184	0.353272	0.785779
H333	H	1.672517	0.686605	1.119112
H334	H	0.793157	-0.683963	0.059062
H335	H	1.126490	-0.350629	0.392395
H336	H	1.459823	-0.017296	0.725728
F337	F	0.409529	0.063555	-0.052960
F338	F	0.742862	0.396889	0.280373
F339	F	1.076196	0.730222	0.613706
H340	H	0.791648	-0.775422	0.058963
H341	H	1.124982	-0.442089	0.392296
H342	H	1.458315	-0.108755	0.725630
F343	F	1.071212	-0.699534	0.079807
F344	F	1.404545	-0.366200	0.413140
F345	F	1.737879	-0.032867	0.746474
H346	H	0.727835	-0.295122	0.054190
H347	H	1.061168	0.038212	0.387523
H348	H	1.394501	0.371545	0.720856
H349	H	0.801804	-0.160311	0.059776
H350	H	1.135137	0.173023	0.393110
H351	H	1.468470	0.506356	0.726443
H352	H	1.128679	-0.478133	0.084089
H353	H	1.462013	-0.144799	0.417422
H354	H	1.795346	0.188534	0.750756
H355	H	0.723829	-0.537844	0.053895
H356	H	1.057163	-0.204510	0.387228
H357	H	1.390496	0.128823	0.720561
H358	H	0.725342	-0.446386	0.054012
H359	H	1.058675	-0.113053	0.387345
H360	H	1.392009	0.220280	0.720678
