data_functionalizedCrystal
_audit_creation_method	'MofGen! by Chris Wilmer'
_symmetry_space_group_name_H-M	'P1'
_symmetry_Int_Tables_number	1
_symmetry_cell_setting	triclinic
loop_
_symmetry_equiv_pos_as_xyz
  x,y,z
_cell_length_a	16.974800
_cell_length_b	14.519731
_cell_length_c	15.455313
_cell_angle_alpha	92.669259
_cell_angle_beta	90.973911
_cell_angle_gamma	83.539176
loop_
_atom_site_label
_atom_site_type_symbol
_atom_site_fract_x
_atom_site_fract_y
_atom_site_fract_z
O1	O	1.049248	0.117561	0.001549
O2	O	1.549248	0.617561	0.501549
O3	O	0.819836	0.131644	-0.014563
O4	O	1.319836	0.631644	0.485437
O5	O	0.940615	-0.009630	-0.006073
O6	O	1.440615	0.490370	0.493927
O7	O	0.928469	0.258835	-0.006941
O8	O	1.428469	0.758835	0.493059
O9	O	0.933709	-0.001585	0.137704
O10	O	1.433709	0.498415	0.637704
O11	O	0.812929	0.139690	0.129214
O12	O	1.312929	0.639690	0.629214
O13	O	1.042341	0.125606	0.145326
O14	O	1.542341	0.625606	0.645326
Cu15	Cu	0.927005	0.133383	0.150397
Cu16	Cu	1.427005	0.633383	0.650397
Cu17	Cu	0.935173	0.123868	-0.019635
Cu18	Cu	1.435173	0.623868	0.480365
O19	O	0.921562	0.266881	0.136835
O20	O	1.421562	0.766881	0.636835
C21	C	0.787022	0.134984	0.055263
C22	C	1.287022	0.634984	0.555263
C23	C	0.699538	0.132938	0.049119
C24	C	1.199538	0.632938	0.549119
C25	C	0.654677	0.136360	0.124607
C26	C	1.154677	0.636360	0.624607
C27	C	0.572477	0.134422	0.118837
C28	C	1.072477	0.634422	0.618837
C29	C	0.535139	0.129070	0.037578
C30	C	1.035139	0.629070	0.537578
C31	C	0.580006	0.125645	-0.037916
C32	C	1.080006	0.625645	0.462084
C33	C	0.662205	0.127575	-0.032145
C34	C	1.162205	0.627575	0.467855
C35	C	0.289706	0.122818	0.011913
C36	C	0.789706	0.622818	0.511913
C37	C	0.207501	0.120891	0.006147
C38	C	0.707501	0.620891	0.506147
C39	C	0.199978	0.129667	0.162901
C40	C	0.699978	0.629667	0.662901
C41	C	0.282178	0.131603	0.168665
C42	C	0.782178	0.631603	0.668665
C43	C	0.327038	0.128173	0.093172
C44	C	0.827038	0.628173	0.593172
N45	N	0.451118	0.127092	0.031677
N46	N	0.951118	0.627092	0.531677
N47	N	0.411059	0.130144	0.099073
N48	N	0.911059	0.630144	0.599073
C49	C	0.936593	-0.039967	0.065776
C50	C	1.436593	0.460033	0.565776
C51	C	0.934887	-0.142348	0.065657
C52	C	1.434887	0.357652	0.565657
C53	C	0.933501	-0.225494	0.065557
C54	C	1.433501	0.274506	0.565557
C55	C	0.931770	-0.329804	0.065429
C56	C	1.431770	0.170196	0.565429
C57	C	0.930396	-0.412944	0.065327
C58	C	1.430396	0.087056	0.565327
C59	C	0.928665	-0.517261	0.065200
C60	C	1.428665	-0.017261	0.565200
C61	C	1.075155	0.122266	0.075497
C62	C	1.575155	0.622266	0.575497
C63	C	1.162640	0.124313	0.081636
C64	C	1.662640	0.624313	0.581636
C65	C	0.925585	0.297218	0.064985
C66	C	1.425585	0.797218	0.564985
C67	C	0.927290	0.399599	0.065098
C68	C	1.427290	0.899599	0.565098
N69	N	0.921265	0.140074	0.269990
N70	N	1.421265	0.640074	0.769990
N71	N	0.940918	0.117169	-0.139227
N72	N	1.440918	0.617169	0.360773
C73	C	0.972595	0.080078	0.318992
C74	C	1.472595	0.580078	0.818992
C75	C	0.968262	0.085147	0.409495
C76	C	1.468262	0.585147	0.909495
C77	C	0.912603	0.150217	0.450995
C78	C	1.412603	0.650217	0.950995
C79	C	0.861268	0.210216	0.401986
C80	C	1.361268	0.710216	0.901986
C81	C	0.865598	0.205142	0.311484
C82	C	1.365598	0.705142	0.811484
C83	C	0.893913	0.172094	0.721262
C84	C	1.393913	0.672094	1.221262
C85	C	0.889589	0.177165	0.811771
C86	C	1.389589	0.677165	1.311771
C87	C	0.996582	0.052095	0.819274
C88	C	1.496582	0.552095	1.319274
C89	C	1.000910	0.047030	0.728771
C90	C	1.500910	0.547030	1.228771
C91	C	0.949573	0.107026	0.679769
C92	C	1.449573	0.607026	1.179769
N93	N	0.908174	0.155402	0.543504
N94	N	1.408174	0.655402	1.043504
N95	N	0.953998	0.101836	0.587262
N96	N	1.453998	0.601836	1.087262
H97	H	0.535957	0.137193	0.180308
H98	H	1.035957	0.637193	0.680308
H99	H	1.010057	0.036293	0.449393
H100	H	1.510057	0.536293	0.949393
H101	H	0.815945	0.263195	0.435779
H102	H	1.315945	0.763195	0.935779
H103	H	0.852114	0.220947	0.681372
H104	H	1.352114	0.720947	1.181372
C105	C	1.062169	-0.024505	0.683126
C106	C	1.562169	0.475495	1.183126
H107	H	1.057412	-0.018914	0.622209
H108	H	1.557412	0.481086	1.122209
H109	H	1.052855	-0.085271	0.697342
H110	H	1.552855	0.414729	1.197342
H111	H	1.114051	-0.013432	0.701659
H112	H	1.614051	0.486568	1.201659
C113	C	1.053040	-0.013903	0.873177
C114	C	1.553040	0.486097	1.373177
H115	H	1.042488	-0.001570	0.933020
H116	H	1.542488	0.498430	1.433020
H117	H	1.106357	-0.004552	0.862025
H118	H	1.606357	0.495448	1.362025
H119	H	1.045095	-0.076313	0.857747
H120	H	1.545095	0.423687	1.357747
H121	H	0.844262	0.230157	0.845555
H122	H	1.344262	0.730157	1.345555
C123	C	0.711551	0.123818	-0.115182
C124	C	1.211551	0.623818	0.384818
H125	H	0.677542	0.120362	-0.164404
H126	H	1.177542	0.620362	0.335596
H127	H	0.749708	0.070660	-0.115770
H128	H	1.249708	0.570660	0.384230
H129	H	0.737837	0.178125	-0.116607
H130	H	1.237837	0.678125	0.383393
H131	H	0.549600	0.121280	-0.104079
H132	H	1.049600	0.621280	0.395921
C133	C	0.695744	0.142231	0.213994
C134	C	1.195744	0.642231	0.713994
H135	H	0.657252	0.143978	0.258125
H136	H	1.157252	0.643978	0.758125
H137	H	0.721726	0.196891	0.219097
H138	H	1.221726	0.696891	0.719097
H139	H	0.733582	0.089424	0.219912
H140	H	1.233582	0.589424	0.719912
C141	C	0.323242	0.137513	0.258051
C142	C	0.823242	0.637513	0.758051
H143	H	0.284751	0.139274	0.302184
H144	H	0.784751	0.639274	0.802184
H145	H	0.349210	0.192184	0.263123
H146	H	0.849210	0.692184	0.763123
H147	H	0.361091	0.084721	0.263995
H148	H	0.861091	0.584721	0.763995
C149	C	0.809139	0.271141	0.257581
C150	C	1.309139	0.771141	0.757581
H151	H	0.775375	0.310628	0.295257
H152	H	1.275375	0.810628	0.795257
H153	H	0.777978	0.235880	0.219983
H154	H	1.277978	0.735880	0.719983
H155	H	0.839235	0.307648	0.224259
H156	H	1.339235	0.807648	0.724259
H157	H	0.163444	0.132458	0.224364
H158	H	0.663444	0.632458	0.724364
C159	C	0.166427	0.114999	-0.083240
C160	C	0.666427	0.614999	0.416760
H161	H	0.111046	0.114352	-0.075861
H162	H	0.611046	0.614352	0.424139
H163	H	0.187372	0.059782	-0.114077
H164	H	0.687372	0.559782	0.385923
H165	H	0.175511	0.167247	-0.114919
H166	H	0.675511	0.667247	0.385081
C167	C	0.339041	0.119056	-0.071127
C168	C	0.839041	0.619056	0.428873
H169	H	0.305027	0.115603	-0.120346
H170	H	0.805027	0.615603	0.379654
H171	H	0.377196	0.065898	-0.071719
H172	H	0.877196	0.565898	0.428281
H173	H	0.365328	0.173363	-0.072554
H174	H	0.865328	0.673363	0.427446
C175	C	1.033819	0.008499	0.273350
C176	C	1.533819	0.508499	0.773350
H177	H	1.063762	-0.026512	0.315500
H178	H	1.563762	0.473488	0.815500
H179	H	1.068360	0.039798	0.240337
H180	H	1.568360	0.539798	0.740337
H181	H	1.007100	-0.031966	0.236067
H182	H	1.507100	0.468034	0.736067
