data_functionalizedCrystal
_audit_creation_method	'MofGen! by Chris Wilmer'
_symmetry_space_group_name_H-M	'P1'
_symmetry_Int_Tables_number	1
_symmetry_cell_setting	triclinic
loop_
_symmetry_equiv_pos_as_xyz
  x,y,z
_cell_length_a	27.732048
_cell_length_b	27.732048
_cell_length_c	26.210047
_cell_angle_alpha	90.000479
_cell_angle_beta	89.996535
_cell_angle_gamma	97.357345
loop_
_atom_site_label
_atom_site_type_symbol
_atom_site_fract_x
_atom_site_fract_y
_atom_site_fract_z
O1	O	0.640931	-0.057510	-0.042369
O2	O	1.140931	0.442490	0.457631
O3	O	0.500138	-0.066256	-0.042385
O4	O	1.000138	0.433744	0.457615
O5	O	0.574907	0.008514	-0.042367
O6	O	1.074907	0.508514	0.457633
O7	O	0.566162	-0.132279	-0.042387
O8	O	1.066162	0.367721	0.457613
O9	O	0.574893	0.008502	0.042491
O10	O	1.074893	0.508502	0.542491
O11	O	0.500123	-0.066267	0.042473
O12	O	1.000123	0.433733	0.542473
O13	O	0.640917	-0.057522	0.042489
O14	O	1.140917	0.442478	0.542489
Cu15	Cu	0.570519	-0.061896	0.050229
Cu16	Cu	1.070519	0.438104	0.550229
Cu17	Cu	0.570536	-0.061882	-0.050125
Cu18	Cu	1.070536	0.438118	0.449875
O19	O	0.566147	-0.132291	0.042471
O20	O	1.066147	0.367709	0.542471
C21	C	0.482124	-0.066078	0.000042
C22	C	0.982124	0.433922	0.500042
C23	C	0.428469	-0.065525	0.000036
C24	C	0.928469	0.434475	0.500036
C25	C	0.574716	0.026515	0.000064
C26	C	1.074716	0.526515	0.500064
C27	C	0.574164	0.080170	0.000068
C28	C	1.074164	0.580170	0.500068
C29	C	0.089654	-0.106229	0.000053
C30	C	0.589654	0.393771	0.500053
C31	C	-0.112006	-0.104178	0.000057
C32	C	0.387994	0.395822	0.500057
O33	O	-0.143262	-0.141398	0.000074
O34	O	0.356738	0.358602	0.500074
N35	N	-0.131130	-0.059843	0.000063
N36	N	0.368870	0.440157	0.500063
C37	C	-0.099835	-0.016017	0.000071
C38	C	0.400165	0.483983	0.500071
O39	O	-0.120728	0.021740	0.000081
O40	O	0.379272	0.521740	0.500081
C41	C	0.101824	-0.018068	0.000069
C42	C	0.601824	0.481932	0.500069
C43	C	0.120944	-0.062407	0.000059
C44	C	0.620944	0.437593	0.500059
C45	C	0.108775	-0.150563	0.000043
C46	C	0.608775	0.349437	0.500043
C47	C	0.159187	-0.151076	0.000039
C48	C	0.659187	0.348924	0.500039
C49	C	0.190477	-0.107253	0.000045
C50	C	0.690477	0.392747	0.500045
C51	C	0.171356	-0.062919	0.000055
C52	C	0.671356	0.437081	0.500055
C53	C	0.133117	0.025757	0.000081
C54	C	0.633117	0.525757	0.500081
C55	C	0.183535	0.025240	0.000082
C56	C	0.683535	0.525240	0.500082
C57	C	0.202655	-0.019098	0.000071
C58	C	0.702655	0.480902	0.500071
C59	C	0.253059	-0.019609	0.000057
C60	C	0.753059	0.480391	0.500057
N61	N	0.272183	-0.063944	0.000051
N62	N	0.772183	0.436056	0.500051
C63	C	0.240892	-0.107766	0.000045
C64	C	0.740892	0.392234	0.500045
C65	C	-0.205709	-0.014943	0.000070
C66	C	0.294291	0.485057	0.500070
C67	C	-0.256124	-0.014430	0.000070
C68	C	0.243876	0.485570	0.500070
C69	C	-0.268291	-0.102591	0.000057
C70	C	0.231709	0.397409	0.500057
C71	C	-0.217876	-0.103104	0.000054
C72	C	0.282124	0.396896	0.500054
C73	C	-0.186585	-0.059278	0.000065
C74	C	0.313415	0.440722	0.500065
C75	C	0.346761	-0.108839	0.000036
C76	C	0.846761	0.391161	0.500036
C77	C	0.397178	-0.109347	0.000030
C78	C	0.897178	0.390653	0.500030
C79	C	0.409341	-0.021186	0.000045
C80	C	0.909341	0.478814	0.500045
C81	C	0.358929	-0.020678	0.000049
C82	C	0.858929	0.479322	0.500049
C83	C	0.327639	-0.064508	0.000046
C84	C	0.827639	0.435492	0.500046
O85	O	0.284343	0.017592	0.000046
O86	O	0.784343	0.517592	0.500046
O87	O	0.261794	-0.145518	0.000047
O88	O	0.761794	0.354482	0.500047
C89	C	0.039242	-0.105716	0.000057
C90	C	0.539242	0.394284	0.500057
C91	C	0.020120	-0.061382	0.000067
C92	C	0.520120	0.438618	0.500067
C93	C	0.051411	-0.017560	0.000073
C94	C	0.551411	0.482440	0.500073
C95	C	-0.030294	-0.060869	0.000066
C96	C	0.469706	0.439131	0.500066
C97	C	-0.061585	-0.104691	0.000060
C98	C	0.438415	0.395309	0.500060
C99	C	-0.042461	-0.149026	0.000054
C100	C	0.457539	0.350974	0.500054
C101	C	0.007951	-0.149539	0.000050
C102	C	0.507951	0.350461	0.500050
C103	C	0.032287	0.026775	0.000078
C104	C	0.532287	0.526775	0.500078
C105	C	-0.018125	0.027284	0.000082
C106	C	0.481875	0.527284	0.500082
C107	C	-0.049416	-0.016538	0.000076
C108	C	0.450584	0.483462	0.500076
C109	C	0.658931	-0.057699	0.000061
C110	C	1.158931	0.442301	0.500061
C111	C	0.712586	-0.058252	0.000064
C112	C	1.212586	0.441748	0.500064
C113	C	0.566338	-0.150292	0.000040
C114	C	1.066338	0.349708	0.500040
C115	C	0.566891	-0.203947	0.000032
C116	C	1.066891	0.296053	0.500032
N117	N	0.570510	-0.061905	0.120813
N118	N	1.070510	0.438095	0.620813
C119	C	0.614867	0.418985	0.000046
C120	C	1.114867	0.918985	0.500046
C121	C	0.612816	0.620645	0.000039
C122	C	1.112816	1.120645	0.500039
O123	O	0.650037	0.651900	0.000021
O124	O	1.150037	1.151900	0.500021
N125	N	0.568481	0.639768	0.000034
N126	N	1.068481	1.139768	0.500034
C127	C	0.524656	0.608474	0.000028
C128	C	1.024656	1.108474	0.500028
O129	O	0.486899	0.629367	0.000019
O130	O	0.986899	1.129367	0.500019
C131	C	0.526707	0.406815	0.000032
C132	C	1.026707	0.906815	0.500032
C133	C	0.571045	0.387694	0.000042
C134	C	1.071045	0.887694	0.500042
C135	C	0.659202	0.399864	0.000056
C136	C	1.159202	0.899864	0.500056
C137	C	0.659714	0.349452	0.000060
C138	C	1.159714	0.849452	0.500060
C139	C	0.615892	0.318161	0.000056
C140	C	1.115892	0.818161	0.500056
C141	C	0.571557	0.337282	0.000046
C142	C	1.071557	0.837282	0.500046
C143	C	0.482882	0.375521	0.000022
C144	C	0.982882	0.875521	0.500022
C145	C	0.483399	0.325104	0.000022
C146	C	0.983399	0.825104	0.500022
C147	C	0.527737	0.305983	0.000032
C148	C	1.027737	0.805983	0.500032
C149	C	0.528247	0.255580	0.000046
C150	C	1.028247	0.755580	0.500046
N151	N	0.572583	0.236456	0.000051
N152	N	1.072583	0.736456	0.500051
C153	C	0.616405	0.267747	0.000056
C154	C	1.116405	0.767747	0.500056
C155	C	0.523582	0.714348	0.000027
C156	C	1.023582	1.214348	0.500027
C157	C	0.523069	0.764762	0.000027
C158	C	1.023069	1.264762	0.500027
C159	C	0.611230	0.776930	0.000037
C160	C	1.111230	1.276930	0.500037
C161	C	0.611742	0.726514	0.000041
C162	C	1.111742	1.226514	0.500041
C163	C	0.567917	0.695224	0.000032
C164	C	1.067917	1.195224	0.500032
C165	C	0.617477	0.161878	0.000066
C166	C	1.117477	0.661878	0.500066
C167	C	0.617986	0.111461	0.000073
C168	C	1.117986	0.611461	0.500073
C169	C	0.529825	0.099298	0.000060
C170	C	1.029825	0.599298	0.500060
C171	C	0.529316	0.149710	0.000056
C172	C	1.029316	0.649710	0.500056
C173	C	0.573147	0.180999	0.000057
C174	C	1.073147	0.680999	0.500057
O175	O	0.491047	0.224296	0.000059
O176	O	0.991047	0.724296	0.500059
O177	O	0.654156	0.246844	0.000054
O178	O	1.154156	0.746844	0.500054
C179	C	0.614355	0.469397	0.000042
C180	C	1.114355	0.969397	0.500042
C181	C	0.570021	0.488518	0.000033
C182	C	1.070021	0.988518	0.500033
C183	C	0.526198	0.457228	0.000028
C184	C	1.026198	0.957228	0.500028
C185	C	0.569508	0.538933	0.000033
C186	C	1.069508	1.038933	0.500033
C187	C	0.613330	0.570223	0.000037
C188	C	1.113330	1.070223	0.500037
C189	C	0.657665	0.551100	0.000042
C190	C	1.157665	1.051100	0.500042
C191	C	0.658177	0.500688	0.000046
C192	C	1.158177	1.000688	0.500046
C193	C	0.481863	0.476351	0.000023
C194	C	0.981863	0.976351	0.500023
C195	C	0.481355	0.526764	0.000019
C196	C	0.981355	1.026764	0.500019
C197	C	0.525177	0.558054	0.000024
C198	C	1.025177	1.058054	0.500024
N199	N	0.570548	-0.061868	-0.120709
N200	N	1.070548	0.438132	0.379291
C201	C	0.603640	-0.028781	0.473336
C202	C	1.103640	0.471219	0.973336
C203	C	0.603651	-0.028774	0.686994
C204	C	1.103651	0.471226	1.186994
O205	O	0.631801	-0.000614	0.714623
O206	O	1.131801	0.499386	1.214623
N207	N	0.570538	-0.061871	0.713707
N208	N	1.070538	0.438129	1.213707
C209	C	0.537419	-0.094970	0.687003
C210	C	1.037419	0.405030	1.187003
O211	O	0.509251	-0.123117	0.714626
O212	O	1.009251	0.376883	1.214626
C213	C	0.537406	-0.094974	0.473345
C214	C	1.037406	0.405026	0.973345
C215	C	0.570524	-0.061878	0.446635
C216	C	1.070524	0.438122	0.946635
C217	C	0.636755	0.004312	0.446625
C218	C	1.136755	0.504312	0.946625
C219	C	0.636754	0.004308	0.393214
C220	C	1.136754	0.504308	0.893214
C221	C	0.603638	-0.028789	0.366513
C222	C	1.103638	0.471211	0.866513
C223	C	0.570523	-0.061882	0.393223
C224	C	1.070523	0.438118	0.893223
C225	C	0.504284	-0.128070	0.446641
C226	C	1.004284	0.371930	0.946641
C227	C	0.504283	-0.128067	0.393223
C228	C	1.004283	0.371933	0.893223
C229	C	0.537401	-0.094971	0.366513
C230	C	1.037401	0.405029	0.866513
C231	C	0.537405	-0.094983	0.313111
C232	C	1.037405	0.405017	0.813111
N233	N	0.570518	-0.061886	0.286397
N234	N	1.070518	0.438114	0.786397
C235	C	0.603634	-0.028789	0.313098
C236	C	1.103634	0.471211	0.813098
C237	C	0.537428	-0.094966	0.799176
C238	C	1.037428	0.405034	1.299176
C239	C	0.537432	-0.094965	0.852590
C240	C	1.037432	0.405035	1.352590
C241	C	0.603664	-0.028769	0.852578
C242	C	1.103664	0.471231	1.352578
C243	C	0.603662	-0.028773	0.799163
C244	C	1.103662	0.471227	1.299163
C245	C	0.570541	-0.061869	0.772463
C246	C	1.070541	0.438131	1.272463
C247	C	0.603629	-0.028800	0.200931
C248	C	1.103629	0.471200	0.700931
C249	C	0.603626	-0.028808	0.147514
C250	C	1.103626	0.471192	0.647514
C251	C	0.537393	-0.095002	0.147531
C252	C	1.037393	0.404998	0.647531
C253	C	0.537397	-0.094996	0.200943
C254	C	1.037397	0.405004	0.700943
C255	C	0.570517	-0.061891	0.227641
C256	C	1.070517	0.438109	0.727641
O257	O	0.509267	-0.123125	0.285449
O258	O	1.009267	0.376875	0.785449
O259	O	0.631790	-0.000639	0.285466
O260	O	1.131790	0.499361	0.785466
C261	C	0.603641	-0.028777	0.526747
C262	C	1.103641	0.471223	1.026747
C263	C	0.570527	-0.061871	0.553457
C264	C	1.070527	0.438129	1.053457
C265	C	0.537410	-0.094968	0.526756
C266	C	1.037410	0.405032	1.026756
C267	C	0.570530	-0.061870	0.606872
C268	C	1.070530	0.438130	1.106872
C269	C	0.603646	-0.028773	0.633573
C270	C	1.103646	0.471227	1.133573
C271	C	0.636759	0.004323	0.606859
C272	C	1.136759	0.504323	1.106859
C273	C	0.636758	0.004320	0.553448
C274	C	1.136758	0.504320	1.053448
C275	C	0.504298	-0.128064	0.553470
C276	C	1.004298	0.371936	1.053470
C277	C	0.504302	-0.128058	0.606881
C278	C	1.004302	0.371942	1.106881
C279	C	0.537418	-0.094961	0.633582
C280	C	1.037418	0.405039	1.133582
H281	H	0.412743	-0.145454	0.000021
H282	H	0.912743	0.354546	0.500021
C283	C	-0.277151	0.034342	0.000076
C284	C	0.222849	0.534342	0.500076
H285	H	-0.251291	0.060365	0.000085
H286	H	0.248709	0.560365	0.500085
H287	H	-0.296563	0.036383	-0.029514
H288	H	0.203437	0.536383	0.470486
H289	H	-0.296565	0.036371	0.029673
H290	H	0.203435	0.536371	0.529673
C291	C	0.500967	-0.131406	0.118156
C292	C	1.000967	0.368594	0.618156
H293	H	0.481245	-0.151120	0.141711
H294	H	0.981245	0.348880	0.641711
H295	H	0.480980	-0.114153	0.097320
H296	H	0.980980	0.385847	0.597320
H297	H	0.518206	-0.151411	0.097318
H298	H	1.018206	0.348589	0.597318
C299	C	0.432579	0.547791	0.000007
C300	C	0.932579	1.047791	0.500007
H301	H	0.406556	0.521931	-0.000001
H302	H	0.906556	1.021931	0.499999
H303	H	0.430535	0.567208	0.029594
H304	H	0.930535	1.067208	0.529594
H305	H	0.430554	0.567199	-0.029593
H306	H	0.930554	1.067199	0.470407
H307	H	0.486964	0.780325	0.000028
H308	H	0.986964	1.280325	0.500028
H309	H	0.663725	0.031269	0.531704
H310	H	1.163725	0.531269	1.031704
C311	C	0.640087	0.007640	0.881955
C312	C	1.140087	0.507640	1.381955
H313	H	0.635340	0.002900	0.917592
H314	H	1.135340	0.502900	1.417592
H315	H	0.672309	0.002621	0.873202
H316	H	1.172309	0.502621	1.373202
H317	H	0.635071	0.039866	0.873203
H318	H	1.135071	0.539866	1.373203
H319	H	0.693347	0.576585	0.000048
H320	H	1.193347	1.076585	0.500048
H321	H	0.477317	-0.155019	0.468381
H322	H	0.977317	0.344981	0.968381
C323	C	-0.171296	0.033268	0.000076
C324	C	0.328704	0.533268	0.500076
H325	H	-0.189910	0.059742	0.000074
H326	H	0.310090	0.559742	0.500074
H327	H	-0.151377	0.034903	0.029667
H328	H	0.348623	0.534903	0.529667
H329	H	-0.151375	0.034905	-0.029520
H330	H	0.348625	0.534905	0.470480
C331	C	-0.302717	-0.150794	0.000054
C332	C	0.197283	0.349206	0.500054
H333	H	-0.335479	-0.144135	0.000060
H334	H	0.164521	0.355865	0.500060
H335	H	-0.296957	-0.168992	-0.029537
H336	H	0.203043	0.331008	0.470463
H337	H	-0.296958	-0.168990	0.029650
H338	H	0.203042	0.331010	0.529650
C339	C	0.660513	0.705486	0.000047
C340	C	1.160513	1.205486	0.500047
H341	H	0.686536	0.731346	0.000047
H342	H	1.186536	1.231346	0.500047
H343	H	0.662544	0.686070	0.029638
H344	H	1.162544	1.186070	0.529638
H345	H	0.662553	0.686075	-0.029550
H346	H	1.162553	1.186075	0.470450
H347	H	0.117558	0.061861	0.000090
H348	H	0.617558	0.561861	0.500090
H349	H	0.446177	0.450879	0.000018
H350	H	0.946177	0.950879	0.500018
H351	H	0.663725	0.031271	0.628608
H352	H	1.163725	0.531271	1.128608
C353	C	0.337894	0.028092	0.000055
C354	C	0.837894	0.528092	0.500055
H355	H	0.363752	0.054117	0.000059
H356	H	0.863752	0.554117	0.500059
H357	H	0.318478	0.030130	-0.029533
H358	H	0.818478	0.530130	0.470467
H359	H	0.318484	0.030121	0.029654
H360	H	0.818484	0.530121	0.529654
C361	C	0.480546	0.170744	0.000044
C362	C	0.980546	0.670744	0.500044
H363	H	0.454521	0.144886	0.000039
H364	H	0.954521	0.644886	0.500039
H365	H	0.478504	0.190164	0.029630
H366	H	0.978504	0.690164	0.529630
H367	H	0.478523	0.190151	-0.029558
H368	H	0.978523	0.690151	0.470442
H369	H	0.646911	0.802415	0.000041
H370	H	1.146911	1.302415	0.500041
C371	C	0.443767	0.027014	0.000056
C372	C	0.943767	0.527014	0.500056
H373	H	0.476529	0.020355	0.000059
H374	H	0.976529	0.520355	0.500059
H375	H	0.438011	0.045220	-0.029530
H376	H	0.938011	0.545220	0.470470
H377	H	0.438004	0.045201	0.029658
H378	H	0.938004	0.545201	0.529658
C379	C	0.475371	0.679934	0.000025
C380	C	0.975371	1.179934	0.500025
H381	H	0.448897	0.698549	0.000028
H382	H	0.948897	1.198549	0.500028
H383	H	0.473736	0.660012	-0.029566
H384	H	0.973736	1.160012	0.470434
H385	H	0.473733	0.660017	0.029622
H386	H	0.973733	1.160017	0.529622
C387	C	0.217951	0.073449	0.000087
C388	C	0.717951	0.573449	0.500087
H389	H	0.199339	0.099925	0.000089
H390	H	0.699339	0.599925	0.500089
H391	H	0.237872	0.075080	0.029677
H392	H	0.737872	0.575080	0.529677
H393	H	0.237869	0.075086	-0.029511
H394	H	0.737869	0.575086	0.470489
H395	H	0.174750	-0.187180	0.000030
H396	H	0.674750	0.312820	0.500030
H397	H	0.630629	-0.001823	0.777418
H398	H	1.130629	0.498177	1.277418
C399	C	0.312350	-0.157051	0.000027
C400	C	0.812350	0.342949	0.500027
H401	H	0.330965	-0.183525	0.000015
H402	H	0.830965	0.316475	0.500015
H403	H	0.292427	-0.158696	0.029617
H404	H	0.792427	0.341304	0.529617
H405	H	0.292434	-0.158678	-0.029570
H406	H	0.792434	0.341322	0.470430
H407	H	0.023514	-0.185643	0.000042
H408	H	0.523514	0.314357	0.500042
C409	C	0.640055	0.007601	0.118136
C410	C	1.140055	0.507601	0.618136
H411	H	0.659774	0.027315	0.141691
H412	H	1.159774	0.527315	0.641691
H413	H	0.660047	-0.009649	0.097297
H414	H	1.160047	0.490351	0.597297
H415	H	0.622815	0.027605	0.097301
H416	H	1.122815	0.527605	0.597301
H417	H	0.446777	0.391080	0.000011
H418	H	0.946777	0.891080	0.500011
C419	C	0.707411	0.434276	0.000065
C420	C	1.207411	0.934276	0.500065
H421	H	0.733884	0.415661	0.000074
H422	H	1.233884	0.915661	0.500074
H423	H	0.709057	0.454200	-0.029525
H424	H	1.209057	0.954200	0.470475
H425	H	0.709038	0.454192	0.029663
H426	H	1.209038	0.954192	0.529663
H427	H	0.447710	0.299629	0.000014
H428	H	0.947710	0.799629	0.500014
H429	H	0.630598	-0.001842	0.222662
H430	H	1.130598	0.498158	0.722662
H431	H	0.663720	0.031259	0.371469
H432	H	1.163720	0.531259	0.871469
H433	H	-0.067947	-0.184708	0.000047
H434	H	0.432053	0.315292	0.500047
C435	C	0.467868	-0.164464	0.636257
C436	C	0.967868	0.335536	1.136257
H437	H	0.448143	-0.184170	0.612700
H438	H	0.948143	0.315830	1.112700
H439	H	0.485096	-0.184469	0.657097
H440	H	0.985096	0.315531	1.157097
H441	H	0.447877	-0.147205	0.657090
H442	H	0.947877	0.352795	1.157090
C443	C	-0.039152	0.076059	0.000095
C444	C	0.460848	0.576059	0.500095
H445	H	-0.013292	0.102082	0.000103
H446	H	0.486708	0.602082	0.500103
H447	H	-0.058567	0.078103	-0.029493
H448	H	0.441433	0.578103	0.470507
H449	H	-0.058563	0.078086	0.029695
H450	H	0.441437	0.578086	0.529695
H451	H	0.494146	0.073812	0.000058
H452	H	0.994146	0.573812	0.500058
H453	H	0.510469	-0.121920	0.874334
H454	H	1.010469	0.378080	1.374334
C455	C	0.673189	0.040719	0.475988
C456	C	1.173189	0.540719	0.975988
H457	H	0.692909	0.060423	0.452423
H458	H	1.192909	0.560423	0.952423
H459	H	0.655962	0.060727	0.496830
H460	H	1.155962	0.560727	0.996830
H461	H	0.693184	0.023465	0.496819
H462	H	1.193184	0.523465	0.996819
H463	H	0.057760	0.062462	0.000085
H464	H	0.557760	0.562462	0.500085
H465	H	0.477330	-0.155015	0.531734
H466	H	0.977330	0.344985	1.031734
C467	C	0.500997	-0.131378	0.769812
C468	C	1.000997	0.368622	1.269812
H469	H	0.481283	-0.151090	0.793376
H470	H	0.981283	0.348910	1.293376
H471	H	0.481001	-0.114134	0.748977
H472	H	0.981001	0.385866	1.248977
H473	H	0.518235	-0.151385	0.748975
H474	H	1.018235	0.348615	1.248975
C475	C	0.467852	-0.164477	0.363856
C476	C	0.967852	0.335523	0.863856
H477	H	0.448133	-0.184187	0.387417
H478	H	0.948133	0.315813	0.887417
H479	H	0.447860	-0.147229	0.343019
H480	H	0.947860	0.352771	0.843019
H481	H	0.485089	-0.184484	0.343021
H482	H	0.985089	0.315516	0.843021
H483	H	0.695819	0.333889	0.000066
H484	H	1.195819	0.833889	0.500066
C485	C	0.666759	0.090431	0.000080
C486	C	1.166759	0.590431	0.500080
H487	H	0.692784	0.116290	0.000077
H488	H	1.192784	0.616290	0.500077
H489	H	0.668790	0.071018	0.029673
H490	H	1.168790	0.571018	0.529673
H491	H	0.668797	0.071017	-0.029514
H492	H	1.168797	0.571017	0.470486
C493	C	0.500951	-0.131381	0.230325
C494	C	1.000951	0.368619	0.730325
H495	H	0.481221	-0.151086	0.206771
H496	H	0.981221	0.348914	0.706771
H497	H	0.518163	-0.151391	0.251178
H498	H	1.018163	0.348609	0.751178
H499	H	0.480967	-0.114103	0.251146
H500	H	0.980967	0.385897	0.751146
H501	H	0.083302	-0.186251	0.000039
H502	H	0.583302	0.313749	0.500039
H503	H	-0.202311	-0.139207	0.000049
H504	H	0.297689	0.360793	0.500049
H505	H	0.653168	0.187348	0.000065
H506	H	1.153168	0.687348	0.500065
H507	H	0.694282	0.485125	0.000054
H508	H	1.194282	0.985125	0.500054
