data_functionalizedCrystal
_audit_creation_method	'MofGen! by Chris Wilmer'
_symmetry_space_group_name_H-M	'P1'
_symmetry_Int_Tables_number	1
_symmetry_cell_setting	triclinic
loop_
_symmetry_equiv_pos_as_xyz
  x,y,z
_cell_length_a	16.120484
_cell_length_b	17.640112
_cell_length_c	17.640968
_cell_angle_alpha	92.139080
_cell_angle_beta	82.192558
_cell_angle_gamma	103.499326
loop_
_atom_site_label
_atom_site_type_symbol
_atom_site_fract_x
_atom_site_fract_y
_atom_site_fract_z
Zn1	Zn	-0.023860	1.246898	-0.196404
Zn2	Zn	-0.195187	1.214806	-0.078925
Zn3	Zn	-0.077878	1.092236	-0.098046
Zn4	Zn	-0.184256	1.113950	-0.230901
O5	O	-0.120295	1.166972	-0.151069
O6	O	-0.028555	1.349575	-0.158380
O7	O	-0.206807	1.176029	0.023304
O8	O	0.045508	1.117096	-0.104658
O9	O	-0.154428	1.325997	-0.072070
O10	O	0.085195	1.230725	-0.176921
O11	O	-0.120621	1.085978	0.009256
O12	O	-0.110021	0.988182	-0.138109
O13	O	-0.135798	1.154104	-0.331090
O14	O	-0.188177	1.004135	-0.235717
O15	O	-0.017955	1.251780	-0.305745
O16	O	-0.309958	1.197083	-0.105520
O17	O	-0.301927	1.122985	-0.217176
C18	C	-0.153775	0.968432	-0.192732
C19	C	-0.168113	0.883498	-0.210574
C20	C	-0.336069	1.158932	-0.163028
C21	C	-0.428360	1.155568	-0.168155
C22	C	-0.011353	0.562620	-0.015528
C23	C	-0.024840	0.482814	-0.032305
C24	C	-0.106413	0.499439	-0.133786
C25	C	-0.092929	0.579249	-0.117021
C26	C	-0.045399	0.610833	-0.057890
C27	C	-0.126975	0.627462	-0.159383
C28	C	-0.113496	0.707264	-0.142616
C29	C	-0.065971	0.738854	-0.083486
C30	C	-0.031920	0.690635	-0.041123
C31	C	-0.174510	0.595875	-0.218510
C32	C	-0.208556	0.644088	-0.260872
C33	C	-0.195072	0.723893	-0.244108
C34	C	-0.147546	0.755483	-0.184979
C35	C	-0.229122	0.772112	-0.286472
C36	C	-0.215643	0.851914	-0.269705
C37	C	-0.134067	0.835285	-0.168212
C38	C	-0.597332	1.149433	-0.177530
C39	C	-0.642392	1.184651	-0.124592
C40	C	-0.736414	1.181238	-0.129808
C41	C	-0.503302	1.152846	-0.172315
C42	C	0.096329	1.175068	-0.139075
C43	C	0.188641	1.178518	-0.133963
C44	C	-0.069632	1.208944	-0.346341
C45	C	-0.048042	1.226829	-0.429555
C46	C	-0.086685	1.366289	-0.109244
C47	C	-0.072363	1.451225	-0.091421
C48	C	-0.283809	1.031408	-0.769207
C49	C	-0.263509	1.048230	-0.847394
C50	C	-0.140810	1.149932	-0.820995
C51	C	-0.161098	1.133115	-0.742803
C52	C	-0.232599	1.073853	-0.716916
C53	C	-0.109887	1.175560	-0.690513
C54	C	-0.130176	1.158747	-0.612328
C55	C	-0.201675	1.099489	-0.586434
C56	C	-0.252888	1.057040	-0.638731
C57	C	-0.038390	1.234826	-0.716401
C58	C	0.012820	1.277271	-0.664110
C59	C	-0.007464	1.260455	-0.585924
C60	C	-0.078964	1.201197	-0.560030
C61	C	0.043748	1.302904	-0.533627
C62	C	0.023459	1.286092	-0.455442
C63	C	-0.099252	1.184384	-0.481846
C64	C	-0.170694	1.125211	0.043456
C65	C	-0.192025	1.107482	0.126714
H66	H	-0.095349	0.861005	-0.120072
H67	H	-0.157459	1.136109	-0.460770
C68	C	-0.636737	1.026857	-0.242518
C69	C	-0.640571	1.105266	-0.243996
H70	H	-0.663433	0.999592	-0.283553
H71	H	-0.665868	1.004408	-0.195320
H72	H	-0.578305	1.023395	-0.247691
H73	H	-0.699003	1.108728	-0.238818
H74	H	-0.611441	1.127721	-0.291206
C75	C	-0.659054	1.260714	-0.010175
C76	C	-0.599154	1.228812	-0.058116
H77	H	-0.632355	1.287977	0.030861
H78	H	-0.705978	1.220077	0.009660
H79	H	-0.679440	1.295734	-0.038531
H80	H	-0.578772	1.193786	-0.029760
H81	H	-0.552214	1.269454	-0.077951
C82	C	0.047357	0.666190	0.057527
C83	C	0.020318	0.725359	0.023880
H84	H	0.079597	0.687628	0.097660
H85	H	0.082295	0.643276	0.020085
H86	H	-0.001486	0.627545	0.077667
H87	H	0.069162	0.764002	0.003736
H88	H	-0.014620	0.748286	0.061330
C89	C	-0.297555	1.020027	-0.488814
C90	C	-0.223983	1.081004	-0.500492
H91	H	-0.311328	1.008620	-0.435757
H92	H	-0.286913	0.975064	-0.516056
H93	H	-0.344325	1.035052	-0.506700
H94	H	-0.177211	1.065978	-0.482611
H95	H	-0.234620	1.125977	-0.473240
C96	C	-0.287820	0.668544	-0.359519
C97	C	-0.260789	0.609369	-0.325874
H98	H	-0.320066	0.647110	-0.399649
H99	H	-0.238980	0.707182	-0.379656
H100	H	-0.322758	0.691463	-0.322070
H101	H	-0.225845	0.586454	-0.363323
H102	H	-0.309635	0.570718	-0.305738
H103	H	-0.267828	0.746382	-0.334611
C104	C	-0.309553	0.939717	-0.267277
C105	C	-0.253066	0.904914	-0.316270
H106	H	-0.332663	0.972431	-0.296026
H107	H	-0.279318	0.969947	-0.229670
H108	H	-0.354996	0.900371	-0.242917
H109	H	-0.207619	0.944259	-0.340626
H110	H	-0.283302	0.874682	-0.353891
H111	H	-0.311094	1.008765	-0.617656
H112	H	-0.342016	0.983133	-0.748131
C113	C	0.057156	0.474396	0.069701
C114	C	0.012592	0.429817	0.014262
H115	H	0.080266	0.441678	0.098445
H116	H	0.018833	0.498007	0.102925
H117	H	0.102600	0.513731	0.045326
H118	H	-0.032857	0.390486	0.038637
H119	H	0.050917	0.406195	-0.018967
H120	H	-0.305217	1.013662	-0.889969
H121	H	-0.082596	1.198185	-0.842083
C122	C	-0.085047	1.275432	-0.828691
C123	C	-0.016085	1.253309	-0.802343
H124	H	-0.071276	1.286838	-0.881749
H125	H	-0.095680	1.320399	-0.801449
H126	H	-0.134950	1.234056	-0.820755
H127	H	0.033817	1.294688	-0.810274
H128	H	-0.005441	1.208338	-0.829593
H129	H	0.071035	1.325525	-0.685199
C130	C	0.129327	1.373842	-0.641757
C131	C	0.122337	1.368046	-0.562089
H132	H	0.177849	1.414056	-0.659326
H133	H	0.078739	1.385696	-0.655303
H134	H	0.136149	1.325707	-0.664671
H135	H	0.115509	1.416180	-0.539174
H136	H	0.172937	1.356197	-0.548536
H137	H	0.027365	0.588340	0.032612
C138	C	-0.130612	0.846110	-0.044636
C139	C	-0.051154	0.826573	-0.065048
H140	H	-0.121464	0.900265	-0.033257
H141	H	-0.160472	0.817126	-0.000896
H142	H	-0.163782	0.834201	-0.085920
H143	H	-0.017987	0.838478	-0.023762
H144	H	-0.021281	0.855567	-0.108794
C145	C	-0.163294	0.384491	-0.204558
C146	C	-0.158652	0.464718	-0.198784
H147	H	-0.195538	0.363060	-0.244690
H148	H	-0.190633	0.360143	-0.157664
H149	H	-0.106855	0.375863	-0.215248
H150	H	-0.215091	0.473346	-0.188088
H151	H	-0.131314	0.489073	-0.245689
H152	H	-0.185483	0.530894	-0.232159
C153	C	0.146798	1.388305	-0.437192
C154	C	0.079752	1.332743	-0.397959
H155	H	0.181552	1.417103	-0.401702
H156	H	0.123458	1.422742	-0.463552
H157	H	0.180863	1.362748	-0.472921
H158	H	0.045684	1.358300	-0.362234
H159	H	0.103093	1.298301	-0.371586
