data_functionalizedCrystal
_audit_creation_method	'MofGen! by Chris Wilmer'
_symmetry_space_group_name_H-M	'P1'
_symmetry_Int_Tables_number	1
_symmetry_cell_setting	triclinic
loop_
_symmetry_equiv_pos_as_xyz
  x,y,z
_cell_length_a	13.033409
_cell_length_b	13.032721
_cell_length_c	12.827885
_cell_angle_alpha	82.851130
_cell_angle_beta	82.829104
_cell_angle_gamma	89.138002
loop_
_atom_site_label
_atom_site_type_symbol
_atom_site_fract_x
_atom_site_fract_y
_atom_site_fract_z
Zn1	Zn	1.520147	-0.608846	0.474704
Zn2	Zn	2.020147	-0.108846	0.974704
Zn3	Zn	1.498183	-0.780839	0.324587
Zn4	Zn	1.998183	-0.280839	0.824587
Zn5	Zn	1.348171	-0.587079	0.319097
Zn6	Zn	1.848171	-0.087079	0.819097
Zn7	Zn	1.326313	-0.758955	0.518378
Zn8	Zn	1.826313	-0.258955	1.018378
O9	O	1.423204	-0.683930	0.409191
O10	O	1.923204	-0.183930	0.909191
O11	O	1.661135	-0.649929	0.438811
O12	O	2.161135	-0.149929	0.938811
O13	O	1.478239	-0.755185	0.177635
O14	O	1.978239	-0.255185	0.677635
O15	O	1.389323	-0.446056	0.319163
O16	O	1.889323	0.053944	0.819163
O17	O	1.644997	-0.776292	0.328521
O18	O	2.144997	-0.276292	0.828521
O19	O	1.515674	-0.462048	0.433487
O20	O	2.015674	0.037952	0.933487
O21	O	1.368025	-0.612830	0.173601
O22	O	1.868025	-0.112830	0.673601
O23	O	1.201370	-0.591611	0.361511
O24	O	1.701370	-0.091611	0.861511
O25	O	1.352071	-0.738995	0.658809
O26	O	1.852071	-0.238995	1.158809
O27	O	1.185312	-0.717888	0.507923
O28	O	1.685312	-0.217888	1.007923
O29	O	1.494480	-0.628710	0.626722
O30	O	1.994480	-0.128710	1.126722
O31	O	1.457044	-0.921847	0.370870
O32	O	1.957044	-0.421847	0.870870
O33	O	1.330773	-0.905769	0.513247
O34	O	1.830773	-0.405769	1.013247
C35	C	1.156029	-0.650013	0.438861
C36	C	1.656029	-0.150013	0.938861
C37	C	1.041728	-0.635528	0.451582
C38	C	1.541728	-0.135528	0.951582
C39	C	0.864656	-0.676526	0.415721
C40	C	1.364656	-0.176526	0.915721
C41	C	0.982792	-0.691500	0.402569
C42	C	1.482792	-0.191500	0.902569
C43	C	1.389181	-0.951126	0.447413
C44	C	1.889181	-0.451126	0.947413
C45	C	1.374720	-1.065445	0.463789
C46	C	1.874720	-0.565445	0.963789
C47	C	1.430805	-1.124340	0.400686
C48	C	1.930805	-0.624340	0.900686
C49	C	1.415861	-1.242495	0.417609
C50	C	1.915861	-0.742495	0.917609
C51	C	1.691421	-0.717980	0.379407
C52	C	2.191421	-0.217980	0.879407
C53	C	1.805719	-0.732490	0.366714
C54	C	2.305719	-0.232490	0.866714
C55	C	1.423287	-0.683839	0.681740
C56	C	1.923287	-0.183839	1.181740
C57	C	1.423323	-0.683801	0.797883
C58	C	1.923323	-0.183801	1.297883
C59	C	1.457387	-0.415694	0.370840
C60	C	1.957387	0.084306	0.870840
C61	C	1.471954	-0.301388	0.354497
C62	C	1.971954	0.198612	0.854497
C63	C	1.423189	-0.683953	0.137686
C64	C	1.923189	-0.183953	0.637686
C65	C	1.423389	-0.683728	0.021480
C66	C	1.923389	-0.183728	0.521480
C67	C	1.493835	-0.629178	0.953823
C68	C	1.993835	-0.129178	1.453823
C69	C	1.493799	-0.629217	0.833782
C70	C	1.993799	-0.129217	1.333782
H71	H	0.842720	-0.791494	0.315027
H72	H	1.342720	-0.291494	0.815027
C73	C	1.341839	-0.746896	0.876383
C74	C	1.841839	-0.246896	1.376383
H75	H	1.297614	-0.781140	0.838288
H76	H	1.797614	-0.281140	1.338288
H77	H	1.375518	-0.796650	0.920991
H78	H	1.875518	-0.296650	1.420991
H79	H	1.302098	-0.701813	0.918296
H80	H	1.802098	-0.201813	1.418296
C81	C	1.336044	-1.292530	0.507528
C82	C	1.836044	-0.792530	1.007528
H83	H	1.302800	-1.240258	0.544929
H84	H	1.802800	-0.740258	1.044929
H85	H	1.285989	-1.328831	0.478463
H86	H	1.785989	-0.828831	0.978463
H87	H	1.370112	-1.339358	0.554680
H88	H	1.870112	-0.839358	1.054680
H89	H	1.489890	-1.087291	0.334135
H90	H	1.989890	-0.587291	0.834135
H91	H	1.363056	-0.730462	0.990533
H92	H	1.863056	-0.230462	1.490533
C93	C	1.551750	-1.251348	0.264562
C94	C	2.051750	-0.751348	0.764562
H95	H	1.551314	-1.178498	0.264970
H96	H	2.051314	-0.678498	0.764970
H97	H	1.618648	-1.277590	0.274700
H98	H	2.118648	-0.777590	0.774700
H99	H	1.534495	-1.267073	0.198517
H100	H	2.034495	-0.767073	0.698517
H101	H	0.827654	-0.617531	0.467420
H102	H	1.327654	-0.117531	0.967420
H103	H	1.315644	-1.102498	0.530346
H104	H	1.815644	-0.602498	1.030346
C105	C	1.575345	-0.566043	0.995618
C106	C	2.075345	-0.066043	1.495618
H107	H	1.564670	-0.574293	1.070816
H108	H	2.064670	-0.074293	1.570816
H109	H	1.642534	-0.589850	0.972259
H110	H	2.142534	-0.089850	1.472259
H111	H	1.569102	-0.495023	0.969573
H112	H	2.069102	0.004977	1.469573
C113	C	1.575278	-0.566125	0.755272
C114	C	2.075278	-0.066125	1.255272
H115	H	1.564570	-0.574433	0.684891
H116	H	2.064570	-0.074433	1.184891
H117	H	1.569061	-0.495098	0.764895
H118	H	2.069061	0.004902	1.264895
H119	H	1.642478	-0.589937	0.767582
H120	H	2.142478	-0.089937	1.267582
H121	H	1.004732	-0.576528	0.503283
H122	H	1.504732	-0.076528	1.003283
C123	C	1.032764	-0.771207	0.332729
C124	C	1.532764	-0.271207	0.832729
H125	H	1.105609	-0.770811	0.333044
H126	H	1.605609	-0.270811	0.833044
H127	H	1.006423	-0.838116	0.359729
H128	H	1.506423	-0.338116	0.859729
H129	H	1.017101	-0.753852	0.262315
H130	H	1.517101	-0.253852	0.762315
