data_functionalizedCrystal
_audit_creation_method	'MofGen! by Chris Wilmer'
_symmetry_space_group_name_H-M	'P1'
_symmetry_Int_Tables_number	1
_symmetry_cell_setting	triclinic
loop_
_symmetry_equiv_pos_as_xyz
  x,y,z
_cell_length_a	15.995292
_cell_length_b	15.995350
_cell_length_c	13.448316
_cell_angle_alpha	90.010332
_cell_angle_beta	90.001740
_cell_angle_gamma	83.480495
loop_
_atom_site_label
_atom_site_type_symbol
_atom_site_fract_x
_atom_site_fract_y
_atom_site_fract_z
O1	O	1.111010	0.107705	0.082714
O2	O	1.611010	0.607705	0.582714
O3	O	0.867228	0.121083	0.082709
O4	O	1.367228	0.621083	0.582709
O5	O	0.995783	-0.007495	0.082711
O6	O	1.495783	0.492505	0.582711
O7	O	0.982455	0.236283	0.082712
O8	O	1.482455	0.736283	0.582712
O9	O	0.995784	-0.007519	-0.082673
O10	O	1.495784	0.492481	0.417327
O11	O	0.867229	0.121059	-0.082675
O12	O	1.367229	0.621059	0.417325
O13	O	1.111011	0.107681	-0.082670
O14	O	1.611011	0.607681	0.417330
Cu15	Cu	0.989120	0.114368	-0.097773
Cu16	Cu	1.489120	0.614368	0.402227
Cu17	Cu	0.989119	0.114396	0.097812
Cu18	Cu	1.489119	0.614396	0.597812
O19	O	0.982456	0.236259	-0.082672
O20	O	1.482456	0.736259	0.417328
C21	C	0.836033	0.120527	0.000017
C22	C	1.336033	0.620527	0.500017
C23	C	0.743080	0.118894	0.000015
C24	C	1.243080	0.618894	0.500015
C25	C	0.405341	0.112893	0.000026
C26	C	0.905341	0.612893	0.500026
C27	C	0.428654	0.205697	0.000396
C28	C	0.928654	0.705697	0.500396
C29	C	0.525329	0.207461	0.000019
C30	C	1.025329	0.707461	0.500019
C31	C	0.572897	0.115871	0.000021
C32	C	1.072897	0.615871	0.500021
C33	C	0.543796	0.069459	-0.094418
C34	C	1.043796	0.569459	0.405582
C35	C	0.447005	0.068342	-0.094493
C36	C	0.947005	0.568342	0.405507
C37	C	0.447149	0.066475	0.093580
C38	C	0.947149	0.566475	0.593580
C39	C	0.543642	0.069914	0.094824
C40	C	1.043642	0.569914	0.594824
C41	C	0.667593	0.117549	0.000015
C42	C	1.167593	0.617549	0.500015
C43	C	0.310646	0.111212	0.000026
C44	C	0.810646	0.611212	0.500026
C45	C	0.995232	-0.038702	0.000021
C46	C	1.495232	0.461298	0.500021
C47	C	0.993580	-0.131652	0.000026
C48	C	1.493580	0.368348	0.500026
C49	C	0.987648	-0.469398	0.000023
C50	C	1.487648	0.030602	0.500023
C51	C	0.896094	-0.421945	0.000392
C52	C	1.396094	0.078055	0.500392
C53	C	0.897746	-0.325255	0.000019
C54	C	1.397746	0.174745	0.500019
C55	C	0.990591	-0.301838	0.000025
C56	C	1.490591	0.198162	0.500025
C57	C	1.035749	-0.342939	-0.094415
C58	C	1.535749	0.157061	0.405585
C59	C	1.033449	-0.439574	-0.094494
C60	C	1.533449	0.060426	0.405506
C61	C	1.035339	-0.439905	0.093579
C62	C	1.535339	0.060095	0.593579
C63	C	1.035318	-0.342959	0.094827
C64	C	1.535318	0.157041	0.594827
C65	C	0.992259	-0.207141	0.000023
C66	C	1.492259	0.292859	0.500023
C67	C	0.985983	-0.564095	0.000018
C68	C	1.485983	-0.064095	0.500018
C69	C	1.142206	0.108237	0.000025
C70	C	1.642206	0.608237	0.500025
C71	C	1.235159	0.109870	0.000033
C72	C	1.735159	0.609870	0.500033
C73	C	0.983006	0.267466	0.000021
C74	C	1.483006	0.767466	0.500021
C75	C	0.984658	0.360416	0.000022
C76	C	1.484658	0.860416	0.500022
N77	N	0.989127	0.114347	-0.235337
N78	N	1.489127	0.614347	0.264663
N79	N	0.989119	0.114410	0.235377
N80	N	1.489119	0.614410	0.735377
C81	C	1.046156	0.057533	0.712596
C82	C	1.546156	0.557533	1.212596
C83	C	1.046152	0.057542	0.608492
C84	C	1.546152	0.557542	1.108492
C85	C	0.989121	0.114368	0.556458
C86	C	1.489121	0.614368	1.056458
C87	C	0.932086	0.171185	0.608532
C88	C	1.432086	0.671185	1.108532
C89	C	0.932087	0.171172	0.712633
C90	C	1.432087	0.671172	1.212633
C91	C	0.932089	0.171210	0.391552
C92	C	1.432089	0.671210	0.891552
C93	C	0.932089	0.171224	0.287443
C94	C	1.432089	0.671224	0.787443
C95	C	1.046155	0.057580	0.287411
C96	C	1.546155	0.557580	0.787411
C97	C	1.046155	0.057566	0.391512
C98	C	1.546155	0.557566	0.891512
C99	C	0.989121	0.114384	0.443579
C100	C	1.489121	0.614384	0.943579
H101	H	0.420189	0.100465	-0.165089
H102	H	0.920189	0.600465	0.334911
H103	H	1.002301	-0.315694	0.164691
H104	H	1.502301	0.184306	0.664691
H105	H	0.885646	0.217434	0.755025
H106	H	1.385646	0.717434	1.255025
C107	C	0.551041	0.256514	0.091512
C108	C	1.051041	0.756514	0.591512
N109	N	0.570404	0.293448	0.160439
N110	N	1.070404	0.793448	0.660439
C111	C	0.390828	0.254041	0.091890
C112	C	0.890828	0.754041	0.591890
N113	N	0.362331	0.290453	0.160806
N114	N	0.862331	0.790453	0.660806
C115	C	0.389457	0.253742	-0.090588
C116	C	0.889457	0.753742	0.409412
N117	N	0.359933	0.289926	-0.159120
N118	N	0.859933	0.789926	0.340880
C119	C	0.550197	0.256821	-0.091603
C120	C	1.050197	0.756821	0.408397
N121	N	0.568927	0.293997	-0.160620
N122	N	1.068927	0.793997	0.339380
C123	C	1.127893	-0.323859	-0.099170
C124	C	1.627893	0.176141	0.400830
N125	N	1.197295	-0.309481	-0.102754
N126	N	1.697295	0.190519	0.397246
C127	C	0.846886	-0.448392	-0.090613
C128	C	1.346886	0.051608	0.409387
N129	N	0.809828	-0.468305	-0.159168
N130	N	1.309828	0.031695	0.340832
C131	C	0.849784	-0.286832	0.091472
C132	C	1.349784	0.213168	0.591472
N133	N	0.813652	-0.257895	0.160354
N134	N	1.313652	0.242105	0.660354
C135	C	0.568735	0.115560	0.189211
C136	C	1.068735	0.615560	0.689211
N137	N	0.587643	0.149941	0.260303
N138	N	1.087643	0.649941	0.760303
C139	C	0.427346	-0.023582	-0.100291
C140	C	0.927346	0.476418	0.399709
N141	N	0.412542	-0.092818	-0.104664
N142	N	0.912542	0.407182	0.395336
C143	C	0.988954	-0.464304	-0.189864
C144	C	1.488954	0.035696	0.310136
N145	N	0.955436	-0.482926	-0.261697
N146	N	1.455436	0.017074	0.238303
C147	C	1.108892	-0.004946	0.448748
C148	C	1.608892	0.495054	0.948748
N149	N	1.156144	-0.052033	0.491858
N150	N	1.656144	0.447967	0.991858
C151	C	1.108895	-0.004982	0.769824
C152	C	1.608895	0.495018	1.269824
N153	N	1.156149	-0.052074	0.812926
N154	N	1.656149	0.447926	1.312926
C155	C	0.588174	-0.020404	0.102526
C156	C	1.088174	0.479596	0.602526
N157	N	0.621713	-0.088437	0.108319
N158	N	1.121713	0.411563	0.608319
H159	H	0.575664	0.002060	-0.097928
H160	H	1.075664	0.502060	0.402072
H161	H	1.092589	0.011279	0.566100
H162	H	1.592589	0.511279	1.066100
C163	C	1.108891	-0.004924	0.230136
C164	C	1.608891	0.495076	0.730136
N165	N	1.156143	-0.051998	0.186991
N166	N	1.656143	0.448002	0.686991
C167	C	0.869337	0.233702	0.448823
C168	C	1.369337	0.733702	0.948823
N169	N	0.822073	0.280770	0.491960
N170	N	1.322073	0.780770	0.991960
C171	C	0.846650	-0.446965	0.091878
C172	C	1.346650	0.053035	0.591878
N173	N	0.809407	-0.465819	0.160785
N174	N	1.309407	0.034181	0.660785
C175	C	0.570884	0.112979	-0.189369
C176	C	1.070884	0.612979	0.310631
N177	N	0.591283	0.145764	-0.260884
N178	N	1.091283	0.645764	0.239116
C179	C	1.126790	-0.322231	0.102533
C180	C	1.626790	0.177769	0.602533
N181	N	1.195692	-0.306622	0.108329
N182	N	1.695692	0.193378	0.608329
H183	H	0.862010	-0.297393	-0.067795
H184	H	1.362010	0.202607	0.432205
C185	C	0.408983	0.105771	0.190284
C186	C	0.908983	0.605771	0.690284
N187	N	0.380238	0.135381	0.263117
N188	N	0.880238	0.635381	0.763117
C189	C	0.994897	-0.467626	0.190280
C190	C	1.494897	0.032374	0.690280
N191	N	0.964426	-0.488504	0.263111
N192	N	1.464426	0.011496	0.763111
H193	H	0.433156	-0.001836	0.094220
H194	H	0.933156	0.498164	0.594220
C195	C	1.124255	-0.483162	-0.100292
C196	C	1.624255	0.016838	0.399708
N197	N	1.192649	-0.515988	-0.104666
N198	N	1.692649	-0.015988	0.395334
H199	H	0.885648	0.217497	0.245082
H200	H	1.385648	0.717497	0.745082
C201	C	0.993374	-0.304609	-0.189365
C202	C	1.493374	0.195391	0.310635
N203	N	0.961451	-0.275741	-0.260880
N204	N	1.461451	0.224259	0.239120
H205	H	1.102842	-0.471680	0.094218
H206	H	1.602842	0.028320	0.594218
H207	H	0.885646	0.217452	0.566160
H208	H	1.385646	0.717452	1.066160
