data_functionalizedCrystal
_audit_creation_method	'MofGen! by Chris Wilmer'
_symmetry_space_group_name_H-M	'P1'
_symmetry_Int_Tables_number	1
_symmetry_cell_setting	triclinic
loop_
_symmetry_equiv_pos_as_xyz
  x,y,z
_cell_length_a	16.625539
_cell_length_b	11.169417
_cell_length_c	16.625546
_cell_angle_alpha	89.976283
_cell_angle_beta	90.030397
_cell_angle_gamma	89.983071
loop_
_atom_site_label
_atom_site_type_symbol
_atom_site_fract_x
_atom_site_fract_y
_atom_site_fract_z
Zn1	Zn	-0.455819	1.834831	0.320973
Zn2	Zn	0.044181	2.334831	0.820973
Zn3	Zn	-0.320982	1.834686	0.455816
Zn4	Zn	0.179018	2.334686	0.955816
Zn5	Zn	-0.321008	1.634125	0.321004
Zn6	Zn	0.178992	2.134125	0.821004
Zn7	Zn	-0.455780	1.634081	0.455771
Zn8	Zn	0.044220	2.134081	0.955771
O9	O	-0.388397	1.734431	0.388391
O10	O	0.111603	2.234431	0.888391
O11	O	-0.437938	2.002761	0.338867
O12	O	0.062062	2.502761	0.838867
O13	O	-0.208153	1.808040	0.437966
O14	O	0.291847	2.308040	0.937966
O15	O	-0.338919	1.660828	0.208168
O16	O	0.161081	2.160828	0.708168
O17	O	-0.338873	2.002655	0.437935
O18	O	0.161127	2.502655	0.937935
O19	O	-0.437964	1.808285	0.208145
O20	O	0.062036	2.308285	0.708145
O21	O	-0.208172	1.660688	0.338920
O22	O	0.291828	2.160688	0.838920
O23	O	-0.338881	1.466170	0.338875
O24	O	0.161119	1.966170	0.838875
O25	O	-0.568618	1.660753	0.437857
O26	O	-0.068618	2.160753	0.937857
O27	O	-0.437897	1.466138	0.437887
O28	O	0.062103	1.966138	0.937887
O29	O	-0.568647	1.808243	0.338822
O30	O	-0.068647	2.308243	0.838822
O31	O	-0.338835	1.807997	0.568643
O32	O	0.161165	2.307997	1.068643
O33	O	-0.437871	1.660613	0.568609
O34	O	0.062129	2.160613	1.068609
C35	C	-0.388388	1.422606	0.388380
C36	C	0.111612	1.922606	0.888380
C37	C	-0.388403	1.289206	0.388395
C38	C	0.111597	1.789206	0.888395
C39	C	-0.598706	1.734509	0.388331
C40	C	-0.098706	2.234509	0.888331
C41	C	-0.688328	1.734542	0.388306
C42	C	-0.188328	2.234542	0.888306
C43	C	-1.016503	1.734598	0.388215
C44	C	-0.516503	2.234598	0.888215
C45	C	-0.925195	1.734579	0.388243
C46	C	-0.425195	2.234579	0.888243
C47	C	-0.852418	1.734571	0.388261
C48	C	-0.352418	2.234571	0.888261
C49	C	-0.761104	1.734551	0.388287
C50	C	-0.261104	2.234551	0.888287
C51	C	-0.178907	1.734422	0.388393
C52	C	0.321093	2.234422	0.888393
C53	C	-0.089286	1.734622	0.388191
C54	C	0.410714	2.234622	0.888191
C55	C	-0.388364	1.734317	0.597882
C56	C	0.111636	2.234317	1.097882
C57	C	-0.388376	1.734379	0.687503
C58	C	0.111624	2.234379	1.187503
C59	C	-0.388407	2.047473	0.388403
C60	C	0.111593	2.547473	0.888403
C61	C	-0.388411	2.180873	0.388408
C62	C	0.111589	2.680873	0.888408
C63	C	-0.388449	1.734578	0.178082
C64	C	0.111551	2.234578	0.678082
C65	C	-0.388471	1.734640	0.088461
C66	C	0.111529	2.234640	0.588461
C67	C	-0.388460	1.734588	1.015679
C68	C	0.111540	2.234588	1.515679
C69	C	-0.388439	1.734526	0.924370
C70	C	0.111561	2.234526	1.424370
C71	C	-0.388418	1.734482	0.851594
C72	C	0.111582	2.234482	1.351594
C73	C	-0.388397	1.734422	0.760280
C74	C	0.111603	2.234422	1.260280
