data_functionalizedCrystal
_audit_creation_method	'MofGen! by Chris Wilmer'
_symmetry_space_group_name_H-M	'P1'
_symmetry_Int_Tables_number	1
_symmetry_cell_setting	triclinic
loop_
_symmetry_equiv_pos_as_xyz
  x,y,z
_cell_length_a	15.995350
_cell_length_b	10.489741
_cell_length_c	15.072220
_cell_angle_alpha	89.999236
_cell_angle_beta	89.991149
_cell_angle_gamma	84.015774
loop_
_atom_site_label
_atom_site_type_symbol
_atom_site_fract_x
_atom_site_fract_y
_atom_site_fract_z
O1	O	1.111987	0.164400	-0.073707
O2	O	0.868334	0.184702	-0.073725
O3	O	0.995705	-0.011125	-0.073710
O4	O	0.984616	0.360226	-0.073722
O5	O	0.995673	-0.011114	0.073855
O6	O	0.868303	0.184713	0.073840
O7	O	1.111955	0.164411	0.073858
Zn8	Zn	0.990124	0.174563	0.097278
Zn9	Zn	0.990166	0.174549	-0.097145
O10	O	0.984585	0.360237	0.073844
C11	C	0.837119	0.183868	0.000055
C12	C	0.744153	0.181352	0.000048
C13	C	0.994852	-0.058639	0.000072
C14	C	0.992346	-0.200234	0.000070
C15	C	0.406351	0.172315	0.000067
C16	C	0.452944	0.032851	0.000401
C17	C	0.549650	0.035368	0.000062
C18	C	0.573939	0.176797	0.000058
C19	C	0.533284	0.245580	-0.084207
C20	C	0.436628	0.242076	-0.084271
C21	C	0.436270	0.244970	0.083538
C22	C	0.533215	0.244937	0.084645
C23	C	0.668651	0.179338	0.000050
C24	C	0.311638	0.169778	0.000069
C25	C	0.911304	-0.267240	0.000057
C26	C	0.949572	-0.359892	0.072818
C27	C	0.949622	-0.359878	-0.072670
C28	C	1.030647	-0.291022	0.072890
C29	C	1.030686	-0.290997	-0.072663
C30	C	1.069013	-0.383624	0.000115
C31	C	1.143171	0.165244	0.000076
C32	C	1.236137	0.167761	0.000077
C33	C	0.985438	0.407752	0.000060
C34	C	0.987944	0.549346	0.000056
N35	N	0.990102	0.174572	0.229967
N36	N	0.990195	0.174530	-0.229834
C37	C	0.990164	0.174544	0.589169
C38	C	0.921777	0.278976	0.551554
C39	C	0.921938	0.279357	0.448728
C40	C	0.990132	0.174558	0.410965
C41	C	1.077672	0.203626	0.448261
C42	C	1.077290	0.204368	0.551119
C43	C	0.971788	0.040735	0.551272
C44	C	0.969788	0.041628	0.448408
C45	C	0.990120	0.174564	0.310251
C46	C	0.990182	0.174541	0.689882
H47	H	0.577739	-0.018699	0.060467
H48	H	1.093361	0.301954	0.575099
C49	C	0.833626	0.255984	0.585007
H50	H	0.837735	0.182496	0.622218
H51	H	0.798459	0.242654	0.535809
H52	H	0.810305	0.328619	0.617654
H53	H	0.856894	0.262038	0.423513
H54	H	0.405128	0.347796	0.084105
H55	H	0.434073	-0.022892	0.060831
H56	H	0.915268	-0.390420	0.134326
C57	C	0.937527	0.412365	0.586447
H58	H	0.985600	0.404690	0.623837
H59	H	0.889945	0.447879	0.619190
H60	H	0.946772	0.466816	0.537835
H61	H	1.129810	0.129587	0.423798
C62	C	0.411500	0.174295	-0.169356
H63	H	0.460344	0.149150	-0.203554
H64	H	0.373877	0.231276	-0.203046
H65	H	0.384791	0.100618	-0.153955
H66	H	1.064895	-0.260664	0.134472
H67	H	0.433029	-0.022644	-0.059693
H68	H	0.844671	-0.216656	0.000126
C69	C	1.159103	-0.451666	0.000175
H70	H	1.187740	-0.428110	0.051908
H71	H	1.188119	-0.427037	-0.051016
H72	H	1.157024	-0.541843	-0.000309
C73	C	0.393893	0.380389	-0.089464
H74	H	0.435628	0.438469	-0.091531
H75	H	0.359473	0.398000	-0.038656
H76	H	0.360227	0.390031	-0.141432
C77	C	0.903304	-0.401081	-0.155770
H78	H	0.847280	-0.360810	-0.155679
H79	H	0.902485	-0.491500	-0.155468
H80	H	0.931565	-0.376323	-0.207434
C81	C	1.076986	-0.249697	-0.155757
H82	H	1.048124	-0.272997	-0.207408
H83	H	1.132695	-0.291150	-0.156277
H84	H	1.078684	-0.159448	-0.154860
C85	C	0.937907	0.413493	0.415467
H86	H	0.944329	0.467961	0.464819
H87	H	0.891617	0.448147	0.380485
H88	H	0.987643	0.407127	0.380589
H89	H	1.129811	0.131304	0.576000
C90	C	0.586862	-0.038161	-0.081682
H91	H	0.542867	-0.069678	-0.114817
H92	H	0.625410	-0.107961	-0.062895
H93	H	0.615257	0.017808	-0.117780
H94	H	0.548036	0.349484	-0.087343
C95	C	0.554806	0.384265	0.091521
H96	H	0.589086	0.402789	0.042673
H97	H	0.584211	0.395063	0.145303
H98	H	0.504434	0.440908	0.090809
H99	H	0.561384	0.197798	-0.146917
H100	H	0.415446	0.199381	0.147409
C101	C	1.099875	0.333955	0.413457
H102	H	1.055916	0.370820	0.376208
H103	H	1.150762	0.321935	0.380585
H104	H	1.106625	0.389529	0.462115
C105	C	0.887349	0.003002	0.586338
H106	H	0.862510	0.068510	0.624423
H107	H	0.896659	-0.075174	0.618375
H108	H	0.850774	-0.007575	0.537843
H109	H	0.560215	0.194726	0.146985
C110	C	0.882790	0.011822	0.415484
H111	H	0.858961	0.080092	0.379066
H112	H	0.847118	0.002426	0.464933
H113	H	0.888624	-0.065432	0.382122
H114	H	1.016301	-0.039726	0.422705
C115	C	1.039137	-0.064254	0.584137
H116	H	1.078270	-0.026795	0.620777
H117	H	1.067678	-0.104530	0.534674
H118	H	1.013013	-0.126194	0.617256
