data_functionalizedCrystal
_audit_creation_method	'MofGen! by Chris Wilmer'
_symmetry_space_group_name_H-M	'P1'
_symmetry_Int_Tables_number	1
_symmetry_cell_setting	triclinic
loop_
_symmetry_equiv_pos_as_xyz
  x,y,z
_cell_length_a	21.395364
_cell_length_b	12.759399
_cell_length_c	12.759393
_cell_angle_alpha	89.973195
_cell_angle_beta	89.976123
_cell_angle_gamma	90.008283
loop_
_atom_site_label
_atom_site_type_symbol
_atom_site_fract_x
_atom_site_fract_y
_atom_site_fract_z
Zn1	Zn	-0.957920	0.418383	0.594129
Zn2	Zn	-0.957855	0.594098	0.418461
Zn3	Zn	-0.853138	0.418416	0.418456
Zn4	Zn	-0.853134	0.594002	0.594089
O5	O	-0.905512	0.506225	0.506284
O6	O	-1.045589	0.441718	0.570846
O7	O	-0.943939	0.570848	0.271439
O8	O	-0.867066	0.271390	0.441774
O9	O	-1.045542	0.570816	0.441783
O10	O	-0.944049	0.271366	0.570841
O11	O	-0.867004	0.441774	0.271435
O12	O	-0.765459	0.441681	0.441735
O13	O	-0.867059	0.570652	0.741115
O14	O	-0.765457	0.570683	0.570772
O15	O	-0.944045	0.441625	0.741145
O16	O	-0.943935	0.741107	0.441744
O17	O	-0.866997	0.741036	0.570777
C18	C	-0.742724	0.506176	0.506249
C19	C	-0.673083	0.506181	0.506259
C20	C	-0.171311	0.439125	0.573586
C21	C	-0.236746	0.439120	0.573588
C22	C	-0.269445	0.506225	0.506286
C23	C	-0.236702	0.573357	0.438995
C24	C	-0.171268	0.573367	0.439003
C25	C	-0.373084	0.514393	0.411604
C26	C	-0.438517	0.514375	0.411595
C27	C	-0.471265	0.506200	0.506263
C28	C	-0.438572	0.498019	0.600944
C29	C	-0.373138	0.498029	0.600951
C30	C	-0.340397	0.506222	0.506271
C31	C	-0.574952	0.439072	0.573557
C32	C	-0.640389	0.439075	0.573561
C33	C	-0.640344	0.573306	0.438958
C34	C	-0.574908	0.573308	0.438964
C35	C	-0.542217	0.506186	0.506262
C36	C	-0.905476	0.779192	0.506279
C37	C	-0.905518	0.895969	0.506313
C38	C	-0.068935	0.506261	0.506311
C39	C	-0.138576	0.506245	0.506300
C40	C	-0.945626	0.950833	0.439205
C41	C	-0.945667	1.060557	0.439248
C42	C	-0.865487	1.060543	0.573509
C43	C	-0.865449	0.950821	0.573470
C44	C	-0.905559	0.506124	0.780317
C45	C	-0.905579	0.506081	0.897094
C46	C	-0.905567	1.232191	0.506329
C47	C	-0.905597	1.115415	0.506394
C48	C	-0.905501	0.506249	0.233316
C49	C	-0.905602	0.505996	0.116540
C50	C	-0.945668	0.438886	0.951973
C51	C	-0.945679	0.438841	1.061697
C52	C	-0.865509	0.573194	1.061653
C53	C	-0.865495	0.573233	0.951931
H54	H	-0.263404	0.384459	0.628379
H55	H	-0.548256	0.627960	0.384168
O56	O	-0.139397	0.638421	0.373584
C57	C	-0.101544	0.578531	0.305807
H58	H	-0.091758	0.498953	0.342987
H59	H	-0.126740	0.566901	0.227964
C60	C	-0.051399	0.734058	0.241035
C61	C	-0.039374	0.636322	0.286704
H62	H	-0.013050	0.769706	0.229246
H63	H	-0.076902	0.774408	0.286694
H64	H	-0.072397	0.724352	0.176171
H65	H	-0.018383	0.646029	0.351573
H66	H	-0.013865	0.595974	0.241055
O67	O	-0.826630	1.113783	0.638887
C68	C	-0.840272	1.086853	0.743610
H69	H	-0.890314	1.056626	0.748982
H70	H	-0.806650	1.023183	0.771000
C71	C	-0.771530	1.221401	0.807149
C72	C	-0.832995	1.184284	0.813749
H73	H	-0.767039	1.281499	0.850416
H74	H	-0.762337	1.239543	0.736595
H75	H	-0.743519	1.168333	0.829972
H76	H	-0.861004	1.237346	0.790913
H77	H	-0.842192	1.166154	0.884301
H78	H	-0.978322	0.384122	1.106375
H79	H	-0.978328	1.105222	0.384604
O80	O	-0.826575	0.897472	0.638774
C81	C	-0.862207	0.833888	0.706644
H82	H	-0.911562	0.866894	0.713221
H83	H	-0.864349	0.750757	0.674132
C84	C	-0.770946	0.791606	0.807739
C85	C	-0.831563	0.832149	0.815823
H86	H	-0.752043	0.790528	0.875084
H87	H	-0.746939	0.834440	0.762012
H88	H	-0.772739	0.722333	0.780641
H89	H	-0.829769	0.901424	0.842908
H90	H	-0.855569	0.789326	0.861557
O91	O	-0.984619	0.373551	0.898865
C92	C	-1.020015	0.314251	0.970838
H93	H	-0.994361	0.310580	1.049042
H94	H	-1.067594	0.352734	0.982521
C95	C	-1.060570	0.206960	0.831982
C96	C	-1.029059	0.202443	0.928031
H97	H	-1.066152	0.137993	0.805576
H98	H	-1.036725	0.246913	0.783491
H99	H	-1.100216	0.239034	0.841730
H100	H	-0.989410	0.170382	0.918279
H101	H	-1.052897	0.162482	0.976519
H102	H	-0.144697	0.384473	0.628390
O103	O	-0.826636	0.638394	1.115087
C104	C	-0.835233	0.623935	1.223699
H105	H	-0.883595	0.589539	1.238706
H106	H	-0.798085	0.567962	1.254830
C107	C	-0.770076	0.772462	1.261585
C108	C	-0.829477	0.730224	1.280018
H109	H	-0.766523	0.838024	1.296327
H110	H	-0.764282	0.782201	1.188411
H111	H	-0.739125	0.725808	1.287528
H112	H	-0.860426	0.776872	1.254064
H113	H	-0.835276	0.720495	1.353189
H114	H	-0.346522	0.491371	0.678043
H115	H	-0.548333	0.384416	0.628355
O116	O	-0.470338	0.489883	0.692933
C117	C	-0.454344	0.394975	0.742797
H118	H	-0.436351	0.336903	0.681990
H119	H	-0.416369	0.410212	0.803562
C120	C	-0.534578	0.420489	0.872008
C121	C	-0.512483	0.349161	0.797322
H122	H	-0.570439	0.392230	0.905646
H123	H	-0.545352	0.484432	0.838417
H124	H	-0.502926	0.433180	0.922636
H125	H	-0.544131	0.336481	0.746689
H126	H	-0.501716	0.285214	0.830906
O127	O	-0.470175	0.522370	0.319538
C128	C	-0.427242	0.529575	0.235982
H129	H	-0.380607	0.560069	0.266568
H130	H	-0.420271	0.448776	0.199713
C131	C	-0.510033	0.567949	0.114821
C132	C	-0.452757	0.605411	0.152385
H133	H	-0.525772	0.614724	0.063251
H134	H	-0.538958	0.563091	0.171113
H135	H	-0.504216	0.500616	0.084604
H136	H	-0.458576	0.672736	0.182613
H137	H	-0.423833	0.610282	0.096096
H138	H	-0.978253	0.906174	0.384523
O139	O	-0.341209	0.522185	0.319689
C140	C	-0.303373	0.432720	0.306294
H141	H	-0.293592	0.395644	0.385921
H142	H	-0.328580	0.373765	0.254170
C143	C	-0.253214	0.510255	0.156714
C144	C	-0.241197	0.464722	0.254514
H145	H	-0.214863	0.529992	0.124769
H146	H	-0.278707	0.570527	0.165735
H147	H	-0.274222	0.461118	0.113290
H148	H	-0.220197	0.513863	0.297940
H149	H	-0.215700	0.404458	0.245499
H150	H	-0.832845	0.627951	0.907247
O151	O	-0.268532	0.638592	0.373763
C152	C	-0.306387	0.706525	0.433467
H153	H	-0.316213	0.669558	0.513144
H154	H	-0.281172	0.784402	0.444891
C155	C	-0.356457	0.770875	0.277763
C156	C	-0.368530	0.725467	0.375620
H157	H	-0.394788	0.782564	0.242080
H158	H	-0.330952	0.725111	0.237538
H159	H	-0.335442	0.835767	0.287296
H160	H	-0.389537	0.660570	0.366085
H161	H	-0.394040	0.771221	0.415843
H162	H	-0.667040	0.384421	0.628360
H163	H	-0.666966	0.627952	0.384168
