data_functionalizedCrystal
_audit_creation_method	'MofGen! by Chris Wilmer'
_symmetry_space_group_name_H-M	'P1'
_symmetry_Int_Tables_number	1
_symmetry_cell_setting	triclinic
loop_
_symmetry_equiv_pos_as_xyz
  x,y,z
_cell_length_a	20.875641
_cell_length_b	23.196402
_cell_length_c	20.875625
_cell_angle_alpha	121.682841
_cell_angle_beta	92.968932
_cell_angle_gamma	57.589996
loop_
_atom_site_label
_atom_site_type_symbol
_atom_site_fract_x
_atom_site_fract_y
_atom_site_fract_z
Zr1	Zr	0.644756	0.588471	0.060501
O2	O	0.544156	0.715370	0.166606
O3	O	0.675593	0.466172	0.027978
O4	O	0.682795	0.585960	0.161527
O5	O	0.531275	0.595958	-0.072294
O6	O	0.792159	0.578747	0.157516
O7	O	0.536953	0.595582	0.033057
O8	O	0.779275	0.364468	-0.081379
O9	O	0.544159	0.810237	0.166601
O10	O	0.770364	0.509388	0.011109
O11	O	0.684509	0.515052	-0.064519
O12	O	0.692989	0.656087	0.092717
O13	O	0.607134	0.661751	0.017089
Zr14	Zr	0.810122	0.577566	-0.113918
Zr15	Zr	0.819179	0.576967	0.054104
Zr16	Zr	0.635699	0.589071	-0.107521
Zr17	Zr	0.644760	0.739773	0.060493
Zr18	Zr	0.810118	0.426264	-0.113910
O19	O	0.779285	0.699865	-0.081395
O20	O	0.792163	0.699012	0.157510
O21	O	0.531278	0.716223	-0.072299
O22	O	0.910722	0.450668	-0.220023
O23	O	0.923600	0.449815	0.018883
O24	O	0.662715	0.467025	-0.210927
O25	O	0.923603	0.570080	0.018877
O26	O	0.772083	0.580077	-0.214944
O27	O	0.662719	0.587290	-0.210933
O28	O	0.917925	0.570456	-0.086474
O29	O	0.682802	0.801092	0.161516
O30	O	0.772076	0.364945	-0.214933
O31	O	0.910719	0.355800	-0.220018
O32	O	0.917918	0.355324	-0.086463
O33	O	0.536960	0.810714	0.033046
O34	O	0.675603	0.801569	0.027962
O35	O	0.761889	0.509950	-0.146134
O36	O	0.847744	0.504286	-0.070506
O37	O	0.770369	0.650985	0.011102
O38	O	0.684513	0.656649	-0.064526
C39	C	0.727433	0.393763	-0.026699
C40	C	0.727432	0.329531	-0.026696
C41	C	0.772242	0.296405	0.012784
C42	C	0.772249	0.236043	0.012778
C43	C	0.727431	0.208823	-0.026698
C44	C	0.682619	0.241954	-0.066188
C45	C	0.682619	0.302308	-0.066187
C46	C	0.656385	0.151479	-0.018224
C47	C	0.656383	0.091130	-0.018219
C48	C	0.727432	0.022668	-0.026706
C49	C	0.798483	0.014570	-0.035182
C50	C	0.798483	0.074924	-0.035181
C51	C	0.727427	0.143379	-0.026704
C52	C	0.772254	-0.075910	0.012769
C53	C	0.772264	-0.136277	0.012757
C54	C	0.682626	-0.130359	-0.066203
C55	C	0.682624	-0.070000	-0.066196
C56	C	0.727436	-0.042776	-0.026706
C57	C	0.509262	0.597409	-0.018707
C58	C	0.435215	0.602293	-0.015991
C59	C	0.440815	0.528014	-0.057310
C60	C	0.371237	0.532608	-0.054757
C61	C	0.296061	0.611481	-0.010879
C62	C	0.290463	0.685766	0.030440
C63	C	0.360040	0.681171	0.027882
C64	C	0.083642	0.633434	0.001336
C65	C	0.014063	0.638024	0.003893
C66	C	0.094842	0.484865	-0.081306
C67	C	0.164417	0.480277	-0.083856
C68	C	0.158813	0.554561	-0.042540
N69	N	0.224940	0.616179	-0.008266
N70	N	0.229933	0.549863	-0.045158
C71	C	0.945616	0.568629	-0.034710
C72	C	1.019663	0.563745	-0.037426
C73	C	0.738768	0.582268	0.183461
C74	C	0.742613	0.582014	0.254791
C75	C	0.727444	0.772275	-0.026718
C76	C	0.727446	0.836506	-0.026721
C77	C	0.770717	0.580165	0.656071
C78	C	0.767102	0.580407	0.589050
C79	C	0.705046	0.584496	0.557746
C80	C	0.646597	0.588351	0.593471
C81	C	0.650210	0.588115	0.660494
C82	C	0.687777	0.585633	0.357538
C83	C	0.684170	0.585866	0.290509
C84	C	0.804674	0.577924	0.286094
C85	C	0.808284	0.577683	0.353115
C86	C	0.749833	0.581543	0.388836
N87	N	0.701350	0.584741	0.489240
N88	N	0.753526	0.581304	0.457345
C89	C	0.716112	0.583768	0.763121
C90	C	0.712274	0.584018	0.691789
C91	C	0.945610	0.379373	-0.034701
C92	C	1.019655	0.310257	-0.037413
C93	C	0.716105	0.394513	-0.236869
C94	C	0.712258	0.330536	-0.308195
C95	C	0.934281	0.380123	-0.244870
C96	C	1.004481	0.311262	-0.318912
C97	C	0.520597	0.785914	0.191453
C98	C	0.450396	0.854775	0.265495
C99	C	0.509268	0.786665	-0.018716
C100	C	0.435223	0.855780	-0.016004
C101	C	0.738773	0.771524	0.183452
C102	C	0.742620	0.835501	0.254778
C103	C	1.014037	0.280463	0.003922
C104	C	1.083605	0.215530	0.001389
C105	C	1.158789	0.180389	-0.042484
C106	C	1.164406	0.210189	-0.083820
C107	C	1.094839	0.275124	-0.081283
C108	C	0.750842	0.297829	-0.384300
C109	C	0.747224	0.237724	-0.451325
C110	C	0.705026	0.210324	-0.442244
C111	C	0.666437	0.243038	-0.366131
C112	C	0.670051	0.303146	-0.299107
C113	C	1.082271	0.275967	-0.314206
C114	C	1.148239	0.211273	-0.383771
C115	C	1.136415	0.181871	-0.458040
C116	C	1.058617	0.217172	-0.462744
C117	C	0.992651	0.281869	-0.393181
C118	C	0.372607	0.890077	0.260789
C119	C	0.306639	0.954790	0.330354
C120	C	0.318463	0.984196	0.404623
C121	C	0.396261	0.948890	0.409327
C122	C	0.462226	0.884183	0.339764
C123	C	0.440841	0.885581	-0.057332
C124	C	0.371275	0.950530	-0.054781
C125	C	0.296090	0.985674	-0.010905
C126	C	0.290473	0.955871	0.030428
C127	C	0.360039	0.890927	0.027881
C128	C	0.784825	0.862882	0.245671
C129	C	0.788455	0.922986	0.312683
C130	C	0.749875	0.955713	0.388801
C131	C	0.707669	0.928326	0.397907
C132	C	0.704044	0.868219	0.330895
H133	H	0.646134	-0.152521	-0.098345
H134	H	0.702090	0.161380	-0.496826
F135	F	0.819951	0.200774	0.054793
H136	H	0.638633	0.329768	-0.237142
H137	H	0.225626	0.416050	-0.119570
F138	F	1.231030	0.173712	-0.378747
F139	F	1.244430	0.172778	-0.130513
F140	F	0.588005	0.592219	0.698509
H141	H	-0.047150	0.702255	0.039627
H142	H	0.808746	-0.053747	0.044922
H143	H	0.598529	0.097732	-0.011314
H144	H	0.752832	1.004656	0.443360
H145	H	0.375803	0.472122	-0.088404
F146	F	0.354077	0.760229	0.071857
H147	H	0.676259	0.954982	0.459891
H148	H	0.669673	0.845933	0.338322
H149	H	1.190136	0.129190	-0.514677
H150	H	1.049002	0.193223	-0.523224
F151	F	0.625572	0.589738	0.395548
F152	F	0.520852	0.848191	-0.104031
H153	H	0.778651	0.211095	-0.513293
H154	H	0.079069	0.693922	0.034993
F155	F	0.795760	0.326976	-0.393983
H156	H	0.646131	-0.043025	-0.098342
H157	H	0.598522	0.207232	-0.011297
H158	H	0.808733	0.318566	0.044937
H159	H	1.091913	0.299897	-0.253739
F160	F	0.223848	0.992351	0.325330
F161	F	0.354047	0.859214	0.071867
F162	F	0.909863	0.319422	-0.398202
F163	F	0.874099	0.066303	-0.044204
F164	F	1.077610	0.183824	0.045385
H165	H	0.856340	-0.041180	-0.042102
H166	H	0.814690	0.577271	0.559969
H167	H	0.808758	-0.163253	0.044903
H168	H	0.362964	0.866140	0.200322
H169	H	1.215429	0.127514	-0.044544
H170	H	0.632080	0.220719	-0.358748
F171	F	0.248248	1.053064	0.478653
H172	H	0.858815	0.574354	0.378601
F173	F	0.934026	0.317854	0.050623
F174	F	0.634926	0.212978	-0.108206
F175	F	0.408832	0.980194	0.488377
F176	F	0.100798	0.405812	-0.125277
H177	H	0.229248	0.749986	0.066162
H178	H	0.646127	0.329280	-0.098336
H179	H	0.525565	0.855440	0.343605
F180	F	0.520821	0.444065	-0.104006
F181	F	0.866876	0.573819	0.248074
F182	F	0.377269	0.982234	-0.098779
F183	F	0.222058	1.054792	-0.008203
F184	F	0.833373	0.952125	0.302976
H185	H	1.099425	0.299374	-0.114948
H186	H	0.821252	0.576831	0.681551
F187	F	0.210449	0.993280	0.077119
F188	F	0.618118	0.590216	0.257197
F189	F	0.825891	0.828061	0.164667
H190	H	0.596067	0.591686	0.567983
