data_functionalizedCrystal
_audit_creation_method	'MofGen! by Chris Wilmer'
_symmetry_space_group_name_H-M	'P1'
_symmetry_Int_Tables_number	1
_symmetry_cell_setting	triclinic
loop_
_symmetry_equiv_pos_as_xyz
  x,y,z
_cell_length_a	18.215405
_cell_length_b	18.215407
_cell_length_c	18.215399
_cell_angle_alpha	90.017587
_cell_angle_beta	89.968171
_cell_angle_gamma	89.976259
loop_
_atom_site_label
_atom_site_type_symbol
_atom_site_fract_x
_atom_site_fract_y
_atom_site_fract_z
Zn1	Zn	-0.292976	-1.125056	-0.416123
Zn2	Zn	-0.416052	-1.124973	-0.293054
Zn3	Zn	-0.293004	-1.001995	-0.293069
Zn4	Zn	-0.416005	-1.001956	-0.416077
O5	O	-0.354509	-1.063495	-0.354581
O6	O	-0.309310	-1.228029	-0.399811
O7	O	-0.399761	-1.108641	-0.190072
O8	O	-0.190016	-1.018370	-0.309418
O9	O	-0.399734	-1.227968	-0.309392
O10	O	-0.189995	-1.108782	-0.399826
O11	O	-0.309358	-1.018289	-0.190083
O12	O	-0.309312	-0.899005	-0.309373
O13	O	-0.399653	-1.018304	-0.519068
O14	O	-0.399681	-0.898977	-0.399747
O15	O	-0.309264	-1.108745	-0.519102
O16	O	-0.519030	-1.108604	-0.309347
O17	O	-0.518996	-1.018224	-0.399732
C18	C	-0.354495	-0.872289	-0.354557
C19	C	-0.354507	-0.790490	-0.354565
C20	C	-0.401634	-0.602300	-0.401560
C21	C	-0.401635	-0.525442	-0.401569
C22	C	-0.307389	-0.525441	-0.307604
C23	C	-0.307384	-0.602299	-0.307600
C24	C	-0.354511	-0.640726	-0.354577
C25	C	-0.354517	-0.487010	-0.354589
C26	C	-0.354519	-0.403676	-0.354598
C27	C	-0.354509	-0.724065	-0.354570
C28	C	-0.545716	-1.063421	-0.354549
C29	C	-0.627514	-1.063456	-0.354560
C30	C	-0.892566	-1.110655	-0.307596
C31	C	-0.815707	-1.110624	-0.307580
C32	C	-0.815712	-1.016426	-0.401615
C33	C	-0.892569	-1.016453	-0.401628
C34	C	-0.930994	-1.063572	-0.354619
C35	C	-0.777278	-1.063514	-0.354590
C36	C	-0.693944	-1.063481	-0.354572
C37	C	-1.014333	-1.063604	-0.354636
C38	C	-0.162556	-1.063589	-0.354629
C39	C	-0.080757	-1.063630	-0.354649
C40	C	-0.354451	-1.063530	-0.546534
C41	C	-0.354425	-1.063544	-0.628333
C42	C	-0.354522	-0.255448	-0.354602
C43	C	-0.354521	-0.337247	-0.354602
C44	C	-0.307321	-1.016538	-0.816534
C45	C	-0.307306	-1.016551	-0.893392
C46	C	-0.401442	-1.110639	-0.893370
C47	C	-0.401460	-1.110622	-0.816513
C48	C	-0.354395	-1.063572	-0.778096
C49	C	-0.354363	-1.063602	-0.931813
C50	C	-0.354347	-1.063616	-1.015146
C51	C	-0.354412	-1.063557	-0.694757
C52	C	-0.354515	-1.063503	-0.163375
C53	C	-0.354333	-1.063630	-0.081576
H54	H	-0.269022	-0.494144	-0.269356
O55	O	-0.447222	-1.156369	-0.930575
C56	C	-0.488763	-1.197892	-0.880166
H57	H	-0.491326	-1.167734	-0.825377
H58	H	-0.461815	-1.253794	-0.872002
C59	C	-0.563933	-1.245516	-0.977432
C60	C	-0.567085	-1.208471	-0.910141
H61	H	-0.612245	-1.252045	-0.995922
H62	H	-0.535945	-1.217543	-1.011394
H63	H	-0.541473	-1.292096	-0.970620
H64	H	-0.589536	-1.161888	-0.916955
H65	H	-0.595079	-1.236437	-0.876180
H66	H	-0.268998	-0.978228	-0.785257
O67	O	-0.778264	-1.156293	-0.261926
C68	C	-0.702188	-1.146180	-0.272003
H69	H	-0.691716	-1.089364	-0.296044
H70	H	-0.680313	-1.189795	-0.311234
C71	C	-0.675642	-1.222745	-0.168011
C72	C	-0.662780	-1.152961	-0.197534
H73	H	-0.651332	-1.226931	-0.122077
H74	H	-0.726896	-1.229561	-0.161224
H75	H	-0.657412	-1.259083	-0.200711
H76	H	-0.681018	-1.116624	-0.164839
H77	H	-0.611528	-1.146138	-0.204314
O78	O	-0.778270	-0.970731	-0.447258
C79	C	-0.702193	-0.980791	-0.437153
H80	H	-0.691670	-1.037598	-0.413105
H81	H	-0.680443	-0.937158	-0.397916
C82	C	-0.675612	-0.904211	-0.541138
C83	C	-0.662687	-0.973985	-0.511608
H84	H	-0.651241	-0.900010	-0.587065
H85	H	-0.726866	-0.897431	-0.547945
H86	H	-0.657486	-0.867858	-0.508434
H87	H	-0.680820	-1.010336	-0.544308
H88	H	-0.611434	-0.980771	-0.504809
H89	H	-0.439797	-1.148924	-0.785216
O90	O	-0.929870	-0.970793	-0.447416
C91	C	-0.911013	-0.986805	-0.520777
H92	H	-0.889836	-1.045586	-0.524550
H93	H	-0.866419	-0.947318	-0.539968
C94	C	-1.005271	-0.906035	-0.565257
C95	C	-0.979267	-0.978233	-0.569892
H96	H	-1.047372	-0.900745	-0.595555
H97	H	-1.017974	-0.895245	-0.515832
H98	H	-0.968103	-0.873138	-0.581249
H99	H	-1.016432	-1.011128	-0.553892
H100	H	-0.966572	-0.989029	-0.619316
O101	O	-0.447428	-0.639516	-0.447267
C102	C	-0.489031	-0.589115	-0.488725
H103	H	-0.458894	-0.534340	-0.491326
H104	H	-0.544893	-0.580911	-0.461680
C105	C	-0.536743	-0.686408	-0.563836
C106	C	-0.499724	-0.619134	-0.567036
H107	H	-0.543342	-0.704926	-0.612142
H108	H	-0.508716	-0.720365	-0.535904
H109	H	-0.583290	-0.679563	-0.541296
H110	H	-0.453174	-0.625982	-0.589568
H111	H	-0.527743	-0.585179	-0.594974
O112	O	-0.447307	-0.488082	-0.447285
C113	C	-0.405470	-0.443646	-0.494885
H114	H	-0.347513	-0.466830	-0.499533
H115	H	-0.402910	-0.385389	-0.472142
C116	C	-0.512704	-0.414008	-0.565616
C117	C	-0.441521	-0.442487	-0.571330
H118	H	-0.534943	-0.413289	-0.612771
H119	H	-0.540891	-0.443943	-0.533546
H120	H	-0.510561	-0.365462	-0.546661
H121	H	-0.443666	-0.491034	-0.590277
H122	H	-0.413335	-0.412559	-0.603406
H123	H	-0.269007	-0.633586	-0.269341
H124	H	-0.923849	-1.149021	-0.269319
H125	H	-0.268974	-0.978250	-0.924684
