data_functionalizedCrystal
_audit_creation_method	'MofGen! by Chris Wilmer'
_symmetry_space_group_name_H-M	'P1'
_symmetry_Int_Tables_number	1
_symmetry_cell_setting	triclinic
loop_
_symmetry_equiv_pos_as_xyz
  x,y,z
_cell_length_a	8.559649
_cell_length_b	15.072220
_cell_length_c	8.597304
_cell_angle_alpha	97.700866
_cell_angle_beta	77.624695
_cell_angle_gamma	90.011665
loop_
_atom_site_label
_atom_site_type_symbol
_atom_site_fract_x
_atom_site_fract_y
_atom_site_fract_z
O1	O	2.119316	0.069705	-0.053155
O2	O	1.655378	0.075893	0.027745
O3	O	1.896472	0.055248	-0.242270
O4	O	1.878222	0.090350	0.216860
O5	O	1.896411	-0.092315	-0.242249
O6	O	1.655318	-0.071671	0.027765
O7	O	2.119256	-0.077858	-0.053134
Zn8	Zn	1.887277	-0.098193	-0.012681
Zn9	Zn	1.887357	0.096228	-0.012708
O10	O	1.878162	-0.057214	0.216880
C11	C	1.595914	0.002580	0.033886
C12	C	1.418819	0.003977	0.052135
N13	N	1.887234	-0.230881	-0.012665
C14	C	1.887353	-0.590086	-0.012714
C15	C	1.757902	-0.541462	0.131387
C16	C	1.758211	-0.438603	0.131819
C17	C	1.887293	-0.411880	-0.012689
C18	C	2.054259	-0.447977	0.002953
C19	C	2.053536	-0.550758	0.003953
C20	C	1.851317	-0.564442	-0.173016
C21	C	1.847515	-0.461459	-0.171460
C22	C	1.887269	-0.311166	-0.012680
C23	C	1.887388	-0.690800	-0.012722
C24	C	2.178720	-0.004544	-0.059275
C25	C	2.355814	-0.005935	-0.077524
C26	C	1.894479	-0.022984	-0.300494
C27	C	1.888611	-0.036244	-0.474012
N28	N	1.887412	0.228914	-0.012739
C29	C	1.880155	0.021020	0.275104
C30	C	1.886022	0.034286	0.448622
H31	H	1.437356	-0.015484	-0.202492
C32	C	1.885527	-0.131538	-0.563865
N33	N	1.883204	-0.203313	-0.631545
C34	C	1.978800	-0.608353	-0.317568
N35	N	2.074824	-0.641432	-0.426433
H36	H	1.337269	0.013536	0.177111
C37	C	1.589815	-0.575546	0.123362
N38	N	1.463210	-0.601230	0.117322
C39	C	1.788933	-0.564104	0.291781
N40	N	1.812311	-0.581160	0.412588
C41	C	1.590648	-0.405196	0.123254
N42	N	1.464430	-0.380037	0.116815
C43	C	1.789668	-0.393018	0.293086
N44	N	1.813371	-0.358684	0.414557
H45	H	2.152995	-0.431383	-0.100050
C46	C	2.097547	-0.401314	0.158114
N47	N	2.130139	-0.366172	0.274990
C48	C	1.889107	0.129576	-0.461531
N49	N	1.891434	0.201349	-0.393849
C50	C	2.095878	-0.571146	0.161076
N51	N	2.127758	-0.586497	0.279431
C52	C	2.187792	-0.594899	-0.133817
N53	N	2.288930	-0.628141	-0.237566
H54	H	1.732071	-0.591962	-0.193036
H55	H	1.724680	-0.438029	-0.183798
H56	H	1.935480	-0.444215	-0.282164
