data_functionalizedCrystal
_audit_creation_method	'MofGen! by Chris Wilmer'
_symmetry_space_group_name_H-M	'P1'
_symmetry_Int_Tables_number	1
_symmetry_cell_setting	triclinic
loop_
_symmetry_equiv_pos_as_xyz
  x,y,z
_cell_length_a	16.625548
_cell_length_b	12.645330
_cell_length_c	12.645324
_cell_angle_alpha	89.968341
_cell_angle_beta	89.978231
_cell_angle_gamma	90.018760
loop_
_atom_site_label
_atom_site_type_symbol
_atom_site_fract_x
_atom_site_fract_y
_atom_site_fract_z
Zn1	Zn	1.232717	-0.421930	-0.599440
Zn2	Zn	1.732717	0.078070	-0.099440
Zn3	Zn	1.232628	-0.599239	-0.422180
Zn4	Zn	1.732628	-0.099239	0.077820
Zn5	Zn	1.097876	-0.421993	-0.422185
Zn6	Zn	1.597876	0.078007	0.077815
Zn7	Zn	1.097860	-0.599155	-0.599396
Zn8	Zn	1.597860	-0.099155	-0.099396
O9	O	1.165270	-0.510579	-0.510801
O10	O	1.665270	-0.010579	-0.010801
O11	O	1.345537	-0.445459	-0.575943
O12	O	1.845537	0.054541	-0.075943
O13	O	1.214723	-0.575788	-0.273834
O14	O	1.714723	-0.075788	0.226166
O15	O	1.115806	-0.273637	-0.445719
O16	O	1.615806	0.226363	0.054281
O17	O	1.345473	-0.575727	-0.445711
O18	O	1.845473	-0.075727	0.054289
O19	O	1.214873	-0.273591	-0.575948
O20	O	1.714873	0.226409	-0.075948
O21	O	1.115721	-0.445567	-0.273837
O22	O	1.615721	0.054433	0.226163
O23	O	0.985041	-0.445485	-0.445677
O24	O	1.485041	0.054515	0.054323
O25	O	1.115780	-0.575584	-0.747750
O26	O	1.615780	-0.075584	-0.247750
O27	O	0.985030	-0.575645	-0.575873
O28	O	1.485030	-0.075645	-0.075873
O29	O	1.214858	-0.445377	-0.747782
O30	O	1.714858	0.054623	-0.247782
O31	O	1.214708	-0.747575	-0.445668
O32	O	1.714708	-0.247575	0.054332
O33	O	1.115694	-0.747513	-0.575868
O34	O	1.615694	-0.247513	-0.075868
C35	C	0.955779	-0.510564	-0.510771
C36	C	1.455779	-0.010564	-0.010771
C37	C	0.866158	-0.510583	-0.510783
C38	C	1.366158	-0.010583	-0.010783
C39	C	0.537983	-0.510590	-0.510829
C40	C	1.037983	-0.010590	-0.010829
C41	C	0.629291	-0.510585	-0.510813
C42	C	1.129291	-0.010585	-0.010813
C43	C	0.702068	-0.510587	-0.510805
C44	C	1.202068	-0.010587	-0.010805
C45	C	0.793382	-0.510581	-0.510791
C46	C	1.293382	-0.010581	-0.010791
C47	C	1.165211	-0.786009	-0.510786
C48	C	1.665211	-0.286009	-0.010786
C49	C	1.165260	-0.903839	-0.510815
C50	C	1.665260	-0.403839	-0.010815
C51	C	1.103228	-1.071408	-0.592976
C52	C	1.603228	-0.571408	-0.092976
C53	C	1.102910	-0.948849	-0.592712
C54	C	1.602910	-0.448849	-0.092712
C55	C	1.142257	-0.948447	-0.399093
C56	C	1.642257	-0.448447	0.100907
C57	C	1.141878	-1.071045	-0.399592
C58	C	1.641878	-0.571045	0.100408
C59	C	1.250676	-1.070923	-0.539469
C60	C	1.750676	-0.570923	-0.039469
C61	C	1.250152	-0.948316	-0.541912
C62	C	1.750152	-0.448316	-0.041912
C63	C	1.375579	-0.510595	-0.510831
C64	C	1.875579	-0.010595	-0.010831
C65	C	1.465200	-0.510602	-0.510844
C66	C	1.965200	-0.010602	-0.010844
C67	C	1.165327	-0.510464	-0.787306
C68	C	1.665327	-0.010464	-0.287306
C69	C	1.165351	-0.510415	-0.905136
C70	C	1.665351	-0.010415	-0.405136
C71	C	1.165351	-0.234074	-0.510839
C72	C	1.665351	0.265926	-0.010839
C73	C	1.165386	-0.116244	-0.510855
C74	C	1.665386	0.383756	-0.010855
C75	C	1.227696	-0.428485	-0.950038
C76	C	1.727696	0.071515	-0.450038
C77	C	1.227963	-0.428699	-1.072598
C78	C	1.727963	0.071301	-0.572598
C79	C	1.188136	-0.622184	-1.073017
C80	C	1.688136	-0.122184	-0.573017
C81	C	1.188565	-0.621738	-0.950419
C82	C	1.688565	-0.121738	-0.450419
C83	C	1.080115	-0.481495	-0.950307
C84	C	1.580115	0.018505	-0.450307
C85	C	1.080595	-0.479003	-1.072914
C86	C	1.580595	0.020997	-0.572914
C87	C	1.165260	-0.510617	-0.235371
C88	C	1.665260	-0.010617	0.264629
C89	C	1.165392	-0.510367	-0.117541
C90	C	1.665392	-0.010367	0.382459
H91	H	1.117303	-0.918685	-0.675553
H92	H	1.617303	-0.418685	-0.175553
O93	O	1.052603	-0.375348	-0.909352
O94	O	1.552603	0.124652	-0.409352
H95	H	0.995601	-0.385297	-0.864716
H96	H	1.495601	0.114703	-0.364716
O97	O	1.019994	-1.112335	-0.568180
O98	O	1.519994	-0.612335	-0.068180
H99	H	0.996913	-1.157890	-0.636768
H100	H	1.496913	-0.657890	-0.136768
O101	O	1.269763	-0.655153	-1.113688
O102	O	1.769763	-0.155153	-0.613688
H103	H	1.315574	-0.596768	-1.087853
H104	H	1.815574	-0.096768	-0.587853
O105	O	1.057859	-0.370002	-1.111457
O106	O	1.557859	0.129998	-0.611457
H107	H	1.106740	-0.338290	-1.162193
H108	H	1.606740	0.161710	-0.662193
O109	O	1.310883	-0.453581	-0.909256
O110	O	1.810883	0.046419	-0.409256
H111	H	1.334154	-0.385093	-0.863710
H112	H	1.834154	0.114907	-0.363710
O113	O	1.015826	-0.552285	-1.113341
O114	O	1.515826	-0.052285	-0.613341
H115	H	1.043183	-0.612471	-1.166114
H116	H	1.543183	-0.112471	-0.666114
O117	O	1.311639	-0.454078	-1.111471
O118	O	1.811639	0.045922	-0.611471
H119	H	1.312125	-0.454309	-1.199243
H120	H	1.812125	0.045691	-0.699243
O121	O	1.121818	-1.110862	-0.702976
O122	O	1.621818	-0.610862	-0.202976
H123	H	1.175596	-1.162783	-0.700311
H124	H	1.675596	-0.662783	-0.200311
O125	O	1.129848	-0.705244	-1.111563
O126	O	1.629848	-0.205244	-0.611563
H127	H	1.163004	-0.766179	-1.157257
H128	H	1.663004	-0.266179	-0.657257
O129	O	1.019163	-0.910113	-0.567574
O130	O	1.519163	-0.410113	-0.067574
H131	H	0.978733	-0.978948	-0.555550
H132	H	1.478733	-0.478948	-0.055550
H133	H	1.271660	-1.101757	-0.619552
H134	H	1.771660	-0.601757	-0.119552
O135	O	1.059293	-1.109070	-0.367493
O136	O	1.559293	-0.609070	0.132507
H137	H	1.020001	-1.039893	-0.351766
H138	H	1.520001	-0.539893	0.148234
H139	H	1.145097	-0.684862	-0.920712
H140	H	1.645097	-0.184862	-0.420712
H141	H	1.185187	-1.100709	-0.336318
H142	H	1.685187	-0.600709	0.163682
H143	H	1.186094	-0.919295	-0.336234
H144	H	1.686094	-0.419295	0.163766
O145	O	1.060529	-0.907920	-0.366394
O146	O	1.560529	-0.407920	0.133606
H147	H	1.036163	-0.856022	-0.429527
H148	H	1.536163	-0.356022	0.070473
O149	O	1.273150	-0.909676	-0.650813
O150	O	1.773150	-0.409676	-0.150813
H151	H	1.224329	-0.859000	-0.682666
H152	H	1.724329	-0.359000	-0.182666
O153	O	1.271085	-0.654127	-0.912542
O154	O	1.771085	-0.154127	-0.412542
H155	H	1.310311	-0.669956	-0.981789
H156	H	1.810311	-0.169956	-0.481789
O157	O	1.018583	-0.560518	-0.911830
O158	O	1.518583	-0.060518	-0.411830
H159	H	1.048511	-0.620105	-0.860783
H160	H	1.548511	-0.120105	-0.360783
H161	H	1.298902	-0.917671	-0.486455
H162	H	1.798902	-0.417671	0.013545
O163	O	1.312065	-1.109563	-0.460421
O164	O	1.812065	-0.609563	0.039579
H165	H	1.282024	-1.160768	-0.401016
H166	H	1.782024	-0.660768	0.098984
H167	H	1.213752	-0.345801	-1.102705
H168	H	1.713752	0.154199	-0.602705
H169	H	1.213652	-0.345336	-0.920583
H170	H	1.713652	0.154664	-0.420583
