data_functionalizedCrystal
_audit_creation_method	'MofGen! by Chris Wilmer'
_symmetry_space_group_name_H-M	'P1'
_symmetry_Int_Tables_number	1
_symmetry_cell_setting	triclinic
loop_
_symmetry_equiv_pos_as_xyz
  x,y,z
_cell_length_a	15.944551
_cell_length_b	19.188930
_cell_length_c	14.421503
_cell_angle_alpha	89.999163
_cell_angle_beta	89.996859
_cell_angle_gamma	83.321760
loop_
_atom_site_label
_atom_site_type_symbol
_atom_site_fract_x
_atom_site_fract_y
_atom_site_fract_z
O1	O	1.114192	0.090038	-0.077026
O2	O	0.869601	0.101140	-0.077050
O3	O	0.998955	-0.006048	-0.077019
O4	O	0.984838	0.197227	-0.077057
O5	O	0.998934	-0.006032	0.077204
O6	O	0.869580	0.101156	0.077173
O7	O	1.114171	0.090054	0.077198
Cu8	Cu	0.991873	0.095607	0.091267
Cu9	Cu	0.991899	0.095588	-0.091120
O10	O	0.984817	0.197243	0.077167
C11	C	0.838298	0.100687	0.000059
C12	C	0.745057	0.099306	0.000050
C13	C	0.998487	-0.032052	0.000095
C14	C	0.997115	-0.109560	0.000103
C15	C	0.530462	0.029563	0.000081
C16	C	0.469331	0.061941	-0.075965
C17	C	0.574341	0.096806	0.000062
C18	C	0.469332	0.061973	0.076087
C19	C	0.409437	0.094386	0.000077
C20	C	0.514438	0.129203	-0.076047
C21	C	0.514446	0.129225	0.076073
C22	C	0.453332	0.161652	0.000008
C23	C	0.669338	0.098198	0.000052
C24	C	0.314441	0.093000	0.000080
C25	C	1.073016	-0.154288	0.000115
C26	C	1.071726	-0.227115	0.000100
C27	C	0.994532	-0.255211	0.000092
C28	C	0.918622	-0.210474	0.000075
C29	C	0.919913	-0.137648	0.000080
N30	N	0.935519	-0.363364	0.052571
N31	N	0.934298	-0.432545	0.052568
C32	C	0.990637	-0.474630	0.000073
N33	N	1.048256	-0.444921	-0.052407
N34	N	1.049480	-0.375733	-0.052400
C35	C	0.993123	-0.334178	0.000085
C36	C	1.065145	-0.598326	0.000067
C37	C	1.063852	-0.671154	0.000046
C38	C	0.910745	-0.654511	0.000030
C39	C	0.912040	-0.581685	0.000041
C40	C	0.989242	-0.553597	0.000064
C41	C	1.145474	0.090507	0.000087
C42	C	1.238715	0.091889	0.000089
C43	C	0.985285	0.223247	0.000050
C44	C	0.986657	0.300755	0.000036
N45	N	0.991862	0.095619	0.219549
N46	N	0.991917	0.095569	-0.219401
C47	C	0.932038	0.145161	0.469188
C48	C	1.007887	0.158716	0.530995
C49	C	0.991882	0.095603	0.408710
C50	C	0.916052	0.082064	0.530997
C51	C	0.991895	0.095588	0.591431
C52	C	1.067770	0.109189	0.469157
C53	C	0.975885	0.032510	0.469153
C54	C	1.051789	0.046038	0.530932
C55	C	0.991874	0.095613	0.303449
C56	C	0.991913	0.095578	0.696690
H57	H	0.449336	0.033493	-0.140247
H58	H	1.021430	0.212066	0.558159
H59	H	0.855769	-0.233354	0.000066
H60	H	0.858103	-0.101230	0.000071
H61	H	0.534462	0.157649	0.140358
H62	H	1.128007	-0.575456	0.000081
H63	H	1.125662	-0.707571	0.000051
C64	C	1.119216	-0.009943	0.566913
C65	C	1.081181	-0.058507	0.620299
C66	C	1.143268	-0.110088	0.653451
H67	H	1.158316	0.011374	0.604058
H68	H	1.148026	-0.033317	0.516034
H69	H	1.052386	-0.035136	0.671171
H70	H	1.042088	-0.079841	0.583174
H71	H	1.172078	-0.133462	0.602572
H72	H	1.182364	-0.088765	0.690592
H73	H	1.117470	-0.143049	0.689670
C74	C	0.864509	0.201038	0.433156
C75	C	0.785369	0.187367	0.465849
C76	C	0.723149	0.238831	0.432684
H77	H	0.864525	0.200421	0.367295
H78	H	0.875966	0.245843	0.454360
H79	H	0.773915	0.142573	0.444641
H80	H	0.785325	0.187990	0.531707
H81	H	0.734605	0.283636	0.453888
H82	H	0.723172	0.238210	0.366824
H83	H	0.669446	0.229566	0.454868
H84	H	0.847892	-0.677386	0.000019
H85	H	0.850233	-0.545266	0.000037
H86	H	0.962318	-0.020823	0.441967
C87	C	0.575122	-0.044870	-0.000197
C88	C	0.552410	-0.079762	-0.079998
C89	C	0.593547	-0.148323	-0.080299
H90	H	0.559073	-0.069082	0.053214
H91	H	0.634490	-0.043495	0.000302
H92	H	0.493054	-0.081140	-0.080489
H93	H	0.568460	-0.055571	-0.133423
H94	H	0.652915	-0.146949	-0.079800
H95	H	0.577495	-0.172529	-0.026884
H96	H	0.578149	-0.172004	-0.134447
C97	C	0.541125	0.167032	-0.161838
C98	C	0.628814	0.167840	-0.160876
C99	C	0.653431	0.202671	-0.239896
H100	H	0.514105	0.213837	-0.162147
H101	H	0.525372	0.143294	-0.215791
H102	H	0.644559	0.191580	-0.106938
H103	H	0.655855	0.121045	-0.160580
H104	H	0.637678	0.178933	-0.293849
H105	H	0.626406	0.249474	-0.240199
H106	H	0.712931	0.203219	-0.239258
C107	C	0.408876	0.236152	-0.000249
C108	C	0.431740	0.271016	-0.080013
C109	C	0.390794	0.339642	-0.080291
H110	H	0.424973	0.260306	0.053189
H111	H	0.349487	0.234899	0.000215
H112	H	0.491116	0.272273	-0.080468
H113	H	0.415642	0.246884	-0.133463
H114	H	0.331404	0.338388	-0.079828
H115	H	0.406894	0.363789	-0.026851
H116	H	0.406295	0.363303	-0.134414
H117	H	1.135880	-0.131424	0.000131
H118	H	0.851919	0.070620	0.558163
C119	C	0.442810	0.023936	0.161779
C120	C	0.482259	-0.045175	0.161431
C121	C	0.457858	-0.080238	0.240356
H122	H	0.383280	0.023628	0.161539
H123	H	0.459044	0.047335	0.215800
H124	H	0.466019	-0.068569	0.107425
H125	H	0.541788	-0.044888	0.161686
H126	H	0.474093	-0.056838	0.294376
H127	H	0.398328	-0.080540	0.240108
H128	H	0.484626	-0.127131	0.240134
C129	C	1.154228	-0.275572	0.000164
C130	C	1.222113	-0.235387	0.000205
C131	C	1.298124	-0.279998	0.000277
H132	H	1.157037	-0.304343	-0.053603
H133	H	1.156937	-0.304318	0.053966
H134	H	1.219405	-0.206654	-0.053592
H135	H	1.219331	-0.206618	0.053968
H136	H	1.300833	-0.308744	0.054080
H137	H	1.300925	-0.308767	-0.053490
H138	H	1.344193	-0.252739	0.000314
C139	C	1.153212	0.124617	0.432916
C140	C	1.152180	0.124516	0.335838
C141	C	1.230857	0.138761	0.302420
H142	H	1.195852	0.089665	0.454433
H143	H	1.164636	0.169311	0.454573
H144	H	1.140766	0.079828	0.314190
H145	H	1.109557	0.159468	0.314296
H146	H	1.242281	0.183456	0.324076
H147	H	1.273491	0.103808	0.323942
H148	H	1.230165	0.138702	0.236549
