data_functionalizedCrystal
_audit_creation_method	'MofGen! by Chris Wilmer'
_symmetry_space_group_name_H-M	'P1'
_symmetry_Int_Tables_number	1
_symmetry_cell_setting	triclinic
loop_
_symmetry_equiv_pos_as_xyz
  x,y,z
_cell_length_a	18.101398
_cell_length_b	18.101397
_cell_length_c	16.625539
_cell_angle_alpha	90.031854
_cell_angle_beta	90.025913
_cell_angle_gamma	90.015732
loop_
_atom_site_label
_atom_site_type_symbol
_atom_site_fract_x
_atom_site_fract_y
_atom_site_fract_z
Zn1	Zn	1.132187	-0.294922	0.456004
Zn2	Zn	1.632187	0.205078	0.956004
Zn3	Zn	1.132103	-0.418771	0.321163
Zn4	Zn	1.632103	0.081229	0.821163
Zn5	Zn	1.008343	-0.294937	0.321172
Zn6	Zn	1.508343	0.205063	0.821172
Zn7	Zn	1.008320	-0.418716	0.455941
Zn8	Zn	1.508320	0.081284	0.955941
O9	O	1.070238	-0.356836	0.388570
O10	O	1.570238	0.143164	0.888570
O11	O	1.235809	-0.311367	0.438140
O12	O	1.735809	0.188633	0.938140
O13	O	1.115660	-0.402374	0.208332
O14	O	1.615660	0.097626	0.708332
O15	O	1.024816	-0.191302	0.339089
O16	O	1.524816	0.308698	0.839089
O17	O	1.235747	-0.402358	0.339073
O18	O	1.735747	0.097642	0.839073
O19	O	1.115804	-0.191291	0.438149
O20	O	1.615804	0.308709	0.938149
O21	O	1.024734	-0.311394	0.208339
O22	O	1.524734	0.188606	0.708339
O23	O	0.904707	-0.311340	0.339027
O24	O	1.404707	0.188660	0.839027
O25	O	1.024777	-0.402265	0.568781
O26	O	1.524777	0.097735	1.068781
O27	O	0.904690	-0.402280	0.438040
O28	O	1.404690	0.097720	0.938040
O29	O	1.115782	-0.311314	0.568828
O30	O	1.615782	0.188686	1.068828
O31	O	1.115638	-0.522396	0.339011
O32	O	1.615638	-0.022396	0.839011
O33	O	1.024695	-0.522356	0.438032
O34	O	1.524695	-0.022356	0.938032
C35	C	0.877828	-0.356806	0.388528
C36	C	1.377828	0.143194	0.888528
C37	C	0.795514	-0.356811	0.388529
C38	C	1.295514	0.143189	0.888529
C39	C	0.496423	-0.356858	0.388597
C40	C	0.996423	0.143142	0.888597
C41	C	0.527734	-0.299355	0.326604
C42	C	1.027734	0.200645	0.826604
C43	C	0.613352	-0.299509	0.326340
C44	C	1.113352	0.200491	0.826340
C45	C	0.644805	-0.356834	0.388563
C46	C	1.144805	0.143166	0.888563
C47	C	0.613701	-0.434846	0.365342
C48	C	1.113701	0.065154	0.865342
C49	C	0.528056	-0.434526	0.364911
C50	C	1.028056	0.065474	0.864911
C51	C	0.528036	-0.337026	0.473957
C52	C	1.028036	0.162974	0.973957
C53	C	0.613686	-0.335289	0.473491
C54	C	1.113686	0.164711	0.973491
C55	C	0.728665	-0.356825	0.388546
C56	C	1.228665	0.143175	0.888546
C57	C	0.412563	-0.356871	0.388613
C58	C	0.912563	0.143129	0.888613
C59	C	1.070175	-0.549247	0.388531
C60	C	1.570175	-0.049247	0.888531
C61	C	1.070216	-0.631561	0.388541
C62	C	1.570216	-0.131561	0.888541
C63	C	1.070310	-0.930652	0.388615
C64	C	1.570310	-0.430652	0.888615
C65	C	1.127369	-0.899321	0.326147
C66	C	1.627369	-0.399321	0.826147
C67	C	1.127567	-0.813703	0.326309
C68	C	1.627567	-0.313703	0.826309
C69	C	1.070263	-0.782269	0.388578
C70	C	1.570263	-0.282269	0.888578
C71	C	1.091421	-0.813277	0.473570
C72	C	1.591421	-0.313277	0.973570
C73	C	1.091863	-0.898922	0.473230
C74	C	1.591863	-0.398922	0.973230
C75	C	0.991941	-0.899155	0.366826
C76	C	1.491941	-0.399155	0.866826
C77	C	0.992328	-0.813506	0.364929
C78	C	1.492328	-0.313506	0.864929
C79	C	1.070235	-0.698410	0.388562
C80	C	1.570235	-0.198410	0.888562
C81	C	1.070340	-1.014511	0.388636
C82	C	1.570340	-0.514511	0.888636
C83	C	1.263400	-0.356867	0.388613
C84	C	1.763400	0.143133	0.888613
C85	C	1.345714	-0.356880	0.388631
C86	C	1.845714	0.143120	0.888631
C87	C	1.070286	-0.356781	0.598879
C88	C	1.570286	0.143219	1.098879
C89	C	1.070307	-0.356758	0.688500
C90	C	1.570307	0.143242	1.188500
C91	C	1.070322	-0.163674	0.388627
C92	C	1.570322	0.336326	0.888627
C93	C	1.070358	-0.081360	0.388651
C94	C	1.570358	0.418640	0.888651
C95	C	1.070233	-0.356838	0.179079
C96	C	1.570233	0.143162	0.679079
C97	C	1.070356	-0.356653	0.089459
C98	C	1.570356	0.143347	0.589459
C99	C	1.070341	-0.356675	1.016676
C100	C	1.570341	0.143325	1.516676
C101	C	1.070330	-0.356700	0.925368
C102	C	1.570330	0.143300	1.425368
C103	C	1.070324	-0.356717	0.852591
C104	C	1.570324	0.143283	1.352591
C105	C	1.070312	-0.356741	0.761277
C106	C	1.570312	0.143259	1.261277
H107	H	0.508045	-0.451344	0.302508
H108	H	1.008045	0.048656	0.802508
C109	C	1.205994	-0.785952	0.345780
C110	C	1.705994	-0.285952	0.845780
N111	N	1.265069	-0.765051	0.360446
N112	N	1.765069	-0.265051	0.860446
H113	H	1.114330	-0.792741	0.263289
H114	H	1.614330	-0.292741	0.763289
C115	C	0.641147	-0.257728	0.497143
C116	C	1.141147	0.242272	0.997143
N117	N	0.661832	-0.199308	0.514953
N118	N	1.161832	0.300692	1.014953
H119	H	0.635100	-0.374119	0.522156
H120	H	1.135100	0.125881	1.022156
H121	H	0.633806	-0.312619	0.263089
H122	H	1.133806	0.187381	0.763089
H123	H	0.634382	-0.241660	0.340896
H124	H	1.134382	0.258340	0.840896
C125	C	1.169254	-0.925839	0.498153
C126	C	1.669254	-0.425839	0.998153
N127	N	1.227549	-0.946110	0.516921
N128	N	1.727549	-0.446110	1.016921
C129	C	0.499927	-0.220963	0.346048
C130	C	0.999927	0.279037	0.846048
N131	N	0.478977	-0.161916	0.360694
N132	N	0.978977	0.338084	0.860694
C133	C	0.500678	-0.393605	0.536359
C134	C	1.000678	0.106395	1.036359
N135	N	0.480068	-0.436221	0.583355
N136	N	0.980068	0.063779	1.083355
H137	H	0.634075	-0.478838	0.409081
H138	H	1.134075	0.021162	0.909081
H139	H	0.949427	-0.919416	0.412324
H140	H	1.449427	-0.419416	0.912324
C141	C	0.498611	-0.316855	0.241654
C142	C	0.998611	0.183145	0.741654
N143	N	0.476674	-0.330037	0.177670
N144	N	0.976674	0.169963	0.677670
H145	H	1.114292	-0.919965	0.262938
H146	H	1.614292	-0.419965	0.762938
H147	H	1.185104	-0.920794	0.340398
H148	H	1.685104	-0.420794	0.840398
C149	C	0.500072	-0.494369	0.423244
C150	C	1.000072	0.005631	0.923244
N151	N	0.478998	-0.539445	0.467177
N152	N	0.978998	-0.039445	0.967177
H153	H	0.635117	-0.451955	0.303613
H154	H	1.135117	0.048045	0.803613
H155	H	0.506454	-0.281130	0.495069
H156	H	1.006454	0.218870	0.995069
C157	C	1.038165	-0.926919	0.538261
C158	C	1.538165	-0.426919	1.038261
N159	N	0.997725	-0.948003	0.587247
N160	N	1.497725	-0.448003	1.087247
C161	C	1.167947	-0.784235	0.498922
C162	C	1.667947	-0.284235	0.998922
N163	N	1.225589	-0.762362	0.518013
N164	N	1.725589	-0.262362	1.018013
C165	C	1.036998	-0.785763	0.538143
C166	C	1.536998	-0.285763	1.038143
N167	N	0.996007	-0.765036	0.586779
N168	N	1.496007	-0.265036	1.086779
C169	C	0.965941	-0.928410	0.284545
C170	C	1.465941	-0.428410	0.784545
N171	N	0.946366	-0.950445	0.222568
N172	N	1.446366	-0.450445	0.722568
H173	H	0.947527	-0.792116	0.407095
H174	H	1.447527	-0.292116	0.907095
H175	H	0.976374	-0.793247	0.302381
H176	H	1.476374	-0.293247	0.802381
