data_functionalizedCrystal
_audit_creation_method	'MofGen! by Chris Wilmer'
_symmetry_space_group_name_H-M	'P1'
_symmetry_Int_Tables_number	1
_symmetry_cell_setting	triclinic
loop_
_symmetry_equiv_pos_as_xyz
  x,y,z
_cell_length_a	17.019311
_cell_length_b	27.732048
_cell_length_c	16.098538
_cell_angle_alpha	92.695138
_cell_angle_beta	83.390489
_cell_angle_gamma	83.020427
loop_
_atom_site_label
_atom_site_type_symbol
_atom_site_fract_x
_atom_site_fract_y
_atom_site_fract_z
O1	O	1.053368	0.057078	-0.144808
O2	O	1.553368	0.557078	0.355192
O3	O	0.822758	0.065443	-0.128272
O4	O	1.322758	0.565443	0.371728
O5	O	0.945224	-0.009124	-0.137038
O6	O	1.445224	0.490876	0.362962
O7	O	0.930901	0.131645	-0.136042
O8	O	1.430901	0.631645	0.363958
O9	O	0.938071	-0.004785	0.001987
O10	O	1.438071	0.495215	0.501987
O11	O	0.815604	0.069782	0.010753
O12	O	1.315604	0.569782	0.510753
O13	O	1.046214	0.061417	-0.005783
O14	O	1.546214	0.561417	0.494217
Zn15	Zn	0.929773	0.066288	0.024558
Zn16	Zn	1.429773	0.566288	0.524558
Zn17	Zn	0.939199	0.060572	-0.158613
Zn18	Zn	1.439199	0.560572	0.341387
O19	O	0.923748	0.135984	0.002982
O20	O	1.423748	0.635984	0.502982
C21	C	0.789687	0.067380	-0.056645
C22	C	1.289687	0.567380	0.443355
C23	C	0.701804	0.066683	-0.050343
C24	C	1.201804	0.566683	0.449657
C25	C	0.204555	0.062871	-0.010898
C26	C	0.704555	0.562871	0.489102
C27	C	0.287131	0.063526	-0.016822
C28	C	0.787131	0.563526	0.483178
C29	C	0.332319	0.061485	-0.095567
C30	C	0.832319	0.561485	0.404433
C31	C	0.294927	0.058793	-0.168394
C32	C	0.794927	0.558793	0.331606
C33	C	0.212352	0.058141	-0.162470
C34	C	0.712352	0.558141	0.337530
C35	C	0.581836	0.063339	-0.117245
C36	C	1.081836	0.563339	0.382755
C37	C	0.664417	0.063989	-0.123164
C38	C	1.164417	0.563989	0.376836
C39	C	0.656615	0.068723	0.028409
C40	C	1.156615	0.568723	0.528409
C41	C	0.574040	0.068068	0.034326
C42	C	1.074040	0.568068	0.534326
C43	C	0.536654	0.065379	-0.038501
C44	C	1.036654	0.565379	0.461499
C45	C	0.416725	0.062154	-0.101624
C46	C	0.916725	0.562154	0.398376
C47	C	0.452249	0.064714	-0.032443
C48	C	0.952249	0.564714	0.467557
C49	C	0.941347	-0.024962	-0.067501
C50	C	1.441347	0.475038	0.432499
C51	C	0.940441	-0.078618	-0.067430
C52	C	1.440441	0.421382	0.432570
C53	C	1.007113	-0.417324	-0.072253
C54	C	1.507113	0.082676	0.427747
C55	C	1.003754	-0.618990	-0.072024
C56	C	1.503754	-0.118990	0.427976
O57	O	1.064721	-0.650146	-0.076432
O58	O	1.564721	-0.150146	0.423568
N59	N	0.931136	-0.638233	-0.066816
N60	N	1.431136	-0.138233	0.433184
C61	C	0.859353	-0.607057	-0.061671
C62	C	1.359353	-0.107057	0.438329
O63	O	0.797510	-0.628053	-0.057245
O64	O	1.297510	-0.128053	0.442755
C65	C	0.862713	-0.405393	-0.061906
C66	C	1.362713	0.094607	0.438094
C67	C	0.935335	-0.386152	-0.067106
C68	C	1.435335	0.113848	0.432894
C69	C	1.079730	-0.398083	-0.077453
C70	C	1.579730	0.101917	0.422547
C71	C	1.080568	-0.347669	-0.077506
C72	C	1.580568	0.152331	0.422494
C73	C	1.008791	-0.316497	-0.072358
C74	C	1.508791	0.183503	0.427642
C75	C	0.936174	-0.335738	-0.067158
C76	C	1.436174	0.164262	0.432842
C77	C	0.790931	-0.374218	-0.056767
C78	C	1.290931	0.125782	0.443233
C79	C	0.791777	-0.323799	-0.056828
C80	C	1.291777	0.176201	0.443172
C81	C	0.864400	-0.304558	-0.062028
C82	C	1.364400	0.195442	0.437972
C83	C	0.865235	-0.254153	-0.062064
C84	C	1.365235	0.245847	0.437936
N85	N	0.937853	-0.234909	-0.067271
N86	N	1.437853	0.265091	0.432729
C87	C	1.009631	-0.266081	-0.072419
C88	C	1.509631	0.233919	0.427581
C89	C	0.857594	-0.712934	-0.061546
C90	C	1.357594	-0.212934	0.438454
C91	C	0.856754	-0.763350	-0.061486
C92	C	1.356754	-0.263350	0.438514
C93	C	1.001156	-0.775279	-0.071840
C94	C	1.501156	-0.275279	0.428160
C95	C	1.001995	-0.724862	-0.071894
C96	C	1.501995	-0.224862	0.428106
C97	C	0.930212	-0.693691	-0.066754
C98	C	1.430212	-0.193691	0.433246
C99	C	1.011387	-0.160209	-0.072528
C100	C	1.511387	0.339791	0.427472
C101	C	1.012219	-0.109790	-0.072577
C102	C	1.512219	0.390210	0.427423
C103	C	0.867818	-0.097865	-0.062227
C104	C	1.367818	0.402135	0.437773
C105	C	0.866985	-0.148279	-0.062174
C106	C	1.366985	0.351721	0.437826
C107	C	0.938776	-0.179450	-0.067328
C108	C	1.438776	0.320550	0.432672
O109	O	0.804301	-0.222968	-0.057667
O110	O	1.304301	0.277032	0.442333
O111	O	1.071465	-0.245077	-0.076863
O112	O	1.571465	0.254923	0.423137
C113	C	1.006274	-0.467738	-0.072200
C114	C	1.506274	0.032262	0.427800
C115	C	0.933658	-0.486979	-0.067000
C116	C	1.433658	0.013021	0.433000
C117	C	0.861880	-0.455807	-0.061853
C118	C	1.361880	0.044193	0.438147
C119	C	0.932818	-0.537395	-0.066940
C120	C	1.432818	-0.037395	0.433060
C121	C	1.004595	-0.568567	-0.072087
C122	C	1.504595	-0.068567	0.427913
C123	C	1.077214	-0.549324	-0.077295
C124	C	1.577214	-0.049324	0.422705
C125	C	1.078052	-0.498910	-0.077348
C126	C	1.578052	0.001090	0.422652
C127	C	0.789262	-0.475050	-0.056645
C128	C	1.289262	0.024950	0.443355
C129	C	0.788429	-0.525464	-0.056592
C130	C	1.288429	-0.025464	0.443408
C131	C	0.860207	-0.556637	-0.061739
C132	C	1.360207	-0.056637	0.438261
C133	C	1.079285	0.059480	-0.077412
C134	C	1.579285	0.559480	0.422588
C135	C	1.167169	0.060177	-0.083720
C136	C	1.667169	0.560177	0.416280
C137	C	0.927626	0.151822	-0.066556
C138	C	1.427626	0.651822	0.433444
C139	C	0.928532	0.205478	-0.066633
C140	C	1.428532	0.705478	0.433367
N141	N	0.923347	0.070190	0.149567
N142	N	1.423347	0.570190	0.649567
N143	N	0.945632	0.056667	-0.283623
N144	N	1.445632	0.556667	0.216377
C145	C	0.975345	0.038552	0.189431
C146	C	1.475345	0.538552	0.689431
C147	C	0.970857	0.041285	0.276941
C148	C	1.470857	0.541285	0.776941
C149	C	0.914373	0.075659	0.324586
C150	C	1.414373	0.575659	0.824586
C151	C	0.862369	0.107299	0.284717
C152	C	1.362369	0.607299	0.784717
C153	C	0.866854	0.104563	0.197208
C154	C	1.366854	0.604563	0.697208
C155	C	0.898113	0.085570	0.589000
C156	C	1.398113	0.585570	1.089000
C157	C	0.893633	0.088305	0.676514
C158	C	1.393633	0.588305	1.176514
C159	C	1.002121	0.022290	0.668732
C160	C	1.502121	0.522290	1.168732
C161	C	1.006604	0.019559	0.581222
C162	C	1.506604	0.519559	1.081222
C163	C	0.954597	0.051197	0.541361
C164	C	1.454597	0.551197	1.041361
C165	C	0.909785	0.078455	0.414035
C166	C	1.409785	0.578455	0.914035
C167	C	0.959182	0.048398	0.451913
C168	C	1.459182	0.548398	0.951913
H169	H	0.331725	0.057134	-0.232510
H170	H	0.831725	0.557134	0.267490
H171	H	1.052598	-0.008431	0.542431
H172	H	1.552598	0.491569	1.042431
H173	H	1.044461	-0.003468	0.701195
H174	H	1.544461	0.496532	1.201195
Br175	Br	0.694353	-0.281497	-0.049855
Br176	Br	1.194353	0.218503	0.450145
H177	H	1.061130	-0.709200	-0.076129
H178	H	1.561130	-0.209200	0.423871
Br179	Br	1.052011	-0.008098	0.124778
Br180	Br	1.552011	0.491902	0.624778
Br181	Br	0.390920	0.067488	0.074422
Br182	Br	0.890920	0.567488	0.574422
Br183	Br	0.512716	0.070849	0.141199
Br184	Br	1.012716	0.570849	0.641199
H185	H	0.181913	0.055950	-0.221769
H186	H	0.681913	0.555950	0.278231
H187	H	0.731794	-0.389875	-0.052538
H188	H	1.231794	0.110125	0.447462
H189	H	0.847635	0.116299	0.715303
H190	H	1.347635	0.616299	1.215303
H191	H	0.855769	0.111332	0.556551
H192	H	1.355769	0.611332	1.056551
Br193	Br	1.174625	-0.591638	-0.084274
Br194	Br	1.674625	-0.091638	0.415726
H195	H	0.824511	0.130325	0.164753
H196	H	1.324511	0.630325	0.664753
Br197	Br	0.531109	0.059687	-0.216083
Br198	Br	1.031109	0.559687	0.283917
Br199	Br	0.785705	0.153947	0.349375
Br200	Br	1.285705	0.653947	0.849375
Br201	Br	0.689860	-0.551570	-0.049528
Br202	Br	1.189860	-0.051570	0.450472
H203	H	1.139705	-0.332009	-0.081743
H204	H	1.639705	0.167991	0.418257
H205	H	0.687064	0.070914	0.087700
H206	H	1.187064	0.570914	0.587700
Br207	Br	1.110784	-0.083681	-0.079633
Br208	Br	1.610784	0.416319	0.420367
H209	H	0.453527	0.060490	-0.165739
H210	H	0.953527	0.560490	0.334261
Br211	Br	1.108818	-0.202504	-0.079524
Br212	Br	1.608818	0.297496	0.420476
H213	H	1.005168	0.020409	0.413118
H214	H	1.505168	0.520409	0.913118
Br215	Br	1.177156	-0.440380	-0.084441
Br216	Br	1.677156	0.059620	0.415559
H217	H	0.863796	0.106444	0.452835
H218	H	1.363796	0.606444	0.952835
Br219	Br	1.098568	-0.817594	-0.078828
Br220	Br	1.598568	-0.317594	0.421172
Br221	Br	0.725745	0.061218	-0.230040
Br222	Br	1.225745	0.561218	0.269960
Br223	Br	0.758190	-0.789455	-0.054409
Br224	Br	1.258190	-0.289455	0.445591
H225	H	0.167768	0.064535	0.053225
H226	H	0.667768	0.564535	0.553225
Br227	Br	0.760165	-0.670636	-0.054570
Br228	Br	1.260165	-0.170636	0.445430
H229	H	0.807849	-0.163945	-0.057916
H230	H	1.307849	0.336055	0.442084
H231	H	0.809378	-0.072476	-0.058033
H232	H	1.309378	0.427524	0.441967
H233	H	0.317567	0.065718	0.042477
H234	H	0.817567	0.565718	0.542477
Br235	Br	0.691839	-0.432752	-0.049663
Br236	Br	1.191839	0.067248	0.450337
H237	H	1.013197	0.015523	0.309397
H238	H	1.513197	0.515523	0.809397
H239	H	1.137189	-0.483249	-0.081582
H240	H	1.637189	0.016751	0.418418
