data_functionalizedCrystal
_audit_creation_method	'MofGen! by Chris Wilmer'
_symmetry_space_group_name_H-M	'P1'
_symmetry_Int_Tables_number	1
_symmetry_cell_setting	triclinic
loop_
_symmetry_equiv_pos_as_xyz
  x,y,z
_cell_length_a	15.698487
_cell_length_b	21.606444
_cell_length_c	21.606444
_cell_angle_alpha	60.003167
_cell_angle_beta	89.999738
_cell_angle_gamma	59.999624
loop_
_atom_site_label
_atom_site_type_symbol
_atom_site_fract_x
_atom_site_fract_y
_atom_site_fract_z
Zr1	Zr	0.820603	0.677458	-0.081206
O2	O	0.684590	0.806570	-0.180023
O3	O	0.862300	0.548342	-0.050917
O4	O	0.862302	0.677455	-0.180030
O5	O	0.684584	0.677462	0.050939
O6	O	1.002483	0.677457	-0.180031
O7	O	0.684587	0.677457	-0.050911
O8	O	1.002479	0.446498	0.050928
O9	O	0.684588	0.908421	-0.180020
O10	O	0.984697	0.601453	-0.037996
O11	O	0.880079	0.601454	0.038014
O12	O	0.880082	0.753468	-0.113999
O13	O	0.775464	0.753470	-0.037989
Zr14	Zr	1.044171	0.677469	0.081230
Zr15	Zr	1.044176	0.677462	-0.081209
Zr16	Zr	0.820598	0.677465	0.081232
Zr17	Zr	0.820601	0.839899	-0.081201
Zr18	Zr	1.044173	0.515029	0.081224
O19	O	1.002474	0.806586	0.050940
O20	O	1.002481	0.806576	-0.180027
O21	O	0.684582	0.806580	0.050943
O22	O	1.180184	0.548358	0.180046
O23	O	1.180191	0.548348	-0.050920
O24	O	0.862293	0.548352	0.180050
O25	O	1.180190	0.677466	-0.050916
O26	O	1.002472	0.677473	0.180053
O27	O	0.862291	0.677470	0.180054
O28	O	1.180186	0.677470	0.050934
O29	O	0.862299	0.908424	-0.180022
O30	O	1.002475	0.446504	0.180045
O31	O	1.180186	0.446507	0.180043
O32	O	1.180190	0.446501	0.050926
O33	O	0.684584	0.908426	-0.050903
O34	O	0.862295	0.908430	-0.050905
O35	O	0.984692	0.601460	0.114022
O36	O	1.089310	0.601458	0.038012
O37	O	0.984695	0.753473	-0.037991
O38	O	0.880077	0.753475	0.038019
C39	C	0.932390	0.474276	0.000005
C40	C	0.932391	0.405316	0.000003
C41	C	0.986998	0.372917	-0.039675
C42	C	0.987002	0.308117	-0.039670
C43	C	0.932391	0.275721	0.000009
C44	C	0.877783	0.308122	0.039692
C45	C	0.877786	0.372917	0.039691
C46	C	0.877770	0.046813	0.039698
C47	C	0.877769	-0.017984	0.039694
C48	C	0.986986	-0.017986	-0.039662
C49	C	0.986989	0.046808	-0.039664
C50	C	0.932386	0.079200	0.000022
C51	C	0.932384	0.149462	0.000017
C52	C	0.932387	0.205465	0.000010
C53	C	0.652732	0.677459	0.000015
C54	C	0.557819	0.677457	0.000016
C55	C	0.384034	0.677473	0.000009
C56	C	0.480738	0.677468	0.000011
C57	C	1.212042	0.677469	0.000008
C58	C	1.306955	0.677470	0.000007
C59	C	0.932393	0.677455	-0.203174
C60	C	0.932395	0.677452	-0.272134
C61	C	0.932384	0.880652	0.000018
C62	C	0.932383	0.949612	0.000020
C63	C	0.877773	0.756825	-0.735117
C64	C	0.877771	0.756823	-0.670319
C65	C	0.932380	0.677470	-0.598249
C66	C	0.986987	0.598114	-0.590977
C67	C	0.986983	0.598117	-0.655774
C68	C	0.987005	0.598099	-0.329659
C69	C	0.987007	0.598101	-0.264861
C70	C	0.877793	0.756804	-0.344205
C71	C	0.877788	0.756808	-0.409001
C72	C	0.932390	0.677452	-0.401724
C73	C	0.932391	0.677456	-0.471985
C74	C	0.932387	0.677465	-0.527989
C75	C	0.932381	0.677473	0.203197
C76	C	0.932378	0.677476	0.272157
C77	C	1.212045	0.474281	0.000002
C78	C	1.306959	0.405322	-0.000001
C79	C	0.932383	0.474285	0.203191
C80	C	0.932382	0.405327	0.272148
C81	C	1.212039	0.474289	0.203188
C82	C	1.306950	0.405334	0.272144
C83	C	0.652735	0.880638	-0.203165
C84	C	0.557824	0.949594	-0.272121
C85	C	0.652729	0.880647	0.000021
C86	C	0.557815	0.949605	0.000025
C87	C	0.932390	0.880643	-0.203168
C88	C	0.932391	0.949600	-0.272125
C89	C	1.296924	0.372936	-0.039685
C90	C	1.386097	0.308151	-0.039704
C91	C	1.485303	0.275749	-0.000033
C92	C	1.495336	0.308142	0.039652
C93	C	1.406164	0.372930	0.039665
C94	C	0.986989	0.372947	0.344213
C95	C	0.986984	0.308164	0.409012
C96	C	0.932378	0.275757	0.401744
C97	C	0.877765	0.308144	0.329671
C98	C	0.877764	0.372931	0.264874
C99	C	1.406140	0.372951	0.264850
C100	C	1.495328	0.308169	0.329635
C101	C	1.485324	0.275767	0.401714
C102	C	1.386123	0.308156	0.409007
C103	C	1.296937	0.372941	0.344222
C104	C	0.458633	0.981985	-0.264827
C105	C	0.369446	1.046787	-0.329612
C106	C	0.379450	1.079192	-0.401691
C107	C	0.478651	1.046799	-0.408983
C108	C	0.567837	0.982002	-0.344199
C109	C	0.567850	0.981999	0.039702
C110	C	0.478677	1.046801	0.039702
C111	C	0.379471	1.079205	0.000029
C112	C	0.369438	1.046810	-0.039653
C113	C	0.458610	0.982012	-0.039657
C114	C	0.987008	0.981986	-0.264832
C115	C	0.987030	1.046770	-0.329619
C116	C	0.932428	1.079172	-0.401697
C117	C	0.877809	1.046779	-0.408988
C118	C	0.877795	0.981992	-0.344202
H119	H	1.031463	0.399294	-0.071990
F120	F	1.045116	0.273705	0.485710
H121	H	0.833308	0.821444	-0.793796
F122	F	0.489376	1.081265	0.081941
F123	F	0.819652	0.947538	-0.351975
H124	H	0.450425	0.955640	-0.071965
F125	F	1.191349	0.407411	-0.081913
F126	F	0.819622	0.841278	-0.678066
F127	F	0.447962	0.947506	-0.188121
F128	F	0.673400	0.947531	-0.351974
F129	F	0.263847	1.081303	-0.081871
H130	H	0.648621	0.955620	0.072013
F131	F	1.416812	0.407428	0.188144
F132	F	1.045104	0.273653	-0.081914
H133	H	0.833300	0.399286	0.206198
F134	F	1.045108	0.081287	-0.081899
H135	H	0.833324	0.821425	-0.467682
H136	H	0.833329	0.821419	-0.350124
F137	F	1.045131	0.513639	-0.188155
F138	F	1.600895	0.273707	0.321858
F139	F	0.284574	1.148168	0.000042
H140	H	0.306821	1.131954	-0.454436
F141	F	1.580199	0.206794	-0.000053
H142	H	1.031452	-0.044370	-0.071974
F143	F	0.819694	1.081278	-0.485705
F144	F	1.375397	0.273685	-0.081941
F145	F	1.600927	0.273647	0.081871
H146	H	1.557953	0.223014	0.454460
F147	F	0.932388	0.206804	0.470715
H148	H	1.216175	0.399299	0.350172
F149	F	0.819644	-0.052462	0.081929
F150	F	1.416860	0.407387	0.081909
H151	H	1.031505	1.073137	-0.323668
H152	H	1.377992	0.281765	0.467702
F153	F	0.263879	1.081248	-0.321835
H154	H	1.031456	0.399325	0.350146
H155	H	1.031471	0.955615	-0.206149
F156	F	0.819653	0.273645	0.321948
H157	H	0.486785	1.073192	-0.467678
F158	F	0.819676	0.273632	0.081932
F159	F	0.819660	0.081276	0.081938
F160	F	0.819668	0.407395	0.081923
F161	F	0.932450	1.148126	-0.470642
H162	H	1.031469	0.533483	-0.323723
H163	H	1.031445	0.533503	-0.649847
F164	F	1.045101	0.513660	-0.514273
