data_functionalizedCrystal
_audit_creation_method	'MofGen! by Chris Wilmer'
_symmetry_space_group_name_H-M	'P1'
_symmetry_Int_Tables_number	1
_symmetry_cell_setting	triclinic
loop_
_symmetry_equiv_pos_as_xyz
  x,y,z
_cell_length_a	13.032831
_cell_length_b	19.121063
_cell_length_c	13.032268
_cell_angle_alpha	99.247498
_cell_angle_beta	90.886977
_cell_angle_gamma	85.565596
loop_
_atom_site_label
_atom_site_type_symbol
_atom_site_fract_x
_atom_site_fract_y
_atom_site_fract_z
Zn1	Zn	1.465022	-0.473659	-0.806576
Zn2	Zn	1.479383	-0.578156	-0.640274
Zn3	Zn	1.316950	-0.444360	-0.611224
Zn4	Zn	1.285899	-0.574364	-0.790193
O5	O	1.386814	-0.517635	-0.712067
O6	O	1.609870	-0.501370	-0.803529
O7	O	1.476841	-0.549733	-0.491924
O8	O	1.343577	-0.350107	-0.631836
O9	O	1.620421	-0.578143	-0.681348
O10	O	1.452365	-0.371633	-0.775360
O11	O	1.357502	-0.451434	-0.470581
O12	O	1.169889	-0.447756	-0.615951
O13	O	1.290655	-0.571680	-0.936863
O14	O	1.147076	-0.543270	-0.747439
O15	O	1.422256	-0.497693	-0.948899
O16	O	1.446733	-0.675793	-0.665463
O17	O	1.304581	-0.673007	-0.775608
C18	C	1.121419	-0.491923	-0.676766
C19	C	1.007877	-0.480942	-0.661690
C20	C	0.946005	-0.523366	-0.719935
C21	C	0.828653	-0.512018	-0.704355
C22	C	1.373870	-0.699851	-0.721936
C23	C	1.368422	-0.777815	-0.726206
C24	C	1.439917	-0.815879	-0.670926
C25	C	1.434798	-0.889136	-0.674948
C26	C	1.358179	-0.924327	-0.734244
C27	C	1.286681	-0.886258	-0.789530
C28	C	1.291805	-0.813003	-0.785514
C29	C	1.339006	-1.145437	-0.749244
C30	C	1.333886	-1.218697	-0.753254
C31	C	1.482005	-1.221570	-0.638672
C32	C	1.487118	-1.148313	-0.634656
C33	C	1.415624	-1.110251	-0.689946
C34	C	1.352943	-0.999207	-0.738354
C35	C	1.420865	-1.035374	-0.685842
C36	C	1.653245	-0.543448	-0.747506
C37	C	1.766782	-0.554448	-0.762608
C38	C	1.351390	-0.537532	-0.981395
C39	C	1.336295	-0.546011	-1.096167
C40	C	1.399833	-0.334712	-0.702185
C41	C	1.405381	-0.256761	-0.697974
C42	C	1.394678	-0.513183	-1.153291
C43	C	1.379078	-0.521945	-1.271914
C44	C	1.422162	-0.497771	-0.443791
C45	C	1.437469	-0.489113	-0.329036
H46	H	0.973970	-0.436217	-0.600292
N47	N	1.214683	-0.771951	-0.845133
H48	H	1.175028	-0.733913	-0.795175
H49	H	1.252055	-0.749121	-0.896868
H50	H	1.493016	-0.920125	-0.629933
N51	N	1.476206	-0.467378	-1.101753
H52	H	1.442868	-0.427574	-1.049713
H53	H	1.527316	-0.497254	-1.064908
H54	H	1.502304	-0.787232	-0.622636
H55	H	1.317533	-0.556535	-1.310822
H56	H	1.274755	-0.580597	-1.135080
N57	N	0.990904	-0.582609	-0.801271
H58	H	1.068372	-0.582319	-0.800870
H59	H	0.970883	-0.629697	-0.785333
N60	N	0.783759	-0.452776	-0.623008
H61	H	0.706292	-0.453069	-0.623403
H62	H	0.811281	-0.459958	-0.552277
N63	N	1.569770	-1.110362	-0.570718
H64	H	1.614292	-1.145593	-0.536315
H65	H	1.613594	-1.087617	-0.617420
H66	H	1.540213	-1.252568	-0.593660
N67	N	0.811674	-0.613689	-0.843956
H68	H	0.889142	-0.613400	-0.843560
H69	H	0.791654	-0.660780	-0.828027
N70	N	1.261890	-1.104389	-0.808865
H71	H	1.212572	-1.137798	-0.847030
H72	H	1.222311	-1.066353	-0.758843
H73	H	1.483252	-1.006720	-0.637567
N74	N	1.518985	-0.443291	-1.277500
H75	H	1.588750	-0.462628	-1.306512
H76	H	1.504154	-0.393030	-1.291410
N77	N	1.251243	-1.256655	-0.817211
H78	H	1.206729	-1.221428	-0.851630
H79	H	1.284377	-1.294569	-0.872213
H80	H	1.224300	-0.914917	-0.837816
N81	N	1.270295	-1.037163	-0.802293
H82	H	1.225772	-1.001936	-0.836702
H83	H	1.303424	-1.075074	-0.857303
