data_functionalizedCrystal
_audit_creation_method	'MofGen! by Chris Wilmer'
_symmetry_space_group_name_H-M	'P1'
_symmetry_Int_Tables_number	1
_symmetry_cell_setting	triclinic
loop_
_symmetry_equiv_pos_as_xyz
  x,y,z
_cell_length_a	10.654545
_cell_length_b	9.065215
_cell_length_c	9.130313
_cell_angle_alpha	89.996437
_cell_angle_beta	89.996934
_cell_angle_gamma	84.748888
loop_
_atom_site_label
_atom_site_type_symbol
_atom_site_fract_x
_atom_site_fract_y
_atom_site_fract_z
O1	O	1.668662	0.207203	-0.121782
O2	O	1.303260	0.226954	-0.121787
O3	O	1.493516	0.002395	-0.121778
O4	O	1.478406	0.431763	-0.121791
O5	O	1.493502	0.002388	0.121821
O6	O	1.303247	0.226948	0.121811
O7	O	1.668648	0.207197	0.121817
Cu8	Cu	1.485947	0.217072	0.144057
Cu9	Cu	1.485962	0.217079	-0.144027
O10	O	1.478393	0.431756	0.121808
C11	C	1.256450	0.225502	0.000011
C12	C	1.116989	0.221167	0.000009
C13	C	1.051470	0.219123	0.132796
C14	C	0.920434	0.215026	0.132796
C15	C	0.920449	0.215023	-0.132789
C16	C	1.051483	0.219110	-0.132788
C17	C	1.492058	-0.052587	0.000020
C18	C	1.487718	-0.216407	0.000015
C19	C	1.715459	0.208649	0.000015
C20	C	1.854919	0.212984	0.000008
C21	C	1.479851	0.486738	0.000007
C22	C	1.484190	0.650558	0.000002
N23	N	1.485945	0.217065	0.346680
N24	N	1.485974	0.217074	-0.346650
C25	C	1.570219	0.117672	0.423336
C26	C	1.570231	0.117673	0.576672
C27	C	1.401691	0.316472	0.576684
C28	C	1.401674	0.316463	0.423350
H29	H	1.104801	0.220799	0.240927
C30	C	0.849223	0.213111	-0.276915
C31	C	0.761326	0.337503	-0.284691
C32	C	0.695703	0.335808	-0.417448
H33	H	0.806596	0.125728	-0.282575
H34	H	0.906964	0.214991	-0.356044
H35	H	0.703592	0.335610	-0.205584
H36	H	0.803919	0.424906	-0.279056
H37	H	0.753444	0.337688	-0.496577
H38	H	0.653084	0.248420	-0.423096
H39	H	0.636066	0.420212	-0.422747
H40	H	1.638853	0.036737	0.639081
H41	H	1.333042	0.397401	0.360932
H42	H	1.104831	0.220771	-0.240925
C43	C	0.849485	0.212585	0.277078
C44	C	0.894085	0.086889	0.357215
C45	C	0.828771	0.084598	0.490150
H46	H	0.762051	0.209774	0.258276
H47	H	0.862381	0.299103	0.331709
H48	H	0.881178	0.000393	0.302595
H49	H	0.981510	0.089673	0.376056
H50	H	0.841667	0.171116	0.544782
H51	H	0.741340	0.081791	0.471334
H52	H	0.859030	-0.000677	0.544545
H53	H	1.638836	0.036735	0.360914
H54	H	1.333081	0.397401	0.639124
