data_functionalizedCrystal
_audit_creation_method	'MofGen! by Chris Wilmer'
_symmetry_space_group_name_H-M	'P1'
_symmetry_Int_Tables_number	1
_symmetry_cell_setting	triclinic
loop_
_symmetry_equiv_pos_as_xyz
  x,y,z
_cell_length_a	15.944545
_cell_length_b	16.974813
_cell_length_c	16.053802
_cell_angle_alpha	83.778934
_cell_angle_beta	87.418915
_cell_angle_gamma	96.554213
loop_
_atom_site_label
_atom_site_type_symbol
_atom_site_fract_x
_atom_site_fract_y
_atom_site_fract_z
O1	O	1.110487	-0.105623	0.076511
O2	O	0.865877	-0.118242	0.077377
O3	O	0.995399	0.003545	0.069137
O4	O	0.980964	-0.227410	0.084750
O5	O	1.002520	0.010228	-0.070174
O6	O	0.872998	-0.111559	-0.061934
O7	O	1.117608	-0.098940	-0.062800
Zn8	Zn	0.996434	-0.104188	-0.084486
Zn9	Zn	0.987051	-0.112994	0.099062
O10	O	0.988085	-0.220727	-0.054561
C11	C	0.838146	-0.114378	0.007688
C12	C	0.744906	-0.112810	0.007587
C13	C	0.474648	-0.032636	0.002158
C14	C	0.528561	-0.067994	-0.063919
C15	C	0.409289	-0.107218	0.007194
C16	C	0.521520	-0.074603	0.073432
C17	C	0.574190	-0.109962	0.007388
C18	C	0.461976	-0.142554	-0.058940
C19	C	0.454929	-0.149155	0.078472
C20	C	0.508810	-0.184567	0.012382
C21	C	0.314295	-0.105635	0.007082
C22	C	0.669182	-0.111550	0.007495
C23	C	0.998543	0.036441	-0.002514
C24	C	0.997292	0.124503	-0.008462
C25	C	1.145339	-0.102804	0.006891
C26	C	1.238578	-0.104372	0.006997
C27	C	0.984941	-0.253623	0.017093
C28	C	0.986192	-0.341685	0.023046
C29	C	0.992824	0.162227	0.064682
C30	C	0.991643	0.244970	0.059091
C31	C	0.994936	0.289988	-0.019645
C32	C	0.999402	0.252258	-0.092794
C33	C	1.000576	0.169516	-0.087202
C34	C	0.991833	0.537842	-0.044512
C35	C	0.990660	0.620590	-0.050098
C36	C	0.982900	0.613296	0.101788
C37	C	0.984080	0.530553	0.107372
C38	C	0.988541	0.492830	0.034223
N39	N	0.993732	0.374566	-0.025362
N40	N	0.989740	0.408253	0.039941
N41	N	0.980648	-0.118998	0.224329
N42	N	1.002843	-0.098178	-0.209753
C43	C	1.035865	-0.067276	0.264524
C44	C	1.031384	-0.071474	0.352214
C45	C	0.971682	-0.127390	0.399709
C46	C	0.916463	-0.179117	0.359508
C47	C	0.920948	-0.174923	0.271819
C48	C	0.952109	-0.145711	0.662358
C49	C	0.947626	-0.149900	0.750052
C50	C	1.062549	-0.042257	0.742753
C51	C	1.067026	-0.038064	0.655062
C52	C	1.011810	-0.089794	0.614869
N53	N	0.967099	-0.131681	0.489343
N54	N	1.016398	-0.085506	0.525237
H55	H	0.560607	-0.033710	-0.124120
H56	H	0.981400	0.493905	0.171487
H57	H	1.004203	0.138801	-0.146764
H58	H	0.899006	-0.195436	0.788719
H59	H	1.002078	0.288918	-0.156902
H60	H	0.524003	-0.248846	0.016688
H61	H	0.422867	-0.183412	0.138673
H62	H	0.435992	-0.171240	-0.114946
H63	H	0.990147	0.125579	0.128797
H64	H	0.867855	-0.224650	0.398183
H65	H	0.979266	0.644020	0.161341
H66	H	0.459299	0.031599	-0.002251
H67	H	0.547617	-0.045878	0.129370
H68	H	0.995482	0.507140	-0.104075
H69	H	1.115640	0.007468	0.616394
H70	H	0.988009	0.275682	0.118652
H71	H	0.993337	0.657242	-0.114217
H72	H	1.084477	-0.021740	0.225859
H73	H	1.076346	-0.029359	0.384940
H74	H	0.875986	-0.217041	0.239094
H75	H	1.107505	-0.000142	0.775486
H76	H	0.907149	-0.187830	0.629640
