data_functionalizedCrystal
_audit_creation_method	'MofGen! by Chris Wilmer'
_symmetry_space_group_name_H-M	'P1'
_symmetry_Int_Tables_number	1
_symmetry_cell_setting	triclinic
loop_
_symmetry_equiv_pos_as_xyz
  x,y,z
_cell_length_a	12.827893
_cell_length_b	18.101397
_cell_length_c	12.827893
_cell_angle_alpha	90.014250
_cell_angle_beta	90.003976
_cell_angle_gamma	90.020436
loop_
_atom_site_label
_atom_site_type_symbol
_atom_site_fract_x
_atom_site_fract_y
_atom_site_fract_z
Zn1	Zn	1.597475	-0.294958	0.590799
Zn2	Zn	2.097475	0.205042	1.090799
Zn3	Zn	1.597400	-0.418769	0.416039
Zn4	Zn	2.097400	0.081231	0.916039
Zn5	Zn	1.422763	-0.294945	0.416073
Zn6	Zn	1.922763	0.205055	0.916073
Zn7	Zn	1.422686	-0.418762	0.590738
Zn8	Zn	1.922686	0.081238	1.090738
O9	O	1.510081	-0.356858	0.503412
O10	O	2.010081	0.143142	1.003412
O11	O	1.743701	-0.311389	0.567628
O12	O	2.243701	0.188611	1.067628
O13	O	1.574235	-0.402341	0.269807
O14	O	2.074235	0.097659	0.769807
O15	O	1.446002	-0.191314	0.439290
O16	O	1.946002	0.308686	0.939290
O17	O	1.743646	-0.402353	0.439232
O18	O	2.243646	0.097647	0.939232
O19	O	1.574362	-0.191323	0.567661
O20	O	2.074362	0.308677	1.067661
O21	O	1.445930	-0.311368	0.269832
O22	O	1.945930	0.188632	0.769832
O23	O	1.276517	-0.311362	0.439231
O24	O	1.776517	0.188638	0.939231
O25	O	1.445871	-0.402341	0.736982
O26	O	1.945871	0.097659	1.236982
O27	O	1.276460	-0.402329	0.567558
O28	O	1.776460	0.097671	1.067558
O29	O	1.574288	-0.311383	0.737027
O30	O	2.074288	0.188617	1.237027
O31	O	1.574161	-0.522400	0.439173
O32	O	2.074161	-0.022400	0.939173
O33	O	1.445799	-0.522395	0.567524
O34	O	1.945799	-0.022395	1.067524
C35	C	1.238571	-0.356844	0.503392
C36	C	1.738571	0.143156	1.003392
C37	C	1.122418	-0.356856	0.503408
C38	C	1.622418	0.143144	1.003408
C39	C	1.070633	-0.401939	0.566810
C40	C	1.570633	0.098061	1.066810
C41	C	0.950583	-0.401953	0.566829
C42	C	1.450583	0.098047	1.066829
C43	C	1.509992	-0.549269	0.503361
C44	C	2.009992	-0.049269	1.003361
C45	C	1.510049	-0.631583	0.503375
C46	C	2.010049	-0.131583	1.003375
C47	C	1.510182	-0.930674	0.503470
C48	C	2.010182	-0.430674	1.003470
C49	C	1.590719	-0.899321	0.422499
C50	C	2.090719	-0.399321	0.922499
C51	C	1.590998	-0.813702	0.422708
C52	C	2.090998	-0.313702	0.922708
C53	C	1.510116	-0.782291	0.503422
C54	C	2.010116	-0.282291	1.003422
C55	C	1.539944	-0.813321	0.613572
C56	C	2.039944	-0.313321	1.113572
C57	C	1.540567	-0.898966	0.613131
C58	C	2.040567	-0.398966	1.113131
C59	C	1.399603	-0.899177	0.475245
C60	C	1.899603	-0.399177	0.975245
C61	C	1.400150	-0.813527	0.472786
C62	C	1.900150	-0.313527	0.972786
C63	C	1.510077	-0.698432	0.503401
C64	C	2.010077	-0.198432	1.003401
C65	C	1.510224	-1.014533	0.503498
C66	C	2.010224	-0.514533	1.003498
C67	C	1.782651	-0.356873	0.503433
C68	C	2.282651	0.143127	1.003433
C69	C	1.898804	-0.356879	0.503441
C70	C	2.398804	0.143121	1.003441
C71	C	1.510079	-0.356862	0.775982
C72	C	2.010079	0.143138	1.275982
C73	C	1.510079	-0.356864	0.892135
C74	C	2.010079	0.143136	1.392135
C75	C	1.510199	-0.163696	0.503486
C76	C	2.010199	0.336304	1.003486
C77	C	1.510250	-0.081382	0.503517
C78	C	2.010250	0.418618	1.003517
C79	C	1.446540	-0.401869	0.943898
C80	C	1.946540	0.098131	1.443898
C81	C	1.446538	-0.401872	1.063948
C82	C	1.946538	0.098128	1.563948
C83	C	1.510075	-0.356871	1.231902
C84	C	2.010075	0.143129	1.731902
C85	C	1.510076	-0.356869	1.115749
C86	C	2.010076	0.143131	1.615749
H87	H	0.943331	-0.318282	0.449154
H88	H	1.443331	0.181718	0.949154
O89	O	1.129627	-0.453053	0.638701
O90	O	1.629627	0.046947	1.138701
H91	H	1.073431	-0.486076	0.685153
H92	H	1.573431	0.013924	1.185153
H93	H	1.672183	-0.920793	0.440959
H94	H	2.172183	-0.420793	0.940959
O95	O	1.063420	-0.305752	0.431508
O96	O	1.563420	0.194248	0.931508
H97	H	1.013699	-0.268167	0.478420
H98	H	1.513699	0.231833	0.978420
O99	O	1.566306	-0.785905	0.314520
O100	O	2.066306	-0.285905	0.814520
H101	H	1.554060	-0.833635	0.261577
H102	H	2.054060	-0.333635	0.761577
H103	H	1.392149	-0.440401	0.899337
H104	H	1.892149	0.059599	1.399337
O105	O	1.566936	-0.927230	0.314144
O106	O	2.066936	-0.427230	0.814144
H107	H	1.497379	-0.963669	0.316817
H108	H	1.997379	-0.463669	0.816817
H109	H	0.906049	-0.440553	0.621106
H110	H	1.406049	0.059447	1.121106
O111	O	1.582147	-0.305831	1.056800
O112	O	2.082147	0.194169	1.556800
H113	H	1.535359	-0.268183	1.007075
H114	H	2.035359	0.231817	1.507075
O115	O	1.699497	-0.786487	0.447442
O116	O	2.199497	-0.286487	0.947442
H117	H	1.723316	-0.807210	0.525306
H118	H	2.223316	-0.307210	1.025306
O119	O	1.647632	-0.925367	0.644788
O120	O	2.147632	-0.425367	1.144788
H121	H	1.698478	-0.876963	0.660262
H122	H	2.198478	-0.376963	1.160262
O123	O	1.466255	-0.926447	0.695778
O124	O	1.966255	-0.426447	1.195778
H125	H	1.430038	-0.878563	0.735888
H126	H	1.930038	-0.378563	1.235888
H127	H	1.372462	-0.920822	0.396316
H128	H	1.872462	-0.420822	0.896316
O129	O	1.464634	-0.786367	0.695648
O130	O	1.964634	-0.286367	1.195648
H131	H	1.405006	-0.750481	0.658714
H132	H	1.905006	-0.250481	1.158714
H133	H	1.619867	-0.791818	0.637885
H134	H	2.119867	-0.291818	1.137885
O135	O	1.370338	-0.786668	0.365417
O136	O	1.870338	-0.286668	0.865417
H137	H	1.433568	-0.751216	0.333995
H138	H	1.933568	-0.251216	0.833995
O139	O	1.316383	-0.785213	0.545176
O140	O	1.816383	-0.285213	1.045176
H141	H	1.334284	-0.802572	0.626201
H142	H	1.834284	-0.302572	1.126201
H143	H	1.339597	-0.919455	0.534220
H144	H	1.839597	-0.419455	1.034220
H145	H	1.392134	-0.440398	1.108463
H146	H	1.892134	0.059602	1.608463
O147	O	1.582117	-0.305817	0.951159
O148	O	2.082117	0.194183	1.451159
H149	H	1.635214	-0.338992	1.000893
H150	H	2.135214	0.161008	1.500893
