data_functionalizedCrystal
_audit_creation_method	'MofGen! by Chris Wilmer'
_symmetry_space_group_name_H-M	'P1'
_symmetry_Int_Tables_number	1
_symmetry_cell_setting	triclinic
loop_
_symmetry_equiv_pos_as_xyz
  x,y,z
_cell_length_a	15.944551
_cell_length_b	11.792241
_cell_length_c	15.021413
_cell_angle_alpha	90.009561
_cell_angle_beta	90.009956
_cell_angle_gamma	96.153923
loop_
_atom_site_label
_atom_site_type_symbol
_atom_site_fract_x
_atom_site_fract_y
_atom_site_fract_z
O1	O	0.115134	-1.505943	0.073948
O2	O	0.126999	-1.175504	0.073969
O3	O	-0.001167	-1.349747	0.073950
O4	O	0.243301	-1.331700	0.073967
O5	O	-0.001185	-1.349766	-0.074115
O6	O	0.126982	-1.175524	-0.074096
O7	O	0.115117	-1.505962	-0.074117
Zn8	Zn	0.121047	-1.340746	-0.097614
Zn9	Zn	0.121069	-1.340721	0.097467
O10	O	0.243284	-1.331719	-0.074097
C11	C	-0.032473	-1.349008	-0.000083
C12	C	-0.125729	-1.346762	-0.000083
C13	C	0.126245	-1.133229	-0.000061
C14	C	0.124015	-1.007234	-0.000053
N15	N	0.121031	-1.340772	-0.230752
C16	C	-0.341098	-1.233389	-0.000064
C17	C	-0.401886	-1.286045	-0.073072
C18	C	-0.296474	-1.342698	-0.000076
C19	C	-0.401852	-1.286052	0.072908
C20	C	-0.461404	-1.338765	-0.000065
C21	C	-0.356033	-1.395384	-0.073144
C22	C	-0.355994	-1.395376	0.072901
C23	C	-0.416764	-1.448111	-0.000125
C24	C	-0.201461	-1.344961	-0.000083
C25	C	-0.556415	-1.336511	-0.000065
C26	C	0.274590	-1.332459	-0.000063
C27	C	0.367846	-1.334705	-0.000057
C28	C	0.115871	-1.548237	-0.000085
C29	C	0.118102	-1.674233	-0.000087
C30	C	0.119913	-0.776555	-0.000079
C31	C	0.122192	-0.904922	-0.000065
N32	N	0.121079	-1.340704	0.230604
C33	C	0.180222	-1.259983	0.470291
C34	C	0.104161	-1.238213	0.529624
C35	C	0.121061	-1.340726	0.412211
C36	C	0.197104	-1.362465	0.529620
C37	C	0.121050	-1.340746	0.587635
C38	C	0.044962	-1.318906	0.470238
C39	C	0.137955	-1.443202	0.470229
C40	C	0.061840	-1.421476	0.529535
C41	C	0.121068	-1.340712	0.311154
C42	C	0.121034	-1.340760	0.688690
H43	H	-0.308200	-1.142657	-0.000131
C44	C	-0.040813	-1.294071	0.435736
C45	C	-0.058450	-1.187117	0.466581
C46	C	-0.137459	-1.164204	0.434825
H47	H	-0.040373	-1.294095	0.372503
H48	H	-0.082892	-1.351053	0.456522
H49	H	-0.016383	-1.130150	0.445791
H50	H	-0.058908	-1.187067	0.529812
H51	H	-0.179537	-1.221185	0.455611
H52	H	-0.137011	-1.164233	0.371592
H53	H	-0.149439	-1.091639	0.455756
C54	C	0.157224	-1.558653	0.435455
C55	C	0.236960	-1.580957	0.465471
C56	C	0.254755	-1.687291	0.433444
H57	H	0.115825	-1.616273	0.456601
H58	H	0.156621	-1.558025	0.372213
H59	H	0.237556	-1.581594	0.528699
H60	H	0.278376	-1.523364	0.444328
H61	H	0.254151	-1.686663	0.370203
H62	H	0.213350	-1.744903	0.454592
H63	H	0.308859	-1.702434	0.453799
H64	H	0.011750	-1.489771	0.555384
H65	H	0.261419	-1.380858	0.555688
C66	C	-0.428927	-1.224201	-0.155287
C67	C	-0.390283	-1.111836	-0.154936
C68	C	-0.415177	-1.054821	-0.230648
H69	H	-0.412484	-1.262168	-0.207195
H70	H	-0.488475	-1.223762	-0.154967
H71	H	-0.330747	-1.112280	-0.155264
H72	H	-0.406720	-1.073838	-0.103044
H73	H	-0.474726	-1.054382	-0.230328
H74	H	-0.398733	-1.092797	-0.282551
H75	H	-0.388968	-0.978573	-0.230416
H76	H	-0.422131	-1.239796	0.134635
C77	C	-0.329013	-1.457115	-0.155430
C78	C	-0.288799	-1.551695	-0.129482
C79	C	-0.263884	-1.608574	-0.205259
H80	H	-0.377223	-1.481877	-0.190308
H81	H	-0.291166	-1.406780	-0.189552
H82	H	-0.326644	-1.602021	-0.095375
H83	H	-0.240580	-1.526965	-0.094615
H84	H	-0.226037	-1.558238	-0.239380
H85	H	-0.312098	-1.633328	-0.240131
H86	H	-0.236589	-1.672746	-0.187663
C87	C	-0.460300	-1.569268	-0.000046
C88	C	-0.435938	-1.626633	0.075724
C89	C	-0.476007	-1.738253	0.075815
H90	H	-0.519707	-1.567383	0.000491
H91	H	-0.444585	-1.607966	-0.051917
H92	H	-0.451659	-1.587944	0.127581
H93	H	-0.376538	-1.628549	0.075203
H94	H	-0.460291	-1.776951	0.023944
H95	H	-0.535412	-1.736356	0.076350
H96	H	-0.459477	-1.777192	0.127219
C97	C	0.246758	-1.168701	0.435648
C98	C	0.228662	-1.061605	0.465730
C99	C	0.289927	-0.977489	0.433826
H100	H	0.300705	-1.183271	0.456835
H101	H	0.246634	-1.169707	0.372406
H102	H	0.228794	-1.060602	0.528959
H103	H	0.174725	-1.047000	0.444545
H104	H	0.289803	-0.978494	0.370584
H105	H	0.343870	-0.992069	0.455015
H106	H	0.277652	-0.904814	0.454225
H107	H	-0.335648	-1.441561	0.134621
H108	H	0.089865	-1.151562	0.555719
