data_functionalizedCrystal
_audit_creation_method	'MofGen! by Chris Wilmer'
_symmetry_space_group_name_H-M	'P1'
_symmetry_Int_Tables_number	1
_symmetry_cell_setting	triclinic
loop_
_symmetry_equiv_pos_as_xyz
  x,y,z
_cell_length_a	17.640112
_cell_length_b	10.686685
_cell_length_c	10.686551
_cell_angle_alpha	90.361117
_cell_angle_beta	82.289674
_cell_angle_gamma	96.062363
loop_
_atom_site_label
_atom_site_type_symbol
_atom_site_fract_x
_atom_site_fract_y
_atom_site_fract_z
Zn1	Zn	1.227813	-0.080760	0.324058
Zn2	Zn	1.229238	-0.306217	0.129917
Zn3	Zn	1.090565	-0.137619	0.161663
Zn4	Zn	1.110115	-0.325351	0.380720
O5	O	1.164433	-0.212487	0.249090
O6	O	1.335294	-0.078863	0.261306
O7	O	1.203258	-0.299639	-0.038796
O8	O	1.099993	0.042845	0.172779
O9	O	1.336342	-0.244506	0.118671
O10	O	1.200828	0.084619	0.292090
O11	O	1.101375	-0.175771	-0.015472
O12	O	0.985866	-0.194326	0.227721
O13	O	1.133313	-0.277118	0.546128
O14	O	1.000229	-0.332252	0.388660
O15	O	1.219785	-0.097418	0.504499
O16	O	1.222215	-0.481676	0.173613
O17	O	1.134695	-0.495734	0.357877
C18	C	0.965228	-0.271536	0.317785
C19	C	0.880010	-0.296825	0.347204
C20	C	1.180753	-0.533533	0.268468
C21	C	1.187807	-0.670854	0.276776
C22	C	0.562239	-0.020349	0.025605
C23	C	0.482165	-0.044135	0.053267
C24	C	0.497175	-0.188000	0.220594
C25	C	0.577251	-0.164221	0.192950
C26	C	0.609776	-0.080396	0.095453
C27	C	0.624789	-0.224268	0.262798
C28	C	0.704858	-0.200496	0.235152
C29	C	0.737390	-0.116677	0.137657
C30	C	0.689846	-0.056624	0.067807
C31	C	0.592263	-0.308100	0.360288
C32	C	0.639801	-0.368147	0.430137
C33	C	0.719871	-0.344369	0.402497
C34	C	0.752402	-0.260550	0.305002
C35	C	0.767415	-0.404422	0.472347
C36	C	0.847484	-0.380650	0.444700
C37	C	0.832472	-0.236778	0.277355
C38	C	1.364416	-0.153208	0.180127
C39	C	1.449637	-0.127946	0.150740
C40	C	1.178571	-0.183060	0.571405
C41	C	1.184595	-0.170520	0.708756
C42	C	1.148071	0.109822	0.229655
C43	C	1.141098	0.247171	0.221373
C44	C	1.150389	-0.241697	-0.071992
C45	C	1.144496	-0.253844	-0.209415
H46	H	1.233197	-0.705731	0.330556
C47	C	1.237208	-0.061185	0.756061
H48	H	1.234492	-0.066811	0.845267
H49	H	1.288725	-0.065905	0.718284
H50	H	1.220854	0.016617	0.733832
H51	H	0.443461	0.004778	-0.003611
C52	C	0.899782	-0.446687	0.521534
H53	H	0.952126	-0.420530	0.491096
H54	H	0.889402	-0.425038	0.608033
H55	H	0.890091	-0.535247	0.512850
C56	C	0.868258	-0.144564	0.170118
H57	H	0.922753	-0.139004	0.163667
H58	H	0.852397	-0.173991	0.092675
H59	H	0.851712	-0.063796	0.187875
C60	C	1.079784	-0.705728	0.148720
H61	H	1.082924	-0.616517	0.152494
H62	H	1.088472	-0.731072	0.063084
H63	H	1.030123	-0.740518	0.185783
C64	C	1.091900	-0.363194	0.743287
H65	H	1.067558	-0.413797	0.813037
H66	H	1.053908	-0.330391	0.701585
H67	H	1.121796	-0.412879	0.686065
C68	C	0.725628	0.035601	-0.039423
H69	H	0.685850	0.067964	-0.077066
H70	H	0.756207	0.102955	-0.006080
H71	H	0.756896	-0.007233	-0.101288
C72	C	0.598021	0.071876	-0.081625
H73	H	0.558243	0.104238	-0.119268
H74	H	0.628600	0.139230	-0.048282
H75	H	0.629289	0.029042	-0.143490
C76	C	0.504189	-0.334268	0.390693
H77	H	0.491626	-0.392806	0.458746
H78	H	0.482950	-0.257987	0.413642
H79	H	0.483655	-0.368182	0.318442
C80	C	0.604018	-0.460343	0.537380
H81	H	0.549523	-0.465896	0.543849
H82	H	0.620569	-0.541105	0.519648
H83	H	0.619880	-0.430887	0.614820
C84	C	0.731631	-0.496627	0.579582
H85	H	0.677136	-0.502182	0.586045
H86	H	0.748184	-0.577387	0.561842
H87	H	0.747489	-0.467180	0.657027
H88	H	0.802588	-0.097327	0.115147
H89	H	0.470682	-0.256255	0.299972
