data_functionalizedCrystal
_audit_creation_method	'MofGen! by Chris Wilmer'
_symmetry_space_group_name_H-M	'P1'
_symmetry_Int_Tables_number	1
_symmetry_cell_setting	triclinic
loop_
_symmetry_equiv_pos_as_xyz
  x,y,z
_cell_length_a	29.839134
_cell_length_b	29.839131
_cell_length_c	14.908694
_cell_angle_alpha	93.257638
_cell_angle_beta	86.673772
_cell_angle_gamma	90.030088
loop_
_atom_site_label
_atom_site_type_symbol
_atom_site_fract_x
_atom_site_fract_y
_atom_site_fract_z
Zn1	Zn	0.701426	-0.193570	-0.510257
Zn2	Zn	0.697023	-0.264367	-0.359369
Zn3	Zn	0.621966	-0.189246	-0.359389
Zn4	Zn	0.626261	-0.268664	-0.510153
O5	O	0.661669	-0.228962	-0.434792
O6	O	0.763710	-0.202973	-0.490277
O7	O	0.683426	-0.250794	-0.233129
O8	O	0.632552	-0.126954	-0.379453
O9	O	0.760475	-0.254987	-0.379420
O10	O	0.690930	-0.130131	-0.490296
O11	O	0.628282	-0.195603	-0.233144
O12	O	0.559668	-0.199769	-0.379353
O13	O	0.639872	-0.262311	-0.636410
O14	O	0.562824	-0.258118	-0.490119
O15	O	0.695095	-0.207139	-0.636486
O16	O	0.687591	-0.327803	-0.379320
O17	O	0.635603	-0.330960	-0.490100
C18	C	0.544945	-0.228941	-0.434727
C19	C	0.495010	-0.228943	-0.434721
C20	C	0.187019	-0.259384	-0.492397
C21	C	-0.000653	-0.259398	-0.492438
O22	O	-0.023513	-0.285258	-0.541438
N23	N	-0.025771	-0.228980	-0.434860
C24	C	-0.003969	-0.198555	-0.377273
O25	O	-0.029640	-0.172680	-0.328307
C26	C	0.183703	-0.198539	-0.377238
C27	C	0.208819	-0.228962	-0.434813
C28	C	0.212135	-0.289804	-0.549968
C29	C	0.259050	-0.289802	-0.549954
C30	C	0.280849	-0.259380	-0.492369
C31	C	0.255734	-0.228960	-0.434799
C32	C	0.205504	-0.168112	-0.319656
C33	C	0.252425	-0.168110	-0.319654
C34	C	0.277541	-0.198533	-0.377228
C35	C	0.324448	-0.198536	-0.377200
N36	N	0.349566	-0.228953	-0.434777
C37	C	0.327767	-0.259375	-0.492362
C38	C	-0.102499	-0.198566	-0.377294
C39	C	-0.149416	-0.198570	-0.377301
C40	C	-0.146097	-0.259413	-0.492468
C41	C	-0.099179	-0.259410	-0.492455
C42	C	-0.077380	-0.228983	-0.434871
C43	C	0.426292	-0.259369	-0.492327
C44	C	0.473211	-0.259365	-0.492306
C45	C	0.469888	-0.198521	-0.377143
C46	C	0.422973	-0.198526	-0.377161
C47	C	0.401176	-0.228952	-0.434761
O48	O	0.347338	-0.172686	-0.328232
O49	O	0.353446	-0.285240	-0.541334
C50	C	0.140104	-0.259386	-0.492412
C51	C	0.114988	-0.228966	-0.434841
C52	C	0.136788	-0.198544	-0.377256
C53	C	0.068071	-0.228971	-0.434848
C54	C	0.046272	-0.259393	-0.492433
C55	C	0.071390	-0.289811	-0.550010
C56	C	0.118305	-0.289808	-0.549996
C57	C	0.111669	-0.168126	-0.319679
C58	C	0.064754	-0.168131	-0.319697
C59	C	0.042955	-0.198553	-0.377281
C60	C	0.661598	-0.345682	-0.434716
C61	C	0.661610	-0.395616	-0.434714
C62	C	0.692063	-0.706884	-0.492590
C63	C	0.692113	-0.894558	-0.492644
O64	O	0.717937	-0.920202	-0.541796
N65	N	0.661748	-0.916407	-0.434892
C66	C	0.631367	-0.891333	-0.377127
O67	O	0.605537	-0.914223	-0.328013
C68	C	0.631314	-0.703660	-0.377078
C69	C	0.661685	-0.681814	-0.434827
C70	C	0.722430	-0.685038	-0.550335
C71	C	0.722419	-0.638122	-0.550318
C72	C	0.692040	-0.613052	-0.492555
C73	C	0.661673	-0.634898	-0.434810
C74	C	0.600931	-0.678587	-0.319318
C75	C	0.600920	-0.631666	-0.319312
C76	C	0.631290	-0.609820	-0.377061
C77	C	0.631283	-0.562912	-0.377029
N78	N	0.661649	-0.541064	-0.434781
C79	C	0.692027	-0.566134	-0.492544
C80	C	0.631397	-0.989865	-0.377155
C81	C	0.631410	-1.036783	-0.377166
C82	C	0.692156	-1.040005	-0.492685
C83	C	0.692145	-0.993086	-0.492669
C84	C	0.661762	-0.968016	-0.434907
C85	C	0.692001	-0.467607	-0.492502
C86	C	0.691989	-0.420686	-0.492477
C87	C	0.631241	-0.417469	-0.376962
C88	C	0.631255	-0.464385	-0.376983
C89	C	0.661637	-0.489453	-0.434761
O90	O	0.605470	-0.537240	-0.327910
O91	O	0.717846	-0.543236	-0.541665
C92	C	0.692074	-0.753800	-0.492608
C93	C	0.661707	-0.775646	-0.434862
C94	C	0.631329	-0.750576	-0.377099
C95	C	0.661720	-0.822564	-0.434873
C96	C	0.692099	-0.847634	-0.492636
C97	C	0.722464	-0.825786	-0.550388
C98	C	0.722453	-0.778870	-0.550371
C99	C	0.600963	-0.772424	-0.319348
C100	C	0.600978	-0.819340	-0.319369
C101	C	0.631356	-0.844410	-0.377132
C102	C	0.778849	-0.228983	-0.434858
C103	C	0.828785	-0.228992	-0.434886
C104	C	0.668454	-0.235687	-0.670097
C105	C	0.671345	-0.238553	-0.770369
C106	C	0.661753	-0.111786	-0.434888
C107	C	0.661789	-0.061853	-0.434929
C108	C	0.619347	-0.186468	-0.958809
C109	C	0.622062	-0.189159	-1.053024
C110	C	0.679488	-0.246628	-1.053017
C111	C	0.676773	-0.243937	-0.958801
C112	C	0.646702	-0.213856	-0.911701
C113	C	0.643989	-0.211162	-0.817484
C114	C	0.701413	-0.268633	-0.817478
C115	C	0.704128	-0.271324	-0.911693
C116	C	0.654936	-0.222230	-0.200403
C117	C	0.652132	-0.219238	-0.100131
H118	H	-0.169862	-0.173801	-0.330409
H119	H	0.408551	-0.284143	-0.539232
C120	C	0.276400	-0.134638	-0.256303
N121	N	0.294457	-0.109429	-0.208584
C122	C	0.493876	-0.165054	-0.313813
N123	N	0.511946	-0.139842	-0.266121
H124	H	0.599787	-0.166858	-1.091376
C125	C	0.712356	-0.279922	-1.104842
N126	N	0.737037	-0.305073	-1.143877
H127	H	0.576200	-0.696366	-0.272292
H128	H	0.493659	-0.284141	-0.539191
C129	C	0.395344	-0.165063	-0.313820
N130	N	0.374537	-0.139855	-0.266115
C131	C	0.737105	-0.304512	-0.963514
N132	N	0.761908	-0.329545	-1.002545
H133	H	0.138751	-0.314582	-0.596880
H134	H	0.594865	-0.161971	-0.920459
C135	C	0.286672	-0.323268	-0.613296
N136	N	0.307474	-0.348475	-0.661010
H137	H	0.723689	-0.290932	-0.779113
H138	H	0.194392	-0.314578	-0.596866
H139	H	-0.078732	-0.284183	-0.539339
C140	C	0.598004	-1.060808	-0.313631
N141	N	0.572839	-1.078901	-0.265777
H142	H	0.747148	-0.620338	-0.597345
H143	H	0.619505	-0.186667	-0.779136
H144	H	-0.084755	-0.173788	-0.330398
C145	C	-0.170084	-0.292875	-0.555817
N146	N	-0.188154	-0.318075	-0.603534
H147	H	0.716721	-0.402901	-0.539503
C148	C	0.047402	-0.323274	-0.613356
N149	N	0.029332	-0.348476	-0.661069
H150	H	0.185063	-0.143339	-0.272770
H151	H	0.044308	-0.143358	-0.272804
H152	H	0.129413	-0.143352	-0.272785
C153	C	0.725552	-0.969060	-0.556201
N154	N	0.750715	-0.950966	-0.604057
H155	H	0.716738	-0.488012	-0.539556
C156	C	0.597824	-0.389883	-0.313429
N157	N	0.572652	-0.369104	-0.265582
H158	H	0.716892	-1.060425	-0.539717
C159	C	0.755856	-0.712608	-0.613877
N160	N	0.781037	-0.733370	-0.661734
H161	H	0.606654	-0.969456	-0.330117
H162	H	0.576177	-0.611257	-0.272277
C163	C	0.597849	-0.488416	-0.313452
N164	N	0.572684	-0.506513	-0.265605
H165	H	0.747183	-0.761086	-0.597396
C166	C	0.755880	-0.853372	-0.613929
N167	N	0.781045	-0.874152	-0.661789
H168	H	0.576225	-0.752015	-0.272311
C169	C	0.567565	-0.843365	-0.255836
N170	N	0.542397	-0.861459	-0.207990
