data_functionalizedCrystal
_audit_creation_method	'MofGen! by Chris Wilmer'
_symmetry_space_group_name_H-M	'P1'
_symmetry_Int_Tables_number	1
_symmetry_cell_setting	triclinic
loop_
_symmetry_equiv_pos_as_xyz
  x,y,z
_cell_length_a	13.032831
_cell_length_b	13.897448
_cell_length_c	13.897441
_cell_angle_alpha	90.030599
_cell_angle_beta	97.193526
_cell_angle_gamma	82.822399
loop_
_atom_site_label
_atom_site_type_symbol
_atom_site_fract_x
_atom_site_fract_y
_atom_site_fract_z
Zn1	Zn	1.597719	-0.571548	0.732369
Zn2	Zn	1.847719	-0.321548	0.982369
Zn3	Zn	2.097719	-0.071548	1.232369
Zn4	Zn	2.347719	0.178452	1.482369
Zn5	Zn	1.597604	-0.732856	0.571057
Zn6	Zn	1.847604	-0.482856	0.821057
Zn7	Zn	2.097604	-0.232856	1.071057
Zn8	Zn	2.347604	0.017144	1.321057
Zn9	Zn	1.422952	-0.551073	0.550633
Zn10	Zn	1.672952	-0.301073	0.800633
Zn11	Zn	1.922952	-0.051073	1.050633
Zn12	Zn	2.172952	0.198927	1.300633
Zn13	Zn	1.422932	-0.712283	0.711867
Zn14	Zn	1.672932	-0.462283	0.961867
Zn15	Zn	1.922932	-0.212283	1.211867
Zn16	Zn	2.172932	0.037717	1.461867
O17	O	1.510302	-0.641940	0.641481
O18	O	1.760302	-0.391940	0.891481
O19	O	2.010302	-0.141940	1.141481
O20	O	2.260302	0.108060	1.391481
O21	O	1.743946	-0.610124	0.728098
O22	O	1.993946	-0.360124	0.978098
O23	O	2.243946	-0.110124	1.228098
O24	O	2.493946	0.139876	1.478098
O25	O	1.574397	-0.708783	0.433361
O26	O	1.824397	-0.458783	0.683361
O27	O	2.074397	-0.208783	0.933361
O28	O	2.324397	0.041217	1.183361
O29	O	1.446192	-0.418814	0.574774
O30	O	1.696192	-0.168814	0.824774
O31	O	1.946192	0.081186	1.074774
O32	O	2.196192	0.331186	1.324774
O33	O	1.743861	-0.728636	0.609582
O34	O	1.993861	-0.478636	0.859582
O35	O	2.243861	-0.228636	1.109582
O36	O	2.493861	0.021364	1.359582
O37	O	1.574592	-0.433857	0.708294
O38	O	1.824592	-0.183857	0.958294
O39	O	2.074592	0.066143	1.208294
O40	O	2.324592	0.316143	1.458294
O41	O	1.446080	-0.575228	0.418356
O42	O	1.696080	-0.325228	0.668356
O43	O	1.946080	-0.075228	0.918356
O44	O	2.196080	0.174772	1.168356
O45	O	1.276708	-0.555280	0.554894
O46	O	1.526708	-0.305280	0.804894
O47	O	1.776708	-0.055280	1.054894
O48	O	2.026708	0.194720	1.304894
O49	O	1.446158	-0.693573	0.849573
O50	O	1.696158	-0.443573	1.099573
O51	O	1.946158	-0.193573	1.349573
O52	O	2.196158	0.056427	1.599573
O53	O	1.276694	-0.673720	0.673351
O54	O	1.526694	-0.423720	0.923351
O55	O	1.776694	-0.173720	1.173351
O56	O	2.026694	0.076280	1.423351
O57	O	1.574573	-0.590175	0.864635
O58	O	1.824573	-0.340175	1.114635
O59	O	2.074573	-0.090175	1.364635
O60	O	2.324573	0.159825	1.614635
O61	O	1.574377	-0.865102	0.589702
O62	O	1.824377	-0.615102	0.839702
O63	O	2.074377	-0.365102	1.089702
O64	O	2.324377	-0.115102	1.339702
O65	O	1.446047	-0.849987	0.693155
O66	O	1.696047	-0.599987	0.943155
O67	O	1.946047	-0.349987	1.193155
O68	O	2.196047	-0.099987	1.443155
C69	C	1.238782	-0.610047	0.609682
C70	C	1.488782	-0.360047	0.859682
C71	C	1.738782	-0.110047	1.109682
C72	C	1.988782	0.139953	1.359682
C73	C	1.122625	-0.596426	0.596101
C74	C	1.372625	-0.346426	0.846101
C75	C	1.622625	-0.096426	1.096101
C76	C	1.872625	0.153574	1.346101
C77	C	1.070858	-0.649049	0.648569
C78	C	1.320858	-0.399049	0.898569
C79	C	1.570858	-0.149049	1.148569
C80	C	1.820858	0.100951	1.398569
C81	C	0.950803	-0.634972	0.634534
C82	C	1.200803	-0.384972	0.884534
C83	C	1.450803	-0.134972	1.134534
C84	C	1.700803	0.115028	1.384534
C85	C	1.510226	-0.892545	0.641444
C86	C	1.760226	-0.642545	0.891444
C87	C	2.010226	-0.392545	1.141444
C88	C	2.260226	-0.142545	1.391444
C89	C	1.510289	-0.999767	0.641472
C90	C	1.760289	-0.749767	0.891472
C91	C	2.010289	-0.499767	1.141472
C92	C	2.260289	-0.249767	1.391472
C93	C	1.510399	-1.196075	0.641545
C94	C	1.760399	-0.946075	0.891545
C95	C	2.010399	-0.696075	1.141545
C96	C	2.260399	-0.446075	1.391545
C97	C	1.510335	-1.086835	0.641507
C98	C	1.760335	-0.836835	0.891507
C99	C	2.010335	-0.586835	1.141507
C100	C	2.260335	-0.336835	1.391507
C101	C	1.782882	-0.673959	0.673405
C102	C	2.032882	-0.423959	0.923405
C103	C	2.282882	-0.173959	1.173405
C104	C	2.532882	0.076041	1.423405
C105	C	1.899040	-0.687603	0.687009
C106	C	2.149040	-0.437603	0.937009
C107	C	2.399040	-0.187603	1.187009
C108	C	2.649040	0.062397	1.437009
C109	C	1.510376	-0.641863	0.893083
C110	C	1.760376	-0.391863	1.143083
C111	C	2.010376	-0.141863	1.393083
C112	C	2.260376	0.108137	1.643083
C113	C	1.510408	-0.641831	1.000301
C114	C	1.760408	-0.391831	1.250301
C115	C	2.010408	-0.141831	1.500301
C116	C	2.260408	0.108169	1.750301
C117	C	1.510407	-0.390359	0.641543
C118	C	1.760407	-0.140359	0.891543
C119	C	2.010407	0.109641	1.141543
C120	C	2.260407	0.359641	1.391543
C121	C	1.510452	-0.283151	0.641569
C122	C	1.760452	-0.033151	0.891569
C123	C	2.010452	0.216849	1.141569
C124	C	2.260452	0.466849	1.391569
C125	C	1.510288	-0.641954	0.390865
C126	C	1.760288	-0.391954	0.640865
C127	C	2.010288	-0.141954	0.890865
C128	C	2.260288	0.108046	1.140865
C129	C	1.510459	-0.641738	0.283672
C130	C	1.760459	-0.391738	0.533672
C131	C	2.010459	-0.141738	0.783672
C132	C	2.260459	0.108262	1.033672
C133	C	1.510436	-0.641769	1.196599
C134	C	1.760436	-0.391769	1.446599
C135	C	2.010436	-0.141769	1.696599
C136	C	2.260436	0.108231	1.946599
C137	C	1.510417	-0.641806	1.087365
C138	C	1.760417	-0.391806	1.337365
C139	C	2.010417	-0.141806	1.587365
C140	C	2.260417	0.108194	1.837365
H141	H	1.115419	-0.704520	0.703883
H142	H	1.365419	-0.454520	0.953883
H143	H	1.615419	-0.204520	1.203883
H144	H	1.865419	0.045480	1.453883
H145	H	1.078063	-0.540948	0.540795
H146	H	1.328063	-0.290948	0.790795
H147	H	1.578063	-0.040948	1.040795
H148	H	1.828063	0.209052	1.290795
N149	N	0.954908	-0.757214	0.756399
N150	N	1.204908	-0.507214	1.006399
N151	N	1.454908	-0.257214	1.256399
N152	N	1.704908	-0.007214	1.506399
N153	N	0.906298	-0.806697	0.805730
N154	N	1.156298	-0.556697	1.055730
N155	N	1.406298	-0.306697	1.305730
N156	N	1.656298	-0.056697	1.555730
H157	H	0.945754	-0.855860	0.854736
H158	H	1.195754	-0.605860	1.104736
H159	H	1.445754	-0.355860	1.354736
H160	H	1.695754	-0.105860	1.604736
H161	H	0.906246	-0.579491	0.579224
H162	H	1.156246	-0.329491	0.829224
H163	H	1.406246	-0.079491	1.079224
H164	H	1.656246	0.170509	1.329224
