data_functionalizedCrystal
_audit_creation_method	'MofGen! by Chris Wilmer'
_symmetry_space_group_name_H-M	'P1'
_symmetry_Int_Tables_number	1
_symmetry_cell_setting	triclinic
loop_
_symmetry_equiv_pos_as_xyz
  x,y,z
_cell_length_a	6.817900
_cell_length_b	19.551823
_cell_length_c	11.102291
_cell_angle_alpha	94.525465
_cell_angle_beta	108.605752
_cell_angle_gamma	101.663376
loop_
_atom_site_label
_atom_site_type_symbol
_atom_site_fract_x
_atom_site_fract_y
_atom_site_fract_z
V1	V	-4.076534	-0.096684	-0.396853
O2	O	-4.072250	0.004637	-0.388687
O3	O	-4.018910	-0.191699	-0.394727
O4	O	-4.053856	-0.095200	-0.569666
O5	O	-4.037063	-0.092529	-0.212537
V6	V	-4.558024	-0.084564	-0.374736
O7	O	-4.342252	-0.123269	-0.445369
O8	O	-4.742504	-0.057979	-0.326220
O9	O	-4.392441	0.010451	-0.376862
O10	O	-4.679705	-0.185885	-0.382902
O11	O	-4.714892	-0.088718	-0.559052
O12	O	-4.357496	-0.086047	-0.201923
C13	C	-3.860835	-0.214861	-0.388618
C14	C	-3.895179	-0.292537	-0.388032
C15	C	-4.094026	-0.332583	-0.394112
C16	C	-4.126302	-0.405569	-0.393574
C17	C	-3.959708	-0.438504	-0.386930
C18	C	-3.760838	-0.398450	-0.380856
C19	C	-3.728573	-0.325466	-0.381407
C20	C	-3.834485	-0.544991	-0.306339
C21	C	-3.866752	-0.617972	-0.305781
C22	C	-4.059218	-0.663610	-0.385236
C23	C	-4.219439	-0.636257	-0.465234
C24	C	-4.187174	-0.563274	-0.465785
C25	C	-3.994674	-0.517643	-0.386332
C26	C	-4.293076	-0.782796	-0.390734
C27	C	-4.325350	-0.855785	-0.390204
C28	C	-3.959873	-0.848663	-0.377474
C29	C	-3.927612	-0.775677	-0.378017
C30	C	-4.094218	-0.742748	-0.384641
C31	C	-3.905410	-0.091767	-0.611769
C32	C	-3.968091	-0.091183	-0.753049
C33	C	-4.180283	-0.094394	-0.825916
C34	C	-4.239158	-0.093831	-0.958659
C35	C	-3.873629	-0.086850	-0.945655
C36	C	-3.814754	-0.087408	-0.812913
C37	C	-4.391321	-0.098427	-0.833426
C38	C	-4.450196	-0.097865	-0.966169
C39	C	-4.213858	0.033610	-0.382968
C40	C	-4.158753	0.111285	-0.383562
C41	C	-4.169282	-0.089483	-0.159814
C42	C	-4.085841	-0.090063	-0.018533
H43	H	-3.765687	-0.743070	-0.373058
C44	C	-3.581330	-0.083874	-0.732762
N45	N	-3.405508	-0.081214	-0.672393
H46	H	-4.575601	-0.148387	-1.019326
C47	C	-4.523741	-0.030846	-1.005080
N48	N	-4.579128	0.019633	-1.034390
C49	C	-3.509812	-0.281413	-0.374707
N50	N	-3.345036	-0.248231	-0.369655
C51	C	-3.704951	-0.082657	-1.011507
N52	N	-3.577890	-0.079484	-1.061101
C53	C	-3.690540	-0.648051	-0.217741
N54	N	-3.557821	-0.670704	-0.151415
C55	C	-3.622751	-0.494794	-0.218923
N56	N	-3.463279	-0.456988	-0.153082
C57	C	-3.577580	-0.434679	-0.373540
N58	N	-3.439545	-0.461967	-0.368030
H59	H	-4.427966	-0.051001	-0.786038
H60	H	-4.317631	-0.541006	-0.530924
H61	H	-4.229697	-0.305778	-0.399515
C62	C	-4.494718	-0.168820	-0.800803
N63	N	-4.572598	-0.221841	-0.776231
H64	H	-4.288232	-0.438181	-0.398524
H65	H	-4.376008	-0.673426	-0.530109
H66	H	-4.487282	-0.888390	-0.395164
C67	C	-4.476346	-0.746572	-0.398025
N68	N	-4.614386	-0.719290	-0.403515
H69	H	-3.824232	-0.875478	-0.372072
