data_functionalizedCrystal
_audit_creation_method	'MofGen! by Chris Wilmer'
_symmetry_space_group_name_H-M	'P1'
_symmetry_Int_Tables_number	1
_symmetry_cell_setting	triclinic
loop_
_symmetry_equiv_pos_as_xyz
  x,y,z
_cell_length_a	35.277628
_cell_length_b	35.288095
_cell_length_c	35.277682
_cell_angle_alpha	59.997929
_cell_angle_beta	89.998958
_cell_angle_gamma	60.000166
loop_
_atom_site_label
_atom_site_type_symbol
_atom_site_fract_x
_atom_site_fract_y
_atom_site_fract_z
O1	O	-0.323087	-0.271234	0.011271
O2	O	-0.267964	-0.193634	-0.011228
O3	O	-0.267962	-0.271233	0.066395
O4	O	-0.323089	-0.193635	-0.066351
O5	O	-0.204915	-0.334261	0.066394
O6	O	-0.204918	-0.256661	-0.011228
O7	O	-0.260040	-0.334261	0.011271
Cu8	Cu	-0.226722	-0.301216	0.000022
Cu9	Cu	-0.301282	-0.226679	0.000022
O10	O	-0.260043	-0.256662	-0.066351
C11	C	-0.163481	-0.071298	-0.023519
C12	C	-0.186872	-0.024531	-0.020298
C13	C	-0.117860	-0.093995	-0.023838
C14	C	-0.163483	-0.139918	-0.023524
C15	C	-0.186875	-0.166518	-0.020308
C16	C	-0.117862	-0.162510	-0.023843
C17	C	-0.094838	-0.139921	-0.023519
C18	C	-0.044836	-0.166525	-0.020298
C19	C	-0.186401	-0.093991	-0.023843
C20	C	-0.004439	-0.188019	-0.017694
C21	C	-0.205769	0.013252	-0.017695
C22	C	-0.205774	-0.188010	-0.017709
C23	C	0.046241	-0.214983	-0.014429
C24	C	-0.229477	0.060653	-0.014430
C25	C	-0.229483	-0.214971	-0.014450
C26	C	-0.500364	-0.466062	0.034181
C27	C	-0.477341	-0.511990	0.034503
C28	C	-0.431722	-0.466060	0.034178
C29	C	-0.408804	-0.511988	0.034500
C30	C	-0.431721	-0.534685	0.034181
C31	C	-0.477342	-0.443470	0.034500
C32	C	-0.665895	-0.342485	0.021756
C33	C	-0.712772	-0.317221	0.018243
C34	C	-0.736287	-0.338907	0.016481
C35	C	-0.787116	-0.311512	0.012664
C36	C	-0.712921	-0.385861	0.018236
C37	C	-0.666047	-0.411125	0.021755
C38	C	-0.642533	-0.389434	0.023515
C39	C	-0.389805	-0.687746	0.021758
C40	C	-0.368199	-0.731097	0.018245
C41	C	-0.322995	-0.752841	0.016478
C42	C	-0.299567	-0.799839	0.012662
C43	C	-0.299393	-0.731235	0.018230
C44	C	-0.320995	-0.687892	0.021751
C45	C	-0.366205	-0.666148	0.023512
C46	C	-0.389808	-0.342477	0.021744
C47	C	-0.368205	-0.317208	0.018222
C48	C	-0.322998	-0.338892	0.016457
C49	C	-0.299573	-0.311495	0.012637
C50	C	-0.299398	-0.385842	0.018210
C51	C	-0.321003	-0.411107	0.021730
C52	C	-0.366208	-0.389423	0.023501
C53	C	-0.591706	-0.416830	0.027326
C54	C	-0.551191	-0.438667	0.030366
C55	C	-0.408299	-0.438663	0.030360
C56	C	-0.389629	-0.416824	0.027317
C57	C	-0.408298	-0.581682	0.030365
C58	C	-0.389627	-0.619146	0.027325
C59	C	-0.432024	-0.061845	-0.438511
C60	C	-0.477645	-0.015917	-0.461431
C61	C	-0.432025	-0.061844	-0.369869
C62	C	-0.477645	-0.015916	-0.392892
C63	C	-0.500668	0.006779	-0.438513
C64	C	-0.409106	-0.084435	-0.392891
C65	C	-0.320834	-0.185425	-0.480424
C66	C	-0.299076	-0.210690	-0.502029
C67	C	-0.322531	-0.189005	-0.547237
C68	C	-0.298945	-0.216401	-0.570661
C69	C	-0.367745	-0.142051	-0.570839
C70	C	-0.389497	-0.116787	-0.549237
C71	C	-0.366040	-0.138476	-0.504027
C72	C	-0.666200	0.159838	-0.549704
C73	C	-0.713077	0.203188	-0.571462
C74	C	-0.736595	0.224934	-0.548009
C75	C	-0.787423	0.271931	-0.571594
C76	C	-0.713230	0.203329	-0.502796
C77	C	-0.666353	0.159987	-0.481041
C78	C	-0.642841	0.138241	-0.504500
C79	C	-0.320836	-0.185423	-0.204335
C80	C	-0.299080	-0.210691	-0.157455
C81	C	-0.322536	-0.189006	-0.133940
C82	C	-0.298950	-0.216402	-0.083110
C83	C	-0.367748	-0.142056	-0.157305
C84	C	-0.389502	-0.116792	-0.204182
C85	C	-0.366040	-0.138478	-0.227695
C86	C	-0.389632	-0.111079	-0.480604
C87	C	-0.408436	-0.089241	-0.461934
C88	C	-0.408437	-0.089240	-0.319041
C89	C	-0.389634	-0.111078	-0.278525
C90	C	-0.551496	0.053776	-0.462102
C91	C	-0.592011	0.091239	-0.480906
O92	O	0.196122	-0.334274	0.011291
O93	O	0.063378	-0.256674	-0.011208
O94	O	0.140994	-0.334276	0.066414
O95	O	0.118506	-0.256671	-0.066331
O96	O	0.140996	-0.271251	0.066419
O97	O	0.063380	-0.193649	-0.011203
O98	O	0.196124	-0.271249	0.011296
Cu99	Cu	0.129752	-0.226694	0.000047
Cu100	Cu	0.129750	-0.301228	0.000041
O101	O	0.118508	-0.193647	-0.066327
O102	O	-0.260036	0.184774	0.011294
O103	O	-0.204910	0.074561	-0.011204
O104	O	-0.204913	0.074554	0.066418
O105	O	-0.260033	0.184781	-0.066328
O106	O	-0.267961	0.074557	0.066413
O107	O	-0.267958	0.074564	-0.011209
O108	O	-0.323083	0.184777	0.011289
Cu109	Cu	-0.301278	0.129670	0.000040
Cu110	Cu	-0.226716	0.129668	0.000045
O111	O	-0.323081	0.184784	-0.066333
O112	O	-0.936929	0.397535	-0.602582
O113	O	-0.804185	0.287317	-0.547454
O114	O	-0.881802	0.287315	-0.547452
O115	O	-0.859312	0.397537	-0.602584
O116	O	-0.881801	0.287314	-0.610498
O117	O	-0.804183	0.287316	-0.610500
O118	O	-0.936927	0.397533	-0.665628
Cu119	Cu	-0.870555	0.342425	-0.643820
Cu120	Cu	-0.870557	0.342426	-0.569261
O121	O	-0.859310	0.397536	-0.665629
O122	O	-0.267961	-0.271234	-0.665316
O123	O	-0.323086	-0.193638	-0.610192
O124	O	-0.323085	-0.271236	-0.610189
O125	O	-0.267962	-0.193636	-0.665319
O126	O	-0.260038	-0.334264	-0.547142
O127	O	-0.260039	-0.256666	-0.547145
O128	O	-0.204914	-0.334262	-0.602269
Cu129	Cu	-0.226720	-0.301219	-0.568950
Cu130	Cu	-0.301280	-0.226681	-0.643511
O131	O	-0.204915	-0.256664	-0.602272
C132	C	-0.094840	-0.456607	0.293255
C133	C	-0.044837	-0.503376	0.316647
C134	C	-0.117862	-0.433912	0.316174
C135	C	-0.163483	-0.387984	0.224612
C136	C	-0.186875	-0.361381	0.174609
C137	C	-0.186401	-0.365393	0.247634
C138	C	-0.163483	-0.387984	0.293255
C139	C	-0.186874	-0.361382	0.316646
C140	C	-0.117862	-0.433912	0.247635
C141	C	-0.205772	-0.339889	0.335543
C142	C	-0.004440	-0.541160	0.335545
C143	C	-0.205773	-0.339888	0.134212
C144	C	-0.229480	-0.312925	0.359250
C145	C	0.046239	-0.588562	0.359254
C146	C	-0.229481	-0.312924	0.083532
C147	C	0.153295	-0.388013	0.293279
C148	C	0.150076	-0.361413	0.316673
C149	C	0.153614	-0.433940	0.316196
C150	C	0.153297	-0.388008	0.224634
C151	C	0.150079	-0.361403	0.174632
C152	C	0.153616	-0.433935	0.247655
C153	C	0.153293	-0.456633	0.293275
C154	C	0.150072	-0.503401	0.316665
C155	C	0.153617	-0.365420	0.247659
C156	C	0.147469	-0.541185	0.335561
C157	C	0.147474	-0.339922	0.335572
C158	C	0.147479	-0.339908	0.134234
C159	C	0.144204	-0.588587	0.359267
C160	C	0.144211	-0.312962	0.359282
C161	C	0.144218	-0.312942	0.083555
C162	C	-0.163482	-0.139963	0.293267
C163	C	-0.186875	-0.166567	0.316654
C164	C	-0.117861	-0.162559	0.316187
C165	C	-0.163482	-0.071333	0.224628
C166	C	-0.186873	-0.024557	0.174627
C167	C	-0.117860	-0.094033	0.247653
C168	C	-0.094838	-0.139967	0.293272
C169	C	-0.044835	-0.166574	0.316665
C170	C	-0.186401	-0.094030	0.247648
C171	C	-0.004438	-0.188070	0.335563
C172	C	-0.205773	-0.188061	0.335549
C173	C	-0.205771	0.013233	0.134231
C174	C	0.046242	-0.215038	0.359273
C175	C	-0.229482	-0.215026	0.359253
C176	C	-0.229479	0.060643	0.083553
C177	C	0.095627	0.006487	-0.438489
C178	C	0.095306	-0.016206	-0.461409
C179	C	0.095623	-0.062137	-0.369847
C180	C	0.095303	-0.084726	-0.392871
C181	C	0.095625	-0.062133	-0.438492
C182	C	0.095305	-0.016210	-0.392868
C183	C	0.108059	0.159543	-0.480399
C184	C	0.111575	0.202893	-0.502003
C185	C	0.113340	0.224640	-0.547210
C186	C	0.117161	0.271637	-0.570634
C187	C	0.111587	0.203038	-0.570814
C188	C	0.108065	0.159695	-0.549212
C189	C	0.106302	0.137948	-0.504002
C190	C	0.108054	-0.116452	-0.549685
C191	C	0.111568	-0.141562	-0.571444
C192	C	0.113332	-0.188519	-0.547992
C193	C	0.117148	-0.215753	-0.571578
C194	C	0.111577	-0.210363	-0.502779
C195	C	0.108055	-0.185249	-0.481023
C196	C	0.106297	-0.138292	-0.504481
C197	C	0.108046	-0.116473	-0.204312
C198	C	0.111564	-0.141591	-0.157432
C199	C	0.113326	-0.188548	-0.133918
C200	C	0.117142	-0.215786	-0.083088
C201	C	0.111574	-0.210388	-0.157283
C202	C	0.108058	-0.185270	-0.204161
C203	C	0.106290	-0.138308	-0.227673
C204	C	0.102487	0.090947	-0.480580
C205	C	0.099445	0.053484	-0.461911
C206	C	0.099438	-0.089371	-0.319019
C207	C	0.102477	-0.111078	-0.278503
C208	C	0.099442	-0.089362	-0.462081
C209	C	0.102482	-0.111066	-0.480886
O210	O	0.118477	-0.256700	0.452885
O211	O	0.140984	-0.334299	0.397762
O212	O	0.063360	-0.256699	0.397752
O213	O	0.196101	-0.334300	0.452895
O214	O	0.063367	-0.193672	0.334708
O215	O	0.140992	-0.271271	0.334718
O216	O	0.118484	-0.193673	0.389842
Cu217	Cu	0.129739	-0.226717	0.356523
Cu218	Cu	0.129730	-0.301254	0.431080
O219	O	0.196108	-0.271272	0.389852
C220	C	-0.500364	0.533998	-0.438484
C221	C	-0.477341	0.556591	-0.461399
C222	C	-0.431721	0.465364	-0.369840
C223	C	-0.408802	0.488061	-0.392859
C224	C	-0.431720	0.533995	-0.438478
C225	C	-0.477342	0.488064	-0.392865
C226	C	-0.665898	0.588334	-0.480407
C227	C	-0.712776	0.613450	-0.502014
C228	C	-0.736291	0.660414	-0.547220
C229	C	-0.787122	0.687654	-0.570647
C230	C	-0.712926	0.682257	-0.570819
C231	C	-0.666050	0.657138	-0.549214
C232	C	-0.642536	0.610174	-0.504006
C233	C	-0.389802	0.657585	-0.549654
C234	C	-0.368196	0.682850	-0.571408
C235	C	-0.322990	0.661164	-0.547952
C236	C	-0.299561	0.688558	-0.571532
C237	C	-0.299388	0.614205	-0.502740
C238	C	-0.320990	0.588935	-0.480990
C239	C	-0.366202	0.610633	-0.504452
C240	C	-0.389804	0.312282	-0.204314
C241	C	-0.368201	0.268929	-0.157436
C242	C	-0.322993	0.247179	-0.133918
C243	C	-0.299567	0.200174	-0.083089
C244	C	-0.299392	0.268786	-0.157278
C245	C	-0.320998	0.312139	-0.204154
C246	C	-0.366204	0.333881	-0.227670
C247	C	-0.591708	0.582942	-0.480581
C248	C	-0.551193	0.561234	-0.461909
C249	C	-0.408297	0.418359	-0.319013
C250	C	-0.389626	0.380890	-0.278499
C251	C	-0.408296	0.561393	-0.462062
C252	C	-0.389624	0.583232	-0.480862
H253	H	-0.099380	-0.199466	-0.024359
O254	O	-0.433742	-0.666630	0.023409
C255	C	-0.513829	-0.623903	-0.015413
C256	C	-0.464093	-0.647813	-0.017336
H257	H	-0.538383	-0.608673	-0.048356
H258	H	-0.514729	-0.656069	0.016109
H259	H	-0.525201	-0.589228	-0.012578
H260	H	-0.452690	-0.682481	-0.020188
H261	H	-0.463221	-0.615614	-0.048852
H262	H	-0.099379	-0.074998	-0.024355
O263	O	0.154297	-0.321374	0.225583
C264	C	0.195228	-0.283410	0.187765
C265	C	0.194510	-0.333324	0.212747
H266	H	0.227742	-0.293057	0.177389
H267	H	0.163114	-0.249146	0.155373
H268	H	0.195372	-0.271083	0.212070
H269	H	0.194382	-0.345699	0.188479
H270	H	0.226622	-0.367556	0.245144
O271	O	-0.499435	0.600751	-0.506084
C272	C	-0.564443	0.693038	-0.559277
C273	C	-0.539467	0.643067	-0.508657
H274	H	-0.596819	0.727260	-0.561375
H275	H	-0.540158	0.705393	-0.571772
H276	H	-0.574859	0.683440	-0.582165
H277	H	-0.529049	0.652624	-0.485733
H278	H	-0.563767	0.630724	-0.496199
H279	H	-0.426617	-0.324814	0.023182
O280	O	-0.095747	-0.206641	0.360909
C281	C	-0.025445	-0.271795	0.426955
C282	C	-0.050438	-0.221868	0.376315
H283	H	0.011195	-0.284128	0.439423
H284	H	-0.045450	-0.262213	0.449858
H285	H	-0.023570	-0.306031	0.429064
H286	H	-0.052320	-0.187610	0.374161
H287	H	-0.030424	-0.231494	0.353435
O288	O	-0.364382	-0.128510	-0.370912
C289	C	-0.298331	-0.193665	-0.376034
C290	C	-0.348974	-0.143747	-0.400983
H291	H	-0.285862	-0.206007	-0.400332
H292	H	-0.275435	-0.184068	-0.365628
H293	H	-0.296215	-0.227901	-0.343655
H294	H	-0.351134	-0.109489	-0.433378
H295	H	-0.371847	-0.153388	-0.411354
O296	O	0.154249	-0.456686	0.360920
C297	C	0.155133	-0.527854	0.426966
C298	C	0.154424	-0.502156	0.376322
H299	H	0.155265	-0.564614	0.439430
H300	H	0.187624	-0.540336	0.449865
H301	H	0.122999	-0.497607	0.429082
H302	H	0.186536	-0.532375	0.374161
H303	H	0.121913	-0.489662	0.353445
H304	H	-0.223885	-0.074993	-0.024363
H305	H	-0.223883	-0.328432	0.229146
O306	O	-0.231125	-0.071417	0.225668
C307	C	-0.297177	-0.075661	0.230787
C308	C	-0.246533	-0.101317	0.255736
H309	H	-0.309647	-0.099830	0.255083
H310	H	-0.320072	-0.032773	0.220385
H311	H	-0.299295	-0.075405	0.198405
H312	H	-0.244372	-0.101611	0.288134
H313	H	-0.223662	-0.144190	0.266104
O314	O	-0.095883	-0.071290	0.225548
C315	C	-0.101009	-0.000123	0.155257
C316	C	-0.125955	-0.025817	0.180236
H317	H	-0.125308	0.036639	0.118615
H318	H	-0.090602	0.012355	0.175270
H319	H	-0.068631	-0.030371	0.153385
H320	H	-0.158349	0.004403	0.182114
H321	H	-0.136327	-0.038307	0.160214
O322	O	-0.364077	-0.534601	0.035144
C323	C	-0.298021	-0.530367	0.036038
C324	C	-0.348669	-0.504707	0.035313
H325	H	-0.285551	-0.506202	0.036165
H326	H	-0.275132	-0.573255	0.068538
H327	H	-0.295896	-0.530621	0.003912
H328	H	-0.350838	-0.504414	0.067417
H329	H	-0.371535	-0.461832	0.002793
H330	H	0.106623	0.141841	-0.443588
H331	H	-0.495827	-0.530983	0.035020
O332	O	0.094651	-0.128791	-0.370768
C333	C	0.093742	-0.193927	-0.300481
C334	C	0.094477	-0.144025	-0.325457
H335	H	0.093610	-0.206266	-0.263840
H336	H	0.061241	-0.184312	-0.320497
H337	H	0.125865	-0.228172	-0.298609
H338	H	0.062376	-0.109759	-0.327335
H339	H	0.126998	-0.153684	-0.305431
H340	H	-0.099377	-0.452909	0.353658
O341	O	0.094744	0.006488	-0.506110
C342	C	0.093887	0.077632	-0.572154
C343	C	0.094514	0.051995	-0.521536
H344	H	0.093691	0.114435	-0.584645
H345	H	0.126047	0.047402	-0.574261
H346	H	0.061422	0.090056	-0.595040
H347	H	0.126957	0.039572	-0.498620
H348	H	0.062332	0.082241	-0.519466
H349	H	-0.495829	-0.406511	0.035012
H350	H	-0.301778	0.329728	-0.223172
O351	O	-0.391189	-0.271617	0.016543
C352	C	-0.461724	-0.206191	0.016901
C353	C	-0.435744	-0.257831	0.018816
H354	H	-0.497756	-0.195023	0.018727
H355	H	-0.441511	-0.213011	0.047491
H356	H	-0.465148	-0.172287	-0.016972
H357	H	-0.432314	-0.291760	0.052668
H358	H	-0.455969	-0.250966	-0.011798
H359	H	-0.426614	0.329984	-0.223458
H360	H	-0.387419	-0.748683	0.016816
H361	H	-0.099372	-0.452898	0.229148
O362	O	-0.643115	-0.321368	0.023501
C363	C	-0.647909	-0.250631	0.023149
C364	C	-0.673764	-0.274486	0.021171
H365	H	-0.672680	-0.212717	0.021257
H366	H	-0.617436	-0.281107	0.057039
H367	H	-0.634475	-0.240392	-0.007419
H368	H	-0.687228	-0.284724	0.051716
H369	H	-0.704214	-0.243996	-0.012738
O370	O	-0.735533	-0.271569	0.016468
C371	C	-0.798924	-0.177977	-0.027421
C372	C	-0.773197	-0.229644	-0.025463
H373	H	-0.829375	-0.144064	-0.061323
H374	H	-0.812366	-0.184770	0.003137
H375	H	-0.774053	-0.166840	-0.025538
H376	H	-0.798040	-0.240809	-0.027361
H377	H	-0.759747	-0.222823	-0.056018
O378	O	-0.255481	0.247738	-0.134500
C379	C	-0.189503	0.252152	-0.139304
C380	C	-0.239232	0.276046	-0.165151
H381	H	-0.176347	0.275021	-0.164077
H382	H	-0.189492	0.255547	-0.108821
H383	H	-0.165842	0.208166	-0.125884
H384	H	-0.262921	0.320039	-0.178601
H385	H	-0.239207	0.272609	-0.195611
O386	O	0.113227	-0.255936	-0.480067
C387	C	0.077286	-0.298974	-0.479439
C388	C	0.075366	-0.247330	-0.505212
H389	H	0.046674	-0.292030	-0.499753
H390	H	0.111143	-0.332839	-0.476077
H391	H	0.075448	-0.310276	-0.443384
H392	H	0.077185	-0.235978	-0.541280
H393	H	0.041511	-0.213496	-0.508537
H394	H	-0.426314	-0.078564	-0.223203
O395	O	-0.255154	-0.256280	-0.134835
C396	C	-0.189349	-0.321704	-0.139926
C397	C	-0.239091	-0.270067	-0.165600
H398	H	-0.176350	-0.332873	-0.164785
H399	H	-0.165582	-0.314880	-0.126537
H400	H	-0.189303	-0.355610	-0.109433
H401	H	-0.239181	-0.236136	-0.196111
H402	H	-0.262836	-0.276935	-0.178955
O403	O	-0.364078	0.465320	-0.370747
C404	C	-0.298030	0.394162	-0.300446
C405	C	-0.348672	0.419851	-0.325436
H406	H	-0.285562	0.357402	-0.263805
H407	H	-0.275132	0.381681	-0.320453
H408	H	-0.295917	0.424415	-0.298574
H409	H	-0.350829	0.389627	-0.327313
H410	H	-0.371547	0.432343	-0.305420
O411	O	0.154252	-0.456541	0.225544
C412	C	0.155131	-0.452290	0.155244
C413	C	0.154420	-0.426642	0.180231
H414	H	0.155257	-0.428122	0.118601
H415	H	0.187625	-0.495180	0.175250
H416	H	0.123000	-0.452537	0.153375
H417	H	0.186528	-0.426357	0.182107
H418	H	0.121905	-0.383766	0.160216
O419	O	-0.255490	-0.752406	0.016492
C420	C	-0.191702	-0.819266	0.011096
C421	C	-0.241427	-0.795335	0.013051
H422	H	-0.180313	-0.853985	0.008324
H423	H	-0.190812	-0.787117	-0.020456
H424	H	-0.167153	-0.834433	0.044010
H425	H	-0.266003	-0.780170	-0.019840
H426	H	-0.242278	-0.827501	0.044625
H427	H	0.094825	0.002760	-0.374372
H428	H	-0.732070	-0.403516	0.016804
O429	O	-0.390462	-0.121045	-0.134401
C430	C	-0.387395	-0.129559	-0.062113
C431	C	-0.361615	-0.153403	-0.087996
H432	H	-0.364087	-0.155716	-0.024588
H433	H	-0.396744	-0.087297	-0.079803
H434	H	-0.420458	-0.128028	-0.062782
H435	H	-0.328536	-0.154971	-0.087335
H436	H	-0.352301	-0.195651	-0.070299
H437	H	0.106637	0.142110	-0.568432
O438	O	0.113238	-0.120292	-0.134812
C439	C	0.112874	-0.049416	-0.139902
C440	C	0.110967	-0.073477	-0.165576
H441	H	0.111049	-0.011569	-0.164761
H442	H	0.082281	-0.039042	-0.126514
H443	H	0.146743	-0.079855	-0.109408
H444	H	0.077118	-0.043065	-0.196088
H445	H	0.141584	-0.083864	-0.178930
H446	H	-0.386837	-0.124397	-0.607648
H447	H	-0.732097	0.220775	-0.608274
H448	H	-0.301775	-0.670305	0.023178
O449	O	-0.298040	-0.206412	-0.227221
C450	C	-0.268121	-0.192466	-0.290829
C451	C	-0.293927	-0.168642	-0.264943
H452	H	-0.264796	-0.161935	-0.321339
H453	H	-0.232054	-0.230349	-0.266112
H454	H	-0.288440	-0.202741	-0.304220
H455	H	-0.273647	-0.158333	-0.251550
H456	H	-0.329995	-0.130779	-0.289678
H457	H	0.106623	-0.203035	-0.444212
H458	H	-0.647026	-0.449354	0.023185
O459	O	0.106250	-0.070806	-0.227193
C460	C	0.062390	0.022697	-0.290795
C461	C	0.064357	-0.028976	-0.264916
H462	H	0.028528	0.056528	-0.321305
H463	H	0.064219	0.034036	-0.266072
H464	H	0.092990	0.015770	-0.304183
H465	H	0.033764	-0.022089	-0.251526
H466	H	0.062550	-0.040299	-0.289656
H467	H	0.113004	0.220477	-0.482781
O468	O	0.106325	-0.070827	-0.572546
C469	C	0.106714	-0.005254	-0.642939
C470	C	0.108664	-0.056917	-0.617110
H471	H	0.108614	0.006003	-0.678970
H472	H	0.072831	0.028627	-0.646351
H473	H	0.137289	-0.012166	-0.622600
H474	H	0.078113	-0.050057	-0.637427
H475	H	0.142566	-0.090780	-0.613694
O476	O	0.113330	0.224209	-0.614715
C477	C	0.118737	0.291064	-0.678499
C478	C	0.116775	0.267135	-0.628775
H479	H	0.121513	0.325781	-0.689886
H480	H	0.150289	0.258914	-0.679385
H481	H	0.085825	0.306234	-0.703051
H482	H	0.149665	0.251967	-0.604194
H483	H	0.085202	0.299302	-0.627927
H484	H	-0.301784	-0.449335	0.023157
H485	H	0.112999	-0.123775	-0.608256
O486	O	0.106343	-0.206544	-0.226792
C487	C	0.106763	-0.277454	-0.221688
C488	C	0.108693	-0.253408	-0.196007
H489	H	0.108671	-0.315354	-0.196807
H490	H	0.072883	-0.247066	-0.252162
H491	H	0.137341	-0.287761	-0.235101
H492	H	0.078138	-0.243103	-0.182563
H493	H	0.142592	-0.283811	-0.165555
H494	H	0.113009	-0.248624	-0.138135
H495	H	-0.495832	0.469078	-0.374381
O496	O	-0.643297	0.138735	-0.572479
C497	C	-0.579742	0.119107	-0.602477
C498	C	-0.605630	0.143002	-0.576666
H499	H	-0.549289	0.122559	-0.605879
H500	H	-0.566287	0.075111	-0.582177
H501	H	-0.604512	0.141996	-0.638517
H502	H	-0.580888	0.120154	-0.540626
H503	H	-0.619093	0.187003	-0.597002
H504	H	-0.387422	0.251343	-0.138417
H505	H	-0.646757	0.550094	-0.443598
O506	O	-0.255475	-0.406855	0.016517
C507	C	-0.191701	-0.398346	0.011076
C508	C	-0.241439	-0.374497	0.012997
H509	H	-0.180341	-0.372190	0.008220
H510	H	-0.167120	-0.440606	0.044004
H511	H	-0.190834	-0.399881	-0.020453
H512	H	-0.242351	-0.372926	0.044506
H513	H	-0.265998	-0.332251	-0.019952
O514	O	-0.735408	0.592178	-0.479017
C515	C	-0.730307	0.521271	-0.408500
C516	C	-0.704624	0.545311	-0.434489
H517	H	-0.705427	0.483369	-0.372498
H518	H	-0.760775	0.551661	-0.405014
H519	H	-0.743730	0.510969	-0.428767
H520	H	-0.691171	0.555612	-0.414245
H521	H	-0.674178	0.514907	-0.437980
O522	O	-0.735843	0.727893	-0.614717
C523	C	-0.808123	0.797075	-0.678501
C524	C	-0.782228	0.745398	-0.628781
H525	H	-0.845626	0.811237	-0.689891
H526	H	-0.807513	0.829499	-0.679379
H527	H	-0.790385	0.788725	-0.703057
H528	H	-0.799945	0.753697	-0.604197
H529	H	-0.782834	0.712991	-0.627941
O530	O	-0.643430	0.678439	-0.572193
C531	C	-0.648517	0.749319	-0.642724
C532	C	-0.674193	0.725257	-0.616750
H533	H	-0.673375	0.787169	-0.678756
H534	H	-0.635128	0.759690	-0.622506
H535	H	-0.618025	0.718883	-0.646148
H536	H	-0.704703	0.755667	-0.613319
H537	H	-0.687548	0.714874	-0.636979
H538	H	-0.426614	0.675254	-0.568760
H539	H	-0.496128	0.003076	-0.374407
O540	O	-0.391199	0.728479	-0.615312
C541	C	-0.461726	0.793900	-0.681126
C542	C	-0.435730	0.742226	-0.631404
H543	H	-0.497730	0.805024	-0.694155
H544	H	-0.465205	0.827833	-0.681179
H545	H	-0.441470	0.787076	-0.704867
H546	H	-0.455963	0.748997	-0.607634
H547	H	-0.432246	0.708310	-0.631388
O548	O	-0.255483	0.593217	-0.480012
C549	C	-0.191694	0.601700	-0.483097
C550	C	-0.241420	0.625530	-0.508886
H551	H	-0.180304	0.627808	-0.506434
H552	H	-0.190802	0.600197	-0.450046
H553	H	-0.167147	0.559424	-0.473726
H554	H	-0.265995	0.667815	-0.518289
H555	H	-0.242273	0.626992	-0.541917
H556	H	-0.301770	0.550701	-0.444180
H557	H	-0.301729	-0.203089	-0.443614
O558	O	-0.499624	0.006688	-0.506154
C559	C	-0.494451	0.002537	-0.572250
C560	C	-0.469517	-0.023141	-0.521593
H561	H	-0.470117	-0.021562	-0.584751
H562	H	-0.526821	0.002778	-0.574437
H563	H	-0.504865	0.045433	-0.595075
H564	H	-0.459072	-0.066047	-0.498737
H565	H	-0.437167	-0.023340	-0.519443
H566	H	-0.426308	-0.078556	-0.568458
O567	O	-0.255134	-0.256252	-0.479085
C568	C	-0.175119	-0.297401	-0.441591
C569	C	-0.224864	-0.245769	-0.467557
H570	H	-0.150630	-0.288941	-0.432271
H571	H	-0.174272	-0.329750	-0.408507
H572	H	-0.163624	-0.311728	-0.464803
H573	H	-0.236391	-0.231394	-0.444382
H574	H	-0.225683	-0.213453	-0.500645
O575	O	-0.736144	0.224502	-0.480071
C576	C	-0.808419	0.291365	-0.483165
C577	C	-0.782527	0.267431	-0.508950
H578	H	-0.845922	0.326084	-0.506506
H579	H	-0.807814	0.259219	-0.450116
H580	H	-0.790677	0.306533	-0.473792
H581	H	-0.800250	0.252266	-0.518355
H582	H	-0.783129	0.299595	-0.541979
H583	H	-0.647332	0.142401	-0.444230
