data_functionalizedCrystal
_audit_creation_method	'MofGen! by Chris Wilmer'
_symmetry_space_group_name_H-M	'P1'
_symmetry_Int_Tables_number	1
_symmetry_cell_setting	triclinic
loop_
_symmetry_equiv_pos_as_xyz
  x,y,z
_cell_length_a	16.120484
_cell_length_b	19.077241
_cell_length_c	19.076919
_cell_angle_alpha	90.113904
_cell_angle_beta	95.046610
_cell_angle_gamma	84.670961
loop_
_atom_site_label
_atom_site_type_symbol
_atom_site_fract_x
_atom_site_fract_y
_atom_site_fract_z
Zn1	Zn	-0.303890	-1.044776	-0.453016
Zn2	Zn	-0.438041	-1.043450	-0.341006
Zn3	Zn	-0.303449	-0.932011	-0.330776
Zn4	Zn	-0.449207	-0.920773	-0.454199
O5	O	-0.373647	-0.985252	-0.394750
O6	O	-0.317197	-1.143133	-0.441944
O7	O	-0.415330	-1.032816	-0.241120
O8	O	-0.186365	-0.952228	-0.342215
O9	O	-0.415758	-1.142159	-0.359651
O10	O	-0.186689	-1.035076	-0.432024
O11	O	-0.316446	-0.950942	-0.233603
O12	O	-0.327272	-0.831987	-0.343362
O13	O	-0.434788	-0.933074	-0.552572
O14	O	-0.434360	-0.823730	-0.434041
O15	O	-0.328024	-1.024178	-0.551703
O16	O	-0.556666	-1.021918	-0.360798
O17	O	-0.564869	-0.931788	-0.443961
C18	C	-0.381981	-0.802310	-0.387720
C19	C	-0.385567	-0.724045	-0.384730
C20	C	-0.336025	-0.687777	-0.426243
C21	C	-0.339390	-0.614239	-0.423428
C22	C	-0.392302	-0.576970	-0.379102
C23	C	-0.441846	-0.613243	-0.337584
C24	C	-0.438476	-0.686780	-0.340397
C25	C	-0.407871	-0.356984	-0.366086
C26	C	-0.411239	-0.283442	-0.363278
C27	C	-0.308781	-0.284443	-0.449121
C28	C	-0.305420	-0.357981	-0.451933
C29	C	-0.354960	-0.394248	-0.410412
N30	N	-0.395745	-0.501802	-0.376225
N31	N	-0.351512	-0.469415	-0.413286
C32	C	-0.591141	-0.975508	-0.403634
C33	C	-0.684184	-0.971403	-0.407461
C34	C	-0.854535	-0.963911	-0.414462
C35	C	-0.891913	-1.006719	-0.375053
C36	C	-0.986702	-1.002551	-0.378949
C37	C	-0.759737	-0.968079	-0.410568
C38	C	-0.155304	-0.995053	-0.385846
C39	C	-0.062259	-0.999230	-0.382052
C40	C	-0.382701	-0.977520	-0.578400
C41	C	-0.386559	-0.974225	-0.656660
C42	C	-0.365276	-0.168909	-0.401801
C43	C	-0.361697	-0.247174	-0.404792
C44	C	-0.332788	-1.020108	-0.692976
C45	C	-0.336410	-1.017004	-0.766510
C46	C	-0.393808	-0.968019	-0.803727
C47	C	-0.447581	-0.922131	-0.767406
C48	C	-0.443954	-0.925233	-0.693873
C49	C	-0.410612	-0.953654	-1.023695
C50	C	-0.414237	-0.950557	-1.097233
C51	C	-0.303064	-1.045428	-1.096331
C52	C	-0.299446	-1.048529	-1.022797
C53	C	-0.353216	-1.002638	-0.986483
N54	N	-0.397514	-0.964846	-0.878890
N55	N	-0.349505	-1.005808	-0.911320
C56	C	-0.364566	-0.992998	-0.211813
C57	C	-0.360466	-0.996440	-0.133548
H58	H	-0.292940	-0.718116	-0.462340
Br59	Br	-0.233616	-0.408555	-0.512098
H60	H	-0.852725	-1.046498	-0.338387
Br61	Br	-0.492137	-0.884071	-1.147741
Br62	Br	-0.272152	-0.565021	-0.479771
H63	H	-0.893720	-0.924135	-0.451124
Br64	Br	-0.263469	-1.079307	-0.815796
Br65	Br	-0.254893	-1.086595	-0.642475
Br66	Br	-0.241551	-0.235220	-0.505467
H67	H	-0.454408	-0.916296	-0.994137
Br68	Br	-0.221548	-1.115012	-0.972293
H69	H	-0.494313	-0.882245	-0.797714
H70	H	-0.259286	-1.082789	-1.125907
H71	H	-0.454331	-0.253100	-0.327183
H72	H	-0.487732	-0.887863	-0.664305
H73	H	-0.448211	-0.386504	-0.332278
H74	H	-0.484924	-0.582893	-0.301490
H75	H	-0.478818	-0.716309	-0.306592
