data_functionalizedCrystal
_audit_creation_method	'MofGen! by Chris Wilmer'
_symmetry_space_group_name_H-M	'P1'
_symmetry_Int_Tables_number	1
_symmetry_cell_setting	triclinic
loop_
_symmetry_equiv_pos_as_xyz
  x,y,z
_cell_length_a	18.215407
_cell_length_b	25.639239
_cell_length_c	18.215399
_cell_angle_alpha	90.030035
_cell_angle_beta	90.019833
_cell_angle_gamma	90.039134
loop_
_atom_site_label
_atom_site_type_symbol
_atom_site_fract_x
_atom_site_fract_y
_atom_site_fract_z
Zn1	Zn	1.125001	-0.208150	0.416105
Zn2	Zn	1.625001	0.291850	0.916105
Zn3	Zn	1.124880	-0.295586	0.293034
Zn4	Zn	1.624880	0.204414	0.793034
Zn5	Zn	1.001934	-0.208167	0.293053
Zn6	Zn	1.501934	0.291833	0.793053
Zn7	Zn	1.001870	-0.295557	0.416059
Zn8	Zn	1.501870	0.204443	0.916059
O9	O	1.063421	-0.251865	0.354563
O10	O	1.563421	0.248135	0.854563
O11	O	1.227970	-0.219754	0.399791
O12	O	1.727970	0.280246	0.899791
O13	O	1.108547	-0.284009	0.190052
O14	O	1.608547	0.215991	0.690052
O15	O	1.018337	-0.135000	0.309403
O16	O	1.518337	0.365000	0.809403
O17	O	1.227880	-0.283992	0.309372
O18	O	1.727880	0.216008	0.809372
O19	O	1.108754	-0.134987	0.399809
O20	O	1.608754	0.365013	0.899809
O21	O	1.018219	-0.219783	0.190066
O22	O	1.518219	0.280217	0.690066
O23	O	0.898941	-0.219754	0.309358
O24	O	1.398941	0.280246	0.809358
O25	O	1.018228	-0.283943	0.519050
O26	O	1.518228	0.216057	1.019050
O27	O	0.898894	-0.283959	0.399731
O28	O	1.398894	0.216041	0.899731
O29	O	1.108692	-0.219725	0.519083
O30	O	1.608692	0.280275	1.019083
O31	O	1.108485	-0.368747	0.309327
O32	O	1.608485	0.131253	0.809327
O33	O	1.018110	-0.368726	0.399713
O34	O	1.518110	0.131274	0.899713
C35	C	0.872215	-0.251856	0.354542
C36	C	1.372215	0.248144	0.854542
C37	C	0.790416	-0.251865	0.354550
C38	C	1.290416	0.248135	0.854550
C39	C	0.602217	-0.285349	0.401548
C40	C	1.102217	0.214651	0.901548
C41	C	0.525358	-0.285350	0.401557
C42	C	1.025358	0.214650	0.901557
C43	C	0.525378	-0.218391	0.307594
C44	C	1.025378	0.281609	0.807594
C45	C	0.602235	-0.218387	0.307589
C46	C	1.102235	0.281613	0.807589
C47	C	0.640653	-0.251869	0.354565
C48	C	1.140653	0.248131	0.854565
C49	C	0.486937	-0.251874	0.354579
C50	C	0.986937	0.248126	0.854579
C51	C	0.403603	-0.251876	0.354589
C52	C	0.903603	0.248124	0.854589
C53	C	0.723992	-0.251867	0.354556
C54	C	1.223992	0.248133	0.854556
C55	C	1.063298	-0.387708	0.354529
C56	C	1.563298	0.112292	0.854529
C57	C	1.063312	-0.445822	0.354539
C58	C	1.563312	0.054178	0.854539
C59	C	1.110602	-0.806183	0.307579
C60	C	1.610602	-0.306183	0.807579
C61	C	1.110631	-0.860787	0.307589
C62	C	1.610631	-0.360787	0.807589
O63	O	1.150711	-0.889023	0.267625
O64	O	1.650711	-0.389023	0.767625
N65	N	1.063551	-0.888104	0.354612
N66	N	1.563551	-0.388104	0.854612
C67	C	1.016444	-0.860813	0.401633
C68	C	1.516444	-0.360813	0.901633
O69	O	0.976402	-0.889062	0.441631
O70	O	1.476402	-0.389062	0.941631
C71	C	1.016420	-0.806210	0.401626
C72	C	1.516420	-0.306210	0.901626
C73	C	1.063498	-0.778896	0.354595
C74	C	1.563498	-0.278896	0.854595
C75	C	1.157677	-0.778869	0.260553
C76	C	1.657677	-0.278869	0.760553
C77	C	1.157647	-0.724269	0.260542
C78	C	1.657647	-0.224269	0.760542
C79	C	1.110543	-0.696982	0.307558
C80	C	1.610543	-0.196982	0.807558
C81	C	1.063468	-0.724296	0.354584
C82	C	1.563468	-0.224296	0.854584
C83	C	0.969318	-0.778920	0.448650
C84	C	1.469318	-0.278920	0.948650
C85	C	0.969298	-0.724313	0.448640
C86	C	1.469298	-0.224313	0.948640
C87	C	1.016376	-0.697000	0.401609
C88	C	1.516376	-0.197000	0.901609
C89	C	1.016334	-0.642408	0.401590
C90	C	1.516334	-0.142408	0.901590
N91	N	1.063414	-0.615092	0.354567
N92	N	1.563414	-0.115092	0.854567
C93	C	1.110519	-0.642379	0.307551
C94	C	1.610519	-0.142379	0.807551
C95	C	1.016500	-0.975484	0.401644
C96	C	1.516500	-0.475484	0.901644
C97	C	1.016520	-1.030086	0.401648
C98	C	1.516520	-0.530086	0.901648
C99	C	1.110708	-1.030057	0.307605
C100	C	1.610708	-0.530057	0.807605
C101	C	1.110683	-0.975453	0.307598
C102	C	1.610683	-0.475453	0.807598
C103	C	1.063580	-0.948167	0.354621
C104	C	1.563580	-0.448167	0.854621
C105	C	1.110452	-0.527714	0.307532
C106	C	1.610452	-0.027714	0.807532
C107	C	1.110416	-0.473108	0.307523
C108	C	1.610416	0.026892	0.807523
C109	C	1.016232	-0.473143	0.401569
C110	C	1.516232	0.026857	0.901569
C111	C	1.016265	-0.527743	0.401575
C112	C	1.516265	-0.027743	0.901575
C113	C	1.063381	-0.555027	0.354554
C114	C	1.563381	-0.055027	0.854554
O115	O	0.976277	-0.614138	0.441536
O116	O	1.476277	-0.114138	0.941536
O117	O	1.150561	-0.614123	0.267567
O118	O	1.650561	-0.114123	0.767567
C119	C	1.255374	-0.251874	0.354584
C120	C	1.755374	0.248126	0.854584
C121	C	1.337173	-0.251878	0.354594
C122	C	1.837173	0.248122	0.854594
C123	C	1.063466	-0.251829	0.546516
C124	C	1.563466	0.248171	1.046516
C125	C	1.063485	-0.251814	0.628315
C126	C	1.563485	0.248186	1.128315
C127	C	1.063566	-0.115492	0.354613
C128	C	1.563566	0.384508	0.854613
C129	C	1.063627	-0.057378	0.354634
C130	C	1.563627	0.442622	0.854634
C131	C	1.063419	-0.251863	0.163357
C132	C	1.563419	0.248137	0.663357
C133	C	1.063543	-0.251731	0.081558
C134	C	1.563543	0.248269	0.581558
C135	C	1.110607	-0.218344	0.816528
C136	C	1.610607	0.281656	1.316528
C137	C	1.110616	-0.218329	0.893386
C138	C	1.610616	0.281671	1.393386
C139	C	1.016416	-0.285202	0.893340
C140	C	1.516416	0.214798	1.393340
C141	C	1.016404	-0.285214	0.816483
C142	C	1.516404	0.214786	1.316483
C143	C	1.063504	-0.251786	0.778078
C144	C	1.563504	0.248214	1.278078
C145	C	1.063524	-0.251759	0.931795
C146	C	1.563524	0.248241	1.431795
C147	C	1.063534	-0.251742	1.015128
C148	C	1.563534	0.248258	1.515128
C149	C	1.063494	-0.251801	0.694739
C150	C	1.563494	0.248199	1.194739
H151	H	0.494089	-0.191131	0.269346
H152	H	0.994089	0.308869	0.769346
H153	H	0.633495	-0.312611	0.439801
H154	H	1.133495	0.187389	0.939801
H155	H	1.148753	-0.450871	0.269223
H156	H	1.648753	0.049129	0.769223
C157	C	1.256768	-0.840156	0.250475
C158	C	1.756768	-0.340156	0.750475
C159	C	1.209511	-0.808836	0.208893
C160	C	1.709511	-0.308836	0.708893
H161	H	1.288786	-0.858644	0.218585
H162	H	1.788786	-0.358644	0.718585
H163	H	1.228742	-0.864259	0.278444
H164	H	1.728742	-0.364259	0.778444
H165	H	1.284836	-0.818802	0.282590
H166	H	1.784836	-0.318802	0.782590
H167	H	1.181440	-0.830189	0.176782
H168	H	1.681440	-0.330189	0.676782
H169	H	1.237541	-0.784730	0.180912
H170	H	1.737541	-0.284730	0.680912
H171	H	0.930941	-0.702100	0.486935
H172	H	1.430941	-0.202100	0.986935
C173	C	1.006171	-0.914049	0.500630
C174	C	1.506171	-0.414049	1.000630
C175	C	0.964711	-0.945494	0.453330
C176	C	1.464711	-0.445494	0.953330
H177	H	0.974199	-0.895540	0.532541
H178	H	1.474199	-0.395540	1.032541
H179	H	1.034196	-0.889965	0.472628
H180	H	1.534196	-0.389965	0.972628
H181	H	1.038228	-0.935320	0.528809
H182	H	1.538228	-0.435320	1.028809
H183	H	0.932658	-0.924222	0.425147
H184	H	1.432658	-0.424222	0.925147
H185	H	0.936674	-0.969581	0.481335
H186	H	1.436674	-0.469581	0.981335
C187	C	0.533065	-0.351541	0.494427
C188	C	1.033065	0.148459	0.994427
C189	C	0.483110	-0.322155	0.453200
C190	C	0.983110	0.177845	0.953200
H191	H	0.506981	-0.374265	0.526307
H192	H	1.006981	0.125735	1.026307
H193	H	0.563072	-0.328786	0.522631
H194	H	1.063072	0.171214	1.022631
H195	H	0.563011	-0.371508	0.462300
H196	H	1.063011	0.128492	0.962300
H197	H	0.453167	-0.302185	0.485326
H198	H	0.953167	0.197815	0.985326
H199	H	0.453090	-0.344913	0.424993
H200	H	0.953090	0.155087	0.924993
H201	H	0.633530	-0.191120	0.269329
H202	H	1.133530	0.308880	0.769329
C203	C	1.203542	-0.522185	0.214564
C204	C	1.703542	-0.022185	0.714564
C205	C	1.162238	-0.557699	0.255841
C206	C	1.662238	-0.057699	0.755841
H207	H	1.235505	-0.540697	0.182648
H208	H	1.735505	-0.040697	0.682648
H209	H	1.231662	-0.500854	0.246652
H210	H	1.731662	-0.000854	0.746652
H211	H	1.171469	-0.500923	0.186390
H212	H	1.671469	-0.000923	0.686390
H213	H	1.194310	-0.578959	0.284020
H214	H	1.694310	-0.078959	0.784020
H215	H	1.134116	-0.579038	0.223749
H216	H	1.634116	-0.079038	0.723749
H217	H	1.148956	-0.191123	0.785261
H218	H	1.648956	0.308877	1.285261
C219	C	1.146563	-0.129793	0.917079
C220	C	1.646563	0.370207	1.417079
C221	C	1.162396	-0.181568	0.935646
C222	C	1.662396	0.318432	1.435646
H223	H	1.178535	-0.107098	0.943164
H224	H	1.678535	0.392902	1.443164
H225	H	1.097133	-0.122141	0.929673
H226	H	1.597133	0.377859	1.429673
H227	H	1.153296	-0.125027	0.865807
H228	H	1.653296	0.374973	1.365807
H229	H	1.155658	-0.186336	0.986917
H230	H	1.655658	0.313664	1.486917
H231	H	1.211838	-0.189224	0.923057
H232	H	1.711838	0.310776	1.423057
H233	H	1.195984	-0.702033	0.222248
H234	H	1.695984	-0.202033	0.722248
C235	C	1.203783	-0.980921	0.214642
C236	C	1.703783	-0.480921	0.714642
C237	C	1.162437	-0.945433	0.255905
C238	C	1.662437	-0.445433	0.755905
H239	H	1.235738	-0.962389	0.182732
H240	H	1.735738	-0.462389	0.682732
H241	H	1.171741	-1.002251	0.186468
H242	H	1.671741	-0.502251	0.686468
H243	H	1.231919	-1.002187	0.246744
H244	H	1.731919	-0.502187	0.746744
H245	H	1.134296	-0.924170	0.223803
H246	H	1.634296	-0.424170	0.723803
H247	H	1.194483	-0.924094	0.284081
H248	H	1.694483	-0.424094	0.784081
C249	C	1.006015	-0.589113	0.500567
C250	C	1.506015	-0.089113	1.000567
C251	C	0.964513	-0.557773	0.453264
C252	C	1.464513	-0.057773	0.953264
H253	H	0.974068	-0.607652	0.532477
H254	H	1.474068	-0.107652	1.032477
H255	H	1.038042	-0.567771	0.528740
H256	H	1.538042	-0.067771	1.028740
H257	H	1.034073	-0.613177	0.472561
H258	H	1.534073	-0.113177	0.972561
H259	H	0.936459	-0.533707	0.481270
H260	H	1.436459	-0.033707	0.981270
H261	H	0.932474	-0.579117	0.425088
H262	H	1.432474	-0.079117	0.925088
H263	H	1.149065	-1.052283	0.269324
H264	H	1.649065	-0.552283	0.769324
C265	C	0.974611	-0.314879	1.011137
C266	C	1.474611	0.185121	1.511137
C267	C	0.964652	-0.321949	0.935557
C268	C	1.464652	0.178051	1.435557
H269	H	0.942656	-0.337569	1.037197
H270	H	1.442656	0.162431	1.537197
H271	H	0.963876	-0.279752	1.023742
H272	H	1.463876	0.220248	1.523742
H273	H	1.024055	-0.322531	1.023730
H274	H	1.524055	0.177469	1.523730
H275	H	0.915209	-0.314293	0.922963
H276	H	1.415209	0.185707	1.422963
H277	H	0.975382	-0.357084	0.922946
H278	H	1.475382	0.142916	1.422946
C279	C	0.876235	-0.773442	0.541619
C280	C	1.376235	-0.273442	1.041619
C281	C	0.917572	-0.808934	0.500354
C282	C	1.417572	-0.308934	1.000354
H283	H	0.844292	-0.791971	0.573545
H284	H	1.344292	-0.291971	1.073545
H285	H	0.848092	-0.752183	0.509525
H286	H	1.348092	-0.252183	1.009525
H287	H	0.908288	-0.752106	0.569784
H288	H	1.408288	-0.252106	1.069784
H289	H	0.885519	-0.830267	0.472186
H290	H	1.385519	-0.330267	0.972186
H291	H	0.945716	-0.830202	0.532453
H292	H	1.445716	-0.330202	1.032453
H293	H	0.978177	-1.052320	0.439938
H294	H	1.478177	-0.552320	0.939938
H295	H	0.977877	-0.450917	0.439847
H296	H	1.477877	0.049083	0.939847
H297	H	0.978042	-0.312446	0.785176
H298	H	1.478042	0.187554	1.285176
