data_functionalizedCrystal
_audit_creation_method	'MofGen! by Chris Wilmer'
_symmetry_space_group_name_H-M	'P1'
_symmetry_Int_Tables_number	1
_symmetry_cell_setting	triclinic
loop_
_symmetry_equiv_pos_as_xyz
  x,y,z
_cell_length_a	15.995300
_cell_length_b	15.995350
_cell_length_c	9.730223
_cell_angle_alpha	90.000899
_cell_angle_beta	89.998209
_cell_angle_gamma	83.482091
loop_
_atom_site_label
_atom_site_type_symbol
_atom_site_fract_x
_atom_site_fract_y
_atom_site_fract_z
O1	O	1.111007	0.107722	-0.114333
O2	O	0.867226	0.121094	-0.114324
O3	O	0.995780	-0.007481	-0.114328
O4	O	0.982453	0.236297	-0.114330
O5	O	0.995779	-0.007478	0.114252
O6	O	0.867224	0.121097	0.114256
O7	O	1.111006	0.107726	0.114247
Zn8	Zn	0.989115	0.114412	0.150543
Zn9	Zn	0.989117	0.114408	-0.150621
O10	O	0.982451	0.236300	0.114250
C11	C	0.836030	0.120550	-0.000033
C12	C	0.743077	0.118915	-0.000030
C13	C	0.572894	0.115896	-0.000040
C14	C	0.525428	0.207443	-0.000038
C15	C	0.428740	0.205773	-0.000560
C16	C	0.405337	0.112924	-0.000049
C17	C	0.446471	0.067502	-0.130322
C18	C	0.543104	0.069818	-0.130428
C19	C	0.543382	0.068467	0.129520
C20	C	0.446438	0.068475	0.131228
C21	C	0.310642	0.111239	-0.000059
C22	C	0.667590	0.117577	-0.000040
C23	C	0.995229	-0.038674	-0.000040
C24	C	0.993577	-0.131624	-0.000048
C25	C	0.987644	-0.469370	-0.000043
C26	C	0.896090	-0.421920	-0.000552
C27	C	0.897743	-0.325230	-0.000037
C28	C	0.990587	-0.301810	-0.000046
C29	C	1.035744	-0.342894	0.130480
C30	C	1.033444	-0.439529	0.130589
C31	C	1.035337	-0.439892	-0.129349
C32	C	1.035315	-0.342946	-0.131074
C33	C	0.992255	-0.207113	-0.000044
C34	C	0.985979	-0.564068	-0.000037
C35	C	1.142202	0.108269	-0.000048
C36	C	1.235154	0.109904	-0.000060
C37	C	0.983003	0.267493	-0.000040
C38	C	0.984655	0.360443	-0.000042
N39	N	0.989120	0.114414	0.356080
N40	N	0.989119	0.114399	-0.356157
C41	C	1.046058	0.057500	0.428004
C42	C	1.046056	0.057490	0.571887
C43	C	0.932174	0.171315	0.571908
C44	C	0.932173	0.171320	0.428028
C45	C	1.111809	-0.008213	0.427993
C46	C	1.111807	-0.008223	0.571876
H47	H	0.563881	0.098608	0.228291
H48	H	0.431099	0.000781	0.139480
H49	H	0.575163	0.000970	0.130773
C50	C	0.869536	0.233920	0.348915
H51	H	0.835628	0.267813	0.412375
H52	H	0.834688	0.203784	0.292784
H53	H	0.899653	0.268798	0.292793
H54	H	1.176031	0.005552	0.610924
C55	C	1.193695	0.018606	0.367686
H56	H	1.190899	0.017703	0.270176
H57	H	1.240152	-0.019230	0.397822
H58	H	1.200541	0.073908	0.397838
C59	C	0.551910	0.256410	-0.126045
H60	H	0.522946	0.311653	-0.125249
H61	H	0.538288	0.228286	-0.207635
H62	H	0.610842	0.259510	-0.122971
C63	C	0.990781	-0.306059	-0.261525
H64	H	0.945121	-0.265753	-0.236258
H65	H	0.970214	-0.349956	-0.312777
H66	H	1.029533	-0.279691	-0.316009
H67	H	1.100662	-0.471790	0.136505
H68	H	0.561424	0.102551	-0.228178
H69	H	0.885809	0.217646	0.630504
H70	H	0.400276	0.241464	0.092803
C71	C	1.093246	-0.094981	0.375225
H72	H	1.085603	-0.130668	0.451161
H73	H	1.139122	-0.119181	0.320982
H74	H	1.043543	-0.088621	0.320993
H75	H	1.091992	-0.068864	0.616493
C76	C	1.126525	-0.482812	-0.130558
H77	H	1.155025	-0.464746	-0.208919
H78	H	1.126209	-0.542128	-0.133910
H79	H	1.154601	-0.468027	-0.049585
H80	H	0.419097	0.101645	0.227606
H81	H	1.005404	-0.460427	-0.228280
H82	H	0.862246	-0.296803	-0.093603
H83	H	0.543919	0.244235	0.093366
H84	H	0.400893	0.241308	-0.094490
C85	C	0.988951	-0.464251	0.262392
H86	H	0.987159	-0.523411	0.263623
H87	H	0.933240	-0.436441	0.264423
H88	H	1.019018	-0.448162	0.340449
C89	C	0.586711	-0.020990	-0.137939
H90	H	0.646010	-0.020190	-0.138046
H91	H	0.570150	-0.046963	-0.219809
H92	H	0.570882	-0.051834	-0.060576
C93	C	0.427421	-0.024660	-0.136388
H94	H	0.394128	-0.036281	-0.059344
H95	H	0.478719	-0.060955	-0.134969
H96	H	0.397643	-0.033594	-0.218589
C97	C	1.127887	-0.323826	0.137044
H98	H	1.139663	-0.290556	0.060059
H99	H	1.164194	-0.375119	0.135833
H100	H	1.136645	-0.294019	0.219289
H101	H	0.859498	-0.440446	-0.094155
C102	C	0.408169	0.109595	-0.261788
H103	H	0.367121	0.154844	-0.237566
H104	H	0.382462	0.069491	-0.314382
H105	H	0.451299	0.130441	-0.314512
C106	C	0.993368	-0.304559	0.261710
H107	H	0.948163	-0.263527	0.237234
H108	H	1.033355	-0.278827	0.314523
H109	H	0.972421	-0.347679	0.314322
C110	C	0.846874	-0.448366	0.125200
H111	H	0.881880	-0.488198	0.178015
H112	H	0.798674	-0.472903	0.095195
H113	H	0.829719	-0.400309	0.179992
C114	C	1.126782	-0.322218	-0.141733
H115	H	1.138945	-0.288058	-0.066069
H116	H	1.133875	-0.292876	-0.225043
H117	H	1.163962	-0.372941	-0.140627
H118	H	0.862006	-0.297357	0.093691
