data_functionalizedCrystal
_audit_creation_method	'MofGen! by Chris Wilmer'
_symmetry_space_group_name_H-M	'P1'
_symmetry_Int_Tables_number	1
_symmetry_cell_setting	triclinic
loop_
_symmetry_equiv_pos_as_xyz
  x,y,z
_cell_length_a	19.188930
_cell_length_b	23.532407
_cell_length_c	18.266242
_cell_angle_alpha	89.988983
_cell_angle_beta	89.977082
_cell_angle_gamma	82.996728
loop_
_atom_site_label
_atom_site_type_symbol
_atom_site_fract_x
_atom_site_fract_y
_atom_site_fract_z
O1	O	0.925922	0.071102	-0.061124
O2	O	1.425922	0.571102	0.438876
O3	O	0.722581	0.080673	-0.061074
O4	O	1.222581	0.580673	0.438926
O5	O	0.830383	-0.007031	-0.061087
O6	O	1.330383	0.492969	0.438913
O7	O	0.818120	0.158806	-0.061111
O8	O	1.318120	0.658806	0.438889
O9	O	0.830365	-0.007035	0.060675
O10	O	1.330365	0.492965	0.560675
O11	O	0.722562	0.080669	0.060688
O12	O	1.222562	0.580669	0.560688
O13	O	0.925904	0.071097	0.060638
O14	O	1.425904	0.571097	0.560638
Zn15	Zn	0.824230	0.075882	0.079995
Zn16	Zn	1.324230	0.575882	0.579995
Zn17	Zn	0.824254	0.075888	-0.080431
Zn18	Zn	1.324254	0.575888	0.419569
O19	O	0.818102	0.158802	0.060651
O20	O	1.318102	0.658802	0.560651
C21	C	0.696561	0.080361	-0.000187
C22	C	1.196561	0.580361	0.499813
C23	C	0.619060	0.079431	-0.000168
C24	C	1.119060	0.579431	0.499832
C25	C	0.573972	0.130893	-0.000187
C26	C	1.073972	0.630893	0.499813
C27	C	0.501151	0.130019	-0.000194
C28	C	1.001151	0.630019	0.499806
C29	C	0.473421	0.077680	-0.000198
C30	C	0.973421	0.577680	0.499802
C31	C	0.518519	0.026211	-0.000175
C32	C	1.018519	0.526211	0.499825
C33	C	0.591339	0.027086	-0.000160
C34	C	1.091339	0.527086	0.499840
N35	N	0.365575	0.037674	-0.041663
N36	N	0.865575	0.537674	0.458337
N37	N	0.296399	0.036846	-0.041679
N38	N	0.796399	0.536846	0.458321
C39	C	0.254021	0.075038	-0.000243
C40	C	0.754021	0.575038	0.499757
N41	N	0.283431	0.114099	0.041201
N42	N	0.783431	0.614099	0.541201
N43	N	0.352613	0.114929	0.041214
N44	N	0.852613	0.614929	0.541214
C45	C	0.394462	0.076724	-0.000214
C46	C	0.894462	0.576724	0.499786
C47	C	0.129971	0.125556	-0.000269
C48	C	0.629971	0.625556	0.499731
C49	C	0.057149	0.124680	-0.000272
C50	C	0.557149	0.624680	0.499728
C51	C	0.074520	0.020870	-0.000260
C52	C	0.574520	0.520870	0.499740
C53	C	0.147340	0.021748	-0.000250
C54	C	0.647340	0.521748	0.499750
C55	C	0.175061	0.074092	-0.000257
C56	C	0.675061	0.574092	0.499743
C57	C	0.830062	-0.028250	-0.000204
C58	C	1.330062	0.471750	0.499796
C59	C	0.829123	-0.091469	-0.000198
C60	C	1.329123	0.408531	0.499802
C61	C	0.887029	-0.490449	-0.000252
C62	C	1.387029	0.009551	0.499748
C63	C	0.886157	-0.549851	-0.000258
C64	C	1.386157	-0.049851	0.499742
O65	O	0.939837	-0.586482	-0.000298
O66	O	1.439837	-0.086482	0.499702
N67	N	0.822068	-0.572613	-0.000242
N68	N	1.322068	-0.072613	0.499758
C69	C	0.758848	-0.535970	-0.000228
C70	C	1.258848	-0.035970	0.499772
O71	O	0.704255	-0.560786	-0.000215
O72	O	1.204255	-0.060786	0.499785
C73	C	0.759721	-0.476569	-0.000228
C74	C	1.259721	0.023431	0.499772
C75	C	0.823814	-0.453810	-0.000236
C76	C	1.323814	0.046190	0.499764
C77	C	0.951117	-0.467690	-0.000262
C78	C	1.451117	0.032310	0.499738
C79	C	0.951989	-0.408292	-0.000255
C80	C	1.451989	0.091708	0.499745
C81	C	0.888773	-0.371653	-0.000239
C82	C	1.388773	0.128347	0.499761
C83	C	0.824685	-0.394412	-0.000230
C84	C	1.324685	0.105588	0.499770
C85	C	0.696501	-0.439927	-0.000219
C86	C	1.196501	0.060073	0.499781
C87	C	0.697379	-0.380523	-0.000219
C88	C	1.197379	0.119477	0.499781
C89	C	0.761472	-0.357764	-0.000228
C90	C	1.261472	0.142236	0.499772
C91	C	0.762342	-0.298376	-0.000207
C92	C	1.262342	0.201624	0.499793
N93	N	0.826430	-0.275614	-0.000223
N94	N	1.326430	0.224386	0.499777
C95	C	0.889646	-0.312252	-0.000239
C96	C	1.389646	0.187748	0.499761
C97	C	0.757019	-0.660717	-0.000229
C98	C	1.257019	-0.160717	0.499771
C99	C	0.756146	-0.720116	-0.000224
C100	C	1.256146	-0.220116	0.499776
C101	C	0.883455	-0.733993	-0.000256
C102	C	1.383455	-0.233993	0.499744
C103	C	0.884328	-0.674592	-0.000255
C104	C	1.384328	-0.174592	0.499745
C105	C	0.821108	-0.637954	-0.000245
C106	C	1.321108	-0.137954	0.499755
C107	C	0.891472	-0.187512	-0.000224
C108	C	1.391472	0.312488	0.499776
C109	C	0.892339	-0.128108	-0.000214
C110	C	1.392339	0.371892	0.499786
C111	C	0.765029	-0.114236	-0.000187
C112	C	1.265029	0.385764	0.499813
C113	C	0.764163	-0.173634	-0.000193
C114	C	1.264163	0.326366	0.499807
C115	C	0.827390	-0.210272	-0.000214
C116	C	1.327390	0.289728	0.499786
O117	O	0.708690	-0.261710	-0.000170
O118	O	1.208690	0.238290	0.499830
O119	O	0.944230	-0.287428	-0.000261
O120	O	1.444230	0.212572	0.499739
C121	C	0.951923	0.071410	-0.000251
C122	C	1.451923	0.571410	0.499749
C123	C	1.029425	0.072340	-0.000275
C124	C	1.529425	0.572340	0.499725
C125	C	0.818423	0.180021	-0.000234
C126	C	1.318423	0.680021	0.499766
C127	C	0.819362	0.243240	-0.000244
C128	C	1.319362	0.743240	0.499756
N129	N	0.824219	0.075878	0.189482
N130	N	1.324219	0.575878	0.689482
N131	N	0.824271	0.075888	-0.189918
N132	N	1.324271	0.575888	0.310082
C133	C	0.871970	0.037062	0.227785
C134	C	1.371970	0.537062	0.727785
C135	C	0.871974	0.037059	0.304430
C136	C	1.371974	0.537059	0.804430
C137	C	0.824235	0.075883	0.342769
C138	C	1.324235	0.575883	0.842769
C139	C	0.776475	0.114702	0.304457
C140	C	1.276475	0.614702	0.804457
C141	C	0.776468	0.114700	0.227813
C142	C	1.276468	0.614700	0.727813
N143	N	0.814998	0.126298	0.463096
N144	N	1.314998	0.626298	0.963096
N145	N	0.815010	0.126298	0.535904
N146	N	1.315010	0.626298	1.035904
C147	C	0.824254	0.075891	0.573691
C148	C	1.324254	0.575891	1.073691
N149	N	0.833500	0.025481	0.535921
N150	N	1.333500	0.525481	1.035921
N151	N	0.833492	0.025482	0.463106
N152	N	1.333492	0.525482	0.963106
C153	C	0.824238	0.075889	0.425876
C154	C	1.324238	0.575889	0.925876
C155	C	0.872012	0.037068	0.695102
C156	C	1.372012	0.537068	1.195102
C157	C	0.872012	0.037065	0.771748
C158	C	1.372012	0.537065	1.271748
C159	C	0.776516	0.114713	0.771773
C160	C	1.276516	0.614713	1.271773
C161	C	0.776513	0.114711	0.695128
C162	C	1.276513	0.614711	1.195128
C163	C	0.824265	0.075890	0.656797
C164	C	1.324265	0.575890	1.156797
H165	H	0.184052	-0.020158	-0.000238
H166	H	0.684052	0.479842	0.499762
H167	H	0.910893	0.005455	0.663892
H168	H	1.410893	0.505455	1.163892
H169	H	0.713561	-0.084394	-0.000171
H170	H	1.213561	0.415606	0.499829
C171	C	0.693663	-0.198671	-0.000185
C172	C	1.193663	0.301329	0.499815
H173	H	0.656140	-0.168340	-0.000179
H174	H	1.156140	0.331660	0.499821
H175	H	0.690663	-0.221568	0.042268
H176	H	1.190663	0.278432	0.542268
H177	H	0.690689	-0.221540	-0.042659
H178	H	1.190689	0.278460	0.457341
C179	C	0.007552	0.181291	-0.000293
C180	C	0.507552	0.681291	0.499707
H181	H	0.034494	0.212588	-0.000303
H182	H	0.534494	0.712588	0.499697
H183	H	-0.021240	0.183110	0.042162
H184	H	0.478760	0.683110	0.542162
H185	H	-0.021192	0.183104	-0.042765
H186	H	0.478808	0.683104	0.457235
C187	C	0.451545	0.186629	-0.000226
C188	C	0.951545	0.686629	0.499774
H189	H	0.478484	0.217928	-0.000235
H190	H	0.978484	0.717928	0.499765
H191	H	0.422747	0.188450	0.042224
H192	H	0.922747	0.688450	0.542224
H193	H	0.422808	0.188437	-0.042703
H194	H	0.922808	0.688437	0.457297
C195	C	0.924541	-0.005635	0.813882
C196	C	1.424541	0.494365	1.313882
H197	H	0.952982	-0.028750	0.780074
H198	H	1.452982	0.471250	1.280074
H199	H	0.899601	-0.029295	0.843801
H200	H	1.399601	0.470705	1.343801
H201	H	0.953462	0.014802	0.843759
H202	H	1.453462	0.514802	1.343759
C203	C	0.723965	0.157409	0.346626
C204	C	1.223965	0.657409	0.846626
H205	H	0.730814	0.151855	0.397758
H206	H	1.230814	0.651855	0.897758
H207	H	0.677411	0.151318	0.334095
H208	H	1.177411	0.651318	0.834095
H209	H	0.731285	0.195404	0.334047
H210	H	1.231285	0.695404	0.834047
H211	H	0.645897	-0.350694	-0.000212
H212	H	1.145897	0.149306	0.499788
C213	C	0.924487	-0.005646	0.185625
C214	C	1.424487	0.494354	0.685625
H215	H	0.952922	-0.028768	0.219419
H216	H	1.452922	0.471232	0.719419
H217	H	0.953403	0.014778	0.155702
H218	H	1.453403	0.514778	0.655702
H219	H	0.899529	-0.029308	0.155752
H220	H	1.399529	0.470692	0.655752
C221	C	0.924503	-0.005640	0.346573
C222	C	1.424503	0.494360	0.846573
H223	H	0.952942	-0.028759	0.312767
H224	H	1.452942	0.471241	0.812767
H225	H	0.899560	-0.029296	0.376494
H226	H	1.399560	0.470704	0.876494
H227	H	0.953424	0.014797	0.376447
H228	H	1.453424	0.514797	0.876447
H229	H	0.495937	-0.016404	-0.000188
H230	H	0.995937	0.483596	0.499812
H231	H	0.737582	0.146309	0.196626
H232	H	1.237582	0.646309	0.696626
H233	H	0.737643	0.146322	0.802988
H234	H	1.237643	0.646322	1.302988
C235	C	0.723995	0.157416	0.652992
C236	C	1.223995	0.657416	1.152992
H237	H	0.695566	0.180542	0.686801
H238	H	1.195566	0.680542	1.186801
H239	H	0.695072	0.136989	0.623113
H240	H	1.195072	0.636989	1.123113
H241	H	0.748947	0.181074	0.623076
H242	H	1.248947	0.681074	1.123076
H243	H	1.002598	-0.497516	-0.000278
H244	H	1.502598	0.002484	0.499722
H245	H	0.596537	0.173516	-0.000194
H246	H	1.096537	0.673516	0.499806
H247	H	0.628050	-0.014822	-0.000145
H248	H	1.128050	0.485178	0.499855
H249	H	0.644310	-0.458446	-0.000216
H250	H	1.144310	0.041554	0.499784
H251	H	0.705535	-0.630888	-0.000215
H252	H	1.205535	-0.130888	0.499785
C253	C	0.160472	0.183130	-0.000269
C254	C	0.660472	0.683130	0.499731
H255	H	0.210298	0.176281	-0.000267
H256	H	0.710298	0.676281	0.499733
H257	H	0.144949	0.204310	0.042188
H258	H	0.644949	0.704310	0.542188
H259	H	0.144991	0.204313	-0.042739
H260	H	0.644991	0.704313	0.457261
C261	C	0.044026	-0.036702	-0.000269
C262	C	0.544026	0.463298	0.499731
H263	H	-0.005801	-0.029854	-0.000286
H264	H	0.494199	0.470146	0.499714
H265	H	0.059504	-0.057889	0.042195
H266	H	0.559504	0.442111	0.542195
H267	H	0.059552	-0.057878	-0.042733
H268	H	0.559552	0.442122	0.457267
H269	H	0.942958	-0.217335	-0.000244
H270	H	1.442958	0.282665	0.499756
C271	C	0.962843	-0.103077	-0.000228
C272	C	1.462843	0.396923	0.499772
H273	H	1.000366	-0.133408	-0.000247
H274	H	1.500366	0.366592	0.499753
H275	H	0.965828	-0.080201	0.042234
H276	H	1.465828	0.419799	0.542234
H277	H	0.965836	-0.080186	-0.042694
H278	H	1.465836	0.419814	0.457306
C279	C	0.954829	-0.649563	-0.000272
C280	C	1.454829	-0.149563	0.499728
H281	H	0.992350	-0.679896	-0.000285
H282	H	1.492350	-0.179896	0.499715
H283	H	0.957814	-0.626683	0.042187
H284	H	1.457814	-0.126683	0.542187
H285	H	0.957825	-0.626677	-0.042741
H286	H	1.457825	-0.126677	0.457259
C287	C	0.685646	-0.745147	-0.000206
C288	C	1.185646	-0.245147	0.499794
H289	H	0.694173	-0.785772	-0.000207
H290	H	1.194173	-0.285772	0.499793
H291	H	0.659641	-0.732550	-0.042660
H292	H	1.159641	-0.232550	0.457340
H293	H	0.659632	-0.732567	0.042268
H294	H	1.159632	-0.232567	0.542268
C295	C	1.022489	-0.383262	-0.000269
C296	C	1.522489	0.116738	0.499731
H297	H	1.013965	-0.342637	-0.000259
H298	H	1.513965	0.157363	0.499741
H299	H	1.048506	-0.395845	-0.042736
H300	H	1.548506	0.104155	0.457264
H301	H	1.048490	-0.395859	0.042191
H302	H	1.548490	0.104141	0.542191
C303	C	0.952992	-0.774303	-0.000287
C304	C	1.452992	-0.274303	0.499713
H305	H	0.943288	-0.812939	-0.000296
H306	H	1.443288	-0.312939	0.499704
H307	H	0.979292	-0.767434	0.042164
H308	H	1.479292	-0.267434	0.542164
H309	H	0.979288	-0.767412	-0.042763
H310	H	1.479288	-0.267412	0.457237
