data_functionalizedCrystal
_audit_creation_method	'MofGen! by Chris Wilmer'
_symmetry_space_group_name_H-M	'P1'
_symmetry_Int_Tables_number	1
_symmetry_cell_setting	triclinic
loop_
_symmetry_equiv_pos_as_xyz
  x,y,z
_cell_length_a	14.908571
_cell_length_b	19.120786
_cell_length_c	14.908308
_cell_angle_alpha	89.316475
_cell_angle_beta	89.824947
_cell_angle_gamma	89.019960
loop_
_atom_site_label
_atom_site_type_symbol
_atom_site_fract_x
_atom_site_fract_y
_atom_site_fract_z
Zn1	Zn	1.326486	-0.364755	0.566477
Zn2	Zn	1.826486	0.135245	1.066477
Zn3	Zn	1.329365	-0.475309	0.409721
Zn4	Zn	1.829365	0.024691	0.909721
Zn5	Zn	1.185494	-0.351330	0.408252
Zn6	Zn	1.685494	0.148670	0.908252
Zn7	Zn	1.170436	-0.474479	0.551420
Zn8	Zn	1.670436	0.025521	1.051420
O9	O	1.252945	-0.416468	0.483967
O10	O	1.752945	0.083532	0.983967
O11	O	1.452386	-0.385386	0.552599
O12	O	1.952386	0.114614	1.052599
O13	O	1.317787	-0.453592	0.284006
O14	O	1.817787	0.046408	0.784006
O15	O	1.209293	-0.255305	0.434927
O16	O	1.709293	0.244695	0.934927
O17	O	1.454502	-0.466610	0.437431
O18	O	1.954502	0.033390	0.937431
O19	O	1.312880	-0.265169	0.551175
O20	O	1.812880	0.234831	1.051175
O21	O	1.212085	-0.362505	0.282927
O22	O	1.712085	0.137495	0.782927
O23	O	1.057978	-0.361700	0.420327
O24	O	1.557978	0.138300	0.920327
O25	O	1.183630	-0.465195	0.678937
O26	O	1.683630	0.034805	1.178937
O27	O	1.046915	-0.452177	0.525513
O28	O	1.546915	0.047823	1.025513
O29	O	1.298279	-0.384581	0.689999
O30	O	1.798279	0.115419	1.189999
O31	O	1.303186	-0.573005	0.422831
O32	O	1.803186	-0.073005	0.922831
O33	O	1.186422	-0.572395	0.526937
O34	O	1.686422	-0.072395	1.026937
C35	C	1.019901	-0.405392	0.471127
C36	C	1.519901	0.094608	0.971127
C37	C	0.920201	-0.400672	0.465654
C38	C	1.420201	0.099328	0.965654
C39	C	0.721386	-0.486147	0.564738
C40	C	1.221386	0.013853	1.064738
C41	C	0.627709	-0.481714	0.559598
C42	C	1.127709	0.018286	1.059598
C43	C	0.639169	-0.387369	0.450242
C44	C	1.139169	0.112631	0.950242
C45	C	0.732846	-0.391802	0.455381
C46	C	1.232846	0.108198	0.955381
C47	C	0.773951	-0.441194	0.512630
C48	C	1.273951	0.058806	1.012630
C49	C	0.867630	-0.445630	0.517764
C50	C	1.367630	0.054370	1.017764
C51	C	0.879087	-0.351282	0.408413
C52	C	1.379087	0.148718	0.908413
C53	C	0.785410	-0.346849	0.403274
C54	C	1.285410	0.153151	0.903274
C55	C	1.243506	-0.598062	0.473430
C56	C	1.743506	-0.098062	0.973430
C57	C	1.239548	-0.675754	0.468957
C58	C	1.739548	-0.175754	0.968957
C59	C	1.291575	-0.717328	0.527424
C60	C	1.791575	-0.217328	1.027424
C61	C	1.287852	-0.790327	0.523222
C62	C	1.787852	-0.290327	1.023222
C63	C	1.232106	-0.821751	0.460549
C64	C	1.732106	-0.321751	0.960549
C65	C	1.180074	-0.780171	0.402079
C66	C	1.680074	-0.280171	0.902079
C67	C	1.183792	-0.707173	0.406286
C68	C	1.683792	-0.207173	0.906286
C69	C	1.218179	-1.041904	0.444821
C70	C	1.718179	-0.541904	0.944821
C71	C	1.214466	-1.114908	0.440617
C72	C	1.714466	-0.614908	0.940617
C73	C	1.322244	-1.125059	0.561761
C74	C	1.822244	-0.625059	1.061761
C75	C	1.325961	-1.052059	0.565958
C76	C	1.825961	-0.552059	1.065958
C77	C	1.273925	-1.010486	0.507492
C78	C	1.773925	-0.510486	1.007492
C79	C	1.228302	-0.896368	0.456250
C80	C	1.728302	-0.396368	0.956250
C81	C	1.277725	-0.935870	0.511796
C82	C	1.777725	-0.435870	1.011796
C83	C	1.486900	-0.427588	0.496858
C84	C	1.986900	0.072412	0.996858
C85	C	1.586597	-0.432327	0.502352
C86	C	2.086597	0.067673	1.002352
C87	C	1.238954	-0.426293	0.717924
C88	C	1.738954	0.073707	1.217924
C89	C	1.232991	-0.430480	0.817623
C90	C	1.732991	0.069520	1.317623
C91	C	1.262445	-0.234168	0.494567
C92	C	1.762445	0.265832	0.994567
C93	C	1.266493	-0.156482	0.499083
C94	C	1.766493	0.343518	0.999083
C95	C	1.266937	-0.406634	0.250926
C96	C	1.766937	0.093366	0.750926
C97	C	1.273083	-0.402259	0.151249
C98	C	1.773083	0.097741	0.651249
C99	C	1.341170	-0.354387	1.016488
C100	C	1.841170	0.145613	1.516488
C101	C	1.335570	-0.358318	1.110164
C102	C	1.835570	0.141682	1.610164
C103	C	1.216189	-0.442270	1.098652
C104	C	1.716189	0.057730	1.598652
C105	C	1.221789	-0.438338	1.004976
C106	C	1.721789	0.061662	1.504976
C107	C	1.284282	-0.394396	0.963898
C108	C	1.784282	0.105604	1.463898
C109	C	1.289885	-0.390469	0.870220
C110	C	1.789885	0.109531	1.370220
C111	C	1.170500	-0.474416	0.858710
C112	C	1.670500	0.025584	1.358710
C113	C	1.164901	-0.478347	0.952386
C114	C	1.664901	0.021653	1.452386
H115	H	0.584914	-0.518318	0.602032
H116	H	1.084914	-0.018318	1.102032
H117	H	0.751929	-0.306634	0.356666
H118	H	1.251929	0.193366	0.856666
H119	H	1.124180	-0.506996	0.815880
H120	H	1.624180	-0.006996	1.315880
H121	H	0.921896	-0.314679	0.365981
H122	H	1.421896	0.185321	0.865981
N123	N	1.351699	-0.683433	0.595019
N124	N	1.851699	-0.183433	1.095019
H125	H	1.415983	-0.698558	0.583946
H126	H	1.915983	-0.198558	1.083946
H127	H	1.333159	-0.698166	0.657564
H128	H	1.833159	-0.198166	1.157564
H129	H	0.754855	-0.526367	0.611347
H130	H	1.254855	-0.026367	1.111347
H131	H	0.605684	-0.347153	0.403639
H132	H	1.105684	0.152847	0.903639
H133	H	1.114019	-0.514122	0.985845
H134	H	1.614019	-0.014122	1.485845
H135	H	1.141425	-0.673323	0.358678
H136	H	1.641425	-0.173323	0.858678
H137	H	1.169067	-1.140490	0.389580
H138	H	1.669067	-0.640490	0.889580
N139	N	0.911969	-0.498901	0.579503
N140	N	1.411969	0.001099	1.079503
H141	H	0.864451	-0.526705	0.611734
H142	H	1.364451	-0.026705	1.111734
H143	H	0.949833	-0.474085	0.624850
H144	H	1.449833	0.025915	1.124850
H145	H	1.340771	-0.354690	0.836776
H146	H	1.840771	0.145310	1.336776
N147	N	1.343918	-0.835169	0.586325
N148	N	1.843918	-0.335169	1.086325
H149	H	1.379785	-0.804186	0.626676
H150	H	1.879785	-0.304186	1.126676
H151	H	1.386107	-0.865903	0.550435
H152	H	1.886107	-0.365903	1.050435
N153	N	1.386083	-1.018168	0.633559
N154	N	1.886083	-0.518168	1.133559
H155	H	1.418476	-1.055583	0.669963
H156	H	1.918476	-0.555583	1.169963
H157	H	1.348594	-0.987902	0.674767
H158	H	1.848594	-0.487902	1.174767
N159	N	1.408590	-0.307013	0.972178
N160	N	1.908590	0.192987	1.472178
H161	H	1.403511	-0.310600	0.904855
H162	H	1.903511	0.189400	1.404855
H163	H	1.471094	-0.321643	0.991458
H164	H	1.971094	0.178357	1.491458
N165	N	1.378347	-1.169907	0.624824
N166	N	1.878347	-0.669907	1.124824
H167	H	1.361173	-1.159219	0.688860
H168	H	1.861173	-0.659219	1.188860
H169	H	1.443909	-1.159610	0.615143
H170	H	1.943909	-0.659610	1.115143
H171	H	1.175811	-1.008060	0.397214
H172	H	1.675811	-0.508060	0.897214
H173	H	1.381892	-0.325737	1.152980
H174	H	1.881892	0.174263	1.652980
N175	N	1.119949	-0.814059	0.334479
N176	N	1.619949	-0.314059	0.834479
H177	H	1.125491	-0.866612	0.340680
H178	H	1.625491	-0.366612	0.840680
H179	H	1.138448	-0.799279	0.271940
H180	H	1.638448	-0.299279	0.771940
H181	H	1.323110	-0.910283	0.562827
H182	H	1.823110	-0.410283	1.062827
H183	H	1.182917	-0.921961	0.405219
H184	H	1.682917	-0.421961	0.905219
N185	N	1.148756	-0.489630	1.142965
N186	N	1.648756	0.010370	1.642965
H187	H	1.153833	-0.486037	1.210288
H188	H	1.653833	0.013963	1.710288
H189	H	1.161064	-0.539532	1.124482
H190	H	1.661064	-0.039532	1.624482
