data_functionalizedCrystal
_audit_creation_method	'MofGen! by Chris Wilmer'
_symmetry_space_group_name_H-M	'P1'
_symmetry_Int_Tables_number	1
_symmetry_cell_setting	triclinic
loop_
_symmetry_equiv_pos_as_xyz
  x,y,z
_cell_length_a	14.628931
_cell_length_b	17.917603
_cell_length_c	14.628931
_cell_angle_alpha	90.000192
_cell_angle_beta	60.000028
_cell_angle_gamma	57.011374
loop_
_atom_site_label
_atom_site_type_symbol
_atom_site_fract_x
_atom_site_fract_y
_atom_site_fract_z
Zr1	Zr	0.916422	0.754905	-0.077881
O2	O	1.121077	0.629780	-0.230817
O3	O	0.721440	0.793262	-0.030997
O4	O	0.912146	0.793262	-0.221703
O5	O	0.930372	0.629780	0.110321
O6	O	0.897769	0.922219	-0.214514
O7	O	0.930371	0.629780	-0.040111
O8	O	0.556632	0.922220	0.126623
O9	O	1.271509	0.629780	-0.230817
O10	O	0.787328	0.905860	-0.005638
O11	O	0.798057	0.809621	0.101263
O12	O	1.022588	0.809621	-0.123268
O13	O	1.033317	0.713381	-0.016368
Zr14	Zr	0.893494	0.960576	0.173506
Zr15	Zr	0.893494	0.960577	-0.066415
Zr16	Zr	0.916423	0.754904	0.162041
Zr17	Zr	1.156344	0.754904	-0.077881
Zr18	Zr	0.653572	0.960577	0.173506
O19	O	1.088476	0.922219	0.126622
O20	O	1.088475	0.922219	-0.214515
O21	O	1.121078	0.629780	0.110320
O22	O	0.688840	1.085701	0.326442
O23	O	0.688839	1.085701	-0.014695
O24	O	0.721441	0.793262	0.310140
O25	O	0.879545	1.085701	-0.014696
O26	O	0.897771	0.922219	0.317328
O27	O	0.912147	0.793262	0.310139
O28	O	0.879545	1.085701	0.135736
O29	O	1.253284	0.793262	-0.221704
O30	O	0.556633	0.922219	0.317329
O31	O	0.538407	1.085701	0.326442
O32	O	0.538407	1.085701	0.135737
O33	O	1.271510	0.629780	-0.040112
O34	O	1.253284	0.793261	-0.030998
O35	O	0.787328	0.905860	0.218893
O36	O	0.776599	1.002100	0.111993
O37	O	1.011860	0.905860	-0.005638
O38	O	1.022589	0.809621	0.101263
C39	C	0.604852	0.857741	0.047813
C40	C	0.502999	0.857741	0.047813
C41	C	0.543876	0.790225	-0.034710
C42	C	0.438607	0.790224	-0.034711
C43	C	0.933638	0.600476	0.033471
C44	C	0.943372	0.513163	0.028604
C45	C	0.961152	0.353319	0.019715
C46	C	0.848770	0.362155	0.075907
C47	C	0.858663	0.273212	0.070961
C48	C	0.951262	0.442268	0.024660
C49	C	1.205064	0.857740	0.047812
C50	C	1.306917	0.857740	0.047812
C51	C	0.904957	0.857741	-0.252292
C52	C	0.904957	0.857741	-0.354145
C53	C	0.876278	1.115005	0.062154
C54	C	0.866544	1.202318	0.067021
C55	C	1.021662	0.810000	-0.457907
C56	C	1.021664	0.809999	-0.563179
C57	C	0.904959	0.857740	0.347917
C58	C	0.904959	0.857740	0.449770
C59	C	0.576172	1.115005	0.062154
C60	C	0.464585	1.202318	0.067022
C61	C	0.604853	0.857741	0.347918
C62	C	0.503000	0.857741	0.449771
C63	C	0.576173	1.115005	0.362259
C64	C	0.464586	1.202318	0.468979
C65	C	1.233743	0.600476	-0.266634
C66	C	1.345330	0.513163	-0.373354
C67	C	1.233744	0.600476	0.033471
C68	C	1.345331	0.513163	0.028603
C69	C	1.205063	0.857740	-0.252293
C70	C	1.306916	0.857740	-0.354146
C71	C	0.417783	1.193086	0.007896
C72	C	0.312949	1.275118	0.012446
C73	C	0.254913	1.366382	0.076130
C74	C	0.301725	1.375613	0.135258
C75	C	0.406563	1.293581	0.130700
C76	C	0.406583	1.293566	0.463296
C77	C	0.301747	1.375614	0.563562
C78	C	0.254912	1.366412	0.669511
C79	C	0.312926	1.275154	0.675192
C80	C	0.417766	1.193108	0.574927
C81	C	1.403346	0.421915	-0.367671
C82	C	1.508210	0.339867	-0.467937
C83	C	1.555051	0.349070	-0.573886
C84	C	1.497031	0.440327	-0.579567
C85	C	1.392175	0.522373	-0.479301
C86	C	1.392144	0.522395	0.087719
C87	C	1.497004	0.440363	0.083142
C88	C	1.555043	0.349099	0.019455
C89	C	1.508227	0.339868	-0.039668
C90	C	1.403375	0.421900	-0.035097
C91	C	0.452269	0.905482	0.553533
C92	C	0.346999	0.905483	0.658805
H93	H	0.390070	0.915545	0.118462
Cl94	Cl	0.688751	0.476962	0.155895
H95	H	0.465035	1.118782	-0.043976
Cl96	Cl	0.253134	0.946987	0.156906
H97	H	0.350512	0.816872	0.556851
Cl98	Cl	0.465448	1.305159	0.330116
Cl99	Cl	0.449748	0.794628	0.432932
Cl100	Cl	0.718229	0.700981	-0.143796
H101	H	1.064787	0.278962	-0.032103
Cl102	Cl	0.750689	0.920854	-0.337306
Cl103	Cl	1.175929	0.746898	-0.474746
Cl104	Cl	0.254117	1.263492	-0.061887
H105	H	1.121580	0.769120	-0.652188
H106	H	0.805040	0.898610	-0.461225
H107	H	0.169547	1.433169	0.079833
H108	H	0.254457	1.449931	0.187108
Cl109	Cl	0.465378	1.305205	0.205048
H110	H	0.254522	1.449912	0.558916
H111	H	0.169543	1.433226	0.751144
Cl112	Cl	0.254029	1.263602	0.808394
Cl113	Cl	0.490665	1.078400	0.582092
Cl114	Cl	1.344482	0.410322	-0.234491
H115	H	0.473429	0.732419	-0.105360
Cl116	Cl	1.581124	0.225156	-0.460769
H117	H	1.640432	0.282255	-0.655519
H118	H	1.535103	0.447898	0.131293
Cl119	Cl	1.319207	0.637117	0.167786
H120	H	1.535182	0.447808	-0.665842
H121	H	1.344939	0.596669	-0.483942
Cl122	Cl	1.686855	0.245982	0.013723
H123	H	1.555499	0.265550	-0.091521
Cl124	Cl	1.344530	0.410276	-0.109415
H125	H	0.486776	0.946350	0.564431
Cl126	Cl	0.279669	0.968597	0.796227
