data_functionalizedCrystal
_audit_creation_method	'MofGen! by Chris Wilmer'
_symmetry_space_group_name_H-M	'P1'
_symmetry_Int_Tables_number	1
_symmetry_cell_setting	triclinic
loop_
_symmetry_equiv_pos_as_xyz
  x,y,z
_cell_length_a	14.519731
_cell_length_b	14.519709
_cell_length_c	16.776229
_cell_angle_alpha	89.992406
_cell_angle_beta	89.992771
_cell_angle_gamma	83.684499
loop_
_atom_site_label
_atom_site_type_symbol
_atom_site_fract_x
_atom_site_fract_y
_atom_site_fract_z
O1	O	1.223859	0.120987	-0.066292
O2	O	0.955384	0.135203	-0.066293
O3	O	1.096740	-0.006143	-0.066285
O4	O	1.082503	0.262333	-0.066300
O5	O	1.096721	-0.006152	0.066291
O6	O	0.955366	0.135194	0.066283
O7	O	1.223840	0.120978	0.066285
Zn8	Zn	1.089600	0.128085	0.087333
Zn9	Zn	1.089625	0.128096	-0.087342
O10	O	1.082485	0.262324	0.066277
C11	C	0.921016	0.134532	-0.000005
C12	C	0.818635	0.132536	-0.000005
C13	C	0.735491	0.130915	-0.000008
C14	C	0.631182	0.128888	-0.000009
C15	C	0.548043	0.127280	-0.000008
C16	C	0.443728	0.125253	-0.000010
C17	C	1.096067	-0.040507	0.000003
C18	C	1.094079	-0.142889	0.000004
C19	C	1.086759	-0.517785	-0.000017
C20	C	1.088792	-0.413477	-0.000011
C21	C	1.090419	-0.330340	-0.000006
C22	C	1.092452	-0.226025	-0.000001
C23	C	1.258209	0.121649	-0.000005
C24	C	1.360589	0.123645	-0.000010
C25	C	1.083157	0.296688	-0.000013
C26	C	1.085146	0.399070	-0.000019
N27	N	1.089590	0.128076	0.206545
N28	N	1.089642	0.128097	-0.206553
C29	C	1.152201	0.065514	0.248265
C30	C	1.152206	0.065513	0.331718
C31	C	1.089604	0.128080	0.373448
C32	C	1.026986	0.190645	0.331721
C33	C	1.026977	0.190641	0.248271
C34	C	1.027019	0.190663	0.668268
C35	C	1.027034	0.190665	0.751725
C36	C	1.152248	0.065536	0.751715
C37	C	1.152239	0.065532	0.668265
C38	C	1.089619	0.128093	0.626546
C39	C	1.089613	0.128092	0.536057
C40	C	1.089613	0.128086	0.463934
H41	H	1.203183	0.014569	0.214294
C42	C	1.221105	-0.003298	0.622366
N43	N	1.272972	-0.055146	0.587797
C44	C	1.221061	-0.003332	0.377606
N45	N	1.272918	-0.055198	0.412169
H46	H	1.203235	0.014592	0.785692
H47	H	0.976052	0.241616	0.785700
H48	H	0.976033	0.241605	0.634307
C49	C	0.958113	0.259461	0.377627
N50	N	0.906237	0.311294	0.412203
H51	H	0.975991	0.241584	0.214302
