data_functionalizedCrystal
_audit_creation_method	'MofGen! by Chris Wilmer'
_symmetry_space_group_name_H-M	'P1'
_symmetry_Int_Tables_number	1
_symmetry_cell_setting	triclinic
loop_
_symmetry_equiv_pos_as_xyz
  x,y,z
_cell_length_a	26.210047
_cell_length_b	16.109301
_cell_length_c	16.109301
_cell_angle_alpha	96.538468
_cell_angle_beta	89.988505
_cell_angle_gamma	89.989538
loop_
_atom_site_label
_atom_site_type_symbol
_atom_site_fract_x
_atom_site_fract_y
_atom_site_fract_z
O1	O	-0.042397	-1.103116	0.106877
O2	O	-0.042405	-0.861054	0.120176
O3	O	-0.042397	-0.988735	-0.007504
O4	O	-0.042404	-0.975436	0.234558
O5	O	0.042461	-0.988755	-0.007528
O6	O	0.042453	-0.861075	0.120153
O7	O	0.042461	-1.103137	0.106853
Cu8	Cu	0.050205	-0.982108	0.113501
Cu9	Cu	-0.050149	-0.982083	0.113529
O10	O	0.042454	-0.975456	0.234534
C11	C	0.000023	-0.830090	0.119626
C12	C	0.000020	-0.737794	0.118011
N13	N	-0.120733	-0.982066	0.113543
C14	C	0.000032	-0.988206	-0.038491
C15	C	0.000031	-0.986591	-0.130786
C16	C	-0.473244	-1.038758	0.057096
C17	C	-0.686902	-1.038771	0.057079
O18	O	-0.714521	-1.086968	0.009117
N19	N	-0.713627	-0.982126	0.113497
C20	C	-0.686934	-0.925478	0.169926
O21	O	-0.714567	-0.877305	0.217919
C22	C	-0.473276	-0.925471	0.169947
C23	C	-0.446554	-0.982113	0.113520
C24	C	-0.446522	-1.095397	0.000674
C25	C	-0.393110	-1.095390	0.000676
C26	C	-0.366421	-1.038745	0.057100
C27	C	-0.393143	-0.982107	0.113522
C28	C	-0.446584	-0.868827	0.226381
C29	C	-0.393166	-0.868832	0.226382
C30	C	-0.366444	-0.925475	0.169955
C31	C	-0.313042	-0.925455	0.169948
N32	N	-0.286317	-0.982099	0.113530
C33	C	-0.313007	-1.038744	0.057106
C34	C	-0.799107	-0.925485	0.169910
C35	C	-0.852521	-0.925486	0.169904
C36	C	-0.852486	-1.038779	0.057057
C37	C	-0.799071	-1.038774	0.057060
C38	C	-0.772382	-0.982130	0.113493
C39	C	-0.200839	-1.038726	0.057114
C40	C	-0.147422	-1.038712	0.057119
C41	C	-0.147462	-0.925421	0.169968
C42	C	-0.200874	-0.925432	0.169961
C43	C	-0.227561	-0.982091	0.113531
O44	O	-0.285390	-0.877289	0.217891
O45	O	-0.285364	-1.086923	0.009134
C46	C	-0.526655	-1.038765	0.057094
C47	C	-0.553377	-0.982127	0.113516
C48	C	-0.526687	-0.925481	0.169940
C49	C	-0.606791	-0.982127	0.113510
C50	C	-0.633481	-1.038772	0.057086
C51	C	-0.606756	-1.095417	0.000668
C52	C	-0.553345	-1.095410	0.000670
C53	C	-0.553412	-0.868837	0.226358
C54	C	-0.606824	-0.868848	0.226351
C55	C	-0.633513	-0.925493	0.169927
N56	N	0.120789	-0.982131	0.113480
C57	C	0.000032	-1.134101	0.107404
C58	C	0.000032	-1.226397	0.109019
C59	C	0.000024	-0.515522	0.190018
C60	C	0.000027	-0.428802	0.188494
C61	C	0.000030	-0.448676	0.037006
C62	C	0.000030	-0.535395	0.038530
C63	C	0.000024	-0.568815	0.115039
C64	C	0.000027	-0.395376	0.111990
C65	C	0.000031	-0.301350	0.110337
C66	C	0.000022	-0.662847	0.116693
C67	C	0.000024	-1.057074	-0.439785
C68	C	0.000027	-1.058600	-0.353064
C69	C	0.000029	-0.907111	-0.333191
C70	C	0.000030	-0.905586	-0.419910
C71	C	0.000025	-0.980571	-0.473205
C72	C	0.000027	-0.983620	-0.299766
C73	C	0.000030	-0.985274	-0.205740
C74	C	0.000023	-0.978917	-0.567237
C75	C	0.000024	-0.975985	0.265521
C76	C	0.000021	-0.977600	0.357816
H77	H	-0.125667	-1.084837	0.011166
H78	H	0.000023	-0.542730	0.252317
N79	N	0.000029	-1.137943	-0.497272
H80	H	-0.031427	-1.140681	-0.533684
H81	H	0.000051	-1.186594	-0.462882
H82	H	0.000028	-1.120896	-0.325859
H83	H	0.000032	-0.846062	-0.289788
N84	N	0.000038	-0.823068	-0.455963
H85	H	0.000039	-0.775797	-0.409044
H86	H	-0.031418	-0.819120	-0.491504
N87	N	0.000038	-0.412629	-0.045511
H88	H	0.000038	-0.349606	-0.035102
H89	H	-0.031418	-0.432116	-0.078314
N90	N	-0.229618	-1.099835	-0.003747
H91	H	-0.204578	-1.135709	-0.039486
H92	H	-0.251779	-1.068100	-0.040585
N93	N	0.000037	-0.592883	-0.042343
H94	H	0.000037	-0.558554	-0.091043
H95	H	-0.031420	-0.629290	-0.045002
H96	H	-0.371439	-0.822706	0.272339
N97	N	-0.475390	-0.807735	0.287253
H98	H	-0.497551	-0.839418	0.324145
H99	H	-0.497523	-0.771006	0.255349
N100	N	-0.364298	-1.156511	-0.060164
H101	H	-0.373586	-1.147091	-0.119213
H102	H	-0.373614	-1.215441	-0.050355
N103	N	-0.475307	-1.156493	-0.060188
H104	H	-0.466004	-1.215463	-0.050484
H105	H	-0.465986	-1.146970	-0.119198
N106	N	-0.770251	-1.099873	-0.003792
H107	H	-0.795269	-1.135755	-0.039533
H108	H	-0.748094	-1.136549	0.028133
H109	H	-0.874226	-1.084901	0.011113
H110	H	-0.874274	-0.879354	0.215844
H111	H	-0.531686	-0.822710	0.272306
N112	N	0.000055	-0.371320	0.269364
H113	H	0.000061	-0.405654	0.318060
H114	H	-0.031393	-0.334873	0.272071
N115	N	-0.770325	-0.864374	0.230769
H116	H	-0.779632	-0.873805	0.289812
H117	H	-0.779646	-0.805438	0.220972
N118	N	-0.229699	-0.864333	0.230811
H119	H	-0.204684	-0.828446	0.266553
H120	H	-0.251858	-0.896077	0.267647
H121	H	-0.531591	-1.141534	-0.045278
N122	N	-0.118671	-0.864324	0.230820
H123	H	-0.080779	-0.872923	0.222256
H124	H	-0.128012	-0.873799	0.289835
H125	H	-0.628577	-0.822715	0.272299
N126	N	-0.635548	-1.156501	-0.060202
H127	H	-0.673439	-1.147900	-0.051638
H128	H	-0.626210	-1.215449	-0.050475
