data_functionalizedCrystal
_audit_creation_method	'MofGen! by Chris Wilmer'
_symmetry_space_group_name_H-M	'P1'
_symmetry_Int_Tables_number	1
_symmetry_cell_setting	triclinic
loop_
_symmetry_equiv_pos_as_xyz
  x,y,z
_cell_length_a	10.654549
_cell_length_b	17.019294
_cell_length_c	9.730223
_cell_angle_alpha	86.116633
_cell_angle_beta	89.997731
_cell_angle_gamma	83.938312
loop_
_atom_site_label
_atom_site_type_symbol
_atom_site_fract_x
_atom_site_fract_y
_atom_site_fract_z
O1	O	1.666104	0.110793	-0.127368
O2	O	1.300460	0.121349	-0.128627
O3	O	1.493483	0.001294	-0.114407
O4	O	1.473082	0.230848	-0.141588
O5	O	1.493470	0.001291	0.114173
O6	O	1.300448	0.121346	0.099954
O7	O	1.666092	0.110790	0.101212
Zn8	Zn	1.483268	0.116067	0.136875
Zn9	Zn	1.483284	0.116072	-0.164289
O10	O	1.473070	0.230845	0.086993
C11	C	1.253668	0.120572	-0.014246
C12	C	1.114262	0.118254	-0.013975
C13	C	0.902674	0.186756	-0.022081
C14	C	1.033660	0.188940	-0.022348
C15	C	1.063870	0.045378	-0.005349
C16	C	0.932886	0.043194	-0.005092
C17	C	1.492703	-0.028101	0.003361
C18	C	1.490383	-0.115684	0.013722
C19	C	1.489302	-0.156825	-0.106008
C20	C	1.487114	-0.239118	-0.096268
C21	C	1.486015	-0.280269	0.033203
C22	C	1.487092	-0.239123	0.152943
C23	C	1.489271	-0.156831	0.143201
C24	C	1.479426	-0.528738	0.068849
C25	C	1.477250	-0.611037	0.078582
C26	C	1.477270	-0.611025	-0.170630
C27	C	1.479457	-0.528732	-0.180360
C28	C	1.480527	-0.487592	-0.060621
C29	C	1.483782	-0.364386	0.043162
C30	C	1.482751	-0.403476	-0.070581
C31	C	1.712884	0.111566	-0.013171
C32	C	1.852291	0.113885	-0.013451
C33	C	1.473850	0.260240	-0.030778
C34	C	1.476170	0.347823	-0.041149
N35	N	1.483266	0.116064	0.342412
N36	N	1.483296	0.116069	-0.369826
C37	C	1.568765	0.062926	0.420632
C38	C	1.568778	0.062926	0.564514
C39	C	1.397788	0.169209	0.551944
C40	C	1.397771	0.169204	0.408065
H41	H	0.837056	0.244317	-0.028888
C42	C	0.877454	-0.036969	0.004402
C43	C	0.791566	-0.058206	-0.111783
C44	C	0.736132	-0.138364	-0.102296
C45	C	0.766585	-0.197284	0.023377
C46	C	0.852477	-0.176048	0.139572
C47	C	0.907912	-0.095891	0.130085
H48	H	0.769019	-0.014588	-0.204823
H49	H	0.672549	-0.154084	-0.188312
H50	H	0.725549	-0.256622	0.030401
H51	H	0.875025	-0.219666	0.232611
H52	H	0.971495	-0.080171	0.216101
H53	H	1.129506	-0.012176	0.001460
C54	C	1.303717	0.227660	0.322009
C55	C	1.209728	0.286148	0.394212
C56	C	1.115676	0.344598	0.308156
C57	C	1.115612	0.344560	0.149898
C58	C	1.209605	0.286070	0.077687
C59	C	1.303657	0.227620	0.163743
H60	H	1.209772	0.286178	0.511372
H61	H	1.046096	0.387896	0.361612
H62	H	1.045989	0.387828	0.086194
H63	H	1.209561	0.286040	-0.039473
H64	H	1.373236	0.184322	0.110286
C65	C	1.490511	-0.111561	-0.248431
C66	C	1.599210	-0.131236	-0.348898
C67	C	1.600415	-0.085974	-0.491325
C68	C	1.492922	-0.021038	-0.533284
C69	C	1.384215	-0.001360	-0.432815
C70	C	1.383010	-0.046621	-0.290388
H71	H	1.678790	-0.179308	-0.317840
H72	H	1.680888	-0.100542	-0.565699
H73	H	1.493814	0.012467	-0.638717
H74	H	1.304634	0.046713	-0.463873
H75	H	1.302537	-0.032054	-0.216014
H76	H	1.480353	-0.495232	-0.285790
H77	H	1.486239	-0.272611	-0.193766
H78	H	1.074675	0.248278	-0.029376
C79	C	1.480629	-0.483498	0.200565
C80	C	1.371343	-0.486465	0.303725
C81	C	1.372555	-0.441224	0.435451
C82	C	1.483053	-0.393016	0.464017
C83	C	1.592348	-0.390048	0.360854
C84	C	1.591136	-0.435289	0.229128
H85	H	1.289538	-0.522153	0.282582
H86	H	1.291647	-0.443422	0.511819
H87	H	1.483950	-0.359526	0.561528
H88	H	1.674153	-0.354360	0.381997
H89	H	1.672044	-0.433091	0.152761
C90	C	1.476076	-0.656280	-0.302336
C91	C	1.583569	-0.721216	-0.328925
C92	C	1.582367	-0.766470	-0.460637
C93	C	1.473673	-0.746788	-0.565759
C94	C	1.366172	-0.681849	-0.539173
C95	C	1.367373	-0.636595	-0.407462
H96	H	1.664038	-0.735789	-0.251104
H97	H	1.661947	-0.814542	-0.480317
H98	H	1.472783	-0.780288	-0.663260
H99	H	1.285703	-0.667276	-0.616994
H100	H	1.287794	-0.588523	-0.387781
H101	H	1.476349	-0.644540	0.184019
H102	H	1.638379	0.019655	0.367181
H103	H	1.486189	-0.272635	0.258361
H104	H	1.490133	-0.123334	0.240699
H105	H	1.483637	-0.369966	-0.175997
H106	H	1.482891	-0.397902	0.148579
H107	H	1.638397	0.019656	0.628198
H108	H	1.328181	0.212476	0.605413
