data_functionalizedCrystal
_audit_creation_method	'MofGen! by Chris Wilmer'
_symmetry_space_group_name_H-M	'P1'
_symmetry_Int_Tables_number	1
_symmetry_cell_setting	triclinic
loop_
_symmetry_equiv_pos_as_xyz
  x,y,z
_cell_length_a	17.699077
_cell_length_b	17.699083
_cell_length_c	16.176319
_cell_angle_alpha	89.995661
_cell_angle_beta	89.994578
_cell_angle_gamma	83.281795
loop_
_atom_site_label
_atom_site_type_symbol
_atom_site_fract_x
_atom_site_fract_y
_atom_site_fract_z
O1	O	1.004080	0.095688	-0.068737
O2	O	1.337414	0.429021	0.264596
O3	O	1.670747	0.762355	0.597929
O4	O	0.783701	0.108145	-0.068741
O5	O	1.117035	0.441479	0.264592
O6	O	1.450368	0.774812	0.597925
O7	O	0.900117	-0.008273	-0.068732
O8	O	1.233451	0.325061	0.264601
O9	O	1.566784	0.658394	0.597935
O10	O	0.887665	0.212106	-0.068747
O11	O	1.220998	0.545439	0.264587
O12	O	1.554331	0.878773	0.597920
O13	O	0.900104	-0.008273	0.068761
O14	O	1.233437	0.325060	0.402095
O15	O	1.566770	0.658394	0.735428
O16	O	0.783688	0.108145	0.068752
O17	O	1.117021	0.441478	0.402085
O18	O	1.450354	0.774812	0.735418
O19	O	1.004067	0.095688	0.068756
O20	O	1.337400	0.429021	0.402089
O21	O	1.670733	0.762354	0.735423
Cu22	Cu	0.893876	0.101916	0.081308
Cu23	Cu	1.227209	0.435250	0.414641
Cu24	Cu	1.560543	0.768583	0.747975
Cu25	Cu	0.893892	0.101917	-0.081294
Cu26	Cu	1.227226	0.435250	0.252040
Cu27	Cu	1.560559	0.768583	0.585373
O28	O	0.887651	0.212106	0.068746
O29	O	1.220984	0.545439	0.402080
O30	O	1.554318	0.878772	0.735413
C31	C	0.755498	0.107700	0.000005
C32	C	1.088831	0.441033	0.333338
C33	C	1.422164	0.774366	0.666671
C34	C	0.671479	0.106363	0.000003
C35	C	1.004813	0.439696	0.333337
C36	C	1.338146	0.773029	0.666670
C37	C	0.632004	0.105733	0.074952
C38	C	0.965338	0.439066	0.408285
C39	C	1.298671	0.772399	0.741618
C40	C	0.553062	0.104464	0.074953
C41	C	0.886395	0.437798	0.408286
C42	C	1.219729	0.771131	0.741619
C43	C	0.513595	0.103832	0.000004
C44	C	0.846928	0.437165	0.333338
C45	C	1.180262	0.770498	0.666671
C46	C	0.553076	0.104460	-0.074950
C47	C	0.886409	0.437793	0.258383
C48	C	1.219742	0.771126	0.591717
C49	C	0.632017	0.105722	-0.074950
C50	C	0.965351	0.439056	0.258383
C51	C	1.298684	0.772389	0.591717
C52	C	0.234712	0.099366	-0.074951
C53	C	0.568046	0.432700	0.258382
C54	C	0.901379	0.766033	0.591715
C55	C	0.155765	0.098106	-0.074945
C56	C	0.489098	0.431439	0.258388
C57	C	0.822431	0.764772	0.591721
C58	C	0.155757	0.098108	0.074952
C59	C	0.489090	0.431442	0.408285
C60	C	0.822423	0.764775	0.741618
C61	C	0.234699	0.099371	0.074951
C62	C	0.568032	0.432704	0.408285
C63	C	0.901365	0.766038	0.741618
C64	C	0.274173	0.099995	-0.000002
C65	C	0.607506	0.433328	0.333331
C66	C	0.940840	0.766662	0.666664
C67	C	0.359772	0.101369	-0.000002
C68	C	0.693105	0.434702	0.333331
C69	C	1.026438	0.768035	0.666664
C70	C	0.427997	0.102464	0.000004
C71	C	0.761330	0.435797	0.333337
C72	C	1.094664	0.769130	0.666670
C73	C	0.899664	-0.036470	0.000015
C74	C	1.232998	0.296864	0.333348
C75	C	1.566331	0.630197	0.666681
C76	C	0.898326	-0.120488	0.000015
C77	C	1.231659	0.212845	0.333348
C78	C	1.564992	0.546179	0.666682
C79	C	0.966659	-0.169110	0.000018
C80	C	1.299993	0.164223	0.333351
C81	C	1.633326	0.497556	0.666684
C82	C	0.965397	-0.248054	0.000010
C83	C	1.298730	0.085280	0.333344
C84	C	1.632064	0.418613	0.666677
C85	C	0.895800	-0.278373	0.000006
C86	C	1.229134	0.054960	0.333340
C87	C	1.562467	0.388294	0.666673
C88	C	0.827461	-0.229744	0.000001
C89	C	1.160795	0.103589	0.333335
C90	C	1.494128	0.436922	0.666668
C91	C	0.828724	-0.150803	0.000003
C92	C	1.162058	0.182531	0.333336
C93	C	1.495391	0.515864	0.666669
C94	C	0.822366	-0.548107	-0.000005
C95	C	1.155699	-0.214774	0.333328
C96	C	1.489033	0.118559	0.666661
C97	C	0.821108	-0.627055	-0.000004
C98	C	1.154442	-0.293722	0.333329
C99	C	1.487775	0.039612	0.666662
C100	C	0.959039	-0.645358	0.000002
C101	C	1.292372	-0.312025	0.333335
C102	C	1.625705	0.021308	0.666669
C103	C	0.960302	-0.566417	0.000003
C104	C	1.293635	-0.233083	0.333337
C105	C	1.626968	0.100250	0.666670
C106	C	0.891963	-0.517795	-0.000006
C107	C	1.225297	-0.184461	0.333327
C108	C	1.558630	0.148872	0.666661
C109	C	0.893333	-0.432196	0.000000
C110	C	1.226666	-0.098862	0.333334
C111	C	1.559999	0.234471	0.666667
C112	C	0.894430	-0.363971	0.000006
C113	C	1.227763	-0.030637	0.333339
C114	C	1.561097	0.302696	0.666673
C115	C	1.032271	0.096133	0.000008
C116	C	1.365604	0.429467	0.333341
C117	C	1.698937	0.762800	0.666675
C118	C	1.116289	0.097470	0.000004
C119	C	1.449622	0.430804	0.333337
C120	C	1.782956	0.764137	0.666671
C121	C	0.888104	0.240303	-0.000002
C122	C	1.221437	0.573636	0.333331
C123	C	1.554771	0.906969	0.666665
C124	C	0.889443	0.324321	-0.000008
C125	C	1.222776	0.657654	0.333326
C126	C	1.556109	0.990988	0.666659
N127	N	0.893870	0.101916	0.195673
N128	N	1.227204	0.435249	0.529007
N129	N	1.560537	0.768582	0.862340
N130	N	0.893904	0.101911	-0.195659
N131	N	1.227237	0.435245	0.137675
N132	N	1.560571	0.768578	0.471008
C133	C	0.939685	0.147763	0.238932
C134	C	1.273019	0.481097	0.572265
C135	C	1.606352	0.814430	0.905598
C136	C	0.939693	0.147760	0.325479
C137	C	1.273027	0.481094	0.658812
C138	C	1.606360	0.814427	0.992145
C139	C	0.893882	0.101913	0.368766
C140	C	1.227215	0.435247	0.702099
C141	C	1.560549	0.768580	1.035433
C142	C	0.848065	0.056060	0.325502
C143	C	1.181398	0.389394	0.658835
C144	C	1.514732	0.722727	0.992168
C145	C	0.848062	0.056060	0.238956
C146	C	1.181395	0.389393	0.572289
C147	C	1.514728	0.722726	0.905623
C148	C	0.848079	0.056061	0.674530
C149	C	1.181412	0.389395	1.007863
C150	C	1.514746	0.722728	1.341196
C151	C	0.848084	0.056067	0.761081
C152	C	1.181418	0.389401	1.094415
C153	C	1.514751	0.722734	1.427748
C154	C	0.939711	0.147762	0.761052
C155	C	1.273044	0.481095	1.094386
C156	C	1.606378	0.814429	1.427719
C157	C	0.939707	0.147761	0.674507
C158	C	1.273041	0.481095	1.007840
C159	C	1.606374	0.814428	1.341174
C160	C	0.893894	0.101906	0.631250
C161	C	1.227227	0.435239	0.964583
C162	C	1.560561	0.768572	1.297917
C163	C	0.893887	0.101908	0.537406
C164	C	1.227220	0.435242	0.870739
C165	C	1.560553	0.768575	1.204073
C166	C	0.893884	0.101914	0.462608
C167	C	1.227218	0.435248	0.795942
C168	C	1.560551	0.768581	1.129275
H169	H	0.664157	0.106237	-0.135981
H170	H	0.997490	0.439570	0.197352
H171	H	1.330823	0.772904	0.530686
H172	H	0.664132	0.106254	0.135984
H173	H	0.997465	0.439587	0.469317
H174	H	1.330799	0.772921	0.802650
H175	H	0.520927	0.103939	0.135983
H176	H	0.854260	0.437272	0.469317
H177	H	1.187593	0.770605	0.802650
C178	C	1.043222	-0.135767	0.000022
C179	C	1.376556	0.197566	0.333355
C180	C	1.709889	0.530899	0.666689
N181	N	1.100892	-0.110656	0.000022
N182	N	1.434225	0.222678	0.333355
N183	N	1.767559	0.556011	0.666688
C184	C	0.744543	-0.660404	-0.000015
C185	C	1.077876	-0.327070	0.333318
C186	C	1.411210	0.006263	0.666651
N187	N	0.686877	-0.685522	-0.000024
N188	N	1.020210	-0.352189	0.333309
N189	N	1.353544	-0.018855	0.666642
H190	H	0.977009	0.185098	0.639267
H191	H	1.310342	0.518431	0.972600
H192	H	1.643676	0.851764	1.305933
H193	H	0.770794	-0.254436	-0.000007
H194	H	1.104128	0.078897	0.333326
H195	H	1.437461	0.412230	0.666660
H196	H	1.021041	-0.287639	0.000014
H197	H	1.354374	0.045694	0.333347
H198	H	1.687708	0.379027	0.666681
C199	C	1.036863	-0.533070	0.000008
C200	C	1.370196	-0.199737	0.333341
C201	C	1.703530	0.133596	0.666674
N202	N	1.094531	-0.507955	0.000007
N203	N	1.427864	-0.174622	0.333341
N204	N	1.761198	0.158711	0.666674
H205	H	1.014683	-0.684956	0.000005
H206	H	1.348016	-0.351623	0.333339
H207	H	1.681350	-0.018289	0.666672
C208	C	0.797670	0.005630	0.373121
C209	C	1.131004	0.338963	0.706454
C210	C	1.464337	0.672296	1.039787
N211	N	0.759709	-0.032353	0.408987
N212	N	1.093042	0.300981	0.742320
N213	N	1.426375	0.634314	1.075653
C214	C	0.747192	-0.494633	-0.000020
C215	C	1.080525	-0.161300	0.333313
C216	C	1.413858	0.172033	0.666646
N217	N	0.690566	-0.454354	-0.000034
N218	N	1.023900	-0.121020	0.333300
N219	N	1.357233	0.212313	0.666633
C220	C	0.990114	0.198198	0.808643
C221	C	1.323448	0.531531	1.141976
C222	C	1.656781	0.864864	1.475309
N223	N	1.028076	0.236185	0.844486
N224	N	1.361410	0.569519	1.177819
N225	N	1.694743	0.902852	1.511153
H226	H	0.773080	-0.111214	0.000001
H227	H	1.106413	0.222119	0.333334
H228	H	1.439747	0.555452	0.666667
H229	H	0.977002	0.185093	0.360696
H230	H	1.310335	0.518426	0.694029
H231	H	1.643669	0.851759	1.027362
H232	H	0.976986	0.185102	0.203693
H233	H	1.310319	0.518435	0.537027
H234	H	1.643652	0.851769	0.870360
C235	C	0.797689	0.005626	0.808696
C236	C	1.131023	0.338959	1.142029
C237	C	1.464356	0.672293	1.475362
N238	N	0.759734	-0.032364	0.844559
N239	N	1.093067	0.300969	1.177892
N240	N	1.426400	0.634302	1.511225
C241	C	0.112329	0.097413	0.157403
C242	C	0.445663	0.430747	0.490736
C243	C	0.778996	0.764080	0.824070
N244	N	0.079621	0.096891	0.219504
N245	N	0.412954	0.430224	0.552837
N246	N	0.746287	0.763558	0.886171
H247	H	0.266828	0.099890	0.135982
H248	H	0.600162	0.433223	0.469315
H249	H	0.933495	0.766557	0.802649
C250	C	0.112354	0.097401	-0.157398
C251	C	0.445687	0.430735	0.175935
C252	C	0.779020	0.764068	0.509268
N253	N	0.079657	0.096869	-0.219499
N254	N	0.412990	0.430203	0.113835
N255	N	0.746323	0.763536	0.447168
C256	C	0.278125	0.100046	-0.157403
C257	C	0.611458	0.433379	0.175931
C258	C	0.944791	0.766713	0.509264
N259	N	0.310826	0.100555	-0.219509
N260	N	0.644159	0.433888	0.113824
N261	N	0.977492	0.767222	0.447158
C262	C	0.797676	0.005625	0.626959
C263	C	1.131009	0.338959	0.960292
C264	C	1.464343	0.672292	1.293625
N265	N	0.759708	-0.032363	0.591125
N266	N	1.093041	0.300970	0.924458
N267	N	1.426375	0.634303	1.257792
H268	H	0.520936	0.103939	-0.135974
H269	H	0.854269	0.437273	0.197359
H270	H	1.187603	0.770606	0.530692
C271	C	0.797660	0.005626	0.191372
C272	C	1.130993	0.338959	0.524706
C273	C	1.464326	0.672292	0.858039
N274	N	0.759697	-0.032364	0.155534
N275	N	1.093030	0.300969	0.488867
N276	N	1.426363	0.634302	0.822200
