data_functionalizedCrystal
_audit_creation_method	'MofGen! by Chris Wilmer'
_symmetry_space_group_name_H-M	'P1'
_symmetry_Int_Tables_number	1
_symmetry_cell_setting	triclinic
loop_
_symmetry_equiv_pos_as_xyz
  x,y,z
_cell_length_a	19.077105
_cell_length_b	19.077114
_cell_length_c	19.076919
_cell_angle_alpha	85.527261
_cell_angle_beta	90.076224
_cell_angle_gamma	89.883258
loop_
_atom_site_label
_atom_site_type_symbol
_atom_site_fract_x
_atom_site_fract_y
_atom_site_fract_z
Zn1	Zn	1.044040	0.340451	-0.453511
Zn2	Zn	1.544040	0.840451	0.046489
Zn3	Zn	1.043950	0.453600	-0.340356
Zn4	Zn	1.543950	0.953600	0.159644
Zn5	Zn	0.931652	0.331023	-0.330942
Zn6	Zn	1.431652	0.831023	0.169058
Zn7	Zn	0.921790	0.453176	-0.453093
Zn8	Zn	1.421790	0.953176	0.046907
O9	O	0.985358	0.394563	-0.394476
O10	O	1.485358	0.894563	0.105524
O11	O	1.142187	0.359583	-0.442616
O12	O	1.642187	0.859583	0.057384
O13	O	1.033143	0.433573	-0.240631
O14	O	1.533143	0.933573	0.259369
O15	O	0.950725	0.233799	-0.343437
O16	O	1.450725	0.733799	0.156563
O17	O	1.142122	0.442714	-0.359482
O18	O	1.642122	0.942714	0.140518
O19	O	1.033296	0.240725	-0.433488
O20	O	1.533296	0.740725	0.066512
O21	O	0.950638	0.343516	-0.233715
O22	O	1.450638	0.843516	0.266285
O23	O	0.832184	0.343104	-0.343031
O24	O	1.332184	0.843104	0.156969
O25	O	0.933917	0.441990	-0.551624
O26	O	1.433917	0.941990	-0.051624
O27	O	0.824939	0.432849	-0.432774
O28	O	1.324939	0.932849	0.067226
O29	O	1.023733	0.359172	-0.551932
O30	O	1.523733	0.859172	-0.051932
O31	O	1.023581	0.552019	-0.359076
O32	O	1.523581	1.052019	0.140924
O33	O	0.933830	0.551707	-0.441902
O34	O	1.433830	1.051707	0.058098
C35	C	0.803110	0.386908	-0.386836
C36	C	1.303110	0.886908	0.113164
C37	C	0.725142	0.383651	-0.383585
C38	C	1.225142	0.883651	0.116415
C39	C	0.977644	0.577398	-0.401481
C40	C	1.477644	1.077398	0.098519
C41	C	0.974407	0.655619	-0.404504
C42	C	1.474407	1.155619	0.095496
C43	C	0.684758	0.428912	-0.428714
C44	C	1.184758	0.928912	0.071286
C45	C	0.611499	0.425842	-0.425662
C46	C	1.111499	0.925842	0.074338
C47	C	0.578625	0.377515	-0.377477
C48	C	1.078625	0.877515	0.122523
C49	C	0.619014	0.332250	-0.332346
C50	C	1.119014	0.832250	0.167654
C51	C	0.692271	0.335317	-0.335402
C52	C	1.192271	0.835317	0.164598
C53	C	0.359931	0.363323	-0.363339
C54	C	0.859931	0.863323	0.136661
C55	C	0.286668	0.360262	-0.360285
C56	C	0.786668	0.860262	0.139715
C57	C	0.279158	0.453853	-0.453602
C58	C	0.779158	0.953853	0.046398
C59	C	0.352418	0.456918	-0.456651
C60	C	0.852418	0.956918	0.043349
C61	C	0.392800	0.411651	-0.411522
C62	C	0.892800	0.911651	0.088478
N63	N	0.503743	0.374378	-0.374355
N64	N	1.003743	0.874378	0.125645
N65	N	0.467681	0.414785	-0.414648
N66	N	0.967681	0.914785	0.085352
C67	C	1.019648	0.692509	-0.362840
C68	C	1.519648	1.192509	0.137160
C69	C	1.016607	0.766007	-0.365688
C70	C	1.516607	1.266007	0.134312
C71	C	0.968322	0.802612	-0.410197
C72	C	1.468322	1.302612	0.089803
C73	C	0.923079	0.765717	-0.451866
C74	C	1.423079	1.265717	0.048134
C75	C	0.926123	0.692221	-0.449021
C76	C	1.426123	1.192221	0.050979
C77	C	0.954205	1.022407	-0.423328
C78	C	1.454205	1.522407	0.076672
C79	C	0.951163	1.095908	-0.426168
C80	C	1.451163	1.595908	0.073832
C81	C	1.044693	1.096193	-0.339990
C82	C	1.544693	1.596193	0.160010
C83	C	1.047730	1.022695	-0.337147
C84	C	1.547730	1.522695	0.162853
C85	C	1.002489	0.985806	-0.378818
C86	C	1.502489	1.485806	0.121182
N87	N	0.965211	0.877739	-0.413107
N88	N	1.465211	1.377739	0.086893
N89	N	1.005604	0.910682	-0.375911
N90	N	1.505604	1.410682	0.124089
C91	C	1.168318	0.402247	-0.402146
C92	C	1.668318	0.902247	0.097854
C93	C	1.246284	0.405522	-0.405414
C94	C	1.746284	0.905522	0.094586
C95	C	0.977735	0.401585	-0.578026
C96	C	1.477735	0.901585	-0.078026
C97	C	0.974487	0.404578	-0.656244
C98	C	1.474487	0.904578	-0.156244
C99	C	0.993114	1.211015	-0.387468
C100	C	1.493114	1.711015	0.112532
C101	C	0.996404	1.132798	-0.384504
C102	C	1.496404	1.632798	0.115496
C103	C	1.019721	0.362866	-0.693152
C104	C	1.519721	0.862866	-0.193152
C105	C	1.016660	0.365675	-0.766646
C106	C	1.516660	0.865675	-0.266646
C107	C	0.968368	0.410200	-0.803231
C108	C	1.468368	0.910200	-0.303231
C109	C	0.923129	0.451913	-0.766317
C110	C	1.423129	0.951913	-0.266317
C111	C	0.926187	0.449100	-0.692824
C112	C	1.426187	0.949100	-0.192824
C113	C	0.954205	0.423233	-1.023013
C114	C	1.454205	0.923233	-0.523013
C115	C	0.951152	0.426044	-1.096511
C116	C	1.451152	0.926044	-0.596511
C117	C	1.044683	0.339806	-1.096835
C118	C	1.544683	0.839806	-0.596835
C119	C	1.047739	0.337000	-1.023341
C120	C	1.547739	0.837000	-0.523341
C121	C	1.002498	0.378710	-0.986434
C122	C	1.502498	0.878710	-0.486434
N123	N	0.965240	0.413074	-0.878353
N124	N	1.465240	0.913074	-0.378353
N125	N	1.005623	0.375832	-0.911312
N126	N	1.505623	0.875832	-0.411312
C127	C	0.992994	0.387518	-0.211639
C128	C	1.492994	0.887518	0.288361
C129	C	0.996386	0.384333	-0.133419
C130	C	1.496386	0.884333	0.366581
H131	H	0.711519	0.468267	-0.467949
H132	H	1.211519	0.968267	0.032051
O133	O	0.587048	0.285399	-0.285470
O134	O	1.087048	0.785399	0.214530
C135	C	0.544853	0.321875	-0.239727
C136	C	1.044853	0.821875	0.260273
H137	H	0.564778	0.378045	-0.238329
H138	H	1.064778	0.878045	0.261671
H139	H	0.488331	0.322844	-0.259262
H140	H	0.988331	0.822844	0.240738
C141	C	0.523727	0.215541	-0.166978
C142	C	1.023727	0.715541	0.333022
C143	C	0.548203	0.284530	-0.165256
C144	C	1.048203	0.784530	0.334744
H145	H	0.525790	0.192504	-0.121041
H146	H	1.025790	0.692504	0.378959
H147	H	0.552152	0.190966	-0.197797
H148	H	1.052152	0.690966	0.302203
H149	H	0.476627	0.216359	-0.183260
H150	H	0.976627	0.716359	0.316740
H151	H	0.595305	0.283711	-0.148983
H152	H	1.095305	0.783711	0.351017
H153	H	0.519786	0.309104	-0.134432
H154	H	1.019786	0.809104	0.365568
O155	O	1.066586	0.656882	-0.319699
O156	O	1.566586	1.156882	0.180301
C157	C	1.111969	0.617760	-0.360051
C158	C	1.611969	1.117760	0.139949
H159	H	1.085428	0.607744	-0.411895
H160	H	1.585428	1.107744	0.088105
H161	H	1.162450	0.648517	-0.371100
H162	H	1.662450	1.148517	0.128900
C163	C	1.161799	0.559310	-0.255496
C164	C	1.661799	1.059310	0.244504
C165	C	1.129200	0.547003	-0.319169
C166	C	1.629200	1.047003	0.180831
H167	H	1.172431	0.515664	-0.230278
H168	H	1.672431	1.015664	0.269722
H169	H	1.131226	0.585668	-0.228309
H170	H	1.631226	1.085668	0.271691
H171	H	1.203863	0.584942	-0.264713
H172	H	1.703863	1.084942	0.235287
H173	H	1.087132	0.521379	-0.309952
H174	H	1.587132	1.021379	0.190048
H175	H	1.159766	0.520638	-0.346354
H176	H	1.659766	1.020638	0.153646
H177	H	1.081515	0.305847	-1.126893
H178	H	1.581515	0.805847	-0.626893
H179	H	0.259904	0.320900	-0.321051
H180	H	0.759904	0.820900	0.178949
H181	H	0.883767	0.795527	-0.488109
H182	H	1.383767	1.295527	0.011891
H183	H	1.087048	0.992892	-0.300904
H184	H	1.587048	1.492892	0.199096
H185	H	0.911851	1.125711	-0.462425
H186	H	1.411851	1.625711	0.037575
O187	O	1.088571	1.131991	-0.299415
O188	O	1.588571	1.631991	0.200585
C189	C	1.076971	1.110742	-0.227931
C190	C	1.576971	1.610742	0.272069
H191	H	1.021921	1.088098	-0.221198
H192	H	1.521921	1.588098	0.278802
H193	H	1.117125	1.068933	-0.209494
H194	H	1.617125	1.568933	0.290506
C195	C	1.152035	1.202404	-0.192117
C196	C	1.652035	1.702404	0.307883
C197	C	1.084419	1.174599	-0.183847
C198	C	1.584419	1.674599	0.316153
H199	H	1.156632	1.241793	-0.164922
H200	H	1.656632	1.741793	0.335078
H201	H	1.159853	1.216719	-0.240277
H202	H	1.659853	1.716719	0.259723
H203	H	1.185489	1.167557	-0.176753
H204	H	1.685489	1.667557	0.323247
H205	H	1.050967	1.209443	-0.199219
H206	H	1.550967	1.709443	0.300781
H207	H	1.076596	1.160291	-0.135688
H208	H	1.576596	1.660291	0.364312
H209	H	0.917367	0.992378	-0.457257
H210	H	1.417367	1.492378	0.042743
H211	H	1.087066	0.300745	-0.993559
H212	H	1.587066	0.800745	-0.493559
H213	H	0.889284	0.662186	-0.482950
H214	H	1.389284	1.162186	0.017050
H215	H	0.392802	0.326468	-0.326587
H216	H	0.892802	0.826468	0.173413
H217	H	1.059047	0.326612	-0.663371
H218	H	1.559047	0.826612	-0.163371
O219	O	1.060675	0.325136	-0.802392
O220	O	1.560675	0.825136	-0.302392
C221	C	1.103946	0.285226	-0.754342
C222	C	1.603946	0.785226	-0.254342
H223	H	1.107332	0.312148	-0.703158
H224	H	1.607332	0.812148	-0.203158
H225	H	1.080849	0.230401	-0.743403
H226	H	1.580849	0.730401	-0.243403
C227	C	1.173678	0.246256	-0.848637
C228	C	1.673678	0.746256	-0.348637
C229	C	1.177842	0.279326	-0.785774
C230	C	1.677842	0.779326	-0.285774
H231	H	1.219260	0.242614	-0.868026
H232	H	1.719260	0.742614	-0.368026
H233	H	1.144524	0.273142	-0.881010
H234	H	1.644524	0.773142	-0.381010
H235	H	1.154428	0.200572	-0.839513
H236	H	1.654428	0.700572	-0.339513
H237	H	1.197083	0.325013	-0.794901
H238	H	1.697083	0.825013	-0.294901
H239	H	1.207001	0.252448	-0.753403
H240	H	1.707001	0.752448	-0.253403
H241	H	0.917376	0.457207	-0.992973
H242	H	1.417376	0.957207	-0.492973
O243	O	0.731397	0.291325	-0.291488
O244	O	1.231397	0.791325	0.208512
C245	C	0.686675	0.248003	-0.248313
C246	C	1.186675	0.748003	0.251687
H247	H	0.633341	0.274541	-0.244757
H248	H	1.133341	0.774541	0.255243
H249	H	0.680068	0.195259	-0.271797
H250	H	1.180068	0.695259	0.228203
C251	C	0.784298	0.203484	-0.178599
C252	C	1.284298	0.703484	0.321401
C253	C	0.718794	0.236081	-0.174227
C254	C	1.218794	0.736081	0.325773
H255	H	0.804111	0.196127	-0.132900
H256	H	1.304111	0.696127	0.367100
H257	H	0.814429	0.232669	-0.207688
H258	H	1.314429	0.732669	0.292312
H259	H	0.778783	0.159534	-0.198172
H260	H	1.278783	0.659534	0.301828
H261	H	0.724310	0.280033	-0.154662
H262	H	1.224310	0.780033	0.345338
H263	H	0.688664	0.206903	-0.145132
H264	H	1.188664	0.706903	0.354868
O265	O	1.060582	0.801731	-0.325143
O266	O	1.560582	1.301731	0.174857
C267	C	1.103860	0.753663	-0.285258
C268	C	1.603860	1.253663	0.214742
H269	H	1.077400	0.700000	-0.279569
H270	H	1.577400	1.200000	0.220431
H271	H	1.156370	0.749010	-0.312995
H272	H	1.656370	1.249010	0.187005
C273	C	1.148447	0.845843	-0.218894
C274	C	1.648447	1.345843	0.281106
C275	C	1.115945	0.779934	-0.211901
C276	C	1.615945	1.279934	0.288099
H277	H	1.155905	0.862049	-0.173645
H278	H	1.655905	1.362049	0.326355
H279	H	1.119292	0.878228	-0.245767
H280	H	1.619292	1.378228	0.254233
H281	H	1.192201	0.841956	-0.242011
H282	H	1.692201	1.341956	0.257989
H283	H	1.072188	0.783823	-0.188793
H284	H	1.572188	1.283823	0.311207
H285	H	1.145094	0.747550	-0.185023
H286	H	1.645094	1.247550	0.314977
O287	O	0.904175	0.469312	-1.131940
O288	O	1.404175	0.969312	-0.631940
C289	C	0.864910	0.505537	-1.083607
C290	C	1.364910	1.005537	-0.583607
H291	H	0.865875	0.474607	-1.030015
H292	H	1.365875	0.974607	-0.530015
H293	H	0.888659	0.559763	-1.078909
H294	H	1.388659	1.059763	-0.578909
C295	C	0.787449	0.551627	-1.175372
C296	C	1.287449	1.051627	-0.675372
C297	C	0.788630	0.513635	-1.109551
C298	C	1.288630	1.013635	-0.609551
H299	H	0.740397	0.556626	-1.191377
H300	H	1.240397	1.056626	-0.691377
H301	H	0.813904	0.527225	-1.207936
H302	H	1.313904	1.027225	-0.707936
H303	H	0.807243	0.596812	-1.171449
H304	H	1.307243	1.096812	-0.671449
H305	H	0.768844	0.468449	-1.113477
H306	H	1.268844	0.968449	-0.613477
H307	H	0.762170	0.538031	-1.076989
H308	H	1.262170	1.038031	-0.576989
H309	H	0.889345	0.483058	-0.662774
H310	H	1.389345	0.983058	-0.162774
O311	O	0.572376	0.469888	-0.469522
O312	O	1.072376	0.969888	0.030478
C313	C	0.617100	0.513194	-0.512711
C314	C	1.117100	1.013194	-0.012711
H315	H	0.670413	0.516659	-0.486153
H316	H	1.170413	1.016659	0.013847
H317	H	0.623760	0.489893	-0.565547
H318	H	1.123760	0.989893	-0.065547
C319	C	0.519463	0.583041	-0.557010
C320	C	1.019463	1.083041	-0.057010
C321	C	0.584940	0.587301	-0.524388
C322	C	1.084940	1.087301	-0.024388
H323	H	0.499624	0.628753	-0.564216
H324	H	0.999624	1.128753	-0.064216
H325	H	0.489330	0.553864	-0.527915
H326	H	0.989330	1.053864	-0.027915
H327	H	0.525022	0.563621	-0.601036
H328	H	1.025022	1.063621	-0.101036
H329	H	0.579379	0.606713	-0.480359
H330	H	1.079379	1.106713	0.019641
H331	H	0.615071	0.616484	-0.553476
H332	H	1.115071	1.116484	-0.053476
O333	O	0.384314	0.503790	-0.503558
O334	O	0.884314	1.003790	-0.003558
C335	C	0.364141	0.490466	-0.572388
C336	C	0.864141	0.990466	-0.072388
H337	H	0.346225	0.433550	-0.573039
H338	H	0.846225	0.933550	-0.073039
H339	H	0.319267	0.527143	-0.590392
H340	H	0.819267	1.027143	-0.090392
C341	C	0.448933	0.573159	-0.621573
C342	C	0.948933	1.073159	-0.121573
C343	C	0.426933	0.503251	-0.622374
C344	C	0.926933	1.003251	-0.122374
H345	H	0.487664	0.581049	-0.652408
H346	H	0.987664	1.081049	-0.152408
H347	H	0.462522	0.582138	-0.575201
H348	H	0.962522	1.082138	-0.075201
H349	H	0.411531	0.603715	-0.636575
H350	H	0.911531	1.103715	-0.136575
H351	H	0.464331	0.472697	-0.607364
H352	H	0.964331	0.972697	-0.107364
H353	H	0.413352	0.494268	-0.668744
H354	H	0.913352	0.994268	-0.168744
O355	O	0.239826	0.497748	-0.497412
O356	O	0.739826	0.997748	0.002588
C357	C	0.168117	0.484693	-0.484374
C358	C	0.668117	0.984693	0.015626
H359	H	0.161350	0.429053	-0.458914
H360	H	0.661350	0.929053	0.041086
H361	H	0.147122	0.524071	-0.447563
H362	H	0.647122	1.024071	0.052437
C363	C	0.135602	0.560739	-0.585521
C364	C	0.635602	1.060739	-0.085521
C365	C	0.127289	0.492399	-0.554256
C366	C	0.627289	0.992399	-0.054256
H367	H	0.110416	0.565495	-0.628626
H368	H	0.610416	1.065495	-0.128626
H369	H	0.183913	0.569536	-0.594304
H370	H	0.683913	1.069536	-0.094304
H371	H	0.118106	0.593546	-0.554838
H372	H	0.618106	1.093546	-0.054838
H373	H	0.144793	0.459594	-0.584935
H374	H	0.644793	0.959594	-0.084935
H375	H	0.078980	0.483596	-0.545479
H376	H	0.578980	0.983596	-0.045479
O377	O	0.876279	0.495147	-0.801963
O378	O	1.376279	0.995147	-0.301963
C379	C	0.883267	0.488675	-0.874744
C380	C	1.383267	0.988675	-0.374744
H381	H	0.937958	0.468288	-0.886175
H382	H	1.437958	0.968288	-0.386175
H383	H	0.842379	0.450250	-0.892421
H384	H	1.342379	0.950250	-0.392421
C385	C	0.805083	0.586090	-0.900886
C386	C	1.305083	1.086090	-0.400886
C387	C	0.872258	0.561056	-0.914927
C388	C	1.372258	1.061056	-0.414927
H389	H	0.798289	0.630736	-0.925674
H390	H	1.298289	1.130736	-0.425674
H391	H	0.800372	0.590449	-0.851853
H392	H	1.300372	1.090449	-0.351853
H393	H	0.771017	0.554062	-0.915618
H394	H	1.271017	1.054062	-0.415618
H395	H	0.906322	0.593078	-0.900187
H396	H	1.406322	1.093078	-0.400187
H397	H	0.876974	0.556704	-0.963959
H398	H	1.376974	1.056704	-0.463959
