data_functionalizedCrystal
_audit_creation_method	'MofGen! by Chris Wilmer'
_symmetry_space_group_name_H-M	'P1'
_symmetry_Int_Tables_number	1
_symmetry_cell_setting	triclinic
loop_
_symmetry_equiv_pos_as_xyz
  x,y,z
_cell_length_a	14.853567
_cell_length_b	9.065215
_cell_length_c	8.140239
_cell_angle_alpha	90.000939
_cell_angle_beta	89.999353
_cell_angle_gamma	84.324814
loop_
_atom_site_label
_atom_site_type_symbol
_atom_site_fract_x
_atom_site_fract_y
_atom_site_fract_z
O1	O	0.132178	1.957778	0.136579
O2	O	0.143024	1.528278	0.136585
O3	O	0.006456	1.754500	0.136587
O4	O	0.268746	1.731555	0.136577
O5	O	0.006455	1.754493	-0.136641
O6	O	0.143023	1.528270	-0.136642
O7	O	0.132177	1.957771	-0.136648
Zn8	Zn	0.137600	1.743019	-0.180026
Zn9	Zn	0.137601	1.743029	0.179962
O10	O	0.268745	1.731548	-0.136650
C11	C	0.141982	1.473308	-0.000028
C12	C	0.138867	1.309527	-0.000025
C13	C	-0.027141	1.753457	-0.000022
C14	C	-0.127248	1.750342	-0.000008
C15	C	-0.540872	1.602790	-0.000037
C16	C	-0.560166	1.871548	-0.000041
C17	C	-0.466111	1.874478	-0.000031
C18	C	-0.409432	1.741561	-0.000027
C19	C	-0.446808	1.605716	-0.000032
C20	C	-0.428727	2.010321	-0.000042
C21	C	-0.334666	2.013256	-0.000035
C22	C	-0.277986	1.880338	-0.000019
C23	C	-0.315367	1.744487	-0.000022
C24	C	-0.258688	1.611571	-0.000018
C25	C	-0.296068	1.475718	-0.000010
C26	C	-0.390127	1.472798	-0.000016
C27	C	-0.183927	1.883258	-0.000012
C28	C	-0.164624	1.614496	-0.000013
C29	C	0.302342	1.732591	-0.000038
C30	C	0.402449	1.735707	-0.000041
C31	C	0.133219	2.012740	-0.000032
C32	C	0.136334	2.176522	-0.000024
N33	N	0.137599	1.743024	-0.425709
N34	N	0.137596	1.743036	0.425645
H35	H	-0.249908	1.367498	-0.000018
N36	N	-0.430441	1.326281	-0.000034
H37	H	-0.409862	1.268038	0.101252
H38	H	-0.498619	1.344721	-0.000111
N39	N	-0.489867	2.153660	-0.000043
H40	H	-0.477720	2.212926	0.101239
H41	H	-0.477697	2.212801	-0.101399
N42	N	-0.143611	2.029767	-0.000037
H43	H	-0.075424	2.011454	-0.000036
H44	H	-0.164265	2.087911	-0.101341
H45	H	-0.304240	2.123875	-0.000039
N46	N	-0.581181	1.456269	-0.000020
H47	H	-0.649367	1.474575	-0.000019
H48	H	-0.560525	1.398097	-0.101308
N49	N	-0.103493	1.471134	0.000005
H50	H	-0.141448	1.384637	0.000011
H51	H	-0.064047	1.466485	-0.101284
H52	H	-0.606319	1.979762	-0.000057
