data_functionalizedCrystal
_audit_creation_method	'MofGen! by Chris Wilmer'
_symmetry_space_group_name_H-M	'P1'
_symmetry_Int_Tables_number	1
_symmetry_cell_setting	triclinic
loop_
_symmetry_equiv_pos_as_xyz
  x,y,z
_cell_length_a	18.266242
_cell_length_b	16.109301
_cell_length_c	16.109301
_cell_angle_alpha	83.461481
_cell_angle_beta	89.992231
_cell_angle_gamma	89.993683
loop_
_atom_site_label
_atom_site_type_symbol
_atom_site_fract_x
_atom_site_fract_y
_atom_site_fract_z
O1	O	0.060837	-1.103137	-0.106868
O2	O	0.060849	-0.861075	-0.120168
O3	O	0.060835	-0.988756	0.007513
O4	O	0.060851	-0.975457	-0.234549
O5	O	-0.060927	-0.988734	0.007519
O6	O	-0.060913	-0.861054	-0.120161
O7	O	-0.060925	-1.103116	-0.106862
Zn8	Zn	-0.080251	-0.982081	-0.113510
Zn9	Zn	0.080175	-0.982110	-0.113519
O10	O	-0.060911	-0.975435	-0.234543
C11	C	-0.000031	-0.830090	-0.119626
C12	C	-0.000026	-0.737794	-0.118011
N13	N	-0.189738	-0.982068	-0.113504
C14	C	-0.000046	-0.988206	0.038491
C15	C	-0.000047	-0.986591	0.130786
C16	C	-0.228053	-1.038623	-0.056995
C17	C	-0.304698	-1.038629	-0.056991
C18	C	-0.343025	-0.982086	-0.113511
C19	C	-0.304701	-0.925520	-0.170024
C20	C	-0.228058	-0.925511	-0.170021
N21	N	-0.463353	-0.971484	-0.187080
N22	N	-0.536161	-0.971498	-0.187081
C23	C	-0.573948	-0.982110	-0.113523
N24	N	-0.536176	-0.992723	-0.039962
N25	N	-0.463361	-0.992714	-0.039962
C26	C	-0.426132	-0.982090	-0.113520
C27	C	-0.695370	-1.038674	-0.057005
C28	C	-0.772016	-1.038673	-0.057000
C29	C	-0.772017	-0.925569	-0.170040
C30	C	-0.695373	-0.925565	-0.170038
C31	C	-0.657053	-0.982122	-0.113521
N32	N	0.189662	-0.982130	-0.113519
C33	C	-0.000044	-1.134101	-0.107404
C34	C	-0.000043	-1.226397	-0.109019
C35	C	-0.000030	-0.515522	-0.190018
C36	C	-0.000035	-0.428801	-0.188494
C37	C	-0.000042	-0.448676	-0.037006
C38	C	-0.000042	-0.535394	-0.038530
C39	C	-0.000033	-0.568815	-0.115039
C40	C	-0.000037	-0.395376	-0.111990
C41	C	-0.000042	-0.301350	-0.110337
C42	C	-0.000029	-0.662847	-0.116693
C43	C	-0.000028	-0.975984	-0.265521
C44	C	-0.000023	-0.977600	-0.357816
C45	C	-0.000039	-1.058599	0.353059
C46	C	-0.000033	-1.057075	0.439779
C47	C	-0.000028	-0.905586	0.419905
C48	C	-0.000029	-0.907111	0.333186
C49	C	-0.000038	-0.983620	0.299766
C50	C	-0.000031	-0.980571	0.473205
C51	C	-0.000025	-0.978918	0.567231
C52	C	-0.000044	-0.985273	0.205734
H53	H	-0.196856	-1.084673	-0.010974
H54	H	-0.335900	-1.084684	-0.010973
Cl55	Cl	-0.179887	-0.854408	-0.241068
H56	H	-0.000028	-0.542730	-0.252317
H57	H	-0.000032	-1.118130	0.483168
H58	H	-0.000026	-0.846050	0.289792
Cl59	Cl	-0.000033	-0.361807	-0.282758
H60	H	-0.000022	-0.843295	0.447127
H61	H	-0.335911	-0.879481	-0.216042
H62	H	-0.803213	-1.084725	-0.010979
H63	H	-0.000054	-0.421454	0.025285
Cl64	Cl	-0.820195	-0.854481	-0.241087
H65	H	-0.664169	-1.084724	-0.010983
H66	H	-0.664174	-0.879516	-0.216056
H67	H	-0.000046	-0.578788	0.022530
H68	H	-0.000045	-1.120897	0.325851
