data_functionalizedCrystal
_audit_creation_method	'MofGen! by Chris Wilmer'
_symmetry_space_group_name_H-M	'P1'
_symmetry_Int_Tables_number	1
_symmetry_cell_setting	triclinic
loop_
_symmetry_equiv_pos_as_xyz
  x,y,z
_cell_length_a	16.109301
_cell_length_b	9.730223
_cell_length_c	10.654558
_cell_angle_alpha	90.000910
_cell_angle_beta	96.025147
_cell_angle_gamma	90.000099
loop_
_atom_site_label
_atom_site_type_symbol
_atom_site_fract_x
_atom_site_fract_y
_atom_site_fract_z
O1	O	1.104093	0.114200	-0.161412
O2	O	0.862151	0.114222	-0.181500
O3	O	0.988681	0.114204	0.011358
O4	O	0.977563	0.114217	-0.354270
O5	O	0.988673	-0.114375	0.011348
O6	O	0.862143	-0.114358	-0.181511
O7	O	1.104085	-0.114380	-0.161422
Zn8	Zn	0.983113	-0.150661	-0.171468
Zn9	Zn	0.983123	0.150503	-0.171454
O10	O	0.977555	-0.114363	-0.354280
C11	C	0.831167	-0.000066	-0.180691
C12	C	0.738857	-0.000057	-0.178252
C13	C	0.517234	-0.000070	-0.287018
C14	C	0.430500	-0.000078	-0.284715
C15	C	0.449009	-0.000081	-0.055896
C16	C	0.535742	-0.000082	-0.058199
C17	C	0.569851	-0.000069	-0.173764
C18	C	0.396385	-0.000077	-0.169158
C19	C	0.302344	-0.000087	-0.166661
C20	C	0.663898	-0.000062	-0.176261
N21	N	0.983111	-0.356197	-0.171477
C22	C	1.033973	-0.428139	-0.247661
C23	C	1.033986	-0.572022	-0.247638
C24	C	0.932267	-0.572010	-0.095242
C25	C	0.932260	-0.428129	-0.095260
C26	C	1.084825	-0.356207	-0.323878
C27	C	1.135690	-0.428148	-0.400070
C28	C	1.135702	-0.572031	-0.400046
C29	C	1.084850	-0.643973	-0.323831
C30	C	1.135069	-0.000090	-0.162231
C31	C	1.227379	-0.000089	-0.164670
C32	C	0.987860	-0.000084	0.058140
C33	C	0.985413	-0.000080	0.197549
N34	N	0.983131	0.356039	-0.171435
C35	C	0.978377	-0.000071	-0.401062
C36	C	0.980823	-0.000067	-0.540471
C37	C	0.984257	-0.124676	0.263041
C38	C	0.981965	-0.124671	0.394033
C39	C	0.981982	0.124540	0.394028
C40	C	0.984279	0.124533	0.263040
C41	C	0.985391	-0.249289	0.197550
C42	C	0.984234	-0.373895	0.263042
C43	C	0.981942	-0.373890	0.394034
C44	C	0.980807	-0.249277	0.459533
H45	H	1.177097	-0.369564	-0.462114
O46	O	0.985219	-0.495021	0.199532
C47	C	0.912763	-0.570787	0.217275
H48	H	0.887144	-0.535352	0.307638
H49	H	0.928837	-0.684782	0.224951
H50	H	0.863721	-0.553495	0.133584
H51	H	0.978948	-0.249282	0.566197
O52	O	0.981006	0.245623	0.457608
C53	C	1.053429	0.321458	0.439831
H54	H	1.104311	0.248561	0.413808
H55	H	1.076028	0.378003	0.530751
H56	H	1.038512	0.399131	0.360560
O57	O	0.985569	0.245538	0.199406
C58	C	1.058778	0.252938	0.137888
H59	H	1.108299	0.182188	0.187324
H60	H	1.082960	0.363126	0.141212
H61	H	1.044274	0.219487	0.035385
H62	H	0.981008	-0.475350	0.447355
H63	H	0.387661	-0.000082	-0.376938
H64	H	0.421226	-0.000099	0.038193
O65	O	0.586741	-0.000019	0.051939
C66	C	0.538039	-0.000052	0.154433
H67	H	0.473500	0.043227	0.122542
H68	H	0.569576	0.066308	0.233783
H69	H	0.531660	-0.109714	0.189853
H70	H	1.084818	-0.239050	-0.323909
H71	H	0.545003	-0.000070	-0.381118
H72	H	1.177125	-0.630602	-0.462076
H73	H	1.084872	-0.761132	-0.323805
H74	H	0.890842	-0.369553	-0.033226
H75	H	0.890864	-0.630596	-0.033193
O76	O	0.987729	-0.249121	0.070329
C77	C	1.060389	-0.180823	0.040809
H78	H	1.083041	-0.108071	0.121043
H79	H	1.045762	-0.119565	-0.050027
H80	H	1.111119	-0.259604	0.027538
