data_functionalizedCrystal
_audit_creation_method	'MofGen! by Chris Wilmer'
_symmetry_space_group_name_H-M	'P1'
_symmetry_Int_Tables_number	1
_symmetry_cell_setting	triclinic
loop_
_symmetry_equiv_pos_as_xyz
  x,y,z
_cell_length_a	19.188930
_cell_length_b	19.188930
_cell_length_c	18.266242
_cell_angle_alpha	89.988525
_cell_angle_beta	89.977082
_cell_angle_gamma	83.144779
loop_
_atom_site_label
_atom_site_type_symbol
_atom_site_fract_x
_atom_site_fract_y
_atom_site_fract_z
O1	O	0.926149	0.087169	-0.061124
O2	O	1.426149	0.587169	0.438876
O3	O	0.722838	0.098903	-0.061075
O4	O	1.222838	0.598903	0.438925
O5	O	0.830361	-0.008620	-0.061087
O6	O	1.330361	0.491380	0.438913
O7	O	0.818627	0.194691	-0.061113
O8	O	1.318627	0.694691	0.438887
O9	O	0.830343	-0.008625	0.060675
O10	O	1.330343	0.491375	0.560675
O11	O	0.722820	0.098897	0.060687
O12	O	1.222820	0.598897	0.560687
O13	O	0.926131	0.087163	0.060638
O14	O	1.426131	0.587163	0.560638
Zn15	Zn	0.824473	0.093029	0.079994
Zn16	Zn	1.324473	0.593029	0.579994
Zn17	Zn	0.824497	0.093037	-0.080432
Zn18	Zn	1.324497	0.593037	0.419568
O19	O	0.818608	0.194686	0.060649
O20	O	1.318608	0.694686	0.560649
C21	C	0.696818	0.098520	-0.000188
C22	C	1.196818	0.598520	0.499812
C23	C	0.619313	0.097380	-0.000169
C24	C	1.119313	0.597380	0.499831
C25	C	0.574389	0.160470	-0.000188
C26	C	1.074389	0.660470	0.499812
C27	C	0.501566	0.159399	-0.000196
C28	C	1.001566	0.659399	0.499804
C29	C	0.473669	0.095233	-0.000199
C30	C	0.973669	0.595233	0.499801
C31	C	0.518603	0.032133	-0.000175
C32	C	1.018603	0.532133	0.499825
C33	C	0.591425	0.033207	-0.000160
C34	C	1.091425	0.533207	0.499840
N35	N	0.365695	0.046188	-0.041663
N36	N	0.865695	0.546188	0.458337
N37	N	0.296516	0.045172	-0.041679
N38	N	0.796516	0.545172	0.458321
C39	C	0.254260	0.091994	-0.000243
C40	C	0.754260	0.591994	0.499757
N41	N	0.283795	0.139881	0.041200
N42	N	0.783795	0.639881	0.541200
N43	N	0.352980	0.140899	0.041213
N44	N	0.852980	0.640899	0.541213
C45	C	0.394707	0.094062	-0.000215
C46	C	0.894707	0.594062	0.499785
C47	C	0.130372	0.153928	-0.000270
C48	C	0.630372	0.653928	0.499730
C49	C	0.057547	0.152853	-0.000274
C50	C	0.557547	0.652853	0.499726
C51	C	0.074586	0.025586	-0.000261
C52	C	0.574586	0.525586	0.499739
C53	C	0.147409	0.026662	-0.000250
C54	C	0.647409	0.526662	0.499750
C55	C	0.175298	0.090835	-0.000258
C56	C	0.675298	0.590835	0.499742
C57	C	0.829972	-0.034634	-0.000204
C58	C	1.329972	0.465366	0.499796
C59	C	0.828831	-0.112138	-0.000197
C60	C	1.328831	0.387862	0.499803
C61	C	0.891922	-0.157062	-0.000209
C62	C	1.391922	0.342938	0.499791
C63	C	0.890850	-0.229886	-0.000220
C64	C	1.390850	0.270114	0.499780
C65	C	0.826684	-0.257782	-0.000206
C66	C	1.326684	0.242218	0.499794
C67	C	0.763585	-0.212849	-0.000198
C68	C	1.263585	0.287151	0.499802
C69	C	0.764658	-0.140026	-0.000194
C70	C	1.264658	0.359974	0.499806
N71	N	0.777631	-0.365789	0.041244
N72	N	1.277631	0.134211	0.541244
N73	N	0.776615	-0.434968	0.041242
N74	N	1.276615	0.065032	0.541242
C75	C	0.823446	-0.477191	-0.000220
C76	C	1.323446	0.022809	0.499780
N77	N	0.871341	-0.447624	-0.041669
N78	N	1.371341	0.052376	0.458331
N79	N	0.872359	-0.378439	-0.041664
N80	N	1.372359	0.121561	0.458336
C81	C	0.825513	-0.336745	-0.000210
C82	C	1.325513	0.163255	0.499790
C83	C	0.885379	-0.601079	-0.000245
C84	C	1.385379	-0.101079	0.499755
C85	C	0.884305	-0.673904	-0.000261
C86	C	1.384305	-0.173904	0.499739
C87	C	0.757038	-0.656865	-0.000231
C88	C	1.257038	-0.156865	0.499769
C89	C	0.758114	-0.584042	-0.000222
C90	C	1.258114	-0.084042	0.499778
C91	C	0.822287	-0.556154	-0.000226
C92	C	1.322287	-0.056154	0.499774
C93	C	0.952151	0.087546	-0.000252
C94	C	1.452151	0.587546	0.499748
C95	C	1.029656	0.088687	-0.000276
C96	C	1.529656	0.588687	0.499724
C97	C	0.818997	0.220700	-0.000236
C98	C	1.318997	0.720700	0.499764
C99	C	0.820138	0.298204	-0.000247
C100	C	1.320138	0.798204	0.499753
N101	N	0.824461	0.093024	0.189481
N102	N	1.324461	0.593024	0.689481
N103	N	0.824513	0.093037	-0.189919
N104	N	1.324513	0.593037	0.310081
C105	C	0.872088	0.045436	0.227785
C106	C	1.372088	0.545436	0.727785
C107	C	0.872092	0.045433	0.304430
C108	C	1.372092	0.545433	0.804430
C109	C	0.824477	0.093030	0.342768
C110	C	1.324477	0.593030	0.842768
C111	C	0.776841	0.140621	0.304455
C112	C	1.276841	0.640621	0.804455
C113	C	0.776834	0.140618	0.227812
C114	C	1.276834	0.640618	0.727812
N115	N	0.815401	0.154837	0.463094
N116	N	1.315401	0.654837	0.963094
N117	N	0.815413	0.154838	0.535902
N118	N	1.315413	0.654838	1.035902
C119	C	0.824496	0.093040	0.573691
C120	C	1.324496	0.593040	1.073691
N121	N	0.833582	0.031239	0.535920
N122	N	1.333582	0.531239	1.035920
N123	N	0.833574	0.031240	0.463106
N124	N	1.333574	0.531240	0.963106
C125	C	0.824480	0.093038	0.425875
C126	C	1.324480	0.593038	0.925875
C127	C	0.872131	0.045444	0.695101
C128	C	1.372131	0.545444	1.195101
C129	C	0.872130	0.045440	0.771748
C130	C	1.372130	0.545440	1.271748
C131	C	0.776882	0.140634	0.771772
C132	C	1.276882	0.640634	1.271772
C133	C	0.776879	0.140632	0.695127
C134	C	1.276879	0.640632	1.195127
C135	C	0.824507	0.093038	0.656796
C136	C	1.324507	0.593038	1.156796
H137	H	0.020970	0.204232	-0.000285
H138	H	0.520970	0.704232	0.499715
H139	H	0.711340	-0.235567	-0.000187
H140	H	1.211340	0.264433	0.499813
O141	O	0.491624	-0.030259	-0.000150
O142	O	0.991624	0.469741	0.499850
C143	C	0.546895	-0.085717	-0.000150
C144	C	1.046895	0.414283	0.499850
H145	H	0.596294	-0.066299	0.022915
H146	H	1.096294	0.433701	0.522915
H147	H	0.557295	-0.105164	-0.058561
H148	H	1.057295	0.394836	0.441439
C149	C	0.465820	-0.170106	0.019271
C150	C	0.965820	0.329894	0.519271
C151	C	0.526491	-0.146258	0.047605
C152	C	1.026491	0.353742	0.547605
H153	H	0.453233	-0.207452	0.048726
H154	H	0.953233	0.292548	0.548726
H155	H	0.428582	-0.132743	0.019269
H156	H	0.928582	0.367257	0.519269
H157	H	0.474494	-0.186307	-0.029404
H158	H	0.974494	0.313693	0.470596
H159	H	0.517813	-0.130049	0.096276
H160	H	1.017813	0.369951	0.596276
H161	H	0.563727	-0.183619	0.047617
H162	H	1.063727	0.316381	0.547617
O163	O	0.157352	0.216323	-0.000238
O164	O	0.657352	0.716323	0.499762
C165	C	0.102081	0.271781	-0.000268
C166	C	0.602081	0.771781	0.499732
H167	H	0.052656	0.252360	0.022778
H168	H	0.552656	0.752360	0.522778
H169	H	0.091746	0.291236	-0.058686
H170	H	0.591746	0.791236	0.441314
C171	C	0.183134	0.356167	0.019176
C172	C	0.683134	0.856167	0.519176
C173	C	0.122431	0.332315	0.047487
C174	C	0.622431	0.832315	0.547487
H175	H	0.195688	0.393509	0.048630
H176	H	0.695688	0.893509	0.548630
H177	H	0.220372	0.318804	0.019193
H178	H	0.720372	0.818804	0.519193
H179	H	0.174514	0.372375	-0.029506
H180	H	0.674514	0.872375	0.470494
H181	H	0.131055	0.316100	0.096164
H182	H	0.631055	0.816100	0.596164
H183	H	0.085195	0.369677	0.047479
H184	H	0.585195	0.869677	0.547479
H185	H	0.597091	0.212725	-0.000196
H186	H	1.097091	0.712725	0.499804
H187	H	0.704792	-0.679578	-0.000222
H188	H	1.204792	-0.179578	0.499778
H189	H	0.464982	0.210776	-0.000210
H190	H	0.964982	0.710776	0.499790
O191	O	0.047580	-0.036790	-0.000361
O192	O	0.547580	0.463210	0.499639
C193	C	0.070578	-0.075227	-0.063424
C194	C	0.570578	0.424773	0.436576
H195	H	0.121040	-0.056352	-0.084441
H196	H	0.621040	0.443648	0.415559
H197	H	0.028435	-0.067010	-0.107590
H198	H	0.528435	0.432990	0.392410
C199	C	0.022484	-0.176994	-0.018444
C200	C	0.522484	0.323006	0.481556
C201	C	0.084465	-0.153815	-0.044254
C202	C	0.584465	0.346185	0.455746
H203	H	0.031047	-0.225472	-0.006621
H204	H	0.531047	0.274528	0.493379
H205	H	0.006987	-0.151098	0.024042
H206	H	0.506987	0.348902	0.524042
H207	H	-0.012629	-0.170141	-0.055253
H208	H	0.487371	0.329859	0.444747
H209	H	0.119574	-0.160661	-0.007442
H210	H	0.619574	0.339339	0.492558
H211	H	0.099968	-0.179715	-0.086733
H212	H	0.599968	0.320285	0.413267
H213	H	0.944176	-0.134360	-0.000214
H214	H	1.444176	0.365640	0.499786
O215	O	0.918132	-0.000920	0.190439
O216	O	1.418132	0.499080	0.690439
C217	C	0.907799	0.009164	0.114577
C218	C	1.407799	0.509164	0.614577
H219	H	0.881798	0.064824	0.104033
H220	H	1.381798	0.564824	0.604033
H221	H	0.872622	-0.030097	0.093043
H222	H	1.372622	0.469903	0.593043
C223	C	1.011090	-0.070335	0.087994
C224	C	1.511090	0.429665	0.587994
C225	C	0.979161	-0.001970	0.075042
C226	C	1.479161	0.498030	0.575042
H227	H	1.055108	-0.077206	0.063605
H228	H	1.555108	0.422794	0.563605
H229	H	1.018051	-0.077131	0.139103
H230	H	1.518051	0.422869	0.639103
H231	H	0.981769	-0.103045	0.070048
H232	H	1.481769	0.396955	0.570048
H233	H	1.008478	0.030738	0.092996
H234	H	1.508478	0.530738	0.592996
H235	H	0.972207	0.004832	0.023935
H236	H	1.472207	0.504832	0.523935
H237	H	0.738100	0.179386	0.663938
H238	H	1.238100	0.679386	1.163938
O239	O	0.730560	0.186897	0.808891
O240	O	1.230560	0.686897	1.308891
C241	C	0.688536	0.228916	0.758642
C242	C	1.188536	0.728916	1.258642
H243	H	0.687832	0.200290	0.704016
H244	H	1.187832	0.700290	1.204016
H245	H	0.711044	0.280728	0.750467
H246	H	1.211044	0.780728	1.250467
C247	C	0.614042	0.278652	0.855683
C248	C	1.114042	0.778652	1.355683
C249	C	0.613173	0.243491	0.788591
C250	C	1.113173	0.743491	1.288591
H251	H	0.567555	0.287646	0.874157
H252	H	1.067555	0.787646	1.374157
H253	H	0.642356	0.250346	0.889537
H254	H	1.142356	0.750346	1.389537
H255	H	0.632802	0.321825	0.848861
H256	H	1.132802	0.821825	1.348861
H257	H	0.594422	0.200316	0.795416
H258	H	1.094422	0.700316	1.295416
H259	H	0.584854	0.271791	0.754739
H260	H	1.084854	0.771791	1.254739
H261	H	0.935683	-0.710481	-0.000274
H262	H	1.435683	-0.210481	0.499726
H263	H	0.738049	0.179371	0.196624
H264	H	1.238049	0.679371	0.696624
H265	H	0.942228	-0.266470	-0.000233
H266	H	1.442228	0.233530	0.499767
O267	O	0.191122	-0.034580	-0.000339
O268	O	0.691122	0.465420	0.499661
C269	C	0.233777	-0.037770	-0.063402
C270	C	0.733777	0.462230	0.436598
H271	H	0.237303	0.017640	-0.084428
H272	H	0.737303	0.517640	0.415572
H273	H	0.209938	-0.069580	-0.107563
H274	H	0.709938	0.430420	0.392437
C275	C	0.303479	-0.141187	-0.018407
C276	C	0.803479	0.358813	0.481593
C277	C	0.307815	-0.073132	-0.044228
C278	C	0.807815	0.426868	0.455772
H279	H	0.349149	-0.163003	-0.006581
H280	H	0.849149	0.336997	0.493419
H281	H	0.274741	-0.139040	0.024079
H282	H	0.774741	0.360960	0.524079
H283	H	0.283611	-0.167687	-0.055212
H284	H	0.783611	0.332313	0.444788
H285	H	0.327675	-0.046631	-0.007420
H286	H	0.827675	0.453369	0.492580
H287	H	0.336559	-0.075275	-0.086707
H288	H	0.836559	0.424725	0.413293
H289	H	0.628003	-0.018171	-0.000145
H290	H	1.128003	0.481829	0.499855
O291	O	0.947774	-0.574099	-0.000294
O292	O	1.447774	-0.074099	0.499706
C293	C	1.003232	-0.629371	-0.000299
C294	C	1.503232	-0.129371	0.499701
H295	H	0.983814	-0.678778	-0.023347
H296	H	1.483814	-0.178778	0.476653
H297	H	1.022681	-0.639749	0.058109
H298	H	1.522681	-0.139749	0.558109
C299	C	1.087620	-0.548303	-0.019760
C300	C	1.587620	-0.048303	0.480240
C301	C	1.063772	-0.608984	-0.048075
C302	C	1.563772	-0.108984	0.451925
H303	H	1.124966	-0.535727	-0.049228
H304	H	1.624966	-0.035727	0.450772
H305	H	1.050258	-0.511065	-0.019754
H306	H	1.550258	-0.011065	0.480246
H307	H	1.103823	-0.556959	0.028913
H308	H	1.603823	-0.056959	0.528913
H309	H	1.047562	-0.600324	-0.096743
H310	H	1.547562	-0.100324	0.403257
H311	H	1.101133	-0.646221	-0.048090
H312	H	1.601133	-0.146221	0.451910
H313	H	0.713281	-0.103448	-0.000184
H314	H	1.213281	0.396552	0.499816
H315	H	0.706738	-0.547464	-0.000208
H316	H	1.206738	-0.047464	0.499792
H317	H	0.910877	0.006680	0.335623
H318	H	1.410877	0.506680	0.835623
H319	H	0.738071	0.179374	0.335674
H320	H	1.238071	0.679374	0.835674
O321	O	0.918415	-0.000859	0.657975
O322	O	1.418415	0.499141	1.157975
C323	C	0.960460	-0.042857	0.708223
C324	C	1.460460	0.457143	1.208223
H325	H	0.931842	-0.043574	0.762872
H326	H	1.431842	0.456426	1.262872
H327	H	1.012255	-0.020315	0.716344
H328	H	1.512255	0.479685	1.216344
C329	C	1.010230	-0.117333	0.611200
C330	C	1.510230	0.382667	1.111200
C331	C	0.975078	-0.118219	0.678318
C332	C	1.475078	0.381781	1.178318
H333	H	1.019250	-0.163820	0.592752
H334	H	1.519250	0.336180	1.092752
H335	H	0.981905	-0.089037	0.577346
H336	H	1.481905	0.410963	1.077346
H337	H	1.053388	-0.098545	0.617976
H338	H	1.553388	0.401455	1.117976
H339	H	0.931916	-0.136998	0.671539
H340	H	1.431916	0.363002	1.171539
H341	H	1.003396	-0.146520	0.712170
H342	H	1.503396	0.353480	1.212170
H343	H	0.910911	0.006685	0.802935
H344	H	1.410911	0.506685	1.302935
