data_functionalizedCrystal
_audit_creation_method	'MofGen! by Chris Wilmer'
_symmetry_space_group_name_H-M	'P1'
_symmetry_Int_Tables_number	1
_symmetry_cell_setting	triclinic
loop_
_symmetry_equiv_pos_as_xyz
  x,y,z
_cell_length_a	16.992694
_cell_length_b	10.654550
_cell_length_c	16.053802
_cell_angle_alpha	92.591674
_cell_angle_beta	87.249047
_cell_angle_gamma	87.576563
loop_
_atom_site_label
_atom_site_type_symbol
_atom_site_fract_x
_atom_site_fract_y
_atom_site_fract_z
O1	O	1.045116	0.261481	-0.069321
O2	O	0.816816	0.258556	-0.069346
O3	O	0.936215	0.077733	-0.069330
O4	O	0.925717	0.442304	-0.069337
O5	O	0.929643	0.087643	0.069528
O6	O	0.810244	0.268466	0.069512
O7	O	1.038544	0.271390	0.069537
Zn8	Zn	0.923350	0.271501	0.091571
Zn9	Zn	0.932009	0.258446	-0.091380
O10	O	0.919145	0.452213	0.069521
C11	C	0.784297	0.259751	0.000080
C12	C	0.697192	0.248531	0.000071
C13	C	0.647540	0.356781	0.000069
C14	C	0.565696	0.346233	0.000081
C15	C	0.533505	0.227432	0.000088
C16	C	0.583163	0.119174	0.000092
C17	C	0.665006	0.129724	0.000087
C18	C	0.289668	0.183707	0.000112
C19	C	0.207819	0.173165	0.000115
C20	C	0.190358	0.400225	0.000105
C21	C	0.272203	0.410765	0.000094
C22	C	0.321854	0.302506	0.000103
N23	N	0.449847	0.216647	0.000098
N24	N	0.405510	0.313293	0.000099
C25	C	0.932158	0.035823	0.000098
C26	C	0.929852	-0.103819	0.000095
C27	C	1.000152	-0.177229	0.000105
C28	C	0.997981	-0.308438	0.000099
C29	C	0.855203	-0.292815	0.000076
C30	C	0.857375	-0.161609	0.000077
C31	C	1.072629	-0.119440	0.000124
C32	C	1.142935	-0.192850	0.000135
C33	C	1.140763	-0.324059	0.000129
C34	C	1.068286	-0.381858	0.000112
C35	C	1.071063	0.270196	0.000109
C36	C	1.158168	0.281416	0.000113
C37	C	0.923202	0.494123	0.000091
C38	C	0.925508	0.633766	0.000089
N39	N	0.917446	0.280411	0.216431
N40	N	0.937920	0.249526	-0.216239
C41	C	0.968269	0.203502	0.260132
C42	C	0.964147	0.209747	0.347538
C43	C	0.909204	0.292909	0.391242
C44	C	0.858376	0.369822	0.347535
C45	C	0.862495	0.363569	0.260130
C46	C	0.891210	0.320186	0.652649
C47	C	0.887096	0.326435	0.740060
C48	C	0.992867	0.166359	0.740057
C49	C	0.996985	0.160119	0.652650
C50	C	0.946153	0.237026	0.608951
N51	N	0.904991	0.299298	0.480585
N52	N	0.950364	0.230631	0.519610
H53	H	0.673743	0.453521	0.000063
O54	O	1.021587	0.122772	0.217552
C55	C	1.014297	0.133690	0.131035
H56	H	0.986127	0.229792	0.119077
H57	H	0.975686	0.056854	0.106275
C58	C	1.131146	0.001558	0.100814
C59	C	1.096552	0.119596	0.086127
H60	H	1.181883	-0.007142	0.073112
H61	H	1.136056	-0.005803	0.159103
H62	H	1.098962	-0.062459	0.080181
H63	H	1.128731	0.183610	0.106769
H64	H	1.091649	0.126967	0.027841
H65	H	0.800130	-0.101836	0.000069
H66	H	1.201944	-0.145783	0.000128
O67	O	0.337781	0.078418	0.000079
C68	C	0.291814	-0.028693	0.000105
H69	H	0.232157	-0.004802	-0.026185
H70	H	0.282647	-0.059963	0.066725
C71	C	0.407846	-0.165073	-0.022054
C72	C	0.334576	-0.135732	-0.054351
H73	H	0.434224	-0.231102	-0.055642
H74	H	0.438816	-0.092911	-0.022069
H75	H	0.400196	-0.191124	0.033461
H76	H	0.342227	-0.109668	-0.109861
H77	H	0.303609	-0.207893	-0.054347
O78	O	0.517393	0.451292	-0.000040
C79	C	0.472937	0.446857	-0.071963
H80	H	0.469384	0.344992	-0.095927
H81	H	0.502550	0.503336	-0.122331
C82	C	0.393538	0.628430	-0.020688
C83	C	0.389169	0.503317	-0.050116
H84	H	0.341867	0.663262	-0.007214
H85	H	0.423491	0.631421	0.027767
H86	H	0.418219	0.675480	-0.062666
H87	H	0.364498	0.456266	-0.008135
H88	H	0.359210	0.500318	-0.098564
H89	H	1.074405	-0.012604	0.000131
O90	O	1.050079	0.078762	0.610295
C91	C	1.009726	-0.006601	0.560034
H92	H	0.949393	0.036746	0.546764
H93	H	1.001918	-0.097223	0.594053
C94	C	1.131793	-0.089223	0.493402
C95	C	1.057694	-0.035979	0.477098
H96	H	1.161384	-0.107351	0.442245
H97	H	1.158981	-0.031716	0.527266
H98	H	1.125277	-0.164735	0.521753
H99	H	1.064212	0.039539	0.448757
H100	H	1.030509	-0.093474	0.443227
H101	H	1.005531	0.147121	0.383119
O102	O	0.552024	0.003676	0.000134
C103	C	0.613402	-0.089608	0.000112
H104	H	0.667940	-0.046931	0.026401
H105	H	0.627937	-0.128144	-0.066505
C106	C	0.520156	-0.249519	0.022279
C107	C	0.587138	-0.197104	0.054574
H108	H	0.503955	-0.315832	0.055870
H109	H	0.478803	-0.186674	0.022291
H110	H	0.532278	-0.281623	-0.033235
H111	H	0.575013	-0.164989	0.110083
H112	H	0.628488	-0.259948	0.054573
O113	O	0.804966	0.450435	0.390080
C114	C	0.753812	0.381853	0.440638
H115	H	0.783910	0.287631	0.453736
H116	H	0.697373	0.365033	0.406965
C117	C	0.696552	0.572661	0.507573
C118	C	0.733521	0.456941	0.523666
H119	H	0.684033	0.618979	0.558787
H120	H	0.731013	0.618867	0.473509
H121	H	0.649524	0.558628	0.479510
H122	H	0.780554	0.470975	0.551719
H123	H	0.699068	0.410738	0.557737
H124	H	0.842353	0.394161	0.775640
O125	O	1.042124	0.091515	0.782547
C126	C	0.997304	0.013383	0.833132
H127	H	0.936666	0.003116	0.806799
H128	H	0.990283	0.057029	0.899371
C129	C	1.114217	-0.104447	0.866827
C130	C	1.039743	-0.117065	0.834479
H131	H	1.140396	-0.184912	0.867662
H132	H	1.144414	-0.051806	0.832749
H133	H	1.108356	-0.068070	0.922023
H134	H	1.045606	-0.153426	0.779281
H135	H	1.009548	-0.169716	0.868548
H136	H	0.821108	0.426195	0.224550
H137	H	0.849823	0.382810	0.617076
H138	H	0.796195	-0.339885	0.000064
H139	H	0.298407	0.507504	0.000079
H140	H	0.149924	0.488363	0.000100
H141	H	0.181613	0.076419	0.000120
H142	H	0.705432	0.041574	0.000087
H143	H	1.198010	-0.383827	0.000129
H144	H	1.066524	-0.488698	0.000098
