data_functionalizedCrystal
_audit_creation_method	'MofGen! by Chris Wilmer'
_symmetry_space_group_name_H-M	'P1'
_symmetry_Int_Tables_number	1
_symmetry_cell_setting	triclinic
loop_
_symmetry_equiv_pos_as_xyz
  x,y,z
_cell_length_a	14.971491
_cell_length_b	16.974813
_cell_length_c	13.448316
_cell_angle_alpha	86.338833
_cell_angle_beta	89.991393
_cell_angle_gamma	83.505397
loop_
_atom_site_label
_atom_site_type_symbol
_atom_site_fract_x
_atom_site_fract_y
_atom_site_fract_z
O1	O	1.186694	0.103063	-0.091026
O2	O	1.686694	0.603063	0.408974
O3	O	0.926264	0.115398	-0.092011
O4	O	1.426264	0.615398	0.407989
O5	O	1.063738	-0.005866	-0.082252
O6	O	1.563738	0.494134	0.417748
O7	O	1.049219	0.224327	-0.100785
O8	O	1.549219	0.724327	0.399215
O9	O	1.063721	-0.005874	0.083132
O10	O	1.563721	0.494126	0.583132
O11	O	0.926247	0.115390	0.073373
O12	O	1.426247	0.615390	0.573373
O13	O	1.186676	0.103055	0.074358
O14	O	1.686676	0.603055	0.574358
Cu15	Cu	1.056460	0.109222	0.088966
Cu16	Cu	1.556460	0.609222	0.588966
Cu17	Cu	1.056480	0.109231	-0.106620
Cu18	Cu	1.556480	0.609231	0.393380
O19	O	1.049202	0.224320	0.064599
O20	O	1.549202	0.724320	0.564599
C21	C	0.892932	0.114842	-0.009274
C22	C	1.392932	0.614842	0.490726
C23	C	0.793639	0.113186	-0.009138
C24	C	1.293639	0.613186	0.490862
C25	C	0.365960	0.106048	-0.098737
C26	C	0.865960	0.606048	0.401263
C27	C	0.459257	0.107601	-0.098858
C28	C	0.959257	0.607601	0.401142
C29	C	0.505891	0.108378	-0.008766
C30	C	1.005891	0.608378	0.491234
C31	C	0.459226	0.107595	0.081453
C32	C	0.959226	0.607595	0.581453
C33	C	0.365932	0.106036	0.081574
C34	C	0.865932	0.606036	0.581574
C35	C	0.653680	0.110845	0.081195
C36	C	1.153680	0.610845	0.581195
C37	C	0.746980	0.112405	0.081075
C38	C	1.246980	0.612405	0.581075
C39	C	0.747005	0.112410	-0.099237
C40	C	1.247005	0.612410	0.400763
C41	C	0.653711	0.110851	-0.099116
C42	C	1.153711	0.610851	0.400884
C43	C	0.607051	0.110069	-0.008896
C44	C	1.107051	0.610069	0.491104
C45	C	1.063177	-0.035329	0.002809
C46	C	1.563177	0.464671	0.502809
C47	C	1.061520	-0.123108	0.009870
C48	C	1.561520	0.376892	0.509870
C49	C	1.060753	-0.164338	-0.076963
C50	C	1.560753	0.335662	0.423037
C51	C	1.059191	-0.246815	-0.070325
C52	C	1.559191	0.253185	0.429675
C53	C	1.058402	-0.288060	0.023147
C54	C	1.558402	0.211940	0.523147
C55	C	1.059166	-0.246824	0.109986
C56	C	1.559166	0.253176	0.609986
C57	C	1.060722	-0.164348	0.103348
C58	C	1.560722	0.335652	0.603348
C59	C	1.053740	-0.534727	0.052668
C60	C	1.553740	-0.034727	0.552668
C61	C	1.052187	-0.617209	0.059300
C62	C	1.552187	-0.117209	0.559300
C63	C	1.052210	-0.617193	-0.121012
C64	C	1.552210	-0.117193	0.378988
C65	C	1.053772	-0.534716	-0.127642
C66	C	1.553772	-0.034716	0.372358
C67	C	1.054531	-0.493487	-0.040803
C68	C	1.554531	0.006513	0.459197
N69	N	1.056807	-0.372365	0.029934
N70	N	1.556807	0.127635	0.529934
N71	N	1.056119	-0.409183	-0.047590
N72	N	1.556119	0.090817	0.452410
C73	C	1.220008	0.103611	-0.008382
C74	C	1.720008	0.603611	0.491618
C75	C	1.319301	0.105267	-0.008524
C76	C	1.819301	0.605267	0.491476
C77	C	1.049763	0.253782	-0.020465
C78	C	1.549763	0.753782	0.479535
C79	C	1.051420	0.341561	-0.027533
C80	C	1.551420	0.841561	0.472467
N81	N	1.056452	0.109215	0.226531
N82	N	1.556452	0.609215	0.726531
N83	N	1.056495	0.109231	-0.244184
N84	N	1.556495	0.609231	0.255816
C85	C	1.117345	0.055542	0.282891
C86	C	1.617345	0.555542	0.782891
C87	C	1.117350	0.055541	0.386994
C88	C	1.617350	0.555541	0.886994
C89	C	1.056467	0.109219	0.434736
C90	C	1.556467	0.609219	0.934736
C91	C	0.995568	0.162895	0.378368
C92	C	1.495568	0.662895	0.878368
C93	C	0.995559	0.162891	0.274267
C94	C	1.495559	0.662891	0.774267
C95	C	0.995593	0.162900	0.595348
C96	C	1.495593	0.662900	1.095348
C97	C	0.995603	0.162905	0.699456
C98	C	1.495603	0.662905	1.199456
C99	C	1.117384	0.055550	0.708075
C100	C	1.617384	0.555550	1.208075
C101	C	1.117375	0.055546	0.603974
C102	C	1.617375	0.555546	1.103974
C103	C	1.056477	0.109224	0.547614
C104	C	1.556477	0.609224	1.047614
H105	H	0.497244	0.108232	-0.172317
H106	H	0.997244	0.608232	0.327683
F107	F	1.182158	-0.001585	0.446977
F108	F	1.682158	0.498415	0.946977
H109	H	1.166955	0.011842	0.565103
H110	H	1.666955	0.511842	1.065103
F111	F	0.508861	0.108420	0.177336
F112	F	1.008861	0.608420	0.677336
H113	H	1.058518	-0.280413	0.186093
H114	H	1.558518	0.219587	0.686093
F115	F	0.604080	0.110030	-0.195002
F116	F	1.104080	0.610030	0.304998
H117	H	1.061334	-0.130779	0.174056
H118	H	1.561334	0.369221	0.674056
H119	H	0.327942	0.105408	0.155033
H120	H	0.827942	0.605408	0.655033
F121	F	1.058375	-0.290691	-0.162745
F122	F	1.558375	0.209309	0.337255
H123	H	1.061401	-0.130762	-0.153077
H124	H	1.561401	0.369238	0.346923
H125	H	1.166969	0.011844	0.753970
H126	H	1.666969	0.511844	1.253970
F127	F	0.930801	0.220035	0.750258
F128	F	1.430801	0.720035	1.250258
H129	H	1.166927	0.011835	0.244027
H130	H	1.666927	0.511835	0.744027
F131	F	1.054613	-0.490826	-0.227127
F132	F	1.554613	0.009174	0.272873
H133	H	0.946000	0.206608	0.549462
H134	H	1.446000	0.706608	1.049462
F135	F	0.930766	0.220020	0.429179
F136	F	1.430766	0.720020	0.929179
F137	F	0.930746	0.220016	0.214286
F138	F	1.430746	0.720016	0.714286
F139	F	0.796611	0.113228	0.176960
F140	F	1.296611	0.613228	0.676960
F141	F	1.051401	-0.661078	-0.213426
F142	F	1.551401	-0.161078	0.286574
H143	H	0.327997	0.105420	-0.172100
H144	H	0.827997	0.605420	0.327900
H145	H	0.784999	0.113048	-0.172697
H146	H	1.284999	0.613048	0.327303
H147	H	0.615691	0.110218	0.154661
H148	H	1.115691	0.610218	0.654661
F149	F	1.051351	-0.661105	0.158791
F150	F	1.551351	-0.161105	0.658791
F151	F	1.054537	-0.490857	0.145092
F152	F	1.554537	0.009143	0.645092
