data_functionalizedCrystal
_audit_creation_method	'MofGen! by Chris Wilmer'
_symmetry_space_group_name_H-M	'P1'
_symmetry_Int_Tables_number	1
_symmetry_cell_setting	triclinic
loop_
_symmetry_equiv_pos_as_xyz
  x,y,z
_cell_length_a	16.120530
_cell_length_b	18.050590
_cell_length_c	16.120297
_cell_angle_alpha	87.128980
_cell_angle_beta	89.871860
_cell_angle_gamma	87.114013
loop_
_atom_site_label
_atom_site_type_symbol
_atom_site_fract_x
_atom_site_fract_y
_atom_site_fract_z
Zn1	Zn	1.247477	-0.376250	0.534553
Zn2	Zn	1.497477	-0.126250	0.784553
Zn3	Zn	1.747477	0.123750	1.034553
Zn4	Zn	1.997477	0.373750	1.284553
Zn5	Zn	1.254440	-0.494475	0.395492
Zn6	Zn	1.504440	-0.244475	0.645492
Zn7	Zn	1.754440	0.005525	0.895492
Zn8	Zn	2.004440	0.255525	1.145492
Zn9	Zn	1.115466	-0.363700	0.388471
Zn10	Zn	1.365466	-0.113700	0.638471
Zn11	Zn	1.615466	0.136300	0.888471
Zn12	Zn	1.865466	0.386300	1.138471
Zn13	Zn	1.108396	-0.493791	0.527461
Zn14	Zn	1.358396	-0.243791	0.777461
Zn15	Zn	1.608396	0.006209	1.027461
Zn16	Zn	1.858396	0.256209	1.277461
O17	O	1.181445	-0.432054	0.461494
O18	O	1.431445	-0.182054	0.711494
O19	O	1.681445	0.067946	0.961494
O20	O	1.931445	0.317946	1.211494
O21	O	1.364768	-0.397471	0.522012
O22	O	1.614768	-0.147471	0.772012
O23	O	1.864768	0.102529	1.022012
O24	O	2.114768	0.352529	1.272012
O25	O	1.241877	-0.472162	0.278195
O26	O	1.491877	-0.222162	0.528195
O27	O	1.741877	0.027838	0.778195
O28	O	1.991877	0.277838	1.028195
O29	O	1.133023	-0.261444	0.407879
O30	O	1.383023	-0.011444	0.657879
O31	O	1.633023	0.238556	0.907879
O32	O	1.883023	0.488556	1.157879
O33	O	1.369883	-0.484330	0.419845
O34	O	1.619883	-0.234330	0.669845
O35	O	1.869883	0.015670	0.919845
O36	O	2.119883	0.265670	1.169845
O37	O	1.230011	-0.270664	0.515205
O38	O	1.480011	-0.020664	0.765205
O39	O	1.730011	0.229336	1.015205
O40	O	1.980011	0.479336	1.265205
O41	O	1.139774	-0.376082	0.273037
O42	O	1.389774	-0.126082	0.523037
O43	O	1.639774	0.123918	0.773037
O44	O	1.889774	0.373918	1.023037
O45	O	0.998162	-0.375419	0.401003
O46	O	1.248162	-0.125419	0.651003
O47	O	1.498162	0.124581	0.901003
O48	O	1.748162	0.374581	1.151003
O49	O	1.120973	-0.483165	0.644767
O50	O	1.370973	-0.233165	0.894767
O51	O	1.620973	0.016835	1.144767
O52	O	1.870973	0.266835	1.394767
O53	O	0.992967	-0.470996	0.503118
O54	O	1.242967	-0.220996	0.753118
O55	O	1.492967	0.029004	1.003118
O56	O	1.742967	0.279004	1.253118
O57	O	1.223155	-0.396808	0.649978
O58	O	1.473155	-0.146808	0.899978
O59	O	1.723155	0.103192	1.149978
O60	O	1.973155	0.353192	1.399978
O61	O	1.235022	-0.598305	0.412968
O62	O	1.485022	-0.348305	0.662968
O63	O	1.735022	-0.098305	0.912968
O64	O	1.985022	0.151695	1.162968
O65	O	1.127724	-0.597803	0.509925
O66	O	1.377724	-0.347803	0.759925
O67	O	1.627724	-0.097803	1.009925
O68	O	1.877724	0.152197	1.259925
C69	C	0.965392	-0.421772	0.450529
C70	C	1.215392	-0.171772	0.700529
C71	C	1.465392	0.078228	0.950529
C72	C	1.715392	0.328228	1.200529
C73	C	0.872962	-0.417392	0.445858
C74	C	1.122962	-0.167392	0.695858
C75	C	1.372962	0.082608	0.945858
C76	C	1.622962	0.332608	1.195858
C77	C	0.703732	-0.409378	0.437337
C78	C	0.953732	-0.159378	0.687337
C79	C	1.203732	0.090622	0.937337
C80	C	1.453732	0.340622	1.187337
C81	C	0.659995	-0.454787	0.485712
C82	C	0.909995	-0.204787	0.735712
C83	C	1.159995	0.045213	0.985712
C84	C	1.409995	0.295213	1.235712
C85	C	0.565830	-0.450328	0.480971
C86	C	0.815830	-0.200328	0.730971
C87	C	1.065830	0.049672	0.980971
C88	C	1.315830	0.299672	1.230971
C89	C	0.797906	-0.413836	0.442077
C90	C	1.047906	-0.163836	0.692077
C91	C	1.297906	0.086164	0.942077
C92	C	1.547906	0.336164	1.192077
C93	C	1.181383	-0.625002	0.461458
C94	C	1.431383	-0.375002	0.711458
C95	C	1.681383	-0.125002	0.961458
C96	C	1.931383	0.124998	1.211458
C97	C	1.181431	-0.707550	0.461474
C98	C	1.431431	-0.457550	0.711474
C99	C	1.681431	-0.207550	0.961474
C100	C	1.931431	0.042450	1.211474
C101	C	1.239891	-0.907256	0.408832
C102	C	1.489891	-0.657256	0.658832
C103	C	1.739891	-0.407256	0.908832
C104	C	1.989891	-0.157256	1.158832
C105	C	1.256356	-0.960809	0.485754
C106	C	1.506356	-0.710809	0.735754
C107	C	1.756356	-0.460809	0.985754
C108	C	2.006356	-0.210809	1.235754
C109	C	1.181476	-0.858684	0.461510
C110	C	1.431476	-0.608684	0.711510
C111	C	1.681476	-0.358684	0.961510
C112	C	1.931476	-0.108684	1.211510
C113	C	1.165094	-0.952218	0.384626
C114	C	1.415094	-0.702218	0.634626
C115	C	1.665094	-0.452218	0.884626
C116	C	1.915094	-0.202218	1.134626
C117	C	1.181522	-1.004673	0.461537
C118	C	1.431522	-0.754673	0.711537
C119	C	1.681522	-0.504673	0.961537
C120	C	1.931522	-0.254673	1.211537
C121	C	1.197978	-0.911154	0.538473
C122	C	1.447978	-0.661154	0.788473
C123	C	1.697978	-0.411154	1.038473
C124	C	1.947978	-0.161154	1.288473
C125	C	1.106684	-0.902555	0.437293
C126	C	1.356684	-0.652555	0.687293
C127	C	1.606684	-0.402555	0.937293
C128	C	1.856684	-0.152555	1.187293
C129	C	1.123117	-0.956086	0.514265
C130	C	1.373117	-0.706086	0.764265
C131	C	1.623117	-0.456086	1.014265
C132	C	1.873117	-0.206086	1.264265
C133	C	1.181452	-0.774584	0.461493
C134	C	1.431452	-0.524584	0.711493
C135	C	1.681452	-0.274584	0.961493
C136	C	1.931452	-0.024584	1.211493
C137	C	1.181546	-1.088771	0.461563
C138	C	1.431546	-0.838771	0.711563
C139	C	1.681546	-0.588771	0.961563
C140	C	1.931546	-0.338771	1.211563
C141	C	1.398342	-0.442377	0.472503
C142	C	1.648342	-0.192377	0.722503
C143	C	1.898342	0.057623	0.972503
C144	C	2.148342	0.307623	1.222503
C145	C	1.490770	-0.446776	0.477194
C146	C	1.740770	-0.196776	0.727194
C147	C	1.990770	0.053224	0.977194
C148	C	2.240770	0.303224	1.227194
C149	C	1.170499	-0.441310	0.678388
C150	C	1.420499	-0.191310	0.928388
C151	C	1.670499	0.058690	1.178388
C152	C	1.920499	0.308690	1.428388
C153	C	1.165834	-0.445254	0.770815
C154	C	1.415834	-0.195254	1.020815
C155	C	1.665834	0.054746	1.270815
C156	C	1.915834	0.304746	1.520815
C157	C	1.181529	-0.238355	0.461550
C158	C	1.431529	0.011645	0.711550
C159	C	1.681529	0.261645	0.961550
C160	C	1.931529	0.511645	1.211550
C161	C	1.181565	-0.155812	0.461574
C162	C	1.431565	0.094188	0.711574
C163	C	1.681565	0.344188	0.961574
C164	C	1.931565	0.594188	1.211574
C165	C	1.192396	-0.422783	0.245447
C166	C	1.442396	-0.172783	0.495447
C167	C	1.692396	0.077217	0.745447
C168	C	1.942396	0.327217	0.995447
C169	C	1.197222	-0.418637	0.153028
C170	C	1.447222	-0.168637	0.403028
C171	C	1.697222	0.081363	0.653028
C172	C	1.947222	0.331363	0.903028
C173	C	1.157287	-0.452437	0.940040
C174	C	1.407287	-0.202437	1.190040
C175	C	1.657287	0.047563	1.440040
C176	C	1.907287	0.297563	1.690040
C177	C	1.205767	-0.411456	0.983809
C178	C	1.455767	-0.161456	1.233809
C179	C	1.705767	0.088544	1.483809
C180	C	1.955767	0.338544	1.733809
C181	C	1.201011	-0.415453	1.077971
C182	C	1.451011	-0.165453	1.327971
C183	C	1.701011	0.084547	1.577971
C184	C	1.951011	0.334547	1.827971
C185	C	1.162042	-0.448441	0.845869
C186	C	1.412042	-0.198441	1.095869
C187	C	1.662042	0.051559	1.345869
C188	C	1.912042	0.301559	1.595869
H189	H	0.693272	-0.497010	0.530690
H190	H	0.943272	-0.247010	0.780690
H191	H	1.193272	0.002990	1.030690
H192	H	1.443272	0.252990	1.280690
C193	C	1.096393	-0.503886	0.984952
C194	C	1.346393	-0.253886	1.234952
C195	C	1.596393	-0.003886	1.484952
C196	C	1.846393	0.246114	1.734952
N197	N	1.050530	-0.542638	1.018790
N198	N	1.300530	-0.292638	1.268790
N199	N	1.550530	-0.042638	1.518790
N200	N	1.800530	0.207362	1.768790
H201	H	0.670458	-0.367158	0.392364
H202	H	0.920458	-0.117158	0.642364
H203	H	1.170458	0.132842	0.892364
H204	H	1.420458	0.382842	1.142364
C205	C	1.341829	-0.995187	0.513445
C206	C	1.591829	-0.745187	0.763445
C207	C	1.841829	-0.495187	1.013445
C208	C	2.091829	-0.245187	1.263445
N209	N	1.406209	-1.021079	0.534297
N210	N	1.656209	-0.771079	0.784297
N211	N	1.906209	-0.521079	1.034297
N212	N	2.156209	-0.271079	1.284297
H213	H	1.250842	-0.373368	0.950563
H214	H	1.500842	-0.123368	1.200563
H215	H	1.750842	0.126632	1.450563
H216	H	2.000842	0.376632	1.700563
H217	H	1.043433	-0.877095	0.416771
H218	H	1.293433	-0.627095	0.666771
H219	H	1.543433	-0.377095	0.916771
H220	H	1.793433	-0.127095	1.166771
H221	H	1.289303	-0.885812	0.364334
H222	H	1.539303	-0.635812	0.614334
H223	H	1.789303	-0.385812	0.864334
H224	H	2.039303	-0.135812	1.114334
H225	H	1.211787	-0.893067	0.603556
H226	H	1.461787	-0.643067	0.853556
H227	H	1.711787	-0.393067	1.103556
H228	H	1.961787	-0.143067	1.353556
H229	H	1.073735	-0.977400	0.558879
H230	H	1.323735	-0.727400	0.808879
H231	H	1.573735	-0.477400	1.058879
H232	H	1.823735	-0.227400	1.308879
H233	H	1.151219	-0.970396	0.319595
H234	H	1.401219	-0.720396	0.569595
H235	H	1.651219	-0.470396	0.819595
H236	H	1.901219	-0.220396	1.069595
