data_functionalizedCrystal
_audit_creation_method	'MofGen! by Chris Wilmer'
_symmetry_space_group_name_H-M	'P1'
_symmetry_Int_Tables_number	1
_symmetry_cell_setting	triclinic
loop_
_symmetry_equiv_pos_as_xyz
  x,y,z
_cell_length_a	11.169417
_cell_length_b	12.827892
_cell_length_c	11.169409
_cell_angle_alpha	89.966724
_cell_angle_beta	89.980176
_cell_angle_gamma	90.016270
loop_
_atom_site_label
_atom_site_type_symbol
_atom_site_fract_x
_atom_site_fract_y
_atom_site_fract_z
Zn1	Zn	1.834920	-0.415924	-0.678535
Zn2	Zn	2.084920	-0.165924	-0.428535
Zn3	Zn	2.334920	0.084076	-0.178535
Zn4	Zn	2.584920	0.334076	0.071465
Zn5	Zn	1.834792	-0.590711	-0.477849
Zn6	Zn	2.084792	-0.340711	-0.227849
Zn7	Zn	2.334792	-0.090711	0.022151
Zn8	Zn	2.584792	0.159289	0.272151
Zn9	Zn	1.634206	-0.415988	-0.477869
Zn10	Zn	1.884206	-0.165988	-0.227869
Zn11	Zn	2.134206	0.084012	0.022131
Zn12	Zn	2.384206	0.334012	0.272131
Zn13	Zn	1.634196	-0.590626	-0.678493
Zn14	Zn	1.884196	-0.340626	-0.428493
Zn15	Zn	2.134196	-0.090626	-0.178493
Zn16	Zn	2.384196	0.159374	0.071507
O17	O	1.734528	-0.503312	-0.578187
O18	O	1.984528	-0.253312	-0.328187
O19	O	2.234528	-0.003312	-0.078187
O20	O	2.484528	0.246688	0.171813
O21	O	2.002853	-0.439119	-0.651922
O22	O	2.252853	-0.189119	-0.401922
O23	O	2.502853	0.060881	-0.151922
O24	O	2.752853	0.310881	0.098078
O25	O	1.808134	-0.567596	-0.309901
O26	O	2.058134	-0.317596	-0.059901
O27	O	2.308134	-0.067596	0.190099
O28	O	2.558134	0.182404	0.440099
O29	O	1.660889	-0.269743	-0.504514
O30	O	1.910889	-0.019743	-0.254514
O31	O	2.160889	0.230257	-0.004514
O32	O	2.410889	0.480257	0.245486
O33	O	2.002759	-0.567534	-0.504479
O34	O	2.252759	-0.317534	-0.254479
O35	O	2.502759	-0.067534	-0.004479
O36	O	2.752759	0.182466	0.245521
O37	O	1.808353	-0.269696	-0.651942
O38	O	2.058353	-0.019696	-0.401942
O39	O	2.308353	0.230304	-0.151942
O40	O	2.558353	0.480304	0.098058
O41	O	1.660765	-0.439227	-0.309917
O42	O	1.910765	-0.189227	-0.059917
O43	O	2.160765	0.060773	0.190083
O44	O	2.410765	0.310773	0.440083
O45	O	1.466255	-0.439145	-0.504474
O46	O	1.716255	-0.189145	-0.254474
O47	O	1.966255	0.060855	-0.004474
O48	O	2.216255	0.310855	0.245526
O49	O	1.660872	-0.567389	-0.846449
O50	O	1.910872	-0.317389	-0.596449
O51	O	2.160872	-0.067389	-0.346449
O52	O	2.410872	0.182611	-0.096449
O53	O	1.466248	-0.567451	-0.651871
O54	O	1.716248	-0.317451	-0.401871
O55	O	1.966248	-0.067451	-0.151871
O56	O	2.216248	0.182549	0.098129
O57	O	1.808343	-0.439036	-0.846479
O58	O	2.058343	-0.189036	-0.596479
O59	O	2.308343	0.060964	-0.346479
O60	O	2.558343	0.310964	-0.096479
O61	O	1.808124	-0.736936	-0.504438
O62	O	2.058124	-0.486936	-0.254438
O63	O	2.308124	-0.236936	-0.004438
O64	O	2.558124	0.013064	0.245562
O65	O	1.660747	-0.736874	-0.651851
O66	O	1.910747	-0.486874	-0.401851
O67	O	2.160747	-0.236874	-0.151851
O68	O	2.410747	0.013126	0.098149
C69	C	1.422704	-0.503296	-0.578171
C70	C	1.672704	-0.253296	-0.328171
C71	C	1.922704	-0.003296	-0.078171
C72	C	2.172704	0.246704	0.171829
C73	C	1.289304	-0.503315	-0.578193
C74	C	1.539304	-0.253315	-0.328193
C75	C	1.789304	-0.003315	-0.078193
C76	C	2.039304	0.246685	0.171807
C77	C	1.734453	-0.774822	-0.578164
C78	C	1.984453	-0.524822	-0.328164
C79	C	2.234453	-0.274822	-0.078164
C80	C	2.484453	-0.024822	0.171836
C81	C	1.734531	-0.890975	-0.578195
C82	C	1.984531	-0.640975	-0.328195
C83	C	2.234531	-0.390975	-0.078195
C84	C	2.484531	-0.140975	0.171805
C85	C	1.807468	-0.942654	-0.651213
C86	C	2.057468	-0.692654	-0.401213
C87	C	2.307468	-0.442654	-0.151213
C88	C	2.557468	-0.192654	0.098787
C89	C	1.807550	-1.062704	-0.651246
C90	C	2.057550	-0.812704	-0.401246
C91	C	2.307550	-0.562704	-0.151246
C92	C	2.557550	-0.312704	0.098754
C93	C	2.047571	-0.503329	-0.578203
C94	C	2.297571	-0.253329	-0.328203
C95	C	2.547571	-0.003329	-0.078203
C96	C	2.797571	0.246671	0.171797
C97	C	2.180971	-0.503336	-0.578210
C98	C	2.430971	-0.253336	-0.328210
C99	C	2.680971	-0.003336	-0.078210
C100	C	2.930971	0.246664	0.171790
C101	C	1.734621	-0.503196	-0.891229
C102	C	1.984621	-0.253196	-0.641229
C103	C	2.234621	-0.003196	-0.391229
C104	C	2.484621	0.246804	-0.141229
C105	C	1.734660	-0.503147	-1.024629
C106	C	1.984660	-0.253147	-0.774629
C107	C	2.234660	-0.003147	-0.524629
C108	C	2.484660	0.246853	-0.274629
C109	C	1.734637	-0.230742	-0.578235
C110	C	1.984637	0.019258	-0.328235
C111	C	2.234637	0.269258	-0.078235
C112	C	2.484637	0.519258	0.171765
C113	C	1.734683	-0.114589	-0.578256
C114	C	1.984683	0.135411	-0.328256
C115	C	2.234683	0.385411	-0.078256
C116	C	2.484683	0.635411	0.171744
C117	C	1.734506	-0.503352	-0.266362
C118	C	1.984506	-0.253352	-0.016362
C119	C	2.234506	-0.003352	0.233638
C120	C	2.484506	0.246648	0.483638
C121	C	1.734699	-0.503108	-0.132962
C122	C	1.984699	-0.253108	0.117038
C123	C	2.234699	-0.003108	0.367038
C124	C	2.484699	0.246892	0.617038
H125	H	1.869848	-0.898023	-0.713707
H126	H	2.119848	-0.648023	-0.463707
H127	H	2.369848	-0.398023	-0.213707
H128	H	2.619848	-0.148023	0.036293
H129	H	1.672239	-1.070154	-0.515734
H130	H	1.922239	-0.820154	-0.265734
H131	H	2.172239	-0.570154	-0.015734
H132	H	2.422239	-0.320154	0.234266
O133	O	1.890265	-1.121559	-0.734068
O134	O	2.140265	-0.871559	-0.484068
O135	O	2.390265	-0.621559	-0.234068
O136	O	2.640265	-0.371559	0.015932
H137	H	1.877339	-1.206615	-0.721107
H138	H	2.127339	-0.956615	-0.471107
H139	H	2.377339	-0.706615	-0.221107
H140	H	2.627339	-0.456615	0.028893
O141	O	1.651905	-0.950090	-0.495407
O142	O	1.901905	-0.700090	-0.245407
O143	O	2.151905	-0.450090	0.004593
O144	O	2.401905	-0.200090	0.254593
H145	H	1.590906	-0.999836	-0.549130
H146	H	1.840906	-0.749836	-0.299130
H147	H	2.090906	-0.499836	-0.049130
H148	H	2.340906	-0.249836	0.200870
