data_functionalizedCrystal
_audit_creation_method	'MofGen! by Chris Wilmer'
_symmetry_space_group_name_H-M	'P1'
_symmetry_Int_Tables_number	1
_symmetry_cell_setting	triclinic
loop_
_symmetry_equiv_pos_as_xyz
  x,y,z
_cell_length_a	10.967819
_cell_length_b	27.731996
_cell_length_c	9.482900
_cell_angle_alpha	99.248591
_cell_angle_beta	68.706355
_cell_angle_gamma	83.688296
loop_
_atom_site_label
_atom_site_type_symbol
_atom_site_fract_x
_atom_site_fract_y
_atom_site_fract_z
O1	O	1.744842	0.033170	-0.558045
O2	O	1.366028	0.045546	-0.463146
O3	O	1.567230	-0.031152	-0.513519
O4	O	1.543640	0.109867	-0.507672
O5	O	1.526360	-0.015512	-0.261494
O6	O	1.325158	0.061185	-0.211122
O7	O	1.703972	0.048809	-0.306020
Cu8	Cu	1.510833	0.056425	-0.235559
Cu9	Cu	1.559167	0.037930	-0.533608
O10	O	1.502770	0.125507	-0.255648
C11	C	1.297145	0.053646	-0.324997
C12	C	1.152784	0.054477	-0.288831
C13	C	0.960402	0.047607	-0.365913
C14	C	1.109606	0.046746	-0.403283
C15	C	1.546310	-0.041335	-0.387380
C16	C	1.544847	-0.094976	-0.386999
C17	C	1.557950	-0.436134	-0.522150
C18	C	1.552409	-0.637741	-0.520787
O19	O	1.570583	-0.671054	-0.637430
N20	N	1.529442	-0.654426	-0.383238
C21	C	1.507850	-0.620706	-0.246016
O22	O	1.488175	-0.639523	-0.128987
C23	C	1.513382	-0.419099	-0.247378
C24	C	1.536364	-0.402418	-0.384940
C25	C	1.580928	-0.419452	-0.659701
C26	C	1.582320	-0.369053	-0.660042
C27	C	1.560734	-0.335337	-0.522832
C28	C	1.537756	-0.352020	-0.385281
C29	C	1.491781	-0.385380	-0.110156
C30	C	1.493163	-0.334975	-0.110508
C31	C	1.516145	-0.318294	-0.248070
C32	C	1.517562	-0.267905	-0.248413
N33	N	1.540528	-0.251220	-0.385963
C34	C	1.562114	-0.284936	-0.523172
C35	C	1.504950	-0.726553	-0.245312
C36	C	1.503570	-0.776954	-0.244972
C37	C	1.548126	-0.793985	-0.519743
C38	C	1.549515	-0.743584	-0.520084
C39	C	1.527917	-0.709867	-0.382862
C40	C	1.565037	-0.179095	-0.523878
C41	C	1.566433	-0.128692	-0.524208
C42	C	1.521870	-0.111665	-0.249437
C43	C	1.520481	-0.162064	-0.249107
C44	C	1.542062	-0.195778	-0.386339
O45	O	1.499384	-0.234564	-0.131828
O46	O	1.581758	-0.266107	-0.640177
C47	C	1.556558	-0.486532	-0.521809
C48	C	1.533579	-0.503215	-0.384258
C49	C	1.511993	-0.469499	-0.247049
C50	C	1.532199	-0.553616	-0.383918
C51	C	1.553785	-0.587332	-0.521128
C52	C	1.576752	-0.570646	-0.658677
C53	C	1.578144	-0.520248	-0.659018
C54	C	1.489027	-0.486184	-0.109499
C55	C	1.487638	-0.536583	-0.109169
C56	C	1.509224	-0.570299	-0.246379
C57	C	1.772856	0.040708	-0.444173
C58	C	1.917218	0.039877	-0.480349
C59	C	1.523691	0.135689	-0.381790
C60	C	1.525156	0.189330	-0.382181
N61	N	1.476848	0.069433	-0.025930
N62	N	1.593163	0.024917	-0.743239
C63	C	1.549134	0.041764	0.028171
C64	C	1.520866	0.052591	0.202666
H65	H	1.079300	0.061736	-0.163182
H66	H	0.886913	0.054866	-0.240274
H67	H	1.183090	0.039492	-0.528930
Cl68	Cl	1.603894	-0.613042	-0.831169
H69	H	1.394029	0.101136	0.056934
H70	H	1.501780	-0.175647	-0.137096
H71	H	0.990705	0.032624	-0.605988
Cl72	Cl	1.595329	-0.107725	-0.697158
H73	H	1.582604	-0.206540	-0.635624
H74	H	1.601029	-0.355476	-0.772058
Cl75	Cl	1.578403	-0.722618	-0.693024
Cl76	Cl	1.608071	-0.461830	-0.832217
Cl77	Cl	1.575254	-0.836380	-0.692232
H78	H	1.484876	-0.790532	-0.132960
H79	H	1.487367	-0.699104	-0.133564
H80	H	1.473070	-0.398952	0.001861
Cl81	Cl	1.466010	-0.292592	0.062011
Cl82	Cl	1.392992	0.101541	0.330588
Cl83	Cl	1.494735	-0.069270	-0.076954
H84	H	1.596857	-0.506671	-0.771036
Cl85	Cl	1.458750	-0.557547	0.063783
H86	H	1.471450	-0.458737	0.002236
H87	H	1.631943	0.010058	-0.054689
Cl88	Cl	1.721306	-0.023936	0.128775
