data_functionalizedCrystal
_audit_creation_method	'MofGen! by Chris Wilmer'
_symmetry_space_group_name_H-M	'P1'
_symmetry_Int_Tables_number	1
_symmetry_cell_setting	triclinic
loop_
_symmetry_equiv_pos_as_xyz
  x,y,z
_cell_length_a	12.837943
_cell_length_b	10.723024
_cell_length_c	9.198806
_cell_angle_alpha	90.002012
_cell_angle_beta	90.002900
_cell_angle_gamma	89.648405
loop_
_atom_site_label
_atom_site_type_symbol
_atom_site_fract_x
_atom_site_fract_y
_atom_site_fract_z
O1	O	-1.377762	-0.324662	-0.120859
O2	O	-1.075842	-0.308624	-0.120868
O3	O	-1.233766	-0.135823	-0.120858
O4	O	-1.219838	-0.497463	-0.120870
O5	O	-1.233754	-0.135821	0.120927
O6	O	-1.075830	-0.308622	0.120917
O7	O	-1.377749	-0.324660	0.120926
Cu8	Cu	-1.226788	-0.316641	0.142998
Cu9	Cu	-1.226803	-0.316643	-0.142941
O10	O	-1.219825	-0.497461	0.120916
C11	C	-1.037177	-0.303205	0.000023
C12	C	-0.921985	-0.287047	0.000020
C13	C	-1.416415	-0.330079	0.000031
C14	C	-1.531607	-0.346237	0.000025
C15	C	-1.232747	-0.089212	0.000032
C16	C	-1.229714	0.049671	0.000027
C17	C	-0.682408	-0.481303	0.000034
C18	C	-0.574174	-0.466126	0.000032
C19	C	-0.597282	-0.241518	0.000024
C20	C	-0.705515	-0.256694	0.000026
C21	C	-0.748074	-0.376591	0.000029
C22	C	-0.856310	-0.391766	0.000021
C23	C	-0.879415	-0.167159	0.000023
C24	C	-0.771182	-0.151982	0.000020
C25	C	-1.220845	-0.544071	0.000022
C26	C	-1.223878	-0.682955	0.000017
N27	N	-1.226786	-0.316639	0.344112
C28	C	-1.318080	0.115056	0.000028
C29	C	-1.314948	0.258600	0.000022
N30	N	-1.226814	-0.316636	-0.344055
C31	C	-1.293093	-0.243734	0.416313
C32	C	-1.293109	-0.243731	0.583725
H33	H	-0.717060	-0.578927	0.000035
C34	C	-1.121672	0.241125	0.000018
H35	H	-1.064131	0.296414	0.000023
H36	H	-1.118916	0.190055	-0.084294
H37	H	-1.118909	0.190073	0.084349
C38	C	-0.951646	-0.051967	0.000016
H39	H	-0.910794	0.021608	0.000002
H40	H	-0.994350	-0.053210	0.084327
H41	H	-0.994346	-0.053226	-0.084315
C42	C	-1.369799	-0.159404	0.667594
H43	H	-1.359744	-0.170457	0.769111
H44	H	-1.439201	-0.180992	0.642703
H45	H	-1.357750	-0.074724	0.642726
H46	H	-1.151742	0.099962	0.000015
C47	C	-1.423418	0.047130	0.000036
H48	H	-1.411704	-0.040436	0.000049
H49	H	-1.461774	0.069952	-0.084276
H50	H	-1.461757	0.069960	0.084366
C51	C	-0.903130	-0.523642	0.000024
H52	H	-0.976995	-0.517687	0.000011
H53	H	-0.880642	-0.567292	0.084342
H54	H	-0.880646	-0.567300	-0.084300
C55	C	-0.724365	-0.020105	0.000011
H56	H	-0.778979	0.040084	0.000014
H57	H	-0.682625	-0.009525	-0.084304
H58	H	-0.682624	-0.009507	0.084338
C59	C	-1.369768	-0.159411	0.332401
H60	H	-1.359702	-0.170480	0.230888
H61	H	-1.357736	-0.074735	0.357280
H62	H	-1.439178	-0.181014	0.357252
H63	H	-1.170046	-0.379062	0.593865
H64	H	-1.390596	0.314817	0.000029
H65	H	-0.520712	-0.551394	0.000041
C66	C	-0.550453	-0.109647	0.000036
H67	H	-0.476589	-0.115611	0.000033
H68	H	-0.572938	-0.065989	0.084350
H69	H	-0.572932	-0.065990	-0.084292
C70	C	-1.150093	-0.400943	0.428018
H71	H	-1.108481	-0.446673	0.361010
H72	H	-1.187941	-0.457227	0.487399
H73	H	-1.106519	-0.350927	0.487391
