data_functionalizedCrystal
_audit_creation_method	'MofGen! by Chris Wilmer'
_symmetry_space_group_name_H-M	'P1'
_symmetry_Int_Tables_number	1
_symmetry_cell_setting	triclinic
loop_
_symmetry_equiv_pos_as_xyz
  x,y,z
_cell_length_a	18.050590
_cell_length_b	18.050590
_cell_length_c	18.050583
_cell_angle_alpha	90.040797
_cell_angle_beta	89.999666
_cell_angle_gamma	89.988341
loop_
_atom_site_label
_atom_site_type_symbol
_atom_site_fract_x
_atom_site_fract_y
_atom_site_fract_z
Zn1	Zn	1.135330	0.295821	-0.419578
Zn2	Zn	1.135251	0.420034	-0.295378
Zn3	Zn	1.011147	0.295839	-0.295436
Zn4	Zn	1.011110	0.419950	-0.419561
O5	O	1.073209	0.357911	-0.357489
O6	O	1.239244	0.312326	-0.403086
O7	O	1.118771	0.403602	-0.191462
O8	O	1.027669	0.191912	-0.311936
O9	O	1.239186	0.403585	-0.311837
O10	O	1.118906	0.191899	-0.403142
O11	O	1.027592	0.312356	-0.191504
O12	O	0.907217	0.312275	-0.311919
O13	O	1.027605	0.403442	-0.523488
O14	O	0.907190	0.403459	-0.403113
O15	O	1.118870	0.312245	-0.523501
O16	O	1.118734	0.523948	-0.311820
O17	O	1.027529	0.523886	-0.403056
C18	C	0.880257	0.357860	-0.357521
C19	C	0.797711	0.357857	-0.357552
C20	C	0.598267	0.407584	-0.407025
C21	C	0.548868	0.339865	-0.425306
C22	C	0.646581	0.357898	-0.357516
C23	C	0.548899	0.425656	-0.339234
C24	C	0.500596	0.357944	-0.357482
C25	C	0.598269	0.290143	-0.375831
C26	C	0.598304	0.375979	-0.289728
C27	C	0.548927	0.308213	-0.307983
C28	C	0.730679	0.357872	-0.357537
C29	C	0.416499	0.357962	-0.357461
C30	C	1.073139	0.550863	-0.357446
C31	C	1.073177	0.633409	-0.357453
C32	C	1.122864	0.832866	-0.307895
C33	C	1.140998	0.882192	-0.375667
C34	C	1.073209	0.784539	-0.357473
C35	C	1.055141	0.882295	-0.289722
C36	C	1.073241	0.930524	-0.357486
C37	C	1.091377	0.832778	-0.425280
C38	C	1.005489	0.832877	-0.339289
C39	C	1.023596	0.882180	-0.407108
C40	C	1.073192	0.700441	-0.357464
C41	C	1.073257	1.014621	-0.357502
C42	C	1.266915	0.357963	-0.357457
C43	C	1.349461	0.357984	-0.357443
C44	C	1.073242	0.357832	-0.551194
C45	C	1.073256	0.357798	-0.633740
C46	C	1.073283	1.164205	-0.357531
C47	C	1.073270	1.081660	-0.357507
C48	C	1.122935	0.308181	-0.833198
C49	C	1.055200	0.289992	-0.882613
C50	C	1.073286	0.357785	-0.784870
C51	C	1.141049	0.375927	-0.882537
C52	C	1.073321	0.357772	-0.930856
C53	C	1.005515	0.339561	-0.833198
C54	C	1.091409	0.425528	-0.833119
C55	C	1.023627	0.407365	-0.882511
C56	C	1.073267	0.357791	-0.700772
C57	C	1.073332	0.357766	-1.014952
C58	C	1.073219	0.357936	-0.164536
C59	C	1.073349	0.357761	-0.081991
H60	H	0.527153	0.324587	-0.482617
C61	C	0.627441	0.212734	-0.396796
N62	N	0.649415	0.154433	-0.412590
C63	C	0.966884	0.911249	-0.463820
N64	N	0.924170	0.933144	-0.506537
C65	C	0.627536	0.464253	-0.463649
N66	N	0.649581	0.506933	-0.506299
H67	H	1.198340	0.391276	-0.904214
H68	H	0.981606	0.449308	-0.904027
H69	H	1.106747	0.482806	-0.811364
H70	H	1.198281	0.903856	-0.391057
C71	C	0.519836	0.251410	-0.251404
N72	N	0.497922	0.208624	-0.208793
H73	H	1.039882	0.232698	-0.904353
H74	H	1.106615	0.811120	-0.482631
H75	H	0.620035	0.391278	-0.232433
C76	C	0.928095	0.318728	-0.804044
N77	N	0.869784	0.303034	-0.782082
H78	H	1.164853	0.266206	-0.811542
C79	C	1.179618	0.803602	-0.251323
N80	N	1.222366	0.781557	-0.208718
C81	C	0.519611	0.503044	-0.318356
N82	N	0.497557	0.561336	-0.302635
H83	H	0.948222	0.811197	-0.323879
C84	C	1.034474	0.911674	-0.212309
N85	N	1.018913	0.933798	-0.154001
