data_functionalizedCrystal
_audit_creation_method	'MofGen! by Chris Wilmer'
_symmetry_space_group_name_H-M	'P1'
_symmetry_Int_Tables_number	1
_symmetry_cell_setting	triclinic
loop_
_symmetry_equiv_pos_as_xyz
  x,y,z
_cell_length_a	10.489741
_cell_length_b	10.723024
_cell_length_c	9.798715
_cell_angle_alpha	89.996846
_cell_angle_beta	89.996897
_cell_angle_gamma	84.503522
loop_
_atom_site_label
_atom_site_type_symbol
_atom_site_fract_x
_atom_site_fract_y
_atom_site_fract_z
O1	O	0.178907	1.657296	-0.113481
O2	O	0.196031	1.294154	-0.113486
O3	O	0.001866	1.483988	-0.113475
O4	O	0.373072	1.467462	-0.113492
O5	O	0.001864	1.483975	0.113507
O6	O	0.196030	1.294141	0.113496
O7	O	0.178905	1.657283	0.113501
Zn8	Zn	0.187467	1.475710	0.149537
Zn9	Zn	0.187469	1.475727	-0.149522
O10	O	0.373071	1.467449	0.113490
C11	C	0.194785	1.247647	0.000005
C12	C	0.191056	1.109091	0.000003
C13	C	-0.045666	1.482734	0.000015
C14	C	-0.187293	1.478999	0.000012
C15	C	0.299701	1.034175	-0.000003
C16	C	0.295850	0.890969	-0.000004
C17	C	-0.255356	1.358213	0.000001
C18	C	-0.347515	1.415265	0.111915
C19	C	-0.347489	1.415307	-0.111871
C20	C	-0.277587	1.536101	0.112019
C21	C	-0.277551	1.536125	-0.111868
C22	C	-0.369683	1.593265	0.000074
C23	C	0.420602	1.468704	-0.000003
C24	C	0.562229	1.472438	-0.000009
C25	C	0.180152	1.703790	0.000007
C26	C	0.183881	1.842347	-0.000000
N27	N	0.187465	1.475707	0.353637
N28	N	0.187461	1.475740	-0.353622
C29	C	0.105764	1.555611	0.578573
C30	C	0.105765	1.555594	0.421410
H31	H	0.395567	1.076055	0.000001
H32	H	0.257409	1.407318	0.411938
H33	H	-0.246538	1.587195	-0.206487
F34	F	0.278894	1.386349	0.570182
F35	F	0.417423	0.806829	-0.000021
F36	F	0.062302	0.926479	-0.000004
F37	F	0.065748	1.054357	0.000018
H38	H	-0.205641	1.258904	0.000112
H39	H	-0.378419	1.364190	-0.206495
F40	F	-0.237337	1.602840	0.235826
F41	F	-0.434370	1.723184	0.000153
F42	F	-0.388008	1.348460	0.235585
H43	H	0.035816	1.623970	0.363100
F44	F	0.014342	1.645015	0.654767
