data_functionalizedCrystal
_audit_creation_method	'MofGen! by Chris Wilmer'
_symmetry_space_group_name_H-M	'P1'
_symmetry_Int_Tables_number	1
_symmetry_cell_setting	triclinic
loop_
_symmetry_equiv_pos_as_xyz
  x,y,z
_cell_length_a	14.519709
_cell_length_b	14.853567
_cell_length_c	12.996460
_cell_angle_alpha	89.997651
_cell_angle_beta	90.000034
_cell_angle_gamma	83.657537
loop_
_atom_site_label
_atom_site_type_symbol
_atom_site_fract_x
_atom_site_fract_y
_atom_site_fract_z
O1	O	-1.223821	-0.118181	0.085424
O2	O	-0.723821	0.381819	0.585424
O3	O	-0.955338	-0.132098	0.085454
O4	O	-0.455338	0.367902	0.585454
O5	O	-1.096751	0.006088	0.085441
O6	O	-0.596751	0.506088	0.585441
O7	O	-1.082408	-0.256366	0.085437
O8	O	-0.582408	0.243634	0.585437
O9	O	-1.096736	0.006095	-0.085692
O10	O	-0.596736	0.506095	0.414308
O11	O	-0.955323	-0.132090	-0.085679
O12	O	-0.455323	0.367910	0.414321
O13	O	-1.223806	-0.118173	-0.085710
O14	O	-0.723806	0.381827	0.414290
Cu15	Cu	-1.089563	-0.125131	-0.101321
Cu16	Cu	-0.589563	0.374869	0.398679
Cu17	Cu	-1.089581	-0.125140	0.101065
Cu18	Cu	-0.589581	0.374860	0.601065
O19	O	-1.082393	-0.256359	-0.085697
O20	O	-0.582393	0.243641	0.414303
C21	C	-0.920971	-0.131446	-0.000109
C22	C	-0.420971	0.368554	0.499891
C23	C	-0.818591	-0.129502	-0.000097
C24	C	-0.318591	0.370498	0.499903
C25	C	-1.096094	0.039680	-0.000122
C26	C	-0.596094	0.539680	0.499878
C27	C	-1.094146	0.139765	-0.000113
C28	C	-0.594146	0.639765	0.499887
C29	C	-1.258173	-0.118826	-0.000145
C30	C	-0.758173	0.381174	0.499855
C31	C	-1.360553	-0.120769	-0.000150
C32	C	-0.860553	0.379231	0.499850
C33	C	-0.443698	-0.122347	-0.000143
C34	C	0.056302	0.377653	0.499857
C35	C	-0.548005	-0.124334	-0.000130
C36	C	-0.048005	0.375666	0.499870
C37	C	-0.631141	-0.125924	-0.000119
C38	C	-0.131141	0.374076	0.499881
C39	C	-0.735455	-0.127912	-0.000108
C40	C	-0.235455	0.372088	0.499892
C41	C	-1.083050	-0.289952	-0.000131
C42	C	-0.583050	0.210048	0.499869
C43	C	-1.084998	-0.390036	-0.000133
C44	C	-0.584998	0.109964	0.499867
N45	N	-1.089558	-0.125124	-0.243668
N46	N	-0.589558	0.374876	0.256332
C47	C	-1.001911	0.552334	-0.000122
C48	C	-0.501911	1.052334	0.499878
C49	C	-1.169913	0.573550	-0.000141
C50	C	-0.669913	1.073550	0.499859
C51	C	-1.171744	0.479516	-0.000135
C52	C	-0.671744	0.979516	0.499865
C53	C	-1.088658	0.421886	-0.000125
C54	C	-0.588658	0.921886	0.499875
C55	C	-1.003740	0.458291	-0.000120
C56	C	-0.503740	0.958291	0.499880
C57	C	-1.256661	0.443104	-0.000151
C58	C	-0.756661	0.943104	0.499849
C59	C	-1.258495	0.349064	-0.000146
C60	C	-0.758495	0.849064	0.499854
C61	C	-1.175408	0.291433	-0.000128
C62	C	-0.675408	0.791433	0.499872
C63	C	-1.090486	0.327843	-0.000122
C64	C	-0.590486	0.827843	0.499878
C65	C	-1.007400	0.270213	-0.000111
C66	C	-0.507400	0.770213	0.499889
C67	C	-0.922478	0.306621	-0.000098
C68	C	-0.422478	0.806621	0.499902
C69	C	-0.920653	0.400660	-0.000101
C70	C	-0.420653	0.900660	0.499899
C71	C	-1.177233	0.197394	-0.000124
C72	C	-0.677233	0.697394	0.499876
C73	C	-1.009229	0.176170	-0.000108
C74	C	-0.509229	0.676170	0.499892
C75	C	-1.089580	-0.125141	-0.663482
C76	C	-0.589580	0.374859	-0.163482
C77	C	-1.089571	-0.125139	-0.546677
C78	C	-0.589571	0.374861	-0.046677
C79	C	-1.089569	-0.125133	-0.453579
C80	C	-0.589569	0.374867	0.046421
C81	C	-1.089559	-0.125130	-0.336766
C82	C	-0.589559	0.374870	0.163234
N83	N	-1.089594	-0.125140	0.243412
N84	N	-0.589594	0.374860	0.743412
H85	H	-0.854829	0.259687	-0.000096
H86	H	-0.354829	0.759687	0.499904
O87	O	-0.829063	0.439925	-0.000109
O88	O	-0.329063	0.939925	0.499891
H89	H	-0.841753	0.514998	-0.000131
H90	H	-0.341753	1.014998	0.499869
H91	H	-0.941568	0.129253	-0.000095
H92	H	-0.441568	0.629253	0.499905
O93	O	-0.910318	0.591593	-0.000120
O94	O	-0.410318	1.091593	0.499880
H95	H	-0.922999	0.666666	-0.000131
H96	H	-0.422999	1.166666	0.499869
H97	H	-1.327644	0.319429	-0.000156
H98	H	-0.827644	0.819429	0.499844
H99	H	-1.237558	0.620477	-0.000158
H100	H	-0.737558	1.120477	0.499842
H101	H	-1.324305	0.490032	-0.000169
H102	H	-0.824305	0.990032	0.499831
H103	H	-1.246375	0.167755	-0.000142
H104	H	-0.746375	0.667755	0.499858
