data_functionalizedCrystal
_audit_creation_method	'MofGen! by Chris Wilmer'
_symmetry_space_group_name_H-M	'P1'
_symmetry_Int_Tables_number	1
_symmetry_cell_setting	triclinic
loop_
_symmetry_equiv_pos_as_xyz
  x,y,z
_cell_length_a	17.699083
_cell_length_b	10.868271
_cell_length_c	17.699083
_cell_angle_alpha	90.005832
_cell_angle_beta	96.716985
_cell_angle_gamma	90.001072
loop_
_atom_site_label
_atom_site_type_symbol
_atom_site_fract_x
_atom_site_fract_y
_atom_site_fract_z
O1	O	1.004076	-0.102152	-0.095711
O2	O	1.504076	0.397848	0.404289
O3	O	0.783698	-0.102193	-0.108164
O4	O	1.283698	0.397807	0.391836
O5	O	0.900113	-0.102161	0.008252
O6	O	1.400113	0.397839	0.508252
O7	O	0.887661	-0.102185	-0.212127
O8	O	1.387661	0.397815	0.287873
O9	O	0.900102	0.102484	0.008255
O10	O	1.400102	0.602484	0.508255
O11	O	0.783687	0.102452	-0.108160
O12	O	1.283687	0.602452	0.391840
O13	O	1.004065	0.102492	-0.095707
O14	O	1.504065	0.602492	0.404293
Zn15	Zn	0.893874	0.134964	-0.101933
Zn16	Zn	1.393874	0.634964	0.398067
Zn17	Zn	0.893889	-0.134664	-0.101938
Zn18	Zn	1.393889	0.365336	0.398062
O19	O	0.887650	0.102460	-0.212123
O20	O	1.387650	0.602460	0.287877
C21	C	0.755495	0.000124	-0.107716
C22	C	1.255495	0.500124	0.392284
C23	C	0.671477	0.000109	-0.106377
C24	C	1.171477	0.500109	0.393623
N25	N	0.893870	0.318978	-0.101929
N26	N	1.393870	0.818978	0.398071
C27	C	0.622856	0.000102	-0.174710
C28	C	1.122856	0.500102	0.325290
C29	C	0.543913	0.000118	-0.173448
C30	C	1.043913	0.500118	0.326552
C31	C	0.513592	0.000133	-0.103852
C32	C	1.013592	0.500133	0.396148
C33	C	0.562219	0.000143	-0.035513
C34	C	1.062219	0.500143	0.464487
C35	C	0.641161	0.000136	-0.036776
C36	C	1.141161	0.500136	0.463224
C37	C	0.243856	0.000174	-0.030418
C38	C	0.743856	0.500174	0.469582
C39	C	0.164908	0.000178	-0.029160
C40	C	0.664908	0.500178	0.470840
C41	C	0.146608	0.000156	-0.167090
C42	C	0.646608	0.500156	0.332910
C43	C	0.225550	0.000149	-0.168353
C44	C	0.725550	0.500149	0.331647
C45	C	0.274170	0.000166	-0.100015
C46	C	0.774170	0.500166	0.399985
C47	C	0.359769	0.000151	-0.101384
C48	C	0.859769	0.500151	0.398616
C49	C	0.427995	0.000139	-0.102481
C50	C	0.927995	0.500139	0.397519
C51	C	0.893880	0.569984	-0.101939
C52	C	1.393880	1.069984	0.398061
C53	C	0.893872	0.430306	-0.101936
C54	C	1.393872	0.930306	0.398064
C55	C	1.032268	0.000173	-0.096156
C56	C	1.532268	0.500173	0.403844
C57	C	1.116286	0.000180	-0.097494
C58	C	1.616286	0.500180	0.402506
C59	C	0.899662	0.000162	0.036451
C60	C	1.399662	0.500162	0.536451
C61	C	0.898323	0.000162	0.120469
C62	C	1.398323	0.500162	0.620469
N63	N	0.893892	0.681322	-0.101939
N64	N	1.393892	1.181322	0.398061
C65	C	0.888102	0.000135	-0.240322
C66	C	1.388102	0.500135	0.259678
C67	C	0.889440	0.000127	-0.324340
C68	C	1.389440	0.500127	0.175660
C69	C	0.966656	0.000176	0.169090
C70	C	1.466656	0.500176	0.669090
C71	C	0.965394	0.000165	0.248033
C72	C	1.465394	0.500165	0.748033
C73	C	0.895798	0.000149	0.278354
C74	C	1.395798	0.500149	0.778354
C75	C	0.827459	0.000131	0.229727
C76	C	1.327459	0.500131	0.729727
C77	C	0.828722	0.000133	0.150785
C78	C	1.328722	0.500133	0.650785
C79	C	0.822364	0.000120	0.548090
C80	C	1.322364	0.500120	1.048090
C81	C	0.821106	0.000121	0.627038
C82	C	1.321106	0.500121	1.127038
C83	C	0.959036	0.000152	0.645338
C84	C	1.459036	0.500152	1.145338
C85	C	0.960299	0.000154	0.566396
C86	C	1.460299	0.500154	1.066396
C87	C	0.891961	0.000130	0.517776
C88	C	1.391961	0.500130	1.017776
C89	C	0.893330	0.000140	0.432177
C90	C	1.393330	0.500140	0.932177
C91	C	0.894427	0.000148	0.363951
C92	C	1.394427	0.500148	0.863951
H93	H	0.647537	0.000090	-0.231384
H94	H	1.147537	0.500090	0.268616
H95	H	0.250232	0.000132	-0.225025
H96	H	0.750232	0.500132	0.274975
H97	H	0.764429	0.000110	0.651721
H98	H	1.264429	0.500110	1.151721
H99	H	1.014680	0.000166	0.684934
H100	H	1.514680	0.500166	1.184934
H101	H	0.766718	0.000100	0.508512
H102	H	1.266718	0.500100	1.008512
H103	H	0.107012	0.000149	-0.222734
H104	H	0.607012	0.500149	0.277266
H105	H	0.283434	0.000189	0.025228
H106	H	0.783434	0.500189	0.525228
H107	H	1.016971	0.000174	0.541714
H108	H	1.516971	0.500174	1.041714
H109	H	1.023330	0.000198	0.144409
H110	H	1.523330	0.500198	0.644409
H111	H	1.021038	0.000180	0.287618
H112	H	1.521038	0.500180	0.787618
H113	H	0.140225	0.000191	0.027517
H114	H	0.640225	0.500191	0.527517
H115	H	0.770792	0.000109	0.254420
H116	H	1.270792	0.500109	0.754420
H117	H	0.537526	0.000173	0.021154
H118	H	1.037526	0.500173	0.521154
H119	H	0.680748	0.000141	0.018868
H120	H	1.180748	0.500141	0.518868
H121	H	0.773078	0.000121	0.111198
H122	H	1.273078	0.500121	0.611198
H123	H	0.504328	0.000111	-0.229092
H124	H	1.004328	0.500111	0.270908
