data_functionalizedCrystal
_audit_creation_method	'MofGen! by Chris Wilmer'
_symmetry_space_group_name_H-M	'P1'
_symmetry_Int_Tables_number	1
_symmetry_cell_setting	triclinic
loop_
_symmetry_equiv_pos_as_xyz
  x,y,z
_cell_length_a	15.995350
_cell_length_b	15.995350
_cell_length_c	14.472310
_cell_angle_alpha	89.998838
_cell_angle_beta	89.990621
_cell_angle_gamma	96.507625
loop_
_atom_site_label
_atom_site_type_symbol
_atom_site_fract_x
_atom_site_fract_y
_atom_site_fract_z
O1	O	1.110997	-0.107921	-0.076758
O2	O	1.610997	0.392079	0.423242
O3	O	0.867221	-0.121248	-0.076776
O4	O	1.367221	0.378752	0.423224
O5	O	0.995773	0.007303	-0.076766
O6	O	1.495773	0.507303	0.423234
O7	O	0.982445	-0.236472	-0.076769
O8	O	1.482445	0.263528	0.423231
O9	O	0.995740	0.007296	0.076916
O10	O	1.495740	0.507296	0.576916
O11	O	0.867188	-0.121256	0.076906
O12	O	1.367188	0.378744	0.576906
O13	O	1.110963	-0.107928	0.076924
O14	O	1.610963	0.392072	0.576924
Cu15	Cu	0.989073	-0.114593	0.090947
Cu16	Cu	1.489073	0.385407	0.590947
Cu17	Cu	0.989112	-0.114584	-0.090800
Cu18	Cu	1.489112	0.385416	0.409200
O19	O	0.982412	-0.236480	0.076913
O20	O	1.482412	0.263520	0.576913
C21	C	0.836010	-0.120701	0.000062
C22	C	1.336010	0.379299	0.500062
C23	C	0.743060	-0.119049	0.000055
C24	C	1.243060	0.380951	0.500055
C25	C	0.405312	-0.113117	0.000074
C26	C	0.905312	0.386883	0.500074
C27	C	0.452746	-0.021565	0.000418
C28	C	0.952746	0.478435	0.500418
C29	C	0.549436	-0.023217	0.000065
C30	C	1.049436	0.476783	0.500065
C31	C	0.572873	-0.116060	0.000065
C32	C	1.072873	0.383940	0.500065
C33	C	0.531804	-0.161212	-0.087692
C34	C	1.031804	0.338788	0.412308
C35	C	0.435169	-0.158912	-0.087759
C36	C	0.935169	0.341088	0.412241
C37	C	0.434792	-0.160812	0.087007
C38	C	0.934792	0.339188	0.587007
C39	C	0.531737	-0.160790	0.088160
C40	C	1.031737	0.339210	0.588160
C41	C	0.667570	-0.117727	0.000057
C42	C	1.167570	0.382273	0.500057
C43	C	0.310614	-0.111452	0.000076
C44	C	0.810614	0.388548	0.500076
C45	C	0.995205	0.038494	0.000073
C46	C	1.495205	0.538494	0.500073
C47	C	0.993553	0.131444	0.000068
C48	C	1.493553	0.631444	0.500068
C49	C	1.142175	-0.108476	0.000083
C50	C	1.642175	0.391524	0.500083
C51	C	1.235125	-0.110127	0.000084
C52	C	1.735125	0.389873	0.500084
C53	C	0.982980	-0.267671	0.000072
C54	C	1.482980	0.232329	0.500072
C55	C	0.984631	-0.360621	0.000071
C56	C	1.484631	0.139379	0.500071
N57	N	0.989051	-0.114598	0.218778
N58	N	1.489051	0.385402	0.718778
C59	C	0.987621	0.469192	0.000071
C60	C	1.487621	0.969192	0.500071
C61	C	0.896069	0.421758	-0.000281
C62	C	1.396069	0.921758	0.499719
C63	C	0.897721	0.325068	0.000066
C64	C	1.397721	0.825068	0.500066
C65	C	0.990564	0.301631	0.000069
C66	C	1.490564	0.801631	0.500069
C67	C	1.035701	0.342705	0.087831
C68	C	1.535701	0.842705	0.587831
C69	C	1.033401	0.439340	0.087904
C70	C	1.533401	0.939340	0.587904
C71	C	1.035330	0.439707	-0.086861
C72	C	1.535330	0.939707	0.413139
C73	C	1.035309	0.342762	-0.088021
C74	C	1.535309	0.842762	0.411979
C75	C	0.992231	0.206934	0.000071
C76	C	1.492231	0.706934	0.500071
C77	C	0.985956	0.563890	0.000075
C78	C	1.485956	1.063890	0.500075
N79	N	0.989140	-0.114572	-0.218631
N80	N	1.489140	0.385428	0.281369
C81	C	0.989111	-0.114581	0.592869
C82	C	1.489111	0.385419	1.092869
C83	C	0.920095	-0.183135	0.553698
C84	C	1.420095	0.316865	1.053698
C85	C	0.920254	-0.183385	0.446610
C86	C	1.420254	0.316615	0.946610
C87	C	0.989081	-0.114590	0.407278
C88	C	1.489081	0.385410	0.907278
C89	C	1.076445	-0.133671	0.446122
C90	C	1.576445	0.366329	0.946122
C91	C	1.076057	-0.134159	0.553243
C92	C	1.576057	0.365841	1.053243
C93	C	0.971542	-0.026741	0.553398
C94	C	1.471542	0.473259	1.053398
C95	C	0.969538	-0.027327	0.446270
C96	C	1.469538	0.472673	0.946270
C97	C	0.989069	-0.114593	0.302390
C98	C	1.489069	0.385407	0.802390
C99	C	0.989128	-0.114579	0.697757
C100	C	1.489128	0.385421	1.197757
H101	H	0.402921	-0.226128	-0.091741
H102	H	0.902921	0.273872	0.408259
H103	H	1.091540	-0.198219	0.578220
H104	H	1.591540	0.301781	1.078220
H105	H	1.021872	0.024275	0.578728
H106	H	1.521872	0.524275	1.078728
N107	N	0.853205	0.289423	-0.078856
N108	N	1.353205	0.789423	0.421144
N109	N	0.820694	0.335950	-0.134578
N110	N	1.320694	0.835950	0.365422
H111	H	0.789248	0.310780	-0.190318
H112	H	1.289248	0.810780	0.309682
N113	N	1.120251	0.323507	-0.094655
N114	N	1.620251	0.823507	0.405345
N115	N	1.179572	0.381543	-0.094877
N116	N	1.679572	0.881543	0.405123
H117	H	1.239567	0.367945	-0.099553
H118	H	1.739567	0.867945	0.400447
N119	N	1.096325	-0.213129	0.412481
N120	N	1.596325	0.286871	0.912481
N121	N	1.107448	-0.270672	0.468038
N122	N	1.607448	0.229328	0.968038
H123	H	1.121483	-0.326793	0.444283
H124	H	1.621483	0.173207	0.944283
H125	H	1.100617	0.471588	0.091888
H126	H	1.600617	0.971588	0.591888
N127	N	0.429470	0.024320	0.079374
N128	N	0.929470	0.524320	0.579374
N129	N	0.395990	0.090603	0.068929
N130	N	0.895990	0.590603	0.568929
H131	H	0.379543	0.123000	0.124701
H132	H	0.879543	0.623000	0.624701
N133	N	0.996323	0.307106	0.169753
N134	N	1.496323	0.807106	0.669753
N135	N	0.920249	0.313137	0.184561
N136	N	1.420249	0.813137	0.684561
H137	H	0.892432	0.287997	0.242417
H138	H	1.392432	0.787997	0.742417
H139	H	0.433166	0.014865	-0.062168
H140	H	0.933166	0.514865	0.437832
H141	H	0.931159	-0.247952	0.580608
H142	H	1.431159	0.252048	1.080608
N143	N	1.120003	0.479566	-0.087611
N144	N	1.620003	0.979566	0.412389
N145	N	1.145746	0.525520	-0.153935
N146	N	1.645746	1.025520	0.346065
H147	H	1.205543	0.553675	-0.154458
H148	H	1.705543	1.053675	0.345542
H149	H	0.931473	-0.248569	0.420976
H150	H	1.431473	0.251431	0.920976
H151	H	0.414242	-0.130885	0.153524
H152	H	0.914242	0.369115	0.653524
H153	H	0.577308	0.012521	-0.062951
H154	H	1.077308	0.512521	0.437049
N155	N	0.565978	-0.119424	0.169599
N156	N	1.065978	0.380576	0.669599
N157	N	0.620475	-0.057231	0.162857
N158	N	1.120475	0.442769	0.662857
H159	H	0.644663	-0.028014	0.220372
H160	H	1.144663	0.471986	0.720372
H161	H	0.905272	-0.012845	0.420883
H162	H	1.405272	0.487155	0.920883
H163	H	0.909219	-0.008392	0.580461
H164	H	1.409219	0.491608	1.080461
N165	N	0.394946	-0.245489	0.087742
N166	N	0.894946	0.254511	0.587742
N167	N	0.345042	-0.270700	0.024587
N168	N	0.845042	0.229300	0.524587
H169	H	0.316897	-0.330500	0.025099
H170	H	0.816897	0.169500	0.525099
N171	N	0.997799	0.465490	-0.170302
N172	N	1.497799	0.965490	0.329698
N173	N	0.935424	0.505915	-0.166708
N174	N	1.435424	1.005915	0.333292
H175	H	0.908910	0.524127	-0.225634
H176	H	1.408910	1.024127	0.274366
N177	N	0.585077	0.021316	0.078980
N178	N	1.085077	0.521316	0.578980
N179	N	0.538547	0.053839	0.134701
N180	N	1.038547	0.553839	0.634701
H181	H	0.563715	0.085298	0.190435
H182	H	1.063715	0.585298	0.690435
H183	H	0.859490	0.440293	-0.063217
H184	H	1.359490	0.940293	0.436783
N185	N	0.992077	0.462318	0.170191
N186	N	1.492077	0.962318	0.670191
N187	N	1.030292	0.512102	0.226531
N188	N	1.530292	1.012102	0.726531
H189	H	1.001105	0.528327	0.284647
H190	H	1.501105	1.028327	0.784647
H191	H	0.416874	-0.125979	-0.153359
H192	H	0.916874	0.374021	0.346641
N193	N	0.551017	-0.245723	0.094804
N194	N	1.051017	0.254277	0.594804
N195	N	0.595582	-0.274800	0.034447
N196	N	1.095582	0.225200	0.534447
H197	H	0.609198	-0.334787	0.039132
H198	H	1.109198	0.165213	0.539132
N199	N	0.850368	0.446304	0.078250
N200	N	1.350368	0.946304	0.578250
N201	N	0.821895	0.392372	0.136063
N202	N	1.321895	0.892372	0.636063
H203	H	0.789626	0.409705	0.191534
H204	H	1.289626	0.909705	0.691534
H205	H	0.855314	-0.172016	0.420349
H206	H	1.355314	0.327984	0.920349
H207	H	0.861973	0.297200	0.063079
H208	H	1.361973	0.797200	0.563079
H209	H	0.854945	-0.171953	0.579481
H210	H	1.354945	0.328047	1.079481
N211	N	0.549510	-0.246783	-0.091787
N212	N	1.049510	0.253217	0.408213
N213	N	0.525967	-0.296486	-0.027836
N214	N	1.025967	0.203514	0.472164
H215	H	0.538471	-0.356922	-0.030726
H216	H	1.038471	0.143078	0.469274
H217	H	1.129018	-0.086196	0.579154
H218	H	1.629018	0.413804	1.079154
N219	N	1.121268	0.324984	0.091919
N220	N	1.621268	0.824984	0.591919
N221	N	1.150004	0.281781	0.030050
N222	N	1.650004	0.781781	0.530050
H223	H	1.210436	0.269265	0.032934
H224	H	1.710436	0.769265	0.532934
N225	N	0.993962	0.308490	-0.169456
N226	N	1.493962	0.808490	0.330544
N227	N	0.989685	0.231282	-0.185174
N228	N	1.489685	0.731282	0.314826
H229	H	0.960481	0.207067	-0.242682
H230	H	1.460481	0.707067	0.257318
N231	N	0.567445	-0.121879	-0.169618
N232	N	1.067445	0.378121	0.330382
N233	N	0.623078	-0.060603	-0.163602
N234	N	1.123078	0.439397	0.336398
H235	H	0.648258	-0.032827	-0.221461
H236	H	1.148258	0.467173	0.278539
N237	N	1.142406	-0.072694	0.414159
N238	N	1.642406	0.427306	0.914159
N239	N	1.125723	-0.014354	0.362269
N240	N	1.625723	0.485646	0.862269
H241	H	1.172306	0.028714	0.339693
H242	H	1.672306	0.528714	0.839693
N243	N	1.028517	0.039659	0.412690
N244	N	1.528517	0.539659	0.912690
N245	N	1.105199	0.039880	0.429457
N246	N	1.605199	0.539880	0.929457
H247	H	1.146862	0.087185	0.405742
H248	H	1.646862	0.587185	0.905742
