data_functionalizedCrystal
_audit_creation_method	'MofGen! by Chris Wilmer'
_symmetry_space_group_name_H-M	'P1'
_symmetry_Int_Tables_number	1
_symmetry_cell_setting	triclinic
loop_
_symmetry_equiv_pos_as_xyz
  x,y,z
_cell_length_a	9.798715
_cell_length_b	16.992694
_cell_length_c	16.992695
_cell_angle_alpha	90.668223
_cell_angle_beta	89.996563
_cell_angle_gamma	90.001906
loop_
_atom_site_label
_atom_site_type_symbol
_atom_site_fract_x
_atom_site_fract_y
_atom_site_fract_z
O1	O	0.113321	-1.050850	-0.166915
O2	O	0.613321	-0.550850	0.333085
O3	O	0.113361	-0.822450	-0.165084
O4	O	0.613361	-0.322450	0.334916
O5	O	0.113331	-0.935734	-0.051799
O6	O	0.613331	-0.435734	0.448201
O7	O	0.113352	-0.937565	-0.280199
O8	O	0.613352	-0.437565	0.219801
O9	O	-0.113652	-0.935725	-0.051798
O10	O	0.386348	-0.435725	0.448202
O11	O	-0.113621	-0.822441	-0.165083
O12	O	0.386379	-0.322441	0.334917
O13	O	-0.113661	-1.050841	-0.166914
O14	O	0.386339	-0.550841	0.333086
Zn15	Zn	-0.149679	-0.936639	-0.165998
Zn16	Zn	0.350321	-0.436639	0.334002
Zn17	Zn	0.149380	-0.936651	-0.165999
Zn18	Zn	0.649380	-0.436651	0.334001
O19	O	-0.113630	-0.937556	-0.280198
O20	O	0.386370	-0.437556	0.219802
C21	C	-0.000125	-0.793085	-0.162727
C22	C	0.499875	-0.293085	0.337273
C23	C	-0.000110	-0.705600	-0.155699
C24	C	0.499890	-0.205600	0.344301
C25	C	-0.000160	-0.933374	-0.022439
C26	C	0.499840	-0.433374	0.477561
C27	C	-0.000158	-0.926345	0.065046
C28	C	0.499842	-0.426345	0.565046
N29	N	-0.353779	-0.936637	-0.165997
N30	N	0.146221	-0.436637	0.334003
C31	C	-0.421569	-0.984190	-0.118211
C32	C	0.078431	-0.484190	0.381789
C33	C	-0.578731	-0.984202	-0.118209
C34	C	-0.078731	-0.484202	0.381791
N35	N	0.353479	-0.936659	-0.165994
N36	N	0.853479	-0.436659	0.334006
C37	C	-0.000172	-1.080205	-0.169270
C38	C	0.499828	-0.580205	0.330730
C39	C	-0.000178	-1.167690	-0.176299
C40	C	0.499822	-0.667690	0.323701
C41	C	-0.000104	-0.659610	-0.223517
C42	C	0.499896	-0.159610	0.276483
C43	C	-0.000124	-0.577409	-0.216908
C44	C	0.499876	-0.077409	0.283092
C45	C	-0.000139	-0.541201	-0.142480
C46	C	0.499861	-0.041201	0.357520
C47	C	-0.000148	-0.587198	-0.074657
C48	C	0.499852	-0.087198	0.425343
C49	C	-0.000138	-0.669397	-0.081267
C50	C	0.499862	-0.169397	0.418733
C51	C	-0.000178	-0.295886	-0.115086
C52	C	0.499822	0.204114	0.384914
C53	C	-0.000183	-0.213681	-0.108481
C54	C	0.499817	0.286319	0.391519
C55	C	-0.000162	-0.203898	-0.250732
C56	C	0.499838	0.296102	0.249268
C57	C	-0.000144	-0.286099	-0.257336
C58	C	0.499856	0.213901	0.242664
C59	C	-0.000160	-0.332089	-0.189512
C60	C	0.499840	0.167911	0.310488
N61	N	-0.000154	-0.457178	-0.135723
N62	N	0.499846	0.042822	0.364277
N63	N	-0.000154	-0.416110	-0.196270
N64	N	0.499846	0.083890	0.303730
C65	C	-0.000137	-0.939917	-0.309559
C66	C	0.499863	-0.439917	0.190441
C67	C	-0.000129	-0.946945	-0.397044
C68	C	0.499871	-0.446945	0.102956
C69	C	-0.000172	-0.994163	0.111037
C70	C	0.499828	-0.494163	0.611037
C71	C	-0.000158	-0.987554	0.193238
C72	C	0.499842	-0.487554	0.693238
C73	C	-0.000140	-0.913127	0.229446
C74	C	0.499860	-0.413127	0.729446
C75	C	-0.000122	-0.845303	0.183449
C76	C	0.499878	-0.345303	0.683449
C77	C	-0.000127	-0.851913	0.101250
C78	C	0.499873	-0.351913	0.601250
C79	C	-0.000116	-0.885732	0.474760
C80	C	0.499884	-0.385732	0.974760
C81	C	-0.000116	-0.879127	0.556966
C82	C	0.499884	-0.379127	1.056966
C83	C	-0.000149	-1.021379	0.566749
C84	C	0.499851	-0.521379	1.066749
C85	C	-0.000161	-1.027982	0.484547
C86	C	0.499839	-0.527982	0.984547
C87	C	-0.000136	-0.960159	0.438558
C88	C	0.499864	-0.460159	0.938558
N89	N	-0.000130	-0.906369	0.313468
N90	N	0.499870	-0.406369	0.813468
N91	N	-0.000137	-0.966917	0.354537
N92	N	0.499863	-0.466917	0.854537
H93	H	-0.363257	-1.024890	-0.077297
H94	H	0.136743	-0.524890	0.422703
H95	H	-0.000097	-0.830505	0.437325
H96	H	0.499903	-0.330505	0.937325
H97	H	-0.000171	-1.042779	0.230680
H98	H	0.499829	-0.542779	0.730680
Br99	Br	-0.000112	-0.514995	-0.308951
Br100	Br	0.499888	-0.014995	0.191049
Br101	Br	-0.675888	-1.052069	-0.050022
Br102	Br	-0.175888	-0.552069	0.449978
H103	H	-0.412092	-0.895931	-0.206905
H104	H	0.087908	-0.395931	0.293095
H105	H	-0.000091	-0.689084	-0.284124
H106	H	0.499909	-0.189084	0.215876
Br107	Br	-0.000215	-1.095177	0.061905
Br108	Br	0.499785	-0.595177	0.561905
H109	H	-0.000116	-0.315574	-0.317942
H110	H	0.499884	0.184426	0.182058
H111	H	-0.000194	-0.184203	-0.047870
H112	H	0.499806	0.315797	0.452130
H113	H	-0.588233	-0.895948	-0.206912
H114	H	-0.088233	-0.395948	0.293088
Br115	Br	-0.000141	-0.141480	-0.342773
Br116	Br	0.499859	0.358520	0.157227
H117	H	-0.000192	-0.333322	-0.059859
H118	H	0.499808	0.166678	0.440141
Br119	Br	-0.000182	-0.538059	0.026353
Br120	Br	0.499818	-0.038059	0.526353
Br121	Br	-0.000157	-0.731814	0.010776
Br122	Br	0.499843	-0.231814	0.510776
Br123	Br	-0.000141	-1.128995	0.435413
Br124	Br	0.499859	-0.628995	0.935413
H125	H	-0.000166	-1.076596	0.604202
H126	H	0.499834	-0.576596	1.104202
Br127	Br	-0.000106	-0.778112	0.606105
Br128	Br	0.499894	-0.278112	1.106105
H129	H	-0.000099	-0.784703	0.212936
H130	H	0.499901	-0.284703	0.712936
H131	H	-0.000116	-0.796688	0.063804
H132	H	0.499884	-0.296688	0.563804
