data_functionalizedCrystal
_audit_creation_method	'MofGen! by Chris Wilmer'
_symmetry_space_group_name_H-M	'P1'
_symmetry_Int_Tables_number	1
_symmetry_cell_setting	triclinic
loop_
_symmetry_equiv_pos_as_xyz
  x,y,z
_cell_length_a	11.026607
_cell_length_b	9.482900
_cell_length_c	10.967829
_cell_angle_alpha	92.505610
_cell_angle_beta	96.380563
_cell_angle_gamma	101.363848
loop_
_atom_site_label
_atom_site_type_symbol
_atom_site_fract_x
_atom_site_fract_y
_atom_site_fract_z
O1	O	1.652490	0.244293	0.492562
O2	O	1.296438	0.229820	0.434783
O3	O	1.475836	0.193388	0.289387
O4	O	1.473091	0.280725	0.637957
O5	O	1.439404	-0.040966	0.319072
O6	O	1.260005	-0.004534	0.464468
O7	O	1.616057	0.009939	0.522246
Cu8	Cu	1.434704	-0.018696	0.496067
Cu9	Cu	1.477790	0.258455	0.460962
O10	O	1.436658	0.046371	0.667642
C11	C	1.232504	0.109973	0.438966
C12	C	1.096279	0.102013	0.407191
N13	N	1.404409	-0.213629	0.520760
C14	C	1.026645	0.123997	0.494927
C15	C	0.885850	0.115771	0.462088
C16	C	1.468846	-0.298989	0.468237
C17	C	1.443649	-0.461256	0.488793
C18	C	1.679991	0.129789	0.518063
C19	C	1.816217	0.137758	0.549837
C20	C	1.454668	0.064859	0.258911
C21	C	1.445856	0.031034	0.123873
N22	N	1.508095	0.453386	0.436262
C23	C	1.460801	0.137357	0.048298
C24	C	1.451693	0.102399	-0.091271
C25	C	1.457828	0.174903	0.698118
C26	C	1.466641	0.208738	0.833154
H27	H	1.071262	0.148901	0.594354
H28	H	1.426311	-0.085874	0.085249
C29	C	1.425295	-0.055550	-0.143438
N30	N	1.405412	-0.174515	-0.182733
C31	C	1.493035	0.366688	-0.114682
N32	N	1.512917	0.485654	-0.075391
H33	H	0.841243	0.090894	0.362651
H34	H	1.542662	-0.251943	0.408046
C35	C	1.036009	0.068357	0.272868
N36	N	0.990615	0.043009	0.171692
C37	C	0.876480	0.171417	0.684167
N38	N	0.921871	0.196771	0.785343
H39	H	1.369819	-0.508300	0.548977
C40	C	1.304674	-0.277186	0.602064
N41	N	1.229551	-0.325055	0.663305
C42	C	1.607837	-0.483066	0.354954
N43	N	1.682965	-0.435200	0.293718
C44	C	1.487203	0.295298	0.100471
N45	N	1.507094	0.414263	0.139766
