data_functionalizedCrystal
_audit_creation_method	'MofGen! by Chris Wilmer'
_symmetry_space_group_name_H-M	'P1'
_symmetry_Int_Tables_number	1
_symmetry_cell_setting	triclinic
loop_
_symmetry_equiv_pos_as_xyz
  x,y,z
_cell_length_a	12.759394
_cell_length_b	10.686154
_cell_length_c	10.686551
_cell_angle_alpha	89.693980
_cell_angle_beta	85.593446
_cell_angle_gamma	85.606228
loop_
_atom_site_label
_atom_site_type_symbol
_atom_site_fract_x
_atom_site_fract_y
_atom_site_fract_z
Zn1	Zn	-0.256214	-1.972293	-0.562445
Zn2	Zn	-0.446374	-1.956064	-0.352683
Zn3	Zn	-0.283082	-1.746411	-0.368755
Zn4	Zn	-0.444237	-1.762493	-0.578454
O5	O	-0.357477	-1.859315	-0.465584
O6	O	-0.271089	-2.145682	-0.521194
O7	O	-0.436851	-1.914730	-0.179269
O8	O	-0.132491	-1.776436	-0.394475
O9	O	-0.410799	-2.133759	-0.367082
O10	O	-0.112752	-1.942390	-0.536779
O11	O	-0.316881	-1.760699	-0.191077
O12	O	-0.314809	-1.573002	-0.409998
O13	O	-0.407158	-1.803846	-0.751877
O14	O	-0.433210	-1.584818	-0.564063
O15	O	-0.269018	-1.957985	-0.740115
O16	O	-0.593117	-1.930325	-0.382605
O17	O	-0.591548	-1.788110	-0.548479
C18	C	-0.630451	-1.859238	-0.465560
C19	C	-0.747221	-1.859322	-0.465583
C20	C	-0.376694	-1.533394	-0.490513
C21	C	-0.384938	-1.393965	-0.501207
C22	C	-0.334852	-1.884520	-0.792786
C23	C	-0.325211	-1.895261	-0.932220
C24	C	-0.748786	-2.007541	-0.292970
C25	C	-0.804427	-2.081684	-0.206675
C26	C	-0.914142	-2.081760	-0.206704
C27	C	-0.968218	-2.007688	-0.293038
C28	C	-0.912578	-1.933545	-0.379332
C29	C	-0.802861	-1.933474	-0.379292
C30	C	-0.911011	-1.785335	-0.551949
C31	C	-0.801297	-1.785250	-0.551917
C32	C	-0.965087	-1.711263	-0.638284
C33	C	-0.909447	-1.637111	-0.724574
C34	C	-0.799726	-1.637037	-0.724541
C35	C	-0.745656	-1.711107	-0.638211
C36	C	-0.083433	-1.859429	-0.465634
C37	C	0.033348	-1.859478	-0.465655
C38	C	-0.338176	-1.186509	-0.440551
C39	C	-0.329926	-1.325938	-0.429863
C40	C	-0.379933	-1.834281	-0.139650
C41	C	-0.389264	-1.823783	-0.000199
H42	H	-0.659453	-2.007469	-0.292923
H43	H	-1.054422	-1.711336	-0.638306
C44	C	-0.241154	-1.989040	-0.997705
N45	N	-0.177841	-2.059670	-1.047031
C46	C	-0.738528	-1.555483	-0.819482
N47	N	-0.692438	-1.494056	-0.890997
H48	H	-0.276522	-1.374363	-0.360600
H49	H	-0.760388	-2.141995	-0.136385
H50	H	-0.959444	-2.142140	-0.136441
C51	C	-0.457096	-1.328541	-0.594780
N52	N	-0.511443	-1.279263	-0.665259
C53	C	-1.088907	-2.007783	-0.293070
N54	N	-1.179811	-2.007852	-0.293094
H55	H	-0.451481	-1.754374	-0.951727
C56	C	-0.624966	-1.711039	-0.638172
N57	N	-0.534060	-1.710998	-0.638144
C58	C	-0.968938	-1.555639	-0.819529
N59	N	-1.013751	-1.494269	-0.891047
