data_functionalizedCrystal
_audit_creation_method	'MofGen! by Chris Wilmer'
_symmetry_space_group_name_H-M	'P1'
_symmetry_Int_Tables_number	1
_symmetry_cell_setting	triclinic
loop_
_symmetry_equiv_pos_as_xyz
  x,y,z
_cell_length_a	21.295417
_cell_length_b	21.295418
_cell_length_c	21.295412
_cell_angle_alpha	90.042690
_cell_angle_beta	89.969332
_cell_angle_gamma	89.953681
loop_
_atom_site_label
_atom_site_type_symbol
_atom_site_fract_x
_atom_site_fract_y
_atom_site_fract_z
Zn1	Zn	-0.250359	-0.962349	-0.356234
Zn2	Zn	0.249641	-0.462349	0.143766
Zn3	Zn	-0.355628	-0.962254	-0.250959
Zn4	Zn	0.144372	-0.462254	0.249041
Zn5	Zn	-0.250405	-0.857074	-0.250943
Zn6	Zn	0.249595	-0.357074	0.249057
Zn7	Zn	-0.355623	-0.857042	-0.356155
Zn8	Zn	0.144377	-0.357042	0.143845
O9	O	-0.303004	-0.909680	-0.303573
O10	O	0.196996	-0.409680	0.196427
O11	O	-0.264306	-1.050426	-0.342308
O12	O	0.235694	-0.550426	0.157692
O13	O	-0.341691	-0.948275	-0.162868
O14	O	0.158309	-0.448275	0.337132
O15	O	-0.162310	-0.871093	-0.264937
O16	O	0.337690	-0.371093	0.235063
O17	O	-0.341646	-1.050356	-0.264963
O18	O	0.158354	-0.550356	0.235037
O19	O	-0.162276	-0.948438	-0.342293
O20	O	0.337724	-0.448438	0.157707
O21	O	-0.264384	-0.871000	-0.162856
O22	O	0.235616	-0.371000	0.337144
O23	O	-0.264380	-0.768981	-0.264861
O24	O	0.235620	-0.268981	0.235139
O25	O	-0.341639	-0.871038	-0.444255
O26	O	0.158361	-0.371038	0.055745
O27	O	-0.341684	-0.768957	-0.342160
O28	O	0.158316	-0.268957	0.157840
O29	O	-0.264302	-0.948406	-0.444313
O30	O	0.235698	-0.448406	0.055687
O31	O	-0.443716	-0.948243	-0.264887
O32	O	0.056284	-0.448243	0.235113
O33	O	-0.443713	-0.870945	-0.342175
O34	O	0.056287	-0.370945	0.157825
C35	C	-0.303037	-0.746128	-0.303500
C36	C	0.196963	-0.246128	0.196500
C37	C	-0.303066	-0.676160	-0.303484
C38	C	0.196934	-0.176160	0.196516
C39	C	-0.466556	-0.909597	-0.303538
C40	C	0.033444	-0.409597	0.196462
C41	C	-0.536524	-0.909620	-0.303544
C42	C	-0.036524	-0.409620	0.196456
C43	C	-0.302965	-0.909729	-0.467763
C44	C	0.197035	-0.409729	0.032237
C45	C	-0.302948	-0.909750	-0.537731
C46	C	0.197052	-0.409750	-0.037731
C47	C	-0.569371	-0.949905	-0.263342
C48	C	-0.069371	-0.449905	0.236658
C49	C	-0.635113	-0.949934	-0.263356
C50	C	-0.135113	-0.449934	0.236644
C51	C	-0.668006	-0.909667	-0.303566
C52	C	-0.168006	-0.409667	0.196434
C53	C	-0.635151	-0.869379	-0.343776
C54	C	-0.135151	-0.369379	0.156224
C55	C	-0.569410	-0.869355	-0.343765
C56	C	-0.069410	-0.369355	0.156235
N57	N	-0.771287	-0.854600	-0.308340
N58	N	-0.271287	-0.354600	0.191660
N59	N	-0.833739	-0.854625	-0.308347
N60	N	-0.333739	-0.354625	0.191653
C61	C	-0.866081	-0.909738	-0.303602
C62	C	-0.366081	-0.409738	0.196398
N63	N	-0.833612	-0.964827	-0.298838
N64	N	-0.333612	-0.464827	0.201162
N65	N	-0.771155	-0.964802	-0.298828
N66	N	-0.271155	-0.464802	0.201172
C67	C	-0.739291	-0.909689	-0.303582
C68	C	-0.239291	-0.409689	0.196418
C69	C	-0.970214	-0.950058	-0.263413
C70	C	-0.470214	-0.450058	0.236587
C71	C	-1.035957	-0.950089	-0.263431
C72	C	-0.535957	-0.450089	0.236569
C73	C	-1.035993	-0.869528	-0.343848
C74	C	-0.535993	-0.369528	0.156152
C75	C	-0.970251	-0.869504	-0.343833
C76	C	-0.470251	-0.369504	0.156167
C77	C	-0.937365	-0.909768	-0.303612
C78	C	-0.437365	-0.409768	0.196388
C79	C	-0.138814	-0.909780	-0.303622
C80	C	0.361186	-0.409780	0.196378
C81	C	-0.068845	-0.909822	-0.303642
C82	C	0.431155	-0.409822	0.196358
C83	C	-0.302971	-1.073870	-0.303646
C84	C	0.197029	-0.573870	0.196354
C85	C	-0.302957	-1.143838	-0.303677
C86	C	0.197043	-0.643838	0.196323
C87	C	-0.343371	-0.643297	-0.343674
C88	C	0.156629	-0.143297	0.156326
C89	C	-0.343356	-0.577555	-0.343702
C90	C	0.156644	-0.077555	0.156298
C91	C	-0.303042	-0.544678	-0.303530
C92	C	0.196958	-0.044678	0.196470
C93	C	-0.262729	-0.577548	-0.263337
C94	C	0.237271	-0.077548	0.236663
C95	C	-0.262741	-0.643289	-0.263315
C96	C	0.237259	-0.143289	0.236685
N97	N	-0.298123	-0.441403	-0.248472
N98	N	0.201877	0.058597	0.251528
N99	N	-0.298116	-0.378951	-0.248495
N100	N	0.201884	0.121049	0.251505
C101	C	-0.303002	-0.346603	-0.303596
C102	C	0.196998	0.153397	0.196404
N103	N	-0.307908	-0.379065	-0.358675
N104	N	0.192092	0.120935	0.141325
N105	N	-0.307920	-0.441522	-0.358650
N106	N	0.192080	0.058478	0.141350
C107	C	-0.303024	-0.473392	-0.303550
C108	C	0.196976	0.026608	0.196450
C109	C	-0.343292	-0.242455	-0.343820
C110	C	0.156708	0.257545	0.156180
C111	C	-0.343272	-0.176711	-0.343849
C112	C	0.156728	0.323289	0.156151
C113	C	-0.262649	-0.176706	-0.263479
C114	C	0.237351	0.323294	0.236521
C115	C	-0.262665	-0.242448	-0.263455
C116	C	0.237335	0.257552	0.236545
C117	C	-0.302990	-0.275319	-0.303625
C118	C	0.197010	0.224681	0.196375
C119	C	-0.262690	-0.869524	-0.570582
C120	C	0.237310	-0.369524	-0.070582
C121	C	-0.262678	-0.869522	-0.636325
C122	C	0.237322	-0.369522	-0.136325
C123	C	-0.302918	-0.909757	-0.669214
C124	C	0.197082	-0.409757	-0.169214
C125	C	-0.343184	-0.949986	-0.636355
C126	C	0.156816	-0.449986	-0.136355
C127	C	-0.343199	-0.949983	-0.570614
C128	C	0.156801	-0.449983	-0.070614
N129	N	-0.307710	-0.964861	-0.772471
N130	N	0.192290	-0.464861	-0.272471
N131	N	-0.307692	-0.964863	-0.834922
N132	N	0.192308	-0.464863	-0.334922
C133	C	-0.302876	-0.909768	-0.867289
C134	C	0.197124	-0.409768	-0.367289
N135	N	-0.298066	-0.854671	-0.834845
N136	N	0.201934	-0.354671	-0.334845
N137	N	-0.298081	-0.854671	-0.772387
N138	N	0.201919	-0.354671	-0.272387
C139	C	-0.302906	-0.909765	-0.740499
C140	C	0.197094	-0.409765	-0.240499
C141	C	-0.262603	-0.869536	-0.971425
C142	C	0.237397	-0.369536	-0.471425
C143	C	-0.262596	-0.869533	-1.037169
C144	C	0.237404	-0.369533	-0.537169
C145	C	-0.343098	-0.950003	-1.037198
C146	C	0.156902	-0.450003	-0.537198
C147	C	-0.343109	-0.950001	-0.971456
C148	C	0.156891	-0.450001	-0.471456
C149	C	-0.302858	-0.909768	-0.938573
C150	C	0.197142	-0.409768	-0.438573
C151	C	-0.302997	-0.909667	-0.140021
C152	C	0.197003	-0.409667	0.359979
C153	C	-0.302837	-0.909768	-0.070054
C154	C	0.197163	-0.409768	0.429946
H155	H	-0.661863	-0.982741	-0.230619
H156	H	-0.161863	-0.482741	0.269381
H157	H	-0.229829	-0.836776	-0.944651
H158	H	0.270171	-0.336776	-0.444651
O159	O	-0.223462	-0.830539	-1.069155
O160	O	0.276538	-0.330539	-0.569155
C161	C	-0.138445	-0.822122	-1.143383
C162	C	0.361555	-0.322122	-0.643383
C163	C	-0.182731	-0.866356	-1.107207
C164	C	0.317269	-0.366356	-0.607207
H165	H	-0.105494	-0.851063	-1.174147
H166	H	0.394506	-0.351063	-0.674147
H167	H	-0.167317	-0.789201	-1.174167
H168	H	0.332683	-0.289201	-0.674167
H169	H	-0.109710	-0.793351	-1.108578
H170	H	0.390290	-0.293351	-0.608578
H171	H	-0.211476	-0.895168	-1.141968
H172	H	0.288524	-0.395168	-0.641968
H173	H	-0.153823	-0.899236	-1.076414
H174	H	0.346177	-0.399236	-0.576414
O175	O	-0.667169	-0.830351	-0.382866
O176	O	-0.167169	-0.330351	0.117134
C177	C	-0.741317	-0.821869	-0.467880
C178	C	-0.241317	-0.321869	0.032120
C179	C	-0.705108	-0.866137	-0.423636
C180	C	-0.205108	-0.366137	0.076364
H181	H	-0.771988	-0.850785	-0.500862
H182	H	-0.271988	-0.350785	-0.000862
H183	H	-0.772195	-0.788988	-0.438977
H184	H	-0.272195	-0.288988	0.061023
H185	H	-0.706532	-0.793056	-0.496584
H186	H	-0.206532	-0.293056	0.003416
H187	H	-0.739846	-0.894991	-0.394922
H188	H	-0.239846	-0.394991	0.105078
H189	H	-0.674220	-0.898976	-0.452575
H190	H	-0.174220	-0.398976	0.047425
H191	H	-0.542665	-0.836550	-0.376503
H192	H	-0.042665	-0.336550	0.123497
H193	H	-1.062774	-0.836745	-0.376591
H194	H	-0.562774	-0.336745	0.123409
O195	O	-0.382524	-0.274417	-0.382754
O196	O	0.117476	0.225583	0.117246
C197	C	-0.467516	-0.348589	-0.391043
C198	C	0.032484	0.151411	0.108957
C199	C	-0.423136	-0.312424	-0.346879
C200	C	0.076864	0.187576	0.153121
H201	H	-0.500354	-0.379336	-0.362057
H202	H	-0.000354	0.120664	0.137943
H203	H	-0.496363	-0.313832	-0.419767
H204	H	0.003637	0.186168	0.080233
H205	H	-0.438652	-0.379406	-0.424012
H206	H	0.061348	0.120594	0.075988
H207	H	-0.451952	-0.281605	-0.313872
H208	H	0.048048	0.218395	0.186128
H209	H	-0.394287	-0.347214	-0.318200
H210	H	0.105713	0.152786	0.181800
O211	O	-1.067770	-0.989337	-0.224410
O212	O	-0.567770	-0.489337	0.275590
C213	C	-1.087715	-1.096464	-0.194041
C214	C	-0.587715	-0.596464	0.305959
C215	C	-1.051656	-1.052070	-0.238262
C216	C	-0.551656	-0.552070	0.261738
H217	H	-1.074710	-1.147194	-0.205233
H218	H	-0.574710	-0.647194	0.294767
H219	H	-1.074816	-1.085488	-0.143257
H220	H	-0.574816	-0.585488	0.356743
H221	H	-1.140356	-1.089572	-0.200924
H222	H	-0.640356	-0.589572	0.299076
H223	H	-0.999006	-1.058938	-0.231435
H224	H	-0.499006	-0.558938	0.268565
H225	H	-1.064608	-1.063057	-0.289029
H226	H	-0.564608	-0.563057	0.210971
H227	H	-0.229904	-0.550775	-0.230630
H228	H	0.270096	-0.050775	0.269370
H229	H	-0.229821	-0.149937	-0.230773
H230	H	0.270179	0.350063	0.269227
O231	O	-0.382487	-0.144883	-0.382910
O232	O	0.117513	0.355117	0.117090
C233	C	-0.462440	-0.151830	-0.462637
C234	C	0.037560	0.348170	0.037363
C235	C	-0.418070	-0.187953	-0.418423
C236	C	0.081930	0.312047	0.081577
H237	H	-0.491211	-0.186636	-0.491370
H238	H	0.008789	0.313364	0.008630
H239	H	-0.495349	-0.121003	-0.433713
H240	H	0.004651	0.378997	0.066287
H241	H	-0.433570	-0.121100	-0.495594
H242	H	0.066430	0.378900	0.004406
H243	H	-0.446889	-0.218717	-0.385457
H244	H	0.053111	0.281283	0.114543
H245	H	-0.385160	-0.218740	-0.447387
H246	H	0.114840	0.281260	0.052613
H247	H	-0.943437	-0.982846	-0.230664
H248	H	-0.443437	-0.482846	0.269336
H249	H	-0.229892	-0.836766	-0.663077
H250	H	0.270108	-0.336766	-0.163077
O251	O	-0.537356	-0.989050	-0.224365
O252	O	-0.037356	-0.489050	0.275635
C253	C	-0.463068	-1.074043	-0.215993
C254	C	0.036932	-0.574043	0.284007
C255	C	-0.499277	-1.029740	-0.260203
C256	C	0.000723	-0.529740	0.239797
H257	H	-0.432283	-1.106961	-0.244951
H258	H	0.067717	-0.606961	0.255049
H259	H	-0.432303	-1.045182	-0.183048
H260	H	0.067697	-0.545182	0.316952
H261	H	-0.497853	-1.102814	-0.187247
H262	H	0.002147	-0.602814	0.312753
H263	H	-0.464538	-1.000960	-0.288990
H264	H	0.035462	-0.500960	0.211010
H265	H	-0.530052	-1.058637	-0.293107
H266	H	-0.030052	-0.558637	0.206893
O267	O	-0.223684	-0.830406	-0.538574
O268	O	0.276316	-0.330406	-0.038574
C269	C	-0.215252	-0.745386	-0.464331
C270	C	0.284748	-0.245386	0.035669
C271	C	-0.259494	-0.789659	-0.500531
C272	C	0.240506	-0.289659	-0.000531
H273	H	-0.244186	-0.712422	-0.433574
H274	H	0.255814	-0.212422	0.066426
H275	H	-0.182346	-0.774267	-0.433538
H276	H	0.317654	-0.274267	0.066462
H277	H	-0.186464	-0.716663	-0.499122
H278	H	0.313536	-0.216663	0.000878
H279	H	-0.288322	-0.818390	-0.465785
H280	H	0.211678	-0.318390	0.034215
H281	H	-0.292358	-0.760741	-0.531333
H282	H	0.207642	-0.260741	-0.031333
O283	O	-0.382157	-0.989178	-1.069066
O284	O	0.117843	-0.489178	-0.569066
C285	C	-0.412662	-1.096242	-1.089266
C286	C	0.087338	-0.596242	-0.589266
C287	C	-0.368394	-1.051947	-1.053124
C288	C	0.131606	-0.551947	-0.553124
H289	H	-0.401541	-1.147000	-1.076400
H290	H	0.098459	-0.647000	-0.576400
H291	H	-0.463435	-1.085208	-1.076301
H292	H	0.036565	-0.585208	-0.576301
H293	H	-0.405751	-1.089305	-1.141894
H294	H	0.094249	-0.589305	-0.641894
H295	H	-0.375248	-1.058859	-1.000487
H296	H	0.124752	-0.558859	-0.500487
H297	H	-0.317637	-1.062991	-1.066141
H298	H	0.182363	-0.562991	-0.566141
O299	O	-0.938437	-0.830304	-0.382900
O300	O	-0.438437	-0.330304	0.117100
C301	C	-0.945413	-0.750427	-0.462685
C302	C	-0.445413	-0.250427	0.037315
C303	C	-0.981520	-0.794779	-0.418461
C304	C	-0.481520	-0.294779	0.081539
H305	H	-0.980229	-0.721703	-0.491458
H306	H	-0.480229	-0.221703	0.008542
H307	H	-0.914712	-0.717474	-0.433766
H308	H	-0.414712	-0.217474	0.066234
H309	H	-0.914559	-0.779308	-0.495605
H310	H	-0.414559	-0.279308	0.004395
H311	H	-1.012408	-0.765948	-0.385532
H312	H	-0.512408	-0.265948	0.114468
H313	H	-1.012181	-0.827733	-0.447419
H314	H	-0.512181	-0.327733	0.052581
H315	H	-0.375890	-0.982759	-0.944708
H316	H	0.124110	-0.482759	-0.444708
H317	H	-0.376207	-0.670057	-0.376384
H318	H	0.123793	-0.170057	0.123616
H319	H	-0.376177	-0.550793	-0.376431
H320	H	0.123823	-0.050793	0.123569
H321	H	-0.229847	-0.269205	-0.230726
H322	H	0.270153	0.230795	0.269274
O323	O	-0.223570	-0.675118	-0.224210
O324	O	0.276430	-0.175118	0.275790
C325	C	-0.143575	-0.668175	-0.144525
C326	C	0.356425	-0.168175	0.355475
C327	C	-0.187913	-0.632050	-0.188770
C328	C	0.312087	-0.132050	0.311230
H329	H	-0.114726	-0.633370	-0.115869
H330	H	0.385274	-0.133370	0.384131
H331	H	-0.172411	-0.698868	-0.111503
H332	H	0.327589	-0.198868	0.388497
H333	H	-0.110733	-0.699038	-0.173485
H334	H	0.389267	-0.199038	0.326515
H335	H	-0.220764	-0.601152	-0.159861
H336	H	0.279236	-0.101152	0.340139
H337	H	-0.159039	-0.601396	-0.221794
H338	H	0.340961	-0.101396	0.278206
H339	H	-0.375947	-0.982746	-0.663138
H340	H	0.124053	-0.482746	-0.163138
O341	O	-0.382392	-0.989032	-0.538769
O342	O	0.117608	-0.489032	-0.038769
C343	C	-0.489469	-1.019495	-0.518606
C344	C	0.010531	-0.519495	-0.018606
C345	C	-0.445155	-0.975242	-0.554723
C346	C	0.054845	-0.475242	-0.054723
H347	H	-0.540223	-1.008353	-0.531482
H348	H	-0.040223	-0.508353	-0.031482
H349	H	-0.478456	-1.070272	-0.531585
H350	H	0.021544	-0.570272	-0.031585
H351	H	-0.482533	-1.012594	-0.465974
H352	H	0.017467	-0.512594	0.034026
H353	H	-0.452067	-0.982087	-0.607363
H354	H	0.047933	-0.482087	-0.107363
H355	H	-0.456180	-0.924482	-0.541692
H356	H	0.043820	-0.424482	-0.041692
