data_functionalizedCrystal
_audit_creation_method	'MofGen! by Chris Wilmer'
_symmetry_space_group_name_H-M	'P1'
_symmetry_Int_Tables_number	1
_symmetry_cell_setting	triclinic
loop_
_symmetry_equiv_pos_as_xyz
  x,y,z
_cell_length_a	19.188930
_cell_length_b	19.188940
_cell_length_c	11.295483
_cell_angle_alpha	94.080861
_cell_angle_beta	85.894762
_cell_angle_gamma	83.146747
loop_
_atom_site_label
_atom_site_type_symbol
_atom_site_fract_x
_atom_site_fract_y
_atom_site_fract_z
O1	O	0.930883	0.082432	-0.099411
O2	O	0.727569	0.094171	-0.099329
O3	O	0.835089	-0.013353	-0.099363
O4	O	0.823363	0.189956	-0.099377
O5	O	0.825646	-0.003924	0.098691
O6	O	0.718125	0.103600	0.098725
O7	O	0.921440	0.091862	0.098643
Cu8	Cu	0.818920	0.098592	0.116768
Cu9	Cu	0.830088	0.087441	-0.117454
O10	O	0.813919	0.199386	0.098677
C11	C	0.696835	0.098506	-0.000292
C12	C	0.619329	0.097367	-0.000261
C13	C	0.829987	-0.034649	-0.000336
C14	C	0.828843	-0.112154	-0.000336
C15	C	0.815562	-0.660274	0.107598
C16	C	0.816628	-0.587449	0.107604
C17	C	0.822313	-0.556170	-0.000354
C18	C	0.826913	-0.597719	-0.108326
C19	C	0.825839	-0.670541	-0.108329
N20	N	0.867561	-0.450972	-0.080726
N21	N	0.868582	-0.381794	-0.080716
C22	C	0.825546	-0.336760	-0.000351
N23	N	0.781459	-0.363519	0.080021
N24	N	0.780440	-0.432704	0.080014
C25	C	0.823477	-0.477207	-0.000363
C26	C	0.822098	-0.216255	0.107621
C27	C	0.823160	-0.143428	0.107623
C28	C	0.833452	-0.153700	-0.108311
C29	C	0.832382	-0.226524	-0.108309
C30	C	0.826708	-0.257797	-0.000340
C31	C	0.574409	0.160456	-0.000283
C32	C	0.501585	0.159384	-0.000296
C33	C	0.473687	0.095217	-0.000310
C34	C	0.518617	0.032120	-0.000281
C35	C	0.591438	0.033195	-0.000256
N36	N	0.368922	0.042959	-0.067761
N37	N	0.299744	0.041943	-0.067788
C38	C	0.254282	0.091976	-0.000383
N39	N	0.280610	0.143074	0.067034
N40	N	0.349793	0.144093	0.067055
C41	C	0.394726	0.094045	-0.000337
C42	C	0.130397	0.153907	-0.000418
C43	C	0.057573	0.152832	-0.000424
C44	C	0.074607	0.025566	-0.000420
C45	C	0.147429	0.026643	-0.000403
C46	C	0.175320	0.090815	-0.000407
C47	C	0.952173	0.087527	-0.000397
C48	C	1.029680	0.088665	-0.000436
C49	C	0.819022	0.220682	-0.000352
C50	C	0.820166	0.298186	-0.000360
N51	N	0.811070	0.106435	0.281506
N52	N	0.837944	0.079592	-0.282193
C53	C	0.894453	0.023095	0.530770
C54	C	0.888526	0.029027	0.655435
C55	C	0.793285	0.124227	0.655505
C56	C	0.799212	0.118295	0.530840
C57	C	0.849799	0.067728	0.468476
C58	C	0.855729	0.061800	0.343808
C59	C	0.760485	0.156996	0.343881
C60	C	0.754558	0.162928	0.468546
H61	H	0.810941	-0.685732	0.195515
H62	H	0.836136	-0.260348	-0.196220
H63	H	0.838072	-0.128232	-0.196212
F64	F	0.936052	-0.018479	0.721728
H65	H	0.752094	0.165393	0.706298
H66	H	0.829587	-0.704363	-0.196244
F67	F	0.044920	-0.042725	-0.000424
F68	F	0.832965	-0.564428	-0.223223
H69	H	0.597112	0.212710	-0.000289
F70	F	0.818249	-0.099216	0.222533
F71	F	0.453768	0.226535	-0.000318
F72	F	0.488925	-0.036170	-0.000290
H73	H	0.184005	-0.024732	-0.000391
H74	H	0.628014	-0.018182	-0.000238
F75	F	0.160083	0.222204	-0.000414
F76	F	0.700720	0.216741	0.534929
H77	H	0.724126	0.193341	0.293148
H78	H	0.812866	-0.553619	0.195519
F79	F	0.816056	-0.249540	0.222529
H80	H	0.020998	0.204210	-0.000436
F81	F	0.909569	0.007985	0.277439
F82	F	0.948297	-0.030715	0.464397
