data_functionalizedCrystal
_audit_creation_method	'MofGen! by Chris Wilmer'
_symmetry_space_group_name_H-M	'P1'
_symmetry_Int_Tables_number	1
_symmetry_cell_setting	triclinic
loop_
_symmetry_equiv_pos_as_xyz
  x,y,z
_cell_length_a	14.971486
_cell_length_b	12.837942
_cell_length_c	14.048226
_cell_angle_alpha	89.994377
_cell_angle_beta	89.998499
_cell_angle_gamma	89.221535
loop_
_atom_site_label
_atom_site_type_symbol
_atom_site_fract_x
_atom_site_fract_y
_atom_site_fract_z
O1	O	1.198338	0.135106	-0.079050
O2	O	0.939302	0.151285	-0.079075
O3	O	1.063076	-0.007715	-0.079057
O4	O	1.074564	0.294105	-0.079068
O5	O	1.063059	-0.007724	0.079264
O6	O	0.939284	0.151275	0.079246
O7	O	1.198320	0.135096	0.079272
Zn8	Zn	1.068800	0.143184	0.104396
Zn9	Zn	1.068822	0.143197	-0.104199
O10	O	1.074546	0.294096	0.079254
C11	C	0.905907	0.150556	0.000082
C12	C	0.806427	0.148388	0.000072
C13	C	0.757077	0.241796	0.000070
C14	C	0.663606	0.239752	0.000085
C15	C	0.619486	0.144300	0.000094
C16	C	0.668842	0.050885	0.000099
C17	C	0.762313	0.052930	0.000091
C18	C	0.474021	0.046630	0.000112
C19	C	0.380545	0.044585	0.000118
C20	C	0.375314	0.233453	0.000105
C21	C	0.468784	0.235498	0.000098
C22	C	0.518135	0.142082	0.000101
C23	C	1.059187	-0.046345	0.000103
C24	C	1.047612	-0.161436	0.000100
C25	C	1.186755	-0.402222	0.000094
C26	C	1.175884	-0.510362	0.000091
C27	C	1.015001	-0.485856	0.000085
C28	C	1.025872	-0.377717	0.000088
C29	C	1.111751	-0.335904	0.000093
C30	C	1.122621	-0.227763	0.000103
C31	C	0.961739	-0.203260	0.000090
C32	C	0.950868	-0.311399	0.000087
C33	C	1.231715	0.135824	0.000112
C34	C	1.331195	0.137993	0.000116
C35	C	1.078436	0.332726	0.000092
C36	C	1.090010	0.447817	0.000088
N37	N	1.068791	0.143175	0.246756
N38	N	1.068838	0.143197	-0.246560
C39	C	1.123619	0.072799	0.296583
C40	C	1.123625	0.072799	0.396240
C41	C	1.068807	0.143180	0.446070
C42	C	1.013972	0.213559	0.396237
C43	C	1.013962	0.213554	0.296581
C44	C	1.013998	0.213567	0.603951
C45	C	1.014009	0.213573	0.703614
C46	C	1.123662	0.072811	0.703610
C47	C	1.123652	0.072806	0.603954
C48	C	1.068818	0.143187	0.554128
H49	H	0.514200	-0.029439	0.000116
H50	H	1.168309	0.015505	0.744185
H51	H	0.900666	-0.149251	0.000097
H52	H	0.969369	0.270884	0.744180
O53	O	0.804654	0.344755	0.000066
H54	H	0.847105	0.350220	-0.064470
O55	O	0.954862	0.289480	0.550204
H56	H	0.916753	0.338431	0.601594
O57	O	0.332960	-0.058369	0.000146
H58	H	0.259674	-0.044092	0.000143
H59	H	0.632913	-0.026834	0.000120
O60	O	0.610374	0.340498	0.000083
H61	H	0.656757	0.407215	0.000064
O62	O	0.516377	0.338446	0.000100
H63	H	0.466360	0.403061	0.000113
O64	O	1.279376	-0.357116	0.000108
H65	H	1.288181	-0.308419	-0.064416
O66	O	1.256778	-0.581895	0.000103
H67	H	1.318318	-0.534648	0.000116
O68	O	0.322089	0.334209	0.000115
H69	H	0.338760	0.379882	-0.064423
O70	O	0.954851	0.289481	0.449975
H71	H	0.907663	0.245767	0.495402
H72	H	1.168263	0.015491	0.256018
H73	H	0.802492	-0.023133	0.000092
O74	O	1.182779	-0.003087	0.449985
H75	H	1.220910	-0.052013	0.398593
O76	O	0.922383	-0.530973	0.000085
H77	H	0.913593	-0.579653	-0.064443
H78	H	1.192549	-0.193721	0.000111
H79	H	0.969313	0.270860	0.256013
O80	O	0.858244	-0.356498	0.000094
H81	H	0.863283	-0.442836	0.000101
O82	O	1.182772	-0.003105	0.550203
H83	H	1.220896	-0.052053	0.601590
