data_functionalizedCrystal
_audit_creation_method	'MofGen! by Chris Wilmer'
_symmetry_space_group_name_H-M	'P1'
_symmetry_Int_Tables_number	1
_symmetry_cell_setting	triclinic
loop_
_symmetry_equiv_pos_as_xyz
  x,y,z
_cell_length_a	11.026607
_cell_length_b	27.732048
_cell_length_c	9.482900
_cell_angle_alpha	99.251554
_cell_angle_beta	78.636152
_cell_angle_gamma	95.614336
loop_
_atom_site_label
_atom_site_type_symbol
_atom_site_fract_x
_atom_site_fract_y
_atom_site_fract_z
O1	O	1.625408	0.196163	-0.120955
O2	O	1.272533	0.173153	-0.120950
O3	O	1.459925	0.115249	-0.120925
O4	O	1.438015	0.254067	-0.120980
O5	O	1.421861	0.127071	0.120862
O6	O	1.234468	0.184975	0.120837
O7	O	1.587343	0.207985	0.120832
Cu8	Cu	1.407430	0.197559	0.142912
Cu9	Cu	1.452446	0.183578	-0.143030
O10	O	1.399950	0.265889	0.120807
C11	C	1.208369	0.174819	-0.000055
C12	C	1.073891	0.162164	-0.000052
C13	C	0.999433	0.197105	-0.000067
C14	C	0.860443	0.184027	-0.000064
C15	C	1.440432	0.103112	-0.000028
C16	C	1.439045	0.049333	-0.000016
C17	C	1.541074	-0.280305	-0.000092
C18	C	1.535937	-0.482429	-0.000112
O19	O	1.629234	-0.505292	-0.000177
N20	N	1.424818	-0.511552	-0.000109
C21	C	1.314976	-0.490142	-0.000110
O22	O	1.220347	-0.519552	-0.000123
C23	C	1.320117	-0.288020	-0.000101
C24	C	1.431241	-0.258899	-0.000089
C25	C	1.652189	-0.251184	-0.000082
C26	C	1.653471	-0.200656	-0.000069
C27	C	1.543638	-0.179249	-0.000066
C28	C	1.432523	-0.208371	-0.000076
C29	C	1.210279	-0.266612	-0.000113
C30	C	1.211574	-0.216078	-0.000114
C31	C	1.322698	-0.186957	-0.000102
C32	C	1.323971	-0.136436	-0.000060
N33	N	1.435090	-0.107312	-0.000063
C34	C	1.544923	-0.128719	-0.000066
C35	C	1.312285	-0.596259	-0.000113
C36	C	1.310999	-0.646789	-0.000113
C37	C	1.531960	-0.639072	-0.000117
C38	C	1.533243	-0.588540	-0.000106
C39	C	1.423404	-0.567135	-0.000116
C40	C	1.547607	-0.022606	-0.000037
C41	C	1.548878	0.027926	-0.000018
C42	C	1.327919	0.020204	-0.000022
C43	C	1.326646	-0.030324	-0.000033
C44	C	1.436501	-0.051728	-0.000046
O45	O	1.230726	-0.113540	-0.000011
O46	O	1.639544	-0.099302	-0.000085
C47	C	1.539792	-0.330833	-0.000105
C48	C	1.428677	-0.359955	-0.000115
C49	C	1.318844	-0.338548	-0.000112
C50	C	1.427391	-0.410485	-0.000115
C51	C	1.537224	-0.431892	-0.000117
C52	C	1.648343	-0.402768	-0.000120
C53	C	1.649625	-0.352240	-0.000107
C54	C	1.207725	-0.367672	-0.000109
C55	C	1.206451	-0.418199	-0.000120
C56	C	1.316285	-0.439606	-0.000123
C57	C	1.651507	0.206319	-0.000066
C58	C	1.785986	0.218973	-0.000079
C59	C	1.419444	0.278026	-0.000094
C60	C	1.420833	0.331805	-0.000115
N61	N	1.375777	0.207393	0.344028
N62	N	1.484109	0.173742	-0.344146
C63	C	1.443101	0.186476	0.416236
C64	C	1.416774	0.194662	0.583650
H65	H	1.038583	0.236702	-0.000074
H66	H	1.561239	0.149769	0.593740
H67	H	1.298642	0.231360	0.406147
H68	H	0.821304	0.144426	-0.000085
H69	H	1.637062	-0.040028	-0.000053
O70	O	1.324676	0.223196	0.657901
C71	C	1.236423	0.195186	0.745946
H72	H	1.281592	0.162671	0.768598
H73	H	1.200257	0.218892	0.853039
H74	H	1.156056	0.181344	0.687398
H75	H	0.825129	0.258573	-0.000085
H76	H	1.034746	0.122566	-0.000074
O77	O	1.102326	-0.294903	0.000118
C78	C	1.075240	-0.318261	0.125311
H79	H	1.124529	-0.296576	0.212856
H80	H	0.970893	-0.320189	0.167319
H81	H	1.108394	-0.356905	0.096992
H82	H	1.639372	0.051636	-0.000005
H83	H	1.743960	-0.176949	-0.000065
H84	H	1.520227	0.162505	0.354118
H85	H	1.741635	-0.268607	-0.000089
O86	O	1.641307	-0.560328	-0.000174
C87	C	1.737958	-0.590062	-0.000136
H88	H	1.711847	-0.629449	-0.045903
H89	H	1.826652	-0.576200	-0.070339
H90	H	1.753531	-0.588583	0.115862
H91	H	1.621391	-0.656509	-0.000118
O92	O	1.104824	-0.195352	-0.000314
C93	C	1.057041	-0.216153	-0.125563
H94	H	1.094103	-0.253782	-0.167317
H95	H	0.951495	-0.220038	-0.097408
H96	H	1.086883	-0.191460	-0.213243
O97	O	1.202954	-0.675006	-0.000172
C98	C	1.106292	-0.645268	-0.000137
H99	H	1.146814	-0.610355	-0.045908
H100	H	1.039702	-0.665991	-0.070337
H101	H	1.054196	-0.635413	0.115861
H102	H	1.222836	-0.578836	-0.000120
H103	H	1.236153	-0.054034	-0.000002
O104	O	1.757645	-0.323988	-0.000365
C105	C	1.844257	-0.340119	-0.125573
H106	H	1.793032	-0.360537	-0.213096
H107	H	1.901847	-0.307195	-0.167606
H108	H	1.907927	-0.365668	-0.097267
O109	O	1.221307	0.041015	-0.000281
C110	C	1.235189	0.063908	-0.125486
H111	H	1.311275	0.046590	-0.213002
H112	H	1.144116	0.059022	-0.167533
H113	H	1.261399	0.104621	-0.097169
O114	O	1.755046	-0.423603	-0.000385
C115	C	1.780593	-0.458724	-0.125599
H116	H	1.732066	-0.449954	-0.213113
H117	H	1.884906	-0.457945	-0.167641
H118	H	1.745468	-0.496673	-0.097295
O119	O	1.098399	-0.446418	-0.000194
C120	C	1.001737	-0.416680	-0.000156
H121	H	1.042260	-0.381763	-0.045911
H122	H	0.935154	-0.437400	-0.070369
H123	H	0.949633	-0.406830	0.115840
O124	O	1.101097	-0.346872	-0.000358
C125	C	1.114931	-0.323977	-0.125553
H126	H	1.191020	-0.341284	-0.213088
H127	H	1.023846	-0.328874	-0.167578
H128	H	1.141109	-0.283261	-0.097232
