data_functionalizedCrystal
_audit_creation_method	'MofGen! by Chris Wilmer'
_symmetry_space_group_name_H-M	'P1'
_symmetry_Int_Tables_number	1
_symmetry_cell_setting	triclinic
loop_
_symmetry_equiv_pos_as_xyz
  x,y,z
_cell_length_a	12.594517
_cell_length_b	16.994747
_cell_length_c	12.594509
_cell_angle_alpha	90.008624
_cell_angle_beta	90.021327
_cell_angle_gamma	90.010859
loop_
_atom_site_label
_atom_site_type_symbol
_atom_site_fract_x
_atom_site_fract_y
_atom_site_fract_z
Zn1	Zn	1.627304	-0.314008	0.602005
Zn2	Zn	1.627210	-0.445929	0.424087
Zn3	Zn	1.449308	-0.314042	0.424034
Zn4	Zn	1.449306	-0.445874	0.602017
O5	O	1.538282	-0.379963	0.513036
O6	O	1.776237	-0.331517	0.578421
O7	O	1.603573	-0.428471	0.275134
O8	O	1.472960	-0.203657	0.447615
O9	O	1.776169	-0.428438	0.447706
O10	O	1.603733	-0.203632	0.578369
O11	O	1.472869	-0.331574	0.275095
O12	O	1.300362	-0.331521	0.447627
O13	O	1.472956	-0.428345	0.750962
O14	O	1.300360	-0.428377	0.578390
O15	O	1.603730	-0.331464	0.750953
O16	O	1.603571	-0.556303	0.447718
O17	O	1.472865	-0.556262	0.578442
C18	C	1.261741	-0.379947	0.513005
C19	C	1.143435	-0.379960	0.513016
C20	C	1.538220	-0.584903	0.513084
C21	C	1.538228	-0.674225	0.513081
Zn22	Zn	1.449338	-0.945129	0.424004
Zn23	Zn	1.627351	-0.945073	0.601958
Zn24	Zn	1.449342	-0.813266	0.602000
Zn25	Zn	1.627230	-0.813184	0.424053
O26	O	1.538315	-0.879163	0.513004
O27	O	1.473002	-1.055503	0.447572
O28	O	1.603790	-0.927600	0.750910
O29	O	1.300396	-0.830816	0.578385
O30	O	1.603787	-1.055462	0.578315
O31	O	1.300393	-0.927694	0.447612
O32	O	1.473008	-0.830762	0.750940
O33	O	1.472890	-0.702874	0.578432
O34	O	1.603580	-0.830675	0.275100
O35	O	1.603583	-0.702814	0.447695
O36	O	1.472884	-0.927615	0.275065
O37	O	1.776281	-0.927520	0.578362
O38	O	1.776192	-0.830622	0.447655
C39	C	1.074152	-0.327208	0.442030
C40	C	1.003350	-0.399158	0.415883
C41	C	1.003439	-0.308044	0.539181
C42	C	1.074191	-0.451948	0.486819
C43	C	1.074287	-0.360785	0.610163
C44	C	1.003516	-0.432786	0.584053
C45	C	1.815903	-0.379980	0.513068
C46	C	1.934208	-0.379987	0.513082
C47	C	1.538353	-0.379894	0.790657
C48	C	1.538384	-0.379865	0.908962
C49	C	1.538349	-0.174223	0.512982
C50	C	1.538382	-0.084901	0.512959
C51	C	1.538272	-0.379975	0.236495
C52	C	1.538448	-0.379782	0.118190
C53	C	1.467278	-0.432528	0.978221
C54	C	1.564400	-0.451801	1.049020
C55	C	1.441336	-0.360544	1.048962
C56	C	1.635557	-0.399176	0.978204
C57	C	1.512428	-0.307885	0.978140
C58	C	1.609618	-0.327130	1.048907
C59	C	1.814856	-0.879058	0.513012
C60	C	1.933162	-0.879036	0.513047
C61	C	1.538218	-0.879142	0.235383
C62	C	1.538176	-0.879133	0.117077
C63	C	1.260695	-0.879270	0.512998
C64	C	1.142389	-0.879316	0.512995
C65	C	1.538337	-0.879229	0.789545
C66	C	1.538081	-0.879389	0.907850
C67	C	2.002405	-0.826292	0.442036
C68	C	2.073198	-0.807062	0.539194
C69	C	2.073167	-0.898228	0.415965
C70	C	2.002397	-0.859769	0.610256
C71	C	2.002360	-0.950969	0.486961
C72	C	2.073121	-0.931766	0.584186
C73	C	1.609217	-0.826403	0.047843
C74	C	1.635243	-0.898353	-0.022970
C75	C	1.512072	-0.807176	-0.022909
C76	C	1.564254	-0.951121	0.047822
C77	C	1.441037	-0.859895	0.047889
C78	C	1.467027	-0.931895	-0.022892
H79	H	0.972193	-0.415393	0.333756
H80	H	1.490411	-0.247066	0.946983
N81	N	1.391922	-0.488494	0.939273
N82	N	1.421971	-0.543872	0.881287
H83	H	1.368757	-0.583401	0.853779
N84	N	1.592004	-1.027482	0.086607
N85	N	1.536032	-1.085707	0.063209
H86	H	1.555632	-1.139637	0.090602
N87	N	1.391597	-0.987894	-0.061601
N88	N	1.401387	-1.059091	-0.038717
H89	H	1.348118	-1.098644	-0.066056
N90	N	1.738232	-0.918750	-0.062022
N91	N	1.787848	-0.871781	-0.120068
H92	H	1.860587	-0.886179	-0.147645
H93	H	2.104255	-0.914461	0.333838
H94	H	1.586389	-0.512638	1.080153
N95	N	1.338079	-0.839450	0.086958
N96	N	1.298403	-0.774153	0.064350
H97	H	1.225688	-0.759705	0.091944
N98	N	0.964453	-0.231741	0.566942
N99	N	0.907752	-0.223207	0.647559
H100	H	0.880221	-0.169316	0.667160
H101	H	1.359238	-0.344237	1.080045
H102	H	1.971440	-0.843464	0.692407
H103	H	1.971357	-0.781655	0.382031
N104	N	2.112224	-0.730748	0.566931
N105	N	2.048567	-0.676115	0.585926
H106	H	2.076124	-0.622217	0.605509
H107	H	1.490046	-0.746329	-0.053982
N108	N	2.111820	-0.987718	0.659647
N109	N	2.088918	-0.980562	0.755725
H110	H	2.116250	-1.020076	0.809022
N111	N	1.113023	-0.528277	0.458975
N112	N	1.210763	-0.540577	0.454417
H113	H	1.238192	-0.594482	0.434750
H114	H	1.105168	-0.282641	0.381924
N115	N	1.963303	-1.027262	0.459195
N116	N	1.985931	-1.056573	0.371031
H117	H	1.958346	-1.110456	0.351409
N118	N	0.964861	-0.488832	0.659394
N119	N	0.987763	-0.560019	0.649512
H120	H	0.960463	-0.599605	0.702719
H121	H	1.717679	-0.415552	0.947252
N122	N	1.685166	-0.271207	1.087588
N123	N	1.739393	-0.231826	1.023689
H124	H	1.792752	-0.192332	1.051006
N125	N	1.113395	-0.340387	0.713161
N126	N	1.090784	-0.275115	0.752922
H127	H	1.118405	-0.260699	0.825666
H128	H	1.669393	-0.781874	0.078901
