data_functionalizedCrystal
_audit_creation_method	'MofGen! by Chris Wilmer'
_symmetry_space_group_name_H-M	'P1'
_symmetry_Int_Tables_number	1
_symmetry_cell_setting	triclinic
loop_
_symmetry_equiv_pos_as_xyz
  x,y,z
_cell_length_a	17.699083
_cell_length_b	14.184957
_cell_length_c	17.699083
_cell_angle_alpha	103.127403
_cell_angle_beta	96.716985
_cell_angle_gamma	103.127349
loop_
_atom_site_label
_atom_site_type_symbol
_atom_site_fract_x
_atom_site_fract_y
_atom_site_fract_z
O1	O	1.021246	0.083283	-0.078537
O2	O	1.521246	0.583283	0.421463
O3	O	0.800874	0.083316	-0.090983
O4	O	1.300874	0.583316	0.409017
O5	O	0.917284	0.083290	0.025427
O6	O	1.417284	0.583290	0.525427
O7	O	0.904836	0.083310	-0.194947
O8	O	1.404836	0.583310	0.305053
O9	O	0.882877	-0.083554	-0.008974
O10	O	1.382877	0.416446	0.491026
O11	O	0.766467	-0.083528	-0.125384
O12	O	1.266467	0.416472	0.374616
O13	O	0.986839	-0.083561	-0.112939
O14	O	1.486839	0.416439	0.387061
Cu15	Cu	0.873511	-0.098778	-0.122303
Cu16	Cu	1.373511	0.401222	0.377697
Cu17	Cu	0.914202	0.098534	-0.081619
Cu18	Cu	1.414202	0.598534	0.418381
O19	O	0.870429	-0.083534	-0.229349
O20	O	1.370429	0.416466	0.270651
C21	C	0.755474	-0.000101	-0.107737
C22	C	1.255474	0.499899	0.392263
C23	C	0.671459	-0.000089	-0.106395
C24	C	1.171459	0.499911	0.393605
C25	C	0.622839	-0.000083	-0.174728
C26	C	1.122839	0.499917	0.325272
C27	C	0.543893	-0.000096	-0.173468
C28	C	1.043893	0.499904	0.326532
C29	C	0.513570	-0.000108	-0.103874
C30	C	1.013570	0.499892	0.396126
C31	C	0.562195	-0.000117	-0.035537
C32	C	1.062195	0.499883	0.464463
C33	C	0.641138	-0.000111	-0.036799
C34	C	1.141138	0.499889	0.463201
C35	C	0.243827	-0.000142	-0.030447
C36	C	0.743827	0.499858	0.469553
C37	C	0.164878	-0.000145	-0.029190
C38	C	0.664878	0.499855	0.470810
C39	C	0.146582	-0.000128	-0.167116
C40	C	0.646582	0.499872	0.332884
C41	C	0.225525	-0.000122	-0.168378
C42	C	0.725525	0.499878	0.331622
C43	C	0.274142	-0.000136	-0.100043
C44	C	0.774142	0.499864	0.399957
C45	C	0.359744	-0.000123	-0.101410
C46	C	0.859744	0.499877	0.398590
C47	C	0.427971	-0.000113	-0.102505
C48	C	0.927971	0.499887	0.397495
N49	N	0.844898	-0.237557	-0.150917
N50	N	1.344898	0.262443	0.349083
C51	C	1.026875	-0.605157	0.030994
C52	C	1.526875	-0.105157	0.530994
C53	C	1.005203	-0.710185	0.009341
C54	C	1.505203	-0.210185	0.509341
C55	C	0.902090	-0.710174	-0.093713
C56	C	1.402090	-0.210174	0.406287
C57	C	0.923756	-0.605144	-0.072071
C58	C	1.423756	-0.105144	0.427929
C59	C	0.986149	-0.552644	-0.009717
C60	C	1.486149	-0.052644	0.490283
C61	C	0.883030	-0.552631	-0.112781
C62	C	1.383030	-0.052631	0.387219
C63	C	0.904692	-0.447611	-0.091138
C64	C	1.404692	0.052389	0.408862
C65	C	0.967080	-0.395104	-0.028785
C66	C	1.467080	0.104896	0.471215
C67	C	1.007811	-0.447624	0.011926
C68	C	1.507811	0.052376	0.511926
C69	C	0.820634	-0.605133	-0.175132
C70	C	1.320634	-0.105133	0.324868
C71	C	0.779908	-0.552620	-0.215842
C72	C	1.279908	-0.052620	0.284158
C73	C	0.801574	-0.447598	-0.194203
C74	C	1.301574	0.052402	0.305797
C75	C	0.863962	-0.395091	-0.131850
C76	C	1.363962	0.104909	0.368150
C77	C	0.760843	-0.395078	-0.234914
C78	C	1.260843	0.104922	0.265086
C79	C	0.782505	-0.290057	-0.213271
C80	C	1.282505	0.209943	0.286729
C81	C	0.885624	-0.290070	-0.110207
C82	C	1.385624	0.209930	0.389793
C83	C	1.032239	-0.000141	-0.096185
C84	C	1.532239	0.499859	0.403815
C85	C	1.116256	-0.000146	-0.097524
C86	C	1.616256	0.499854	0.402476
C87	C	0.899634	-0.000132	0.036423
C88	C	1.399634	0.499868	0.536423
C89	C	0.898296	-0.000132	0.120441
C90	C	1.398296	0.499868	0.620441
N91	N	0.942821	0.237313	-0.052999
N92	N	1.442821	0.737313	0.447001
C93	C	0.888079	-0.000110	-0.240345
C94	C	1.388079	0.499890	0.259655
C95	C	0.889419	-0.000103	-0.324361
C96	C	1.389419	0.499897	0.175639
C97	C	0.966627	-0.000144	0.169060
C98	C	1.466627	0.499856	0.669060
C99	C	0.965366	-0.000135	0.248005
C100	C	1.465366	0.499865	0.748005
C101	C	0.895773	-0.000121	0.278329
C102	C	1.395773	0.499879	0.778329
C103	C	0.827437	-0.000107	0.229705
C104	C	1.327437	0.499893	0.729705
C105	C	0.828700	-0.000108	0.150762
C106	C	1.328700	0.499892	0.650762
C107	C	0.822344	-0.000098	0.548069
C108	C	1.322344	0.499902	1.048069
C109	C	0.821086	-0.000099	0.627017
C110	C	1.321086	0.499901	1.127017
C111	C	0.959010	-0.000124	0.645312
C112	C	1.459010	0.499876	1.145312
C113	C	0.960273	-0.000126	0.566370
C114	C	1.460273	0.499874	1.066370
C115	C	0.891939	-0.000106	0.517754
C116	C	1.391939	0.499894	1.017754
C117	C	0.893307	-0.000114	0.432153
C118	C	1.393307	0.499886	0.932153
C119	C	0.894403	-0.000121	0.363926
C120	C	1.394403	0.499879	0.863926
H121	H	0.106987	-0.000122	-0.222759
H122	H	0.606987	0.499878	0.277241
H123	H	1.021008	-0.000147	0.287587
H124	H	1.521008	0.499853	0.787587
H125	H	0.749341	-0.247301	-0.246422
H126	H	1.249341	0.252699	0.253578
F127	F	0.295559	-0.000157	0.042282
F128	F	0.795559	0.499843	0.542282
F129	F	0.529920	-0.000136	0.038529
F130	F	1.029920	0.499864	0.538529
H131	H	0.773058	-0.000099	0.111177
H132	H	1.273058	0.499901	0.611177
H133	H	0.140193	-0.000156	0.027485
H134	H	0.640193	0.499844	0.527485
H135	H	0.647522	-0.000073	-0.231399
H136	H	1.147522	0.499927	0.268601
F137	F	0.257794	-0.000103	-0.242448
F138	F	0.757794	0.499897	0.257552
F139	F	0.952037	-0.234193	-0.043848
F140	F	1.452037	0.265807	0.456152
F141	F	0.692883	-0.000121	0.035929
F142	F	1.192883	0.499879	0.535929
H143	H	0.770774	-0.000089	0.254401
H144	H	1.270774	0.499911	0.754401
H145	H	0.984714	-0.309589	-0.011162
H146	H	1.484714	0.190411	0.488838
F147	F	1.031739	-0.000142	0.697060
F148	F	1.531739	0.499858	1.197060
H149	H	0.504310	-0.000091	-0.229111
H150	H	1.004310	0.499909	0.270889
H151	H	1.058622	-0.404876	0.062696
H152	H	1.558622	0.095124	0.562696
H153	H	0.764410	-0.000090	0.651703
H154	H	1.264410	0.499910	1.151703
F155	F	0.749617	-0.000074	0.496339
F156	F	1.249617	0.499926	0.996339
H157	H	1.077686	-0.562410	0.081763
H158	H	1.577686	-0.062410	0.581763
H159	H	1.038372	-0.752936	0.042499
H160	H	1.538372	-0.252936	0.542499
F161	F	0.835687	-0.766057	-0.160071
F162	F	1.335687	-0.266057	0.339929
H163	H	0.802997	-0.690648	-0.192748
H164	H	1.302997	-0.190648	0.307252
F165	F	1.040697	-0.000168	0.136793
F166	F	1.540697	0.499832	0.636793
H167	H	0.729106	-0.595378	-0.266610
H168	H	1.229106	-0.095378	0.233390
H169	H	0.710038	-0.437837	-0.285679
H170	H	1.210038	0.062163	0.214321
H171	H	1.016942	-0.000142	0.541684
H172	H	1.516942	0.499858	1.041684
