data_functionalizedCrystal
_audit_creation_method	'MofGen! by Chris Wilmer'
_symmetry_space_group_name_H-M	'P1'
_symmetry_Int_Tables_number	1
_symmetry_cell_setting	triclinic
loop_
_symmetry_equiv_pos_as_xyz
  x,y,z
_cell_length_a	10.654541
_cell_length_b	10.654555
_cell_length_c	17.766277
_cell_angle_alpha	89.996225
_cell_angle_beta	89.992000
_cell_angle_gamma	84.486741
loop_
_atom_site_label
_atom_site_type_symbol
_atom_site_fract_x
_atom_site_fract_y
_atom_site_fract_z
O1	O	1.667860	0.176386	-0.062567
O2	O	1.302381	0.193195	-0.062573
O3	O	1.493516	0.002052	-0.062569
O4	O	1.476725	0.367529	-0.062570
O5	O	1.493482	0.002042	0.062619
O6	O	1.302347	0.193185	0.062616
O7	O	1.667826	0.176375	0.062622
Cu8	Cu	1.485083	0.184779	0.074050
Cu9	Cu	1.485124	0.184791	-0.074000
O10	O	1.476691	0.367519	0.062619
C11	C	1.255566	0.191956	0.000021
C12	C	1.116123	0.188265	0.000018
C13	C	1.088161	0.416829	0.000008
C14	C	1.008671	0.529372	0.000001
C15	C	0.877653	0.525896	-0.000000
C16	C	0.826123	0.409865	0.000009
C17	C	0.905613	0.297323	0.000017
C18	C	1.036633	0.300811	0.000016
C19	C	0.933574	0.068762	0.000032
C20	C	1.064593	0.072235	0.000028
C21	C	0.882044	-0.047268	0.000042
C22	C	0.961534	-0.159814	0.000044
C23	C	1.092560	-0.156333	0.000044
C24	C	1.144082	-0.040308	0.000036
C25	C	1.492263	-0.044751	0.000023
C26	C	1.488566	-0.184194	0.000019
C27	C	1.481589	-0.446236	0.136508
C28	C	1.483302	-0.380727	0.204750
C29	C	1.486770	-0.249708	0.204750
C30	C	1.488522	-0.184195	0.136501
C31	C	1.486810	-0.249704	0.068260
C32	C	1.483345	-0.380726	0.068267
C33	C	1.486853	-0.249703	-0.068223
C34	C	1.483394	-0.380723	-0.068225
C35	C	1.488605	-0.184189	-0.136471
C36	C	1.486902	-0.249700	-0.204715
C37	C	1.483434	-0.380727	-0.204712
C38	C	1.481681	-0.446232	-0.136466
C39	C	1.714641	0.177614	0.000027
C40	C	1.854084	0.181305	0.000024
C41	C	1.477944	0.414321	0.000024
C42	C	1.481641	0.553764	0.000024
N43	N	1.485064	0.184770	0.178180
N44	N	1.485153	0.184790	-0.178131
C45	C	1.569727	0.100174	0.217568
C46	C	1.569734	0.100168	0.296370
C47	C	1.485091	0.184780	0.335781
C48	C	1.400412	0.269383	0.296383
C49	C	1.400399	0.269377	0.217582
C50	C	1.469636	0.299018	0.460618
C51	C	1.469658	0.299025	0.539417
C52	C	1.485125	0.184796	0.578827
C53	C	1.500596	0.070555	0.539428
C54	C	1.500582	0.070550	0.460628
C55	C	1.485095	0.184795	0.421226
C56	C	1.569800	0.100186	0.703661
C57	C	1.569798	0.100179	0.782464
C58	C	1.400482	0.269404	0.782475
C59	C	1.400478	0.269401	0.703674
C60	C	1.485143	0.184793	0.664271
H61	H	1.250762	-0.037463	0.000027
H62	H	1.491332	-0.077510	0.136508
H63	H	0.812932	0.617538	-0.000001
F64	F	1.477921	-0.585681	0.136514
H65	H	1.482029	-0.434055	-0.260283
H66	H	1.481872	-0.434082	0.260317
H67	H	1.638736	0.031290	0.671579
H68	H	1.488142	-0.196368	0.260318
H69	H	1.457020	0.392043	0.428537
F70	F	1.310325	0.359429	0.338326
F71	F	0.906684	-0.283288	0.000060
H72	H	1.638737	0.031284	0.814535
F73	F	1.310391	0.359447	0.824415
H74	H	1.331543	0.338292	0.671601
H75	H	1.513189	-0.022461	0.571514
H76	H	1.457069	0.392046	0.571489
F77	F	1.177150	-0.276120	0.000058
F78	F	1.492272	-0.044744	-0.136470
H79	H	1.488319	-0.196347	-0.260277
F80	F	1.227601	0.420537	-0.000003
H81	H	1.478863	-0.552915	-0.136457
H82	H	1.050642	0.623842	-0.000005
F83	F	1.659829	0.010124	0.175635
H84	H	0.719440	0.407046	0.000018
F85	F	0.742602	-0.050965	0.000045
H86	H	1.638679	0.031277	0.328446
F87	F	1.517037	-0.051029	0.418700
H88	H	1.331455	0.338267	0.185512
