data_functionalizedCrystal
_audit_creation_method	'MofGen! by Chris Wilmer'
_symmetry_space_group_name_H-M	'P1'
_symmetry_Int_Tables_number	1
_symmetry_cell_setting	triclinic
loop_
_symmetry_equiv_pos_as_xyz
  x,y,z
_cell_length_a	19.188933
_cell_length_b	19.188930
_cell_length_c	15.455313
_cell_angle_alpha	92.650876
_cell_angle_beta	87.329187
_cell_angle_gamma	83.145175
loop_
_atom_site_label
_atom_site_type_symbol
_atom_site_fract_x
_atom_site_fract_y
_atom_site_fract_z
O1	O	0.929213	0.084112	-0.072111
O2	O	0.725902	0.095844	-0.072121
O3	O	0.833424	-0.011677	-0.072099
O4	O	0.821691	0.191633	-0.072133
O5	O	0.827275	-0.005554	0.072162
O6	O	0.719754	0.101967	0.072140
O7	O	0.923064	0.090235	0.072150
Cu8	Cu	0.820847	0.096660	0.085317
Cu9	Cu	0.828119	0.089419	-0.085288
O10	O	0.815542	0.197756	0.072128
C11	C	0.696817	0.098525	0.000009
C12	C	0.619312	0.097384	0.000006
C13	C	0.069408	0.085901	-0.078620
C14	C	0.142233	0.086969	-0.078623
C15	C	0.175298	0.090845	0.000013
C16	C	0.135535	0.093634	0.078659
C17	C	0.062713	0.092559	0.078660
N18	N	0.281824	0.134747	0.058538
N19	N	0.351002	0.135770	0.058532
C20	C	0.394707	0.094082	0.000014
N21	N	0.366620	0.051342	-0.058511
N22	N	0.297435	0.050323	-0.058507
C23	C	0.254261	0.092010	0.000020
C24	C	0.513426	0.092446	-0.078631
C25	C	0.586252	0.093510	-0.078631
C26	C	0.579552	0.100182	0.078653
C27	C	0.506728	0.099111	0.078651
C28	C	0.473669	0.095246	0.000007
C29	C	0.829969	-0.034626	0.000034
C30	C	0.828828	-0.112131	0.000042
C31	C	0.891919	-0.157054	0.000049
C32	C	0.890848	-0.229878	0.000035
C33	C	0.826682	-0.257775	0.000031
C34	C	0.763583	-0.212842	0.000019
C35	C	0.764657	-0.140020	0.000024
N36	N	0.775542	-0.363697	0.049124
N37	N	0.774527	-0.432876	0.049121
C38	C	0.823445	-0.477185	0.000013
N39	N	0.873426	-0.449703	-0.049079
N40	N	0.874443	-0.380518	-0.049072
C41	C	0.825511	-0.336738	0.000025
C42	C	0.885378	-0.601073	0.000004
C43	C	0.884305	-0.673899	-0.000015
C44	C	0.757038	-0.656861	-0.000022
C45	C	0.758114	-0.584037	-0.000011
C46	C	0.822285	-0.556148	0.000006
C47	C	0.952149	0.087553	0.000018
C48	C	1.029654	0.088694	0.000015
C49	C	0.818997	0.220705	-0.000007
C50	C	0.820138	0.298209	-0.000020
N51	N	0.815738	0.101753	0.205312
N52	N	0.833233	0.084320	-0.205283
C53	C	0.861433	0.056091	0.250715
C54	C	0.857576	0.059949	0.341522
C55	C	0.808026	0.109473	0.386924
C56	C	0.762327	0.155137	0.341514
C57	C	0.766181	0.151275	0.250709
C58	C	0.791388	0.126123	0.658502
C59	C	0.787539	0.129982	0.749314
C60	C	0.882787	0.034793	0.749316
C61	C	0.886640	0.030939	0.658508
C62	C	0.840938	0.076600	0.613107
N63	N	0.804084	0.113419	0.479744
N64	N	0.844878	0.072650	0.520289
H65	H	0.174606	0.084699	-0.142660
H66	H	0.486508	0.089297	-0.142668
H67	H	0.030345	0.094836	0.142696
H68	H	0.926987	-0.009388	0.621544
O69	O	0.694754	-0.684038	-0.000144
C70	C	0.622852	-0.759492	-0.074927
C71	C	0.693426	-0.728775	-0.074881
H72	H	0.621749	-0.795656	-0.135354
H73	H	0.616582	-0.790656	-0.014600
H74	H	0.577953	-0.714856	-0.074885
H75	H	0.738366	-0.773367	-0.074953
H76	H	0.699634	-0.697592	-0.135202
H77	H	0.942225	-0.266462	0.000037
H78	H	0.162462	0.096788	0.142685
H79	H	0.901784	0.015766	0.213755
H80	H	0.711339	-0.235561	0.000014
O81	O	0.747102	0.170512	0.614316
C82	C	0.736300	0.261589	0.511827
C83	C	0.786534	0.211336	0.561800
H84	H	0.768160	0.294619	0.469370
H85	H	0.703323	0.229769	0.469272
H86	H	0.700218	0.297617	0.559900
H87	H	0.822659	0.175297	0.513790
H88	H	0.819462	0.243199	0.604369
H89	H	0.728971	0.188457	0.213742
O90	O	0.714161	0.203152	0.385713
C91	C	0.614391	0.222606	0.488219
C92	C	0.668905	0.168153	0.438235
H93	H	0.577778	0.194330	0.530681
H94	H	0.642582	0.259212	0.530770
H95	H	0.582423	0.254592	0.440153
H96	H	0.700889	0.136118	0.486239
H97	H	0.640672	0.131595	0.395671
O98	O	0.703301	-0.096475	0.000061
C99	C	0.576962	-0.087264	-0.000003
C100	C	0.646393	-0.136659	-0.000026
H101	H	0.530934	-0.119733	-0.000092
H102	H	0.571660	-0.050206	0.060388
H103	H	0.576896	-0.055280	-0.060358
H104	H	0.646507	-0.168688	0.060287
H105	H	0.651668	-0.173670	-0.060458
O106	O	0.945543	-0.717607	0.000103
C107	C	1.015016	-0.806528	0.074861
C108	C	0.945627	-0.757074	0.074826
H109	H	1.015113	-0.838439	0.135277
H110	H	1.020278	-0.843644	0.014523
H111	H	1.061054	-0.774071	0.074832
H112	H	0.899549	-0.789474	0.074886
H113	H	0.940427	-0.719956	0.135159
O114	O	0.624919	0.090674	-0.154999
C115	C	0.719147	0.027571	-0.246255
C116	C	0.675398	0.030687	-0.159747
H117	H	0.759979	-0.020917	-0.250115
H118	H	0.683046	0.024580	-0.302495
H119	H	0.746836	0.076779	-0.250173
H120	H	0.647704	-0.018510	-0.155744
H121	H	0.711533	0.033713	-0.103548
O122	O	0.037365	0.082230	-0.155069
C123	C	0.012682	0.136690	-0.289485
C124	C	0.049017	0.140929	-0.202947
H125	H	0.022077	0.184149	-0.328211
H126	H	0.035209	0.086436	-0.328315
H127	H	-0.046188	0.136366	-0.275962
H128	H	0.107890	0.141281	-0.216391
H129	H	0.026434	0.191176	-0.164144
O130	O	0.611754	0.103849	0.154987
C131	C	0.698145	0.048432	0.246296
C132	C	0.661742	0.044204	0.159806
H133	H	0.738558	0.000208	0.250228
H134	H	0.725585	0.097919	0.250239
H135	H	0.657200	0.050279	0.302485
H136	H	0.702642	0.042328	0.103567
H137	H	0.634288	-0.005276	0.155939
H138	H	0.706738	-0.547459	-0.000012
O139	O	0.927271	-0.009501	0.793378
C140	C	1.047615	-0.049580	0.821097
C141	C	0.997318	0.000639	0.771162
H142	H	1.104260	-0.041410	0.803140
H143	H	1.036413	-0.038320	0.893808
H144	H	1.039404	-0.106229	0.803266
H145	H	1.005500	0.057306	0.788920
H146	H	1.008533	-0.010681	0.698463
H147	H	0.944173	-0.134351	0.000060
O148	O	0.468206	0.101869	0.155116
C149	C	0.469254	0.108559	0.311117
C150	C	0.512961	0.105458	0.224580
H151	H	0.505422	0.111447	0.367301
H152	H	0.428469	0.157088	0.315102
H153	H	0.441513	0.059381	0.315009
H154	H	0.540746	0.154601	0.220630
H155	H	0.553705	0.056898	0.220631
H156	H	0.937631	-0.578365	0.000014
H157	H	0.894783	0.022767	0.378489
H158	H	0.747188	0.170313	0.786276
