data_functionalizedCrystal
_audit_creation_method	'MofGen! by Chris Wilmer'
_symmetry_space_group_name_H-M	'P1'
_symmetry_Int_Tables_number	1
_symmetry_cell_setting	triclinic
loop_
_symmetry_equiv_pos_as_xyz
  x,y,z
_cell_length_a	23.532407
_cell_length_b	23.532407
_cell_length_c	22.610064
_cell_angle_alpha	89.999397
_cell_angle_beta	89.997161
_cell_angle_gamma	82.848678
loop_
_atom_site_label
_atom_site_type_symbol
_atom_site_fract_x
_atom_site_fract_y
_atom_site_fract_z
O1	O	0.755263	0.069127	-0.049117
O2	O	0.589400	0.079130	-0.049135
O3	O	0.677333	-0.008803	-0.049114
O4	O	0.667330	0.157060	-0.049137
O5	O	0.677318	-0.008790	0.049255
O6	O	0.589385	0.079143	0.049234
O7	O	0.755248	0.069140	0.049252
Zn8	Zn	0.672314	0.074144	0.064862
Zn9	Zn	0.672334	0.074127	-0.064744
O10	O	0.667315	0.157073	0.049232
C11	C	0.568176	0.078882	0.000048
C12	C	0.504959	0.078116	0.000041
C13	C	0.677071	-0.030013	0.000072
C14	C	0.676305	-0.093230	0.000076
C15	C	0.105856	0.125350	0.000061
C16	C	0.046456	0.124638	0.000065
O17	O	0.009711	0.168424	0.000081
N18	N	0.023830	0.072362	0.000071
C19	C	0.060607	0.020794	0.000080
O20	O	0.035908	-0.023737	0.000086
C21	C	0.120006	0.021506	0.000080
C22	C	0.142629	0.073785	0.000068
C23	C	0.128479	0.177625	0.000050
C24	C	0.187876	0.178336	0.000045
C25	C	0.224649	0.126772	0.000052
C26	C	0.202025	0.074497	0.000063
C27	C	0.156783	-0.030062	0.000093
C28	C	0.216185	-0.029345	0.000094
C29	C	0.238808	0.022934	0.000082
C30	C	0.298194	0.023643	0.000065
N31	N	0.320820	0.075920	0.000059
C32	C	0.284048	0.127484	0.000052
C33	C	-0.064135	0.019302	0.000080
C34	C	-0.123533	0.018589	0.000075
C35	C	-0.137680	0.122434	0.000061
C36	C	-0.078281	0.123146	0.000062
C37	C	-0.041509	0.071578	0.000074
C38	C	0.408784	0.128974	0.000042
C39	C	0.468186	0.129680	0.000034
C40	C	0.482329	0.025836	0.000051
C41	C	0.422932	0.025129	0.000055
C42	C	0.386160	0.076702	0.000052
O43	O	0.334974	-0.020119	0.000052
O44	O	0.308755	0.172007	0.000054
C45	C	0.723539	-0.492333	0.000049
C46	C	0.722827	-0.551733	0.000044
O47	O	0.766613	-0.588478	0.000027
N48	N	0.670551	-0.574359	0.000039
C49	C	0.618983	-0.537582	0.000032
O50	O	0.574452	-0.562281	0.000027
C51	C	0.619695	-0.478182	0.000033
C52	C	0.671974	-0.455560	0.000044
C53	C	0.775814	-0.469710	0.000060
C54	C	0.776525	-0.410313	0.000065
C55	C	0.724961	-0.373540	0.000060
C56	C	0.672685	-0.396164	0.000050
C57	C	0.568127	-0.441406	0.000022
C58	C	0.568844	-0.382004	0.000021
C59	C	0.621123	-0.359381	0.000033
C60	C	0.621832	-0.299995	0.000050
N61	N	0.674109	-0.277368	0.000056
C62	C	0.725673	-0.314141	0.000061
C63	C	0.617491	-0.662324	0.000031
C64	C	0.616778	-0.721722	0.000034
C65	C	0.720623	-0.735869	0.000045
C66	C	0.721335	-0.676470	0.000046
C67	C	0.669767	-0.639698	0.000036
C68	C	0.727163	-0.189405	0.000073
C69	C	0.727869	-0.130003	0.000081
C70	C	0.624025	-0.115860	0.000067
C71	C	0.623318	-0.175257	0.000062
C72	C	0.674891	-0.212029	0.000063
O73	O	0.578070	-0.263215	0.000065
O74	O	0.770196	-0.289433	0.000058
C75	C	0.776472	0.069388	0.000069
C76	C	0.839689	0.070154	0.000071
C77	C	0.667577	0.178283	0.000045
C78	C	0.668343	0.241500	0.000036
N79	N	0.672304	0.074155	0.153314
N80	N	0.672349	0.074111	-0.153196
C81	C	0.711273	0.035196	0.561965
C82	C	0.711276	0.035192	0.623884
O83	O	0.744384	0.002076	0.655911
N84	N	0.672334	0.074115	0.654851
C85	C	0.633383	0.113041	0.623895
O86	O	0.600259	0.146147	0.655920
C87	C	0.633377	0.113042	0.561976
C88	C	0.672326	0.074120	0.531013
C89	C	0.750218	-0.003724	0.531001
C90	C	0.750215	-0.003719	0.469085
C91	C	0.711268	0.035206	0.438133
C92	C	0.672323	0.074125	0.469097
C93	C	0.594424	0.151965	0.531021
C94	C	0.594422	0.151962	0.469098
C95	C	0.633370	0.113040	0.438134
C96	C	0.633374	0.113054	0.376229
N97	N	0.672316	0.074131	0.345262
C98	C	0.711263	0.035207	0.376214
C99	C	0.633396	0.113035	0.753928
C100	C	0.633403	0.113037	0.815846
C101	C	0.711296	0.035187	0.815831
C102	C	0.711291	0.035188	0.753913
C103	C	0.672338	0.074112	0.722962
C104	C	0.711255	0.035220	0.246187
C105	C	0.711251	0.035230	0.184266
C106	C	0.633357	0.113078	0.184286
C107	C	0.633363	0.113071	0.246202
C108	C	0.672314	0.074137	0.277151
O109	O	0.600281	0.146152	0.344163
O110	O	0.744376	0.002101	0.344182
H111	H	0.378851	0.170970	0.000041
N112	N	0.776238	-0.775542	0.000046
H113	H	0.799068	-0.768299	-0.036417
H114	H	0.799013	-0.768285	0.036538
N115	N	0.132392	-0.086450	0.000115
H116	H	0.108064	-0.089076	-0.036348
H117	H	0.164739	-0.118969	0.000146
N118	N	0.832914	-0.385920	0.000060
H119	H	0.825549	-0.342710	0.000058
H120	H	0.855462	-0.399394	0.036525
N121	N	0.792237	-0.045704	0.564375
H122	H	0.770635	-0.070821	0.590071
H123	H	0.816892	-0.070312	0.535315
H124	H	0.525555	-0.459814	0.000009
N125	N	0.552411	0.193947	0.435713
H126	H	0.527320	0.172312	0.410025
H127	H	0.527780	0.218592	0.464764
N128	N	0.513223	-0.342342	0.000008
H129	H	0.480000	-0.365691	0.000000
H130	H	0.511246	-0.317390	0.036476
N131	N	0.591365	0.155058	0.279603
H132	H	0.566695	0.179720	0.250597
H133	H	0.566311	0.133383	0.305293
H134	H	0.580748	-0.193677	0.000069
H135	H	0.742973	0.003516	0.271379
N136	N	0.782785	-0.229063	0.000078
H137	H	0.805616	-0.221814	-0.036382
H138	H	0.805551	-0.221798	0.036574
N139	N	0.753298	-0.006791	0.720518
H140	H	0.777971	-0.031446	0.749528
H141	H	0.731640	-0.031862	0.694832
H142	H	0.575496	-0.632386	0.000028
N143	N	0.568411	-0.076193	0.000078
H144	H	0.576799	-0.035132	0.000085
H145	H	0.545612	-0.083476	-0.036390
H146	H	0.098544	0.219617	0.000046
N147	N	0.753263	-0.006749	0.150870
H148	H	0.777934	-0.031409	0.179877
H149	H	0.731605	-0.031816	0.125179
N150	N	0.255847	-0.084966	0.000110
H151	H	0.232498	-0.118189	0.000119
H152	H	0.280802	-0.086943	-0.036357
H153	H	0.601694	0.144737	0.841052
H154	H	-0.034198	-0.022693	0.000084
N155	N	0.212272	0.234724	0.000029
H156	H	0.179956	0.267277	0.000025
H157	H	0.236607	0.237292	0.036494
N158	N	0.492586	0.186070	0.000015
H159	H	0.460274	0.218626	0.000012
H160	H	0.516924	0.188636	0.036478
N161	N	-0.053883	0.179533	0.000047
H162	H	-0.086197	0.212087	0.000040
H163	H	-0.029550	0.182100	0.036513
N164	N	-0.177334	0.178061	0.000067
H165	H	-0.202299	0.180089	-0.036394
H166	H	-0.202253	0.180051	0.036561
H167	H	-0.141947	-0.023982	0.000076
H168	H	0.404512	-0.017441	0.000056
N169	N	0.521994	-0.029779	0.000061
H170	H	0.546958	-0.031805	-0.036403
H171	H	0.546913	-0.031752	0.036553
H172	H	0.781929	-0.035414	0.443878
N173	N	0.784259	-0.105603	0.000097
H174	H	0.816815	-0.137915	0.000097
H175	H	0.786824	-0.081263	-0.036367
N176	N	0.753305	-0.006797	0.849221
H177	H	0.747393	-0.000890	0.893144
H178	H	0.746956	-0.047167	0.838400
N179	N	0.831434	-0.509367	0.000066
H180	H	0.864653	-0.486012	0.000073
H181	H	0.833396	-0.534317	0.036534
N182	N	0.777722	-0.652072	0.000058
H183	H	0.810276	-0.684386	0.000063
H184	H	0.780289	-0.627737	-0.036408
N185	N	0.591382	0.155022	0.720548
H186	H	0.566716	0.179676	0.749565
H187	H	0.613035	0.180093	0.694854
H188	H	0.574207	-0.740136	0.000035
H189	H	0.562709	0.183658	0.556223
H190	H	0.601648	0.144772	0.159075
