data_functionalizedCrystal
_audit_creation_method	'MofGen! by Chris Wilmer'
_symmetry_space_group_name_H-M	'P1'
_symmetry_Int_Tables_number	1
_symmetry_cell_setting	triclinic
loop_
_symmetry_equiv_pos_as_xyz
  x,y,z
_cell_length_a	11.026607
_cell_length_b	7.088929
_cell_length_c	8.597304
_cell_angle_alpha	76.027438
_cell_angle_beta	96.851186
_cell_angle_gamma	97.577146
loop_
_atom_site_label
_atom_site_type_symbol
_atom_site_fract_x
_atom_site_fract_y
_atom_site_fract_z
O1	O	1.597000	-0.271152	0.681004
O2	O	1.243772	-0.258623	0.604919
O3	O	1.430283	-0.227078	0.413453
O4	O	1.410489	-0.302696	0.872469
O5	O	1.455208	0.095125	0.387792
O6	O	1.268698	0.063580	0.579257
O7	O	1.621925	0.051051	0.655342
Cu8	Cu	1.447587	0.086735	0.614957
Cu9	Cu	1.418110	-0.294307	0.645304
O10	O	1.435415	0.019507	0.846808
C11	C	1.211039	-0.095210	0.578052
C12	C	1.076368	-0.088319	0.536209
N13	N	1.468329	0.354740	0.593613
N14	N	1.397378	-0.562310	0.666638
C15	C	1.002442	-0.107354	0.651745
C16	C	0.863252	-0.100232	0.608501
C17	C	1.654658	-0.112366	0.682210
C18	C	1.789328	-0.119270	0.724054
C19	C	1.442008	-0.056150	0.340945
C20	C	1.439798	-0.026867	0.163122
C21	C	1.423689	-0.151426	0.919316
C22	C	1.425898	-0.180721	1.097140
H23	H	1.042198	-0.128912	0.782673
C24	C	1.412110	-0.388952	0.204590
H25	H	1.403083	-0.481545	0.139352
H26	H	1.483075	-0.408235	0.278495
H27	H	1.341642	-0.405550	0.262202
H28	H	0.823499	-0.078711	0.477567
H29	H	1.541874	0.448862	0.517950
C30	C	0.843012	-0.148420	0.900941
H31	H	0.929519	-0.149401	0.906807
H32	H	0.825017	-0.044575	0.943631
H33	H	0.807631	-0.269304	0.961508
C34	C	1.022674	-0.059191	0.359333
H35	H	0.936165	-0.058243	0.353473
H36	H	1.058051	0.061669	0.298746
H37	H	1.040666	-0.163067	0.316664
C38	C	1.453582	0.181374	0.055664
H39	H	1.462591	0.273965	0.120903
H40	H	1.524036	0.197984	-0.001961
H41	H	1.382602	0.200652	-0.018230
C42	C	1.298040	0.310561	0.768863
H43	H	1.299451	0.177298	0.767384
H44	H	1.313762	0.325534	0.876524
H45	H	1.219610	0.350395	0.725722
