data_functionalizedCrystal
_audit_creation_method	'MofGen! by Chris Wilmer'
_symmetry_space_group_name_H-M	'P1'
_symmetry_Int_Tables_number	1
_symmetry_cell_setting	triclinic
loop_
_symmetry_equiv_pos_as_xyz
  x,y,z
_cell_length_a	17.077404
_cell_length_b	16.120484
_cell_length_c	17.077396
_cell_angle_alpha	92.868746
_cell_angle_beta	89.980499
_cell_angle_gamma	92.925780
loop_
_atom_site_label
_atom_site_type_symbol
_atom_site_fract_x
_atom_site_fract_y
_atom_site_fract_z
Zn1	Zn	1.184194	-0.331902	-0.459673
Zn2	Zn	1.177439	-0.471326	-0.335057
Zn3	Zn	1.052925	-0.331932	-0.328422
Zn4	Zn	1.046234	-0.471277	-0.466278
O5	O	1.115198	-0.401609	-0.397358
O6	O	1.293145	-0.350406	-0.443155
O7	O	1.160895	-0.452868	-0.224331
O8	O	1.075965	-0.215262	-0.340292
O9	O	1.288181	-0.452840	-0.351600
O10	O	1.172408	-0.215241	-0.436721
O11	O	1.069415	-0.350456	-0.219457
O12	O	0.942191	-0.350408	-0.346697
O13	O	1.064562	-0.452756	-0.575247
O14	O	0.937275	-0.452784	-0.447979
O15	O	1.165921	-0.350358	-0.570395
O16	O	1.154407	-0.587986	-0.358004
O17	O	1.058011	-0.587949	-0.454412
C18	C	0.911251	-0.401594	-0.397335
C19	C	0.824000	-0.401608	-0.397345
C20	C	0.780467	-0.454996	-0.450006
C21	C	0.698487	-0.454997	-0.450019
C22	C	0.660041	-0.401615	-0.397366
C23	C	0.703580	-0.348221	-0.344703
C24	C	0.785559	-0.348216	-0.344694
C25	C	0.532709	-0.348238	-0.344722
C26	C	0.450724	-0.348244	-0.344729
C27	C	0.445637	-0.455019	-0.450047
C28	C	0.527616	-0.455014	-0.450038
C29	C	0.571149	-0.401621	-0.397374
C30	C	1.104771	-0.618218	-0.407662
C31	C	1.100383	-0.710884	-0.412097
C32	C	1.092374	-0.880545	-0.420209
C33	C	1.138162	-0.921833	-0.374519
C34	C	1.133706	-1.016239	-0.379033
C35	C	1.096829	-0.786131	-0.415696
C36	C	1.319941	-0.401625	-0.397381
C37	C	1.407191	-0.401632	-0.397390
C38	C	1.115248	-0.401548	-0.602099
C39	C	1.115270	-0.401522	-0.689348
C40	C	1.125687	-0.184155	-0.387030
C41	C	1.130156	-0.091489	-0.382629
C42	C	1.168049	-0.348199	-0.727812
C43	C	1.168060	-0.348171	-0.809791
C44	C	1.115295	-0.401471	-0.853305
C45	C	1.062509	-0.454796	-0.814835
C46	C	1.062495	-0.454819	-0.732857
C47	C	1.062543	-0.454746	-0.985702
C48	C	1.062558	-0.454725	-1.067686
C49	C	1.168108	-0.348098	-1.062637
C50	C	1.168094	-0.348121	-0.980659
C51	C	1.115310	-0.401448	-0.942195
C52	C	1.115196	-0.401610	-0.193410
C53	C	1.115338	-0.401402	-0.106150
H54	H	0.821003	-0.304738	-0.301816
C55	C	1.004441	-0.513477	-0.690540
C56	C	0.915534	-0.506666	-0.701470
C57	C	0.857476	-0.565323	-0.659152
C58	C	0.888326	-0.630791	-0.605904
C59	C	0.977237	-0.637605	-0.594972
C60	C	1.035295	-0.578948	-0.637290
H61	H	0.892694	-0.458200	-0.740889
H62	H	0.791658	-0.560278	-0.667245
H63	H	0.845348	-0.674212	-0.574578
H64	H	1.000077	-0.686070	-0.555553
H65	H	1.101113	-0.583993	-0.629196
C66	C	0.661288	-0.289499	-0.286786
C67	C	0.608087	-0.224101	-0.317798
C68	C	0.565796	-0.165380	-0.259879
C69	C	0.576706	-0.172057	-0.170948
C70	C	0.629910	-0.237458	-0.139931
C71	C	0.672201	-0.296180	-0.197850
H72	H	0.600008	-0.219155	-0.383634
H73	H	0.526410	-0.116965	-0.282840
H74	H	0.545399	-0.128588	-0.128073
H75	H	0.637988	-0.242404	-0.074095
H76	H	0.711586	-0.344594	-0.174889
H77	H	1.211065	-0.304724	-0.945232
H78	H	0.568152	-0.304752	-0.301844
H79	H	0.663045	-0.498472	-0.492900
C80	C	0.569907	-0.513735	-0.507956
C81	C	0.554076	-0.608504	-0.505916
C82	C	0.596367	-0.667224	-0.563837
C83	C	0.654488	-0.631175	-0.623797
C84	C	0.670322	-0.536401	-0.625840
C85	C	0.628031	-0.477681	-0.567919
H86	H	0.511049	-0.635194	-0.461528
H87	H	0.584645	-0.737382	-0.562325
H88	H	0.685794	-0.674643	-0.666674
H89	H	0.713349	-0.509712	-0.670228
H90	H	0.639753	-0.407523	-0.569431
H91	H	1.211086	-0.304676	-1.093958
H92	H	1.019544	-0.498191	-0.850270
H93	H	1.019590	-0.498124	-1.103113
C94	C	1.226094	-0.289567	-0.679951
C95	C	1.285974	-0.325711	-0.625322
C96	C	1.344018	-0.267075	-0.577464
C97	C	1.342184	-0.172295	-0.584235
C98	C	1.282302	-0.136146	-0.638866
C99	C	1.224257	-0.194782	-0.686724
H100	H	1.287334	-0.395877	-0.620308
H101	H	1.388347	-0.293835	-0.537023
H102	H	1.385152	-0.128889	-0.548808
H103	H	1.280942	-0.065980	-0.643880
H104	H	1.179929	-0.168022	-0.727166
H105	H	0.811764	-0.498469	-0.492880
H106	H	0.410188	-0.498491	-0.492930
H107	H	1.180708	-0.886279	-0.332012
C108	C	1.034894	-0.928570	-0.477625
C109	C	0.946206	-0.916791	-0.470577
C110	C	0.888724	-0.964829	-0.527989
C111	C	0.919931	-1.024644	-0.592448
C112	C	1.008624	-1.036425	-0.599499
C113	C	1.066105	-0.988388	-0.542087
H114	H	0.923101	-0.872510	-0.422857
H115	H	0.823068	-0.956107	-0.522769
H116	H	0.877380	-1.060204	-0.634948
H117	H	1.031729	-1.080707	-0.647219
H118	H	1.131762	-0.997110	-0.547307
C119	C	0.408432	-0.289500	-0.286833
C120	C	0.456314	-0.230749	-0.228924
C121	C	0.414022	-0.171995	-0.171036
C122	C	0.323849	-0.171993	-0.171057
C123	C	0.275962	-0.230747	-0.228969
C124	C	0.318253	-0.289501	-0.286857
H125	H	0.523070	-0.230748	-0.228906
H126	H	0.449472	-0.128501	-0.128166
H127	H	0.292542	-0.128500	-0.128205
H128	H	0.209205	-0.230748	-0.228986
H129	H	0.282804	-0.332994	-0.329727
C130	C	1.226120	-0.289513	-0.852098
C131	C	1.315026	-0.296331	-0.841167
C132	C	1.373088	-0.237667	-0.883472
C133	C	1.342244	-0.172185	-0.936707
C134	C	1.253333	-0.165365	-0.947640
C135	C	1.195272	-0.224029	-0.905336
H136	H	1.337863	-0.344806	-0.801757
H137	H	1.438905	-0.242716	-0.875378
H138	H	1.385224	-0.128758	-0.968023
H139	H	1.230496	-0.116889	-0.987051
H140	H	1.129454	-0.218979	-0.913430
H141	H	1.019549	-0.498158	-0.954387
