data_functionalizedCrystal
_audit_creation_method	'MofGen! by Chris Wilmer'
_symmetry_space_group_name_H-M	'P1'
_symmetry_Int_Tables_number	1
_symmetry_cell_setting	triclinic
loop_
_symmetry_equiv_pos_as_xyz
  x,y,z
_cell_length_a	8.597340
_cell_length_b	8.559649
_cell_length_c	7.088929
_cell_angle_alpha	84.655815
_cell_angle_beta	103.954719
_cell_angle_gamma	77.625043
loop_
_atom_site_label
_atom_site_type_symbol
_atom_site_fract_x
_atom_site_fract_y
_atom_site_fract_z
O1	O	2.074465	0.219480	0.182749
O2	O	1.606585	0.245569	0.105672
O3	O	1.881746	-0.000135	0.151003
O4	O	1.799304	0.465184	0.137418
O5	O	1.918527	-0.033046	0.475038
O6	O	1.643366	0.212659	0.429707
O7	O	2.111247	0.186570	0.506784
Cu8	Cu	1.880665	0.196609	0.497833
Cu9	Cu	1.837167	0.235529	0.114624
O10	O	1.836086	0.432274	0.461453
C11	C	1.565631	0.228145	0.257914
C12	C	1.388806	0.225241	0.228784
C13	C	1.906384	-0.076129	0.314046
C14	C	1.924980	-0.253534	0.317099
C15	C	2.152200	0.203994	0.354539
C16	C	2.329024	0.206900	0.383656
C17	C	1.811447	0.508268	0.298406
C18	C	1.792850	0.685674	0.295340
N19	N	1.911271	0.169234	0.767363
N20	N	1.806574	0.262892	-0.154904
H21	H	1.665501	-0.230651	0.274367
C22	C	1.275199	0.243461	0.019522
C23	C	1.246235	0.397347	-0.128283
C24	C	1.132629	0.415567	-0.337540
C25	C	1.047987	0.279899	-0.398992
C26	C	1.076949	0.126002	-0.251184
C27	C	1.190555	0.107782	-0.041927
H28	H	1.308894	0.497786	-0.082795
H29	H	1.111190	0.529493	-0.446957
H30	H	0.963890	0.293386	-0.553896
H31	H	1.014291	0.025563	-0.296671
H32	H	1.211994	-0.006144	0.067490
C33	C	1.659979	0.394006	0.710658
C34	C	1.643423	0.573096	0.735768
C35	C	1.496825	0.704213	0.601315
C36	C	1.366781	0.656240	0.441754
C37	C	1.383332	0.477142	0.416638
C38	C	1.529931	0.346025	0.551090
H39	H	1.739693	0.608616	0.853890
H40	H	1.484573	0.836793	0.619909
H41	H	1.258260	0.753300	0.342225
H42	H	1.287062	0.441621	0.298515
H43	H	1.542182	0.213444	0.532497
H44	H	2.052339	-0.337220	0.338095
C45	C	2.057875	0.038113	0.901810
C46	C	2.179160	-0.070387	0.811928
C47	C	2.325761	-0.201506	0.946374
C48	C	2.351076	-0.224124	1.170702
C49	C	2.229787	-0.115620	1.260596
C50	C	2.083187	0.015498	1.126150
H51	H	2.160423	-0.053647	0.645856
H52	H	2.415546	-0.281827	0.879828
H53	H	2.459599	-0.321186	1.270227
H54	H	2.248524	-0.132361	1.426667
H55	H	1.993401	0.095819	1.192696
C56	C	1.442623	0.188681	0.592906
C57	C	1.401348	0.312216	0.729139
C58	C	1.514959	0.293997	0.938393
C59	C	1.669844	0.152243	1.011415
C60	C	1.711126	0.028698	0.875180
C61	C	1.597515	0.046917	0.665926
H62	H	1.286686	0.417159	0.675086
H63	H	1.484398	0.385454	1.039243
H64	H	1.753945	0.138756	1.166317
H65	H	1.825787	-0.076246	0.929233
H66	H	1.628076	-0.044540	0.565076
