data_functionalizedCrystal
_audit_creation_method	'MofGen! by Chris Wilmer'
_symmetry_space_group_name_H-M	'P1'
_symmetry_Int_Tables_number	1
_symmetry_cell_setting	triclinic
loop_
_symmetry_equiv_pos_as_xyz
  x,y,z
_cell_length_a	14.044220
_cell_length_b	10.654550
_cell_length_c	9.730223
_cell_angle_alpha	89.993622
_cell_angle_beta	90.001055
_cell_angle_gamma	91.163110
loop_
_atom_site_label
_atom_site_type_symbol
_atom_site_fract_x
_atom_site_fract_y
_atom_site_fract_z
O1	O	0.133225	-1.681227	0.114408
O2	O	0.145919	-1.317024	0.114387
O3	O	0.001551	-1.493659	0.114384
O4	O	0.277593	-1.504592	0.114411
O5	O	0.001559	-1.493647	-0.114196
O6	O	0.145927	-1.317012	-0.114193
O7	O	0.133233	-1.681215	-0.114172
Zn8	Zn	0.139581	-1.499112	-0.150474
Zn9	Zn	0.139571	-1.499127	0.150689
O10	O	0.277601	-1.504581	-0.114169
C11	C	0.144991	-1.270127	0.000094
C12	C	0.142202	-1.130403	0.000085
C13	C	-0.033790	-1.488867	0.000093
C14	C	-0.139110	-1.474592	0.000090
N15	N	0.139588	-1.499111	-0.356011
C16	C	-0.331943	-1.448493	0.000108
C17	C	-0.388911	-1.549741	0.000119
C18	C	-0.496210	-1.535219	0.000129
C19	C	-0.224634	-1.463013	0.000098
C20	C	0.312942	-1.509372	0.000125
C21	C	0.418262	-1.523648	0.000137
C22	C	0.134161	-1.728113	0.000124
C23	C	0.136950	-1.867836	0.000142
C24	C	0.227203	-1.059459	0.000114
C25	C	0.224578	-0.928175	0.000137
C26	C	0.051942	-0.938790	0.000109
C27	C	0.054569	-1.070072	0.000076
C28	C	0.326873	-1.053330	0.000136
C29	C	0.324247	-0.922045	0.000159
C30	C	0.197650	-1.581775	-0.427939
C31	C	0.197632	-1.581792	-0.571822
C32	C	0.081488	-1.416470	-0.571836
C33	C	0.081501	-1.416460	-0.427955
C34	C	0.264709	-1.677219	-0.427933
C35	C	0.264691	-1.677236	-0.571815
N36	N	0.139557	-1.499138	0.356226
H37	H	-0.357098	-1.647328	0.000217
H38	H	-0.363754	-1.350913	0.000106
F39	F	0.368349	-1.104115	0.129130
H40	H	0.034195	-1.349178	-0.630431
F41	F	0.373327	-0.872430	0.125206
H42	H	0.354372	-0.879395	-0.098522
H43	H	-0.014647	-1.127830	0.000033
H44	H	-0.019406	-0.889652	0.000123
H45	H	0.339490	-1.653821	-0.610883
H46	H	0.034211	-1.349159	-0.369397
H47	H	0.241403	-1.773929	-0.388864
F48	F	0.377832	-1.096787	-0.124894
H49	H	0.336136	-1.644866	-0.383324
H50	H	0.234874	-1.768831	-0.616415
