data_functionalizedCrystal
_audit_creation_method	'MofGen! by Chris Wilmer'
_symmetry_space_group_name_H-M	'P1'
_symmetry_Int_Tables_number	1
_symmetry_cell_setting	triclinic
loop_
_symmetry_equiv_pos_as_xyz
  x,y,z
_cell_length_a	21.295419
_cell_length_b	21.295418
_cell_length_c	21.295395
_cell_angle_alpha	89.910905
_cell_angle_beta	90.091026
_cell_angle_gamma	89.982466
loop_
_atom_site_label
_atom_site_type_symbol
_atom_site_fract_x
_atom_site_fract_y
_atom_site_fract_z
Zn1	Zn	0.249881	0.962764	-0.356307
Zn2	Zn	0.749881	1.462764	0.143693
Zn3	Zn	0.355291	0.962636	-0.251062
Zn4	Zn	0.855291	1.462636	0.248938
Zn5	Zn	0.250069	0.857404	-0.251016
Zn6	Zn	0.750069	1.357404	0.248984
Zn7	Zn	0.355146	0.857509	-0.356259
Zn8	Zn	0.855146	1.357509	0.143741
O9	O	0.302597	0.910078	-0.303661
O10	O	0.802597	1.410078	0.196339
O11	O	0.263847	1.050836	-0.342385
O12	O	0.763847	1.550836	0.157615
O13	O	0.341472	0.948579	-0.162966
O14	O	0.841472	1.448579	0.337034
O15	O	0.161954	0.871389	-0.264984
O16	O	0.661954	1.371389	0.235016
O17	O	0.341290	1.050742	-0.265062
O18	O	0.841290	1.550742	0.234938
O19	O	0.161817	0.948797	-0.342340
O20	O	0.661817	1.448797	0.157660
O21	O	0.264166	0.871265	-0.162932
O22	O	0.764166	1.371265	0.337068
O23	O	0.264025	0.769328	-0.264937
O24	O	0.764025	1.269328	0.235063
O25	O	0.341043	0.871569	-0.444355
O26	O	0.841043	1.371569	0.055645
O27	O	0.341225	0.769406	-0.342259
O28	O	0.841225	1.269406	0.157741
O29	O	0.263706	0.948899	-0.444390
O30	O	0.763706	1.448899	0.055610
O31	O	0.443361	0.948681	-0.265015
O32	O	0.943361	1.448681	0.234985
O33	O	0.443254	0.871445	-0.342303
O34	O	0.943254	1.371445	0.157697
C35	C	0.302630	0.746526	-0.303588
C36	C	0.802630	1.246526	0.196412
C37	C	0.302659	0.676558	-0.303572
C38	C	0.802659	1.176558	0.196428
C39	C	0.138406	0.910096	-0.303662
C40	C	0.638406	1.410096	0.196338
C41	C	0.068438	0.910103	-0.303663
C42	C	0.568438	1.410103	0.196337
C43	C	0.342911	0.643749	-0.343773
C44	C	0.842911	1.143749	0.156227
C45	C	0.342895	0.578006	-0.343801
C46	C	0.842895	1.078006	0.156199
C47	C	0.302635	0.545076	-0.303617
C48	C	0.802635	1.045076	0.196383
C49	C	0.262376	0.577894	-0.263414
C50	C	0.762376	1.077894	0.236586
C51	C	0.262388	0.643635	-0.263391
C52	C	0.762388	1.143635	0.236609
N53	N	0.297790	0.441754	-0.248558
N54	N	0.797790	0.941754	0.251442
N55	N	0.297782	0.379302	-0.248582
N56	N	0.797782	0.879302	0.251418
C57	C	0.302595	0.347001	-0.303684
C58	C	0.802595	0.847001	0.196316
N59	N	0.307427	0.379511	-0.358764
N60	N	0.807427	0.879511	0.141236
N61	N	0.307439	0.441968	-0.358740
N62	N	0.807439	0.941968	0.141260
C63	C	0.302617	0.473791	-0.303638
C64	C	0.802617	0.973791	0.196362
C65	C	0.342831	0.242906	-0.343919
C66	C	0.842831	0.742906	0.156081
C67	C	0.342811	0.177162	-0.343949
C68	C	0.842811	0.677162	0.156051
C69	C	0.262295	0.177051	-0.263555
C70	C	0.762295	0.677051	0.236445
C71	C	0.262312	0.242794	-0.263531
C72	C	0.762312	0.742794	0.236469
C73	C	0.302583	0.275717	-0.303713
C74	C	0.802583	0.775717	0.196287
C75	C	0.035521	0.869891	-0.343899
C76	C	0.535521	1.369891	0.156101
C77	C	-0.030222	0.869897	-0.343908
C78	C	0.469778	1.369897	0.156092
C79	C	-0.063044	0.910108	-0.303670
C80	C	0.436956	1.410108	0.196330
C81	C	-0.030119	0.950329	-0.263431
C82	C	0.469881	1.450329	0.236569
C83	C	0.035623	0.950326	-0.263427
C84	C	0.535623	1.450326	0.236573
N85	N	-0.166181	0.914879	-0.248575
N86	N	0.333819	1.414879	0.251425
N87	N	-0.228632	0.914877	-0.248580
N88	N	0.271368	1.414877	0.251420
C89	C	-0.261119	0.910120	-0.303678
C90	C	0.238881	1.410120	0.196322
N91	N	-0.228795	0.905351	-0.358773
N92	N	0.271205	1.405351	0.141227
N93	N	-0.166338	0.905349	-0.358767
N94	N	0.333662	1.405349	0.141233
C95	C	-0.134330	0.910116	-0.303669
C96	C	0.365670	1.410116	0.196331
C97	C	-0.365322	0.869912	-0.343927
C98	C	0.134678	1.369912	0.156073
C99	C	-0.431066	0.869922	-0.343937
C100	C	0.068934	1.369922	0.156063
C101	C	-0.430961	0.950351	-0.263454
C102	C	0.069039	1.450351	0.236546
C103	C	-0.365219	0.950344	-0.263450
C104	C	0.134781	1.450344	0.236550
C105	C	-0.332403	0.910121	-0.303685
C106	C	0.167597	1.410121	0.196315
C107	C	0.466148	0.910078	-0.303673
C108	C	0.966148	1.410078	0.196327
C109	C	0.536116	0.910135	-0.303699
C110	C	1.036116	1.410135	0.196301
C111	C	0.302337	0.910260	-0.467852
C112	C	0.802337	1.410260	0.032148
C113	C	0.302227	0.910338	-0.537820
C114	C	0.802227	1.410338	-0.037820
C115	C	0.302564	1.074269	-0.303734
C116	C	0.802564	1.574269	0.196266
C117	C	0.302550	1.144237	-0.303765
C118	C	0.802550	1.644237	0.196235
C119	C	0.302809	0.909933	-0.140109
C120	C	0.802809	1.409933	0.359891
C121	C	0.302743	0.909977	-0.070141
C122	C	0.802743	1.409977	0.429859
C123	C	0.262760	0.869453	-0.037286
C124	C	0.762760	1.369453	0.462714
C125	C	0.262692	0.869500	0.028456
C126	C	0.762692	1.369500	0.528456
C127	C	0.302618	0.910064	0.061342
C128	C	0.802618	1.410064	0.561342
C129	C	0.342603	0.950595	0.028479
C130	C	0.842603	1.450595	0.528479
C131	C	0.342665	0.950552	-0.037262
C132	C	0.842665	1.450552	0.462738
N133	N	0.357584	0.915353	0.164689
N134	N	0.857584	1.415353	0.664689
N135	N	0.357523	0.915390	0.227141
N136	N	0.857523	1.415390	0.727141
C137	C	0.302431	0.910198	0.259416
C138	C	0.802431	1.410198	0.759416
N139	N	0.247401	0.904954	0.226880
N140	N	0.747401	1.404954	0.726880
N141	N	0.247463	0.904913	0.164423
N142	N	0.747463	1.404913	0.664423
C143	C	0.302554	0.910115	0.132627
C144	C	0.802554	1.410115	0.632627
C145	C	0.262371	0.869722	0.363556
C146	C	0.762371	1.369722	0.863556
C147	C	0.262302	0.869773	0.429299
C148	C	0.762302	1.369773	0.929299
C149	C	0.342218	0.950865	0.429321
C150	C	0.842218	1.450865	0.929321
C151	C	0.342282	0.950818	0.363579
C152	C	0.842282	1.450818	0.863579
C153	C	0.302359	0.910243	0.330700
C154	C	0.802359	1.410243	0.830700
H155	H	0.375702	0.670551	-0.376493
H156	H	0.875702	1.170551	0.123507
H157	H	0.375672	0.551287	-0.376540
H158	H	0.875672	1.051287	0.123460
C159	C	-0.451453	0.839362	-0.450516
C160	C	0.048547	1.339362	0.049484
C161	C	-0.467249	0.825715	-0.388169
C162	C	0.032751	1.325715	0.111831
H163	H	-0.473790	0.812066	-0.477821
H164	H	0.026210	1.312066	0.022179
H165	H	-0.462256	0.881661	-0.459749
H166	H	0.037744	1.381661	0.040251
H167	H	-0.407602	0.833602	-0.456261
H168	H	0.092398	1.333602	0.043739
H169	H	-0.511100	0.831479	-0.382423
H170	H	-0.011100	1.331479	0.117577
H171	H	-0.456451	0.783406	-0.378932
H172	H	0.043549	1.283406	0.121068
H173	H	-0.057028	0.837150	-0.376675
H174	H	0.442972	1.337150	0.123325
H175	H	0.229594	0.551078	-0.230697
H176	H	0.729594	1.051078	0.269303
H177	H	0.229609	0.670348	-0.230654
H178	H	0.729609	1.170348	0.269346
H179	H	0.375619	0.269714	-0.376640
H180	H	0.875619	0.769714	0.123360
H181	H	-0.457685	0.983095	-0.230693
H182	H	0.042315	1.483095	0.269307
C183	C	0.421212	1.031018	0.422735
C184	C	0.921212	1.531018	0.922735
C185	C	0.386103	0.995458	0.465460
C186	C	0.886103	1.495458	0.965460
H187	H	0.448301	1.058553	0.445049
H188	H	0.948301	1.558553	0.945049
H189	H	0.445521	1.003748	0.397219
H190	H	0.945521	1.503748	0.897219
H191	H	0.393624	1.054879	0.396967
H192	H	0.893624	1.554879	0.896967
H193	H	0.413691	0.971593	0.491225
H194	H	0.913691	1.471593	0.991225
H195	H	0.361793	1.022732	0.490986
H196	H	0.861793	1.522732	0.990986
H197	H	-0.338602	0.837168	-0.376698
H198	H	0.161398	1.337168	0.123302
C199	C	0.177837	0.860323	0.289425
C200	C	0.677837	1.360323	0.789425
C201	C	0.218483	0.825131	0.327410
C202	C	0.718483	1.325131	0.827410
H203	H	0.150744	0.832793	0.267110
H204	H	0.650744	1.332793	0.767110
H205	H	0.153533	0.887590	0.314949
H206	H	0.653533	1.387590	0.814949
H207	H	0.201670	0.884445	0.260449
H208	H	0.701670	1.384445	0.760449
H209	H	0.194650	0.801013	0.356390
H210	H	0.694650	1.301013	0.856390
H211	H	0.242789	0.797853	0.301884
H212	H	0.742789	1.297853	0.801884
H213	H	0.375224	0.983553	-0.064012
H214	H	0.875224	1.483553	0.435988
C215	C	0.377997	0.986659	0.129266
C216	C	0.877997	1.486659	0.629266
C217	C	0.386492	0.995182	0.064624
C218	C	0.886492	1.495182	0.564624
H219	H	0.405096	1.014185	0.151579
H220	H	0.905096	1.514185	0.651579
H221	H	0.335630	0.995578	0.139911
H222	H	0.835630	1.495578	0.639911
H223	H	0.387517	0.944436	0.140149
H224	H	0.887517	1.444436	0.640149
H225	H	0.376968	1.037404	0.053740
H226	H	0.876968	1.537404	0.553740
H227	H	0.428869	0.986268	0.053975
H228	H	0.928869	1.486268	0.553975
C229	C	-0.371721	1.029836	-0.183893
C230	C	0.128279	1.529836	0.316107
C231	C	-0.329032	0.994540	-0.219212
C232	C	0.170968	1.494540	0.280788
H233	H	-0.349379	1.057120	-0.156580
H234	H	0.150621	1.557120	0.343420
H235	H	-0.397409	1.053947	-0.211331
H236	H	0.102591	1.553947	0.288669
H237	H	-0.397321	1.002377	-0.159806
H238	H	0.102679	1.502377	0.340194
H239	H	-0.303435	1.021999	-0.243303
H240	H	0.196565	1.521999	0.256697
H241	H	-0.303333	0.970427	-0.191771
H242	H	0.196667	1.470427	0.308229
C243	C	0.422412	0.183880	-0.423396
C244	C	0.922412	0.683880	0.076604
C245	C	0.387062	0.141095	-0.388139
C246	C	0.887062	0.641095	0.111861
H247	H	0.449734	0.161611	-0.450673
H248	H	0.949734	0.661611	0.049327
H249	H	0.394994	0.209580	-0.447512
H250	H	0.894994	0.709580	0.052488
H251	H	0.446491	0.209458	-0.395912
H252	H	0.946491	0.709458	0.104088
H253	H	0.362979	0.115520	-0.415623
H254	H	0.862979	0.615520	0.084377
H255	H	0.414483	0.115384	-0.364021
H256	H	0.914483	0.615384	0.135979
H257	H	0.062424	0.983073	-0.230661
H258	H	0.562424	1.483073	0.269339
C259	C	0.183327	0.789603	0.422671
C260	C	0.683327	1.289603	0.922671
C261	C	0.218350	0.825226	0.465416
C262	C	0.718350	1.325226	0.965416
H263	H	0.156195	0.762099	0.444969
H264	H	0.656195	1.262099	0.944969
H265	H	0.159068	0.816837	0.396907
H266	H	0.659068	1.316837	0.896907
H267	H	0.210967	0.765708	0.397153
H268	H	0.710967	1.265708	0.897153
H269	H	0.190709	0.849125	0.490931
H270	H	0.690709	1.349125	0.990931
H271	H	0.242611	0.797989	0.491191
H272	H	0.742611	1.297989	0.991191
H273	H	-0.056846	0.983071	-0.230669
H274	H	0.443154	1.483071	0.269331
C275	C	0.226556	0.076229	-0.227864
C276	C	0.726556	0.576229	0.272136
C277	C	0.218059	0.140862	-0.219364
C278	C	0.718059	0.640862	0.280636
H279	H	0.199252	0.053886	-0.200573
H280	H	0.699252	0.553886	0.299427
H281	H	0.217319	0.065534	-0.270166
H282	H	0.717319	0.565534	0.229834
H283	H	0.268857	0.065432	-0.218606
H284	H	0.768857	0.565432	0.281394
H285	H	0.175758	0.151659	-0.228626
H286	H	0.675758	0.651659	0.271374
H287	H	0.227291	0.151561	-0.177052
H288	H	0.727291	0.651561	0.322948
C289	C	0.377848	0.986766	0.262813
C290	C	0.877848	1.486766	0.762813
C291	C	0.386229	0.995366	0.327460
C292	C	0.886229	1.495366	0.827460
H293	H	0.404975	1.014276	0.240516
H294	H	0.904975	1.514276	0.740516
H295	H	0.387395	0.944539	0.252157
H296	H	0.887395	1.444539	0.752157
H297	H	0.335491	0.995663	0.251922
H298	H	0.835491	1.495663	0.751922
H299	H	0.428585	0.986465	0.338351
H300	H	0.928585	1.486465	0.838351
H301	H	0.376686	1.037603	0.338120
H302	H	0.876686	1.537603	0.838120
C303	C	0.182731	0.236078	-0.184067
C304	C	0.682731	0.736078	0.315933
C305	C	0.218072	0.278862	-0.219334
C306	C	0.718072	0.778862	0.280666
H307	H	0.155420	0.258347	-0.156779
H308	H	0.655420	0.758347	0.343221
H309	H	0.158647	0.210503	-0.211539
H310	H	0.658647	0.710503	0.288461
H311	H	0.210161	0.210375	-0.159956
H312	H	0.710161	0.710375	0.340044
H313	H	0.190643	0.304562	-0.243449
H314	H	0.690643	0.804562	0.256551
H315	H	0.242158	0.304448	-0.191858
H316	H	0.742158	0.804448	0.308142
C317	C	0.028809	0.790391	-0.423453
C318	C	0.528809	1.290391	0.076547
C319	C	0.071591	0.825684	-0.388132
C320	C	0.571591	1.325684	0.111868
H321	H	0.051080	0.763103	-0.450763
H322	H	0.551080	1.263103	0.049237
H323	H	0.003219	0.766284	-0.396015
H324	H	0.503219	1.266284	0.103985
H325	H	0.003120	0.817852	-0.447543
H326	H	0.503120	1.317852	0.052457
H327	H	0.097276	0.798223	-0.364038
H328	H	0.597276	1.298223	0.135962
H329	H	0.097191	0.849793	-0.415573
H330	H	0.597191	1.349793	0.084427
C331	C	0.232913	0.762626	-0.057348
C332	C	0.732913	1.262626	0.442652
C333	C	0.218872	0.824855	-0.073419
C334	C	0.718872	1.324855	0.426581
H335	H	0.205813	0.735094	-0.079652
H336	H	0.705813	1.235094	0.420348
H337	H	0.275279	0.753715	-0.068003
H338	H	0.775279	1.253715	0.431997
H339	H	0.227157	0.756866	-0.013490
H340	H	0.727157	1.256866	0.486510
H341	H	0.224631	0.830616	-0.117276
H342	H	0.724631	1.330616	0.382724
H343	H	0.176495	0.833769	-0.062768
H344	H	0.676495	1.333769	0.437232
C345	C	0.254527	0.784817	0.102563
C346	C	0.754527	1.284817	0.602563
C347	C	0.218746	0.824951	0.064584
C348	C	0.718746	1.324951	0.564584
H349	H	0.227396	0.757318	0.124868
H350	H	0.727396	1.257318	0.624868
H351	H	0.282151	0.760922	0.077037
H352	H	0.782151	1.260922	0.577037
H353	H	0.278293	0.808995	0.131548
H354	H	0.778293	1.308995	0.631548
H355	H	0.194984	0.800773	0.035595
H356	H	0.694984	1.300773	0.535595
H357	H	0.191111	0.848848	0.090112
H358	H	0.691111	1.348848	0.590112
