data_functionalizedCrystal
_audit_creation_method	'MofGen! by Chris Wilmer'
_symmetry_space_group_name_H-M	'P1'
_symmetry_Int_Tables_number	1
_symmetry_cell_setting	triclinic
loop_
_symmetry_equiv_pos_as_xyz
  x,y,z
_cell_length_a	14.395555
_cell_length_b	14.809374
_cell_length_c	14.809374
_cell_angle_alpha	119.202165
_cell_angle_beta	90.002017
_cell_angle_gamma	112.574204
loop_
_atom_site_label
_atom_site_type_symbol
_atom_site_fract_x
_atom_site_fract_y
_atom_site_fract_z
Zr1	Zr	1.026088	-0.955167	-0.203622
O2	O	0.912293	-1.113092	-0.350786
O3	O	1.044862	-0.777400	-0.145544
O4	O	1.082861	-0.926546	-0.332082
O5	O	0.862646	-0.993441	-0.031851
O6	O	1.235734	-0.926541	-0.332074
O7	O	0.874294	-0.963945	-0.164248
O8	O	1.167760	-0.659746	0.001608
O9	O	0.930619	-1.260237	-0.365533
O10	O	1.186420	-0.857863	-0.136431
O11	O	1.063640	-0.879880	-0.037630
O12	O	1.108379	-1.055480	-0.257255
O13	O	0.985598	-1.077497	-0.158454
Zr14	Zr	1.251324	-1.002202	0.007549
Zr15	Zr	1.269902	-0.955159	-0.203609
Zr16	Zr	1.007510	-1.002210	0.007537
Zr17	Zr	1.055316	-1.189847	-0.227141
Zr18	Zr	1.222097	-0.767522	0.031069
O19	O	1.232551	-1.179969	-0.050528
O20	O	1.258966	-1.113080	-0.350769
O21	O	0.885878	-1.179981	-0.050546
O22	O	1.365119	-0.844277	0.154714
O23	O	1.391534	-0.777388	-0.145526
O24	O	1.018447	-0.844289	0.154697
O25	O	1.414766	-0.963927	-0.164221
O26	O	1.194552	-1.030823	0.136009
O27	O	1.041679	-1.030828	0.136002
O28	O	1.403118	-0.993424	-0.031824
O29	O	1.124419	-1.260231	-0.365524
O30	O	1.152993	-0.697138	0.169451
O31	O	1.346793	-0.697132	0.169461
O32	O	1.361560	-0.659739	0.001618
O33	O	0.915853	-1.297630	-0.197690
O34	O	1.109652	-1.297623	-0.197681
O35	O	1.169034	-0.901889	0.061182
O36	O	1.291814	-0.879872	-0.037619
O37	O	1.213773	-1.077489	-0.158442
O38	O	1.090993	-1.099506	-0.059641
C39	C	1.102147	-0.685136	-0.068617
C40	C	1.089738	-0.585508	-0.058632
C41	C	1.145114	-0.530169	-0.103192
C42	C	1.132291	-0.427199	-0.092874
C43	C	0.833732	-0.978695	-0.098051
C44	C	0.730226	-0.978698	-0.098057
C45	C	0.627085	-1.086449	-0.163926
C46	C	0.592229	-1.017888	-0.196966
C47	C	0.580660	-1.047253	-0.065024
C48	C	0.696738	-0.910124	-0.131150
C49	C	0.685163	-0.939518	0.000841
C50	C	0.650367	-0.870874	-0.032166
C51	C	1.443681	-0.978674	-0.098021
C52	C	1.547186	-0.978671	-0.098015
C53	C	1.175266	-0.272233	-0.127456
C54	C	1.187674	-0.371861	-0.137440
C55	C	1.161944	-0.919841	-0.362163
C56	C	1.169831	-0.899870	-0.451806
C57	C	1.134633	-0.988998	-0.551708
C58	C	1.142784	-0.968359	-0.644359
C59	C	1.115468	-1.037528	0.166091
C60	C	1.107582	-1.057499	0.255734
C61	C	1.407121	-0.685126	-0.068601
C62	C	1.498218	-0.585495	-0.058611
C63	C	1.078909	-0.743979	0.195511
C64	C	1.058614	-0.664323	0.295138
C65	C	1.383883	-0.743969	0.195526
C66	C	1.467094	-0.664309	0.295158
C67	C	0.893529	-1.213400	-0.391598
C68	C	0.810319	-1.293060	-0.491231
C69	C	0.870291	-1.272243	-0.127471
C70	C	0.779194	-1.371874	-0.137461
C71	C	1.198504	-1.213390	-0.391583
C72	C	1.218799	-1.293046	-0.491210
C73	C	1.485985	-0.527216	-0.105508
C74	C	1.571575	-0.433611	-0.096142
C75	C	1.669396	-0.398280	-0.039873
C76	C	1.681628	-0.456568	0.007024
C77	C	1.596041	-0.550177	-0.002348
C78	C	1.104097	-0.638405	0.393512
C79	C	1.085025	-0.563574	0.487129
C80	C	1.020474	-0.514655	0.482370
C81	C	0.974986	-0.540579	0.383986
C82	C	0.994053	-0.615416	0.290370
C83	C	1.570271	-0.615407	0.290374
C84	C	1.648468	-0.540569	0.383980
C85	C	1.623485	-0.514628	0.482370
C86	C	1.520298	-0.563538	0.487151
C87	C	1.442104	-0.638381	0.393546
C88	C	0.707143	-1.341973	-0.486447
C89	C	0.628950	-1.416840	-0.580056
C90	C	0.653933	-1.442786	-0.678446
C91	C	0.757119	-1.393870	-0.683228
C92	C	0.835311	-1.319011	-0.589621
C93	C	0.791429	-1.430160	-0.090574
C94	C	0.705845	-1.523787	-0.099966
C95	C	0.608024	-1.559120	-0.156238
C96	C	0.595791	-1.500828	-0.203131
C97	C	0.681376	-1.407209	-0.193745
C98	C	1.283354	-1.341943	-0.486417
C99	C	1.302443	-1.416778	-0.580018
C100	C	1.256970	-1.442722	-0.678411
C101	C	1.192411	-1.393817	-0.683202
C102	C	1.173329	-1.318977	-0.589601
H103	H	0.618267	-1.177547	-0.219699
H104	H	1.499971	-0.542406	0.567273
C105	C	1.373455	-1.470567	-0.574725
N106	N	1.426939	-1.511080	-0.570736
C107	C	0.944024	-0.643901	0.182163
N108	N	0.906339	-0.665350	0.100663
H109	H	1.687165	-0.453684	0.558581
C110	C	1.328608	-0.692164	0.398827
N111	N	1.243123	-0.732672	0.402813
H112	H	0.551925	-1.051001	-0.280585
C113	C	0.567906	-1.525126	-0.781407
N114	N	0.503105	-1.587140	-0.858953
H115	H	0.746708	-0.852177	-0.159166
C116	C	0.667897	-1.343092	-0.245315
N117	N	0.657736	-1.294801	-0.284159
C118	C	1.055412	-0.388227	-0.031010
N119	N	0.997507	-0.358872	0.015583
C120	C	0.662550	-0.747678	0.043099
N121	N	0.671721	-0.654889	0.099783
H122	H	1.071414	-1.149091	-0.761213
C123	C	0.784583	-1.422411	-0.791467
N124	N	0.805265	-1.443902	-0.872995
H125	H	0.516135	-1.529611	-0.248947
C126	C	0.948803	-1.265198	-0.594899
N127	N	1.034285	-1.224667	-0.598882
H128	H	1.098471	-1.080583	-0.568645
C129	C	1.218692	-0.776139	-0.428918
N130	N	1.255494	-0.682942	-0.411675
H131	H	1.244584	-0.400706	-0.183228
H132	H	1.606015	-0.597618	0.035848
C133	C	1.333393	-1.313414	-0.378192
N134	N	1.371093	-1.291924	-0.296680
C135	C	1.277970	-1.525053	-0.781366
N136	N	1.293788	-1.587068	-0.858908
H137	H	0.725471	-0.906445	0.084439
H138	H	1.155392	-1.414952	-0.763326
H139	H	1.406344	-0.555977	-0.151340
H140	H	1.032839	-0.556651	-0.012840
H141	H	1.178958	-0.876768	-0.627415
H142	H	1.739078	-0.322055	-0.032249
C143	C	1.761965	-0.486769	0.378697
N144	N	1.847449	-0.446245	0.374715
H145	H	1.202021	-0.559018	-0.148977
C146	C	0.512982	-1.125587	-0.027299
N147	N	0.462008	-1.184594	0.001108
C148	C	1.558094	-0.369501	-0.147726
N149	N	1.547937	-0.321214	-0.186576
C150	C	0.719322	-1.587883	-0.048366
N151	N	0.729476	-1.636156	-0.009497
H152	H	0.922428	-0.500739	0.380127
H153	H	0.538344	-1.635352	-0.163872
C154	C	1.135084	-0.535061	0.595342
N155	N	1.172792	-0.513583	0.676846
H156	H	1.761286	-0.427788	0.052837
C157	C	0.999521	-0.432323	0.585361
N158	N	0.983748	-0.370305	0.662939
H159	H	1.156658	-0.678229	0.397406
H160	H	1.590632	-0.636516	0.210269
H161	H	0.686780	-1.320852	-0.406341
H162	H	0.544937	-1.456656	-0.576142
H163	H	0.871071	-1.401402	-0.044745
H164	H	1.120759	-1.279173	-0.593519
