data_functionalizedCrystal
_audit_creation_method	'MofGen! by Chris Wilmer'
_symmetry_space_group_name_H-M	'P1'
_symmetry_Int_Tables_number	1
_symmetry_cell_setting	triclinic
loop_
_symmetry_equiv_pos_as_xyz
  x,y,z
_cell_length_a	9.065218
_cell_length_b	15.500215
_cell_length_c	9.065218
_cell_angle_alpha	93.142982
_cell_angle_beta	85.015885
_cell_angle_gamma	93.145084
loop_
_atom_site_label
_atom_site_type_symbol
_atom_site_fract_x
_atom_site_fract_y
_atom_site_fract_z
O1	O	1.966602	0.071943	0.222556
O2	O	1.537317	0.071944	0.240303
O3	O	1.760833	0.071942	0.016787
O4	O	1.743087	0.071945	0.446072
O5	O	1.748412	-0.071948	0.004380
O6	O	1.524896	-0.071945	0.227896
O7	O	1.954181	-0.071946	0.210150
Cu8	Cu	1.738404	-0.085084	0.217890
Cu9	Cu	1.753094	0.085082	0.232563
O10	O	1.730666	-0.071944	0.433666
C11	C	1.476120	-0.000001	0.232394
C12	C	1.312277	-0.000000	0.227294
N13	N	1.728083	-0.204770	0.207570
C14	C	1.814864	-0.250042	0.294411
C15	C	1.807078	-0.340615	0.286597
C16	C	1.712502	-0.385914	0.191948
C17	C	1.625719	-0.340636	0.105096
C18	C	1.633514	-0.250064	0.112904
C19	C	1.684438	-0.659383	0.163827
C20	C	1.676646	-0.749960	0.156030
C21	C	1.858008	-0.749934	0.337530
C22	C	1.865788	-0.659361	0.345335
C23	C	1.779010	-0.614090	0.258478
C24	C	1.704538	-0.478495	0.183961
C25	C	1.786983	-0.521511	0.266457
C26	C	2.015378	0.000000	0.218059
C27	C	2.179222	0.000005	0.223159
C28	C	1.752917	-0.000002	-0.044403
C29	C	1.747818	0.000003	-0.208245
N30	N	1.763426	0.204767	0.242872
C31	C	1.738582	0.000001	0.494856
C32	C	1.743682	0.000003	0.658699
H33	H	1.891869	-0.213166	0.371494
H34	H	1.942805	-0.622484	0.422404
H35	H	1.562847	-0.213204	0.042188
C36	C	1.953468	-0.799733	0.433050
H37	H	1.935294	-0.860162	0.414839
H38	H	1.928681	-0.784890	0.534909
H39	H	2.055340	-0.784879	0.408306
C40	C	1.572615	-0.799792	0.051909
H41	H	1.580392	-0.860217	0.059717
H42	H	1.599966	-0.784955	-0.047392
H43	H	1.473295	-0.784957	0.079199
C44	C	1.902531	-0.390411	0.382129
H45	H	1.959958	-0.350461	0.439631
H46	H	1.966598	-0.425738	0.319570
H47	H	1.839917	-0.425747	0.446151
C48	C	1.588971	-0.609596	0.068302
H49	H	1.531518	-0.649549	0.010831
H50	H	1.651564	-0.574260	0.004276
H51	H	1.524903	-0.574270	0.130878
H52	H	1.548721	-0.377525	0.028023
H53	H	1.863991	-0.484625	0.343515
H54	H	1.627534	-0.515387	0.106898
