data_functionalizedCrystal
_audit_creation_method	'MofGen! by Chris Wilmer'
_symmetry_space_group_name_H-M	'P1'
_symmetry_Int_Tables_number	1
_symmetry_cell_setting	triclinic
loop_
_symmetry_equiv_pos_as_xyz
  x,y,z
_cell_length_a	17.077404
_cell_length_b	21.295417
_cell_length_c	17.077395
_cell_angle_alpha	89.968068
_cell_angle_beta	89.984359
_cell_angle_gamma	90.030732
loop_
_atom_site_label
_atom_site_type_symbol
_atom_site_fract_x
_atom_site_fract_y
_atom_site_fract_z
Zn1	Zn	1.199983	-0.250613	-0.443817
Zn2	Zn	1.449983	-0.000613	-0.193817
Zn3	Zn	1.699983	0.249387	0.056183
Zn4	Zn	1.949983	0.499387	0.306183
Zn5	Zn	1.199882	-0.355884	-0.312540
Zn6	Zn	1.449882	-0.105884	-0.062540
Zn7	Zn	1.699882	0.144116	0.187460
Zn8	Zn	1.949882	0.394116	0.437460
Zn9	Zn	1.068724	-0.250633	-0.312565
Zn10	Zn	1.318724	-0.000633	-0.062565
Zn11	Zn	1.568724	0.249367	0.187435
Zn12	Zn	1.818724	0.499367	0.437435
Zn13	Zn	1.068665	-0.355849	-0.443764
Zn14	Zn	1.318665	-0.105849	-0.193764
Zn15	Zn	1.568665	0.144151	0.056236
Zn16	Zn	1.818665	0.394151	0.306236
O17	O	1.134314	-0.303245	-0.378171
O18	O	1.384314	-0.053245	-0.128171
O19	O	1.634314	0.196755	0.121829
O20	O	1.884314	0.446755	0.371829
O21	O	1.309817	-0.264584	-0.426415
O22	O	1.559817	-0.014584	-0.176415
O23	O	1.809817	0.235416	0.073585
O24	O	2.059817	0.485416	0.323585
O25	O	1.182465	-0.341945	-0.202697
O26	O	1.432465	-0.091945	0.047303
O27	O	1.682465	0.158055	0.297303
O28	O	1.932465	0.408055	0.547303
O29	O	1.086203	-0.162541	-0.330008
O30	O	1.336203	0.087459	-0.080008
O31	O	1.586203	0.337459	0.169992
O32	O	1.836203	0.587459	0.419992
O33	O	1.309742	-0.341926	-0.329966
O34	O	1.559742	-0.091926	-0.079966
O35	O	1.809742	0.158074	0.170034
O36	O	2.059742	0.408074	0.420034
O37	O	1.182638	-0.162526	-0.426439
O38	O	1.432638	0.087474	-0.176439
O39	O	1.682638	0.337474	0.073561
O40	O	1.932638	0.587474	0.323561
O41	O	1.086104	-0.264618	-0.202715
O42	O	1.336104	-0.014618	0.047285
O43	O	1.586104	0.235382	0.297285
O44	O	1.836104	0.485382	0.547285
O45	O	0.958869	-0.264584	-0.329957
O46	O	1.208869	-0.014584	-0.079957
O47	O	1.458869	0.235416	0.170043
O48	O	1.708869	0.485416	0.420043
O49	O	1.086103	-0.341866	-0.553618
O50	O	1.336103	-0.091866	-0.303618
O51	O	1.586103	0.158134	-0.053618
O52	O	1.836103	0.408134	0.196382
O53	O	0.958826	-0.341885	-0.426348
O54	O	1.208826	-0.091885	-0.176348
O55	O	1.458826	0.158115	0.073652
O56	O	1.708826	0.408115	0.323652
O57	O	1.182582	-0.264550	-0.553657
O58	O	1.432582	-0.014550	-0.303657
O59	O	1.682582	0.235450	-0.053657
O60	O	1.932582	0.485450	0.196343
O61	O	1.182409	-0.443969	-0.329915
O62	O	1.432409	-0.193969	-0.079915
O63	O	1.682409	0.056031	0.170085
O64	O	1.932409	0.306031	0.420085
O65	O	1.086005	-0.443943	-0.426324
O66	O	1.336005	-0.193943	-0.176324
O67	O	1.586005	0.056057	0.073676
O68	O	1.836005	0.306057	0.323676
C69	C	0.930366	-0.303233	-0.378150
C70	C	1.180366	-0.053233	-0.128150
C71	C	1.430366	0.196767	0.121850
C72	C	1.680366	0.446767	0.371850
C73	C	0.843116	-0.303244	-0.378159
C74	C	1.093116	-0.053244	-0.128159
C75	C	1.343116	0.196756	0.121841
C76	C	1.593116	0.446756	0.371841
C77	C	0.802124	-0.343555	-0.428270
C78	C	1.052124	-0.093555	-0.178270
C79	C	1.302124	0.156445	0.071730
C80	C	1.552124	0.406445	0.321730
C81	C	0.720143	-0.343557	-0.428282
C82	C	0.970143	-0.093557	-0.178282
C83	C	1.220143	0.156443	0.071718
C84	C	1.470143	0.406443	0.321718
C85	C	0.679156	-0.303249	-0.378180
C86	C	0.929156	-0.053249	-0.128180
C87	C	1.179156	0.196751	0.121820
C88	C	1.429156	0.446751	0.371820
C89	C	0.720154	-0.262933	-0.328067
C90	C	0.970154	-0.012933	-0.078067
C91	C	1.220154	0.237067	0.171933
C92	C	1.470154	0.487067	0.421933
C93	C	0.802133	-0.262929	-0.328059
C94	C	1.052133	-0.012929	-0.078059
C95	C	1.302133	0.237071	0.171941
C96	C	1.552133	0.487071	0.421941
C97	C	0.549284	-0.262945	-0.328086
C98	C	0.799284	-0.012945	-0.078086
C99	C	1.049284	0.237055	0.171914
C100	C	1.299284	0.487055	0.421914
C101	C	0.467299	-0.262950	-0.328093
C102	C	0.717299	-0.012950	-0.078093
C103	C	0.967299	0.237050	0.171907
C104	C	1.217299	0.487050	0.421907
C105	C	0.467294	-0.343573	-0.428309
C106	C	0.717294	-0.093573	-0.178309
C107	C	0.967294	0.156427	0.071691
C108	C	1.217294	0.406427	0.321691
C109	C	0.549273	-0.343569	-0.428301
C110	C	0.799273	-0.093569	-0.178301
C111	C	1.049273	0.156431	0.071699
C112	C	1.299273	0.406431	0.321699
C113	C	0.590265	-0.303254	-0.378187
C114	C	0.840265	-0.053254	-0.128187
C115	C	1.090265	0.196746	0.121813
C116	C	1.340265	0.446746	0.371813
C117	C	1.134211	-0.466796	-0.378128
C118	C	1.384211	-0.216796	-0.128128
C119	C	1.634211	0.033204	0.121872
C120	C	1.884211	0.283204	0.371872
C121	C	1.134238	-0.536765	-0.378136
C122	C	1.384238	-0.286765	-0.128136
C123	C	1.634238	-0.036765	0.121864
C124	C	1.884238	0.213235	0.371864
C125	C	1.184481	-0.569624	-0.327987
C126	C	1.434481	-0.319624	-0.077987
C127	C	1.684481	-0.069624	0.172013
C128	C	1.934481	0.180376	0.422013
C129	C	1.184517	-0.635366	-0.328004
C130	C	1.434517	-0.385366	-0.078004
C131	C	1.684517	-0.135366	0.171996
C132	C	1.934517	0.114634	0.421996
C133	C	1.134298	-0.668247	-0.378163
C134	C	1.384298	-0.418247	-0.128163
C135	C	1.634298	-0.168247	0.121837
C136	C	1.884298	0.081753	0.371837
C137	C	1.084052	-0.635380	-0.428321
C138	C	1.334052	-0.385380	-0.178321
C139	C	1.584052	-0.135380	0.071679
C140	C	1.834052	0.114620	0.321679
C141	C	1.084023	-0.569639	-0.428308
C142	C	1.334023	-0.319639	-0.178308
C143	C	1.584023	-0.069639	0.071692
C144	C	1.834023	0.180361	0.321692
N145	N	1.065629	-0.771513	-0.384140
N146	N	1.315629	-0.521513	-0.134140
N147	N	1.565629	-0.271513	0.115860
N148	N	1.815629	-0.021513	0.365860
N149	N	1.065659	-0.833964	-0.384148
N150	N	1.315659	-0.583964	-0.134148
N151	N	1.565659	-0.333964	0.115852
N152	N	1.815659	-0.083964	0.365852
C153	C	1.134386	-0.866322	-0.378208
C154	C	1.384386	-0.616322	-0.128208
C155	C	1.634386	-0.366322	0.121792
C156	C	1.884386	-0.116322	0.371792
N157	N	1.203082	-0.833868	-0.372244
N158	N	1.453082	-0.583868	-0.122244
N159	N	1.703082	-0.333868	0.127756
N160	N	1.953082	-0.083868	0.377756
N161	N	1.203051	-0.771411	-0.372231
N162	N	1.453051	-0.521411	-0.122231
N163	N	1.703051	-0.271411	0.127769
N164	N	1.953051	-0.021411	0.377769
C165	C	1.134325	-0.739532	-0.378183
C166	C	1.384325	-0.489532	-0.128183
C167	C	1.634325	-0.239532	0.121817
C168	C	1.884325	0.010468	0.371817
C169	C	1.184672	-0.970466	-0.328075
C170	C	1.434672	-0.720466	-0.078075
C171	C	1.684672	-0.470466	0.171925
C172	C	1.934672	-0.220466	0.421925
C173	C	1.184710	-1.036210	-0.328098
C174	C	1.434710	-0.786210	-0.078098
C175	C	1.684710	-0.536210	0.171902
C176	C	1.934710	-0.286210	0.421902
C177	C	1.084238	-1.036223	-0.428411
C178	C	1.334238	-0.786223	-0.178411
C179	C	1.584238	-0.536223	0.071589
C180	C	1.834238	-0.286223	0.321589
C181	C	1.084207	-0.970480	-0.428392
C182	C	1.334207	-0.720480	-0.178392
C183	C	1.584207	-0.470480	0.071608
C184	C	1.834207	-0.220480	0.321608
C185	C	1.134423	-0.937606	-0.378220
C186	C	1.384423	-0.687606	-0.128220
C187	C	1.634423	-0.437606	0.121780
C188	C	1.884423	-0.187606	0.371780
C189	C	1.339058	-0.303257	-0.378194
C190	C	1.589058	-0.053257	-0.128194
C191	C	1.839058	0.196743	0.121806
C192	C	2.089058	0.446743	0.371806
C193	C	1.426308	-0.303262	-0.378203
C194	C	1.676308	-0.053262	-0.128203
C195	C	1.926308	0.196738	0.121797
C196	C	2.176308	0.446738	0.371797
C197	C	1.134347	-0.303202	-0.582916
C198	C	1.384347	-0.053202	-0.332916
C199	C	1.634347	0.196798	-0.082916
C200	C	1.884347	0.446798	0.167084
C201	C	1.134362	-0.303184	-0.670166
C202	C	1.384362	-0.053184	-0.420166
C203	C	1.634362	0.196816	-0.170166
C204	C	1.884362	0.446816	0.079834
C205	C	1.134438	-0.139055	-0.378232
C206	C	1.384438	0.110945	-0.128232
C207	C	1.634438	0.360945	0.121768
C208	C	1.884438	0.610945	0.371768
C209	C	1.134491	-0.069086	-0.378258
C210	C	1.384491	0.180914	-0.128258
C211	C	1.634491	0.430914	0.121742
C212	C	1.884491	0.680914	0.371742
C213	C	1.184685	-0.262840	-1.046002
C214	C	1.434685	-0.012840	-0.796002
C215	C	1.684685	0.237160	-0.546002
C216	C	1.934685	0.487160	-0.296002
C217	C	1.184669	-0.262862	-0.964021
C218	C	1.434669	-0.012862	-0.714021
C219	C	1.684669	0.237138	-0.464021
C220	C	1.934669	0.487138	-0.214021
C221	C	1.134426	-0.303124	-0.923015
C222	C	1.384426	-0.053124	-0.673015
C223	C	1.634426	0.196876	-0.423015
C224	C	1.884426	0.446876	-0.173015
C225	C	1.084202	-0.343372	-0.963993
C226	C	1.334202	-0.093372	-0.713993
C227	C	1.584202	0.156628	-0.463993
C228	C	1.834202	0.406628	-0.213993
C229	C	1.084222	-0.343352	-1.045972
C230	C	1.334222	-0.093352	-0.795972
C231	C	1.584222	0.156648	-0.545972
C232	C	1.834222	0.406648	-0.295972
C233	C	1.084161	-0.343408	-0.793123
C234	C	1.334161	-0.093408	-0.543123
C235	C	1.584161	0.156592	-0.293123
C236	C	1.834161	0.406592	-0.043123
C237	C	1.084139	-0.343427	-0.711138
C238	C	1.334139	-0.093427	-0.461138
C239	C	1.584139	0.156573	-0.211138
C240	C	1.834139	0.406573	0.038862
C241	C	1.184608	-0.262918	-0.711172
C242	C	1.434608	-0.012918	-0.461172
C243	C	1.684608	0.237082	-0.211172
C244	C	1.934608	0.487082	0.038828
C245	C	1.184628	-0.262898	-0.793151
C246	C	1.434628	-0.012898	-0.543151
C247	C	1.684628	0.237102	-0.293151
C248	C	1.934628	0.487102	-0.043151
C249	C	1.134403	-0.303145	-0.834124
C250	C	1.384403	-0.053145	-0.584124
C251	C	1.634403	0.196855	-0.334124
C252	C	1.884403	0.446855	-0.084124
C253	C	1.134325	-0.303242	-0.174224
C254	C	1.384325	-0.053242	0.075776
C255	C	1.634325	0.196758	0.325776
C256	C	1.884325	0.446758	0.575776
C257	C	1.134463	-0.303083	-0.086974
C258	C	1.384463	-0.053083	0.163026
C259	C	1.634463	0.196917	0.413026
C260	C	1.884463	0.446917	0.663026
H261	H	0.835508	-0.230100	-0.287258
H262	H	1.085508	0.019900	-0.037258
H263	H	1.335508	0.269900	0.212742
H264	H	1.585508	0.519900	0.462742
H265	H	1.225537	-0.230110	-0.826537
H266	H	1.475537	0.019890	-0.576537
H267	H	1.725537	0.269890	-0.326537
H268	H	1.975537	0.519890	-0.076537
H269	H	0.686776	-0.230111	-0.287276
H270	H	0.936776	0.019889	-0.037276
H271	H	1.186776	0.269889	0.212724
H272	H	1.436776	0.519889	0.462724
H273	H	1.043292	-0.943724	-0.469225
H274	H	1.293292	-0.693724	-0.219225
H275	H	1.543292	-0.443724	0.030775
H276	H	1.793292	-0.193724	0.280775
H277	H	1.225371	-0.542859	-0.287136
H278	H	1.475371	-0.292859	-0.037136
H279	H	1.725371	-0.042859	0.212864
H280	H	1.975371	0.207141	0.462864
H281	H	0.835490	-0.376381	-0.469066
H282	H	1.085490	-0.126381	-0.219066
H283	H	1.335490	0.123619	0.030934
H284	H	1.585490	0.373619	0.280934
H285	H	1.225564	-0.943699	-0.287224
H286	H	1.475564	-0.693699	-0.037224
H287	H	1.725564	-0.443699	0.212776
H288	H	1.975564	-0.193699	0.462776
H289	H	1.043352	-1.062994	-0.469255
H290	H	1.293352	-0.812994	-0.219255
H291	H	1.543352	-0.562994	0.030745
H292	H	1.793352	-0.312994	0.280745
H293	H	1.225433	-0.662125	-0.287167
H294	H	1.475433	-0.412125	-0.037167
H295	H	1.725433	-0.162125	0.212833
H296	H	1.975433	0.087875	0.462833
H297	H	1.225567	-0.230094	-0.930665
H298	H	1.475567	0.019906	-0.680665
H299	H	1.725567	0.269906	-0.430665
H300	H	1.975567	0.519906	-0.180665
H301	H	1.043327	-0.376123	-1.079331
H302	H	1.293327	-0.126123	-0.829331
H303	H	1.543327	0.123877	-0.579331
H304	H	1.793327	0.373877	-0.329331
H305	H	0.433915	-0.376398	-0.469116
H306	H	0.683915	-0.126398	-0.219116
H307	H	0.933915	0.123602	0.030884
H308	H	1.183915	0.373602	0.280884
H309	H	0.686771	-0.376383	-0.469086
H310	H	0.936771	-0.126383	-0.219086
H311	H	1.186771	0.123617	0.030914
H312	H	1.436771	0.373617	0.280914
H313	H	1.043165	-0.662156	-0.469162
H314	H	1.293165	-0.412156	-0.219162
H315	H	1.543165	-0.162156	0.030838
H316	H	1.793165	0.087844	0.280838
H317	H	1.225502	-0.230146	-0.677809
H318	H	1.475502	0.019854	-0.427809
H319	H	1.725502	0.269854	-0.177809
H320	H	1.975502	0.519854	0.072191
H321	H	1.043209	-0.376198	-0.677753
H322	H	1.293209	-0.126198	-0.427753
H323	H	1.543209	0.123802	-0.177753
H324	H	1.793209	0.373802	0.072247
H325	H	1.043264	-0.376183	-0.826480
H326	H	1.293264	-0.126183	-0.576480
H327	H	1.543264	0.123817	-0.326480
H328	H	1.793264	0.373817	-0.076480
H329	H	0.582643	-0.376395	-0.469094
H330	H	0.832643	-0.126395	-0.219094
H331	H	1.082643	0.123605	0.030906
H332	H	1.332643	0.373605	0.280906
H333	H	0.433930	-0.230121	-0.287304
H334	H	0.683930	0.019879	-0.037304
H335	H	0.933930	0.269879	0.212696
H336	H	1.183930	0.519879	0.462696
H337	H	1.225594	-0.230049	-1.079384
H338	H	1.475594	0.019951	-0.829384
H339	H	1.725594	0.269951	-0.579384
H340	H	1.975594	0.519951	-0.329384
H341	H	1.225628	-1.062963	-0.287263
H342	H	1.475628	-0.812963	-0.037263
H343	H	1.725628	-0.562963	0.212737
H344	H	1.975628	-0.312963	0.462737
H345	H	1.043297	-0.376157	-0.930599
H346	H	1.293297	-0.126157	-0.680599
H347	H	1.543297	0.123843	-0.430599
H348	H	1.793297	0.373843	-0.180599
H349	H	0.582657	-0.230111	-0.287285
H350	H	0.832657	0.019889	-0.037285
H351	H	1.082657	0.269889	0.212715
H352	H	1.332657	0.519889	0.462715
H353	H	1.043109	-0.542884	-0.469146
H354	H	1.293109	-0.292884	-0.219146
H355	H	1.543109	-0.042884	0.030854
H356	H	1.793109	0.207116	0.280854
