data_functionalizedCrystal
_audit_creation_method	'MofGen! by Chris Wilmer'
_symmetry_space_group_name_H-M	'P1'
_symmetry_Int_Tables_number	1
_symmetry_cell_setting	triclinic
loop_
_symmetry_equiv_pos_as_xyz
  x,y,z
_cell_length_a	18.215407
_cell_length_b	16.625539
_cell_length_c	18.215405
_cell_angle_alpha	90.031772
_cell_angle_beta	89.980602
_cell_angle_gamma	89.981287
loop_
_atom_site_label
_atom_site_type_symbol
_atom_site_fract_x
_atom_site_fract_y
_atom_site_fract_z
Zn1	Zn	1.125078	-0.455850	0.293091
Zn2	Zn	1.124985	-0.321009	0.416165
Zn3	Zn	1.002009	-0.321035	0.293105
Zn4	Zn	1.001977	-0.455803	0.416108
O5	O	1.063512	-0.388424	0.354617
O6	O	1.228050	-0.437972	0.309434
O7	O	1.108646	-0.208180	0.399870
O8	O	1.018387	-0.338949	0.190119
O9	O	1.227982	-0.338905	0.399856
O10	O	1.108806	-0.437997	0.190108
O11	O	1.018296	-0.208199	0.309458
O12	O	0.899021	-0.338903	0.309404
O13	O	1.018332	-0.568642	0.399760
O14	O	0.898997	-0.437917	0.399774
O15	O	1.108774	-0.568676	0.309380
O16	O	1.108615	-0.338859	0.519141
O17	O	1.018242	-0.437892	0.519100
C18	C	0.872306	-0.388408	0.354585
C19	C	0.790507	-0.388421	0.354589
C20	C	0.525480	-0.440091	0.307625
C21	C	0.602338	-0.440088	0.307613
C22	C	0.602286	-0.336775	0.401633
C23	C	0.525429	-0.336783	0.401648
C24	C	0.487028	-0.388439	0.354640
C25	C	0.640744	-0.388429	0.354613
C26	C	0.724077	-0.388426	0.354600
C27	C	0.403689	-0.388443	0.354653
C28	C	1.063560	-0.598733	0.354562
C29	C	1.063581	-0.688354	0.354539
C30	C	1.063614	-1.016530	0.354456
C31	C	1.063603	-0.925222	0.354482
C32	C	1.063598	-0.852445	0.354498
C33	C	1.063586	-0.761131	0.354522
C34	C	1.255465	-0.388441	0.354650
C35	C	1.337264	-0.388447	0.354664
C36	C	1.063435	-0.388385	0.545823
C37	C	1.063469	-0.388396	0.627622
C38	C	1.063507	-0.178933	0.354619
C39	C	1.063629	-0.089313	0.354435
C40	C	1.063610	-0.388481	0.162664
C41	C	1.063652	-0.388505	0.080865
C42	C	1.110637	-0.336924	0.815813
C43	C	1.110670	-0.336944	0.892672
C44	C	1.016482	-0.439982	0.892669
C45	C	1.016453	-0.439966	0.815812
C46	C	1.063530	-0.388433	0.777386
C47	C	1.063591	-0.388468	0.931102
C48	C	1.063627	-0.388490	1.014435
C49	C	1.063496	-0.388412	0.694047
H50	H	0.633562	-0.294717	0.439904
H51	H	1.148970	-0.294964	0.784529
H52	H	0.978153	-0.481938	0.923964
H53	H	0.633643	-0.482149	0.269330
O54	O	1.161473	-0.281385	0.934122
H55	H	1.194197	-0.245546	0.894487
O56	O	0.484065	-0.495811	0.256928
H57	H	0.449047	-0.459797	0.219447
H58	H	0.978093	-0.481914	0.784522
H59	H	0.494120	-0.294721	0.439937
