data_functionalizedCrystal
_audit_creation_method	'MofGen! by Chris Wilmer'
_symmetry_space_group_name_H-M	'P1'
_symmetry_Int_Tables_number	1
_symmetry_cell_setting	triclinic
loop_
_symmetry_equiv_pos_as_xyz
  x,y,z
_cell_length_a	14.519731
_cell_length_b	27.731996
_cell_length_c	12.996460
_cell_angle_alpha	89.988048
_cell_angle_beta	89.993791
_cell_angle_gamma	83.155120
loop_
_atom_site_label
_atom_site_type_symbol
_atom_site_fract_x
_atom_site_fract_y
_atom_site_fract_z
O1	O	1.222732	0.063413	-0.085583
O2	O	0.954125	0.070864	-0.085586
O3	O	1.096796	-0.003220	-0.085562
O4	O	1.080061	0.137496	-0.085607
O5	O	1.096779	-0.003224	0.085571
O6	O	0.954109	0.070860	0.085548
O7	O	1.222715	0.063409	0.085551
Cu8	Cu	1.088411	0.067134	0.101175
Cu9	Cu	1.088430	0.067138	-0.101211
O10	O	1.080045	0.137493	0.085527
C11	C	0.919764	0.070513	-0.000019
C12	C	0.817402	0.069466	-0.000020
C13	C	0.734273	0.068616	-0.000024
C14	C	0.629983	0.067554	-0.000024
C15	C	0.546859	0.066711	-0.000023
C16	C	0.442562	0.065649	-0.000025
C17	C	1.096444	-0.021231	0.000008
C18	C	1.095408	-0.074892	0.000019
C19	C	1.088903	-0.407638	-0.093317
C20	C	1.084971	-0.609315	-0.093335
O21	O	1.084430	-0.635387	-0.172671
N22	N	1.084473	-0.634537	-0.000051
C23	C	1.084953	-0.609335	0.093245
O24	O	1.084431	-0.635415	0.172588
C25	C	1.088879	-0.407659	0.093262
C26	C	1.089385	-0.382440	-0.000029
C27	C	1.089408	-0.382419	-0.186599
C28	C	1.090396	-0.332004	-0.186594
C29	C	1.090879	-0.306806	-0.093306
C30	C	1.090373	-0.332024	-0.000023
C31	C	1.089352	-0.382458	0.186556
C32	C	1.090331	-0.332035	0.186552
C33	C	1.090837	-0.306817	0.093262
C34	C	1.091844	-0.256411	0.093270
N35	N	1.092341	-0.231189	-0.000014
C36	C	1.091858	-0.256387	-0.093302
C37	C	1.082894	-0.715219	0.093229
C38	C	1.081915	-0.765638	0.093225
C39	C	1.081930	-0.765614	-0.093355
C40	C	1.082917	-0.715194	-0.093350
C41	C	1.083391	-0.689997	-0.000055
C42	C	1.093934	-0.150510	-0.093283
C43	C	1.094926	-0.100090	-0.093270
C44	C	1.094905	-0.100118	0.093310
C45	C	1.093918	-0.150534	0.093297
C46	C	1.093429	-0.175728	-0.000008
O47	O	1.092374	-0.230308	0.172565
O48	O	1.092360	-0.230297	-0.172633
C49	C	1.087915	-0.458054	-0.093322
C50	C	1.087409	-0.483272	-0.000040
C51	C	1.087892	-0.458075	0.093248
C52	C	1.086429	-0.533691	-0.000044
C53	C	1.085947	-0.558889	-0.093332
C54	C	1.086444	-0.533667	-0.186616
C55	C	1.087432	-0.483251	-0.186610
C56	C	1.087394	-0.483296	0.186533
C57	C	1.086408	-0.533712	0.186520
C58	C	1.085925	-0.558910	0.093231
C59	C	1.257077	0.063760	-0.000018
C60	C	1.359438	0.064806	-0.000025
C61	C	1.080397	0.155503	-0.000046
C62	C	1.081432	0.209165	-0.000063
N63	N	1.088404	0.067131	0.243522
C64	C	1.088422	0.067140	0.663336
C65	C	1.088414	0.067139	0.546531
C66	C	1.088413	0.067136	0.453433
C67	C	1.088405	0.067134	0.336620
N68	N	1.088435	0.067140	0.756442
H69	H	1.095340	-0.079559	-0.169241
Br70	Br	1.083531	-0.681029	0.219856
H71	H	1.087844	-0.462723	-0.262577
H72	H	1.093531	-0.171017	-0.169261
H73	H	1.083328	-0.694665	-0.169315
Br74	Br	1.088039	-0.449107	0.313151
H75	H	1.095302	-0.079593	0.169262
Br76	Br	1.093252	-0.184761	0.219905
Br77	Br	1.091077	-0.297786	-0.313209
Br78	Br	1.090973	-0.297842	0.313174
H79	H	1.088941	-0.402982	0.262523
Br80	Br	1.081272	-0.799820	-0.219960
H81	H	1.081516	-0.786167	0.169191
H82	H	1.086055	-0.554192	-0.262575
H83	H	1.086002	-0.554241	0.262493
H84	H	1.089012	-0.402930	-0.262570
