data_functionalizedCrystal
_audit_creation_method	'MofGen! by Chris Wilmer'
_symmetry_space_group_name_H-M	'P1'
_symmetry_Int_Tables_number	1
_symmetry_cell_setting	triclinic
loop_
_symmetry_equiv_pos_as_xyz
  x,y,z
_cell_length_a	27.732048
_cell_length_b	10.540539
_cell_length_c	9.016244
_cell_angle_alpha	90.005301
_cell_angle_beta	89.992799
_cell_angle_gamma	96.415927
loop_
_atom_site_label
_atom_site_type_symbol
_atom_site_fract_x
_atom_site_fract_y
_atom_site_fract_z
O1	O	0.068112	-1.682935	-0.123289
O2	O	0.074530	-1.313244	-0.123309
O3	O	0.000996	-1.509571	-0.123270
O4	O	0.141645	-1.486608	-0.123327
O5	O	0.000998	-1.509543	0.123411
O6	O	0.074531	-1.313215	0.123372
O7	O	0.068113	-1.682907	0.123392
Cu8	Cu	0.071322	-1.498058	0.145906
Cu9	Cu	0.071321	-1.498092	-0.145822
O10	O	0.141647	-1.486579	0.123353
C11	C	-0.017013	-1.509075	0.000075
C12	C	-0.070677	-1.507623	0.000087
C13	C	0.074049	-1.265947	0.000030
C14	C	0.072609	-1.125062	0.000023
C15	C	0.068594	-1.730203	0.000051
C16	C	0.070034	-1.871089	0.000047
C17	C	-0.408819	-1.614502	0.000017
C18	C	-0.610513	-1.609117	-0.000004
O19	O	-0.641153	-1.706850	-0.000064
N20	N	-0.630369	-1.492703	-0.000009
C21	C	-0.599799	-1.377627	-0.000019
O22	O	-0.621317	-1.278486	-0.000039
C23	C	-0.398107	-1.383013	-0.000008
C24	C	-0.378253	-1.499435	0.000012
C25	C	-0.388965	-1.730915	0.000035
C26	C	-0.338544	-1.732260	0.000048
C27	C	-0.307978	-1.617193	0.000043
C28	C	-0.327832	-1.500780	0.000025
C29	C	-0.367538	-1.267939	-0.000028
C30	C	-0.317112	-1.269296	-0.000030
C31	C	-0.297258	-1.385718	-0.000010
C32	C	-0.246846	-1.387058	0.000033
N33	N	-0.226989	-1.503472	0.000038
C34	C	-0.257555	-1.618540	0.000043
C35	C	-0.705691	-1.374807	-0.000021
C36	C	-0.756114	-1.373460	-0.000021
C37	C	-0.766824	-1.604950	-0.000010
C38	C	-0.716400	-1.606296	0.000001
C39	C	-0.685834	-1.491221	-0.000016
C40	C	-0.151668	-1.621356	0.000072
C41	C	-0.101243	-1.622691	0.000092
C42	C	-0.090538	-1.391201	0.000073
C43	C	-0.140959	-1.389865	0.000061
C44	C	-0.171523	-1.504953	0.000056
O45	O	-0.216177	-1.289377	0.000076
O46	O	-0.236029	-1.717666	0.000030
C47	C	-0.459239	-1.613157	0.000003
C48	C	-0.479094	-1.496745	-0.000015
C49	C	-0.448528	-1.381678	-0.000020
C50	C	-0.529517	-1.495398	-0.000015
C51	C	-0.560083	-1.610465	-0.000010
C52	C	-0.540226	-1.726879	-0.000005
C53	C	-0.489806	-1.728224	0.000008
C54	C	-0.468384	-1.265264	-0.000025
C55	C	-0.518805	-1.263928	-0.000037
C56	C	-0.549371	-1.378995	-0.000032
C57	C	0.159656	-1.487075	0.000006
C58	C	0.213320	-1.488527	-0.000016
N59	N	0.071324	-1.498044	0.351092
C60	C	0.017434	-0.944031	0.000622
C61	C	0.018894	-1.090586	0.000050
C62	C	0.098458	-1.062283	-0.140849
C63	C	0.096625	-0.915818	-0.140950
C64	C	0.097720	-0.915250	0.139571
C65	C	0.098215	-1.062210	0.141418
N66	N	0.071316	-1.498117	-0.351009
C67	C	0.110527	-1.392710	0.586104
C68	C	0.110674	-1.392933	0.414213
C69	C	0.082796	-1.630269	0.413432
C70	C	0.083074	-1.629691	0.585377
C71	C	0.020519	-1.472476	0.585655
C72	C	0.020848	-1.469417	0.413701
H73	H	-0.085081	-1.717499	0.000112
Cl74	Cl	0.168865	-1.417991	0.350652
Cl75	Cl	-0.392484	-1.121570	-0.000063
H76	H	0.148000	-1.408750	0.629283
Cl77	Cl	0.070733	-1.129251	-0.302695
Cl78	Cl	0.158681	-1.096973	0.154522
Cl79	Cl	0.139368	-1.666258	0.346908
Cl80	Cl	-0.012510	-1.157730	0.155959
Cl81	Cl	0.140292	-1.664804	0.647257
Cl82	Cl	-0.024541	-1.591168	0.648443
H83	H	0.009599	-1.378213	0.629103
Cl84	Cl	-0.165918	-1.243505	0.000064
H85	H	0.136518	-0.866338	0.140507
Cl86	Cl	-0.805259	-1.749605	-0.000011
Cl87	Cl	0.040647	-1.754233	0.649608
Cl88	Cl	0.007419	-1.319254	0.350799
H89	H	-0.413847	-1.824622	0.000033
H90	H	-0.001590	-1.133232	-0.101092
H91	H	-0.003786	-0.916355	0.101650
Cl92	Cl	0.100048	-1.241115	0.349136
H93	H	-0.322384	-1.827062	0.000058
Cl94	Cl	0.100027	-1.240422	0.649973
H95	H	-0.065642	-1.297516	0.000074
Cl96	Cl	0.069011	-1.126543	0.302320
Cl97	Cl	0.070880	-0.867701	0.304432
H98	H	0.055017	-1.710530	0.372543
H99	H	0.137906	-1.082923	-0.146106
H100	H	-0.176549	-1.715071	0.000063
Cl101	Cl	-0.691446	-1.752660	0.000024
H102	H	-0.003698	-0.914753	-0.099826
H103	H	-0.009733	-1.541272	0.370740
H104	H	-0.772274	-1.278658	-0.000012
H105	H	-0.292227	-1.175585	-0.000046
Cl106	Cl	-0.667272	-1.230125	-0.000041
H107	H	-0.473646	-1.823027	0.000024
Cl108	Cl	-0.543757	-1.117554	-0.000054
H109	H	-0.443502	-1.171560	-0.000032
Cl110	Cl	-0.578662	-1.871533	0.000008
Cl111	Cl	0.067126	-0.873557	-0.303504
Cl112	Cl	0.156267	-0.839163	-0.150850
