data_functionalizedCrystal
_audit_creation_method	'MofGen! by Chris Wilmer'
_symmetry_space_group_name_H-M	'P1'
_symmetry_Int_Tables_number	1
_symmetry_cell_setting	triclinic
loop_
_symmetry_equiv_pos_as_xyz
  x,y,z
_cell_length_a	8.497374
_cell_length_b	12.827893
_cell_length_c	12.827892
_cell_angle_alpha	89.984638
_cell_angle_beta	89.992687
_cell_angle_gamma	90.001575
loop_
_atom_site_label
_atom_site_type_symbol
_atom_site_fract_x
_atom_site_fract_y
_atom_site_fract_z
Zn1	Zn	0.891962	1.597487	0.416215
Zn2	Zn	0.628170	1.597435	0.590924
Zn3	Zn	0.628190	1.422782	0.416197
Zn4	Zn	0.891902	1.422714	0.590915
O5	O	0.760056	1.510105	0.503563
O6	O	0.856986	1.743716	0.439402
O7	O	0.407411	1.574274	0.567742
O8	O	0.663214	1.446008	0.269964
O9	O	0.663179	1.743678	0.567760
O10	O	0.857006	1.574363	0.269977
O11	O	0.407425	1.445958	0.439372
O12	O	0.663156	1.276537	0.439363
O13	O	1.112673	1.445891	0.567744
O14	O	0.856904	1.276487	0.567727
O15	O	1.112717	1.574296	0.439393
O16	O	0.663121	1.574207	0.737159
O17	O	0.856884	1.445840	0.737152
C18	C	0.760026	1.238595	0.503543
C19	C	0.760051	1.122442	0.503559
C20	C	0.760028	1.510039	0.775073
C21	C	0.760069	1.510107	0.891226
C22	C	0.855776	1.070659	0.567177
C23	C	0.855803	0.950609	0.567195
C24	C	1.171537	1.510097	0.503564
C25	C	1.350181	1.510099	0.503575
C26	C	0.760087	1.782675	0.503584
C27	C	0.760101	1.898828	0.503593
C28	C	0.760119	1.510199	0.230993
C29	C	0.760145	1.510239	0.114839
C30	C	0.664296	1.573702	0.942979
C31	C	0.664336	1.573774	1.063030
H32	H	0.937752	0.906078	0.621664
O33	O	0.857854	1.445068	0.944271
C34	C	0.823239	1.340893	0.917797
H35	H	0.762671	1.338640	0.838540
H36	H	0.742023	1.305835	0.979255
C37	C	1.051345	1.280265	1.010269
C38	C	0.976966	1.277497	0.912919
H39	H	1.146169	1.241157	1.007264
H40	H	1.074664	1.350449	1.028109
H41	H	0.983649	1.251052	1.061473
H42	H	1.044654	1.306721	0.861719
H43	H	0.953663	1.207316	0.895070
H44	H	0.678124	1.077897	0.449103
O45	O	0.662242	0.952053	0.438755
C46	C	0.560242	1.015148	0.498196
H47	H	0.615696	1.031388	0.577461
H48	H	0.443255	0.973132	0.509522
C49	C	0.463832	1.098944	0.343396
C50	C	0.531948	1.118898	0.440747
H51	H	0.446371	1.162940	0.307958
H52	H	0.532546	1.056434	0.303348
H53	H	0.366351	1.063928	0.352848
H54	H	0.629435	1.153902	0.431293
H55	H	0.463248	1.161417	0.480792
H56	H	0.582276	1.628101	0.898413
O57	O	0.566706	1.638729	1.116278
C58	C	0.588497	1.624351	1.224287
H59	H	0.710198	1.590008	1.239080
H60	H	0.494861	1.568788	1.255359
C61	C	0.424914	1.772275	1.262145
C62	C	0.574395	1.730102	1.280315
H63	H	0.416208	1.837505	1.296708
H64	H	0.410228	1.781960	1.189378
H65	H	0.346901	1.725962	1.288038
H66	H	0.652403	1.776408	1.254410
H67	H	0.589094	1.720427	1.353080
H68	H	0.937714	1.115204	0.621625
H69	H	0.842139	1.455785	1.070340
