data_functionalizedCrystal
_audit_creation_method	'MofGen! by Chris Wilmer'
_symmetry_space_group_name_H-M	'P1'
_symmetry_Int_Tables_number	1
_symmetry_cell_setting	triclinic
loop_
_symmetry_equiv_pos_as_xyz
  x,y,z
_cell_length_a	15.944551
_cell_length_b	11.295471
_cell_length_c	12.837938
_cell_angle_alpha	94.530277
_cell_angle_beta	90.836311
_cell_angle_gamma	94.104829
loop_
_atom_site_label
_atom_site_type_symbol
_atom_site_fract_x
_atom_site_fract_y
_atom_site_fract_z
O1	O	1.130316	0.098892	-0.126729
O2	O	1.463649	0.432225	0.206605
O3	O	1.796982	0.765559	0.539938
O4	O	0.887086	0.098921	-0.143210
O5	O	1.220419	0.432254	0.190123
O6	O	1.553753	0.765587	0.523457
O7	O	1.003308	0.098908	0.015934
O8	O	1.336641	0.432241	0.349267
O9	O	1.669974	0.765574	0.682601
O10	O	1.014094	0.098905	-0.285873
O11	O	1.347427	0.432238	0.047461
O12	O	1.680760	0.765572	0.380794
O13	O	0.993089	-0.099142	0.001986
O14	O	1.326422	0.234191	0.335319
O15	O	1.659756	0.567524	0.668652
O16	O	0.876867	-0.099129	-0.157158
O17	O	1.210201	0.234204	0.176175
O18	O	1.543534	0.567537	0.509508
O19	O	1.120097	-0.099158	-0.140677
O20	O	1.453430	0.234175	0.192656
O21	O	1.786764	0.567509	0.525990
Cu22	Cu	0.997549	-0.117227	-0.150191
Cu23	Cu	1.330882	0.216106	0.183142
Cu24	Cu	1.664216	0.549439	0.516475
Cu25	Cu	1.009634	0.116990	-0.133696
Cu26	Cu	1.342967	0.450323	0.199637
Cu27	Cu	1.676300	0.783656	0.532971
O28	O	1.003875	-0.099145	-0.299821
O29	O	1.337208	0.234188	0.033512
O30	O	1.670542	0.567522	0.366846
C31	C	0.850628	-0.000101	-0.149500
C32	C	1.183961	0.333233	0.183834
C33	C	1.517295	0.666566	0.517167
C34	C	0.757219	-0.000089	-0.147447
C35	C	1.090552	0.333244	0.185886
C36	C	1.423885	0.666577	0.519219
N37	N	0.989055	-0.281963	-0.161793
N38	N	1.322389	0.051370	0.171541
N39	N	1.655722	0.384704	0.504874
C40	C	0.927972	-0.468978	-0.245412
C41	C	1.261306	-0.135645	0.087921
C42	C	1.594639	0.197689	0.421255
C43	C	0.934375	-0.344315	-0.236629
C44	C	1.267708	-0.010982	0.096704
C45	C	1.601041	0.322352	0.430038
C46	C	1.037335	-0.344283	-0.095733
C47	C	1.370669	-0.010949	0.237601
C48	C	1.704002	0.322384	0.570934
C49	C	1.030933	-0.468946	-0.104516
C50	C	1.364266	-0.135613	0.228818
C51	C	1.697600	0.197721	0.562151
C52	C	0.976251	-0.531289	-0.179359
C53	C	1.309584	-0.197956	0.153974
C54	C	1.642917	0.135377	0.487308
C55	C	0.969853	-0.655955	-0.188146
C56	C	1.303187	-0.322621	0.145187
C57	C	1.636520	0.010712	0.478520
C58	C	1.072809	-0.655920	-0.047246
C59	C	1.406142	-0.322587	0.286088
C60	C	1.739476	0.010746	0.619421
C61	C	1.079211	-0.531257	-0.038463
C62	C	1.412545	-0.197924	0.294871
C63	C	1.745878	0.135410	0.628204
C64	C	0.534078	-0.000112	-0.043900
C65	C	0.867411	0.333222	0.289433
C66	C	1.200744	0.666555	0.622767
C67	C	0.481942	0.097537	-0.085107
C68	C	0.815275	0.430870	0.248226
C69	C	1.148609	0.764204	0.581559
C70	C	0.586195	-0.000103	-0.143737
C71	C	0.919528	0.333230	0.189596
C72	C	1.252862	0.666563	0.522930
C73	C	0.471892	-0.097725	-0.098883
C74	C	0.805225	0.235609	0.234450
C75	C	1.138558	0.568942	0.567784
C76	C	0.420994	-0.000122	-0.140146
C77	C	0.754327	0.333211	0.193187
C78	C	1.087661	0.666544	0.526521
C79	C	0.535294	0.097626	-0.184966
C80	C	0.868628	0.430959	0.148367
C81	C	1.201961	0.764293	0.481700
C82	C	0.525244	-0.097724	-0.198734
C83	C	0.858578	0.235610	0.134599
C84	C	1.191911	0.568943	0.467933
C85	C	0.473134	-0.000051	-0.240012
C86	C	0.806467	0.333282	0.093321
C87	C	1.139800	0.666616	0.426654
C88	C	0.681363	-0.000092	-0.145803
C89	C	1.014697	0.333242	0.187531
C90	C	1.348030	0.666575	0.520864
C91	C	0.325828	-0.000126	-0.138087
C92	C	0.659161	0.333208	0.195246
C93	C	0.992495	0.666541	0.528579
C94	C	1.156555	-0.000134	-0.134387
C95	C	1.489888	0.333199	0.198946
C96	C	1.823222	0.666533	0.532279
C97	C	1.249965	-0.000138	-0.136439
C98	C	1.583298	0.333196	0.196894
C99	C	1.916632	0.666529	0.530228
C100	C	0.994555	-0.000114	0.047581
C101	C	1.327888	0.333219	0.380914
C102	C	1.661221	0.666552	0.714247
C103	C	0.983688	-0.000105	0.162659
C104	C	1.317021	0.333228	0.495993
C105	C	1.650354	0.666562	0.829326
N106	N	1.018133	0.281725	-0.122086
N107	N	1.351467	0.615059	0.211247
N108	N	1.684800	0.948392	0.544580
C109	C	1.114342	-0.000083	0.403610
C110	C	1.447675	0.333250	0.736944
C111	C	1.781008	0.666583	1.070277
C112	C	1.104135	-0.000074	0.511737
C113	C	1.437468	0.333259	0.845071
C114	C	1.770802	0.666592	1.178404
C115	C	0.953068	-0.000070	0.487044
C116	C	1.286402	0.333264	0.820377
C117	C	1.619735	0.666597	1.153710
C118	C	0.963275	-0.000079	0.378916
C119	C	1.296608	0.333255	0.712250
C120	C	1.629942	0.666588	1.045583
C121	C	1.043914	-0.000087	0.337204
C122	C	1.377248	0.333246	0.670537
C123	C	1.710581	0.666579	1.003871
C124	C	1.054120	-0.000105	0.229074
C125	C	1.387453	0.333229	0.562407
C126	C	1.720787	0.666562	0.895741
C127	C	0.903054	-0.000092	0.204383
C128	C	1.236388	0.333242	0.537716
C129	C	1.569721	0.666575	0.871050
C130	C	0.892848	-0.000083	0.312510
C131	C	1.226181	0.333251	0.645843
C132	C	1.559514	0.666584	0.979177
C133	C	1.012629	-0.000107	0.668533
C134	C	1.345963	0.333226	1.001867
C135	C	1.679296	0.666559	1.335200
C136	C	1.023501	-0.000069	0.553458
C137	C	1.356834	0.333264	0.886792
C138	C	1.690167	0.666597	1.220125
H139	H	0.925331	-0.706714	-0.249090
H140	H	1.258664	-0.373380	0.084243
H141	H	1.591997	-0.040047	0.417577
H142	H	1.081850	-0.293507	-0.034790
H143	H	1.415184	0.039827	0.298543
H144	H	1.748517	0.373160	0.631877
H145	H	0.887416	-0.000050	0.521026
H146	H	1.220749	0.333283	0.854360
H147	H	1.554083	0.666617	1.187693
H148	H	1.123731	-0.480483	0.022476
H149	H	1.457064	-0.147149	0.355810
H150	H	1.790397	0.186184	0.689143
H151	H	1.112123	-0.706668	0.006536
H152	H	1.445457	-0.373335	0.339870
H153	H	1.778790	-0.040001	0.673203
H154	H	0.883454	-0.519739	-0.306359
H155	H	1.216787	-0.186406	0.026974
H156	H	1.550121	0.146928	0.360307
H157	H	1.161485	-0.000067	0.565803
H158	H	1.494818	0.333266	0.899136
H159	H	1.828151	0.666599	1.232470
H160	H	0.562921	0.180270	-0.221341
H161	H	0.896255	0.513604	0.111992
H162	H	1.229588	0.846937	0.445325
H163	H	0.446613	0.000003	-0.322951
H164	H	0.779946	0.333336	0.010382
H165	H	1.113279	0.666669	0.343716
H166	H	0.895061	-0.293585	-0.290415
H167	H	1.228394	0.039749	0.042919
H168	H	1.561727	0.373082	0.376252
H169	H	0.560789	0.000010	0.038966
H170	H	0.894122	0.333343	0.372299
H171	H	1.227455	0.666676	0.705632
H172	H	0.462714	0.180093	-0.037066
H173	H	0.796047	0.513426	0.296267
H174	H	1.129380	0.846760	0.629601
H175	H	0.544491	-0.180283	-0.246741
H176	H	0.877824	0.153050	0.086593
H177	H	1.211158	0.486383	0.419926
H178	H	1.119780	-0.000116	0.195114
H179	H	1.453113	0.333217	0.528447
H180	H	1.786447	0.666551	0.861780
H181	H	0.444167	-0.180276	-0.062451
H182	H	0.777500	0.153057	0.270882
H183	H	1.110833	0.486391	0.604215
H184	H	1.180001	-0.000102	0.369647
H185	H	1.513334	0.333231	0.702980
H186	H	1.846667	0.666565	1.036313
H187	H	0.827194	-0.000071	0.346488
H188	H	1.160527	0.333262	0.679821
H189	H	1.493860	0.666596	1.013155
H190	H	0.845707	-0.000104	0.150302
H191	H	1.179040	0.333229	0.483635
H192	H	1.512374	0.666562	0.816968
