data_functionalizedCrystal
_audit_creation_method	'MofGen! by Chris Wilmer'
_symmetry_space_group_name_H-M	'P1'
_symmetry_Int_Tables_number	1
_symmetry_cell_setting	triclinic
loop_
_symmetry_equiv_pos_as_xyz
  x,y,z
_cell_length_a	12.645331
_cell_length_b	16.959454
_cell_length_c	16.959447
_cell_angle_alpha	90.026736
_cell_angle_beta	89.984361
_cell_angle_gamma	89.980946
loop_
_atom_site_label
_atom_site_type_symbol
_atom_site_fract_x
_atom_site_fract_y
_atom_site_fract_z
Zn1	Zn	1.620640	0.314687	-0.446956
Zn2	Zn	1.620536	0.446880	-0.314786
Zn3	Zn	1.443376	0.314717	-0.314791
Zn4	Zn	1.443329	0.446826	-0.446921
O5	O	1.531970	0.380777	-0.380864
O6	O	1.768974	0.332234	-0.429436
O7	O	1.597012	0.429383	-0.204176
O8	O	1.466954	0.204102	-0.332339
O9	O	1.768897	0.429355	-0.332331
O10	O	1.597189	0.204080	-0.429441
O11	O	1.466853	0.332284	-0.204179
O12	O	1.295023	0.332231	-0.332306
O13	O	1.466873	0.429262	-0.557537
O14	O	1.294988	0.429291	-0.429381
O15	O	1.597143	0.332181	-0.557562
O16	O	1.596966	0.557484	-0.332297
O17	O	1.466773	0.557444	-0.429377
C18	C	1.531882	0.586144	-0.380850
C19	C	1.531941	0.674000	-0.380871
C20	C	1.256541	0.380759	-0.380841
C21	C	1.138711	0.380770	-0.380850
C22	C	1.532015	0.380712	-0.587032
C23	C	1.532033	0.380684	-0.674888
C24	C	0.971133	0.319429	-0.320116
C25	C	1.093693	0.319587	-0.319848
C26	C	1.094189	0.464037	-0.358096
C27	C	0.971591	0.463702	-0.357682
C28	C	0.971549	0.359636	-0.464571
C29	C	1.094155	0.357776	-0.464106
C30	C	1.808476	0.380797	-0.380887
C31	C	1.926306	0.380805	-0.380897
C32	C	1.532088	0.174609	-0.380894
C33	C	1.532139	0.086753	-0.380907
C34	C	1.464277	1.045485	-0.431407
C35	C	1.599959	1.045467	-0.330400
C36	C	1.599922	0.962921	-0.330393
C37	C	1.532060	0.921653	-0.380893
C38	C	1.464236	0.962931	-0.431400
C39	C	1.667738	0.921636	-0.279881
C40	C	1.667703	0.839085	-0.279871
C41	C	1.599845	0.797816	-0.330376
C42	C	1.532019	0.839100	-0.380885
C43	C	1.464157	0.797832	-0.431385
C44	C	1.396335	0.839114	-0.481900
C45	C	1.396379	0.921662	-0.481904
C46	C	1.599802	0.715268	-0.330371
C47	C	1.464116	0.715279	-0.431378
C48	C	1.464335	0.431146	-1.046353
C49	C	1.599986	0.330055	-1.046375
C50	C	1.599957	0.330072	-0.963829
C51	C	1.532118	0.380627	-0.922542
C52	C	1.464306	0.431166	-0.963800
C53	C	1.667775	0.279539	-0.922565
C54	C	1.667750	0.279555	-0.840014
C55	C	1.599905	0.330107	-0.798725
C56	C	1.532090	0.380647	-0.839988
C57	C	1.464250	0.431203	-0.798700
C58	C	1.396429	0.481740	-0.839962
C59	C	1.396461	0.481719	-0.922511
C60	C	1.599873	0.330128	-0.716176
C61	C	1.464222	0.431223	-0.716147
C62	C	1.531987	0.380786	-0.175497
C63	C	1.532174	0.380591	-0.087641
H64	H	1.123795	0.257842	-0.334110
H65	H	1.341161	0.955281	-0.523030
F66	F	1.324237	0.535547	-0.796012
F67	F	1.324291	0.535502	-0.966430
H68	H	1.341077	0.805504	-0.523014
H69	H	1.722927	0.805479	-0.238741
F70	F	1.392104	1.089419	-0.485169
F71	F	1.134207	0.411947	-0.526466
F72	F	1.672177	1.089389	-0.276658
H73	H	1.655223	0.288899	-1.079996
H74	H	0.941670	0.257497	-0.334225
H75	H	1.722979	0.955243	-0.238761
F76	F	0.930808	0.337501	-0.239548
F77	F	1.672054	0.276352	-0.672266
F78	F	1.671968	0.671336	-0.276606
H79	H	1.408859	0.681683	-0.472504
H80	H	1.123349	0.510989	-0.400977
F81	F	1.131979	0.337872	-0.238801
H82	H	1.409113	0.472290	-1.079953
H83	H	1.408969	0.472385	-0.682536
F84	F	1.739928	0.225768	-0.796107
F85	F	0.934158	0.487164	-0.277728
F86	F	1.134266	0.487906	-0.279000
F87	F	0.932827	0.525500	-0.413018
F88	F	0.931168	0.281657	-0.491618
H89	H	1.123259	0.296501	-0.481264
F90	F	0.933658	0.418066	-0.523765
F91	F	1.739976	0.225744	-0.966510
