data_functionalizedCrystal
_audit_creation_method	'MofGen! by Chris Wilmer'
_symmetry_space_group_name_H-M	'P1'
_symmetry_Int_Tables_number	1
_symmetry_cell_setting	triclinic
loop_
_symmetry_equiv_pos_as_xyz
  x,y,z
_cell_length_a	18.050588
_cell_length_b	19.077241
_cell_length_c	19.076919
_cell_angle_alpha	90.113904
_cell_angle_beta	92.272257
_cell_angle_gamma	87.678506
loop_
_atom_site_label
_atom_site_type_symbol
_atom_site_fract_x
_atom_site_fract_y
_atom_site_fract_z
Zn1	Zn	-0.269603	-1.058268	-0.440568
Zn2	Zn	-0.388619	-1.062897	-0.323063
Zn3	Zn	-0.269212	-0.945483	-0.318346
Zn4	Zn	-0.398524	-0.940716	-0.435798
O5	O	-0.331490	-1.001841	-0.379444
O6	O	-0.281409	-1.157216	-0.428951
O7	O	-0.368470	-1.051255	-0.224106
O8	O	-0.165338	-0.960502	-0.334581
O9	O	-0.368849	-1.160617	-0.342621
O10	O	-0.165625	-1.043364	-0.424377
O11	O	-0.280742	-0.964991	-0.220641
O12	O	-0.290347	-0.846517	-0.329956
O13	O	-0.385732	-0.952377	-0.534762
O14	O	-0.385353	-0.843014	-0.416248
O15	O	-0.291014	-1.038741	-0.538266
O16	O	-0.493859	-1.046632	-0.337996
O17	O	-0.501137	-0.956866	-0.420822
C18	C	-0.338883	-0.819269	-0.372073
C19	C	-0.342065	-0.741163	-0.368936
C20	C	-0.298112	-0.702695	-0.412479
C21	C	-0.301098	-0.629307	-0.409525
C22	C	-0.348040	-0.594387	-0.363032
C23	C	-0.391994	-0.632860	-0.319485
C24	C	-0.389004	-0.706247	-0.322435
C25	C	-0.361852	-0.375093	-0.349378
C26	C	-0.364840	-0.301700	-0.346433
C27	C	-0.273943	-0.298152	-0.436473
C28	C	-0.270960	-0.371541	-0.439422
C29	C	-0.314911	-0.410007	-0.395872
N30	N	-0.351095	-0.519372	-0.360014
N31	N	-0.311852	-0.485021	-0.398887
C32	C	-0.524444	-1.001753	-0.379419
C33	C	-0.606990	-1.001778	-0.379435
C34	C	-0.859797	-0.953037	-0.424479
C35	C	-0.808487	-1.016419	-0.444302
C36	C	-0.904106	-1.001923	-0.379480
C37	C	-0.808337	-0.938472	-0.359668
C38	C	-0.758123	-1.001848	-0.379459
C39	C	-0.853883	-1.065337	-0.399338
C40	C	-0.853738	-0.987348	-0.314672
C41	C	-0.802448	-1.050775	-0.334472
C42	C	-0.988203	-1.001965	-0.379493
C43	C	-0.674028	-1.001814	-0.379446
C44	C	-0.137781	-1.001948	-0.379485
C45	C	-0.055234	-1.001994	-0.379502
C46	C	-0.339522	-0.994511	-0.562723
C47	C	-0.342945	-0.991387	-0.640826
C48	C	-0.324064	-0.185127	-0.386838
C49	C	-0.320888	-0.263232	-0.389976
C50	C	-0.295240	-1.034883	-0.679344
C51	C	-0.298454	-1.031939	-0.752729
C52	C	-0.349376	-0.985503	-0.787595
C53	C	-0.397082	-0.942003	-0.749072
C54	C	-0.393865	-0.944943	-0.675687
C55	C	-0.364284	-0.971883	-1.006875
C56	C	-0.367500	-0.968948	-1.080264
C57	C	-0.268870	-1.058884	-1.083917
C58	C	-0.265660	-1.061823	-1.010531
C59	C	-0.313364	-1.018320	-0.972014
N60	N	-0.352664	-0.982494	-0.862607
N61	N	-0.310072	-1.021325	-0.897003
C62	C	-0.323433	-1.009183	-0.196879
C63	C	-0.319796	-1.012443	-0.118782
H64	H	-0.232738	-0.399967	-0.477284
C65	C	-0.216395	-1.106729	-1.126287
C66	C	-0.218777	-1.187014	-1.119428
C67	C	-0.166297	-1.234860	-1.161798
C68	C	-0.111434	-1.202421	-1.211028
C69	C	-0.109049	-1.122132	-1.217889
C70	C	-0.161529	-1.074286	-1.175519
H71	H	-0.259392	-1.211031	-1.082983
H72	H	-0.168062	-1.294295	-1.156718
H73	H	-0.072585	-1.237840	-1.242392
H74	H	-0.068434	-1.098115	-1.254334
H75	H	-0.159764	-1.014851	-1.180599
C76	C	-0.416763	-0.924023	-0.964527
C77	C	-0.414370	-0.843742	-0.971415
C78	C	-0.466854	-0.795874	-0.929071
C79	C	-0.521730	-0.828287	-0.879838
C80	C	-0.524125	-0.908573	-0.872947
C81	C	-0.471642	-0.956441	-0.915291
H82	H	-0.373746	-0.819744	-1.007863
H83	H	-0.465080	-0.736441	-0.934172
H84	H	-0.560581	-0.792853	-0.848492
H85	H	-0.564749	-0.932571	-0.836500
H86	H	-0.473415	-1.015874	-0.910190
C87	C	-0.239225	-1.085964	-0.640995
C88	C	-0.155473	-1.079869	-0.650871
C89	C	-0.099453	-1.130950	-0.612524
C90	C	-0.127186	-1.188125	-0.564300
C91	C	-0.210942	-1.194222	-0.554421
C92	C	-0.266962	-1.143141	-0.592768
H93	H	-0.134939	-1.037543	-0.686571
H94	H	-0.037451	-1.126436	-0.619837
H95	H	-0.085717	-1.225938	-0.535913
H96	H	-0.231476	-1.236548	-0.518721
H97	H	-0.328964	-1.147655	-0.585455
C98	C	-0.880868	-1.137803	-0.422055
C99	C	-0.824244	-1.196845	-0.440537
C100	C	-0.851231	-1.269308	-0.463257
C101	C	-0.934842	-1.282729	-0.467496
C102	C	-0.991471	-1.223686	-0.449014
C103	C	-0.964484	-1.151223	-0.426294
H104	H	-0.762346	-1.186911	-0.437399
H105	H	-0.809310	-1.313016	-0.476938
H106	H	-0.954819	-1.336371	-0.484315
H107	H	-1.053369	-1.233619	-0.452152
H108	H	-1.006405	-1.107515	-0.412612
H109	H	-0.259610	-1.067359	-0.784088
C110	C	-0.446341	-0.897101	-0.633312
C111	C	-0.443959	-0.816816	-0.640170
C112	C	-0.496435	-0.768971	-0.597793
C113	C	-0.551292	-0.801411	-0.548559
C114	C	-0.553676	-0.881700	-0.541699
C115	C	-0.501201	-0.929545	-0.584075
H116	H	-0.403349	-0.792798	-0.676618
H117	H	-0.494670	-0.709536	-0.602872
H118	H	-0.590138	-0.765994	-0.517189
H119	H	-0.594287	-0.905718	-0.505250
H120	H	-0.502966	-0.988981	-0.578996
C121	C	-0.437353	-0.748564	-0.274538
C122	C	-0.488990	-0.710157	-0.223397
C123	C	-0.537337	-0.752474	-0.175496
C124	C	-0.534047	-0.833197	-0.178735
C125	C	-0.482408	-0.871609	-0.229878
C126	C	-0.434061	-0.829292	-0.277780
H127	H	-0.491428	-0.650397	-0.220997
H128	H	-0.575564	-0.724039	-0.137636
H129	H	-0.569837	-0.864522	-0.143276
H130	H	-0.479971	-0.931369	-0.232278
H131	H	-0.395834	-0.857727	-0.315640
C132	C	-0.209644	-1.112903	-0.972181
C133	C	-0.157169	-1.160749	-1.014550
C134	C	-0.101156	-1.211833	-0.976199
C135	C	-0.097618	-1.215071	-0.895480
C136	C	-0.150096	-1.167224	-0.853106
C137	C	-0.206109	-1.116140	-0.891457
H138	H	-0.159785	-1.158353	-1.074307
H139	H	-0.062308	-1.247252	-1.007567
H140	H	-0.056154	-1.252887	-0.867090
H141	H	-0.147479	-1.169620	-0.793348
H142	H	-0.244956	-1.080721	-0.860088
C143	C	-0.410208	-0.417396	-0.301481
C144	C	-0.400936	-0.410480	-0.221204
C145	C	-0.449297	-0.452785	-0.173305
C146	C	-0.506930	-0.502006	-0.205684
C147	C	-0.516204	-0.508924	-0.285965
C148	C	-0.467843	-0.466619	-0.333864
H149	H	-0.358270	-0.374041	-0.197231
H150	H	-0.442431	-0.447663	-0.113876
H151	H	-0.542730	-0.533323	-0.170227
H152	H	-0.558870	-0.545363	-0.309938
H153	H	-0.474709	-0.471741	-0.393294
C154	C	-0.416474	-0.263283	-0.295284
C155	C	-0.406362	-0.276545	-0.215817
C156	C	-0.457993	-0.238127	-0.164672
C157	C	-0.519735	-0.186447	-0.192994
C158	C	-0.529849	-0.173182	-0.272466
C159	C	-0.478219	-0.211601	-0.323610
H160	H	-0.360654	-0.314804	-0.194847
H161	H	-0.450505	-0.247946	-0.105842
H162	H	-0.557955	-0.158007	-0.155134
H163	H	-0.575557	-0.134923	-0.293435
H164	H	-0.485707	-0.201781	-0.382440
H165	H	-0.884845	-0.911776	-0.462574
H166	H	-0.438542	-0.904191	-0.777465
C167	C	-0.246474	-0.741104	-0.463623
C168	C	-0.198124	-0.698787	-0.511515
C169	C	-0.146483	-0.737193	-0.562659
C170	C	-0.143191	-0.817916	-0.565909
C171	C	-0.191543	-0.860238	-0.518015
C172	C	-0.243184	-0.821831	-0.466872
H173	H	-0.200559	-0.639027	-0.509110
H174	H	-0.110690	-0.705863	-0.598113
H175	H	-0.104963	-0.846347	-0.603769
H176	H	-0.189108	-0.919998	-0.520420
H177	H	-0.278977	-0.853161	-0.431417
C178	C	-0.252752	-0.587000	-0.457432
C179	C	-0.262047	-0.593916	-0.537708
C180	C	-0.213698	-0.551613	-0.585620
C181	C	-0.156055	-0.502393	-0.553256
C182	C	-0.146758	-0.495474	-0.472976
C183	C	-0.195107	-0.537778	-0.425064
H184	H	-0.304720	-0.630353	-0.561669
H185	H	-0.220581	-0.556734	-0.645048
H186	H	-0.120264	-0.471077	-0.588723
H187	H	-0.104085	-0.459037	-0.449015
H188	H	-0.188224	-0.532656	-0.365636
H189	H	-0.408969	-0.931131	-1.108650
C190	C	-0.781532	-1.033036	-0.518327
C191	C	-0.805691	-0.984522	-0.580213
C192	C	-0.778738	-1.001133	-0.654239
C193	C	-0.727626	-1.066259	-0.666379
C194	C	-0.703463	-1.114778	-0.604491
C195	C	-0.730417	-1.098166	-0.530465
H196	H	-0.843530	-0.936308	-0.571228
H197	H	-0.796625	-0.965215	-0.700052
H198	H	-0.707673	-1.078555	-0.721177
H199	H	-0.665625	-1.162991	-0.613476
H200	H	-0.712530	-1.134084	-0.484652
C201	C	-0.768780	-1.106638	-0.283054
C202	C	-0.785551	-1.184467	-0.294193
C203	C	-0.751882	-1.240331	-0.242779
C204	C	-0.701441	-1.218366	-0.180224
C205	C	-0.684668	-1.140534	-0.169082
C206	C	-0.718338	-1.084669	-0.220497
H207	H	-0.822893	-1.200730	-0.340502
H208	H	-0.764299	-1.297949	-0.251027
H209	H	-0.676517	-1.259720	-0.142164
H210	H	-0.647327	-1.124270	-0.122773
H211	H	-0.705921	-1.027052	-0.212248
H212	H	-0.788267	-0.884844	-0.342920
C213	C	-0.880717	-0.970706	-0.240664
C214	C	-0.824122	-0.956421	-0.180314
C215	C	-0.851103	-0.939769	-0.106307
C216	C	-0.934679	-0.937402	-0.092649
C217	C	-0.991280	-0.951688	-0.153001
C218	C	-0.964298	-0.968340	-0.227008
H219	H	-0.762250	-0.958173	-0.190423
H220	H	-0.809204	-0.929194	-0.061631
H221	H	-0.954652	-0.925075	-0.037864
H222	H	-1.053152	-0.949936	-0.142892
H223	H	-1.006198	-0.978915	-0.271684
H224	H	-0.238159	-0.266825	-0.471928
H225	H	-0.430212	-0.604422	-0.281626
