data_functionalizedCrystal
_audit_creation_method	'MofGen! by Chris Wilmer'
_symmetry_space_group_name_H-M	'P1'
_symmetry_Int_Tables_number	1
_symmetry_cell_setting	triclinic
loop_
_symmetry_equiv_pos_as_xyz
  x,y,z
_cell_length_a	12.594517
_cell_length_b	12.594516
_cell_length_c	16.120297
_cell_angle_alpha	92.877768
_cell_angle_beta	92.877961
_cell_angle_gamma	90.015853
loop_
_atom_site_label
_atom_site_type_symbol
_atom_site_fract_x
_atom_site_fract_y
_atom_site_fract_z
Zn1	Zn	1.596739	-0.454293	-0.471425
Zn2	Zn	1.605657	-0.623262	-0.332026
Zn3	Zn	1.427770	-0.445297	-0.332027
Zn4	Zn	1.418727	-0.632227	-0.471392
O5	O	1.512223	-0.538770	-0.401717
O6	O	1.746866	-0.476720	-0.452947
O7	O	1.589576	-0.592137	-0.215363
O8	O	1.450236	-0.297546	-0.350533
O9	O	1.753418	-0.600861	-0.350531
O10	O	1.574377	-0.304155	-0.452947
O11	O	1.458883	-0.461388	-0.215364
O12	O	1.277625	-0.470081	-0.350501
O13	O	1.434824	-0.616141	-0.588059
O14	O	1.270981	-0.607418	-0.452891
O15	O	1.565608	-0.485414	-0.588084
O16	O	1.580808	-0.773396	-0.350499
O17	O	1.443471	-0.779983	-0.452890
C18	C	1.235684	-0.538747	-0.401693
C19	C	1.117377	-0.538764	-0.401702
C20	C	1.051700	-0.463976	-0.346118
C21	C	0.982217	-0.559735	-0.325615
C22	C	0.976061	-0.443054	-0.422219
C23	C	1.049455	-0.634571	-0.381159
C24	C	1.043303	-0.517827	-0.477799
C25	C	0.973850	-0.613654	-0.457325
C26	C	1.512154	-0.815310	-0.401709
C27	C	1.512220	-0.933617	-0.401734
C28	C	1.437518	-1.006489	-0.457385
C29	C	1.416511	-1.072420	-0.381312
C30	C	1.533323	-1.078486	-0.477819
C31	C	1.491164	-0.997988	-0.325621
C32	C	1.608018	-1.004050	-0.422179
C33	C	1.587051	-1.069946	-0.346054
C34	C	1.789842	-0.538794	-0.401742
C35	C	1.908147	-0.538804	-0.401753
C36	C	1.498213	-0.552781	-0.619167
C37	C	1.492242	-0.558751	-0.711831
C38	C	1.512320	-0.261151	-0.401744
C39	C	1.512362	-0.142846	-0.401755
C40	C	1.481303	-0.569629	-0.881489
C41	C	1.543353	-0.507592	-0.922798
C42	C	1.537266	-0.513644	-1.017201
C43	C	1.487388	-0.563578	-0.787077
C44	C	1.526240	-0.524737	-0.185114
C45	C	1.532416	-0.518466	-0.092450
H46	H	1.070323	-0.500062	-0.542111
O47	O	1.704609	-0.968322	-0.442879
C48	C	1.772183	-1.055620	-0.458121
H49	H	1.722218	-1.129697	-0.475336
H50	H	1.824386	-1.069300	-0.399814
C51	C	1.904342	-0.941453	-0.509138
C52	C	1.842974	-1.032434	-0.530288
H53	H	1.948013	-0.927150	-0.553651
H54	H	1.858819	-0.882638	-0.498866
H55	H	1.947835	-0.952865	-0.460547
H56	H	1.799473	-1.021016	-0.578872
H57	H	1.888492	-1.091247	-0.540570
H58	H	1.423615	-0.627281	-0.917021
O59	O	1.361898	-0.973136	-0.513355
C60	C	1.261099	-1.007935	-0.491504
H61	H	1.263633	-1.023359	-0.422352
H62	H	1.238729	-1.084439	-0.529130
C63	C	1.174679	-0.902822	-0.595151
C64	C	1.177788	-0.921758	-0.510217
H65	H	1.123286	-0.849668	-0.606698
H66	H	1.242589	-0.879381	-0.609875
H67	H	1.156040	-0.966583	-0.626497
H68	H	1.196439	-0.858002	-0.478874
H69	H	1.109879	-0.945187	-0.495488
H70	H	0.943813	-0.362105	-0.439523
O71	O	1.319941	-1.108438	-0.360800
C72	C	1.276264	-1.175794	-0.426279
H73	H	1.342844	-1.209256	-0.465137
H74	H	1.218944	-1.128656	-0.467161
C75	C	1.134273	-1.226746	-0.342365
C76	C	1.216048	-1.267852	-0.390087
H77	H	1.097124	-1.283529	-0.320042
H78	H	1.163695	-1.181364	-0.298252
H79	H	1.086517	-1.187464	-0.376441
H80	H	1.263809	-1.307121	-0.356009
H81	H	1.186632	-1.313243	-0.434194
O82	O	1.469788	-0.955985	-0.248905
C83	C	1.469952	-0.844102	-0.249823
H84	H	1.453747	-0.819071	-0.316247
H85	H	1.550769	-0.812135	-0.225116
C86	C	1.402756	-0.829626	-0.112893
C87	C	1.382843	-0.798882	-0.194474
H88	H	1.349027	-0.801730	-0.078748
H89	H	1.402649	-0.905003	-0.112272
H90	H	1.470106	-0.802985	-0.092315
H91	H	1.315501	-0.825534	-0.215054
H92	H	1.382937	-0.723507	-0.195097
O93	O	1.662379	-1.103044	-0.289746
C94	C	1.639816	-1.061648	-0.209677
H95	H	1.551604	-1.041865	-0.208025
H96	H	1.688756	-0.986443	-0.194220
C97	C	1.776566	-1.169042	-0.147351
C98	C	1.668219	-1.144753	-0.145321
H99	H	1.794090	-1.220302	-0.107653
H100	H	1.791771	-1.196929	-0.201295
H101	H	1.817336	-1.106364	-0.134473
H102	H	1.627452	-1.207428	-0.158209
H103	H	1.653009	-1.116878	-0.091377
O104	O	0.933556	-0.689143	-0.513532
C105	C	0.966105	-0.667725	-0.593439
H106	H	1.041412	-0.617108	-0.587456
H107	H	0.900454	-0.622995	-0.628156
C108	C	0.896124	-0.835295	-0.649256
C109	C	0.988622	-0.773134	-0.641908
H110	H	0.910009	-0.900316	-0.679156
H111	H	0.874191	-0.849724	-0.595422
H112	H	0.841424	-0.798008	-0.678184
H113	H	1.043316	-0.810416	-0.612971
H114	H	1.010565	-0.758714	-0.695738
O115	O	0.950058	-0.580715	-0.248820
C116	C	0.989851	-0.501676	-0.190374
H117	H	1.007600	-0.426379	-0.223625
H118	H	1.065976	-0.531165	-0.157952
C119	C	0.884712	-0.569700	-0.084573
C120	C	0.906503	-0.477216	-0.125411
H121	H	0.833302	-0.554614	-0.044499
H122	H	0.857905	-0.622953	-0.123948
H123	H	0.948157	-0.594265	-0.057562
H124	H	0.843062	-0.452660	-0.152431
H125	H	0.933297	-0.423958	-0.086039
O126	O	1.554687	-1.120599	-0.554505
C127	C	1.648335	-1.181678	-0.548845
H128	H	1.662128	-1.207937	-0.482521
H129	H	1.718744	-1.131783	-0.566018
C130	C	1.619944	-1.248077	-0.690520
C131	C	1.636881	-1.280336	-0.609060
H132	H	1.612883	-1.308932	-0.727666
H133	H	1.556855	-1.206924	-0.694335
H134	H	1.678622	-1.206497	-0.704819
H135	H	1.578198	-1.321904	-0.594759
H136	H	1.699961	-1.321499	-0.605245
H137	H	1.085769	-0.400786	-0.299055
H138	H	1.081524	-0.715549	-0.363756
O139	O	1.612145	-0.438886	-0.880284
C140	C	1.602963	-0.448038	-0.794125
H141	H	1.568836	-0.529441	-0.782325
H142	H	1.547850	-0.383355	-0.769409
C143	C	1.755399	-0.335471	-0.763828
C144	C	1.713491	-0.435455	-0.749335
H145	H	1.823576	-0.327704	-0.736199
H146	H	1.761583	-0.329301	-0.821875
H147	H	1.709462	-0.281579	-0.743231
H148	H	1.759422	-0.489343	-0.769941
H149	H	1.707318	-0.441633	-0.691291
