data_functionalizedCrystal
_audit_creation_method	'MofGen! by Chris Wilmer'
_symmetry_space_group_name_H-M	'P1'
_symmetry_Int_Tables_number	1
_symmetry_cell_setting	triclinic
loop_
_symmetry_equiv_pos_as_xyz
  x,y,z
_cell_length_a	12.759401
_cell_length_b	21.295417
_cell_length_c	12.759393
_cell_angle_alpha	90.037475
_cell_angle_beta	90.019268
_cell_angle_gamma	90.032032
loop_
_atom_site_label
_atom_site_type_symbol
_atom_site_fract_x
_atom_site_fract_y
_atom_site_fract_z
Zn1	Zn	1.606134	-0.250557	0.593965
Zn2	Zn	1.605981	-0.355838	0.418261
Zn3	Zn	1.430437	-0.250589	0.418300
Zn4	Zn	1.430376	-0.355795	0.593899
O5	O	1.518232	-0.303195	0.506106
O6	O	1.753134	-0.264527	0.570669
O7	O	1.582657	-0.341908	0.271245
O8	O	1.453834	-0.162496	0.441646
O9	O	1.753023	-0.341877	0.441580
O10	O	1.582917	-0.162472	0.570706
O11	O	1.453686	-0.264582	0.271274
O12	O	1.283408	-0.264541	0.441582
O13	O	1.453728	-0.341804	0.740929
O14	O	1.283363	-0.341835	0.570594
O15	O	1.582857	-0.264486	0.740977
O16	O	1.582597	-0.443922	0.441516
O17	O	1.453581	-0.443890	0.570556
C18	C	1.245265	-0.303187	0.506085
C19	C	1.128488	-0.303199	0.506101
C20	C	1.073630	-0.343507	0.573172
C21	C	0.963906	-0.343510	0.573193
C22	C	0.963908	-0.262894	0.439063
C23	C	1.073630	-0.262889	0.439048
C24	C	0.813996	-0.366098	0.697048
C25	C	0.759134	-0.406416	0.764110
C26	C	0.794703	-0.467849	0.780044
C27	C	0.885132	-0.488976	0.728901
C28	C	0.939988	-0.448661	0.661832
C29	C	0.904421	-0.387220	0.645918
C30	C	1.223542	-0.240307	0.315192
C31	C	1.278400	-0.199995	0.248116
C32	C	1.242833	-0.138561	0.232171
C33	C	1.152401	-0.117436	0.283295
C34	C	1.097542	-0.157748	0.350371
C35	C	1.133117	-0.219181	0.366317
C36	C	1.518094	-0.466747	0.506048
C37	C	1.518132	-0.536715	0.506058
C38	C	1.585370	-0.569577	0.438936
C39	C	1.585419	-0.635319	0.438960
C40	C	1.518211	-0.668197	0.506094
C41	C	1.450968	-0.635327	0.573230
C42	C	1.450928	-0.569586	0.573212
N43	N	1.426304	-0.771464	0.514097
N44	N	1.426345	-0.833915	0.514108
C45	C	1.518329	-0.866272	0.506155
N46	N	1.610273	-0.833818	0.498169
N47	N	1.610231	-0.771360	0.498153
C48	C	1.518248	-0.739482	0.506122
C49	C	1.585627	-0.970419	0.439054
C50	C	1.585678	-1.036163	0.439085
C51	C	1.451217	-1.036170	0.573350
C52	C	1.451175	-0.970427	0.573325
C53	C	1.518379	-0.937556	0.506171
C54	C	1.792265	-0.303203	0.506128
C55	C	1.909042	-0.303207	0.506137
C56	C	1.518303	-0.303136	0.780140
C57	C	1.518333	-0.303111	0.896916
C58	C	1.518399	-0.139005	0.506188
C59	C	1.518470	-0.069036	0.506222
C60	C	1.518222	-0.303208	0.233139
C61	C	1.518396	-0.303056	0.116363
C62	C	1.451151	-0.343325	1.061486
C63	C	1.451116	-0.343351	0.951762
C64	C	1.585581	-0.262838	0.951801
C65	C	1.585609	-0.262809	1.061523
C66	C	1.327149	-0.365878	0.801794
C67	C	1.259913	-0.406156	0.746914
C68	C	1.243728	-0.467569	0.782502
C69	C	1.294794	-0.488715	0.872968
C70	C	1.362037	-0.448440	0.927843
C71	C	1.378202	-0.387018	0.892257
C72	C	1.709578	-0.240289	1.211493
C73	C	1.776828	-0.200016	1.266369
C74	C	1.793023	-0.138602	1.230783
C75	C	1.741976	-0.117458	1.140313
C76	C	1.674727	-0.157731	1.085437
C77	C	1.658529	-0.219144	1.121030
H78	H	0.914079	-0.539003	0.741872
H79	H	0.750027	-0.500676	0.834648
H80	H	1.396419	-0.943669	0.627977
Cl81	Cl	1.311791	-0.087886	0.147832
H82	H	1.640094	-0.542815	0.384258
Cl83	Cl	1.610552	-0.131149	0.971700
Cl84	Cl	1.670109	-0.929093	0.354634
H85	H	1.118292	-0.376329	0.627773
Cl86	Cl	1.366649	-0.393917	1.130424
Cl87	Cl	1.762341	-0.040251	1.095567
H88	H	0.685507	-0.389209	0.805751
H89	H	1.640177	-0.662081	0.384301
H90	H	1.396248	-0.662100	0.627893
Cl91	Cl	1.392077	-0.226556	0.183830
Cl92	Cl	1.670222	-1.077476	0.354703
H93	H	1.340306	-0.315868	0.772819
H94	H	1.396499	-1.062938	0.628017
H95	H	1.396173	-0.542829	0.627872
H96	H	1.847792	-0.105814	1.275470
H97	H	1.640305	-0.230071	0.907137
H98	H	1.403616	-0.465657	1.001498
Cl99	Cl	1.274459	-0.565928	0.917691
Cl100	Cl	1.159203	-0.518204	0.713507
H101	H	1.218335	-0.388933	0.673255
Cl102	Cl	0.769285	-0.288861	0.677038
Cl103	Cl	1.841011	-0.226600	1.380099
Cl104	Cl	1.053662	-0.475215	0.597540
H105	H	1.252516	-0.290330	0.328178
H106	H	0.919229	-0.230075	0.384470
Cl107	Cl	1.107677	-0.040205	0.263244
Cl108	Cl	0.983850	-0.131192	0.414637
Cl109	Cl	1.689209	-0.317495	1.256245
