data_functionalizedCrystal
_audit_creation_method	'MofGen! by Chris Wilmer'
_symmetry_space_group_name_H-M	'P1'
_symmetry_Int_Tables_number	1
_symmetry_cell_setting	triclinic
loop_
_symmetry_equiv_pos_as_xyz
  x,y,z
_cell_length_a	19.076808
_cell_length_b	19.077267
_cell_length_c	12.759393
_cell_angle_alpha	87.724858
_cell_angle_beta	87.664746
_cell_angle_gamma	89.883307
loop_
_atom_site_label
_atom_site_type_symbol
_atom_site_fract_x
_atom_site_fract_y
_atom_site_fract_z
Zn1	Zn	-0.322914	-1.062979	-0.510928
Zn2	Zn	-0.440444	-1.058165	-0.328470
Zn3	Zn	-0.318226	-0.945470	-0.342584
Zn4	Zn	-0.435668	-0.940722	-0.511430
O5	O	-0.379313	-1.001834	-0.423353
O6	O	-0.342466	-1.160668	-0.480607
O7	O	-0.424269	-1.043187	-0.183321
O8	O	-0.220512	-0.965060	-0.370612
O9	O	-0.428814	-1.157131	-0.346557
O10	O	-0.223957	-1.051393	-0.494293
O11	O	-0.334476	-0.960391	-0.193690
O12	O	-0.329844	-0.846512	-0.371099
O13	O	-0.420674	-0.956968	-0.658385
O14	O	-0.416128	-0.843024	-0.495150
O15	O	-0.337834	-1.046789	-0.658016
O16	O	-0.538146	-1.038584	-0.347044
O17	O	-0.534637	-0.952299	-0.481464
C18	C	-0.371960	-0.819273	-0.434711
C19	C	-0.368831	-0.741172	-0.439594
C20	C	-0.561890	-0.994423	-0.412799
C21	C	-0.640000	-0.991317	-0.408315
C22	C	-0.412245	-0.702638	-0.371999
C23	C	-0.409305	-0.629254	-0.376601
C24	C	-0.362947	-0.594405	-0.448793
C25	C	-0.319531	-0.632944	-0.516395
C26	C	-0.322475	-0.706327	-0.511798
C27	C	-0.349333	-0.375131	-0.470042
C28	C	-0.346391	-0.301743	-0.474632
C29	C	-0.436166	-0.298059	-0.334839
C30	C	-0.439103	-0.371443	-0.330244
C31	C	-0.395690	-0.409975	-0.397849
N32	N	-0.359940	-0.519394	-0.453496
N33	N	-0.398701	-0.484984	-0.393150
C34	C	-0.678427	-1.034773	-0.470659
C35	C	-0.751820	-1.031852	-0.466447
C36	C	-0.786783	-0.985477	-0.399886
C37	C	-0.748350	-0.942016	-0.337540
C38	C	-0.674959	-0.944934	-0.341757
C39	C	-1.006093	-0.971929	-0.380366
C40	C	-1.079490	-0.969016	-0.376151
C41	C	-1.082954	-1.058851	-0.505061
C42	C	-1.009561	-1.061768	-0.509268
C43	C	-0.971135	-1.018304	-0.446926
N44	N	-0.861802	-0.982491	-0.395577
N45	N	-0.896117	-1.021287	-0.451241
C46	C	-0.196024	-1.009293	-0.433971
C47	C	-0.117917	-1.012472	-0.438495
C48	C	-0.379244	-1.001886	-0.697388
C49	C	-0.379215	-1.001908	-0.814165
C50	C	-0.386687	-0.185108	-0.411938
C51	C	-0.389805	-0.263210	-0.407038
C52	C	-0.336076	-1.048685	-0.868836
C53	C	-0.336052	-1.048702	-0.978561
C54	C	-0.422310	-0.955165	-0.978933
C55	C	-0.422330	-0.955144	-0.869211
C56	C	-0.286278	-1.102690	-0.868622
C57	C	-0.286253	-1.102708	-0.978347
C58	C	-0.379333	-1.001825	-0.150385
C59	C	-0.379170	-1.001947	-0.033612
H60	H	-0.444657	-0.597883	-0.321558
O61	O	-1.124402	-1.105714	-0.572314
H62	H	-1.159277	-1.140150	-0.521197
O63	O	-0.964649	-0.925057	-0.313126
H64	H	-0.932471	-0.957857	-0.259685
H65	H	-0.457411	-0.917090	-1.023765
H66	H	-0.233761	-1.085323	-1.016591
H67	H	-0.981095	-1.099530	-0.563468
O68	O	-0.308458	-1.174011	-1.012201
H69	H	-0.356557	-1.168543	-1.057951
O70	O	-0.462244	-0.740219	-0.294126
H71	H	-0.456993	-0.797721	-0.302273
O72	O	-0.633514	-0.898066	-0.274504
H73	H	-0.598651	-0.863623	-0.325629
H74	H	-1.107955	-0.931248	-0.321948
O75	O	-0.489097	-0.409031	-0.252371
H76	H	-0.518793	-0.369907	-0.206141
H77	H	-0.471511	-0.266678	-0.279800
O78	O	-0.793263	-1.078725	-0.533691
H79	H	-0.850171	-1.068900	-0.519589
H80	H	-0.287122	-0.737700	-0.566840
O81	O	-0.640717	-1.084798	-0.542441
H82	H	-0.679771	-1.114522	-0.585088
O83	O	-0.786056	-0.892005	-0.265731
H84	H	-0.843546	-0.897284	-0.273257
H85	H	-0.231271	-1.090327	-0.842913
H86	H	-0.308635	-0.273372	-0.533418
O87	O	-0.302498	-0.416688	-0.542937
H88	H	-0.269761	-0.380125	-0.593893
H89	H	-0.457455	-0.917052	-0.824702
O90	O	-0.314860	-1.170103	-0.817767
H91	H	-0.329994	-1.205862	-0.879539
O92	O	-0.269524	-0.595362	-0.594255
H93	H	-0.274762	-0.537861	-0.586087
