data_functionalizedCrystal
_audit_creation_method	'MofGen! by Chris Wilmer'
_symmetry_space_group_name_H-M	'P1'
_symmetry_Int_Tables_number	1
_symmetry_cell_setting	triclinic
loop_
_symmetry_equiv_pos_as_xyz
  x,y,z
_cell_length_a	12.645331
_cell_length_b	19.121063
_cell_length_c	12.645323
_cell_angle_alpha	92.408124
_cell_angle_beta	89.977324
_cell_angle_gamma	92.467980
loop_
_atom_site_label
_atom_site_type_symbol
_atom_site_fract_x
_atom_site_fract_y
_atom_site_fract_z
Zn1	Zn	1.602654	-0.279627	-0.617388
Zn2	Zn	1.594942	-0.397086	-0.447665
Zn3	Zn	1.425367	-0.279651	-0.440134
Zn4	Zn	1.417760	-0.397040	-0.624877
O5	O	1.510181	-0.338351	-0.532516
O6	O	1.749978	-0.295217	-0.594892
O7	O	1.572404	-0.381537	-0.298321
O8	O	1.455295	-0.181363	-0.457361
O9	O	1.744312	-0.381514	-0.470197
O10	O	1.585547	-0.181346	-0.587589
O11	O	1.447818	-0.295258	-0.292788
O12	O	1.276011	-0.295213	-0.464623
O13	O	1.442330	-0.381436	-0.772230
O14	O	1.270422	-0.381459	-0.600353
O15	O	1.578171	-0.295173	-0.766727
O16	O	1.565027	-0.495364	-0.477459
O17	O	1.434852	-0.495330	-0.607656
C18	C	1.234752	-0.338334	-0.532485
C19	C	1.116921	-0.338344	-0.532497
C20	C	0.952854	-0.283838	-0.447545
C21	C	1.075405	-0.283979	-0.447195
C22	C	1.067618	-0.412331	-0.506730
C23	C	0.945039	-0.412033	-0.506155
C24	C	0.950986	-0.319567	-0.643576
C25	C	1.073698	-0.317914	-0.642847
C26	C	1.498306	-0.520831	-0.544210
C27	C	1.493323	-0.598897	-0.549248
C28	C	1.558810	-0.635567	-0.483885
C29	C	1.554130	-0.708918	-0.488629
C30	C	1.483957	-0.745598	-0.558733
C31	C	1.418467	-0.708923	-0.624104
C32	C	1.423154	-0.635573	-0.619364
C33	C	1.466419	-0.967067	-0.576438
C34	C	1.461736	-1.040422	-0.581171
C35	C	1.597400	-1.040412	-0.445697
C36	C	1.602076	-0.967061	-0.440959
C37	C	1.536590	-0.930392	-0.506334
C38	C	1.479169	-0.820575	-0.563582
C39	C	1.541384	-0.855417	-0.501489
C40	C	1.786685	-0.338368	-0.532549
C41	C	1.904514	-0.338375	-0.532563
C42	C	1.510262	-0.338296	-0.809018
C43	C	1.510297	-0.338273	-0.926847
C44	C	1.522130	-0.155158	-0.520800
C45	C	1.527222	-0.077092	-0.515807
C46	C	1.424603	-0.392285	-1.097856
C47	C	1.424801	-0.392553	-0.975313
C48	C	1.620698	-0.358362	-0.972656
C49	C	1.620225	-0.358700	-1.095276
C50	C	1.486666	-0.263871	-1.089271
C51	C	1.484145	-0.264317	-0.966693
C52	C	1.510164	-0.338354	-0.257087
C53	C	1.510347	-0.338179	-0.139246
H54	H	1.106322	-0.263468	-0.662363
H55	H	1.094090	-0.454052	-0.566917
C56	C	1.445443	-0.466961	-0.940473
H57	H	1.445625	-0.467381	-0.865374
H58	H	1.512119	-0.480726	-0.966784
H59	H	1.391304	-0.498685	-0.967758
H60	H	1.404605	-1.070285	-0.638276
C61	C	1.111875	-0.367669	-0.732479
H62	H	1.154861	-0.401707	-0.703645
H63	H	1.151888	-0.341545	-0.782026
H64	H	1.052415	-0.390468	-0.767049
C65	C	0.910116	-0.300442	-0.336928
H66	H	0.862943	-0.340468	-0.342330
H67	H	0.873611	-0.261547	-0.308506
H68	H	0.967437	-0.309572	-0.291706
C69	C	1.679273	-0.926718	-0.363852
H70	H	1.717612	-0.959063	-0.325609
H71	H	1.640573	-0.898146	-0.315779
H72	H	1.727275	-0.898062	-0.402605
C73	C	1.314011	-0.375562	-0.933552
H74	H	1.268474	-0.368438	-0.991500
H75	H	1.318938	-0.334286	-0.889019
H76	H	1.286259	-0.413491	-0.894389
H77	H	1.097224	-0.428555	-0.426612
H78	H	1.103879	-0.296410	-0.364833
H79	H	1.641782	-0.412113	-0.945416
H80	H	1.342333	-0.379835	-1.126531
C81	C	1.120866	-0.209860	-0.468253
H82	H	1.064429	-0.179391	-0.477095
H83	H	1.162687	-0.211379	-0.530660
H84	H	1.163511	-0.193075	-0.409971
H85	H	1.369829	-0.605717	-0.672591
H86	H	0.923516	-0.266557	-0.667927
C87	C	1.669435	-1.080748	-0.373800
H88	H	1.656603	-1.129686	-0.386666
H89	H	1.654728	-1.068770	-0.301784
H90	H	1.741428	-1.068681	-0.388612
H91	H	1.407816	-0.245560	-1.119000
H92	H	0.919439	-0.359290	-0.706863
H93	H	1.598523	-0.825550	-0.444415
C94	C	0.917829	-0.209499	-0.468307
H95	H	0.873408	-0.211054	-0.529007
H96	H	0.978409	-0.179722	-0.480014
H97	H	0.880028	-0.191864	-0.408703
C98	C	1.394369	-0.926741	-0.648329
H99	H	1.351896	-0.959094	-0.690744
H100	H	1.436713	-0.898080	-0.692711
H101	H	1.350025	-0.898176	-0.605873
H102	H	1.549176	-0.223560	-1.115698
H103	H	1.402923	-0.249167	-0.936622
H104	H	0.915362	-0.427984	-0.425139
C105	C	1.444962	-0.466239	-1.144242
H106	H	1.505493	-0.464285	-1.188719
H107	H	1.385153	-0.483453	-1.184347
H108	H	1.456820	-0.496600	-1.088275
H109	H	0.912678	-0.454044	-0.565636
H110	H	1.422032	-0.850448	-0.620658
C111	C	1.709039	-0.306816	-0.929985
H112	H	1.679306	-0.272507	-0.883739
H113	H	1.742843	-0.284497	-0.987417
H114	H	1.759463	-0.331648	-0.892453
C115	C	1.341276	-0.749269	-0.701214
H116	H	1.347855	-0.798206	-0.694668
H117	H	1.357519	-0.737208	-0.771677
H118	H	1.270820	-0.737291	-0.684849
C119	C	1.648088	-0.432082	-1.138641
H120	H	1.659583	-0.461407	-1.081300
H121	H	1.710487	-0.428513	-1.180265
H122	H	1.591364	-0.451607	-1.181096
H123	H	1.615948	-0.605707	-0.426794
H124	H	1.686020	-0.321003	-1.122535
C125	C	1.562920	-0.206984	-0.921736
H126	H	1.545239	-0.162902	-0.947123
H127	H	1.632571	-0.217315	-0.943740
H128	H	1.559556	-0.205362	-0.846625
C129	C	1.626161	-0.749252	-0.416724
H130	H	1.668614	-0.716901	-0.374284
H131	H	1.670509	-0.777821	-0.459159
H132	H	1.583792	-0.777909	-0.372348
