data_functionalizedCrystal
_audit_creation_method	'MofGen! by Chris Wilmer'
_symmetry_space_group_name_H-M	'P1'
_symmetry_Int_Tables_number	1
_symmetry_cell_setting	triclinic
loop_
_symmetry_equiv_pos_as_xyz
  x,y,z
_cell_length_a	18.101398
_cell_length_b	19.121063
_cell_length_c	18.101390
_cell_angle_alpha	92.404924
_cell_angle_beta	89.975319
_cell_angle_gamma	92.464489
loop_
_atom_site_label
_atom_site_type_symbol
_atom_site_fract_x
_atom_site_fract_y
_atom_site_fract_z
Zn1	Zn	1.119561	-0.279674	-0.431399
Zn2	Zn	1.369561	-0.029674	-0.181399
Zn3	Zn	1.619561	0.220326	0.068601
Zn4	Zn	1.869561	0.470326	0.318601
Zn5	Zn	1.114180	-0.397138	-0.312833
Zn6	Zn	1.364180	-0.147138	-0.062833
Zn7	Zn	1.614180	0.102862	0.187167
Zn8	Zn	1.864180	0.352862	0.437167
Zn9	Zn	0.995718	-0.279696	-0.307561
Zn10	Zn	1.245718	-0.029696	-0.057561
Zn11	Zn	1.495718	0.220304	0.192439
Zn12	Zn	1.745718	0.470304	0.442439
Zn13	Zn	0.990397	-0.397078	-0.436619
Zn14	Zn	1.240397	-0.147078	-0.186619
Zn15	Zn	1.490397	0.102922	0.063381
Zn16	Zn	1.740397	0.352922	0.313381
O17	O	1.054964	-0.338397	-0.372103
O18	O	1.304964	-0.088397	-0.122103
O19	O	1.554964	0.161603	0.127897
O20	O	1.804964	0.411603	0.377897
O21	O	1.222480	-0.295271	-0.415693
O22	O	1.472480	-0.045271	-0.165693
O23	O	1.722480	0.204729	0.084307
O24	O	1.972480	0.454729	0.334307
O25	O	1.098441	-0.381594	-0.208503
O26	O	1.348441	-0.131594	0.041497
O27	O	1.598441	0.118406	0.291497
O28	O	1.848441	0.368406	0.541497
O29	O	1.016625	-0.181409	-0.319598
O30	O	1.266625	0.068591	-0.069598
O31	O	1.516625	0.318591	0.180402
O32	O	1.766625	0.568591	0.430402
O33	O	1.218526	-0.381572	-0.328583
O34	O	1.468526	-0.131572	-0.078583
O35	O	1.718526	0.118428	0.171417
O36	O	1.968526	0.368428	0.421417
O37	O	1.107612	-0.181393	-0.410581
O38	O	1.357612	0.068607	-0.160581
O39	O	1.607612	0.318607	0.089419
O40	O	1.857612	0.568607	0.339419
O41	O	1.011407	-0.295310	-0.204629
O42	O	1.261407	-0.045310	0.045371
O43	O	1.511407	0.204690	0.295371
O44	O	1.761407	0.454690	0.545371
O45	O	0.891380	-0.295252	-0.324660
O46	O	1.141380	-0.045252	-0.074660
O47	O	1.391380	0.204748	0.175340
O48	O	1.641380	0.454748	0.425340
O49	O	1.007556	-0.381470	-0.539558
O50	O	1.257556	-0.131470	-0.289558
O51	O	1.507556	0.118530	-0.039558
O52	O	1.757556	0.368530	0.210442
O53	O	0.887471	-0.381492	-0.419478
O54	O	1.137471	-0.131492	-0.169478
O55	O	1.387471	0.118508	0.080522
O56	O	1.637471	0.368508	0.330522
O57	O	1.102453	-0.295213	-0.535723
O58	O	1.352453	-0.045213	-0.285723
O59	O	1.602453	0.204787	-0.035723
O60	O	1.852453	0.454787	0.214277
O61	O	1.093281	-0.495414	-0.333645
O62	O	1.343281	-0.245414	-0.083645
O63	O	1.593281	0.004586	0.166355
O64	O	1.843281	0.254586	0.416355
O65	O	1.002339	-0.495370	-0.424590
O66	O	1.252339	-0.245370	-0.174590
O67	O	1.502339	0.004630	0.075410
O68	O	1.752339	0.254630	0.325410
C69	C	0.862555	-0.338368	-0.372063
C70	C	1.112555	-0.088368	-0.122063
C71	C	1.362555	0.161632	0.127937
C72	C	1.612555	0.411632	0.377937
C73	C	0.780241	-0.338373	-0.372065
C74	C	1.030241	-0.088373	-0.122065
C75	C	1.280241	0.161627	0.127935
C76	C	1.530241	0.411627	0.377935
C77	C	0.481148	-0.338417	-0.372129
C78	C	0.731148	-0.088417	-0.122129
C79	C	0.981148	0.161583	0.127871
C80	C	1.231148	0.411583	0.377871
C81	C	0.514920	-0.283886	-0.312739
C82	C	0.764920	-0.033886	-0.062739
C83	C	1.014920	0.216114	0.187261
C84	C	1.264920	0.466114	0.437261
C85	C	0.600532	-0.284032	-0.312502
C86	C	0.850532	-0.034032	-0.062502
C87	C	1.100532	0.215968	0.187498
C88	C	1.350532	0.465968	0.437498
C89	C	0.629531	-0.338394	-0.372097
C90	C	0.879531	-0.088394	-0.122097
C91	C	1.129531	0.161606	0.127903
C92	C	1.379531	0.411606	0.377903
C93	C	0.595090	-0.412381	-0.354095
C94	C	0.845090	-0.162381	-0.104095
C95	C	1.095090	0.087619	0.145905
C96	C	1.345090	0.337619	0.395905
C97	C	0.509458	-0.412078	-0.353686
C98	C	0.759458	-0.162078	-0.103686
C99	C	1.009458	0.087922	0.146314
C100	C	1.259458	0.337922	0.396314
C101	C	0.513608	-0.319604	-0.449683
C102	C	0.763608	-0.069604	-0.199683
C103	C	1.013608	0.180396	0.050317
C104	C	1.263608	0.430396	0.300317
C105	C	0.599333	-0.317957	-0.449182
C106	C	0.849333	-0.067957	-0.199182
C107	C	1.099333	0.182043	0.050818
C108	C	1.349333	0.432043	0.300818
C109	C	0.713391	-0.338386	-0.372080
C110	C	0.963391	-0.088386	-0.122080
C111	C	1.213391	0.161614	0.127920
C112	C	1.463391	0.411614	0.377920
C113	C	0.397288	-0.338430	-0.372144
C114	C	0.647288	-0.088430	-0.122144
C115	C	0.897288	0.161570	0.127856
C116	C	1.147288	0.411570	0.377856
C117	C	1.046669	-0.520876	-0.380272
C118	C	1.296669	-0.270876	-0.130272
C119	C	1.546669	-0.020876	0.119728
C120	C	1.796669	0.229124	0.369728
C121	C	1.043188	-0.598942	-0.383791
C122	C	1.293188	-0.348942	-0.133791
C123	C	1.543188	-0.098942	0.116209
C124	C	1.793188	0.151058	0.366209
C125	C	1.088938	-0.635616	-0.338133
C126	C	1.338938	-0.385616	-0.088133
C127	C	1.588938	-0.135616	0.161867
C128	C	1.838938	0.114384	0.411867
C129	C	1.085668	-0.708967	-0.341448
C130	C	1.335668	-0.458967	-0.091448
C131	C	1.585668	-0.208967	0.158552
C132	C	1.835668	0.041033	0.408552
C133	C	1.036644	-0.745642	-0.390416
C134	C	1.286644	-0.495642	-0.140416
C135	C	1.536644	-0.245642	0.109584
C136	C	1.786644	0.004358	0.359584
C137	C	0.990892	-0.708962	-0.436079
C138	C	1.240892	-0.458962	-0.186079
C139	C	1.490892	-0.208962	0.063921
C140	C	1.740892	0.041038	0.313921
C141	C	0.994166	-0.635612	-0.432768
C142	C	1.244166	-0.385612	-0.182768
C143	C	1.494166	-0.135612	0.067232
C144	C	1.744166	0.114388	0.317232
C145	C	1.024392	-0.967110	-0.402783
C146	C	1.274392	-0.717110	-0.152783
C147	C	1.524392	-0.467110	0.097217
C148	C	1.774392	-0.217110	0.347217
C149	C	1.021120	-1.040464	-0.406089
C150	C	1.271120	-0.790464	-0.156089
C151	C	1.521120	-0.540464	0.093911
C152	C	1.771120	-0.290464	0.343911
C153	C	1.115898	-1.040465	-0.311459
C154	C	1.365898	-0.790465	-0.061459
C155	C	1.615898	-0.540465	0.188541
C156	C	1.865898	-0.290465	0.438541
C157	C	1.119164	-0.967114	-0.308149
C158	C	1.369164	-0.717114	-0.058149
C159	C	1.619164	-0.467114	0.191851
C160	C	1.869164	-0.217114	0.441851
C161	C	1.073415	-0.930440	-0.353814
C162	C	1.323415	-0.680440	-0.103814
C163	C	1.573415	-0.430440	0.146186
C164	C	1.823415	-0.180440	0.396186
C165	C	1.033299	-0.820618	-0.393803
C166	C	1.283299	-0.570618	-0.143803
C167	C	1.533299	-0.320618	0.106197
C168	C	1.783299	-0.070618	0.356197
C169	C	1.076764	-0.855465	-0.350430
C170	C	1.326764	-0.605465	-0.100430
C171	C	1.576764	-0.355465	0.149570
C172	C	1.826764	-0.105465	0.399570
C173	C	1.248125	-0.338426	-0.372144
C174	C	1.498125	-0.088426	-0.122144
C175	C	1.748125	0.161574	0.127856
C176	C	1.998125	0.411574	0.377856
C177	C	1.330438	-0.338438	-0.372161
C178	C	1.580438	-0.088438	-0.122161
C179	C	1.830438	0.161562	0.127839
C180	C	2.080438	0.411562	0.377839
C181	C	1.055011	-0.338333	-0.565262
C182	C	1.305011	-0.088333	-0.315262
C183	C	1.555011	0.161667	-0.065262
C184	C	1.805011	0.411667	0.184738
C185	C	1.055031	-0.338305	-0.647575
C186	C	1.305031	-0.088305	-0.397575
C187	C	1.555031	0.161695	-0.147575
C188	C	1.805031	0.411695	0.102425
C189	C	1.063313	-0.155205	-0.363919
C190	C	1.313313	0.094795	-0.113919
C191	C	1.563313	0.344795	0.136081
C192	C	1.813313	0.594795	0.386081
C193	C	1.066870	-0.077139	-0.360432
C194	C	1.316870	0.172861	-0.110432
C195	C	1.566870	0.422861	0.139568
C196	C	1.816870	0.672861	0.389568
C197	C	1.055073	-0.338261	-0.946665
C198	C	1.305073	-0.088261	-0.696665
C199	C	1.555073	0.161739	-0.446665
C200	C	1.805073	0.411739	-0.196665
C201	C	1.114959	-0.284182	-0.912935
C202	C	1.364959	-0.034182	-0.662935
C203	C	1.614959	0.215818	-0.412935
C204	C	1.864959	0.465818	-0.162935
C205	C	1.114789	-0.283981	-0.827308
C206	C	1.364789	-0.033981	-0.577308
C207	C	1.614789	0.216019	-0.327308
C208	C	1.864789	0.466019	-0.077308
C209	C	1.055053	-0.338283	-0.798283
C210	C	1.305053	-0.088283	-0.548283
C211	C	1.555053	0.161717	-0.298283
C212	C	1.805053	0.411717	-0.048283
C213	C	0.977940	-0.318168	-0.828446
C214	C	1.227940	-0.068168	-0.578446
C215	C	1.477940	0.181832	-0.328446
C216	C	1.727940	0.431832	-0.078446
C217	C	0.978302	-0.317763	-0.914073
C218	C	1.228302	-0.067763	-0.664073
C219	C	1.478302	0.182237	-0.414073
C220	C	1.728302	0.432237	-0.164073
C221	C	1.071607	-0.412595	-0.918417
C222	C	1.321607	-0.162595	-0.668417
C223	C	1.571607	0.087405	-0.418417
C224	C	1.821607	0.337405	-0.168417
C225	C	1.073336	-0.412216	-0.832750
C226	C	1.323336	-0.162216	-0.582750
C227	C	1.573336	0.087784	-0.332750
C228	C	1.823336	0.337784	-0.082750
C229	C	1.055037	-0.338297	-0.714424
C230	C	1.305037	-0.088297	-0.464424
C231	C	1.555037	0.161703	-0.214424
C232	C	1.805037	0.411703	0.035576
C233	C	1.055084	-0.338246	-1.030523
C234	C	1.305084	-0.088246	-0.780523
C235	C	1.555084	0.161754	-0.530523
C236	C	1.805084	0.411754	-0.280523
C237	C	1.054963	-0.338410	-0.179693
C238	C	1.304963	-0.088410	0.070307
C239	C	1.554963	0.161590	0.320307
C240	C	1.804963	0.411590	0.570307
C241	C	1.055095	-0.338239	-0.097372
C242	C	1.305095	-0.088239	0.152628
C243	C	1.555095	0.161761	0.402628
C244	C	1.805095	0.411761	0.652628
H245	H	0.615775	-0.428611	-0.298129
H246	H	0.865775	-0.178611	-0.048129
H247	H	1.115775	0.071389	0.201871
H248	H	1.365775	0.321389	0.451871
H249	H	0.956912	-0.605752	-0.469948
H250	H	1.206912	-0.355752	-0.219948
H251	H	1.456912	-0.105752	0.030052
H252	H	1.706912	0.144248	0.280052
H253	H	0.619084	-0.354780	-0.495534
H254	H	0.869084	-0.104780	-0.245534
H255	H	1.119084	0.145220	0.004466
H256	H	1.369084	0.395220	0.254466
H257	H	0.491568	-0.359323	-0.493894
H258	H	0.741568	-0.109323	-0.243894
H259	H	0.991568	0.140677	0.006106
H260	H	1.241568	0.390677	0.256106
H261	H	0.932253	-0.356344	-0.809778
H262	H	1.182253	-0.106344	-0.559778
H263	H	1.432253	0.143656	-0.309778
H264	H	1.682253	0.393656	-0.059778
H265	H	0.494417	-0.266592	-0.466691
H266	H	0.744417	-0.016592	-0.216691
H267	H	0.994417	0.233408	0.033309
H268	H	1.244417	0.483408	0.283309
H269	H	0.950978	-0.738828	-0.475953
H270	H	1.200978	-0.488828	-0.225953
H271	H	1.450978	-0.238828	0.024047
H272	H	1.700978	0.011172	0.274047
Cl273	Cl	0.907338	-0.375917	-0.948654
Cl274	Cl	1.157338	-0.125917	-0.698654
Cl275	Cl	1.407338	0.124083	-0.448654
Cl276	Cl	1.657338	0.374083	-0.198654
H277	H	0.981207	-1.070323	-0.445978
H278	H	1.231207	-0.820323	-0.195978
H279	H	1.481207	-0.570323	0.054022
H280	H	1.731207	-0.320323	0.304022
Cl281	Cl	0.486978	-0.198917	-0.329329
Cl282	Cl	0.736978	0.051083	-0.079329
Cl283	Cl	0.986978	0.301083	0.170671
Cl284	Cl	1.236978	0.551083	0.420671
H285	H	0.963896	-0.263426	-0.931622
H286	H	1.213896	-0.013426	-0.681622
H287	H	1.463896	0.236574	-0.431622
H288	H	1.713896	0.486574	-0.181622
H289	H	0.624037	-0.229168	-0.323405
H290	H	0.874037	0.020832	-0.073405
H291	H	1.124037	0.270832	0.176595
H292	H	1.374037	0.520832	0.426595
Cl293	Cl	1.138395	-0.809359	-0.288875
Cl294	Cl	1.388395	-0.559359	-0.038875
Cl295	Cl	1.638395	-0.309359	0.211125
Cl296	Cl	1.888395	-0.059359	0.461125
Cl297	Cl	0.480783	-0.302856	-0.224423
Cl298	Cl	0.730783	-0.052856	0.025577
Cl299	Cl	0.980783	0.197144	0.275577
Cl300	Cl	1.230783	0.447144	0.525577
Cl301	Cl	0.966876	-0.921015	-0.460190
Cl302	Cl	1.216876	-0.671015	-0.210190
Cl303	Cl	1.466876	-0.421015	0.039810
Cl304	Cl	1.716876	-0.171015	0.289810
H305	H	1.027952	-0.452890	-0.940473
H306	H	1.277952	-0.202890	-0.690473
H307	H	1.527952	0.047110	-0.440473
H308	H	1.777952	0.297110	-0.190473
H309	H	0.620426	-0.296469	-0.254968
H310	H	0.870426	-0.046469	-0.004968
H311	H	1.120426	0.203531	0.245032
H312	H	1.370426	0.453531	0.495032
Cl313	Cl	1.098297	-0.198962	-0.791874
Cl314	Cl	1.348297	0.051038	-0.541874
Cl315	Cl	1.598297	0.301038	-0.291874
Cl316	Cl	1.848297	0.551038	-0.041874
Cl317	Cl	1.150567	-0.589518	-0.276565
Cl318	Cl	1.400567	-0.339518	-0.026565
Cl319	Cl	1.650567	-0.089518	0.223435
Cl320	Cl	1.900567	0.160482	0.473435
H321	H	0.488730	-0.428031	-0.297088
H322	H	0.738730	-0.178031	-0.047088
H323	H	0.988730	0.071969	0.202912
H324	H	1.238730	0.321969	0.452912
Cl325	Cl	0.971670	-0.866729	-0.455361
Cl326	Cl	1.221670	-0.616729	-0.205361
Cl327	Cl	1.471670	-0.366729	0.044639
Cl328	Cl	1.721670	-0.116729	0.294639
H329	H	1.159083	-0.937255	-0.268275
H330	H	1.409083	-0.687255	-0.018275
H331	H	1.659083	-0.437255	0.231725
H332	H	1.909083	-0.187255	0.481725
Cl333	Cl	0.955183	-0.235204	-0.791628
Cl334	Cl	1.205183	0.014796	-0.541628
Cl335	Cl	1.455183	0.264796	-0.291628
Cl336	Cl	1.705183	0.514796	-0.041628
H337	H	1.172074	-0.296579	-0.806871
H338	H	1.422074	-0.046579	-0.556871
H339	H	1.672074	0.203421	-0.306871
H340	H	1.922074	0.453421	-0.056871
Cl341	Cl	1.156666	-0.440841	-0.953049
Cl342	Cl	1.406666	-0.190841	-0.703049
Cl343	Cl	1.656666	0.059159	-0.453049
Cl344	Cl	1.906666	0.309159	-0.203049
H345	H	1.172441	-0.296624	-0.934101
H346	H	1.422441	-0.046624	-0.684101
H347	H	1.672441	0.203376	-0.434101
H348	H	1.922441	0.453376	-0.184101
H349	H	1.122922	-0.738825	-0.304268
H350	H	1.372922	-0.488825	-0.054268
H351	H	1.622922	-0.238825	0.195732
H352	H	1.872922	0.011175	0.445732
H353	H	1.130068	-0.427384	-0.813126
H354	H	1.380068	-0.177384	-0.563126
H355	H	1.630068	0.072616	-0.313126
H356	H	1.880068	0.322616	-0.063126
Cl357	Cl	0.474549	-0.476935	-0.417831
Cl358	Cl	0.724549	-0.226935	-0.167831
Cl359	Cl	0.974549	0.023065	0.082169
Cl360	Cl	1.224549	0.273065	0.332169
H361	H	1.032623	-0.454674	-0.813236
H362	H	1.282623	-0.204674	-0.563236
H363	H	1.532623	0.045326	-0.313236
H364	H	1.782623	0.295326	-0.063236
H365	H	1.104431	-0.229422	-0.932012
H366	H	1.354431	0.020578	-0.682012
H367	H	1.604431	0.270578	-0.432012
H368	H	1.854431	0.520578	-0.182012
H369	H	0.622122	-0.263511	-0.462816
H370	H	0.872122	-0.013511	-0.212816
H371	H	1.122122	0.236489	0.037184
H372	H	1.372122	0.486489	0.287184
Cl373	Cl	0.623627	-0.476793	-0.419019
Cl374	Cl	0.873627	-0.226793	-0.169019
Cl375	Cl	1.123627	0.023207	0.080981
Cl376	Cl	1.373627	0.273207	0.330981
H377	H	1.153145	-1.070332	-0.274282
H378	H	1.403145	-0.820332	-0.024282
H379	H	1.653145	-0.570332	0.225718
H380	H	1.903145	-0.320332	0.475718
