data_functionalizedCrystal
_audit_creation_method	'MofGen! by Chris Wilmer'
_symmetry_space_group_name_H-M	'P1'
_symmetry_Int_Tables_number	1
_symmetry_cell_setting	triclinic
loop_
_symmetry_equiv_pos_as_xyz
  x,y,z
_cell_length_a	19.288859
_cell_length_b	15.021413
_cell_length_c	15.944480
_cell_angle_alpha	90.007499
_cell_angle_beta	96.698213
_cell_angle_gamma	89.994045
loop_
_atom_site_label
_atom_site_type_symbol
_atom_site_fract_x
_atom_site_fract_y
_atom_site_fract_z
O1	O	0.921594	0.074038	-0.104755
O2	O	0.719367	0.074034	-0.118896
O3	O	0.826029	0.074044	0.010475
O4	O	0.814933	0.074028	-0.234126
O5	O	0.826041	-0.074020	0.010467
O6	O	0.719380	-0.074030	-0.118904
O7	O	0.921607	-0.074026	-0.104763
Zn8	Zn	0.820495	-0.097537	-0.111835
Zn9	Zn	0.820479	0.097544	-0.111824
O10	O	0.814945	-0.074036	-0.234134
C11	C	0.693496	0.000002	-0.118446
C12	C	0.616389	0.000001	-0.117083
N13	N	0.820511	-0.230674	-0.111842
C14	C	0.052510	-0.000002	-0.183769
C15	C	0.124959	0.000003	-0.185058
C16	C	0.169482	0.000006	-0.109149
C17	C	0.141550	0.000027	-0.031946
C18	C	0.069101	0.000032	-0.030660
C19	C	0.290619	-0.051867	-0.052539
C20	C	0.363066	-0.051877	-0.053828
C21	C	0.392937	-0.000004	-0.113112
C22	C	0.350351	0.051868	-0.171121
C23	C	0.277903	0.051873	-0.169835
C24	C	0.248041	0.000002	-0.110535
C25	C	0.499419	-0.000014	-0.191707
C26	C	0.571871	-0.000004	-0.192993
C27	C	0.588460	0.000012	-0.039878
C28	C	0.516010	0.000011	-0.038595
C29	C	0.471494	-0.000006	-0.114512
C30	C	0.869841	-0.470329	-0.052007
C31	C	0.807081	-0.529658	-0.035932
C32	C	0.820495	-0.412281	-0.111831
C33	C	0.883240	-0.529694	-0.127856
C34	C	0.820485	-0.587705	-0.111819
C35	C	0.757704	-0.470303	-0.095719
C36	C	0.833903	-0.470335	-0.187676
C37	C	0.771098	-0.529637	-0.171634
C38	C	0.820502	-0.311224	-0.111836
C39	C	0.820471	-0.688760	-0.111815
C40	C	0.947478	0.000008	-0.105213
C41	C	1.024585	0.000014	-0.106577
C42	C	0.825583	0.000016	0.041764
C43	C	0.824228	0.000027	0.135008
N44	N	0.820468	0.230682	-0.111811
C45	C	0.887017	0.000013	0.371013
C46	C	0.853158	0.073015	0.421454
C47	C	0.821717	0.000017	0.305720
C48	C	0.853155	-0.072965	0.421422
C49	C	0.819297	0.000003	0.470621
C50	C	0.787875	0.073080	0.354933
C51	C	0.787882	-0.072965	0.354898
C52	C	0.753974	0.000055	0.405306
C53	C	0.823113	0.000026	0.210725
C54	C	0.817895	0.000001	0.565614
C55	C	0.815400	-0.000005	0.734578
C56	C	0.816784	-0.000008	0.641339
H57	H	0.016268	-0.000012	-0.245587
C58	C	0.383204	0.108937	-0.236337
N59	N	0.407952	0.151919	-0.285456
H60	H	0.845273	-0.444257	-0.251801
H61	H	0.936306	-0.555782	-0.141416
H62	H	0.729318	-0.555513	-0.222223
H63	H	0.943262	0.000087	0.355602
H64	H	0.880730	0.134735	0.450510
C65	C	0.750642	0.156554	0.315863
N66	N	0.722602	0.219428	0.286434
H67	H	0.697686	0.000094	0.420553
H68	H	0.760334	-0.134687	0.325827
C69	C	0.926156	-0.435141	0.016376
N70	N	0.968568	-0.408636	0.067883
C71	C	0.409903	-0.108939	0.009981
N72	N	0.445180	-0.151918	0.058044
H73	H	0.880751	-0.134678	0.450457
H74	H	0.795731	-0.555717	0.028213
H75	H	0.463172	-0.000026	-0.253524
H76	H	0.147700	-0.000019	-0.247919
H77	H	0.046367	0.000045	0.032202
H78	H	0.243232	0.094110	-0.217067
H79	H	0.594604	-0.000010	-0.255855
C80	C	0.485292	0.000010	0.046324
N81	N	0.462156	0.000008	0.110289
C82	C	0.637431	0.000018	0.043623
N83	N	0.674320	0.000025	0.106518
C84	C	0.685999	-0.435211	-0.077291
N85	N	0.631994	-0.408778	-0.063406
H86	H	0.266305	-0.094111	-0.004258
H87	H	0.177805	0.000033	0.029860
