data_functionalizedCrystal
_audit_creation_method	'MofGen! by Chris Wilmer'
_symmetry_space_group_name_H-M	'P1'
_symmetry_Int_Tables_number	1
_symmetry_cell_setting	triclinic
loop_
_symmetry_equiv_pos_as_xyz
  x,y,z
_cell_length_a	12.759401
_cell_length_b	12.827892
_cell_length_c	12.759393
_cell_angle_alpha	90.029782
_cell_angle_beta	90.019676
_cell_angle_gamma	90.015818
loop_
_atom_site_label
_atom_site_type_symbol
_atom_site_fract_x
_atom_site_fract_y
_atom_site_fract_z
Zn1	Zn	1.606261	-0.415971	0.593990
Zn2	Zn	1.606150	-0.590748	0.418312
Zn3	Zn	1.430560	-0.416023	0.418329
Zn4	Zn	1.430550	-0.590672	0.593953
O5	O	1.518380	-0.503353	0.506146
O6	O	1.753268	-0.439165	0.570694
O7	O	1.582816	-0.567624	0.271293
O8	O	1.453918	-0.269780	0.441653
O9	O	1.753186	-0.567573	0.441625
O10	O	1.583005	-0.269741	0.570710
O11	O	1.453810	-0.439254	0.271306
O12	O	1.283538	-0.439180	0.441618
O13	O	1.453900	-0.567443	0.740979
O14	O	1.283530	-0.567494	0.570648
O15	O	1.582995	-0.439091	0.741006
O16	O	1.582806	-0.736974	0.441589
O17	O	1.453793	-0.736918	0.570632
C18	C	1.245413	-0.503335	0.506131
C19	C	1.128636	-0.503353	0.506150
C20	C	1.073817	-0.436611	0.573460
C21	C	0.964093	-0.436622	0.573467
C22	C	0.964017	-0.570124	0.438851
C23	C	1.073739	-0.570108	0.438839
C24	C	1.518315	-0.774863	0.506128
C25	C	1.518383	-0.891016	0.506155
C26	C	1.582298	-0.942794	0.442371
C27	C	1.582370	-1.062844	0.442398
C28	C	1.792414	-0.503372	0.506162
C29	C	1.909190	-0.503380	0.506168
C30	C	1.518459	-0.503253	0.780180
C31	C	1.518492	-0.503210	0.896956
C32	C	1.518475	-0.230783	0.506188
C33	C	1.518515	-0.114630	0.506205
C34	C	1.518362	-0.503378	0.233179
C35	C	1.518533	-0.503126	0.116403
C36	C	1.585717	-0.436367	0.951834
C37	C	1.585735	-0.436322	1.061558
C38	C	1.451301	-0.569973	1.061517
C39	C	1.451278	-0.570012	0.951795
H40	H	0.919465	-0.382273	0.628276
C41	C	1.377376	-0.643460	1.121843
C42	C	1.377401	-0.643426	1.242533
C43	C	1.303477	-0.716917	1.302855
C44	C	1.229529	-0.790443	1.242488
C45	C	1.229501	-0.790480	1.121791
C46	C	1.303425	-0.716988	1.061469
H47	H	1.432145	-0.588995	1.287226
H48	H	1.303498	-0.716890	1.392203
H49	H	1.174806	-0.844846	1.287142
H50	H	1.174758	-0.844910	1.077098
H51	H	1.303404	-0.717016	0.972120
H52	H	1.637087	-1.107372	0.387788
C53	C	1.134205	-0.363172	0.647490
C54	C	1.209625	-0.281064	0.602095
C55	C	1.270008	-0.207619	0.676124
C56	C	1.254971	-0.216282	0.795547
C57	C	1.179547	-0.298394	0.840948
C58	C	1.119164	-0.371839	0.766919
H59	H	1.220760	-0.274648	0.513686
H60	H	1.325842	-0.146835	0.642515
H61	H	1.299670	-0.161914	0.850348
H62	H	1.168412	-0.304810	0.929357
H63	H	1.063330	-0.432624	0.800528
C64	C	1.656157	-0.882627	0.368568
C65	C	1.775610	-0.897426	0.377236
C66	C	1.849473	-0.837264	0.303430
C67	C	1.803881	-0.762303	0.220955
C68	C	1.684421	-0.747501	0.212283
C69	C	1.610559	-0.807663	0.286090
H70	H	1.809365	-0.952920	0.438292
H71	H	1.937905	-0.848222	0.309850
H72	H	1.858558	-0.717767	0.166319
H73	H	1.650666	-0.692007	0.151228
H74	H	1.522127	-0.796705	0.279670
C75	C	1.659686	-0.362796	1.121925
C76	C	1.614209	-0.280714	1.197357
C77	C	1.688162	-0.207184	1.257724
C78	C	1.807592	-0.215736	1.242659
C79	C	1.853075	-0.297821	1.167223
C80	C	1.779122	-0.371351	1.106856
H81	H	1.525794	-0.274381	1.208513
H82	H	1.654492	-0.146420	1.313567
H83	H	1.862337	-0.161305	1.287346
H84	H	1.941490	-0.304155	1.156067
H85	H	1.812792	-0.432116	1.051013
H86	H	1.463788	-1.070110	0.560812
H87	H	1.463720	-0.935564	0.560786
H88	H	1.396529	-0.624443	0.907113
H89	H	0.919306	-0.624475	0.384050
C90	C	1.659642	-0.362879	0.891509
C91	C	1.651108	-0.244075	0.906613
C92	C	1.725032	-0.170582	0.846292
C93	C	1.807489	-0.215894	0.770867
C94	C	1.816026	-0.334704	0.755760
C95	C	1.742102	-0.408197	0.816081
H96	H	1.590066	-0.210527	0.962450
H97	H	1.718712	-0.082631	0.857475
H98	H	1.862212	-0.161490	0.726213
H99	H	1.877068	-0.368252	0.699923
H100	H	1.748422	-0.496148	0.804898
H101	H	1.118374	-0.624457	0.384021
