data_functionalizedCrystal
_audit_creation_method	'MofGen! by Chris Wilmer'
_symmetry_space_group_name_H-M	'P1'
_symmetry_Int_Tables_number	1
_symmetry_cell_setting	triclinic
loop_
_symmetry_equiv_pos_as_xyz
  x,y,z
_cell_length_a	16.959455
_cell_length_b	16.959447
_cell_length_c	16.959453
_cell_angle_alpha	89.968429
_cell_angle_beta	90.019746
_cell_angle_gamma	89.979626
loop_
_atom_site_label
_atom_site_type_symbol
_atom_site_fract_x
_atom_site_fract_y
_atom_site_fract_z
Zn1	Zn	1.208369	-0.447029	-0.314729
Zn2	Zn	1.708369	0.052971	0.185271
Zn3	Zn	1.208286	-0.314848	-0.446921
Zn4	Zn	1.708286	0.185152	0.053079
Zn5	Zn	1.076198	-0.314853	-0.314754
Zn6	Zn	1.576198	0.185147	0.185246
Zn7	Zn	1.076156	-0.446973	-0.446862
Zn8	Zn	1.576156	0.053027	0.053138
O9	O	1.142252	-0.380926	-0.380816
O10	O	1.642252	0.119074	0.119184
O11	O	1.318969	-0.429517	-0.332279
O12	O	1.818969	0.070483	0.167721
O13	O	1.190746	-0.204238	-0.429424
O14	O	1.690746	0.295762	0.070576
O15	O	1.093783	-0.332412	-0.204140
O16	O	1.593783	0.167588	0.295860
O17	O	1.318908	-0.332404	-0.429400
O18	O	1.818908	0.167596	0.070600
O19	O	1.190889	-0.429522	-0.204121
O20	O	1.690889	0.070478	0.295879
O21	O	1.093702	-0.204241	-0.332321
O22	O	1.593702	0.295759	0.167679
O23	O	0.965581	-0.332357	-0.332264
O24	O	1.465581	0.167643	0.167736
O25	O	1.093712	-0.557591	-0.429299
O26	O	1.593712	-0.057591	0.070701
O27	O	0.965551	-0.429425	-0.429324
O28	O	1.465551	0.070575	0.070676
O29	O	1.190849	-0.557633	-0.332221
O30	O	1.690849	-0.057633	0.167779
O31	O	1.190706	-0.332349	-0.557524
O32	O	1.690706	0.167651	-0.057524
O33	O	1.093631	-0.429420	-0.557481
O34	O	1.593631	0.070580	-0.057481
C35	C	0.936886	-0.380886	-0.380791
C36	C	1.436886	0.119114	0.119209
C37	C	0.849029	-0.380888	-0.380799
C38	C	1.349029	0.119112	0.119201
C39	C	0.477511	-0.330333	-0.431337
C40	C	0.977511	0.169667	0.068663
C41	C	0.477596	-0.431615	-0.330361
C42	C	0.977596	0.068385	0.169639
C43	C	0.560142	-0.431595	-0.330348
C44	C	1.060142	0.068405	0.169652
C45	C	0.601376	-0.380945	-0.380831
C46	C	1.101376	0.119055	0.119169
C47	C	0.560065	-0.330314	-0.431328
C48	C	1.060065	0.169686	0.068672
C49	C	0.601460	-0.482231	-0.279859
C50	C	1.101460	0.017769	0.220141
C51	C	0.684011	-0.482215	-0.279844
C52	C	1.184011	0.017785	0.220156
C53	C	0.725247	-0.431560	-0.330324
C54	C	1.225247	0.068440	0.169676
C55	C	0.683930	-0.380926	-0.380822
C56	C	1.183930	0.119074	0.119178
C57	C	0.725164	-0.330276	-0.431305
C58	C	1.225164	0.169724	0.068695
C59	C	0.683849	-0.279637	-0.481799
C60	C	1.183849	0.220363	0.018201
C61	C	0.601300	-0.279659	-0.481807
C62	C	1.101300	0.220341	0.018193
C63	C	0.807795	-0.431538	-0.330315
C64	C	1.307795	0.068462	0.169685
C65	C	0.807718	-0.330257	-0.431295
C66	C	1.307718	0.169743	0.068705
C67	C	1.142285	-0.587094	-0.380751
C68	C	1.642285	-0.087094	0.119249
C69	C	1.142299	-0.674951	-0.380723
C70	C	1.642299	-0.174951	0.119277
C71	C	1.091819	-1.046407	-0.431184
C72	C	1.591819	-0.546407	0.068816
C73	C	1.192968	-1.046446	-0.330096
C74	C	1.692968	-0.546446	0.169904
C75	C	1.192947	-0.963900	-0.330113
C76	C	1.692947	-0.463900	0.169887
C77	C	1.142362	-0.922604	-0.380667
C78	C	1.642362	-0.422604	0.119333
C79	C	1.091798	-0.963854	-0.431204
C80	C	1.591798	-0.463854	0.068796
C81	C	1.243516	-0.922644	-0.279582
C82	C	1.743516	-0.422644	0.220418
C83	C	1.243497	-0.840093	-0.279597
C84	C	1.743497	-0.340093	0.220403
C85	C	1.192908	-0.798795	-0.330148
C86	C	1.692908	-0.298795	0.169852
C87	C	1.142341	-0.840050	-0.380687
C88	C	1.642341	-0.340050	0.119313
C89	C	1.091756	-0.798754	-0.431240
C90	C	1.591756	-0.298754	0.068760
C91	C	1.041185	-0.840008	-0.481776
C92	C	1.541185	-0.340008	0.018224
C93	C	1.041209	-0.922556	-0.481754
C94	C	1.541209	-0.422556	0.018246
C95	C	1.192884	-0.716247	-0.330169
C96	C	1.692884	-0.216247	0.169831
C97	C	1.091735	-0.716201	-0.431260
C98	C	1.591735	-0.216201	0.068740
C99	C	1.348420	-0.380966	-0.380843
C100	C	1.848420	0.119034	0.119157
C101	C	1.436277	-0.380983	-0.380854
C102	C	1.936277	0.119017	0.119146
C103	C	1.142176	-0.380895	-0.586183
C104	C	1.642176	0.119105	-0.086183
C105	C	1.142216	-0.380908	-0.674039
C106	C	1.642216	0.119092	-0.174039
C107	C	1.142265	-0.175560	-0.380825
C108	C	1.642265	0.324440	0.119175
C109	C	1.142404	-0.087703	-0.380630
C110	C	1.642404	0.412297	0.119370
C111	C	1.091719	-0.330312	-0.715391
C112	C	1.591719	0.169688	-0.215391
C113	C	1.192747	-0.431522	-0.715241
C114	C	1.692747	0.068478	-0.215241
C115	C	1.192784	-0.431539	-0.797787
C116	C	1.692784	0.068461	-0.297787
C117	C	1.142287	-0.380943	-0.839139
C118	C	1.642287	0.119057	-0.339139
C119	C	1.091753	-0.330329	-0.797945
C120	C	1.591753	0.169671	-0.297945
C121	C	1.243312	-0.482157	-0.838987
C122	C	1.743312	0.017843	-0.338987
C123	C	1.243350	-0.482177	-0.921538
C124	C	1.743350	0.017823	-0.421538
C125	C	1.192856	-0.431576	-0.962891
C126	C	1.692856	0.068424	-0.462891
C127	C	1.142321	-0.380960	-0.921692
C128	C	1.642321	0.119040	-0.421692
C129	C	1.091824	-0.330364	-0.963044
C130	C	1.591824	0.169636	-0.463044
C131	C	1.041291	-0.279743	-0.921846
C132	C	1.541291	0.220257	-0.421846
C133	C	1.041259	-0.279728	-0.839298
C134	C	1.541259	0.220272	-0.339298
C135	C	1.192889	-0.431591	-1.045440
C136	C	1.692889	0.068409	-0.545440
C137	C	1.091857	-0.330381	-1.045598
C138	C	1.591857	0.169619	-0.545598
C139	C	1.142350	-0.380974	-0.174648
C140	C	1.642350	0.119026	0.325352
C141	C	1.142391	-0.380995	-0.086792
C142	C	1.642391	0.119005	0.413208
H143	H	0.567654	-0.238432	-0.522917
H144	H	1.067654	0.261568	-0.022917
H145	H	1.050643	-1.080000	-0.472326
H146	H	1.550643	-0.580000	0.027674
H147	H	1.233857	-0.472720	-0.681570
H148	H	1.733857	0.027280	-0.181570
Cl149	Cl	1.028199	-0.266675	-0.663603
Cl150	Cl	1.528199	0.233325	-0.163603
H151	H	0.567881	-0.523473	-0.238763
H152	H	1.067881	-0.023473	0.261237
H153	H	1.234156	-1.080074	-0.288941
H154	H	1.734156	-0.580074	0.211059
H155	H	1.234060	-0.682662	-0.289026
H156	H	1.734060	-0.182662	0.210974
Cl157	Cl	1.307109	-0.974562	-0.216039
Cl158	Cl	1.807109	-0.474562	0.283961
H159	H	1.284675	-0.806511	-0.238448
H160	H	1.784675	-0.306511	0.261552
H161	H	0.841285	-0.289008	-0.472402
H162	H	1.341285	0.210992	0.027598
H163	H	0.717432	-0.238402	-0.522907
H164	H	1.217432	0.261598	-0.022907
H165	H	1.000002	-0.806374	-0.522940
H166	H	1.500002	-0.306374	-0.022940
H167	H	1.050738	-0.289176	-1.079260
H168	H	1.550738	0.210824	-0.579260
H169	H	1.284421	-0.523355	-0.805316
H170	H	1.784421	-0.023355	-0.305316
H171	H	1.000173	-0.238551	-0.955526
H172	H	1.500173	0.261449	-0.455526
Cl173	Cl	0.977644	-0.974422	-0.545282
Cl174	Cl	1.477644	-0.474422	-0.045282
H175	H	1.000117	-0.238515	-0.805750
H176	H	1.500117	0.261485	-0.305750
H177	H	1.284498	-0.523394	-0.955074
H178	H	1.784498	-0.023394	-0.455074
H179	H	0.443869	-0.289103	-0.472446
H180	H	0.943869	0.210897	0.027554
Cl181	Cl	0.425759	-0.495294	-0.266909
Cl182	Cl	0.925759	0.004706	0.233091
H183	H	1.234021	-0.472816	-1.078979
H184	H	1.734021	0.027184	-0.578979
H185	H	0.841430	-0.472768	-0.289205
H186	H	1.341430	0.027232	0.210795
Cl187	Cl	0.735943	-0.545871	-0.216366
Cl188	Cl	1.235943	-0.045871	0.283634
H189	H	1.050535	-0.682583	-0.472421
H190	H	1.550535	-0.182583	0.027579
