data_functionalizedCrystal
_audit_creation_method	'MofGen! by Chris Wilmer'
_symmetry_space_group_name_H-M	'P1'
_symmetry_Int_Tables_number	1
_symmetry_cell_setting	triclinic
loop_
_symmetry_equiv_pos_as_xyz
  x,y,z
_cell_length_a	14.519709
_cell_length_b	10.723022
_cell_length_c	12.996460
_cell_angle_alpha	89.993696
_cell_angle_beta	89.999167
_cell_angle_gamma	84.073685
loop_
_atom_site_label
_atom_site_type_symbol
_atom_site_fract_x
_atom_site_fract_y
_atom_site_fract_z
O1	O	0.129336	1.655985	-0.085563
O2	O	0.629336	2.155985	0.414437
O3	O	0.141718	1.292716	-0.085566
O4	O	0.641718	1.792716	0.414434
O5	O	0.001338	1.483982	-0.085555
O6	O	0.501338	1.983982	0.414445
O7	O	0.269716	1.464719	-0.085574
O8	O	0.769716	1.964719	0.414426
O9	O	0.001347	1.483956	0.085579
O10	O	0.501347	1.983956	0.585579
O11	O	0.141728	1.292690	0.085567
O12	O	0.641728	1.792690	0.585567
O13	O	0.129345	1.655959	0.085571
O14	O	0.629345	2.155959	0.585571
Cu15	Cu	0.135537	1.474322	0.101195
Cu16	Cu	0.635537	1.974322	0.601195
Cu17	Cu	0.135526	1.474353	-0.101190
Cu18	Cu	0.635526	1.974353	0.398810
O19	O	0.269726	1.464693	0.085560
O20	O	0.769726	1.964693	0.585560
C21	C	0.140822	1.246212	0.000000
C22	C	0.640822	1.746212	0.500000
C23	C	0.138127	1.107683	-0.000001
C24	C	0.638127	1.607683	0.499999
C25	C	-0.033022	1.483071	0.000012
C26	C	0.466978	1.983071	0.500012
C27	C	-0.135417	1.480381	0.000012
C28	C	0.364583	1.980381	0.500012
C29	C	0.057174	1.059879	0.000004
C30	C	0.557174	1.559879	0.500004
C31	C	0.054387	0.916702	0.000003
C32	C	0.554387	1.416702	0.500003
C33	C	-0.510363	1.470477	-0.000014
C34	C	-0.010363	1.970477	0.499986
C35	C	-0.406041	1.473228	-0.000007
C36	C	0.093959	1.973228	0.499993
C37	C	-0.322894	1.475429	0.000000
C38	C	0.177106	1.975429	0.500000
C39	C	-0.218565	1.478180	0.000006
C40	C	0.281435	1.978180	0.500006
C41	C	0.304085	1.465604	-0.000009
C42	C	0.804085	1.965604	0.499991
C43	C	0.406480	1.468294	-0.000017
C44	C	0.906480	1.968294	0.499983
C45	C	0.130241	1.702463	0.000002
C46	C	0.630241	2.202463	0.500002
C47	C	0.132936	1.840992	-0.000003
C48	C	0.632936	2.340992	0.499997
N49	N	0.135544	1.474310	0.243542
N50	N	0.635544	1.974310	0.743542
C51	C	0.135547	1.474314	0.336648
C52	C	0.635547	1.974314	0.836648
C53	C	0.135542	1.474325	0.453453
C54	C	0.635542	1.974325	0.953453
C55	C	0.135532	1.474340	0.546552
C56	C	0.635532	1.974340	1.046552
C57	C	0.135528	1.474352	0.663364
C58	C	0.635528	1.974352	1.163364
N59	N	0.135519	1.474367	0.756463
N60	N	0.635519	1.974367	1.256463
H61	H	-0.014924	0.875538	-0.000019
H62	H	0.485076	1.375538	0.499981
C63	C	-0.037203	1.223462	-0.087960
C64	C	0.462797	1.723462	0.412040
C65	C	-0.033605	1.147716	0.000011
C66	C	0.466395	1.647716	0.500011
H67	H	-0.093246	1.277692	-0.087951
H68	H	0.406754	1.777692	0.412049
H69	H	-0.034762	1.172085	-0.147627
H70	H	0.465238	1.672085	0.352373
H71	H	0.013954	1.271997	-0.087954
H72	H	0.513954	1.771997	0.412046
H73	H	-0.084758	1.099174	0.000000
H74	H	0.415242	1.599174	0.500000
H75	H	-0.036056	1.199099	0.059693
H76	H	0.463944	1.699099	0.559693
C77	C	0.233020	0.970505	-0.087995
C78	C	0.733020	1.470505	0.412005
C79	C	0.226516	0.896534	-0.000018
C80	C	0.726516	1.396534	0.499982
H81	H	0.290795	1.004792	-0.088007
H82	H	0.790795	1.504792	0.411993
H83	H	0.184110	1.036561	-0.087979
H84	H	0.684110	1.536561	0.412021
H85	H	0.228579	0.920319	-0.147664
H86	H	0.728579	1.420319	0.352336
H87	H	0.230950	0.946722	0.059652
H88	H	0.730950	1.446722	0.559652
H89	H	0.275439	0.830469	-0.000025
H90	H	0.775439	1.330469	0.499975
H91	H	0.205370	1.042612	-0.000010
H92	H	0.705370	1.542612	0.499990
