data_functionalizedCrystal
_audit_creation_method	'MofGen! by Chris Wilmer'
_symmetry_space_group_name_H-M	'P1'
_symmetry_Int_Tables_number	1
_symmetry_cell_setting	triclinic
loop_
_symmetry_equiv_pos_as_xyz
  x,y,z
_cell_length_a	14.519709
_cell_length_b	14.421503
_cell_length_c	14.519709
_cell_angle_alpha	89.999403
_cell_angle_beta	83.680145
_cell_angle_gamma	89.987312
loop_
_atom_site_label
_atom_site_type_symbol
_atom_site_fract_x
_atom_site_fract_y
_atom_site_fract_z
O1	O	1.223853	0.076993	0.120884
O2	O	1.557186	0.410326	0.454218
O3	O	1.890519	0.743660	0.787551
O4	O	0.955376	0.077022	0.135121
O5	O	1.288709	0.410355	0.468454
O6	O	1.622043	0.743688	0.801788
O7	O	1.096733	0.076998	-0.006236
O8	O	1.430066	0.410331	0.327098
O9	O	1.763399	0.743665	0.660431
O10	O	1.082496	0.077016	0.262241
O11	O	1.415829	0.410350	0.595574
O12	O	1.749163	0.743683	0.928908
O13	O	1.096750	-0.077225	-0.006227
O14	O	1.430083	0.256108	0.327107
O15	O	1.763416	0.589441	0.660440
O16	O	0.955393	-0.077202	0.135130
O17	O	1.288726	0.256131	0.468463
O18	O	1.622060	0.589465	0.801797
O19	O	1.223870	-0.077230	0.120894
O20	O	1.557203	0.256103	0.454227
O21	O	1.890537	0.589436	0.787560
Cu22	Cu	1.089633	-0.091298	0.128013
Cu23	Cu	1.422966	0.242035	0.461346
Cu24	Cu	1.756300	0.575369	0.794679
Cu25	Cu	1.089613	0.091089	0.128002
Cu26	Cu	1.422946	0.424422	0.461335
Cu27	Cu	1.756279	0.757756	0.794669
O28	O	1.082513	-0.077207	0.262250
O29	O	1.415847	0.256126	0.595584
O30	O	1.749180	0.589460	0.928917
C31	C	0.921025	-0.000087	0.134462
C32	C	1.254358	0.333247	0.467795
C33	C	1.587691	0.666580	0.801129
C34	C	0.818643	-0.000076	0.132474
C35	C	1.151977	0.333257	0.465807
C36	C	1.485310	0.666591	0.799141
N37	N	1.089654	-0.219579	0.128020
N38	N	1.422987	0.113754	0.461353
N39	N	1.756321	0.447087	0.794686
C40	C	0.443748	-0.000119	0.125154
C41	C	0.777081	0.333215	0.458488
C42	C	1.110414	0.666548	0.791821
C43	C	0.548056	-0.000106	0.127187
C44	C	0.881389	0.333227	0.460520
C45	C	1.214722	0.666560	0.793854
C46	C	0.631192	-0.000096	0.128814
C47	C	0.964526	0.333237	0.462147
C48	C	1.297859	0.666570	0.795481
C49	C	0.735507	-0.000086	0.130847
C50	C	1.068840	0.333247	0.464180
C51	C	1.402173	0.666581	0.797514
C52	C	1.155032	-0.469219	0.062642
C53	C	1.488365	-0.135886	0.395975
C54	C	1.821698	0.197448	0.729309
C55	C	1.071670	-0.531008	0.044594
C56	C	1.405003	-0.197675	0.377927
C57	C	1.738337	0.135658	0.711261
C58	C	1.089634	-0.408741	0.128009
C59	C	1.422967	-0.075407	0.461342
C60	C	1.756300	0.257926	0.794675
C61	C	1.172975	-0.531045	0.146003
C62	C	1.506309	-0.197712	0.479336
C63	C	1.839642	0.135621	0.812669
C64	C	1.089621	-0.591462	0.127996
C65	C	1.422955	-0.258129	0.461329
C66	C	1.756288	0.075205	0.794662
C67	C	1.006230	-0.469169	0.109919
C68	C	1.339563	-0.135836	0.443253
C69	C	1.672897	0.197497	0.776586
C70	C	1.107590	-0.469201	0.211364
C71	C	1.440923	-0.135867	0.544698
C72	C	1.774257	0.197466	0.878031
C73	C	1.024168	-0.530962	0.193352
C74	C	1.357502	-0.197629	0.526685
C75	C	1.690835	0.135704	0.860018
C76	C	1.089642	-0.303480	0.128014
C77	C	1.422975	0.029854	0.461347
C78	C	1.756309	0.363187	0.794680
C79	C	1.089603	-0.696721	0.127991
C80	C	1.422936	-0.363388	0.461325
C81	C	1.756270	-0.030054	0.794658
C82	C	1.258221	-0.000120	0.121553
C83	C	1.591555	0.333213	0.454886
C84	C	1.924888	0.666546	0.788219
C85	C	1.360602	-0.000125	0.123541
C86	C	1.693936	0.333208	0.456874
C87	C	2.027269	0.666542	0.790207
C88	C	1.096078	-0.000114	-0.040591
C89	C	1.429411	0.333220	0.292742
C90	C	1.762744	0.666553	0.626076
C91	C	1.094090	-0.000114	-0.142972
C92	C	1.427423	0.333219	0.190361
C93	C	1.760756	0.666553	0.523694
N94	N	1.089599	0.219370	0.127987
N95	N	1.422932	0.552704	0.461321
N96	N	1.756266	0.886037	0.794654
C97	C	1.086770	-0.000089	-0.517868
C98	C	1.420103	0.333244	-0.184535
C99	C	1.753437	0.666578	0.148799
C100	C	1.088803	-0.000096	-0.413560
C101	C	1.422136	0.333237	-0.080227
C102	C	1.755469	0.666570	0.253107
C103	C	1.090430	-0.000102	-0.330423
C104	C	1.423763	0.333231	0.002910
C105	C	1.757096	0.666564	0.336243
C106	C	1.092463	-0.000108	-0.226109
C107	C	1.425796	0.333225	0.107224
C108	C	1.759129	0.666559	0.440558
C109	C	1.083168	-0.000093	0.296606
C110	C	1.416502	0.333240	0.629939
C111	C	1.749835	0.666573	0.963272
C112	C	1.085156	-0.000087	0.398987
C113	C	1.418490	0.333246	0.732320
C114	C	1.751823	0.666580	1.065653
H115	H	1.210278	-0.442108	0.007333
H116	H	1.543611	-0.108774	0.340666
H117	H	1.876945	0.224559	0.673999
H118	H	1.122816	-0.442031	0.281840
H119	H	1.456149	-0.108698	0.615173
H120	H	1.789483	0.224636	0.948506
F121	F	0.914078	-0.433797	0.089912
F122	F	1.247411	-0.100464	0.423245
F123	F	1.580745	0.232869	0.756578
F124	F	0.951798	-0.566176	0.265603
F125	F	1.285131	-0.232843	0.598936
F126	F	1.618465	0.100491	0.932270
H127	H	1.056470	-0.558158	-0.025903
H128	H	1.389804	-0.224825	0.307430
H129	H	1.723137	0.108508	0.640764
F130	F	1.265104	-0.566575	0.165902
F131	F	1.598437	-0.233242	0.499236
F132	F	1.931770	0.100092	0.832569
