data_functionalizedCrystal
_audit_creation_method	'MofGen! by Chris Wilmer'
_symmetry_space_group_name_H-M	'P1'
_symmetry_Int_Tables_number	1
_symmetry_cell_setting	triclinic
loop_
_symmetry_equiv_pos_as_xyz
  x,y,z
_cell_length_a	12.594517
_cell_length_b	12.594516
_cell_length_c	11.169409
_cell_angle_alpha	89.967028
_cell_angle_beta	89.974890
_cell_angle_gamma	90.011248
loop_
_atom_site_label
_atom_site_type_symbol
_atom_site_fract_x
_atom_site_fract_y
_atom_site_fract_z
Zn1	Zn	1.627329	-0.423673	-0.678683
Zn2	Zn	1.627224	-0.601699	-0.477997
Zn3	Zn	1.449324	-0.423733	-0.478001
Zn4	Zn	1.449328	-0.601608	-0.678626
O5	O	1.538301	-0.512678	-0.578327
O6	O	1.776261	-0.447301	-0.652083
O7	O	1.603579	-0.578154	-0.310048
O8	O	1.472979	-0.274779	-0.504647
O9	O	1.776183	-0.578096	-0.504640
O10	O	1.603758	-0.274735	-0.652087
O11	O	1.472877	-0.447404	-0.310051
O12	O	1.300378	-0.447315	-0.504592
O13	O	1.472986	-0.577941	-0.846583
O14	O	1.300382	-0.577999	-0.651991
O15	O	1.603762	-0.447213	-0.846625
O16	O	1.603583	-0.750632	-0.504586
O17	O	1.472884	-0.750566	-0.651987
C18	C	1.261760	-0.512655	-0.578286
C19	C	1.143455	-0.512671	-0.578298
C20	C	1.538252	-0.789219	-0.578306
C21	C	1.538328	-0.907524	-0.578337
C22	C	1.003405	-0.441513	-0.498311
C23	C	1.074267	-0.415572	-0.607829
C24	C	1.074165	-0.538565	-0.468791
C25	C	1.003531	-0.486720	-0.687962
C26	C	1.003422	-0.609758	-0.548850
C27	C	1.074252	-0.583853	-0.658444
C28	C	1.609498	-0.976775	-0.498251
C29	C	1.635513	-1.047463	-0.607796
C30	C	1.512446	-1.047635	-0.468862
C31	C	1.564393	-0.976654	-0.687940
C32	C	1.441280	-0.976820	-0.548931
C33	C	1.467259	-1.047476	-0.658552
C34	C	1.815922	-0.512702	-0.578368
C35	C	1.934227	-0.512712	-0.578385
C36	C	1.538386	-0.512560	-0.891369
C37	C	1.538423	-0.512510	-1.024769
C38	C	1.538380	-0.235057	-0.578374
C39	C	1.538413	-0.116752	-0.578394
C40	C	1.538277	-0.512719	-0.266502
C41	C	1.538447	-0.512469	-0.133102
H42	H	0.972302	-0.381275	-0.430716
H43	H	1.717621	-1.078497	-0.632700
H44	H	1.407109	-1.078324	-0.726381
O45	O	1.590701	-0.939449	-0.798366
C46	C	1.590355	-0.827508	-0.796996
H47	H	1.602223	-0.798269	-0.701360
H48	H	1.511107	-0.797224	-0.832551
C49	C	1.666420	-0.821549	-0.994122
C50	C	1.681006	-0.785637	-0.876661
H51	H	1.722334	-0.795719	-1.043267
H52	H	1.666650	-0.896965	-0.995047
H53	H	1.600377	-0.796309	-1.023734
H54	H	1.747042	-0.810888	-0.847046
H55	H	1.680790	-0.710223	-0.875733
O56	O	1.343388	-0.939809	-0.518977
C57	C	1.316348	-0.975937	-0.403416
H58	H	1.391804	-0.995811	-0.351722
H59	H	1.264737	-1.050004	-0.410956
C60	C	1.161924	-0.864091	-0.400318
C61	C	1.254601	-0.888492	-0.336824
H62	H	1.123831	-0.810154	-0.359241
H63	H	1.180138	-0.839754	-0.478176
H64	H	1.118928	-0.925821	-0.406597
H65	H	1.297601	-0.826767	-0.330559
H66	H	1.236392	-0.912817	-0.258963
H67	H	1.490519	-1.078812	-0.376256
H68	H	0.972632	-0.464741	-0.780634
O69	O	1.111352	-0.317581	-0.637399
C70	C	1.075239	-0.242770	-0.552818
H71	H	1.055311	-0.285017	-0.465355
H72	H	1.001209	-0.201501	-0.588621
C73	C	1.187193	-0.107846	-0.637630
C74	C	1.162725	-0.159732	-0.530204
H75	H	1.241155	-0.056621	-0.623683
H76	H	1.211520	-0.158245	-0.694617
H77	H	1.125494	-0.073463	-0.667455
H78	H	1.224420	-0.194125	-0.500388
H79	H	1.138410	-0.109337	-0.473210
O80	O	0.966394	-0.707742	-0.519187
C81	C	1.004042	-0.782901	-0.602516
H82	H	1.079150	-0.751370	-0.647088
H83	H	0.940731	-0.797610	-0.673517
C84	C	0.936982	-0.926448	-0.482676
C85	C	1.029236	-0.887725	-0.537413
H86	H	0.952519	-0.991110	-0.442520
H87	H	0.911614	-0.875812	-0.426538
H88	H	0.884232	-0.938697	-0.541854
H89	H	1.081979	-0.875464	-0.478234
H90	H	1.054613	-0.938361	-0.593540
O91	O	1.681157	-0.939681	-0.417389
C92	C	1.628296	-0.878181	-0.330391
H93	H	1.541127	-0.902354	-0.326604
H94	H	1.634516	-0.790547	-0.355038
C95	C	1.786965	-0.867039	-0.211831
C96	C	1.679904	-0.896735	-0.207172
H97	H	1.818801	-0.878478	-0.135824
H98	H	1.822580	-0.908469	-0.270445
H99	H	1.792134	-0.794012	-0.232375
H100	H	1.674738	-0.969763	-0.186643
H101	H	1.644289	-0.855317	-0.148551
O102	O	1.111087	-0.655543	-0.739434
C103	C	1.074880	-0.627885	-0.854736
H104	H	1.055120	-0.539583	-0.857194
H105	H	1.000727	-0.675899	-0.876965
C106	C	1.186461	-0.760545	-0.944316
C107	C	1.162199	-0.652090	-0.947339
H108	H	1.240320	-0.775480	-1.001440
H109	H	1.210851	-0.779183	-0.866635
H110	H	1.124659	-0.800545	-0.962837
H111	H	1.223996	-0.612093	-0.928803
H112	H	1.137821	-0.633446	-1.025019
O113	O	1.111307	-0.564808	-0.358361
C114	C	1.172845	-0.658038	-0.366413
H115	H	1.203433	-0.667557	-0.461878
H116	H	1.121900	-0.729592	-0.341643
C117	C	1.229996	-0.638672	-0.162457
C118	C	1.267573	-0.650357	-0.279707
H119	H	1.288426	-0.633937	-0.108970
H120	H	1.188534	-0.575863	-0.157030
H121	H	1.187542	-0.698303	-0.141833
H122	H	1.310015	-0.590721	-0.300334
H123	H	1.309045	-0.713156	-0.285135
