data_functionalizedCrystal
_audit_creation_method	'MofGen! by Chris Wilmer'
_symmetry_space_group_name_H-M	'P1'
_symmetry_Int_Tables_number	1
_symmetry_cell_setting	triclinic
loop_
_symmetry_equiv_pos_as_xyz
  x,y,z
_cell_length_a	27.732048
_cell_length_b	19.288865
_cell_length_c	18.366186
_cell_angle_alpha	90.011479
_cell_angle_beta	89.996446
_cell_angle_gamma	97.110548
loop_
_atom_site_label
_atom_site_type_symbol
_atom_site_fract_x
_atom_site_fract_y
_atom_site_fract_z
O1	O	0.641180	-0.082649	-0.060464
O2	O	1.141180	0.417351	0.439536
O3	O	0.500424	-0.095216	-0.060487
O4	O	1.000424	0.404784	0.439513
O5	O	0.574869	0.012223	-0.060461
O6	O	1.074869	0.512223	0.439539
O7	O	0.566735	-0.190088	-0.060491
O8	O	1.066735	0.309912	0.439509
O9	O	0.574857	0.012228	0.060639
O10	O	1.074857	0.512228	0.560639
O11	O	0.500412	-0.095211	0.060612
O12	O	1.000412	0.404789	0.560612
O13	O	0.641167	-0.082644	0.060635
O14	O	1.141167	0.417356	0.560635
Zn15	Zn	0.570788	-0.088927	0.079851
Zn16	Zn	1.070788	0.411073	0.579851
Zn17	Zn	0.570804	-0.088933	-0.079703
Zn18	Zn	1.070804	0.411067	0.420297
O19	O	0.566722	-0.190083	0.060609
O20	O	1.066722	0.309917	0.560609
C21	C	0.482410	-0.094950	0.000060
C22	C	0.982410	0.405050	0.500060
C23	C	0.428753	-0.094155	0.000052
C24	C	0.928753	0.405845	0.500052
C25	C	0.090115	-0.152644	0.000074
C26	C	0.590115	0.347356	0.500074
C27	C	-0.111554	-0.149697	0.000081
C28	C	0.388446	0.350303	0.500081
O29	O	-0.142648	-0.203181	0.000105
O30	O	0.357352	0.296819	0.500105
N31	N	-0.130870	-0.085990	0.000089
N32	N	0.369130	0.414010	0.500089
C33	C	-0.099766	-0.023015	0.000101
C34	C	0.400234	0.476985	0.500101
O35	O	-0.120823	0.031239	0.000115
O36	O	0.379177	0.531239	0.500115
C37	C	0.101902	-0.025963	0.000099
C38	C	0.601902	0.474037	0.500099
C39	C	0.121215	-0.089674	0.000083
C40	C	0.621215	0.410326	0.500083
C41	C	0.109428	-0.216350	0.000060
C42	C	0.609428	0.283650	0.500060
C43	C	0.159843	-0.217086	0.000054
C44	C	0.659843	0.282914	0.500054
C45	C	0.190943	-0.154116	0.000063
C46	C	0.690943	0.345884	0.500063
C47	C	0.171629	-0.090410	0.000078
C48	C	0.671629	0.409590	0.500078
C49	C	0.133005	0.037011	0.000115
C50	C	0.633005	0.537011	0.500115
C51	C	0.183425	0.036268	0.000117
C52	C	0.683425	0.536268	0.500117
C53	C	0.202738	-0.027443	0.000101
C54	C	0.702738	0.472557	0.500101
C55	C	0.253144	-0.028177	0.000081
C56	C	0.753144	0.471823	0.500081
N57	N	0.272460	-0.091884	0.000073
N58	N	0.772460	0.408116	0.500073
C59	C	0.241360	-0.154853	0.000064
C60	C	0.741360	0.345147	0.500064
C61	C	-0.205644	-0.021472	0.000100
C62	C	0.294356	0.478528	0.500100
C63	C	-0.256061	-0.020735	0.000099
C64	C	0.243939	0.479265	0.500099
C65	C	-0.267846	-0.147417	0.000081
C66	C	0.232154	0.352583	0.500081
C67	C	-0.217428	-0.148153	0.000077
C68	C	0.282572	0.351847	0.500077
C69	C	-0.186328	-0.085179	0.000092
C70	C	0.313672	0.414821	0.500092
C71	C	0.347234	-0.156395	0.000051
C72	C	0.847234	0.343605	0.500051
C73	C	0.397653	-0.157125	0.000042
C74	C	0.897653	0.342875	0.500042
C75	C	0.409433	-0.030444	0.000064
C76	C	0.909433	0.469556	0.500064
C77	C	0.359018	-0.029713	0.000069
C78	C	0.859018	0.470287	0.500069
C79	C	0.327919	-0.092694	0.000065
C80	C	0.827919	0.407306	0.500065
O81	O	0.284266	0.025278	0.000066
O82	O	0.784266	0.525278	0.500066
O83	O	0.262426	-0.209100	0.000065
O84	O	0.762426	0.290900	0.500065
C85	C	0.039701	-0.151908	0.000080
C86	C	0.539701	0.348092	0.500080
C87	C	0.020387	-0.088202	0.000095
C88	C	0.520387	0.411798	0.500095
C89	C	0.051487	-0.025232	0.000104
C90	C	0.551487	0.474768	0.500104
C91	C	-0.030030	-0.087465	0.000094
C92	C	0.469970	0.412535	0.500094
C93	C	-0.061130	-0.150435	0.000085
C94	C	0.438870	0.349565	0.500085
C95	C	-0.041814	-0.214142	0.000077
C96	C	0.458186	0.285858	0.500077
C97	C	0.008600	-0.214878	0.000071
C98	C	0.508600	0.285122	0.500071
C99	C	0.032171	0.038475	0.000112
C100	C	0.532171	0.538475	0.500112
C101	C	-0.018244	0.039206	0.000117
C102	C	0.481756	0.539206	0.500117
C103	C	-0.049344	-0.023764	0.000108
C104	C	0.450656	0.476236	0.500108
C105	C	0.574601	0.038100	0.000091
C106	C	1.074601	0.538100	0.500091
C107	C	0.573816	0.115199	0.000098
C108	C	1.073816	0.615199	0.500098
C109	C	0.659181	-0.082910	0.000087
C110	C	1.159181	0.417090	0.500087
C111	C	0.712839	-0.083705	0.000090
C112	C	1.212839	0.416295	0.500090
C113	C	0.566990	-0.215961	0.000055
C114	C	1.066990	0.284039	0.500055
C115	C	0.567776	-0.293059	0.000044
C116	C	1.067776	0.206941	0.500044
N117	N	0.570780	-0.088922	0.188742
N118	N	1.070780	0.411078	0.688742
C119	C	0.617496	0.160168	0.000108
C120	C	1.117496	0.660168	0.500108
C121	C	0.616758	0.232610	0.000097
C122	C	1.116758	0.732610	0.500097
C123	C	0.572337	0.260081	0.000089
C124	C	1.072337	0.760081	0.500089
C125	C	0.528650	0.215102	0.000074
C126	C	1.028650	0.715102	0.500074
C127	C	0.529390	0.142661	0.000078
C128	C	1.029390	0.642661	0.500078
C129	C	0.537412	0.368152	0.042502
C130	C	1.037412	0.868152	0.542502
C131	C	0.536674	0.440592	0.042502
C132	C	1.036674	0.940592	0.542502
C133	C	0.570054	0.483512	0.000072
C134	C	1.070054	0.983512	0.500072
C135	C	0.604180	0.453985	-0.042348
C136	C	1.104180	0.953985	0.457652
C137	C	0.604920	0.381544	-0.042344
C138	C	1.104920	0.881544	0.457656
C139	C	0.571530	0.338630	0.000084
C140	C	1.071530	0.838630	0.500084
C141	C	0.612938	0.607032	0.000069
C142	C	1.112938	1.107032	0.500069
C143	C	0.612198	0.679475	0.000053
C144	C	1.112198	1.179475	0.500053
C145	C	0.524089	0.661966	0.000038
C146	C	1.024089	1.161966	0.500038
C147	C	0.524830	0.589524	0.000047
C148	C	1.024830	1.089524	0.500047
C149	C	0.569256	0.562062	0.000066
C150	C	1.069256	1.062062	0.500066
N151	N	0.570816	-0.088933	-0.188594
N152	N	1.070816	0.411067	0.311406
C153	C	0.603755	-0.041371	0.226854
C154	C	1.103755	0.458629	0.726854
C155	C	0.603758	-0.041368	0.303082
C156	C	1.103758	0.458632	0.803082
C157	C	0.570790	-0.088927	0.341195
C158	C	1.070790	0.411073	0.841195
C159	C	0.537809	-0.136482	0.303073
C160	C	1.037809	0.363518	0.803073
C161	C	0.537804	-0.136479	0.226847
C162	C	1.037804	0.363521	0.726847
C163	C	0.564320	-0.152255	0.461945
C164	C	1.064320	0.347745	0.961945
C165	C	0.564328	-0.152259	0.538170
C166	C	1.064328	0.347741	1.038170
C167	C	0.570804	-0.088936	0.576302
C168	C	1.070804	0.411064	1.076302
C169	C	0.577281	-0.025606	0.538200
C170	C	1.077281	0.474394	1.038200
C171	C	0.577276	-0.025603	0.461974
C172	C	1.077276	0.474397	0.961974
C173	C	0.570792	-0.088935	0.423850
C174	C	1.070792	0.411065	0.923850
C175	C	0.603784	-0.041378	0.697069
C176	C	1.103784	0.458622	1.197069
C177	C	0.603784	-0.041374	0.773299
C178	C	1.103784	0.458626	1.273299
C179	C	0.537838	-0.136494	0.773289
C180	C	1.037838	0.363506	1.273289
C181	C	0.537836	-0.136492	0.697061
C182	C	1.037836	0.363508	1.197061
C183	C	0.570812	-0.088934	0.658956
C184	C	1.070812	0.411066	1.158956
H185	H	-0.067145	-0.265414	0.000066
H186	H	0.432855	0.234586	0.500066
F187	F	0.663251	0.280478	0.000107
F188	F	1.163251	0.780478	0.500107
H189	H	0.057489	0.089753	0.000121
H190	H	0.557489	0.589753	0.500121
F191	F	0.500357	0.472011	0.087652
F192	F	1.000357	0.972011	0.587652
H193	H	0.489260	0.552909	0.000042
H194	H	0.989260	1.052909	0.500042
H195	H	-0.033963	0.091091	0.000124
H196	H	0.466037	0.591091	0.500124
F197	F	0.584166	0.041795	0.421426
F198	F	1.084166	0.541795	0.921426
F199	F	0.639709	0.499658	-0.087509
F200	F	1.139709	0.999658	0.412491
F201	F	0.658692	0.727335	0.000060
F202	F	1.158692	1.227335	0.500060
H203	H	0.649112	0.584671	0.000082
H204	H	1.149112	1.084671	0.500082
H205	H	0.630604	-0.002645	0.195831
H206	H	1.130604	0.497355	0.695831
F207	F	0.476811	0.691197	0.000026
F208	F	0.976811	1.191197	0.500026
H209	H	0.632705	0.357506	-0.076885
H210	H	1.132705	0.857506	0.423115
H211	H	0.343293	0.022166	0.000071
H212	H	0.843293	0.522166	0.500071
F213	F	0.584177	0.041793	0.578777
F214	F	1.084177	0.541793	1.078777
F215	F	0.638856	0.009245	0.343651
F216	F	1.138856	0.509245	0.843651
H217	H	0.321918	-0.207680	0.000050
H218	H	0.821918	0.292320	0.500050
F219	F	0.501882	0.322480	0.087665
F220	F	1.001882	0.822480	0.587665
F221	F	-0.276610	0.047075	0.000100
F222	F	0.223390	0.547075	0.500100
F223	F	0.076336	-0.283377	0.000050
F224	F	0.576336	0.216623	0.500050
H225	H	0.492482	0.237473	0.000066
H226	H	0.992482	0.737473	0.500066
F227	F	0.180390	-0.284897	0.000041
F228	F	0.680390	0.215103	0.500041
F229	F	0.482896	0.094800	0.000067
F230	F	0.982896	0.594800	0.500067
H231	H	0.630634	-0.002651	0.666043
H232	H	1.130634	0.497349	1.166043
H233	H	0.630635	-0.002648	0.804330
H234	H	1.130635	0.497352	1.304330
H235	H	0.510966	-0.175205	0.334109
H236	H	1.010966	0.324795	0.834109
F237	F	0.502749	-0.187106	0.813847
F238	F	1.002749	0.312894	1.313847
F239	F	0.029148	-0.282688	0.000055
F240	F	0.529148	0.217312	0.500055
F241	F	0.502741	-0.187105	0.656496
F242	F	1.002741	0.312895	1.156496
F243	F	-0.196878	-0.215962	0.000062
F244	F	0.303122	0.284038	0.500062
F245	F	0.557438	-0.219660	0.578714
F246	F	1.057438	0.280340	1.078714
F247	F	0.664779	0.130945	0.000113
F248	F	1.164779	0.630945	0.500113
F249	F	0.442541	0.036570	0.000075
F250	F	0.942541	0.536570	0.500075
H251	H	0.510951	-0.175201	0.195815
H252	H	1.010951	0.324799	0.695815
F253	F	0.418204	-0.224938	0.000023
F254	F	0.918204	0.275062	0.500023
F255	F	-0.300954	-0.214434	0.000072
F256	F	0.199046	0.285566	0.500072
F257	F	0.557462	-0.219659	0.421369
F258	F	1.057462	0.280341	0.921369
H259	H	0.117290	0.088891	0.000129
H260	H	0.617290	0.588891	0.500129
F261	F	-0.172551	0.045558	0.000116
F262	F	0.327449	0.545558	0.500116
H263	H	0.208745	0.087550	0.000130
H264	H	0.708745	0.587550	0.500130
