data_functionalizedCrystal
_audit_creation_method	'MofGen! by Chris Wilmer'
_symmetry_space_group_name_H-M	'P1'
_symmetry_Int_Tables_number	1
_symmetry_cell_setting	triclinic
loop_
_symmetry_equiv_pos_as_xyz
  x,y,z
_cell_length_a	12.759401
_cell_length_b	12.759400
_cell_length_c	19.805399
_cell_angle_alpha	89.977448
_cell_angle_beta	89.982079
_cell_angle_gamma	90.014907
loop_
_atom_site_label
_atom_site_type_symbol
_atom_site_fract_x
_atom_site_fract_y
_atom_site_fract_z
Zn1	Zn	1.606224	-0.418283	-0.382713
Zn2	Zn	1.606128	-0.593977	-0.269535
Zn3	Zn	1.430535	-0.418313	-0.269541
Zn4	Zn	1.430515	-0.593922	-0.382685
O5	O	1.518351	-0.506124	-0.326119
O6	O	1.753232	-0.441600	-0.367709
O7	O	1.582804	-0.570710	-0.174819
O8	O	1.453890	-0.271288	-0.284568
O9	O	1.753162	-0.570681	-0.284558
O10	O	1.582967	-0.271266	-0.367715
O11	O	1.453797	-0.441651	-0.174824
O12	O	1.283512	-0.441597	-0.284541
O13	O	1.453855	-0.570587	-0.477406
O14	O	1.283497	-0.570616	-0.367667
O15	O	1.582947	-0.441547	-0.477426
O16	O	1.582784	-0.740990	-0.284530
O17	O	1.453761	-0.740950	-0.367661
C18	C	1.245383	-0.506105	-0.326102
C19	C	1.128607	-0.506122	-0.326111
C20	C	1.518288	-0.779091	-0.326107
C21	C	1.518358	-0.895868	-0.326124
C22	C	1.073704	-0.573227	-0.282758
C23	C	0.963980	-0.573245	-0.282776
C24	C	0.964071	-0.439043	-0.369501
C25	C	1.073793	-0.439032	-0.369486
C26	C	0.813991	-0.697117	-0.258475
C27	C	0.759085	-0.764213	-0.215112
C28	C	0.794640	-0.780204	-0.149046
C29	C	0.885099	-0.729082	-0.126329
C30	C	0.940000	-0.661979	-0.169689
C31	C	0.904446	-0.646008	-0.235765
C32	C	1.223784	-0.315158	-0.393780
C33	C	1.278686	-0.248048	-0.437136
C34	C	1.243134	-0.232047	-0.503204
C35	C	1.152671	-0.283150	-0.525918
C36	C	1.097768	-0.350260	-0.482561
C37	C	1.133328	-0.366263	-0.416494
C38	C	1.585539	-0.950628	-0.369456
C39	C	1.585598	-1.060352	-0.369474
C40	C	1.451291	-1.060545	-0.282824
C41	C	1.451228	-0.950823	-0.282809
C42	C	1.623151	-1.210197	-0.449340
C43	C	1.690349	-1.264961	-0.492666
C44	C	1.792833	-1.229255	-0.503112
C45	C	1.828141	-1.138786	-0.470223
C46	C	1.760948	-1.084027	-0.426892
C47	C	1.658449	-1.119732	-0.416459
C48	C	1.413686	-0.800977	-0.202942
C49	C	1.346498	-0.746216	-0.159608
C50	C	1.244012	-0.781920	-0.149155
C51	C	1.208709	-0.872393	-0.182032
C52	C	1.275897	-0.927154	-0.225366
C53	C	1.378382	-0.891442	-0.235821
C54	C	1.792384	-0.506143	-0.326136
C55	C	1.909160	-0.506152	-0.326143
C56	C	1.518410	-0.506057	-0.502662
C57	C	1.518435	-0.506029	-0.577894
C58	C	1.518442	-0.232090	-0.326146
C59	C	1.518480	-0.115314	-0.326157
C60	C	1.585655	-0.438834	-0.613250
C61	C	1.585666	-0.438804	-0.683938
C62	C	1.518461	-0.505974	-0.719269
C63	C	1.451233	-0.573172	-0.683908
C64	C	1.451218	-0.573197	-0.613221
C65	C	1.451292	-0.573074	-0.968982
C66	C	1.451315	-0.573047	-1.039674
C67	C	1.585740	-0.438682	-1.039699
C68	C	1.585725	-0.438706	-0.969012
C69	C	1.518494	-0.505899	-0.933657
C70	C	1.518482	-0.505930	-0.857008
C71	C	1.518478	-0.505950	-0.795916
C72	C	1.518352	-0.506114	-0.150263
C73	C	1.518531	-0.505846	-0.075031
H74	H	1.118330	-0.627859	-0.247441
F75	F	1.657247	-0.367322	-0.721564
H76	H	1.189310	-0.737325	-0.113866
F77	F	1.864349	-1.287544	-0.549222
F78	F	1.657291	-0.367164	-1.077332
H79	H	1.640453	-0.384012	-0.940248
H80	H	1.497134	-0.771887	-0.211459
H81	H	1.661592	-1.338622	-0.519444
F82	F	1.514068	-1.248195	-0.438236
F83	F	1.379782	-0.644542	-1.077274
F84	F	0.905725	-0.367644	-0.415661
H85	H	1.252748	-0.328193	-0.339984
F86	F	1.036258	-0.607561	-0.145513
H87	H	1.396639	-1.105304	-0.247557
F88	F	1.656982	-0.892144	-0.415557
H89	H	0.785041	-0.684115	-0.312274
F90	F	1.379739	-0.644588	-0.931363
F91	F	1.379704	-0.644656	-0.721512
H92	H	1.640384	-0.384140	-0.584488
H93	H	1.396470	-0.627903	-0.584435
H94	H	0.914034	-0.742098	-0.072529
H95	H	0.685431	-0.805835	-0.233614
F96	F	0.736199	-0.851611	-0.102896
F97	F	1.798519	-0.987750	-0.391889
F98	F	1.937225	-1.100799	-0.481335
F99	F	1.099634	-0.910401	-0.170903
H100	H	1.024100	-0.391859	-0.501058
F101	F	1.114824	-0.266115	-0.596233
F102	F	1.238319	-1.023442	-0.260360
H103	H	1.287839	-0.177389	-0.538501
H104	H	1.352341	-0.206431	-0.418635
H105	H	1.375254	-0.672552	-0.132834
