data_functionalizedCrystal
_audit_creation_method	'MofGen! by Chris Wilmer'
_symmetry_space_group_name_H-M	'P1'
_symmetry_Int_Tables_number	1
_symmetry_cell_setting	triclinic
loop_
_symmetry_equiv_pos_as_xyz
  x,y,z
_cell_length_a	8.634740
_cell_length_b	9.065218
_cell_length_c	7.540329
_cell_angle_alpha	89.998243
_cell_angle_beta	89.997570
_cell_angle_gamma	92.793096
loop_
_atom_site_label
_atom_site_type_symbol
_atom_site_fract_x
_atom_site_fract_y
_atom_site_fract_z
O1	O	2.052789	0.481954	-0.147464
O2	O	2.552789	0.981954	0.352536
O3	O	1.603273	0.441540	-0.147469
O4	O	2.103273	0.941540	0.352531
O5	O	1.837322	0.248307	-0.147462
O6	O	2.337322	0.748307	0.352538
O7	O	1.818739	0.675187	-0.147470
O8	O	2.318739	1.175187	0.352530
O9	O	1.837308	0.248302	0.147503
O10	O	2.337308	0.748302	0.647503
O11	O	1.603258	0.441535	0.147496
O12	O	2.103258	0.941535	0.647496
O13	O	2.052775	0.481949	0.147501
O14	O	2.552775	0.981949	0.647501
Cu15	Cu	1.828015	0.461742	0.174432
Cu16	Cu	2.328015	0.961742	0.674432
Cu17	Cu	1.828032	0.461748	-0.174399
Cu18	Cu	2.328032	0.961748	0.325601
O19	O	1.818725	0.675183	0.147495
O20	O	2.318725	1.175183	0.647495
C21	C	1.545687	0.432383	0.000013
C22	C	2.045687	0.932383	0.500013
C23	C	1.374123	0.405085	0.000011
C24	C	1.874123	0.905085	0.500011
C25	C	1.835529	0.193087	0.000017
C26	C	2.335529	0.693087	0.500017
C27	C	1.830189	0.028553	0.000009
C28	C	2.330189	0.528553	0.500009
C29	C	2.110360	0.491107	0.000016
C30	C	2.610360	0.991107	0.500016
C31	C	2.281924	0.518405	0.000006
C32	C	2.781924	1.018405	0.500006
N33	N	1.828015	0.461739	0.419780
N34	N	2.328015	0.961739	0.919780
C35	C	1.820518	0.730403	0.000012
C36	C	2.320518	1.230403	0.500012
C37	C	1.825858	0.894937	0.000008
C38	C	2.325858	1.394937	0.500008
N39	N	1.828045	0.461741	-0.419747
N40	N	2.328045	0.961741	0.080253
H41	H	2.334241	0.636306	0.000016
H42	H	2.834241	1.136306	0.500016
H43	H	2.321799	0.287176	-0.000034
H44	H	2.821799	0.787176	0.499966
