data_functionalizedCrystal
_audit_creation_method	'MofGen! by Chris Wilmer'
_symmetry_space_group_name_H-M	'P1'
_symmetry_Int_Tables_number	1
_symmetry_cell_setting	triclinic
loop_
_symmetry_equiv_pos_as_xyz
  x,y,z
_cell_length_a	17.019372
_cell_length_b	23.532357
_cell_length_c	15.500227
_cell_angle_alpha	92.804145
_cell_angle_beta	91.029586
_cell_angle_gamma	83.111120
loop_
_atom_site_label
_atom_site_type_symbol
_atom_site_fract_x
_atom_site_fract_y
_atom_site_fract_z
O1	O	1.045778	0.072754	0.005889
O2	O	1.545778	0.572754	0.505889
O3	O	0.816915	0.081383	-0.011149
O4	O	1.316915	0.581383	0.488851
O5	O	0.938267	-0.005823	-0.002097
O6	O	1.438267	0.494177	0.497903
O7	O	0.924425	0.159960	-0.003163
O8	O	1.424425	0.659960	0.496837
O9	O	0.930903	-0.000552	0.141242
O10	O	1.430903	0.499448	0.641242
O11	O	0.809551	0.086654	0.132190
O12	O	1.309551	0.586654	0.632190
O13	O	1.038414	0.078025	0.149229
O14	O	1.538414	0.578025	0.649229
Cu15	Cu	0.923310	0.082821	0.153797
Cu16	Cu	1.423310	0.582821	0.653797
Cu17	Cu	0.932019	0.076587	-0.015718
Cu18	Cu	1.432019	0.576587	0.484282
O19	O	0.917062	0.165231	0.140176
O20	O	1.417062	0.665231	0.640176
C21	C	0.783959	0.083588	0.058341
C22	C	1.283959	0.583588	0.558341
C23	C	0.696731	0.082299	0.051848
C24	C	1.196731	0.582299	0.551848
C25	C	0.203598	0.074841	0.011146
C26	C	0.703598	0.574841	0.511146
C27	C	0.285557	0.076053	0.017259
C28	C	0.785557	0.576053	0.517259
C29	C	0.322513	0.079537	0.098450
C30	C	0.822513	0.579537	0.598450
C31	C	0.277508	0.081803	0.173534
C32	C	0.777508	0.581803	0.673534
C33	C	0.195551	0.080587	0.167420
C34	C	0.695551	0.580587	0.667420
C35	C	0.569769	0.083349	0.120818
C36	C	1.069769	0.583349	0.620818
C37	C	0.651731	0.084566	0.126926
C38	C	1.151731	0.584566	0.626926
C39	C	0.659775	0.078816	-0.029350
C40	C	1.159775	0.578816	0.470650
C41	C	0.577816	0.077604	-0.035456
C42	C	1.077816	0.577604	0.464544
C43	C	0.532818	0.079866	0.039627
C44	C	1.032818	0.579866	0.539627
C45	C	0.406288	0.080778	0.104700
C46	C	0.906288	0.580778	0.604700
C47	C	0.449045	0.078622	0.033376
C48	C	0.949045	0.578622	0.533376
C49	C	0.934239	-0.024406	0.069550
C50	C	1.434239	0.475594	0.569550
C51	C	0.933197	-0.087631	0.069480
C52	C	1.433197	0.412369	0.569480
C53	C	0.930678	-0.482556	-0.009187
C54	C	1.430678	0.017444	0.490813
C55	C	0.929688	-0.541962	-0.009266
C56	C	1.429688	-0.041962	0.490734
O57	O	0.932564	-0.575125	-0.075756
O58	O	1.432564	-0.075125	0.424244
N59	N	0.925184	-0.568803	0.068831
N60	N	1.425184	-0.068803	0.568831
C61	C	0.921660	-0.536234	0.147011
C62	C	1.421660	-0.036234	0.647011
O63	O	0.917737	-0.564519	0.213431
O64	O	1.417737	-0.064519	0.713431
C65	C	0.922644	-0.476829	0.147088
C66	C	1.422644	0.023171	0.647088
C67	C	0.927157	-0.449992	0.068987
C68	C	1.427157	0.050008	0.568987
C69	C	0.935190	-0.455719	-0.087282
C70	C	1.435190	0.044281	0.412718
C71	C	0.936180	-0.396317	-0.087203
C72	C	1.436180	0.103683	0.412797
C73	C	0.932660	-0.363753	-0.009029
C74	C	1.432660	0.136247	0.490971
C75	C	0.928148	-0.390591	0.069066
C76	C	1.428148	0.109409	0.569066
C77	C	0.919115	-0.444261	0.225266
C78	C	1.419115	0.055739	0.725266
C79	C	0.920098	-0.384852	0.225337
C80	C	1.420098	0.115148	0.725337
C81	C	0.924611	-0.358015	0.147236
C82	C	1.424611	0.141985	0.647236
C83	C	0.925618	-0.298625	0.147319
C84	C	1.425618	0.201375	0.647319
N85	N	0.930122	-0.271784	0.069222
N86	N	1.430122	0.228216	0.569222
C87	C	0.933643	-0.304348	-0.008952
C88	C	1.433643	0.195652	0.491048
C89	C	0.919593	-0.660988	0.146842
C90	C	1.419593	-0.160988	0.646842
C91	C	0.918615	-0.720393	0.146766
C92	C	1.418615	-0.220393	0.646766
C93	C	0.926642	-0.726116	-0.009511
C94	C	1.426642	-0.226116	0.490489
C95	C	0.927626	-0.666711	-0.009433
C96	C	1.427626	-0.166711	0.490567
C97	C	0.924098	-0.634147	0.068746
C98	C	1.424098	-0.134147	0.568746
C99	C	0.935724	-0.179601	-0.008780
C100	C	1.435724	0.320399	0.491220
C101	C	0.936718	-0.120195	-0.008694
C102	C	1.436718	0.379805	0.491306
C103	C	0.928687	-0.114476	0.147582
C104	C	1.428687	0.385524	0.647582
C105	C	0.927698	-0.173878	0.147497
C106	C	1.427698	0.326122	0.647497
C107	C	0.931214	-0.206439	0.069309
C108	C	1.431214	0.293561	0.569309
O109	O	0.922742	-0.265425	0.213775
O110	O	1.422742	0.234575	0.713775
O111	O	0.937556	-0.276055	-0.075362
O112	O	1.437556	0.223945	0.424638
C113	C	1.071370	0.075819	0.079736
C114	C	1.571370	0.575819	0.579736
C115	C	1.158598	0.077109	0.086224
C116	C	1.658598	0.577109	0.586224
C117	C	0.921090	0.183814	0.068528
C118	C	1.421090	0.683814	0.568528
C119	C	0.922132	0.247038	0.068592
C120	C	1.422132	0.747038	0.568592
N121	N	0.917191	0.087205	0.273026
N122	N	1.417191	0.587205	0.773026
N123	N	0.938144	0.072199	-0.134946
N124	N	1.438144	0.572199	0.365054
C125	C	0.968630	0.050266	0.322140
C126	C	1.468630	0.550266	0.822140
C127	C	0.964009	0.053587	0.412368
C128	C	1.464009	0.553587	0.912368
C129	C	0.907952	0.093850	0.453481
C130	C	1.407952	0.593850	0.953481
C131	C	0.856508	0.130790	0.404360
C132	C	1.356508	0.630790	0.904360
C133	C	0.861126	0.127466	0.314133
C134	C	1.361126	0.627466	0.814133
C135	C	0.891318	0.105815	0.725707
C136	C	1.391318	0.605815	1.225707
C137	C	0.886705	0.109137	0.815940
C138	C	1.386705	0.609137	1.315940
C139	C	0.994206	0.031933	0.823941
C140	C	1.494206	0.531933	1.323941
C141	C	0.998822	0.028615	0.733713
C142	C	1.498822	0.528615	1.233713
C143	C	0.947375	0.065553	0.684600
C144	C	1.447375	0.565553	1.184600
C145	C	0.903229	0.097247	0.545708
C146	C	1.403229	0.597247	1.045708
C147	C	0.952094	0.062153	0.592374
C148	C	1.452094	0.562153	1.092374
H149	H	0.307605	0.084635	0.239642
H150	H	0.807605	0.584635	0.739642
C151	C	0.924807	-0.078644	0.233569
C152	C	1.424807	0.421356	0.733569
N153	N	0.921876	-0.051652	0.298334
N154	N	1.421876	0.448348	0.798334
C155	C	0.335055	0.073551	-0.065334
C156	C	0.835055	0.573551	0.434666
N157	N	0.372337	0.071663	-0.127546
N158	N	0.872337	0.571663	0.372454
H159	H	0.547732	0.074766	-0.101571
H160	H	1.047732	0.574766	0.398429
C161	C	0.804545	0.168106	0.260109
C162	C	1.304545	0.668106	0.760109
N163	N	0.761927	0.198718	0.219419
N164	N	1.261927	0.698718	0.719419
H165	H	0.914952	-0.742239	0.210365
H166	H	1.414952	-0.242239	0.710365
H167	H	0.681818	0.087407	0.193045
H168	H	1.181818	0.587407	0.693045
C169	C	0.915725	-0.625174	0.232852
C170	C	1.415725	-0.125174	0.732852
N171	N	0.912811	-0.598202	0.297634
N172	N	1.412811	-0.098202	0.797634
C173	C	0.914140	-0.473767	0.311185
C174	C	1.414140	0.026233	0.811185
N175	N	0.910389	-0.495989	0.375904
N176	N	1.410389	0.004011	0.875904
H177	H	0.940395	-0.098347	-0.072296
H178	H	1.440395	0.401653	0.427704
C179	C	0.146051	0.083083	0.250012
C180	C	0.646051	0.583083	0.750012
N181	N	0.108768	0.084963	0.312223
N182	N	0.608768	0.584963	0.812223
C183	C	0.446942	0.084647	0.194008
C184	C	0.946942	0.584647	0.694008
N185	N	0.477562	0.087574	0.261275
N186	N	0.977562	0.587574	0.761275
C187	C	0.939606	-0.215411	-0.094790
C188	C	1.439606	0.284589	0.405210
N189	N	0.942539	-0.242384	-0.159572
N190	N	1.442539	0.257616	0.340428
H191	H	1.005894	0.023508	0.452356
H192	H	1.505894	0.523508	0.952356
H193	H	1.044467	-0.004170	0.700241
H194	H	1.544467	0.495830	1.200241
C195	C	1.050787	-0.008701	0.877972
C196	C	1.550787	0.491299	1.377972
N197	N	1.093404	-0.039310	0.918668
N198	N	1.593404	0.460690	1.418668
C199	C	0.916221	-0.349035	0.311343
C200	C	1.416221	0.150965	0.811343
N201	N	0.913303	-0.322060	0.376122
N202	N	1.413303	0.177940	0.876122
C203	C	0.709280	0.076320	-0.111936
C204	C	1.209280	0.576320	0.388064
N205	N	0.746569	0.074436	-0.174143
N206	N	1.246569	0.574436	0.325857
H207	H	0.841055	0.141926	0.849410
H208	H	1.341055	0.641926	1.349410
H209	H	0.924030	-0.195730	0.211094
H210	H	1.424030	0.304270	0.711094
H211	H	0.533143	0.085183	0.181957
H212	H	1.033143	0.585183	0.681957
C213	C	0.834825	0.146523	0.671702
C214	C	1.334825	0.646523	1.171702
N215	N	0.792308	0.177212	0.631025
N216	N	1.292308	0.677212	1.131025
H217	H	0.810861	0.163571	0.437839
H218	H	1.310861	0.663571	0.937839
C219	C	1.013748	0.017861	0.547146
C220	C	1.513748	0.517861	1.047146
N221	N	1.060186	-0.015501	0.513073
N222	N	1.560186	0.484499	1.013073
H223	H	1.014280	0.017482	0.288672
H224	H	1.514280	0.517482	0.788672
H225	H	0.857588	0.130030	0.579190
H226	H	1.357588	0.630030	1.079190
C227	C	0.932583	-0.637196	-0.095350
C228	C	1.432583	-0.137196	0.404650
N229	N	0.936314	-0.614968	-0.160067
N230	N	1.436314	-0.114968	0.339933
H231	H	0.173513	0.072009	-0.054969
H232	H	0.673513	0.572009	0.445031
H233	H	0.938054	-0.482226	-0.150945
H234	H	1.438054	0.017774	0.349055
C235	C	0.930507	-0.761948	-0.095505
C236	C	1.430507	-0.261948	0.404495
N237	N	0.933416	-0.788937	-0.160272
N238	N	1.433416	-0.288937	0.339728
C239	C	0.941136	-0.366804	-0.173122
C240	C	1.441136	0.133196	0.326878
N241	N	0.944865	-0.344578	-0.237841
N242	N	1.444865	0.155422	0.262159
H243	H	0.418952	0.075783	-0.032729
H244	H	0.918952	0.575783	0.467271
