data_functionalizedCrystal
_audit_creation_method	'MofGen! by Chris Wilmer'
_symmetry_space_group_name_H-M	'P1'
_symmetry_Int_Tables_number	1
_symmetry_cell_setting	triclinic
loop_
_symmetry_equiv_pos_as_xyz
  x,y,z
_cell_length_a	14.908571
_cell_length_b	13.897448
_cell_length_c	14.908308
_cell_angle_alpha	86.732812
_cell_angle_beta	89.824947
_cell_angle_gamma	86.713891
loop_
_atom_site_label
_atom_site_type_symbol
_atom_site_fract_x
_atom_site_fract_y
_atom_site_fract_z
Zn1	Zn	1.345318	-0.503381	0.587582
Zn2	Zn	1.845318	-0.003381	1.087582
Zn3	Zn	1.353905	-0.655952	0.437223
Zn4	Zn	1.853905	-0.155952	0.937223
Zn5	Zn	1.203632	-0.484854	0.428580
Zn6	Zn	1.703632	0.015146	0.928580
Zn7	Zn	1.194933	-0.654806	0.578874
Zn8	Zn	1.694933	-0.154806	1.078874
O9	O	1.274447	-0.574748	0.508065
O10	O	1.774447	-0.074748	1.008065
O11	O	1.472283	-0.531853	0.574898
O12	O	1.972283	-0.031853	1.074898
O13	O	1.341206	-0.625981	0.310251
O14	O	1.841206	-0.125981	0.810251
O15	O	1.222474	-0.352335	0.449699
O16	O	1.722474	0.147665	0.949699
O17	O	1.478592	-0.643947	0.464429
O18	O	1.978592	-0.143947	0.964429
O19	O	1.326570	-0.365946	0.566518
O20	O	1.826570	0.134054	1.066518
O21	O	1.230801	-0.500276	0.303902
O22	O	1.730801	-0.000276	0.803902
O23	O	1.076652	-0.499165	0.441256
O24	O	1.576652	0.000835	0.941256
O25	O	1.207647	-0.641993	0.705854
O26	O	1.707647	-0.141993	1.205854
O27	O	1.070260	-0.624028	0.551676
O28	O	1.570260	-0.124028	1.051676
O29	O	1.318134	-0.530742	0.712252
O30	O	1.818134	-0.030742	1.212252
O31	O	1.332770	-0.790777	0.455986
O32	O	1.832770	-0.290777	0.955986
O33	O	1.215974	-0.789935	0.560056
O34	O	1.715974	-0.289935	1.060056
C35	C	1.040831	-0.559463	0.494584
C36	C	1.540831	-0.059463	0.994584
C37	C	0.940888	-0.552948	0.488838
C38	C	1.440888	-0.052948	0.988838
C39	C	0.746485	-0.670908	0.592867
C40	C	1.246485	-0.170908	1.092867
C41	C	0.652579	-0.664790	0.587471
C42	C	1.152579	-0.164790	1.087471
C43	C	0.659168	-0.534590	0.472656
C44	C	1.159168	-0.034590	0.972656
C45	C	0.753074	-0.540708	0.478051
C46	C	1.253074	-0.040708	0.978051
C47	C	0.796729	-0.608870	0.538158
C48	C	1.296729	-0.108870	1.038158
C49	C	0.890637	-0.614992	0.543549
C50	C	1.390637	-0.114992	1.043549
C51	C	0.897224	-0.484788	0.428738
C52	C	1.397224	0.015212	0.928738
C53	C	0.803318	-0.478670	0.423343
C54	C	1.303318	0.021330	0.923343
C55	C	1.274383	-0.825357	0.508035
C56	C	1.774383	-0.325357	1.008035
C57	C	1.274436	-0.932575	0.508057
C58	C	1.774436	-0.432575	1.008057
C59	C	1.274527	-1.128880	0.508119
C60	C	1.774527	-0.628880	1.008119
C61	C	1.274474	-1.019642	0.508087
C62	C	1.774474	-0.519642	1.008087
C63	C	1.508975	-0.590094	0.521599
C64	C	2.008975	-0.090094	1.021599
C65	C	1.608918	-0.596634	0.527367
C66	C	2.108918	-0.096634	1.027367
C67	C	1.260963	-0.588307	0.742590
C68	C	1.760963	-0.088307	1.242590
C69	C	1.255216	-0.594084	0.842531
C70	C	1.755216	-0.094084	1.342531
C71	C	1.274535	-0.323164	0.508116
C72	C	1.774535	0.176836	1.008116
C73	C	1.274572	-0.215954	0.508138
C74	C	1.774572	0.284046	1.008138
C75	C	1.287931	-0.561177	0.274455
C76	C	1.787931	-0.061177	0.774455
C77	C	1.293851	-0.555139	0.174525
C78	C	1.793851	-0.055139	0.674525
C79	C	1.359466	-0.489073	1.036993
C80	C	1.859466	0.010927	1.536993
C81	C	1.354070	-0.494498	1.130897
C82	C	1.854070	0.005502	1.630897
C83	C	1.239023	-0.610355	1.124242
C84	C	1.739023	-0.110355	1.624242
C85	C	1.244420	-0.604930	1.030339
C86	C	1.744420	-0.104930	1.530339
C87	C	1.304644	-0.544287	0.986718
C88	C	1.804644	-0.044287	1.486718
C89	C	1.310044	-0.538868	0.892813
C90	C	1.810044	-0.038868	1.392813
C91	C	1.194994	-0.654719	0.886160
C92	C	1.694994	-0.154719	1.386160
C93	C	1.189597	-0.660144	0.980064
C94	C	1.689597	-0.160144	1.480064
H95	H	0.938142	-0.434274	0.384188
H96	H	1.438142	0.065726	0.884188
H97	H	0.782030	-0.726414	0.641803
H98	H	1.282030	-0.226414	1.141803
H99	H	0.611674	-0.715306	0.632022
H100	H	1.111674	-0.215306	1.132022
Br101	Br	0.599905	-0.442074	0.391107
Br102	Br	1.099905	0.057926	0.891107
H103	H	1.189991	-0.659727	1.159775
H104	H	1.689991	-0.159727	1.659775
H105	H	0.767761	-0.423172	0.374408
H106	H	1.267761	0.076828	0.874408
Br107	Br	1.428471	-0.419557	1.199126
Br108	Br	1.928471	0.080443	1.699126
H109	H	1.140563	-0.709515	1.015593
H110	H	1.640563	-0.209515	1.515593
H111	H	1.359083	-0.489491	0.857299
H112	H	1.859083	0.010509	1.357299
Br113	Br	1.120601	-0.729673	0.817925
Br114	Br	1.620601	-0.229673	1.317925
Br115	Br	0.949883	-0.707501	0.625116
Br116	Br	1.449883	-0.207501	1.125116
Br117	Br	1.441209	-0.406791	0.977790
Br118	Br	1.941209	0.093209	1.477790
