data_functionalizedCrystal
_audit_creation_method	'MofGen! by Chris Wilmer'
_symmetry_space_group_name_H-M	'P1'
_symmetry_Int_Tables_number	1
_symmetry_cell_setting	triclinic
loop_
_symmetry_equiv_pos_as_xyz
  x,y,z
_cell_length_a	10.654562
_cell_length_b	10.654550
_cell_length_c	13.101039
_cell_angle_alpha	93.395977
_cell_angle_beta	93.393230
_cell_angle_gamma	95.512497
loop_
_atom_site_label
_atom_site_type_symbol
_atom_site_fract_x
_atom_site_fract_y
_atom_site_fract_z
O1	O	-1.674686	0.169598	-0.085280
O2	O	-1.309208	0.186389	-0.085267
O3	O	-1.500350	-0.004745	-0.085270
O4	O	-1.483544	0.360732	-0.085277
O5	O	-1.486636	0.008991	0.085160
O6	O	-1.295494	0.200125	0.085163
O7	O	-1.660972	0.183335	0.085150
Zn8	Zn	-1.476056	0.193911	0.112216
Zn9	Zn	-1.494124	0.175812	-0.112333
O10	O	-1.469830	0.374469	0.085153
C11	C	-1.492259	-0.044675	-0.000056
C12	C	-1.488567	-0.184119	-0.000059
C13	C	-1.255553	0.192021	-0.000050
C14	C	-1.116111	0.188323	-0.000045
C15	C	-1.714627	0.177702	-0.000068
C16	C	-1.854070	0.181400	-0.000080
C17	C	-1.601108	-0.263599	-0.000060
C18	C	-1.597632	-0.394621	-0.000067
C19	C	-1.369064	-0.366668	-0.000068
C20	C	-1.372542	-0.235650	-0.000068
C21	C	-1.717133	-0.212069	-0.000051
C22	C	-1.829684	-0.291550	-0.000051
C23	C	-1.826208	-0.422572	-0.000058
C24	C	-1.710182	-0.474112	-0.000065
C25	C	-1.043105	0.194085	0.092848
C26	C	-0.912084	0.190619	0.092831
C27	C	-0.927086	0.175633	-0.092981
C28	C	-1.058105	0.179091	-0.092963
C29	C	-1.101110	0.203318	0.185766
C30	C	-1.028104	0.209082	0.278667
C31	C	-0.897083	0.205616	0.278650
C32	C	-0.839068	0.196385	0.185732
C33	C	-1.477921	0.414398	-0.000063
C34	C	-1.481613	0.553841	-0.000066
N35	N	-1.463733	0.206262	0.265465
N36	N	-1.506457	0.163452	-0.265581
C37	C	-1.446968	0.223077	0.474508
C38	C	-1.523217	0.146640	0.525382
C39	C	-1.513889	0.155997	0.641701
C40	C	-1.456295	0.213723	0.358179
H41	H	-1.719976	-0.105386	-0.000042
Br42	Br	-1.987141	-0.221609	-0.000059
H43	H	-1.274601	-0.408643	-0.000072
Br44	Br	-0.848354	0.163093	-0.219075
H45	H	-1.917852	-0.487284	-0.000068
Br46	Br	-1.219806	-0.127775	-0.000071
H47	H	-1.075349	0.216588	0.354317
Br48	Br	-1.644232	0.026391	0.452381
H49	H	-1.707361	-0.580800	-0.000082
H50	H	-1.117548	0.174405	-0.168605
H51	H	-0.837645	0.210299	0.354294
H52	H	-1.374690	0.295540	0.518306
Br53	Br	-1.278921	0.208037	0.185794
H54	H	-0.732382	0.193560	0.185726
