data_functionalizedCrystal
_audit_creation_method	'MofGen! by Chris Wilmer'
_symmetry_space_group_name_H-M	'P1'
_symmetry_Int_Tables_number	1
_symmetry_cell_setting	triclinic
loop_
_symmetry_equiv_pos_as_xyz
  x,y,z
_cell_length_a	21.295417
_cell_length_b	18.101398
_cell_length_c	21.295420
_cell_angle_alpha	89.988291
_cell_angle_beta	90.018953
_cell_angle_gamma	89.974227
loop_
_atom_site_label
_atom_site_type_symbol
_atom_site_fract_x
_atom_site_fract_y
_atom_site_fract_z
Zn1	Zn	-0.250777	-1.132032	0.356000
Zn2	Zn	0.249223	-0.632032	0.856000
Zn3	Zn	-0.356024	-1.131956	0.250726
Zn4	Zn	0.143976	-0.631956	0.750726
Zn5	Zn	-0.250764	-1.008218	0.250736
Zn6	Zn	0.249236	-0.508218	0.750736
Zn7	Zn	-0.356004	-1.008143	0.355948
Zn8	Zn	0.143996	-0.508143	0.855948
O9	O	-0.303392	-1.070087	0.303352
O10	O	0.196608	-0.570087	0.803352
O11	O	-0.264752	-1.235655	0.342053
O12	O	0.235248	-0.735655	0.842053
O13	O	-0.342064	-1.115542	0.162638
O14	O	0.157936	-0.615542	0.662638
O15	O	-0.162676	-1.024705	0.264725
O16	O	0.337324	-0.524705	0.764725
O17	O	-0.342077	-1.235599	0.264709
O18	O	0.157923	-0.735599	0.764709
O19	O	-0.162686	-1.115671	0.342063
O20	O	0.337314	-0.615671	0.842063
O21	O	-0.264730	-1.024632	0.162645
O22	O	0.235270	-0.524632	0.662645
O23	O	-0.264710	-0.904575	0.264674
O24	O	0.235290	-0.404575	0.764674
O25	O	-0.342042	-1.024577	0.444044
O26	O	0.157958	-0.524577	0.944044
O27	O	-0.342029	-0.904520	0.341973
O28	O	0.157971	-0.404520	0.841973
O29	O	-0.264733	-1.115598	0.444083
O30	O	0.235267	-0.615598	0.944083
O31	O	-0.444111	-1.115469	0.264657
O32	O	0.055889	-0.615469	0.764657
O33	O	-0.444096	-1.024504	0.341964
O34	O	0.055904	-0.524504	0.841964
C35	C	-0.303367	-0.877677	0.303319
C36	C	0.196633	-0.377677	0.803319
C37	C	-0.303371	-0.795363	0.303320
C38	C	0.196629	-0.295363	0.803320
C39	C	-0.466944	-1.069990	0.303317
C40	C	0.033056	-0.569990	0.803317
C41	C	-0.536912	-1.070016	0.303324
C42	C	-0.036912	-0.570016	0.803324
C43	C	-0.303387	-1.070087	0.467543
C44	C	0.196613	-0.570087	0.967543
C45	C	-0.303384	-1.070088	0.537511
C46	C	0.196616	-0.570088	1.037511
C47	C	-0.569765	-1.117424	0.263112
C48	C	-0.069765	-0.617424	0.763112
C49	C	-0.635508	-1.117459	0.263126
C50	C	-0.135508	-0.617459	0.763126
C51	C	-0.668394	-1.070073	0.303345
C52	C	-0.168394	-0.570073	0.803345
C53	C	-0.635533	-1.022662	0.343565
C54	C	-0.135533	-0.522662	0.843565
C55	C	-0.569792	-1.022633	0.343554
C56	C	-0.069792	-0.522633	0.843554
N57	N	-0.771657	-1.005287	0.308133
N58	N	-0.271657	-0.505287	0.808133
N59	N	-0.834108	-1.005316	0.308140
N60	N	-0.334108	-0.505316	0.808140
C61	C	-0.866469	-1.070155	0.303381
C62	C	-0.366469	-0.570155	0.803381
N63	N	-0.834019	-1.134967	0.298604
N64	N	-0.334019	-0.634967	0.798604
N65	N	-0.771562	-1.134937	0.298594
N66	N	-0.271562	-0.634937	0.798594
C67	C	-0.739680	-1.070098	0.303362
C68	C	-0.239680	-0.570098	0.803362
C69	C	-0.970608	-1.117605	0.263183
C70	C	-0.470608	-0.617605	0.763183
C71	C	-1.036352	-1.117641	0.263201
C72	C	-0.536352	-0.617641	0.763201
C73	C	-1.036376	-1.022837	0.343637
C74	C	-0.536376	-0.522837	0.843637
C75	C	-0.970633	-1.022808	0.343622
C76	C	-0.470633	-0.522808	0.843622
C77	C	-0.937753	-1.070191	0.303391
C78	C	-0.437753	-0.570191	0.803391
C79	C	-0.139202	-1.070205	0.303401
C80	C	0.360798	-0.570205	0.803401
C81	C	-0.069234	-1.070255	0.303422
C82	C	0.430766	-0.570255	0.803422
C83	C	-0.303418	-1.263249	0.303386
C84	C	0.196582	-0.763249	0.803386
C85	C	-0.303429	-1.345563	0.303400
C86	C	0.196571	-0.845563	0.803400
C87	C	-0.303410	-0.496272	0.303373
C88	C	0.196590	0.003728	0.803373
C89	C	-0.254520	-0.527607	0.254976
C90	C	0.245480	-0.027607	0.754976
C91	C	-0.254651	-0.613225	0.254770
C92	C	0.245349	-0.113225	0.754770
C93	C	-0.303390	-0.644654	0.303347
C94	C	0.196610	-0.144654	0.803347
C95	C	-0.369697	-0.613542	0.285216
C96	C	0.130303	-0.113542	0.785216
C97	C	-0.369425	-0.527896	0.284880
C98	C	0.130575	-0.027896	0.784880
C99	C	-0.286570	-0.527869	0.370015
C100	C	0.213430	-0.027869	0.870015
C101	C	-0.285093	-0.613520	0.369651
C102	C	0.214907	-0.113520	0.869651
C103	C	-0.303383	-0.728514	0.303333
C104	C	0.196617	-0.228514	0.803333
C105	C	-0.303422	-0.412412	0.303385
C106	C	0.196578	0.087588	0.803385
C107	C	-0.263136	-1.117449	1.036990
C108	C	0.236864	-0.617449	1.536990
C109	C	-0.263137	-1.117457	0.971247
C110	C	0.236863	-0.617457	1.471247
C111	C	-0.303387	-1.070069	0.938350
C112	C	0.196613	-0.570069	1.438350
C113	C	-0.343649	-1.022683	0.971201
C114	C	0.156351	-0.522683	1.471201
C115	C	-0.343651	-1.022682	1.036942
C116	C	0.156349	-0.522682	1.536942
N117	N	-0.308204	-1.005243	0.835116
N118	N	0.191796	-0.505243	1.335116
N119	N	-0.308198	-1.005246	0.772665
N120	N	0.191802	-0.505246	1.272665
C121	C	-0.303384	-1.070071	0.740275
C122	C	0.196616	-0.570071	1.240275
N123	N	-0.298563	-1.134894	0.772697
N124	N	0.201437	-0.634894	1.272697
N125	N	-0.298565	-1.134890	0.835154
N126	N	0.201435	-0.634890	1.335154
C127	C	-0.303389	-1.070065	0.867065
C128	C	0.196611	-0.570065	1.367065
C129	C	-0.263128	-1.117466	0.636147
C130	C	0.236872	-0.617466	1.136147
C131	C	-0.263134	-1.117475	0.570403
C132	C	0.236866	-0.617475	1.070403
C133	C	-0.343642	-1.022695	0.570358
C134	C	0.156358	-0.522695	1.070358
C135	C	-0.343640	-1.022692	0.636101
C136	C	0.156360	-0.522692	1.136101
C137	C	-0.303380	-1.070077	0.668991
C138	C	0.196620	-0.570077	1.168991
C139	C	-0.303406	-1.070078	1.139801
C140	C	0.196594	-0.570078	1.639801
C141	C	-0.303391	-1.070067	1.069833
C142	C	0.196609	-0.570067	1.569833
H143	H	-0.662263	-1.156066	0.230380
H144	H	-0.162263	-0.656066	0.730380
H145	H	-0.542997	-1.156008	0.230355
H146	H	-0.042997	-0.656008	0.730355
N147	N	-0.419306	-0.500429	0.329534
N148	N	0.080694	-0.000429	0.829534
H149	H	-0.441375	-0.543958	0.349347
H150	H	0.058625	-0.043958	0.849347
H151	H	-0.450777	-0.469474	0.305702
H152	H	0.049223	0.030526	0.805702
N153	N	-0.534350	-0.971491	0.386919
N154	N	-0.034350	-0.471491	0.886919
H155	H	-0.507036	-1.001546	0.416111
H156	H	-0.007036	-0.501546	0.916111
H157	H	-0.565195	-0.941486	0.412361
H158	H	-0.065195	-0.441486	0.912361
N159	N	-0.935139	-1.168708	0.219795
N160	N	-0.435139	-0.668708	0.719795
H161	H	-0.965930	-1.198752	0.194326
H162	H	-0.465930	-0.698752	0.694326
H163	H	-0.907823	-1.202942	0.245443
H164	H	-0.407823	-0.702942	0.745443
H165	H	-0.662313	-0.984081	0.376313
H166	H	-0.162313	-0.484081	0.876313
H167	H	-0.230345	-1.156049	0.662928
H168	H	0.269655	-0.656049	1.162928
H169	H	-0.943882	-0.984201	0.376364
H170	H	-0.443882	-0.484201	0.876364
H171	H	-0.376417	-0.984113	0.543574
H172	H	0.123583	-0.484113	1.043574
H173	H	-0.230355	-1.156065	0.543664
H174	H	0.269645	-0.656065	1.043664
N175	N	-0.419241	-0.640475	0.330459
N176	N	0.080759	-0.140475	0.830459
H177	H	-0.399133	-0.673187	0.363219
H178	H	0.100867	-0.173187	0.863219
H179	H	-0.452079	-0.669490	0.306748
H180	H	0.047921	-0.169490	0.806748
N181	N	-1.071790	-1.168780	0.219831
N182	N	-0.571790	-0.668780	0.719831
H183	H	-1.040983	-1.198789	0.194344
H184	H	-0.540983	-0.698789	0.694344
H185	H	-1.099105	-1.138672	0.190682
H186	H	-0.599105	-0.638672	0.690682
H187	H	-1.063151	-0.984257	0.376388
H188	H	-0.563151	-0.484257	0.876388
H189	H	-0.205200	-0.507033	0.266217
H190	H	0.294800	-0.007033	0.766217
H191	H	-0.376417	-0.984105	0.662842
H192	H	0.123583	-0.484105	1.162842
H193	H	-0.205481	-0.634262	0.266135
H194	H	0.294519	-0.134262	0.766135
H195	H	-0.265525	-0.506070	0.205883
H196	H	0.234475	-0.006070	0.705883
N197	N	-0.269391	-0.640344	0.189360
N198	N	0.230609	-0.140344	0.689360
H199	H	-0.275833	-0.596663	0.160550
H200	H	0.224167	-0.096663	0.660550
H201	H	-0.308870	-0.671216	0.190396
H202	H	0.191130	-0.171216	0.690396
H203	H	-0.318109	-0.634915	0.407644
H204	H	0.181891	-0.134915	0.907644
H205	H	-0.383708	-0.507897	0.236161
H206	H	0.116292	-0.007897	0.736161
N207	N	-0.219715	-1.168566	1.072453
N208	N	0.280285	-0.668566	1.572453
H209	H	-0.245297	-1.202872	1.099726
H210	H	0.254703	-0.702872	1.599726
H211	H	-0.190546	-1.138440	1.099698
H212	H	0.309454	-0.638440	1.599698
H213	H	-0.384228	-0.634969	0.237024
H214	H	0.115772	-0.134969	0.737024
H215	H	-0.239062	-0.506292	0.386499
H216	H	0.260938	-0.006292	0.886499
N217	N	-0.220457	-0.640449	0.387763
N218	N	0.279543	-0.140449	0.887763
H219	H	-0.203095	-0.672685	0.353168
H220	H	0.296905	-0.172685	0.853168
H221	H	-0.223249	-0.669964	0.427917
H222	H	0.276751	-0.169964	0.927917
N223	N	-0.333737	-0.501031	0.417784
N224	N	0.166263	-0.001031	0.917784
H225	H	-0.365860	-0.468564	0.396397
H226	H	0.134140	0.031436	0.896397
H227	H	-0.311380	-0.471778	0.451411
H228	H	0.188620	0.028222	0.951411
H229	H	-0.230355	-1.156041	0.944501
H230	H	0.269645	-0.656041	1.444501
N231	N	-0.387065	-0.971574	0.935724
N232	N	0.112935	-0.471574	1.435724
H233	H	-0.380954	-0.978763	0.889093
H234	H	0.119046	-0.478763	1.389093
H235	H	-0.377264	-0.918690	0.947210
H236	H	0.122736	-0.418690	1.447210
H237	H	-0.376433	-0.984096	1.063682
H238	H	0.123567	-0.484096	1.563682
