data_functionalizedCrystal
_audit_creation_method	'MofGen! by Chris Wilmer'
_symmetry_space_group_name_H-M	'P1'
_symmetry_Int_Tables_number	1
_symmetry_cell_setting	triclinic
loop_
_symmetry_equiv_pos_as_xyz
  x,y,z
_cell_length_a	12.645330
_cell_length_b	17.077404
_cell_length_c	17.077396
_cell_angle_alpha	89.982480
_cell_angle_beta	89.972961
_cell_angle_gamma	90.008032
loop_
_atom_site_label
_atom_site_type_symbol
_atom_site_fract_x
_atom_site_fract_y
_atom_site_fract_z
Zn1	Zn	-0.422161	1.200093	-0.443861
Zn2	Zn	-0.599449	1.200029	-0.312600
Zn3	Zn	-0.422186	1.068830	-0.312608
Zn4	Zn	-0.599369	1.068816	-0.443823
O5	O	-0.510791	1.134442	-0.378223
O6	O	-0.445702	1.309931	-0.426461
O7	O	-0.575979	1.182604	-0.202754
O8	O	-0.273835	1.086275	-0.330038
O9	O	-0.575955	1.309884	-0.330025
O10	O	-0.273817	1.182713	-0.426469
O11	O	-0.445744	1.086213	-0.202760
O12	O	-0.445666	0.958981	-0.330002
O13	O	-0.575818	1.086252	-0.553675
O14	O	-0.575842	0.958971	-0.426405
O15	O	-0.445624	1.182700	-0.553703
O16	O	-0.747786	1.182590	-0.329988
O17	O	-0.747727	1.086189	-0.426397
C18	C	-0.510749	0.930494	-0.378200
C19	C	-0.510756	0.843244	-0.378209
C20	C	-0.578725	0.467445	-0.428364
C21	C	-0.578711	0.549426	-0.428352
C22	C	-0.510819	0.590395	-0.378236
C23	C	-0.442944	0.549380	-0.328123
C24	C	-0.442964	0.467401	-0.328131
C25	C	-0.442906	0.720250	-0.328110
C26	C	-0.442884	0.802235	-0.328102
C27	C	-0.578653	0.802275	-0.428330
C28	C	-0.578673	0.720296	-0.428339
C29	C	-0.510796	0.679286	-0.378226
C30	C	-0.786221	1.134403	-0.378204
C31	C	-0.904051	1.134458	-0.378223
C32	C	-1.071608	1.195006	-0.317449
C33	C	-0.949048	1.195204	-0.317598
C34	C	-0.948435	1.156887	-0.460967
C35	C	-1.071034	1.157367	-0.460644
C36	C	-1.071369	1.051456	-0.357068
C37	C	-0.948765	1.051854	-0.355213
C38	C	-0.234286	1.134503	-0.378259
C39	C	-0.116456	1.134529	-0.378274
C40	C	-0.510709	1.134481	-0.582967
C41	C	-0.510674	1.134498	-0.670217
C42	C	-0.510835	1.339186	-0.378246
C43	C	-0.510853	1.426436	-0.378256
C44	C	-0.442853	1.084323	-0.711210
C45	C	-0.442829	1.084335	-0.793190
C46	C	-0.510621	1.134528	-0.834177
C47	C	-0.578450	1.184706	-0.793178
C48	C	-0.578479	1.184689	-0.711199
C49	C	-0.578384	1.184740	-0.964049
C50	C	-0.578354	1.184759	-1.046033
C51	C	-0.442734	1.084387	-1.046040
C52	C	-0.442763	1.084369	-0.964061
C53	C	-0.510590	1.134548	-0.923068
C54	C	-0.510797	1.134448	-0.174275
C55	C	-0.510533	1.134583	-0.087026
H56	H	-0.633952	0.686940	-0.469151
H57	H	-0.918145	1.004363	-0.396266
H58	H	-0.387555	1.043501	-0.930692
C59	C	-0.909049	1.099195	-0.523835
N60	N	-0.879379	1.055741	-0.571187
H61	H	-1.100372	1.006395	-0.401370
C62	C	-0.368254	0.594450	-0.273000
N63	N	-0.311990	0.628396	-0.231485
H64	H	-0.387693	0.434013	-0.287330
C65	C	-0.652937	1.239968	-1.091117
N66	N	-0.709116	1.281551	-1.125073
H67	H	-0.919043	1.181171	-0.256244
C68	C	-0.653263	1.239741	-0.838266
N69	N	-0.709697	1.281132	-0.872225
C70	C	-0.906862	1.237997	-0.485636
N71	N	-0.875552	1.299091	-0.504212
C72	C	-1.113249	1.023904	-0.276971
N73	N	-1.144792	1.003160	-0.216639
C74	C	-0.909576	1.029000	-0.272954
N75	N	-0.880048	1.011786	-0.210998
H76	H	-0.387642	1.043454	-0.677845
C77	C	-1.109564	1.239402	-0.484901
N78	N	-1.138580	1.301194	-0.503168
H79	H	-0.387606	1.043474	-0.826563
C80	C	-0.653083	1.239889	-0.666108
N81	N	-0.709278	1.281468	-0.632146
H82	H	-1.100696	1.115247	-0.507525
C83	C	-0.653380	0.594532	-0.483471
N84	N	-0.709626	0.628506	-0.524989
C85	C	-0.653321	0.847386	-0.483452
N86	N	-0.709557	0.881368	-0.524970
H87	H	-0.387590	0.835590	-0.287300
C88	C	-1.111541	1.176294	-0.234320
N89	N	-1.141624	1.162198	-0.171704
H90	H	-0.387631	0.686863	-0.287304
H91	H	-0.633607	1.225608	-0.930675
C92	C	-1.113151	1.277682	-0.336172
N93	N	-1.144451	1.339951	-0.350273
C94	C	-0.653415	0.422386	-0.483495
N95	N	-0.709679	0.388450	-0.525018
H96	H	-0.387505	1.043530	-1.079420
H97	H	-0.919646	1.256733	-0.331624
