data_functionalizedCrystal
_audit_creation_method	'MofGen! by Chris Wilmer'
_symmetry_space_group_name_H-M	'P1'
_symmetry_Int_Tables_number	1
_symmetry_cell_setting	triclinic
loop_
_symmetry_equiv_pos_as_xyz
  x,y,z
_cell_length_a	10.654541
_cell_length_b	10.489741
_cell_length_c	9.730217
_cell_angle_alpha	89.997012
_cell_angle_beta	89.999932
_cell_angle_gamma	84.511551
loop_
_atom_site_label
_atom_site_type_symbol
_atom_site_fract_x
_atom_site_fract_y
_atom_site_fract_z
O1	O	1.667922	0.179145	-0.114247
O2	O	1.302451	0.196218	-0.114259
O3	O	1.493503	0.002080	-0.114245
O4	O	1.476871	0.373284	-0.114261
O5	O	1.493497	0.002078	0.114336
O6	O	1.302445	0.196216	0.114321
O7	O	1.667916	0.179143	0.114333
Zn8	Zn	1.485180	0.187679	0.150619
Zn9	Zn	1.485188	0.187682	-0.150545
O10	O	1.476865	0.373282	0.114319
C11	C	1.255650	0.194964	0.000030
C12	C	1.116205	0.191216	0.000025
C13	C	1.492244	-0.045452	0.000045
C14	C	1.488486	-0.187080	0.000042
C15	C	1.088342	0.423360	-0.000003
C16	C	1.008902	0.537667	-0.000022
C17	C	0.877882	0.534137	-0.000023
C18	C	0.826301	0.416288	-0.000001
C19	C	0.905742	0.301982	0.000019
C20	C	1.036763	0.305524	0.000016
C21	C	0.933604	0.069840	0.000056
C22	C	1.064624	0.073367	0.000048
C23	C	0.882024	-0.048009	0.000078
C24	C	0.961465	-0.162318	0.000088
C25	C	1.092492	-0.158783	0.000088
C26	C	1.144065	-0.040939	0.000067
C27	C	1.366925	-0.255160	0.000028
C28	C	1.424346	-0.347312	0.112732
C29	C	1.424381	-0.347285	-0.112630
C30	C	1.545957	-0.277366	0.112839
C31	C	1.545974	-0.277330	-0.112624
C32	C	1.603484	-0.369454	0.000107
C33	C	1.714718	0.180397	0.000041
C34	C	1.854163	0.184146	0.000037
C35	C	1.478124	0.420814	0.000026
C36	C	1.481882	0.562441	0.000020
N37	N	1.485184	0.187677	0.356156
N38	N	1.485194	0.187674	-0.356082
C39	C	1.654430	0.015818	0.356159
C40	C	1.739061	-0.070107	0.428101
C41	C	1.739074	-0.070108	0.571980
C42	C	1.654444	0.015823	0.643922
C43	C	1.569812	0.101749	0.571980
C44	C	1.569811	0.101743	0.428097
C45	C	1.400562	0.273600	0.571977
C46	C	1.400554	0.273609	0.428097
C47	C	1.315932	0.359532	0.643918
C48	C	1.231305	0.445466	0.571977
C49	C	1.231296	0.445464	0.428088
C50	C	1.315922	0.359535	0.356156
H51	H	1.195024	0.426246	-0.000032
Br52	Br	1.853922	-0.186733	0.669619
H53	H	1.157166	-0.251866	0.000109
H54	H	1.050913	0.633617	-0.000036
H55	H	1.250746	-0.038050	0.000050
H56	H	1.315927	0.359530	0.239001
H57	H	1.162399	0.515419	0.630560
H58	H	1.703520	-0.418927	0.000173
H59	H	1.597368	-0.246309	-0.207909
H60	H	0.813200	0.627215	-0.000029
Br61	Br	0.648487	0.411499	0.000028
Br62	Br	1.338620	-0.398958	0.271541
H63	H	0.775340	-0.050875	0.000085
Br64	Br	1.631615	-0.226032	0.271825
Br65	Br	1.338621	-0.398890	-0.271430
H66	H	0.919457	-0.258261	0.000105
Br67	Br	1.654441	0.015831	0.160892
H68	H	1.807964	-0.140075	0.369513
H69	H	1.162374	0.515430	0.369521
Br70	Br	1.654440	0.015803	0.839189
H71	H	1.315941	0.359522	0.761073
H72	H	1.266979	-0.205460	0.000138
