data_functionalizedCrystal
_audit_creation_method	'MofGen! by Chris Wilmer'
_symmetry_space_group_name_H-M	'P1'
_symmetry_Int_Tables_number	1
_symmetry_cell_setting	triclinic
loop_
_symmetry_equiv_pos_as_xyz
  x,y,z
_cell_length_a	11.169417
_cell_length_b	29.839131
_cell_length_c	11.169409
_cell_angle_alpha	89.952226
_cell_angle_beta	89.980487
_cell_angle_gamma	90.036478
loop_
_atom_site_label
_atom_site_type_symbol
_atom_site_fract_x
_atom_site_fract_y
_atom_site_fract_z
Zn1	Zn	1.834755	-0.178802	-0.678404
Zn2	Zn	1.834557	-0.253943	-0.477667
Zn3	Zn	1.634041	-0.178830	-0.477739
Zn4	Zn	1.633961	-0.253907	-0.678313
O5	O	1.734328	-0.216371	-0.578031
O6	O	2.002678	-0.188773	-0.651784
O7	O	1.807909	-0.244006	-0.309727
O8	O	1.660782	-0.115959	-0.504427
O9	O	2.002533	-0.243979	-0.504303
O10	O	1.808246	-0.115939	-0.651854
O11	O	1.660590	-0.188821	-0.309780
O12	O	1.466080	-0.188786	-0.504338
O13	O	1.660646	-0.243918	-0.846275
O14	O	1.466022	-0.243945	-0.651699
O15	O	1.808168	-0.188738	-0.846342
O16	O	1.807831	-0.316806	-0.504214
O17	O	1.660454	-0.316779	-0.651628
C18	C	1.422504	-0.216365	-0.578017
C19	C	1.289104	-0.216373	-0.578040
C20	C	1.734145	-0.333093	-0.577930
C21	C	1.734177	-0.383028	-0.577926
C22	C	1.811096	-0.692625	-0.654906
C23	C	1.811226	-0.880299	-0.654978
O24	O	1.876446	-0.904525	-0.720353
N25	N	1.734532	-0.903813	-0.578164
C26	C	1.657794	-0.880406	-0.501332
O27	O	1.592556	-0.904712	-0.436008
C28	C	1.657659	-0.692734	-0.501267
C29	C	1.734367	-0.669222	-0.578077
C30	C	1.887797	-0.669114	-0.731710
C31	C	1.887768	-0.622198	-0.731687
C32	C	1.811039	-0.598795	-0.654859
C33	C	1.734338	-0.622306	-0.578054
C34	C	1.580916	-0.669327	-0.424442
C35	C	1.580887	-0.622406	-0.424435
C36	C	1.657595	-0.598895	-0.501245
C37	C	1.657580	-0.551987	-0.501202
N38	N	1.734274	-0.528473	-0.578016
C39	C	1.811003	-0.551877	-0.654844
C40	C	1.657873	-0.978936	-0.501370
C41	C	1.657908	-1.025854	-0.501385
C42	C	1.811338	-1.025744	-0.655032
C43	C	1.811308	-0.978825	-0.655011
C44	C	1.734567	-0.955422	-0.578184
C45	C	1.810938	-0.453351	-0.654789
C46	C	1.810906	-0.406431	-0.654755
C47	C	1.657472	-0.406546	-0.501112
C48	C	1.657507	-0.453461	-0.501141
C49	C	1.734245	-0.476863	-0.577989
O50	O	1.592385	-0.527732	-0.435871
O51	O	1.876214	-0.527562	-0.720178
C52	C	1.811125	-0.739541	-0.654929
C53	C	1.734424	-0.763053	-0.578124
C54	C	1.657695	-0.739649	-0.501296
C55	C	1.734459	-0.809971	-0.578139
C56	C	1.811189	-0.833374	-0.654967
C57	C	1.887883	-0.809860	-0.731781
C58	C	1.887854	-0.762945	-0.731757
C59	C	1.581001	-0.763163	-0.424482
C60	C	1.581037	-0.810079	-0.424511
C61	C	1.657766	-0.833482	-0.501339
C62	C	2.047371	-0.216377	-0.578045
C63	C	2.180771	-0.216380	-0.578051
C64	C	1.734421	-0.216321	-0.891073
C65	C	1.734460	-0.216300	-1.024474
C66	C	1.734545	-0.099192	-0.578159
C67	C	1.734637	-0.049258	-0.578213
C68	C	1.734306	-0.216388	-0.266206
C69	C	1.734499	-0.216283	-0.132807
H70	H	1.873375	-0.387289	-0.717303
H71	H	1.595055	-0.472606	-0.438587
H72	H	1.950316	-0.743805	-0.794304
H73	H	1.950226	-0.603058	-0.794236
H74	H	1.518574	-0.829218	-0.361951
O75	O	1.893710	-0.478583	-0.737673
H76	H	1.839985	-0.499950	-0.798717
O77	O	1.574721	-0.381296	-0.418251
H78	H	1.521390	-0.405525	-0.364832
O79	O	1.575181	-1.051207	-0.418522
H80	H	1.628943	-1.072582	-0.357500
H81	H	1.950363	-0.828923	-0.794333
H82	H	1.873816	-1.044807	-0.717587
O83	O	1.970566	-0.694353	-0.814577
H84	H	2.023891	-0.670114	-0.867967
H85	H	1.518391	-0.603354	-0.361875
O86	O	1.575117	-0.953697	-0.418483
H87	H	1.521813	-0.977934	-0.365066
H88	H	1.873770	-0.959684	-0.717557
O89	O	1.498178	-0.694678	-0.341596
H90	H	1.437106	-0.716056	-0.395269
H91	H	1.518517	-0.744112	-0.361921
