data_functionalizedCrystal
_audit_creation_method	'MofGen! by Chris Wilmer'
_symmetry_space_group_name_H-M	'P1'
_symmetry_Int_Tables_number	1
_symmetry_cell_setting	triclinic
loop_
_symmetry_equiv_pos_as_xyz
  x,y,z
_cell_length_a	15.944545
_cell_length_b	15.944551
_cell_length_c	14.048226
_cell_angle_alpha	90.003633
_cell_angle_beta	90.001909
_cell_angle_gamma	83.497455
loop_
_atom_site_label
_atom_site_type_symbol
_atom_site_fract_x
_atom_site_fract_y
_atom_site_fract_z
O1	O	1.114528	0.108304	0.079101
O2	O	0.869978	0.121666	0.079117
O3	O	0.998931	-0.007290	0.079100
O4	O	0.985575	0.237260	0.079118
O5	O	0.998919	-0.007289	-0.079221
O6	O	0.869965	0.121667	-0.079205
O7	O	1.114516	0.108306	-0.079220
Zn8	Zn	0.992239	0.114987	-0.104349
Zn9	Zn	0.992255	0.114985	0.104246
O10	O	0.985562	0.237261	-0.079203
C11	C	0.838677	0.121113	-0.000042
C12	C	0.745431	0.119453	-0.000036
C13	C	0.474798	0.034559	-0.000053
C14	C	0.525374	0.075489	-0.078113
C15	C	0.409787	0.113532	-0.000053
C16	C	0.525367	0.075509	0.077980
C17	C	0.574701	0.116437	-0.000043
C18	C	0.459135	0.154440	-0.078177
C19	C	0.459124	0.154449	0.077985
C20	C	0.509667	0.195436	-0.000094
C21	C	0.314785	0.111856	-0.000060
C22	C	0.669700	0.118119	-0.000044
C23	C	0.998370	-0.038583	-0.000061
C24	C	0.996708	-0.131829	-0.000061
C25	C	0.912803	-0.346684	-0.000043
C26	C	0.951760	-0.407701	-0.078107
C27	C	0.993701	-0.302555	-0.000054
C28	C	0.951791	-0.407686	0.077985
C29	C	0.990790	-0.467468	-0.000042
C30	C	1.032679	-0.362344	-0.078183
C31	C	1.032699	-0.362323	0.077980
C32	C	1.071715	-0.423322	-0.000104
C33	C	0.995375	-0.207553	-0.000061
C34	C	0.989122	-0.562469	-0.000042
C35	C	1.145816	0.108859	-0.000059
C36	C	1.239062	0.110519	-0.000059
C37	C	0.986123	0.268555	-0.000041
C38	C	0.987785	0.361801	-0.000034
N39	N	0.992234	0.114987	-0.246710
C40	C	0.941324	0.064001	-0.703578
C41	C	0.941320	0.063998	-0.603920
C42	C	0.992256	0.114978	-0.554080
C43	C	1.043204	0.165957	-0.603903
C44	C	1.043212	0.165955	-0.703558
C45	C	1.043185	0.165960	-0.396188
C46	C	1.043177	0.165964	-0.296526
C47	C	0.941293	0.064004	-0.296550
C48	C	0.941300	0.064001	-0.396206
C49	C	0.992248	0.114982	-0.446022
N50	N	0.992266	0.114978	0.246606
H51	H	0.525159	0.263501	-0.000135
O52	O	0.886369	0.009022	-0.550187
H53	H	0.850942	-0.026417	-0.601586
O54	O	0.563716	0.031296	-0.165513
H55	H	0.513131	0.007512	-0.208719
H56	H	0.845655	-0.313375	-0.000116
O57	O	1.078026	-0.335711	0.165400
H58	H	1.133888	-0.304743	0.143438
O59	O	0.886394	0.008989	-0.449969
H60	H	0.850982	-0.026477	-0.398589
H61	H	0.917569	-0.427763	0.143987
H62	H	0.459145	-0.033453	-0.000134
O63	O	0.420766	0.198584	0.165404
H64	H	0.447419	0.165657	0.230109
H65	H	0.554289	0.042142	0.143969
O66	O	0.886402	0.008999	-0.757334
H67	H	0.850990	-0.026461	-0.705947
H68	H	1.084650	0.207479	-0.255948
H69	H	0.917538	-0.427809	-0.144100
H70	H	0.430320	0.187768	-0.144242
O71	O	0.886350	0.009013	-0.242818
H72	H	0.819218	0.027254	-0.261941
H73	H	1.084695	0.207465	-0.744117
O74	O	1.098146	0.220942	-0.550151
H75	H	1.079871	0.288064	-0.569288
O76	O	1.098129	0.220949	-0.449924
H77	H	1.133540	0.256408	-0.398527
H78	H	1.066862	-0.342354	-0.144253
O79	O	1.160732	-0.467261	-0.000162
H80	H	1.194095	-0.449108	-0.065024
