data_functionalizedCrystal
_audit_creation_method	'MofGen! by Chris Wilmer'
_symmetry_space_group_name_H-M	'P1'
_symmetry_Int_Tables_number	1
_symmetry_cell_setting	triclinic
loop_
_symmetry_equiv_pos_as_xyz
  x,y,z
_cell_length_a	19.188930
_cell_length_b	19.188930
_cell_length_c	18.266242
_cell_angle_alpha	89.989745
_cell_angle_beta	89.977180
_cell_angle_gamma	83.144779
loop_
_atom_site_label
_atom_site_type_symbol
_atom_site_fract_x
_atom_site_fract_y
_atom_site_fract_z
O1	O	-0.926149	-0.087167	0.061124
O2	O	-0.722838	-0.098902	0.061075
O3	O	-0.830361	0.008621	0.061087
O4	O	-0.818627	-0.194690	0.061113
O5	O	-0.830343	0.008624	-0.060675
O6	O	-0.722820	-0.098899	-0.060687
O7	O	-0.926131	-0.087164	-0.060638
Zn8	Zn	-0.824473	-0.093031	-0.079994
Zn9	Zn	-0.824497	-0.093035	0.080432
O10	O	-0.818608	-0.194687	-0.060649
C11	C	-0.696818	-0.098520	0.000188
C12	C	-0.619313	-0.097380	0.000169
C13	C	-0.829972	0.034634	0.000204
C14	C	-0.828831	0.112138	0.000197
C15	C	-0.952151	-0.087546	0.000252
C16	C	-1.029656	-0.088687	0.000276
C17	C	-0.574389	-0.160470	0.000188
C18	C	-0.501566	-0.159399	0.000196
C19	C	-0.473669	-0.095233	0.000199
C20	C	-0.518603	-0.032133	0.000175
C21	C	-0.591425	-0.033207	0.000160
N22	N	-0.365695	-0.046187	0.041663
N23	N	-0.296517	-0.045171	0.041679
C24	C	-0.254260	-0.091994	0.000243
N25	N	-0.283795	-0.139882	-0.041200
N26	N	-0.352980	-0.140900	-0.041213
C27	C	-0.394707	-0.094062	0.000215
C28	C	-0.130372	-0.153928	0.000270
C29	C	-0.057547	-0.152853	0.000274
C30	C	-0.074586	-0.025586	0.000261
C31	C	-0.147409	-0.026662	0.000250
C32	C	-0.175298	-0.090835	0.000258
C33	C	-0.818997	-0.220700	0.000236
C34	C	-0.820138	-0.298204	0.000247
N35	N	-0.824461	-0.093028	-0.189481
C36	C	-0.891922	0.157062	0.000209
C37	C	-0.890850	0.229886	0.000220
C38	C	-0.826684	0.257782	0.000206
C39	C	-0.763585	0.212849	0.000198
C40	C	-0.764658	0.140026	0.000194
N41	N	-0.777631	0.365788	-0.041244
N42	N	-0.776615	0.434967	-0.041242
C43	C	-0.823446	0.477191	0.000220
N44	N	-0.871341	0.447625	0.041669
N45	N	-0.872359	0.378440	0.041664
C46	C	-0.825513	0.336745	0.000210
C47	C	-0.885379	0.601079	0.000245
C48	C	-0.884305	0.673904	0.000261
C49	C	-0.757038	0.656865	0.000231
C50	C	-0.758114	0.584042	0.000222
C51	C	-0.822287	0.556154	0.000226
C52	C	-0.866670	-0.135273	-0.227768
C53	C	-0.866682	-0.135271	-0.304413
C54	C	-0.824471	-0.093032	-0.342768
C55	C	-0.782260	-0.050778	-0.304473
C56	C	-0.782254	-0.050776	-0.227829
N57	N	-0.763324	-0.091312	-0.463136
N58	N	-0.763330	-0.091318	-0.535944
C59	C	-0.824485	-0.093035	-0.573691
N60	N	-0.885634	-0.094759	-0.535878
N61	N	-0.885626	-0.094757	-0.463064
C62	C	-0.824472	-0.093029	-0.425875
C63	C	-0.866711	-0.135280	-0.695084
C64	C	-0.866724	-0.135273	-0.771730
C65	C	-0.782295	-0.050784	-0.771789
C66	C	-0.782288	-0.050787	-0.695144
C67	C	-0.824495	-0.093039	-0.656796
N68	N	-0.824513	-0.093033	0.189919
H69	H	-0.597091	-0.212725	0.000196
H70	H	-0.153080	-0.206181	0.000267
O71	O	-0.907604	-0.176297	-0.190404
C72	C	-0.898562	-0.167227	-0.114546
H73	H	-0.845748	-0.147444	-0.104107
H74	H	-0.942478	-0.127348	-0.092781
C75	C	-0.965574	-0.262210	-0.088003
C76	C	-0.900703	-0.237919	-0.075182
H77	H	-0.966897	-0.305815	-0.063721
H78	H	-0.971668	-0.268319	-0.139111
H79	H	-1.002163	-0.228971	-0.069866
H80	H	-0.864116	-0.271153	-0.093328
H81	H	-0.894603	-0.231816	-0.024077
H82	H	-0.901054	-0.169675	-0.335591
O83	O	-0.907747	-0.176378	-0.808811
C84	C	-0.945008	-0.213654	-0.758524
H85	H	-0.916087	-0.217798	-0.703905
H86	H	-0.999900	-0.184761	-0.750350
C87	C	-0.986145	-0.282718	-0.855505
C88	C	-0.950621	-0.287812	-0.788422
H89	H	-0.989611	-0.328460	-0.873947
H90	H	-0.961044	-0.257602	-0.889384
H91	H	-1.031885	-0.258637	-0.848683
H92	H	-0.904879	-0.311884	-0.795246
H93	H	-0.975715	-0.312933	-0.754544
O94	O	-0.741182	-0.009722	-0.190748
C95	C	-0.703943	0.027579	-0.241032
H96	H	-0.699783	-0.001333	-0.295664
H97	H	-0.732877	0.082455	-0.249177
C98	C	-0.634907	0.068759	-0.144060
C99	C	-0.629793	0.033245	-0.211158
H100	H	-0.589169	0.072258	-0.125631
H101	H	-0.659998	0.043631	-0.110181
H102	H	-0.659022	0.114486	-0.150856
H103	H	-0.605687	-0.012483	-0.204359
H104	H	-0.604697	0.058365	-0.245034
H105	H	-0.944176	0.134360	0.000214
H106	H	-0.020970	-0.204232	0.000285
H107	H	-0.713281	0.103448	0.000184
O108	O	-0.047580	0.036790	0.000361
C109	C	-0.070578	0.075228	0.063424
H110	H	-0.121040	0.056354	0.084441
H111	H	-0.028435	0.067012	0.107590
C112	C	-0.022484	0.176995	0.018444
C113	C	-0.084465	0.153816	0.044254
H114	H	-0.031047	0.225472	0.006621
H115	H	-0.006987	0.151098	-0.024042
H116	H	0.012629	0.170142	0.055253
H117	H	-0.119574	0.160661	0.007442
H118	H	-0.099968	0.179717	0.086733
O119	O	-0.947774	0.574099	0.000294
C120	C	-1.003232	0.629371	0.000299
H121	H	-0.983814	0.678779	0.023347
H122	H	-1.022681	0.639748	-0.058109
C123	C	-1.087621	0.548303	0.019760
C124	C	-1.063772	0.608985	0.048075
H125	H	-1.124966	0.535728	0.049228
H126	H	-1.050258	0.511065	0.019754
H127	H	-1.103823	0.556959	-0.028913
H128	H	-1.047562	0.600326	0.096743
H129	H	-1.101133	0.646222	0.048090
H130	H	-0.495885	0.020111	0.000188
O131	O	-0.191122	0.034580	0.000339
C132	C	-0.233777	0.037771	0.063402
H133	H	-0.237303	-0.017638	0.084428
H134	H	-0.209938	0.069582	0.107563
C135	C	-0.303480	0.141187	0.018407
C136	C	-0.307815	0.073133	0.044228
H137	H	-0.349149	0.163003	0.006581
H138	H	-0.274741	0.139039	-0.024079
H139	H	-0.283611	0.167688	0.055212
H140	H	-0.327675	0.046631	0.007420
H141	H	-0.336559	0.075277	0.086707
O142	O	-0.952120	0.273565	0.000356
C143	C	-0.955314	0.316201	0.063409
H144	H	-0.919544	0.289413	0.107483
H145	H	-0.937396	0.369103	0.049150
C146	C	-1.075261	0.360402	0.037876
C147	C	-1.031332	0.327497	0.092011
H148	H	-1.122152	0.367373	0.055517
H149	H	-1.073109	0.331679	-0.004606
H150	H	-1.060320	0.404483	0.025998
H151	H	-1.046267	0.283414	0.103880
H152	H	-1.033488	0.356213	0.134495
H153	H	-0.901078	-0.169684	-0.663859
O154	O	-0.741310	-0.009816	-0.809152
C155	C	-0.750337	-0.018904	-0.885011
H156	H	-0.770047	-0.071755	-0.895441
H157	H	-0.790256	0.024960	-0.906791
C158	C	-0.655440	0.048223	-0.911552
C159	C	-0.679643	-0.016693	-0.924364
H160	H	-0.611834	0.049590	-0.935828
H161	H	-0.649360	0.054348	-0.860445
H162	H	-0.688713	0.084769	-0.929702
H163	H	-0.646375	-0.053237	-0.906205
H164	H	-0.685716	-0.022824	-0.975469
H165	H	-0.747892	-0.016386	-0.335707
H166	H	-0.747914	-0.016389	-0.663971
O167	O	-0.701298	0.240027	0.000280
C168	C	-0.696873	0.281616	0.063351
H169	H	-0.751963	0.299917	0.084386
H170	H	-0.665893	0.249340	0.107502
C171	C	-0.591809	0.323446	0.018352
C172	C	-0.659472	0.345928	0.044185
H173	H	-0.568736	0.363116	0.006532
H174	H	-0.594788	0.295425	-0.024139
H175	H	-0.566002	0.296549	0.055150
H176	H	-0.685281	0.372817	0.007385
H177	H	-0.656497	0.373956	0.086670
O178	O	-0.694663	0.683873	0.000120
C179	C	-0.656211	0.660927	-0.062961
H180	H	-0.675079	0.610480	-0.083987
H181	H	-0.664421	0.703104	-0.107113
C182	C	-0.554457	0.708992	-0.017997
C183	C	-0.577626	0.647029	-0.043818
H184	H	-0.505982	0.700422	-0.006191
H185	H	-0.580363	0.724454	0.024501
H186	H	-0.561304	0.744134	-0.054795
H187	H	-0.570787	0.611892	-0.007017
H188	H	-0.551717	0.631561	-0.086309
H189	H	-0.935683	0.710481	0.000274
H190	H	-0.464982	-0.210776	0.000210
H191	H	-0.628003	0.018171	0.000145
H192	H	-0.706738	0.547464	0.000208
