data_functionalizedCrystal
_audit_creation_method	'MofGen! by Chris Wilmer'
_symmetry_space_group_name_H-M	'P1'
_symmetry_Int_Tables_number	1
_symmetry_cell_setting	triclinic
loop_
_symmetry_equiv_pos_as_xyz
  x,y,z
_cell_length_a	15.944493
_cell_length_b	15.944551
_cell_length_c	14.048226
_cell_angle_alpha	90.004563
_cell_angle_beta	90.004283
_cell_angle_gamma	83.486891
loop_
_atom_site_label
_atom_site_type_symbol
_atom_site_fract_x
_atom_site_fract_y
_atom_site_fract_z
O1	O	1.114555	0.108099	0.079150
O2	O	1.614555	0.608099	0.579150
O3	O	0.869999	0.121506	0.079155
O4	O	1.369999	0.621506	0.579155
O5	O	0.998955	-0.007474	0.079144
O6	O	1.498955	0.492526	0.579144
O7	O	0.985599	0.237078	0.079161
O8	O	1.485599	0.737078	0.579161
O9	O	0.998943	-0.007475	-0.079178
O10	O	1.498943	0.492525	0.420822
O11	O	0.869986	0.121505	-0.079166
O12	O	1.369986	0.621505	0.420834
O13	O	1.114543	0.108098	-0.079171
O14	O	1.614543	0.608098	0.420829
Zn15	Zn	0.992263	0.114801	-0.104306
Zn16	Zn	1.492263	0.614801	0.395694
Zn17	Zn	0.992279	0.114802	0.104289
Zn18	Zn	1.492279	0.614802	0.604289
O19	O	0.985586	0.237077	-0.079160
O20	O	1.485586	0.737077	0.420840
C21	C	0.838698	0.120957	-0.000005
C22	C	1.338698	0.620957	0.499995
C23	C	0.745449	0.119314	-0.000004
C24	C	1.245449	0.619314	0.499996
C25	C	0.509689	0.195235	0.000003
C26	C	1.009689	0.695235	0.500003
C27	C	0.459125	0.154293	-0.078065
C28	C	0.959125	0.654293	0.421935
C29	C	0.574728	0.116270	-0.000006
C30	C	1.074728	0.616270	0.499994
C31	C	0.459142	0.154276	0.078027
C32	C	0.959142	0.654276	0.578027
C33	C	0.409819	0.113336	-0.000003
C34	C	0.909819	0.613336	0.499997
C35	C	0.525392	0.075350	-0.078138
C36	C	1.025392	0.575350	0.421862
C37	C	0.525412	0.075344	0.078025
C38	C	1.025412	0.575344	0.578025
C39	C	0.474880	0.034345	-0.000062
C40	C	0.974880	0.534345	0.499938
C41	C	0.669728	0.117963	-0.000008
C42	C	1.169728	0.617963	0.499992
C43	C	0.314821	0.111637	-0.000008
C44	C	0.814821	0.611637	0.499992
C45	C	0.998395	-0.038768	-0.000017
C46	C	1.498395	0.461232	0.499983
C47	C	0.996732	-0.132014	-0.000018
C48	C	1.496732	0.367986	0.499982
C49	C	0.912826	-0.346853	-0.000003
C50	C	1.412826	0.153147	0.499997
C51	C	0.951783	-0.407879	-0.078066
C52	C	1.451783	0.092121	0.421934
C53	C	0.993725	-0.302739	-0.000010
C54	C	1.493725	0.197261	0.499990
C55	C	0.951814	-0.407862	0.078027
C56	C	1.451814	0.092138	0.578027
C57	C	0.990814	-0.467651	0.000001
C58	C	1.490814	0.032349	0.500001
C59	C	1.032704	-0.362537	-0.078137
C60	C	1.532704	0.137463	0.421863
C61	C	1.032724	-0.362513	0.078025
C62	C	1.532724	0.137487	0.578025
C63	C	1.071741	-0.423521	-0.000057
C64	C	1.571741	0.076479	0.499943
C65	C	0.995399	-0.207737	-0.000017
C66	C	1.495399	0.292263	0.499983
C67	C	0.989146	-0.562652	0.000002
C68	C	1.489146	-0.062652	0.500002
C69	C	1.145844	0.108646	-0.000009
C70	C	1.645844	0.608646	0.499991
C71	C	1.239092	0.110289	-0.000004
C72	C	1.739092	0.610289	0.499996
C73	C	0.986147	0.268372	0.000003
C74	C	1.486147	0.768372	0.500003
C75	C	0.987809	0.361617	0.000010
C76	C	1.487809	0.861617	0.500010
N77	N	0.992258	0.114799	-0.246666
N78	N	1.492258	0.614799	0.253334
C79	C	1.043202	0.165768	-0.296478
C80	C	1.543202	0.665768	0.203522
C81	C	1.043213	0.165764	-0.396135
C82	C	1.543213	0.665764	0.103865
C83	C	0.992274	0.114796	-0.445980
C84	C	1.492274	0.614796	0.054020
C85	C	0.941328	0.063822	-0.396162
C86	C	1.441328	0.563822	0.103838
C87	C	0.941322	0.063822	-0.296506
C88	C	1.441322	0.563822	0.203494
C89	C	0.941342	0.063828	-0.603876
C90	C	1.441342	0.563828	-0.103876
C91	C	0.941346	0.063829	-0.703539
C92	C	1.441346	0.563829	-0.203539
C93	C	1.043232	0.165770	-0.703505
C94	C	1.543232	0.665770	-0.203505
C95	C	1.043227	0.165770	-0.603849
C96	C	1.543227	0.665770	-0.103849
C97	C	0.992279	0.114797	-0.554038
C98	C	1.492279	0.614797	-0.054038
N99	N	0.992290	0.114797	0.246650
N100	N	1.492290	0.614797	0.746650
H101	H	0.845675	-0.313532	-0.000079
H102	H	1.345675	0.186468	0.499921
H103	H	0.554215	0.042022	-0.144203
H104	H	1.054215	0.542022	0.355797
H105	H	0.917561	-0.427981	-0.144060
H106	H	1.417561	0.072019	0.355940
C107	C	1.078917	-0.335323	0.167186
C108	C	1.578917	0.164677	0.667186
N109	N	1.113703	-0.314841	0.234350
N110	N	1.613703	0.185159	0.734350
H111	H	0.430182	0.187641	-0.144060
H112	H	0.930182	0.687641	0.355940
H113	H	0.554363	0.042022	0.144023
H114	H	1.054363	0.542022	0.644023
H115	H	0.430208	0.187640	0.144018
H116	H	0.930208	0.687640	0.644018
C117	C	0.885295	0.007756	-0.549086
C118	C	1.385295	0.507756	-0.049086
N119	N	0.843077	-0.034472	-0.507818
N120	N	1.343077	0.465528	-0.007818
H121	H	0.899867	0.022327	-0.744120
H122	H	1.399867	0.522327	-0.244120
C123	C	1.162534	-0.468345	-0.000120
C124	C	1.662534	0.031655	0.499880
N125	N	1.230917	-0.502109	-0.000174
N126	N	1.730917	-0.002109	0.499826
C127	C	1.078882	-0.335544	-0.167396
C128	C	1.578882	0.164456	0.332604
N129	N	1.113658	-0.315209	-0.234626
N130	N	1.613658	0.184791	0.265374
H131	H	0.899858	0.022319	-0.436753
H132	H	1.399858	0.522319	0.063247
C133	C	0.905578	-0.434986	0.167182
C134	C	1.405578	0.065014	0.667182
N135	N	0.870747	-0.455412	0.234331
N136	N	1.370747	0.044588	0.734331
H137	H	1.084677	0.207277	-0.255901
H138	H	1.584677	0.707277	0.244099
H139	H	1.084712	0.207278	-0.744066
H140	H	1.584712	0.707278	-0.244066
C141	C	1.099222	0.221867	-0.450923
C142	C	1.599222	0.721867	0.049077
N143	N	1.141399	0.264137	-0.492189
N144	N	1.641399	0.764137	0.007811
C145	C	0.885278	0.007754	-0.241714
C146	C	1.385278	0.507754	0.258286
N147	N	0.843065	-0.034479	-0.200446
N148	N	1.343065	0.465521	0.299554
H149	H	0.459415	-0.033726	-0.000112
H150	H	0.959415	0.466274	0.499888
H151	H	0.525313	0.263254	-0.000066
H152	H	1.025313	0.763254	0.499934
H153	H	1.084701	0.207277	-0.563269
H154	H	1.584701	0.707277	-0.063269
