data_functionalizedCrystal
_audit_creation_method	'MofGen! by Chris Wilmer'
_symmetry_space_group_name_H-M	'P1'
_symmetry_Int_Tables_number	1
_symmetry_cell_setting	triclinic
loop_
_symmetry_equiv_pos_as_xyz
  x,y,z
_cell_length_a	6.817900
_cell_length_b	19.551823
_cell_length_c	10.773894
_cell_angle_alpha	96.640095
_cell_angle_beta	96.645922
_cell_angle_gamma	101.663376
loop_
_atom_site_label
_atom_site_type_symbol
_atom_site_fract_x
_atom_site_fract_y
_atom_site_fract_z
V1	V	-3.940090	-0.094103	-0.389512
O2	O	-3.938613	0.007164	-0.381497
O3	O	-3.883197	-0.189132	-0.387425
O4	O	-3.857996	-0.091497	-0.559128
O5	O	-3.963989	-0.091148	-0.208605
V6	V	-4.429184	-0.082128	-0.367804
O7	O	-4.189127	-0.120373	-0.437130
O8	O	-4.630344	-0.055858	-0.320186
O9	O	-4.262870	0.012901	-0.369891
O10	O	-4.548057	-0.183395	-0.375819
O11	O	-4.522681	-0.085084	-0.548710
O12	O	-4.288072	-0.084734	-0.198188
C13	C	-3.727222	-0.212335	-0.381429
C14	C	-3.761768	-0.290015	-0.380854
C15	C	-3.958524	-0.330021	-0.386821
C16	C	-3.990985	-0.403011	-0.386293
C17	C	-3.826676	-0.435989	-0.379772
C18	C	-3.629893	-0.395974	-0.373811
C19	C	-3.597439	-0.322987	-0.374352
C20	C	-3.729160	-0.542999	-0.300672
C21	C	-3.761620	-0.615984	-0.300124
C22	C	-3.926768	-0.661106	-0.378109
C23	C	-4.059484	-0.633232	-0.456628
C24	C	-4.027030	-0.560245	-0.457169
C25	C	-3.861847	-0.515131	-0.379186
C26	C	-4.158736	-0.780256	-0.383506
C27	C	-4.191192	-0.853248	-0.382986
C28	C	-3.830092	-0.846208	-0.370491
C29	C	-3.797643	-0.773219	-0.371024
C30	C	-3.961972	-0.740247	-0.377526
C31	C	-3.695074	-0.087790	-0.600452
C32	C	-3.709181	-0.086287	-0.739118
C33	C	-3.887023	-0.088891	-0.806996
C34	C	-3.901606	-0.087338	-0.950315
C35	C	-4.082187	0.036100	-0.375883
C36	C	-4.026878	0.113779	-0.376467
C37	C	-4.114336	-0.088444	-0.156857
C38	C	-4.079469	-0.089943	-0.018190
H39	H	-4.135090	-0.537554	-0.521103
H40	H	-3.637423	-0.740645	-0.366157
F41	F	-4.200410	-0.445597	-0.392646
F42	F	-4.264386	-0.094348	-0.955475
H43	H	-4.193748	-0.669979	-0.520303
H44	H	-4.292542	-0.753409	-0.388798
F45	F	-3.620391	-0.645641	-0.216543
H46	H	-3.567718	-0.082903	-0.787107
F47	F	-3.655219	-0.881302	-0.363563
F48	F	-4.400617	-0.895826	-0.389346
F49	F	-4.133418	-0.294933	-0.393726
H50	H	-3.594662	-0.506266	-0.237172
H51	H	-3.496114	-0.422830	-0.368505
H52	H	-3.437214	-0.290414	-0.369493
F53	F	-3.716684	-0.082916	-1.013028
F54	F	-4.071931	-0.093310	-0.744277
