data_functionalizedCrystal
_audit_creation_method	'MofGen! by Chris Wilmer'
_symmetry_space_group_name_H-M	'P1'
_symmetry_Int_Tables_number	1
_symmetry_cell_setting	triclinic
loop_
_symmetry_equiv_pos_as_xyz
  x,y,z
_cell_length_a	8.559649
_cell_length_b	9.730217
_cell_length_c	8.597278
_cell_angle_alpha	97.703300
_cell_angle_beta	77.625102
_cell_angle_gamma	90.001062
loop_
_atom_site_label
_atom_site_type_symbol
_atom_site_fract_x
_atom_site_fract_y
_atom_site_fract_z
O1	O	2.119291	0.107975	-0.053144
O2	O	1.655351	0.117560	0.027756
O3	O	1.896450	0.085581	-0.242262
O4	O	1.878192	0.139955	0.216873
O5	O	1.896443	-0.142999	-0.242263
O6	O	1.655343	-0.111020	0.027755
O7	O	2.119283	-0.120605	-0.053146
Zn8	Zn	1.887312	-0.152104	-0.012696
Zn9	Zn	1.887322	0.149060	-0.012694
O10	O	1.878184	-0.088625	0.216872
C11	C	1.595913	0.003997	0.033886
C12	C	1.418818	0.006160	0.052135
N13	N	1.887317	-0.357641	-0.012699
C14	C	2.100899	-0.385944	-0.251749
C15	C	2.207701	-0.472035	-0.371271
C16	C	2.207717	-0.615915	-0.371274
C17	C	2.100917	-0.673706	-0.251745
C18	C	1.994115	-0.587616	-0.132223
C19	C	1.994114	-0.443733	-0.132231
C20	C	1.780528	-0.559314	0.106817
C21	C	1.780517	-0.415433	0.106830
C22	C	1.673727	-0.617106	0.226346
C23	C	1.566931	-0.531014	0.345878
C24	C	1.566920	-0.387125	0.345877
C25	C	1.673715	-0.329342	0.226352
C26	C	2.178721	-0.007039	-0.059276
C27	C	2.355816	-0.009193	-0.077525
C28	C	1.894485	-0.035603	-0.300498
C29	C	1.888621	-0.056143	-0.474018
N30	N	1.887330	0.354595	-0.012705
C31	C	1.880149	0.032561	0.275108
C32	C	1.886013	0.053111	0.448628
H33	H	1.437360	-0.023986	-0.202495
H34	H	1.337265	0.020968	0.177113
H35	H	2.100910	-0.268789	-0.251748
H36	H	1.479974	-0.578078	0.443184
H37	H	2.294654	-0.424969	-0.468594
H38	H	2.294679	-0.686012	-0.468604
H39	H	2.100923	-0.790863	-0.251766
H40	H	1.673721	-0.212188	0.226345
H41	H	1.886362	-0.165400	-0.540539
H42	H	1.673738	-0.734262	0.226333
H43	H	1.888250	0.162376	-0.484837
H44	H	1.479943	-0.317036	0.443201
