data_functionalizedCrystal
_audit_creation_method	'MofGen! by Chris Wilmer'
_symmetry_space_group_name_H-M	'P1'
_symmetry_Int_Tables_number	1
_symmetry_cell_setting	triclinic
loop_
_symmetry_equiv_pos_as_xyz
  x,y,z
_cell_length_a	17.038272
_cell_length_b	11.026607
_cell_length_c	9.482900
_cell_angle_alpha	78.599815
_cell_angle_beta	80.031374
_cell_angle_gamma	80.151214
loop_
_atom_site_label
_atom_site_type_symbol
_atom_site_fract_x
_atom_site_fract_y
_atom_site_fract_z
O1	O	1.084694	-0.249410	-0.120828
O2	O	1.584694	0.250590	0.379172
O3	O	0.856466	-0.245161	-0.120844
O4	O	1.356466	0.254839	0.379156
O5	O	0.951664	-0.068680	-0.120832
O6	O	1.451664	0.431320	0.379168
O7	O	0.989496	-0.425891	-0.120840
O8	O	1.489496	0.074109	0.379160
O9	O	0.932349	-0.104682	0.120958
O10	O	1.432349	0.395318	0.620958
O11	O	0.837151	-0.281163	0.120946
O12	O	1.337151	0.218837	0.620946
O13	O	1.065379	-0.285411	0.120962
O14	O	1.565379	0.214589	0.620962
Cu15	Cu	0.949501	-0.286574	0.143031
Cu16	Cu	1.449501	0.213426	0.643031
Cu17	Cu	0.972343	-0.243998	-0.142914
Cu18	Cu	1.472343	0.256002	0.357086
O19	O	0.970180	-0.461892	0.120950
O20	O	1.470180	0.038108	0.620950
C21	C	0.817136	-0.259300	0.000049
C22	C	1.317136	0.240700	0.500049
C23	C	0.728720	-0.247777	0.000043
C24	C	1.228720	0.252223	0.500043
C25	C	1.104709	-0.271272	0.000065
C26	C	1.604709	0.228728	0.500065
C27	C	1.193125	-0.282794	0.000062
C28	C	1.693125	0.217206	0.500062
C29	C	1.228334	-0.177009	0.000060
C30	C	1.728334	0.322991	0.500060
C31	C	1.311410	-0.187843	0.000065
C32	C	1.811410	0.312157	0.500065
C33	C	1.359278	-0.304461	0.000062
C34	C	1.859278	0.195539	0.500062
C35	C	1.324064	-0.410254	0.000069
C36	C	1.824064	0.089746	0.500069
C37	C	1.240988	-0.399420	0.000074
C38	C	1.740988	0.100580	0.500074
C39	C	1.610430	-0.342736	0.000055
C40	C	2.110430	0.157264	0.500055
C41	C	1.693512	-0.353562	0.000045
C42	C	2.193512	0.146438	0.500045
C43	C	1.680852	-0.131150	0.000044
C44	C	2.180852	0.368850	0.500044
C45	C	1.597776	-0.120325	0.000041
C46	C	2.097776	0.379675	0.500041
C47	C	1.562568	-0.226119	0.000055
C48	C	2.062568	0.273881	0.500055
C49	C	1.444196	-0.315537	0.000062
C50	C	1.944196	0.184463	0.500062
C51	C	1.477651	-0.215043	0.000065
C52	C	1.977651	0.284957	0.500065
C53	C	0.935028	-0.040749	0.000061
C54	C	1.435028	0.459251	0.500061
C55	C	0.914223	0.096113	0.000054
C56	C	1.414223	0.596113	0.500054
C57	C	0.986817	-0.489823	0.000054
C58	C	1.486817	0.010177	0.500054
C59	C	1.007622	-0.626684	0.000051
C60	C	1.507622	-0.126684	0.500051
N61	N	0.933440	-0.316520	0.344149
N62	N	1.433440	0.183480	0.844149
C63	C	0.971669	0.163988	0.000056
C64	C	1.471669	0.663988	0.500056
C65	C	0.950168	0.305443	0.000049
C66	C	1.450168	0.805443	0.500049
N67	N	0.988409	-0.214044	-0.344032
N68	N	1.488409	0.285956	0.155968
C69	C	0.967600	-0.252824	0.416353
C70	C	1.467600	0.247176	0.916353
C71	C	0.954244	-0.277749	0.583769
C72	C	1.454244	0.222251	1.083769
H73	H	1.189365	-0.082045	0.000053
H74	H	1.689365	0.417955	0.500053
H75	H	1.036768	0.117374	0.000069
H76	H	1.536768	0.617374	0.500069
Br77	Br	1.509167	-0.473799	0.000045
Br78	Br	2.009167	0.026201	0.500045
H79	H	0.915106	-0.350734	0.645888
H80	H	1.415106	0.149266	1.145888
Br81	Br	1.116136	0.295649	0.000046
Br82	Br	1.616136	0.795649	0.500046
H83	H	0.885065	0.352052	0.000035
H84	H	1.385065	0.852052	0.500035
Br85	Br	1.032582	-0.130843	0.312820
Br86	Br	1.532582	0.369157	0.812820
Br87	Br	1.053865	-0.092695	0.552445
Br88	Br	1.553865	0.407305	1.052445
Br89	Br	1.359189	-0.044274	0.000076
Br90	Br	1.859189	0.455726	0.500076
H91	H	0.894304	-0.389500	0.406274
H92	H	1.394304	0.110500	0.906274
Br93	Br	0.805717	0.173794	0.000025
Br94	Br	1.305717	0.673794	0.500025
Br95	Br	1.728637	0.012418	0.000032
Br96	Br	2.228637	0.512418	0.500032
Br97	Br	1.532822	0.037957	-0.000019
Br98	Br	2.032822	0.537957	0.499981
Br99	Br	1.389026	-0.568525	0.000072
Br100	Br	1.889026	-0.068525	0.500072
Br101	Br	1.758476	-0.511839	0.000038
Br102	Br	2.258476	-0.011839	0.500038
H103	H	1.438674	-0.120091	0.000051
H104	H	1.938674	0.379909	0.500051
H105	H	1.581775	-0.428881	0.000059
H106	H	2.081775	0.071119	0.500059
Br107	Br	1.193203	-0.542993	0.000094
Br108	Br	1.693203	-0.042993	0.500094
