data_functionalizedCrystal
_audit_creation_method	'MofGen! by Chris Wilmer'
_symmetry_space_group_name_H-M	'P1'
_symmetry_Int_Tables_number	1
_symmetry_cell_setting	triclinic
loop_
_symmetry_equiv_pos_as_xyz
  x,y,z
_cell_length_a	12.827893
_cell_length_b	12.827892
_cell_length_c	19.077314
_cell_angle_alpha	87.679092
_cell_angle_beta	92.283789
_cell_angle_gamma	90.015553
loop_
_atom_site_label
_atom_site_type_symbol
_atom_site_fract_x
_atom_site_fract_y
_atom_site_fract_z
Zn1	Zn	1.573897	-0.392326	-0.397935
Zn2	Zn	1.580821	-0.574098	-0.280247
Zn3	Zn	1.406168	-0.399372	-0.280257
Zn4	Zn	1.399125	-0.567028	-0.397909
O5	O	1.490003	-0.483206	-0.339087
O6	O	1.721051	-0.416449	-0.382330
O7	O	1.563499	-0.556828	-0.181758
O8	O	1.428467	-0.252200	-0.295882
O9	O	1.726138	-0.549996	-0.295866
O10	O	1.551697	-0.247024	-0.382340
O11	O	1.435182	-0.428457	-0.181765
O12	O	1.258998	-0.421601	-0.295856
O13	O	1.416463	-0.537945	-0.496402
O14	O	1.253824	-0.544777	-0.382295
O15	O	1.544867	-0.409593	-0.496422
O16	O	1.556669	-0.719397	-0.295840
O17	O	1.423178	-0.714202	-0.382286
C18	C	1.218494	-0.483187	-0.339074
C19	C	1.102340	-0.483204	-0.339085
C20	C	1.053084	-0.422163	-0.296389
C21	C	0.933033	-0.422179	-0.296399
C22	C	1.489938	-0.754717	-0.339074
C23	C	1.490005	-0.870869	-0.339093
C24	C	1.556133	-0.925186	-0.296364
C25	C	1.556204	-1.045236	-0.296382
C26	C	1.762572	-0.483225	-0.339100
C27	C	1.878725	-0.483233	-0.339106
C28	C	1.479107	-0.472194	-0.522664
C29	C	1.474464	-0.467502	-0.600893
C30	C	1.490095	-0.210634	-0.339115
C31	C	1.490135	-0.094480	-0.339127
C32	C	1.539085	-0.532129	-0.637645
C33	C	1.534722	-0.527708	-0.711150
C34	C	1.465732	-0.458663	-0.747902
C35	C	1.401108	-0.394028	-0.711145
C36	C	1.405477	-0.398445	-0.637641
C37	C	1.445507	-0.438280	-0.967734
C38	C	1.441141	-0.433870	-1.041243
C39	C	1.574757	-0.567549	-1.041243
C40	C	1.579115	-0.571964	-0.967738
C41	C	1.514495	-0.507326	-0.930987
N42	N	1.461268	-0.454143	-0.823036
N43	N	1.518965	-0.511840	-0.855855
C44	C	1.500916	-0.494099	-0.156224
C45	C	1.505762	-0.498497	-0.077995
H46	H	1.612701	-0.882816	-0.259772
H47	H	1.392885	-0.385651	-0.937821
O48	O	1.046681	-0.545717	-0.382633
C49	C	1.074195	-0.650783	-0.367162
H50	H	1.107584	-0.659330	-0.310945
H51	H	1.002009	-0.702011	-0.373132
H52	H	1.135238	-0.675966	-0.404898
H53	H	0.890664	-0.369916	-0.259848
H54	H	1.433446	-0.913241	-0.375690
O55	O	1.606044	-0.599343	-0.602023
C56	C	1.582084	-0.702417	-0.619965
H57	H	1.538741	-0.701371	-0.673331
H58	H	1.657337	-0.749131	-0.622484
H59	H	1.530803	-0.740096	-0.578591
H60	H	0.921087	-0.535490	-0.375665
O61	O	1.342549	-0.335780	-0.601969
C62	C	1.237321	-0.357513	-0.619932
H63	H	1.230814	-0.439782	-0.640134
H64	H	1.188571	-0.351414	-0.571588
H65	H	1.207487	-0.298920	-0.662597
O66	O	1.623741	-1.101098	-0.252826
C67	C	1.608787	-1.208524	-0.262547
H68	H	1.571225	-1.220058	-0.316843
H69	H	1.687345	-1.250277	-0.257888
H70	H	1.555700	-1.242103	-0.220773
O71	O	1.334203	-0.326809	-0.746812
C72	C	1.358129	-0.223738	-0.728846
H73	H	1.442816	-0.219681	-0.708650
H74	H	1.346268	-0.169205	-0.777187
H75	H	1.304650	-0.198982	-0.686175
H76	H	1.433512	-1.047786	-0.375707
O77	O	1.597650	-0.590445	-0.746766
C78	C	1.702874	-0.568674	-0.728815
H79	H	1.708210	-0.531702	-0.675451
H80	H	1.749855	-0.644249	-0.726289
H81	H	1.735644	-0.512470	-0.770188
O82	O	1.374268	-0.366728	-1.077019
C83	C	1.431274	-0.296676	-1.119532
H84	H	1.509794	-0.332890	-1.130549
H85	H	1.385644	-0.279554	-1.171217
H86	H	1.444480	-0.220938	-1.091209
O87	O	1.646236	-0.639050	-0.932148
C88	C	1.702325	-0.695160	-0.980349
H89	H	1.702835	-0.649214	-1.032750
H90	H	1.785921	-0.707576	-0.959119
H91	H	1.663576	-0.774061	-0.988154
O92	O	1.637642	-0.630176	-1.076974
C93	C	1.702611	-0.568127	-1.119512
H94	H	1.710406	-0.487153	-1.097367
H95	H	1.782972	-0.605875	-1.120348
H96	H	1.666995	-0.561181	-1.175218
H97	H	1.099791	-0.369898	-0.259824
