data_functionalizedCrystal
_audit_creation_method	'MofGen! by Chris Wilmer'
_symmetry_space_group_name_H-M	'P1'
_symmetry_Int_Tables_number	1
_symmetry_cell_setting	triclinic
loop_
_symmetry_equiv_pos_as_xyz
  x,y,z
_cell_length_a	12.759401
_cell_length_b	13.897449
_cell_length_c	12.759399
_cell_angle_alpha	89.992101
_cell_angle_beta	89.984607
_cell_angle_gamma	90.001883
loop_
_atom_site_label
_atom_site_type_symbol
_atom_site_fract_x
_atom_site_fract_y
_atom_site_fract_z
Zn1	Zn	1.606080	0.545339	0.418446
Zn2	Zn	1.606024	0.384044	0.594091
Zn3	Zn	1.430433	0.384063	0.418428
Zn4	Zn	1.430369	0.545302	0.594085
O5	O	1.518226	0.464687	0.506262
O6	O	1.753093	0.523950	0.441756
O7	O	1.582735	0.249065	0.570784
O8	O	1.453783	0.405479	0.271409
O9	O	1.753052	0.405448	0.570802
O10	O	1.582830	0.523968	0.271423
O11	O	1.453728	0.249079	0.441725
O12	O	1.283403	0.405444	0.441719
O13	O	1.453674	0.680289	0.570791
O14	O	1.283356	0.523906	0.570773
O15	O	1.582768	0.680315	0.441750
O16	O	1.582673	0.405412	0.741111
O17	O	1.453620	0.523888	0.741107
C18	C	1.245259	0.464674	0.506244
C19	C	1.128482	0.464691	0.506261
C20	C	0.963892	0.526283	0.573578
C21	C	1.073616	0.526273	0.573566
C22	C	1.073618	0.403107	0.438971
C23	C	0.963896	0.403113	0.438989
C24	C	1.518220	0.716280	0.506272
C25	C	1.518218	0.823494	0.506276
C26	C	1.518215	0.910563	0.506280
C27	C	1.518214	1.019796	0.506275
C28	C	1.792259	0.464701	0.506282
C29	C	1.909036	0.464707	0.506290
C30	C	1.518162	0.464665	0.779230
C31	C	1.518230	0.464688	0.896006
C32	C	1.518222	1.214073	0.506275
C33	C	1.518219	1.106859	0.506265
C34	C	1.518320	0.464730	0.232229
C35	C	1.518359	0.464748	0.115453
C36	C	1.585505	0.403068	0.950836
C37	C	1.585572	0.403100	1.060560
C38	C	1.451082	0.526375	1.060615
C39	C	1.451020	0.526347	0.950893
H40	H	1.118299	0.352961	0.384175
H41	H	0.919228	0.576436	0.628380
C42	C	1.658541	0.336288	0.891110
C43	C	1.725779	0.390938	0.828017
C44	C	1.793069	0.329454	0.772977
H45	H	1.698718	0.299574	0.939364
H46	H	1.618395	0.294230	0.848301
H47	H	1.765921	0.432979	0.870823
H48	H	1.685632	0.427650	0.779744
H49	H	1.752923	0.287396	0.730167
H50	H	1.833238	0.292742	0.821238
H51	H	1.838691	0.366524	0.730154
C52	C	1.377937	0.593256	1.120073
C53	C	1.273993	0.572182	1.093455
C54	C	1.206580	0.633781	1.148193
H55	H	1.387461	0.584510	1.193290
H56	H	1.393184	0.658089	1.102026
H57	H	1.258751	0.507364	1.111509
H58	H	1.264435	0.580934	1.020249
H59	H	1.221827	0.698614	1.130146
H60	H	1.216113	0.625030	1.221407
H61	H	1.136047	0.619497	1.130133
C62	C	1.132985	0.593237	0.646659
C63	C	1.061452	0.647192	0.705580
C64	C	1.116103	0.708900	0.772918
H65	H	1.175781	0.556373	0.692462
H66	H	1.175776	0.635377	0.606558
H67	H	1.018679	0.605058	0.745678
H68	H	1.018654	0.684076	0.659805
H69	H	1.158894	0.751040	0.732817
H70	H	1.158897	0.672028	0.818714
H71	H	1.067576	0.745522	0.812897
H72	H	1.640355	0.352924	1.105198
C73	C	1.378035	0.593410	0.891490
C74	C	1.400825	0.688871	0.918136
C75	C	1.333611	0.750674	0.863445
H76	H	1.387561	0.584695	0.818267
H77	H	1.307448	0.579302	0.909555
H78	H	1.471395	0.702973	0.900064
H79	H	1.391292	0.697616	0.991350
H80	H	1.263023	0.736566	0.881511
H81	H	1.343142	0.741950	0.790225
H82	H	1.349058	0.815450	0.881524
H83	H	0.919231	0.352965	0.384194
