data_functionalizedCrystal
_audit_creation_method	'MofGen! by Chris Wilmer'
_symmetry_space_group_name_H-M	'P1'
_symmetry_Int_Tables_number	1
_symmetry_cell_setting	triclinic
loop_
_symmetry_equiv_pos_as_xyz
  x,y,z
_cell_length_a	10.908937
_cell_length_b	17.666332
_cell_length_c	10.967829
_cell_angle_alpha	102.132422
_cell_angle_beta	72.684843
_cell_angle_gamma	90.007663
loop_
_atom_site_label
_atom_site_type_symbol
_atom_site_fract_x
_atom_site_fract_y
_atom_site_fract_z
O1	O	1.702143	0.037879	-0.192362
O2	O	1.329141	0.050562	-0.095099
O3	O	1.524243	0.020290	-0.327165
O4	O	1.507042	0.068152	0.039704
O5	O	1.524220	-0.105607	-0.327165
O6	O	1.329119	-0.075334	-0.095099
O7	O	1.702121	-0.088018	-0.192362
Cu8	Cu	1.515618	-0.093171	-0.143731
Cu9	Cu	1.515644	0.055716	-0.143730
O10	O	1.507020	-0.057745	0.039704
C11	C	1.281369	-0.011201	-0.086010
C12	C	1.139057	-0.007672	-0.058941
N13	N	1.515609	-0.197891	-0.143733
C14	C	0.942090	-0.016895	-0.129748
C15	C	1.089178	-0.020555	-0.157727
C16	C	1.602057	-0.813344	-0.246476
C17	C	1.602059	-0.734096	-0.246473
C18	C	1.515646	-0.681074	-0.143742
C19	C	1.429246	-0.707303	-0.040989
C20	C	1.429255	-0.786549	-0.040987
N21	N	1.402360	-0.551531	-0.104401
N22	N	1.402356	-0.476251	-0.104410
C23	C	1.515615	-0.442309	-0.143738
N24	N	1.628883	-0.486494	-0.183081
N25	N	1.628886	-0.561781	-0.183078
C26	C	1.515627	-0.595143	-0.143731
C27	C	1.602018	-0.330159	-0.246478
C28	C	1.602022	-0.250908	-0.246467
C29	C	1.429198	-0.224117	-0.040986
C30	C	1.429205	-0.303366	-0.040993
C31	C	1.515614	-0.356382	-0.143745
C32	C	1.749893	-0.026253	-0.201451
C33	C	1.892206	-0.029777	-0.228520
C34	C	1.522978	-0.048688	-0.373395
C35	C	1.519229	-0.066654	-0.511142
N36	N	1.515664	0.160434	-0.143740
C37	C	1.517569	-0.009445	-0.572548
C38	C	1.513694	-0.028012	-0.714916
C39	C	1.508284	0.011235	0.085934
C40	C	1.512034	0.029205	0.223681
H41	H	0.875905	-0.003153	-0.024471
H42	H	1.358843	-0.180946	0.042664
C43	C	1.334158	-0.332218	0.072010
C44	C	1.239101	-0.273902	0.185017
C45	C	1.144053	-0.302754	0.298027
C46	C	1.144063	-0.389921	0.298029
C47	C	1.239124	-0.448242	0.185017
C48	C	1.334171	-0.419390	0.072007
H49	H	1.239091	-0.209371	0.185020
H50	H	1.073683	-0.259580	0.381686
H51	H	1.073703	-0.411279	0.381686
H52	H	1.239134	-0.512773	0.185015
H53	H	1.404542	-0.462564	-0.011651
H54	H	1.155359	-0.034289	-0.263011
C55	C	1.049667	0.010890	0.083297
C56	C	0.953816	0.082723	0.132755
C57	C	0.864428	0.101283	0.274991
C58	C	0.870891	0.048011	0.367768
C59	C	0.966745	-0.023826	0.318312
C60	C	1.056133	-0.042387	0.176076
H61	H	0.949029	0.122162	0.064075
H62	H	0.793470	0.154463	0.311601
H63	H	0.804720	0.061751	0.473060
H64	H	0.971533	-0.063266	0.386993
H65	H	1.127091	-0.095566	0.139466
C66	C	0.981605	-0.048337	-0.370749
C67	C	1.077457	-0.120169	-0.420202
C68	C	1.166853	-0.138729	-0.562434
C69	C	1.160396	-0.085457	-0.655213
C70	C	1.064540	-0.013621	-0.605762
C71	C	0.975144	0.004940	-0.463530
H72	H	1.082240	-0.159608	-0.351519
H73	H	1.237812	-0.191908	-0.599041
H74	H	1.226572	-0.099197	-0.760502
H75	H	1.059757	0.025819	-0.674444
H76	H	0.904185	0.058118	-0.426923
H77	H	1.513466	0.091935	-0.723492
H78	H	1.517773	-0.129378	-0.563967
H79	H	1.512238	-0.090741	-0.767737
H80	H	1.672419	-0.856508	-0.330140
H81	H	1.358889	-0.664128	0.042658
C82	C	1.697091	-0.705243	-0.359496
C83	C	1.792134	-0.763561	-0.472514
C84	C	1.887164	-0.734711	-0.585538
C85	C	1.887152	-0.647544	-0.585543
C86	C	1.792107	-0.589221	-0.472521
C87	C	1.697076	-0.618071	-0.359497
H88	H	1.792146	-0.828092	-0.472514
H89	H	1.957523	-0.777886	-0.669205
H90	H	1.957499	-0.626189	-0.669210
H91	H	1.792095	-0.524690	-0.472521
H92	H	1.626717	-0.574896	-0.275830
C93	C	1.519524	0.075295	-0.501192
C94	C	1.633057	0.100854	-0.449396
C95	C	1.635013	0.185596	-0.378043
C96	C	1.523435	0.244779	-0.358485
C97	C	1.409894	0.219221	-0.410282
C98	C	1.407939	0.134479	-0.481635
H99	H	1.715661	0.057042	-0.463873
H100	H	1.719064	0.204515	-0.339699
H101	H	1.524883	0.307510	-0.305665
H102	H	1.327290	0.263033	-0.395805
H103	H	1.323887	0.115560	-0.519979
H104	H	1.358902	-0.807898	0.042674
C105	C	1.697061	-0.222060	-0.359482
C106	C	1.792101	-0.280377	-0.472502
C107	C	1.887141	-0.251527	-0.585519
C108	C	1.887139	-0.164359	-0.585516
C109	C	1.792095	-0.106036	-0.472492
C110	C	1.697056	-0.134886	-0.359475
H111	H	1.792106	-0.344909	-0.472509
H112	H	1.957499	-0.294702	-0.669187
H113	H	1.957493	-0.143002	-0.669178
H114	H	1.792091	-0.041504	-0.472485
H115	H	1.626698	-0.091711	-0.275807
H116	H	1.672381	-0.373327	-0.330142
