data_functionalizedCrystal
_audit_creation_method	'MofGen! by Chris Wilmer'
_symmetry_space_group_name_H-M	'P1'
_symmetry_Int_Tables_number	1
_symmetry_cell_setting	triclinic
loop_
_symmetry_equiv_pos_as_xyz
  x,y,z
_cell_length_a	27.732066
_cell_length_b	26.809956
_cell_length_c	27.732048
_cell_angle_alpha	90.011154
_cell_angle_beta	97.353621
_cell_angle_gamma	89.984750
loop_
_atom_site_label
_atom_site_type_symbol
_atom_site_fract_x
_atom_site_fract_y
_atom_site_fract_z
O1	O	-0.640935	0.041384	0.057558
O2	O	-0.140935	0.541384	0.557558
O3	O	-0.500143	0.041408	0.066295
O4	O	-0.000143	0.541408	0.566295
O5	O	-0.574912	0.041386	-0.008470
O6	O	-0.074912	0.541386	0.491530
O7	O	-0.566166	0.041406	0.132323
O8	O	-0.066166	0.541406	0.632323
O9	O	-0.574878	-0.041573	-0.008471
O10	O	-0.074878	0.458427	0.491529
O11	O	-0.500109	-0.041551	0.066294
O12	O	-0.000109	0.458449	0.566294
O13	O	-0.640901	-0.041575	0.057557
O14	O	-0.140901	0.458425	0.557557
Zn15	Zn	-0.570500	-0.054735	0.061925
Zn16	Zn	-0.070500	0.445265	0.561925
Zn17	Zn	-0.570544	0.054568	0.061927
Zn18	Zn	-0.070544	0.554568	0.561927
O19	O	-0.566132	-0.041553	0.132322
O20	O	-0.066132	0.458447	0.632322
C21	C	-0.482119	-0.000069	0.066109
C22	C	0.017881	0.499931	0.566109
C23	C	-0.428465	-0.000060	0.065553
C24	C	0.071535	0.499940	0.565553
C25	C	-0.051392	-0.000088	0.017584
C26	C	0.448608	0.499912	0.517584
C27	C	-0.253052	-0.000079	0.019631
C28	C	0.246948	0.499921	0.519631
O29	O	-0.284305	-0.000103	-0.017590
O30	O	0.215695	0.499897	0.482410
N31	N	-0.272180	-0.000071	0.063965
N32	N	0.227820	0.499929	0.563965
C33	C	-0.240889	-0.000068	0.107791
C34	C	0.259111	0.499932	0.607791
O35	O	-0.261785	-0.000066	0.145547
O36	O	0.238215	0.499934	0.645547
C37	C	-0.039230	-0.000081	0.105743
C38	C	0.460770	0.499919	0.605743
C39	C	-0.020105	-0.000084	0.061406
C40	C	0.479895	0.499916	0.561406
C41	C	-0.032267	-0.000092	-0.026750
C42	C	0.467733	0.499908	0.473250
C43	C	0.018145	-0.000092	-0.027261
C44	C	0.518145	0.499908	0.472739
C45	C	0.049432	-0.000088	0.016561
C46	C	0.549432	0.499912	0.516561
C47	C	0.030307	-0.000084	0.060895
C48	C	0.530307	0.499916	0.560895
C49	C	-0.007940	-0.000082	0.149568
C50	C	0.492060	0.499918	0.649568
C51	C	0.042478	-0.000087	0.149052
C52	C	0.542478	0.499913	0.649052
C53	C	0.061602	-0.000090	0.104715
C54	C	0.561602	0.499910	0.604715
C55	C	0.112006	-0.000080	0.104205
C56	C	0.612006	0.499920	0.604205
N57	N	0.131133	-0.000088	0.059871
N58	N	0.631133	0.499912	0.559871
C59	C	0.099846	-0.000092	0.016049
C60	C	0.599846	0.499908	0.516049
C61	C	-0.346763	-0.000060	0.108863
C62	C	0.153237	0.499940	0.608863
C63	C	-0.397178	-0.000056	0.109375
C64	C	0.102822	0.499944	0.609375
C65	C	-0.409338	-0.000068	0.021215
C66	C	0.090662	0.499932	0.521215
C67	C	-0.358922	-0.000068	0.020703
C68	C	0.141078	0.499932	0.520703
C69	C	-0.327636	-0.000068	0.064529
C70	C	0.172364	0.499932	0.564529
C71	C	0.205716	-0.000091	0.014978
C72	C	0.705716	0.499909	0.514978
C73	C	0.256133	-0.000088	0.014471
C74	C	0.756133	0.499912	0.514471
C75	C	0.268289	-0.000079	0.102631
C76	C	0.768289	0.499921	0.602631
C77	C	0.217876	-0.000079	0.103138
C78	C	0.717876	0.499921	0.603138
C79	C	0.186590	-0.000087	0.059308
C80	C	0.686590	0.499913	0.559308
O81	O	0.143287	-0.000061	0.141406
O82	O	0.643287	0.499939	0.641406
O83	O	0.120752	-0.000105	-0.021702
O84	O	0.620752	0.499895	0.478298
C85	C	-0.101804	-0.000089	0.018095
C86	C	0.398196	0.499911	0.518095
C87	C	-0.120929	-0.000085	0.062429
C88	C	0.379071	0.499915	0.562429
C89	C	-0.089642	-0.000081	0.106251
C90	C	0.410358	0.499919	0.606251
C91	C	-0.171344	-0.000081	0.062941
C92	C	0.328656	0.499919	0.562941
C93	C	-0.202631	-0.000085	0.019119
C94	C	0.297369	0.499915	0.519119
C95	C	-0.183504	-0.000093	-0.025216
C96	C	0.316496	0.499907	0.474784
C97	C	-0.133091	-0.000093	-0.025727
C98	C	0.366909	0.499907	0.474273
C99	C	-0.108770	-0.000073	0.150585
C100	C	0.391230	0.499927	0.650585
C101	C	-0.159182	-0.000072	0.151093
C102	C	0.340818	0.499928	0.651093
C103	C	-0.190469	-0.000076	0.107271
C104	C	0.309531	0.499924	0.607271
N105	N	-0.570473	-0.129331	0.061924
N106	N	-0.070473	0.370669	0.561924
C107	C	0.341075	-0.000093	0.057741
C108	C	0.841075	0.499907	0.557741
C109	C	0.287420	-0.000084	0.058293
C110	C	0.787420	0.499916	0.558293
C111	C	-0.537403	-0.526204	0.095017
C112	C	-0.037403	-0.026204	0.595017
C113	C	-0.537378	-0.317326	0.095017
C114	C	-0.037378	0.182674	0.595017
O115	O	-0.509200	-0.290317	0.123148
O116	O	-0.009200	0.209683	0.623148
N117	N	-0.570490	-0.291209	0.061923
N118	N	-0.070490	0.208791	0.561923
C119	C	-0.603608	-0.317315	0.028824
C120	C	-0.103608	0.182685	0.528824
O121	O	-0.631768	-0.290307	0.000672
O122	O	-0.131768	0.209693	0.500672
C123	C	-0.603631	-0.526191	0.028822
C124	C	-0.103631	-0.026191	0.528822
C125	C	-0.570520	-0.552306	0.061922
C126	C	-0.070520	-0.052306	0.561922
C127	C	-0.504295	-0.552319	0.128113
C128	C	-0.004295	-0.052319	0.628113
C129	C	-0.504304	-0.604535	0.128114
C130	C	-0.004304	-0.104535	0.628114
C131	C	-0.537420	-0.630637	0.095019
C132	C	-0.037420	-0.130637	0.595019
C133	C	-0.570528	-0.604522	0.061923
C134	C	-0.070528	-0.104522	0.561923
C135	C	-0.636746	-0.552296	-0.004278
C136	C	-0.136746	-0.052296	0.495722
C137	C	-0.636748	-0.604518	-0.004277
C138	C	-0.136748	-0.104518	0.495723
C139	C	-0.603638	-0.630633	0.028823
C140	C	-0.103638	-0.130633	0.528823
C141	C	-0.603654	-0.682840	0.028829
C142	C	-0.103654	-0.182840	0.528829
N143	N	-0.570542	-0.708957	0.061923
N144	N	-0.070542	-0.208957	0.561923
C145	C	-0.537425	-0.682856	0.095018
C146	C	-0.037425	-0.182856	0.595018
C147	C	-0.603595	-0.207651	0.028828
C148	C	-0.103595	0.292349	0.528828
C149	C	-0.603590	-0.155432	0.028829
C150	C	-0.103590	0.344568	0.528829
C151	C	-0.537359	-0.155448	0.095022
C152	C	-0.037359	0.344552	0.595022
C153	C	-0.537367	-0.207668	0.095022
C154	C	-0.037367	0.292332	0.595022
C155	C	-0.570483	-0.233768	0.061922
C156	C	-0.070483	0.266232	0.561922
C157	C	-0.537446	-0.792514	0.095019
C158	C	-0.037446	-0.292514	0.595019
C159	C	-0.537458	-0.844735	0.095019
C160	C	-0.037458	-0.344735	0.595019
C161	C	-0.603687	-0.844714	0.028825
C162	C	-0.103687	-0.344714	0.528825
C163	C	-0.603676	-0.792498	0.028827
C164	C	-0.103676	-0.292498	0.528827
C165	C	-0.570551	-0.766399	0.061926
C166	C	-0.070551	-0.266399	0.561926
O167	O	-0.631813	-0.709881	0.000709
O168	O	-0.131813	-0.209881	0.500709
O169	O	-0.509263	-0.709872	0.123159
O170	O	-0.009263	-0.209872	0.623159
C171	C	-0.537395	-0.473988	0.095015
C172	C	-0.037395	0.026012	0.595015
C173	C	-0.570503	-0.447873	0.061919
C174	C	-0.070503	0.052127	0.561919
C175	C	-0.603620	-0.473975	0.028824
C176	C	-0.103620	0.026025	0.528824
C177	C	-0.570498	-0.395654	0.061920
C178	C	-0.070498	0.104346	0.561920
C179	C	-0.537382	-0.369553	0.095015
C180	C	-0.037382	0.130447	0.595015
C181	C	-0.504270	-0.395670	0.128109
C182	C	-0.004270	0.104330	0.628109
C183	C	-0.504278	-0.447886	0.128110
C184	C	-0.004278	0.052114	0.628110
C185	C	-0.636732	-0.447858	-0.004270
C186	C	-0.136732	0.052142	0.495730
C187	C	-0.636721	-0.395641	-0.004269
C188	C	-0.136721	0.104359	0.495731
C189	C	-0.603604	-0.369540	0.028827
C190	C	-0.103604	0.130460	0.528827
C191	C	-0.574711	-0.000095	-0.026477
C192	C	-0.074711	0.499905	0.473523
C193	C	-0.574158	-0.000099	-0.080132
C194	C	-0.074158	0.499901	0.419868
N195	N	-0.570575	0.129164	0.061924
N196	N	-0.070575	0.629164	0.561924
C197	C	-0.614862	-0.000080	-0.418945
C198	C	-0.114862	0.499920	0.081055
C199	C	-0.612811	-0.000073	-0.620604
C200	C	-0.112811	0.499927	-0.120604
O201	O	-0.650031	-0.000057	-0.651858
O202	O	-0.150031	0.499943	-0.151858
N203	N	-0.568476	-0.000066	-0.639731
N204	N	-0.068476	0.499934	-0.139731
C205	C	-0.524651	-0.000057	-0.608439
C206	C	-0.024651	0.499943	-0.108439
O207	O	-0.486894	-0.000046	-0.629335
O208	O	0.013106	0.499954	-0.129335
C209	C	-0.526702	-0.000061	-0.406781
C210	C	-0.026702	0.499939	0.093219
C211	C	-0.571040	-0.000073	-0.387657
C212	C	-0.071040	0.499927	0.112343
C213	C	-0.659196	-0.000092	-0.399821
C214	C	-0.159196	0.499908	0.100179
C215	C	-0.659708	-0.000096	-0.349409
C216	C	-0.159708	0.499904	0.150591
C217	C	-0.615886	-0.000089	-0.318121
C218	C	-0.115886	0.499911	0.181879
C219	C	-0.571552	-0.000078	-0.337245
C220	C	-0.071552	0.499922	0.162755
C221	C	-0.482878	-0.000049	-0.375490
C222	C	0.017122	0.499951	0.124510
C223	C	-0.483394	-0.000049	-0.325072
C224	C	0.016606	0.499951	0.174928
C225	C	-0.527732	-0.000061	-0.305949
C226	C	-0.027732	0.499939	0.194051
C227	C	-0.528243	-0.000075	-0.255545
C228	C	-0.028243	0.499925	0.244455
N229	N	-0.572578	-0.000082	-0.236419
N230	N	-0.072578	0.499918	0.263581
C231	C	-0.616399	-0.000089	-0.267706
C232	C	-0.116399	0.499911	0.232294
C233	C	-0.523577	-0.000056	-0.714314
C234	C	-0.023577	0.499944	-0.214314
C235	C	-0.523064	-0.000056	-0.764728
C236	C	-0.023064	0.499944	-0.264728
C237	C	-0.611224	-0.000071	-0.776890
C238	C	-0.111224	0.499929	-0.276890
C239	C	-0.611737	-0.000075	-0.726474
C240	C	-0.111737	0.499925	-0.226474
C241	C	-0.567912	-0.000064	-0.695187
C242	C	-0.067912	0.499936	-0.195187
C243	C	-0.617472	-0.000099	-0.161837
C244	C	-0.117472	0.499901	0.338163
C245	C	-0.617980	-0.000106	-0.111420
C246	C	-0.117980	0.499894	0.388580
C247	C	-0.529820	-0.000089	-0.099263
C248	C	-0.029820	0.499911	0.400737
C249	C	-0.529312	-0.000085	-0.149675
C250	C	-0.029312	0.499915	0.350325
C251	C	-0.573141	-0.000088	-0.180962
C252	C	-0.073141	0.499912	0.319038
O253	O	-0.491042	-0.000085	-0.224264
O254	O	0.008958	0.499915	0.275736
O255	O	-0.654150	-0.000090	-0.246801
O256	O	-0.154150	0.499910	0.253199
C257	C	-0.614349	-0.000076	-0.469357
C258	C	-0.114349	0.499924	0.030643
C259	C	-0.570015	-0.000064	-0.488481
C260	C	-0.070015	0.499936	0.011519
C261	C	-0.526194	-0.000057	-0.457193
C262	C	-0.026194	0.499943	0.042807
C263	C	-0.569502	-0.000064	-0.538895
C264	C	-0.069502	0.499936	-0.038895
C265	C	-0.613324	-0.000071	-0.570183
C266	C	-0.113324	0.499929	-0.070183
C267	C	-0.657659	-0.000078	-0.551056
C268	C	-0.157659	0.499922	-0.051056
C269	C	-0.658171	-0.000083	-0.500644
C270	C	-0.158171	0.499917	-0.000644
C271	C	-0.481859	-0.000050	-0.476320
C272	C	0.018141	0.499950	0.023680
C273	C	-0.481350	-0.000046	-0.526732
C274	C	0.018650	0.499954	-0.026732
C275	C	-0.525172	-0.000053	-0.558020
C276	C	-0.025172	0.499947	-0.058020
C277	C	-0.566333	-0.000071	0.150329
C278	C	-0.066333	0.499929	0.650329
C279	C	-0.566886	-0.000063	0.203984
C280	C	-0.066886	0.499937	0.703984
H281	H	0.293771	-0.000073	0.138310
H282	H	0.793771	0.499927	0.638310
H283	H	-0.117525	-0.000096	-0.061831
H284	H	0.382475	0.499904	0.438169
N285	N	-0.639328	-0.235796	-0.006865
N286	N	-0.139328	0.264204	0.493135
H287	H	-0.634027	-0.226715	-0.041138
H288	H	-0.134027	0.273285	0.458862
H289	H	-0.673568	-0.226671	-0.001476
H290	H	-0.173568	0.273329	0.498524
H291	H	-0.663708	-0.531040	-0.031231
H292	H	-0.163708	-0.031040	0.468769
N293	N	-0.707531	-0.000095	-0.328788
N294	N	-0.207531	0.499905	0.171212
H295	H	-0.701213	-0.000093	-0.292102
H296	H	-0.201213	0.499907	0.207898
H297	H	-0.726682	-0.030849	-0.340262
H298	H	-0.226682	0.469151	0.159738
N299	N	-0.658491	-0.000073	-0.810639
N300	N	-0.158491	0.499927	-0.310639
H301	H	-0.677843	-0.030828	-0.804534
H302	H	-0.177843	0.469172	-0.304534
H303	H	-0.651395	-0.000052	-0.845463
H304	H	-0.151395	0.499948	-0.345463
N305	N	-0.672438	-0.367478	-0.039968
N306	N	-0.172438	0.132522	0.460032
H307	H	-0.693416	-0.391942	-0.060933
H308	H	-0.193416	0.108058	0.439067
H309	H	-0.654089	-0.345827	-0.061213
H310	H	-0.154089	0.154173	0.438787
H311	H	-0.630652	-0.865975	0.001881
H312	H	-0.130652	-0.365975	0.501881
H313	H	-0.208987	-0.000094	-0.060897
H314	H	0.291013	0.499906	0.439103
N315	N	-0.468562	-0.476049	0.163807
N316	N	0.031438	0.023951	0.663807
H317	H	-0.447583	-0.451583	0.184767
H318	H	0.052417	0.048417	0.684767
H319	H	-0.447334	-0.497725	0.145445
H320	H	0.052666	0.002275	0.645445
H321	H	-0.446773	-0.000036	-0.391051
H322	H	0.053227	0.499964	0.108949
H323	H	0.202304	-0.000076	0.139241
H324	H	0.702304	0.499924	0.639241
H325	H	-0.174748	-0.000066	0.187201
H326	H	0.325252	0.499934	0.687201
N327	N	-0.468550	-0.367507	0.163801
N328	N	0.031450	0.132493	0.663801
H329	H	-0.434288	-0.376609	0.158467
H330	H	0.065712	0.123391	0.658467
H331	H	-0.473899	-0.376590	0.198058
H332	H	0.026101	0.123410	0.698058
N333	N	-0.672471	-0.632670	-0.039974
N334	N	-0.172471	-0.132670	0.460026
H335	H	-0.654166	-0.654349	-0.061252
H336	H	-0.154166	-0.154349	0.438748
H337	H	-0.693435	-0.608168	-0.060906
H338	H	-0.193435	-0.108168	0.439094
N339	N	-0.417796	-0.000047	0.157199
N340	N	0.082204	0.499953	0.657199
H341	H	-0.438436	-0.030798	0.159378
H342	H	0.061564	0.469202	0.659378
H343	H	-0.438423	0.030728	0.159354
H344	H	0.061577	0.530728	0.659354
H345	H	-0.510472	-0.771270	0.121970
H346	H	-0.010472	-0.271270	0.621970
N347	N	-0.501636	-0.127294	0.130717
N348	N	-0.001636	0.372706	0.630717
H349	H	-0.519941	-0.105615	0.151995
H350	H	-0.019941	0.394385	0.651995
H351	H	-0.480383	-0.105671	0.112351
H352	H	0.019617	0.394329	0.612351
N353	N	-0.468582	-0.632696	0.163806
N354	N	0.031418	-0.132696	0.663806
H355	H	-0.473883	-0.623598	0.198078
H356	H	0.026117	-0.123598	0.698078
H357	H	-0.434338	-0.623603	0.158421
H358	H	0.065662	-0.123603	0.658421
N359	N	-0.705992	-0.000090	-0.480020
N360	N	-0.205992	0.499910	0.019980
H361	H	-0.708161	-0.030845	-0.459381
H362	H	-0.208161	0.469155	0.040619
H363	H	-0.733644	-0.000074	-0.507522
H364	H	-0.233644	0.499926	-0.007522
N365	N	-0.443089	-0.000082	-0.026050
N366	N	0.056911	0.499918	0.473950
H367	H	-0.423328	-0.000091	-0.054218
H368	H	0.076672	0.499909	0.445782
H369	H	-0.464281	0.030671	-0.027761
H370	H	0.035719	0.530671	0.472239
H371	H	-0.510496	-0.865995	0.121974
H372	H	-0.010496	-0.365995	0.621974
H373	H	-0.663699	-0.469106	-0.031221
H374	H	-0.163699	0.030894	0.468779
H375	H	-0.083300	-0.000070	0.186272
H376	H	0.416700	0.499930	0.686272
N377	N	-0.338293	-0.000076	-0.027115
N378	N	0.161707	0.499924	0.472885
H379	H	-0.349731	0.030675	-0.046295
H380	H	0.150269	0.530675	0.453705
H381	H	-0.349728	-0.030851	-0.046258
H382	H	0.150272	0.469149	0.453742
H383	H	-0.654087	-0.000117	-0.095853
H384	H	-0.154087	0.499883	0.404147
N385	N	-0.664744	-0.000103	-0.195577
N386	N	-0.164744	0.499897	0.304423
H387	H	-0.692903	-0.000112	-0.175806
H388	H	-0.192903	0.499888	0.324194
H389	H	-0.666440	-0.030857	-0.216765
H390	H	-0.166440	0.469143	0.283235
H391	H	-0.694883	-0.000096	-0.425291
H392	H	-0.194883	0.499904	0.074709
N393	N	-0.475242	-0.000045	-0.785350
N394	N	0.024758	0.499955	-0.285350
H395	H	-0.481561	-0.000046	-0.822035
H396	H	0.018439	0.499954	-0.322035
H397	H	-0.456070	-0.030795	-0.773884
H398	H	0.043930	0.469205	-0.273884
H399	H	-0.446173	-0.000043	-0.450849
H400	H	0.053827	0.499957	0.049151
N401	N	-0.476307	-0.000048	-0.680569
N402	N	0.023693	0.499952	-0.180569
H403	H	-0.456959	0.030707	-0.686682
H404	H	0.043041	0.530707	-0.186682
H405	H	-0.456977	-0.030820	-0.686707
H406	H	0.043023	0.469180	-0.186707
N407	N	-0.481492	-0.000074	-0.170306
N408	N	0.018508	0.499926	0.329694
H409	H	-0.479300	-0.030823	-0.190961
H410	H	0.020700	0.469177	0.309039
H411	H	-0.453838	-0.000053	-0.142807
H412	H	0.046162	0.499947	0.357193
N413	N	-0.468571	-0.524171	0.163809
N414	N	0.031429	-0.024171	0.663809
H415	H	-0.447601	-0.548646	0.184771
H416	H	0.052399	-0.048646	0.684771
H417	H	-0.486911	-0.502495	0.185056
H418	H	0.013089	-0.002495	0.685056
H419	H	-0.321293	-0.000059	0.144553
H420	H	0.178707	0.499941	0.644553
H421	H	0.067950	-0.000089	0.184741
H422	H	0.567950	0.499911	0.684741
H423	H	-0.510405	-0.228927	0.121975
H424	H	-0.010405	0.271073	0.621975
H425	H	0.033711	-0.000097	-0.063365
H426	H	0.533711	0.499903	0.436635
H427	H	-0.447706	-0.000039	-0.299600
H428	H	0.052294	0.499961	0.200400
H429	H	0.271701	-0.000090	-0.021636
H430	H	0.771701	0.499910	0.478364
N431	N	-0.659557	-0.000088	-0.705850
N432	N	-0.159557	0.499912	-0.205850
H433	H	-0.687238	-0.000094	-0.733325
H434	H	-0.187238	0.499906	-0.233325
H435	H	-0.661706	0.030666	-0.685194
H436	H	-0.161706	0.530666	-0.185194
N437	N	-0.639308	-0.127269	-0.006864
N438	N	-0.139308	0.372731	0.493136
H439	H	-0.660285	-0.151733	-0.027829
H440	H	-0.160285	0.348267	0.472171
H441	H	-0.620962	-0.105614	-0.028109
H442	H	-0.120962	0.394386	0.471891
H443	H	-0.494142	-0.000085	-0.073779
H444	H	0.005858	0.499915	0.426221
N445	N	-0.704925	-0.000090	-0.584808
N446	N	-0.204925	0.499910	-0.084808
H447	H	-0.697867	-0.000086	-0.619645
H448	H	-0.197867	0.499914	-0.119645
H449	H	-0.724277	0.030660	-0.578649
H450	H	-0.224277	0.530660	-0.078649
H451	H	-0.445242	-0.000041	-0.542297
H452	H	0.054758	0.499959	-0.042297
H453	H	0.180248	-0.000097	-0.020713
H454	H	0.680248	0.499903	0.479287
N455	N	-0.639383	-0.764318	-0.006867
N456	N	-0.139383	-0.264318	0.493133
H457	H	-0.673652	-0.773380	-0.001540
H458	H	-0.173652	-0.273380	0.498460
H459	H	-0.634031	-0.773427	-0.041121
H460	H	-0.134031	-0.273427	0.458879
N461	N	-0.066008	-0.000100	-0.074019
N462	N	0.433992	0.499900	0.425981
H463	H	-0.046235	-0.000104	-0.102178
H464	H	0.453765	0.499896	0.397822
H465	H	-0.087196	0.030655	-0.075730
H466	H	0.412804	0.530655	0.424270
H467	H	-0.023501	-0.000077	0.185672
H468	H	0.476499	0.499923	0.685672
