data_functionalizedCrystal
_audit_creation_method	'MofGen! by Chris Wilmer'
_symmetry_space_group_name_H-M	'P1'
_symmetry_Int_Tables_number	1
_symmetry_cell_setting	triclinic
loop_
_symmetry_equiv_pos_as_xyz
  x,y,z
_cell_length_a	19.188930
_cell_length_b	16.109301
_cell_length_c	14.586319
_cell_angle_alpha	89.994786
_cell_angle_beta	89.982618
_cell_angle_gamma	83.303130
loop_
_atom_site_label
_atom_site_type_symbol
_atom_site_fract_x
_atom_site_fract_y
_atom_site_fract_z
O1	O	0.926386	0.103796	-0.076538
O2	O	1.426386	0.603796	0.423462
O3	O	0.723108	0.117769	-0.076476
O4	O	1.223108	0.617769	0.423524
O5	O	0.830331	-0.010267	-0.076499
O6	O	1.330331	0.489733	0.423501
O7	O	0.819163	0.231832	-0.076514
O8	O	1.319163	0.731832	0.423486
O9	O	0.830324	-0.010268	0.075982
O10	O	1.330324	0.489732	0.575982
O11	O	0.723100	0.117767	0.076005
O12	O	1.223100	0.617767	0.576005
O13	O	0.926379	0.103795	0.075943
O14	O	1.426379	0.603795	0.575943
Cu15	Cu	0.824739	0.110781	0.089897
Cu16	Cu	1.324739	0.610781	0.589897
Cu17	Cu	0.824748	0.110783	-0.090429
Cu18	Cu	1.324748	0.610783	0.409571
O19	O	0.819155	0.231830	0.075966
O20	O	1.319155	0.731830	0.575966
C21	C	0.829875	-0.041241	-0.000258
C22	C	1.329875	0.458759	0.499742
C23	C	0.828519	-0.133532	-0.000256
C24	C	1.328519	0.366468	0.499744
C25	C	0.697092	0.117316	-0.000227
C26	C	1.197092	0.617316	0.499773
C27	C	0.619584	0.115958	-0.000203
C28	C	1.119584	0.615958	0.499797
C29	C	0.888990	-0.356005	-0.000290
C30	C	1.388990	0.143995	0.499710
C31	C	0.887710	-0.442721	-0.000297
C32	C	1.387710	0.057279	0.499703
C33	C	0.760493	-0.422425	-0.000254
C34	C	1.260493	0.077575	0.499746
C35	C	0.761773	-0.335710	-0.000253
C36	C	1.261773	0.164290	0.499747
C37	C	0.826024	-0.302503	-0.000267
C38	C	1.326024	0.197497	0.499733
C39	C	0.823463	-0.475933	-0.000274
C40	C	1.323463	0.024067	0.499726
C41	C	0.822075	-0.569955	-0.000282
C42	C	1.322075	-0.069955	0.499718
C43	C	0.827412	-0.208475	-0.000261
C44	C	1.327412	0.291525	0.499739
C45	C	0.574836	0.191085	-0.000222
C46	C	1.074836	0.691085	0.499778
C47	C	0.502009	0.189809	-0.000232
C48	C	1.002009	0.689809	0.499768
C49	C	0.473934	0.113401	-0.000241
C50	C	0.973934	0.613401	0.499759
C51	C	0.518692	0.038264	-0.000217
C52	C	1.018692	0.538264	0.499783
C53	C	0.591517	0.039542	-0.000198
C54	C	1.091517	0.539542	0.499802
N55	N	0.365820	0.054998	-0.052170
N56	N	0.865820	0.554998	0.447830
N57	N	0.296638	0.053788	-0.052191
N58	N	0.796638	0.553788	0.447809
C59	C	0.254516	0.109545	-0.000297
C60	C	0.754516	0.609545	0.499703
N61	N	0.284188	0.166569	0.051606
N62	N	0.784188	0.666569	0.551606
N63	N	0.353375	0.167781	0.051622
N64	N	0.853375	0.667781	0.551622
C65	C	0.394968	0.112007	-0.000262
C66	C	0.894968	0.612007	0.499738
C67	C	0.130800	0.183294	-0.000326
C68	C	0.630800	0.683294	0.499674
C69	C	0.057973	0.182015	-0.000330
C70	C	0.557973	0.682015	0.499670
C71	C	0.074657	0.030468	-0.000324
C72	C	0.574657	0.530468	0.499676
C73	C	0.147483	0.031749	-0.000311
C74	C	0.647483	0.531749	0.499689
C75	C	0.175550	0.108165	-0.000316
C76	C	0.675550	0.608165	0.499684
C77	C	0.952395	0.104248	-0.000308
C78	C	1.452395	0.604248	0.499692
C79	C	1.029903	0.105606	-0.000338
C80	C	1.529903	0.605606	0.499662
C81	C	0.819612	0.262805	-0.000277
C82	C	1.319612	0.762805	0.499723
C83	C	0.820968	0.355096	-0.000284
C84	C	1.320968	0.855096	0.499716
N85	N	0.824738	0.110779	0.216728
N86	N	1.324738	0.610779	0.716728
N87	N	0.824754	0.110778	-0.217261
N88	N	1.324754	0.610778	0.282739
C89	C	0.872232	0.054103	0.451724
C90	C	1.372232	0.554103	0.951724
C91	C	0.872234	0.054101	0.547706
C92	C	1.372234	0.554101	1.047706
C93	C	0.777255	0.167457	0.547736
C94	C	1.277255	0.667457	1.047736
C95	C	0.777250	0.167454	0.451757
C96	C	1.277250	0.667454	0.951757
C97	C	0.824743	0.110778	0.403753
C98	C	1.324743	0.610778	0.903753
C99	C	0.824750	0.110779	0.595714
C100	C	1.324750	0.610779	1.095714
C101	C	0.824751	0.110777	0.699781
C102	C	1.324751	0.610777	1.199781
C103	C	0.824740	0.110779	0.299679
C104	C	1.324740	0.610779	0.799679
H105	H	0.941306	-0.328970	-0.000302
H106	H	1.441306	0.171030	0.499698
F107	F	0.726714	0.227774	0.598831
F108	F	1.226714	0.727774	1.098831
H109	H	0.597683	0.253308	-0.000228
H110	H	1.097683	0.753308	0.499772
H111	H	0.938983	-0.486279	-0.000317
H112	H	1.438983	0.013721	0.499683
F113	F	0.454376	0.269773	-0.000250
F114	F	0.954376	0.769773	0.499750
F115	F	0.694753	-0.278766	-0.000236
F116	F	1.194753	0.221234	0.499764
F117	F	0.488812	-0.043055	-0.000223
F118	F	0.988812	0.456945	0.499777
H119	H	0.627952	-0.021638	-0.000183
H120	H	1.127952	0.478362	0.499817
H121	H	0.738575	0.213606	0.412696
H122	H	1.238575	0.713606	0.912696
H123	H	0.051799	-0.031745	-0.000389
H124	H	0.551799	0.468255	0.499611
F125	F	0.922777	-0.006221	0.598757
F126	F	1.422777	0.493779	1.098757
F127	F	0.160674	0.264621	-0.000324
F128	F	0.660674	0.764621	0.499676
H129	H	0.183919	-0.029428	-0.000300
H130	H	0.683919	0.470572	0.499700
H131	H	0.708182	-0.449473	-0.000242
H132	H	1.208182	0.050527	0.499758
F133	F	0.010347	0.261980	-0.000346
F134	F	0.510347	0.761980	0.499654
F135	F	0.922776	-0.006218	0.400639
F136	F	1.422776	0.493782	0.900639
