data_functionalizedCrystal
_audit_creation_method	'MofGen! by Chris Wilmer'
_symmetry_space_group_name_H-M	'P1'
_symmetry_Int_Tables_number	1
_symmetry_cell_setting	triclinic
loop_
_symmetry_equiv_pos_as_xyz
  x,y,z
_cell_length_a	10.723022
_cell_length_b	10.723024
_cell_length_c	16.176319
_cell_angle_alpha	89.994397
_cell_angle_beta	89.992908
_cell_angle_gamma	84.467548
loop_
_atom_site_label
_atom_site_type_symbol
_atom_site_fract_x
_atom_site_fract_y
_atom_site_fract_z
O1	O	1.657195	0.175021	-0.068739
O2	O	2.157195	0.675021	0.431261
O3	O	1.294042	0.191776	-0.068742
O4	O	1.794042	0.691776	0.431258
O5	O	1.483995	0.001823	-0.068737
O6	O	1.983995	0.501823	0.431263
O7	O	1.467242	0.364975	-0.068743
O8	O	1.967242	0.864975	0.431257
O9	O	1.483968	0.001810	0.068756
O10	O	1.983968	0.501810	0.568756
O11	O	1.294015	0.191764	0.068752
O12	O	1.794015	0.691764	0.568752
O13	O	1.657168	0.175009	0.068754
O14	O	2.157168	0.675009	0.568754
Cu15	Cu	1.475589	0.183385	0.081307
Cu16	Cu	1.975589	0.683385	0.581307
Cu17	Cu	1.475621	0.183400	-0.081294
Cu18	Cu	1.975621	0.683400	0.418706
O19	O	1.467215	0.364963	0.068750
O20	O	1.967215	0.864963	0.568750
C21	C	1.247529	0.190551	0.000005
C22	C	1.747529	0.690551	0.500005
C23	C	1.108975	0.186904	0.000004
C24	C	1.608975	0.686904	0.500004
C25	C	0.890796	0.289421	0.000000
C26	C	1.390796	0.789421	0.500000
C27	C	1.033999	0.293192	0.000001
C28	C	1.533999	0.793192	0.500001
C29	C	1.482763	-0.044683	0.000009
C30	C	1.982763	0.455317	0.500009
C31	C	1.479115	-0.183238	0.000006
C32	C	1.979115	0.316762	0.500006
C33	C	1.585403	-0.258221	0.000005
C34	C	2.085403	0.241779	0.500005
C35	C	1.581635	-0.401424	0.000002
C36	C	2.081635	0.098576	0.500002
C37	C	1.703681	0.176234	0.000006
C38	C	2.203681	0.676234	0.500006
C39	C	1.842235	0.179881	0.000002
C40	C	2.342235	0.679881	0.500002
C41	C	1.468448	0.411468	0.000002
C42	C	1.968448	0.911468	0.500002
C43	C	1.472095	0.550023	-0.000000
C44	C	1.972095	1.050023	0.500000
N45	N	1.475576	0.183374	0.195672
N46	N	1.975576	0.683374	0.695672
N47	N	1.475643	0.183401	-0.195660
N48	N	1.975643	0.683401	0.304340
C49	C	1.559713	0.099297	0.238939
C50	C	2.059713	0.599297	0.738939
C51	C	1.559720	0.099296	0.325486
C52	C	2.059720	0.599296	0.825486
C53	C	1.475594	0.183379	0.368765
C54	C	1.975594	0.683379	0.868765
C55	C	1.391448	0.267459	0.325493
C56	C	1.891448	0.767459	0.825493
C57	C	1.391437	0.267453	0.238947
C58	C	1.891437	0.767453	0.738947
C59	C	1.391491	0.267483	0.674521
C60	C	1.891491	0.767483	1.174521
C61	C	1.391511	0.267485	0.761073
C62	C	1.891511	0.767485	1.261073
C63	C	1.559774	0.099326	0.761059
C64	C	2.059774	0.599326	1.261059
C65	C	1.559763	0.099320	0.674514
C66	C	2.059763	0.599320	1.174514
C67	C	1.475613	0.183396	0.631249
C68	C	1.975613	0.683396	1.131249
C69	C	1.475605	0.183394	0.537405
C70	C	1.975605	0.683394	1.037405
C71	C	1.475607	0.183387	0.462608
C72	C	1.975607	0.683387	0.962608
H73	H	1.067171	0.093113	-0.000017
H74	H	1.567171	0.593113	0.499983
H75	H	0.906678	0.088892	-0.000001
H76	H	1.406678	0.588892	0.499999
O77	O	1.709644	-0.202843	0.000007
O78	O	2.209644	0.297157	0.500007
H79	H	1.693106	-0.099056	0.000014
H80	H	2.193106	0.400944	0.500014
H81	H	0.826354	0.380409	-0.000007
H82	H	1.326354	0.880409	0.499993
H83	H	1.628290	0.030863	0.796295
H84	H	2.128290	0.530863	1.296295
H85	H	1.075811	0.386980	0.000005
H86	H	1.575811	0.886980	0.500005
H87	H	1.381100	-0.385552	0.000006
H88	H	1.881100	0.114448	0.500006
O89	O	1.702171	-0.486763	0.000010
O90	O	2.202171	0.013237	0.500010
H91	H	1.757332	-0.468503	-0.056024
H92	H	2.257332	0.031497	0.443976
O93	O	1.354877	-0.238622	0.000012
O94	O	1.854877	0.261378	0.500012
H95	H	1.347969	-0.297285	-0.056025
H96	H	1.847969	0.202715	0.443975
H97	H	1.628223	0.030833	0.203706
H98	H	2.128223	0.530833	0.703706
H99	H	1.628230	0.030834	0.360713
H100	H	2.128230	0.530834	0.860713
H101	H	1.628270	0.030857	0.639279
H102	H	2.128270	0.530857	1.139279
H103	H	1.323002	0.335957	0.796309
H104	H	1.823002	0.835957	1.296309
H105	H	1.322976	0.335942	0.639302
H106	H	1.822976	0.835942	1.139302
O107	O	1.300713	0.358157	0.372166
O108	O	1.800713	0.858157	0.872166
H109	H	1.314865	0.344049	0.439616
H110	H	1.814865	0.844049	0.939616
O111	O	1.300696	0.358141	0.192275
O112	O	1.800696	0.858141	0.692275
H113	H	1.242208	0.416620	0.236908
H114	H	1.742208	0.916620	0.736908
