data_functionalizedCrystal
_audit_creation_method	'MofGen! by Chris Wilmer'
_symmetry_space_group_name_H-M	'P1'
_symmetry_Int_Tables_number	1
_symmetry_cell_setting	triclinic
loop_
_symmetry_equiv_pos_as_xyz
  x,y,z
_cell_length_a	10.686220
_cell_length_b	10.685194
_cell_length_c	10.686551
_cell_angle_alpha	98.415440
_cell_angle_beta	89.691918
_cell_angle_gamma	99.069756
loop_
_atom_site_label
_atom_site_type_symbol
_atom_site_fract_x
_atom_site_fract_y
_atom_site_fract_z
Zn1	Zn	1.946781	-0.311311	0.540461
Zn2	Zn	2.280114	0.022023	0.873795
Zn3	Zn	2.613448	0.355356	1.207128
Zn4	Zn	1.911615	-0.542431	0.314426
Zn5	Zn	2.244949	-0.209098	0.647759
Zn6	Zn	2.578282	0.124236	0.981092
Zn7	Zn	1.718223	-0.343976	0.344478
Zn8	Zn	2.051557	-0.010642	0.677812
Zn9	Zn	2.384890	0.322691	1.011145
Zn10	Zn	1.718258	-0.539843	0.540385
Zn11	Zn	2.051591	-0.206510	0.873719
Zn12	Zn	2.384924	0.126823	1.207052
O13	O	1.823719	-0.434390	0.434938
O14	O	2.157053	-0.101057	0.768271
O15	O	2.490386	0.232276	1.101604
O16	O	2.118689	-0.329382	0.497932
O17	O	2.452023	0.003952	0.831265
O18	O	2.785356	0.337285	1.164598
O19	O	1.871230	-0.530859	0.141828
O20	O	2.204564	-0.197526	0.475161
O21	O	2.537897	0.135808	0.808494
O22	O	1.763244	-0.160946	0.383085
O23	O	2.096578	0.172387	0.716418
O24	O	2.429911	0.505720	1.049751
O25	O	2.092853	-0.499185	0.331864
O26	O	2.426187	-0.165852	0.665198
O27	O	2.759520	0.167482	0.998531
O28	O	1.931165	-0.136948	0.527073
O29	O	2.264498	0.196386	0.860406
O30	O	2.597832	0.529719	1.193739
O31	O	1.729146	-0.385055	0.163907
O32	O	2.062479	-0.051721	0.497240
O33	O	2.395812	0.281612	0.830574
O34	O	1.541655	-0.382545	0.383011
O35	O	1.874988	-0.049212	0.716345
O36	O	2.208321	0.284121	1.049678
O37	O	1.763303	-0.494775	0.716980
O38	O	2.096636	-0.161441	1.050313
O39	O	2.429970	0.171892	1.383647
O40	O	1.541680	-0.526449	0.526943
O41	O	1.875013	-0.193115	0.860277
O42	O	2.208346	0.140218	1.193610
O43	O	1.931198	-0.326873	0.717036
O44	O	2.264532	0.006461	1.050369
O45	O	2.597865	0.339794	1.383702
O46	O	1.871264	-0.720784	0.331791
O47	O	2.204597	-0.387451	0.665124
O48	O	2.537930	-0.054117	0.998457
O49	O	1.729204	-0.718883	0.497802
O50	O	2.062538	-0.385549	0.831136
O51	O	2.395871	-0.052216	1.164469
C52	C	1.495884	-0.457762	0.458231
C53	C	1.829217	-0.124428	0.791564
C54	C	2.162550	0.208905	1.124897
C55	C	1.355634	-0.467788	0.468224
C56	C	1.688967	-0.134455	0.801557
C57	C	2.022301	0.198878	1.134890
C58	C	1.796458	-0.766163	0.411552
C59	C	2.129792	-0.432829	0.744886
C60	C	2.463125	-0.099496	1.078219
C61	C	1.784915	-0.908084	0.401582
C62	C	2.118248	-0.574751	0.734915
C63	C	2.451582	-0.241418	1.068249
C64	C	2.152835	-0.410928	0.411554
C65	C	2.486168	-0.077595	0.744887
C66	C	2.819502	0.255738	1.078221
C67	C	2.293085	-0.400930	0.401589
C68	C	2.626418	-0.067597	0.734923
C69	C	2.959751	0.265736	1.068256
C70	C	1.851177	-0.406891	0.764075
C71	C	2.184510	-0.073558	1.097408
C72	C	2.517844	0.259775	1.430741
C73	C	1.862878	-0.395173	0.904333
C74	C	2.196211	-0.061839	1.237666
C75	C	2.529545	0.271494	1.571000
C76	C	1.851123	-0.101318	0.458440
C77	C	2.184457	0.232016	0.791773
C78	C	2.517790	0.565349	1.125106
C79	C	1.862801	0.040618	0.468455
C80	C	2.196135	0.373952	0.801788
C81	C	2.529468	0.707285	1.135121
C82	C	1.796448	-0.461685	0.107083
C83	C	2.129782	-0.128351	0.440416
C84	C	2.463115	0.204982	0.773749
C85	C	1.785022	-0.473026	-0.033167
C86	C	2.118355	-0.139693	0.300166
C87	C	2.451688	0.193641	0.633499
H88	H	1.346828	-0.336021	0.336895
H89	H	1.680161	-0.002687	0.670229
H90	H	2.013495	0.330646	1.003562
O91	O	1.284454	-0.553781	0.553927
O92	O	1.617787	-0.220447	0.887261
O93	O	1.951121	0.112886	1.220594
H94	H	1.181771	-0.548425	0.548599
H95	H	1.515105	-0.215092	0.881932
H96	H	1.848438	0.118241	1.215266
H97	H	1.709385	-0.972749	0.336703
H98	H	2.042718	-0.639415	0.670036
H99	H	2.376052	-0.306082	1.003370
O100	O	1.962847	-0.873750	0.554397
O101	O	2.296181	-0.540417	0.887730
O102	O	2.629514	-0.207083	1.221064
H103	H	1.956534	-0.771978	0.548997
H104	H	2.289868	-0.438644	0.882331
H105	H	2.623201	-0.105311	1.215664
H106	H	1.709417	-0.548648	0.913039
H107	H	2.042750	-0.215315	1.246372
H108	H	2.376084	0.118019	1.579705
O109	O	1.963022	-0.294976	0.975582
O110	O	2.296356	0.038358	1.308915
O111	O	2.629689	0.371691	1.642249
H112	H	1.956796	-0.301166	1.078264
H113	H	2.290129	0.032167	1.411597
H114	H	2.623463	0.365501	1.744931
