data_functionalizedCrystal
_audit_creation_method	'MofGen! by Chris Wilmer'
_symmetry_space_group_name_H-M	'P1'
_symmetry_Int_Tables_number	1
_symmetry_cell_setting	triclinic
loop_
_symmetry_equiv_pos_as_xyz
  x,y,z
_cell_length_a	10.654545
_cell_length_b	14.971494
_cell_length_c	9.130313
_cell_angle_alpha	90.002802
_cell_angle_beta	90.003066
_cell_angle_gamma	84.050318
loop_
_atom_site_label
_atom_site_type_symbol
_atom_site_fract_x
_atom_site_fract_y
_atom_site_fract_z
O1	O	1.666501	0.125611	0.121779
O2	O	1.300893	0.137585	0.121784
O3	O	1.493491	0.001452	0.121778
O4	O	1.473903	0.261744	0.121785
O5	O	1.493478	0.001448	-0.121821
O6	O	1.300880	0.137581	-0.121815
O7	O	1.666487	0.125607	-0.121820
Cu8	Cu	1.483683	0.131594	-0.144060
Cu9	Cu	1.483698	0.131598	0.144024
O10	O	1.473890	0.261740	-0.121814
C11	C	1.254098	0.136705	-0.000014
C12	C	1.114683	0.134077	-0.000012
C13	C	1.049184	0.132838	-0.132799
C14	C	0.918191	0.130354	-0.132799
C15	C	0.918206	0.130352	0.132786
C16	C	1.049198	0.132829	0.132785
C17	C	1.492606	-0.031880	-0.000019
C18	C	1.489976	-0.131191	-0.000012
C19	C	1.488750	-0.177840	0.132775
C20	C	1.486270	-0.271152	0.132777
C21	C	1.485025	-0.317815	-0.000010
C22	C	1.486247	-0.271159	-0.132808
C23	C	1.488718	-0.177847	-0.132808
C24	C	1.481100	-0.465650	-0.132798
C25	C	1.478631	-0.558968	-0.132798
C26	C	1.478652	-0.558955	0.132787
C27	C	1.481123	-0.465643	0.132787
C28	C	1.482347	-0.418994	-0.000011
C29	C	1.713283	0.126488	-0.000018
C30	C	1.852698	0.129115	-0.000011
C31	C	1.474774	0.295072	-0.000014
C32	C	1.477405	0.394383	-0.000011
N33	N	1.483681	0.131590	-0.346683
C34	C	1.568991	0.071336	-0.423337
C35	C	1.569004	0.071336	-0.576674
C36	C	1.398390	0.191852	-0.576688
C37	C	1.398373	0.191847	-0.423354
N38	N	1.483710	0.131595	0.346647
H39	H	1.102529	0.133836	0.240922
C40	C	1.662843	0.005058	-0.660995
H41	H	1.650629	0.013682	-0.763297
H42	H	1.746664	0.015326	-0.635850
H43	H	1.649108	-0.054732	-0.635873
C44	C	0.846167	0.128992	0.278850
H45	H	0.758770	0.127349	0.259835
H46	H	0.877136	0.077332	0.333413
H47	H	0.858138	0.181474	0.333406
C48	C	1.490069	-0.126533	-0.278874
H49	H	1.488985	-0.167687	-0.357958
H50	H	1.417855	-0.083766	-0.284391
H51	H	1.564219	-0.096500	-0.284396
H52	H	1.328897	0.240914	-0.360938
C53	C	1.121218	0.134183	-0.278868
H54	H	1.063446	0.133076	-0.357949
H55	H	1.162826	0.187212	-0.284409
H56	H	1.181811	0.083069	-0.284371
C57	C	0.846147	0.128997	-0.278864
H58	H	0.903911	0.130101	-0.357947
H59	H	0.804549	0.075962	-0.284397
H60	H	0.785544	0.180105	-0.284374
C61	C	1.490119	-0.126519	0.278843
H62	H	1.489021	-0.167669	0.357926
H63	H	1.564259	-0.096484	0.284367
H64	H	1.417895	-0.083752	0.284363
C65	C	1.304571	0.258138	-0.661031
H66	H	1.316807	0.249519	-0.763331
H67	H	1.220743	0.247871	-0.635927
H68	H	1.318304	0.317926	-0.635883
H69	H	1.477607	-0.596957	-0.240925
C70	C	1.484899	-0.322461	0.278843
H71	H	1.486002	-0.281307	0.357925
H72	H	1.410750	-0.352485	0.284353
H73	H	1.557113	-0.365236	0.284377
H74	H	1.477652	-0.596941	0.240916
H75	H	1.482146	-0.427654	0.240914
C76	C	1.484872	-0.322480	-0.278875
H77	H	1.485943	-0.281329	-0.357959
H78	H	1.557084	-0.365249	-0.284402
H79	H	1.410721	-0.352512	-0.284388
C80	C	1.662814	0.005048	-0.339003
H81	H	1.713615	-0.030842	-0.406623
H82	H	1.715131	0.037565	-0.279167
H83	H	1.617570	-0.032490	-0.279209
H84	H	1.482069	-0.427668	-0.240936
