data_functionalizedCrystal
_audit_creation_method	'MofGen! by Chris Wilmer'
_symmetry_space_group_name_H-M	'P1'
_symmetry_Int_Tables_number	1
_symmetry_cell_setting	triclinic
loop_
_symmetry_equiv_pos_as_xyz
  x,y,z
_cell_length_a	12.759395
_cell_length_b	29.839131
_cell_length_c	12.759387
_cell_angle_alpha	89.962744
_cell_angle_beta	89.979491
_cell_angle_gamma	90.042957
loop_
_atom_site_label
_atom_site_type_symbol
_atom_site_fract_x
_atom_site_fract_y
_atom_site_fract_z
Zn1	Zn	1.606074	-0.178811	-0.593958
Zn2	Zn	1.605882	-0.253949	-0.418259
Zn3	Zn	1.430372	-0.178836	-0.418295
Zn4	Zn	1.430282	-0.253917	-0.593898
O5	O	1.518153	-0.216378	-0.506102
O6	O	1.753069	-0.188782	-0.570661
O7	O	1.582558	-0.244009	-0.271242
O8	O	1.453797	-0.115965	-0.441637
O9	O	1.752929	-0.243985	-0.441575
O10	O	1.582884	-0.115947	-0.570696
O11	O	1.453611	-0.188823	-0.271269
O12	O	1.283339	-0.188792	-0.441579
O13	O	1.453644	-0.243930	-0.740927
O14	O	1.283273	-0.243954	-0.570593
O15	O	1.582797	-0.188751	-0.740971
O16	O	1.582471	-0.316812	-0.441517
O17	O	1.453458	-0.316788	-0.570558
C18	C	1.245185	-0.216373	-0.506084
C19	C	1.128408	-0.216381	-0.506101
C20	C	1.128378	-0.273914	-0.640227
C21	C	1.073502	-0.302684	-0.707293
C22	C	0.963781	-0.302690	-0.707306
C23	C	0.908933	-0.273921	-0.640248
C24	C	0.963808	-0.245151	-0.573182
C25	C	1.073532	-0.245150	-0.573174
C26	C	0.963838	-0.187617	-0.439063
C27	C	1.073560	-0.187613	-0.439043
C28	C	0.908990	-0.158848	-0.372005
C29	C	0.963866	-0.130079	-0.304933
C30	C	1.073594	-0.130076	-0.304922
C31	C	1.128436	-0.158843	-0.371978
C32	C	1.517963	-0.333101	-0.506050
C33	C	1.517978	-0.383035	-0.506063
C34	C	1.585452	-0.692678	-0.439009
C35	C	1.585581	-0.880351	-0.439049
O36	O	1.642799	-0.904616	-0.381997
N37	N	1.518370	-0.903820	-0.506181
C38	C	1.451127	-0.880368	-0.573313
O39	O	1.393971	-0.904636	-0.630421
C40	C	1.451004	-0.692696	-0.573277
C41	C	1.518211	-0.669229	-0.506133
C42	C	1.652655	-0.669211	-0.371871
C43	C	1.652617	-0.622296	-0.371857
C44	C	1.585377	-0.598847	-0.438981
C45	C	1.518174	-0.622314	-0.506119
C46	C	1.383766	-0.669245	-0.640413
C47	C	1.383743	-0.622324	-0.640400
C48	C	1.450951	-0.598857	-0.573256
C49	C	1.450897	-0.551950	-0.573230
N50	N	1.518108	-0.528481	-0.506098
C51	C	1.585348	-0.551929	-0.438974
C52	C	1.451195	-0.978899	-0.573326
C53	C	1.451225	-1.025817	-0.573334
C54	C	1.585680	-1.025796	-0.439071
C55	C	1.585645	-0.978878	-0.439059
C56	C	1.518406	-0.955430	-0.506194
C57	C	1.585264	-0.453404	-0.438949
C58	C	1.585218	-0.406484	-0.438939
C59	C	1.450767	-0.406508	-0.573205
C60	C	1.450808	-0.453424	-0.573212
C61	C	1.518066	-0.476870	-0.506081
O62	O	1.393717	-0.527656	-0.630260
O63	O	1.642512	-0.527653	-0.381890
C64	C	1.585489	-0.739594	-0.439022
C65	C	1.518286	-0.763060	-0.506160
C66	C	1.451045	-0.739611	-0.573284
C67	C	1.518315	-0.809978	-0.506168
C68	C	1.585555	-0.833427	-0.439044
C69	C	1.652766	-0.809958	-0.371912
C70	C	1.652729	-0.763042	-0.371898
C71	C	1.383835	-0.763081	-0.640416
C72	C	1.383876	-0.809996	-0.640423
C73	C	1.451117	-0.833445	-0.573299
C74	C	1.792186	-0.216384	-0.506121
C75	C	1.908963	-0.216387	-0.506129
C76	C	1.518232	-0.216334	-0.780136
C77	C	1.518266	-0.216315	-0.896913
C78	C	1.518372	-0.099200	-0.506177
C79	C	1.518465	-0.049265	-0.506210
C80	C	1.652762	-0.158860	-0.896978
C81	C	1.720025	-0.130126	-0.951872
C82	C	1.720050	-0.130110	-1.061594
C83	C	1.652804	-0.158830	-1.116424
C84	C	1.585541	-0.187564	-1.061531
C85	C	1.585525	-0.187578	-0.951806
C86	C	1.451041	-0.245016	-1.061465
C87	C	1.451019	-0.245035	-0.951743
C88	C	1.383794	-0.273736	-1.116295
C89	C	1.316535	-0.302473	-1.061401
C90	C	1.316513	-0.302489	-0.951673
C91	C	1.383756	-0.273770	-0.896849
C92	C	1.518134	-0.216390	-0.233135
C93	C	1.518304	-0.216282	-0.116359
H94	H	1.217777	-0.158843	-0.371972
O95	O	1.126735	-0.102114	-0.239670
C96	C	1.054792	-0.076719	-0.180513
H97	H	0.976547	-0.095120	-0.176807
H98	H	1.086456	-0.071881	-0.097750
H99	H	1.043198	-0.042620	-0.219141
H100	H	1.774815	-0.106709	-1.106288
H101	H	1.396017	-0.387409	-0.627853
O102	O	0.802350	-0.273925	-0.640071
C103	C	0.765623	-0.285420	-0.539339
H104	H	0.828837	-0.277713	-0.478849
H105	H	0.692243	-0.265147	-0.520764
H106	H	0.746090	-0.322695	-0.536952
H107	H	0.819649	-0.158852	-0.372025
O108	O	1.652991	-0.158851	-1.223007
C109	C	1.753673	-0.170375	-1.259679
H110	H	1.797058	-0.189973	-1.196447
H111	H	1.746119	-0.191903	-1.333071
H112	H	1.799255	-0.138567	-1.279175
O113	O	1.650608	-0.383759	-0.373680
C114	C	1.709945	-0.414520	-0.314424
H115	H	1.713582	-0.447948	-0.357474
H116	H	1.792719	-0.400931	-0.303284
H117	H	1.671516	-0.419555	-0.234599
O118	O	1.383822	-0.273804	-1.222878
C119	C	1.410743	-0.316855	-1.259502
H120	H	1.392722	-0.342738	-1.196248
H121	H	1.363355	-0.324827	-1.332895
H122	H	1.497920	-0.317812	-1.278980
O123	O	1.650456	-0.476229	-0.373700
C124	C	1.590712	-0.503413	-0.305774
H125	H	1.511074	-0.510469	-0.342749
H126	H	1.633548	-0.536389	-0.291752
H127	H	1.579203	-0.485364	-0.227897
O128	O	1.652549	-0.158874	-0.790396
C129	C	1.551883	-0.147321	-0.753729
H130	H	1.491361	-0.154984	-0.816941
H131	H	1.533152	-0.167592	-0.680302
H132	H	1.549736	-0.110047	-0.734293
O133	O	1.718014	-0.599573	-0.306611
C134	C	1.777346	-0.630339	-0.247362
H135	H	1.780965	-0.663767	-0.290412
H136	H	1.860128	-0.616756	-0.236233
H137	H	1.738927	-0.635371	-0.167532
H138	H	1.640372	-0.959774	-0.384385
O139	O	1.251270	-0.330431	-1.114546
C140	C	1.274153	-0.375213	-1.087737
H141	H	1.314524	-0.376162	-1.008078
H142	H	1.198287	-0.395355	-1.083959
H143	H	1.328148	-0.390336	-1.149492
O144	O	1.785381	-0.102187	-0.898772
C145	C	1.844771	-0.076831	-0.970752
H146	H	1.801756	-0.075261	-1.048960
H147	H	1.856050	-0.041440	-0.939078
H148	H	1.924530	-0.093287	-0.982423
H149	H	1.707415	-0.688299	-0.317210
O150	O	1.251322	-0.330424	-0.898232
C151	C	1.311068	-0.359461	-0.834777
H152	H	1.390719	-0.343624	-0.818368
H153	H	1.268250	-0.365491	-0.757607
H154	H	1.322548	-0.392748	-0.877043
H155	H	1.640430	-1.044896	-0.384416
H156	H	0.919200	-0.106656	-0.250344
H157	H	1.383749	-0.273781	-0.807508
H158	H	1.118172	-0.326106	-0.761892
O159	O	1.234961	-0.273995	-0.640197
C160	C	1.271526	-0.317033	-0.612981
H161	H	1.208262	-0.342921	-0.630829
H162	H	1.344948	-0.325046	-0.660313
H163	H	1.290938	-0.317936	-0.525797
O164	O	0.910632	-0.330676	-0.772492
C165	C	0.982563	-0.356056	-0.831702
H166	H	1.060756	-0.357590	-0.788657
H167	H	0.950802	-0.391457	-0.842762
H168	H	0.994295	-0.339643	-0.911563
H169	H	1.396488	-1.044919	-0.627999
O170	O	1.385768	-0.956194	-0.638571
C171	C	1.326476	-0.986975	-0.697831
H172	H	1.322899	-1.020433	-0.654793
H173	H	1.243677	-0.973458	-0.708957
H174	H	1.364904	-0.991924	-0.777662
O175	O	1.318450	-0.691963	-0.705740
C176	C	1.259092	-0.661197	-0.764961
H177	H	1.302110	-0.627734	-0.768609
H178	H	1.247858	-0.674724	-0.847739
H179	H	1.179313	-0.656254	-0.726423
H180	H	1.328991	-0.603235	-0.695072
H181	H	1.396086	-0.472531	-0.627889
O182	O	1.718119	-0.740320	-0.306645
C183	C	1.777448	-0.771085	-0.247393
H184	H	1.781075	-0.804512	-0.290446
H185	H	1.860226	-0.757501	-0.236253
H186	H	1.739019	-0.776119	-0.167568
H187	H	1.707513	-0.829058	-0.317254
H188	H	1.329138	-0.829099	-0.695099
H189	H	1.329081	-0.743992	-0.695078
