data_functionalizedCrystal
_audit_creation_method	'MofGen! by Chris Wilmer'
_symmetry_space_group_name_H-M	'P1'
_symmetry_Int_Tables_number	1
_symmetry_cell_setting	triclinic
loop_
_symmetry_equiv_pos_as_xyz
  x,y,z
_cell_length_a	25.639242
_cell_length_b	16.120484
_cell_length_c	16.120297
_cell_angle_alpha	95.614431
_cell_angle_beta	87.131671
_cell_angle_gamma	87.078891
loop_
_atom_site_label
_atom_site_type_symbol
_atom_site_fract_x
_atom_site_fract_y
_atom_site_fract_z
Zn1	Zn	-0.772385	-0.356866	-0.489681
Zn2	Zn	-0.772319	-0.489556	-0.356991
Zn3	Zn	-0.689622	-0.349790	-0.349903
Zn4	Zn	-0.680261	-0.496583	-0.496687
O5	O	-0.728646	-0.423199	-0.423315
O6	O	-0.845539	-0.374489	-0.472114
O7	O	-0.765239	-0.465113	-0.239090
O8	O	-0.704546	-0.233764	-0.362546
O9	O	-0.845491	-0.471975	-0.374628
O10	O	-0.765351	-0.238963	-0.465240
O11	O	-0.704482	-0.362428	-0.233882
O12	O	-0.615216	-0.369241	-0.369339
O13	O	-0.688591	-0.483952	-0.612718
O14	O	-0.608339	-0.477090	-0.477181
O15	O	-0.756274	-0.381303	-0.607571
O16	O	-0.756162	-0.607453	-0.381421
O17	O	-0.688527	-0.612616	-0.484055
C18	C	-0.592807	-0.423161	-0.423252
C19	C	-0.534693	-0.423166	-0.423245
C20	C	-0.721335	-0.640363	-0.434285
C21	C	-0.718254	-0.733268	-0.439006
C22	C	-0.170754	-0.479433	-0.479400
C23	C	-0.116149	-0.479438	-0.479411
O24	O	-0.084875	-0.527240	-0.527117
N25	N	-0.092406	-0.423214	-0.423345
C26	C	-0.123270	-0.366976	-0.367270
O27	O	-0.098061	-0.319153	-0.319583
C28	C	-0.177874	-0.366968	-0.367264
C29	C	-0.201615	-0.423201	-0.423327
C30	C	-0.194495	-0.535661	-0.535460
C31	C	-0.249096	-0.535657	-0.535447
C32	C	-0.279956	-0.479425	-0.479375
C33	C	-0.256216	-0.423197	-0.423315
C34	C	-0.208737	-0.310726	-0.311193
C35	C	-0.263345	-0.310723	-0.311192
C36	C	-0.287085	-0.366956	-0.367256
C37	C	-0.341677	-0.366961	-0.367230
N38	N	-0.365420	-0.423185	-0.423296
C39	C	-0.334560	-0.479417	-0.479368
C40	C	-0.008598	-0.366997	-0.367289
C41	C	0.046004	-0.367008	-0.367291
C42	C	0.053121	-0.479470	-0.479433
C43	C	-0.001482	-0.479461	-0.479427
C44	C	-0.032342	-0.423221	-0.423355
C45	C	-0.449227	-0.479405	-0.479337
C46	C	-0.503833	-0.479398	-0.479318
C47	C	-0.510945	-0.366934	-0.367179
C48	C	-0.456344	-0.366943	-0.367195
C49	C	-0.425486	-0.423182	-0.423281
O50	O	-0.372985	-0.319181	-0.319551
O51	O	-0.359777	-0.527224	-0.527055
C52	C	0.134983	-0.423234	-0.423370
C53	C	0.076869	-0.423238	-0.423367
C54	C	-0.712632	-0.903367	-0.447643
C55	C	-0.744754	-0.942191	-0.399002
C56	C	-0.741626	-1.036840	-0.403807
C57	C	-0.715759	-0.808710	-0.442839
C58	C	-0.721396	-0.434200	-0.641319
C59	C	-0.718306	-0.438889	-0.734219
C60	C	-0.736000	-0.205188	-0.412321
C61	C	-0.739134	-0.112284	-0.407636
C62	C	-0.712646	-0.447430	-0.904308
C63	C	-0.744758	-0.398718	-0.943162
C64	C	-0.741609	-0.403470	-1.037805
C65	C	-0.715794	-0.442678	-0.809656
C66	C	-0.735901	-0.412180	-0.206157
C67	C	-0.739100	-0.407256	-0.113245
H68	H	-0.523159	-0.525193	-0.524972
C69	C	-0.672890	-0.953786	-0.508111
C70	C	-0.682170	-0.936771	-0.589778
C71	C	-0.645575	-0.983221	-0.645500
H72	H	-0.638612	-0.939005	-0.495219
H73	H	-0.676055	-1.011626	-0.503414
H74	H	-0.679000	-0.878944	-0.594472
H75	H	-0.716441	-0.951556	-0.602696
H76	H	-0.648740	-1.041061	-0.640803
H77	H	-0.611299	-0.968436	-0.632600
H78	H	-0.651870	-0.971689	-0.700917
H79	H	-0.774605	-0.904345	-0.353749
H80	H	-0.774615	-0.353444	-0.905347
C81	C	-0.274965	-0.596664	-0.596238
C82	C	-0.329391	-0.584646	-0.584230
C83	C	-0.353235	-0.640836	-0.640215
H84	H	-0.264624	-0.587398	-0.651834
H85	H	-0.264567	-0.652203	-0.586751
H86	H	-0.339786	-0.529120	-0.593724
H87	H	-0.339748	-0.593918	-0.528645
H88	H	-0.342836	-0.696375	-0.630728
H89	H	-0.342889	-0.631566	-0.695808
H90	H	-0.390165	-0.632695	-0.632070
C91	C	-0.672893	-0.507774	-0.954872
C92	C	-0.677650	-0.500568	-1.040051
C93	C	-0.641045	-0.556153	-1.086666
H94	H	-0.638613	-0.494895	-0.940081
H95	H	-0.679121	-0.563255	-0.943512
H96	H	-0.671418	-0.445100	-1.051406
H97	H	-0.711922	-0.513454	-1.054866
H98	H	-0.647274	-0.611634	-1.075306
H99	H	-0.606768	-0.543270	-1.071869
H100	H	-0.644272	-0.551277	-1.144465
C101	C	-0.161059	-0.596682	-0.596475
C102	C	-0.172229	-0.582802	-0.678285
C103	C	-0.141448	-0.639014	-0.734513
H104	H	-0.125123	-0.588706	-0.588576
H105	H	-0.168546	-0.652211	-0.587028
H106	H	-0.164738	-0.527286	-0.687728
H107	H	-0.208160	-0.590784	-0.686211
H108	H	-0.148935	-0.694543	-0.725066
H109	H	-0.105513	-0.631033	-0.726606
H110	H	-0.149026	-0.629609	-0.790027
C111	C	-0.027157	-0.540546	-0.540395
C112	C	0.011563	-0.589776	-0.589511
C113	C	-0.012065	-0.646049	-0.645695
H114	H	-0.048293	-0.575376	-0.510300
H115	H	-0.048309	-0.510487	-0.575299
H116	H	0.032707	-0.619833	-0.554611
H117	H	0.032702	-0.554969	-0.619624
H118	H	-0.033217	-0.615990	-0.680599
H119	H	-0.033200	-0.680873	-0.615593
H120	H	0.014203	-0.679453	-0.679032
H121	H	-0.424108	-0.525197	-0.525010
H122	H	0.065329	-0.321226	-0.321630
C123	C	0.086724	-0.540425	-0.540284
C124	C	0.139623	-0.528373	-0.528301
C125	C	0.170594	-0.584499	-0.584345
H126	H	0.079324	-0.595983	-0.530856
H127	H	0.079254	-0.531103	-0.595864
H128	H	0.147090	-0.537702	-0.472734
H129	H	0.147039	-0.472827	-0.537736
H130	H	0.163124	-0.575176	-0.639925
H131	H	0.163190	-0.640053	-0.574912
H132	H	0.206489	-0.576324	-0.576228
H133	H	-0.189418	-0.264937	-0.265538
C134	C	-0.042011	-0.305905	-0.306303
C135	C	-0.009525	-0.256690	-0.257194
C136	C	-0.040282	-0.200412	-0.200997
H137	H	-0.063484	-0.271064	-0.336389
H138	H	-0.063434	-0.335959	-0.271395
H139	H	0.011889	-0.226638	-0.292097
H140	H	0.011948	-0.291508	-0.227089
H141	H	-0.061705	-0.230466	-0.166090
H142	H	-0.061754	-0.165578	-0.231091
H143	H	-0.018245	-0.167018	-0.167665
H144	H	-0.536081	-0.321154	-0.321523
C145	C	-0.296758	-0.249628	-0.250212
C146	C	-0.264275	-0.200405	-0.201106
C147	C	-0.295036	-0.144128	-0.144913
H148	H	-0.318234	-0.214793	-0.280301
H149	H	-0.318180	-0.279683	-0.215303
H150	H	-0.242863	-0.170352	-0.236011
H151	H	-0.242800	-0.235217	-0.170999
H152	H	-0.316457	-0.174183	-0.110004
H153	H	-0.316510	-0.109299	-0.175009
H154	H	-0.273001	-0.110728	-0.111583
H155	H	-0.437013	-0.321155	-0.321542
