data_functionalizedCrystal
_audit_creation_method	'MofGen! by Chris Wilmer'
_symmetry_space_group_name_H-M	'P1'
_symmetry_Int_Tables_number	1
_symmetry_cell_setting	triclinic
loop_
_symmetry_equiv_pos_as_xyz
  x,y,z
_cell_length_a	12.503572
_cell_length_b	14.519709
_cell_length_c	14.519709
_cell_angle_alpha	83.680145
_cell_angle_beta	93.534022
_cell_angle_gamma	86.467165
loop_
_atom_site_label
_atom_site_type_symbol
_atom_site_fract_x
_atom_site_fract_y
_atom_site_fract_z
O1	O	-0.089184	-1.218552	-0.126203
O2	O	-0.089218	-0.950073	-0.140441
O3	O	-0.089190	-1.091431	0.000917
O4	O	-0.089212	-1.077193	-0.267561
O5	O	0.089454	-1.102067	0.011561
O6	O	0.089426	-0.960708	-0.129797
O7	O	0.089460	-1.229187	-0.115559
Cu8	Cu	0.105755	-1.095919	-0.121706
Cu9	Cu	-0.105513	-1.083341	-0.134294
O10	O	0.089432	-1.087829	-0.256917
C11	C	0.000100	-0.921031	-0.134456
C12	C	0.000088	-0.818649	-0.132469
N13	N	-0.254107	-1.074495	-0.143141
C14	C	0.000132	-1.096086	0.040599
C15	C	0.000132	-1.094097	0.142980
C16	C	-0.473224	-1.061475	-0.156155
C17	C	-0.526541	-1.117790	-0.099841
C18	C	-0.648465	-1.110545	-0.107082
C19	C	-0.351289	-1.068718	-0.148915
N20	N	0.254349	-1.104772	-0.112852
C21	C	0.000139	-1.258229	-0.121544
C22	C	0.000145	-1.360611	-0.123532
C23	C	0.000137	-0.443756	-0.125146
C24	C	0.000123	-0.548063	-0.127180
C25	C	0.000112	-0.631199	-0.128807
C26	C	0.000100	-0.735513	-0.130841
C27	C	0.000108	-1.083175	-0.296599
C28	C	0.000101	-1.085162	-0.398981
C29	C	0.000103	-1.086776	0.517874
C30	C	0.000112	-1.088809	0.413567
C31	C	0.000119	-1.090437	0.330430
C32	C	0.000125	-1.092470	0.226116
H33	H	-0.480617	-1.171443	-0.046190
H34	H	-0.519142	-1.007824	-0.209801
