data_functionalizedCrystal
_audit_creation_method	'MofGen! by Chris Wilmer'
_symmetry_space_group_name_H-M	'P1'
_symmetry_Int_Tables_number	1
_symmetry_cell_setting	triclinic
loop_
_symmetry_equiv_pos_as_xyz
  x,y,z
_cell_length_a	12.759395
_cell_length_b	12.759394
_cell_length_c	12.827885
_cell_angle_alpha	90.029530
_cell_angle_beta	90.019387
_cell_angle_gamma	90.014617
loop_
_atom_site_label
_atom_site_type_symbol
_atom_site_fract_x
_atom_site_fract_y
_atom_site_fract_z
Zn1	Zn	1.606258	-0.418194	0.590854
Zn2	Zn	2.106258	0.081806	1.090854
Zn3	Zn	1.606156	-0.593910	0.416115
Zn4	Zn	2.106156	-0.093910	0.916115
Zn5	Zn	1.430561	-0.418248	0.416127
Zn6	Zn	1.930561	0.081752	0.916127
Zn7	Zn	1.430551	-0.593834	0.590814
Zn8	Zn	1.930551	-0.093834	1.090814
O9	O	1.518381	-0.506047	0.503478
O10	O	2.018381	-0.006047	1.003478
O11	O	1.753265	-0.441513	0.567686
O12	O	2.253265	0.058487	1.067686
O13	O	1.582825	-0.570662	0.269880
O14	O	2.082825	-0.070662	0.769880
O15	O	1.453914	-0.271220	0.439326
O16	O	1.953914	0.228780	0.939326
O17	O	1.753191	-0.570610	0.439306
O18	O	2.253191	-0.070610	0.939306
O19	O	1.582998	-0.271180	0.567697
O20	O	2.082998	0.228820	1.067697
O21	O	1.453816	-0.441604	0.269889
O22	O	1.953816	0.058396	0.769889
O23	O	1.283539	-0.441530	0.439288
O24	O	1.783539	0.058470	0.939288
O25	O	1.453897	-0.570481	0.737056
O26	O	1.953897	-0.070481	1.237056
O27	O	1.283531	-0.570533	0.567630
O28	O	1.783531	-0.070533	1.067630
O29	O	1.582988	-0.441439	0.737085
O30	O	2.082988	0.058561	1.237085
O31	O	1.582815	-0.740921	0.439268
O32	O	2.082815	-0.240921	0.939268
O33	O	1.453799	-0.740865	0.567619
O34	O	1.953799	-0.240865	1.067619
C35	C	1.245414	-0.506030	0.503457
C36	C	1.745414	-0.006030	1.003457
C37	C	1.128637	-0.506048	0.503473
C38	C	1.628637	-0.006048	1.003473
C39	C	1.518323	-0.779014	0.503460
C40	C	2.018323	-0.279014	1.003460
C41	C	1.518394	-0.895791	0.503488
C42	C	2.018394	-0.395791	1.003488
C43	C	0.909280	-0.371859	0.637406
C44	C	1.409280	0.128141	1.137406
C45	C	0.964185	-0.304742	0.704342
C46	C	1.464185	0.195258	1.204342
C47	C	1.073907	-0.304724	0.704324
C48	C	1.573907	0.195276	1.204324
C49	C	1.128726	-0.371833	0.637364
C50	C	1.628726	0.128167	1.137364
C51	C	1.073821	-0.438950	0.570428
C52	C	1.573821	0.061050	1.070428
C53	C	0.964097	-0.438958	0.570451
C54	C	1.464097	0.061042	1.070451
C55	C	1.073732	-0.573165	0.436537
C56	C	1.573732	-0.073165	0.936537
C57	C	0.964011	-0.573180	0.436548
C58	C	1.464011	-0.073180	0.936548
C59	C	1.128551	-0.640273	0.369577
C60	C	1.628551	-0.140273	0.869577
C61	C	1.073646	-0.707387	0.302633
C62	C	1.573646	-0.207387	0.802633
C63	C	0.963918	-0.707401	0.302653
C64	C	1.463918	-0.207401	0.802653
C65	C	0.909105	-0.640296	0.369611
C66	C	1.409105	-0.140296	0.869611
C67	C	1.652708	-0.895592	0.637261
C68	C	2.152708	-0.395592	1.137261
C69	C	1.719899	-0.950353	0.704155
C70	C	2.219899	-0.450353	1.204155
C71	C	1.719961	-1.060074	0.704178
C72	C	2.219961	-0.560074	1.204178
C73	C	1.652824	-1.115037	0.637301
C74	C	2.152824	-0.615037	1.137301
C75	C	1.585634	-1.060276	0.570407
C76	C	2.085634	-0.560276	1.070407
C77	C	1.585581	-0.950552	0.570389
C78	C	2.085581	-0.450552	1.070389
C79	C	1.451316	-1.060475	0.436640
C80	C	1.951316	-0.560475	0.936640
C81	C	1.451257	-0.950754	0.436611
C82	C	1.951257	-0.450754	0.936611
C83	C	1.384178	-1.115438	0.369764
C84	C	1.884178	-0.615438	0.869764
C85	C	1.316992	-1.060677	0.302862
C86	C	1.816992	-0.560677	0.802862
C87	C	1.316933	-0.950949	0.302842
C88	C	1.816933	-0.450949	0.802842
C89	C	1.384067	-0.895992	0.369717
C90	C	1.884067	-0.395992	0.869717
C91	C	1.792415	-0.506064	0.503499
C92	C	2.292415	-0.006064	1.003499
C93	C	1.909192	-0.506071	0.503508
C94	C	2.409192	-0.006071	1.003508
C95	C	1.518453	-0.505946	0.776048
C96	C	2.018453	-0.005946	1.276048
C97	C	1.518483	-0.505903	0.892201
C98	C	2.018483	-0.005903	1.392201
C99	C	1.518469	-0.232013	0.503518
C100	C	2.018469	0.267987	1.003518
C101	C	1.518506	-0.115236	0.503535
C102	C	2.018506	0.384764	1.003535
C103	C	1.518371	-0.506071	0.231968
C104	C	2.018371	-0.006071	0.731968
C105	C	1.518544	-0.505818	0.115815
C106	C	2.018544	-0.005818	0.615815
C107	C	1.582369	-0.442036	0.944000
C108	C	2.082369	0.057964	1.444000
C109	C	1.582402	-0.441990	1.064051
C110	C	2.082402	0.058010	1.564051
H111	H	0.819939	-0.371844	0.637405
H112	H	1.319939	0.128156	1.137405
C113	C	1.249248	-0.640248	0.369555
C114	C	1.749248	-0.140248	0.869555
N115	N	1.340158	-0.640225	0.369532
N116	N	1.840158	-0.140225	0.869532
H117	H	1.652872	-1.204378	0.637334
H118	H	2.152872	-0.704378	1.137334
C119	C	1.134304	-0.230893	0.777957
C120	C	1.634304	0.269107	1.277957
N121	N	1.179795	-0.175281	0.833416
N122	N	1.679795	0.324719	1.333416
C123	C	1.384262	-1.236135	0.369778
C124	C	1.884262	-0.736135	0.869778
N125	N	1.384330	-1.327045	0.369780
N126	N	1.884330	-0.827045	0.869780
C127	C	1.656292	-0.368116	1.124227
C128	C	2.156292	0.131884	1.624227
N129	N	1.711946	-0.312470	1.169554
N130	N	2.211946	0.187530	1.669554
C131	C	1.444647	-0.579692	1.055645
C132	C	1.944647	-0.079692	1.555645
N133	N	1.388987	-0.635331	1.010318
N134	N	1.888987	-0.135331	1.510318
H135	H	1.118288	-0.762026	0.248125
H136	H	1.618288	-0.262026	0.748125
H137	H	1.262329	-1.105436	0.248422
H138	H	1.762329	-0.605436	0.748422
H139	H	1.262215	-0.906368	0.248373
H140	H	1.762215	-0.406368	0.748373
H141	H	0.919220	-0.762061	0.248150
H142	H	1.419220	-0.262061	0.748150
H143	H	0.919540	-0.250107	0.758862
H144	H	1.419540	0.249893	1.258862
H145	H	0.819764	-0.640289	0.369621
H146	H	1.319764	-0.140289	0.869621
C147	C	1.656226	-0.368208	0.883847
C148	C	2.156226	0.131792	1.383847
N149	N	1.711857	-0.312598	0.838542
N150	N	2.211857	0.187402	1.338542
H151	H	1.463807	-0.560540	0.936731
H152	H	1.963807	-0.060540	1.436731
H153	H	1.774559	-0.905592	0.758608
H154	H	2.274559	-0.405592	1.258608
C155	C	1.249423	-0.371813	0.637352
C156	C	1.749423	0.128187	1.137352
N157	N	1.340333	-0.371796	0.637340
N158	N	1.840333	0.128204	1.137340
H159	H	1.652674	-0.806250	0.637239
H160	H	2.152674	-0.306250	1.137239
H161	H	1.774662	-1.104661	0.758660
H162	H	2.274662	-0.604661	1.258660
H163	H	1.384030	-0.806651	0.369702
H164	H	1.884030	-0.306651	0.869702
