data_functionalizedCrystal
_audit_creation_method	'MofGen! by Chris Wilmer'
_symmetry_space_group_name_H-M	'P1'
_symmetry_Int_Tables_number	1
_symmetry_cell_setting	triclinic
loop_
_symmetry_equiv_pos_as_xyz
  x,y,z
_cell_length_a	10.654549
_cell_length_b	14.421503
_cell_length_c	10.654550
_cell_angle_alpha	90.004485
_cell_angle_beta	95.515146
_cell_angle_gamma	90.006690
loop_
_atom_site_label
_atom_site_type_symbol
_atom_site_fract_x
_atom_site_fract_y
_atom_site_fract_z
O1	O	1.667849	0.077090	-0.176380
O2	O	1.302370	0.077097	-0.193186
O3	O	1.493513	0.077087	-0.002044
O4	O	1.476707	0.077099	-0.367522
O5	O	1.493481	-0.077136	-0.002072
O6	O	1.302339	-0.077127	-0.193215
O7	O	1.667817	-0.077133	-0.176408
Cu8	Cu	1.485075	-0.091212	-0.184814
Cu9	Cu	1.485113	0.091175	-0.184780
O10	O	1.476675	-0.077124	-0.367550
C11	C	1.255557	-0.000014	-0.191966
C12	C	1.116113	-0.000012	-0.188275
N13	N	1.485058	-0.219493	-0.184837
C14	C	0.905599	-0.000012	-0.297338
C15	C	1.036619	-0.000007	-0.300816
C16	C	1.064581	-0.000014	-0.072247
C17	C	0.933563	-0.000013	-0.068770
C18	C	1.396658	-0.469143	-0.273181
C19	C	1.510355	-0.530946	-0.298546
C20	C	1.485088	-0.408655	-0.184807
C21	C	1.371421	-0.530945	-0.159472
C22	C	1.485107	-0.591376	-0.184781
C23	C	1.598843	-0.469098	-0.210229
C24	C	1.459834	-0.469090	-0.071105
C25	C	1.573613	-0.530866	-0.096422
C26	C	1.485075	-0.303393	-0.184825
C27	C	1.485133	-0.696635	-0.184762
C28	C	1.714631	-0.000020	-0.177628
C29	C	1.854074	-0.000017	-0.181319
C30	C	1.492263	-0.000024	0.044740
C31	C	1.488571	-0.000022	0.184183
N32	N	1.485140	0.219456	-0.184747
C33	C	1.477925	-0.000011	-0.414334
C34	C	1.481617	-0.000006	-0.553777
C35	C	1.601113	-0.000024	0.263669
C36	C	1.597636	-0.000013	0.394690
C37	C	1.369067	-0.000002	0.366727
C38	C	1.372544	-0.000007	0.235708
H39	H	0.840882	-0.000015	-0.388983
F40	F	1.724598	-0.000040	0.208837
H41	H	1.648486	-0.557798	-0.021673
H42	H	1.689279	-0.000012	0.459403
H43	H	1.438421	-0.441899	0.025008
H44	H	1.280894	-0.000002	0.170987
F45	F	1.724529	-0.433742	-0.238369
F46	F	1.245767	-0.566456	-0.131476
F47	F	1.299013	-0.433714	-0.370941
F48	F	1.245589	0.000015	0.421575
H49	H	1.078563	-0.000002	-0.395290
H50	H	0.891612	-0.000013	0.025712
F51	F	1.149188	-0.000016	0.047529
F52	F	1.538300	-0.566460	-0.424211
