data_functionalizedCrystal
_audit_creation_method	'MofGen! by Chris Wilmer'
_symmetry_space_group_name_H-M	'P1'
_symmetry_Int_Tables_number	1
_symmetry_cell_setting	triclinic
loop_
_symmetry_equiv_pos_as_xyz
  x,y,z
_cell_length_a	12.645331
_cell_length_b	19.805405
_cell_length_c	19.805399
_cell_angle_alpha	90.030709
_cell_angle_beta	89.983868
_cell_angle_gamma	89.974611
loop_
_atom_site_label
_atom_site_type_symbol
_atom_site_fract_x
_atom_site_fract_y
_atom_site_fract_z
Zn1	Zn	1.620599	0.269488	-0.382698
Zn2	Zn	2.120599	0.769488	0.117302
Zn3	Zn	1.620473	0.382679	-0.269506
Zn4	Zn	2.120473	0.882679	0.230494
Zn5	Zn	1.443333	0.269507	-0.269524
Zn6	Zn	1.943333	0.769507	0.230476
Zn7	Zn	1.443268	0.382638	-0.382655
Zn8	Zn	1.943268	0.882638	0.117345
O9	O	1.531918	0.326078	-0.326096
O10	O	2.031918	0.826078	0.173904
O11	O	1.768929	0.284512	-0.367694
O12	O	2.268929	0.784512	0.132306
O13	O	1.596951	0.367692	-0.174792
O14	O	2.096951	0.867692	0.325208
O15	O	1.466928	0.174788	-0.284562
O16	O	1.966928	0.674788	0.215438
O17	O	1.768837	0.367673	-0.284532
O18	O	2.268837	0.867673	0.215468
O19	O	1.597164	0.174774	-0.367711
O20	O	2.097164	0.674774	0.132289
O21	O	1.466806	0.284545	-0.174805
O22	O	1.966806	0.784545	0.325195
O23	O	1.294977	0.284505	-0.284520
O24	O	1.794977	0.784505	0.215480
O25	O	1.466816	0.367603	-0.477377
O26	O	1.966816	0.867603	0.022623
O27	O	1.294929	0.367622	-0.367637
O28	O	1.794929	0.867622	0.132363
O29	O	1.597100	0.284472	-0.477409
O30	O	2.097100	0.784472	0.022591
O31	O	1.596887	0.477390	-0.284490
O32	O	2.096887	0.977390	0.215510
O33	O	1.466695	0.477360	-0.367620
O34	O	1.966695	0.977360	0.132380
C35	C	1.256489	0.326062	-0.326076
C36	C	1.756489	0.826062	0.173924
C37	C	1.138659	0.326071	-0.326084
C38	C	1.638659	0.826071	0.173916
C39	C	1.531799	0.501934	-0.326063
C40	C	2.031799	1.001934	0.173937
C41	C	1.531845	0.577166	-0.326072
C42	C	2.031845	1.077166	0.173928
C43	C	1.531965	0.326031	-0.502638
C44	C	2.031965	0.826031	-0.002638
C45	C	1.531985	0.326011	-0.577871
C46	C	2.031985	0.826011	-0.077871
C47	C	0.971089	0.273542	-0.274084
C48	C	1.471089	0.773542	0.225916
C49	C	1.093649	0.273678	-0.273855
C50	C	1.593649	0.773678	0.226145
C51	C	1.094125	0.397372	-0.306591
C52	C	1.594125	0.897372	0.193409
C53	C	0.971526	0.397085	-0.306236
C54	C	1.471526	0.897085	0.193764
C55	C	0.971501	0.307979	-0.397777
C56	C	1.471501	0.807979	0.102223
C57	C	1.094107	0.306386	-0.397379
C58	C	1.594107	0.806386	0.102621
C59	C	1.808424	0.326095	-0.326116
C60	C	2.308424	0.826095	0.173884
C61	C	1.926254	0.326102	-0.326124
C62	C	2.426254	0.826102	0.173876
C63	C	1.532067	0.149535	-0.326143
C64	C	2.032067	0.649535	0.173857
C65	C	1.532130	0.074303	-0.326164
C66	C	2.032130	0.574303	0.173836
C67	C	1.599702	0.612503	-0.282831
C68	C	2.099702	1.112503	0.217169
C69	C	1.599747	0.683192	-0.282846
C70	C	2.099747	1.183192	0.217154
C71	C	1.531929	0.718542	-0.326099
C72	C	2.031929	1.218542	0.173901
C73	C	1.464069	0.683200	-0.369344
C74	C	1.964069	1.183200	0.130656
C75	C	1.464030	0.612512	-0.369332
C76	C	1.964030	1.112512	0.130668
C77	C	1.464225	0.968273	-0.369394
C78	C	1.964225	1.468273	0.130606
C79	C	1.464267	1.038965	-0.369401
C80	C	1.964267	1.538965	0.130599
C81	C	1.599942	1.038952	-0.282909
C82	C	2.099942	1.538952	0.217091
C83	C	1.599903	0.968265	-0.282896
C84	C	2.099903	1.468265	0.217104
C85	C	1.532048	0.932929	-0.326144
C86	C	2.032048	1.432929	0.173856
C87	C	1.532001	0.856281	-0.326128
C88	C	2.032001	1.356281	0.173872
C89	C	1.531969	0.795189	-0.326111
C90	C	2.031969	1.295189	0.173889
C91	C	1.464238	0.282713	-0.613221
C92	C	1.964238	0.782713	-0.113221
C93	C	1.464253	0.282699	-0.683909
C94	C	1.964253	0.782699	-0.183909
C95	C	1.532020	0.325982	-0.719246
C96	C	2.032020	0.825982	-0.219246
C97	C	1.599770	0.369285	-0.683891
C98	C	2.099770	0.869285	-0.183891
C99	C	1.599749	0.369301	-0.613204
C100	C	2.099749	0.869301	-0.113204
C101	C	1.599854	0.369222	-0.968964
C102	C	2.099854	0.869222	-0.468964
C103	C	1.599871	0.369201	-1.039656
C104	C	2.099871	0.869201	-0.539656
C105	C	1.464357	0.282620	-1.039670
C106	C	1.964357	0.782620	-0.539670
C107	C	1.464337	0.282636	-0.968983
C108	C	1.964337	0.782636	-0.468983
C109	C	1.532082	0.325942	-0.933634
C110	C	2.032082	0.825942	-0.433634
C111	C	1.532064	0.325956	-0.856985
C112	C	2.032064	0.825956	-0.356985
C113	C	1.532044	0.325964	-0.795893
C114	C	2.032044	0.825964	-0.295893
C115	C	1.531933	0.326076	-0.150240
C116	C	2.031933	0.826076	0.349760
C117	C	1.532119	0.325905	-0.075008
C118	C	2.032119	0.825905	0.424992
H119	H	0.941636	0.220511	-0.286171
H120	H	1.441636	0.720511	0.213829
H121	H	1.123278	0.437580	-0.343305
H122	H	1.623278	0.937580	0.156695
H123	H	1.124786	0.413006	-0.254771
H124	H	1.624786	0.913006	0.245229
N125	N	1.672918	0.415926	-0.930840
N126	N	2.172918	0.915926	-0.430840
H127	H	1.715854	0.443340	-0.963952
H128	H	2.215854	0.943340	-0.463952
H129	H	1.721991	0.388385	-0.901522
H130	H	2.221991	0.888385	-0.401522
H131	H	0.940613	0.256894	-0.415503
H132	H	1.440613	0.756894	0.084497
N133	N	1.132653	0.236881	-0.416851
N134	N	1.632653	0.736881	0.083149
H135	H	1.178786	0.218218	-0.379651
H136	H	1.678786	0.718218	0.120349
H137	H	1.174914	0.239872	-0.460023
H138	H	1.674914	0.739872	0.039977
H139	H	1.654942	0.404530	-0.712668
H140	H	2.154942	0.904530	-0.212668
N141	N	1.390846	0.574395	-0.415971
N142	N	1.890846	1.074395	0.084029
H143	H	1.347887	0.607514	-0.443373
H144	H	1.847887	1.107514	0.056627
H145	H	1.341798	0.545109	-0.388387
H146	H	1.841798	1.045109	0.111613
H147	H	1.123760	0.220806	-0.286073
H148	H	1.623760	0.720806	0.213927
H149	H	1.655197	1.067731	-0.247697
H150	H	2.155197	1.567731	0.252303
H151	H	1.655123	0.939485	-0.247674
H152	H	2.155123	1.439485	0.252326
N153	N	1.134684	0.353394	-0.451492
N154	N	1.634684	0.853394	0.048508
H155	H	1.182734	0.388276	-0.430464
H156	H	1.682734	0.888276	0.069536
H157	H	1.073005	0.376719	-0.473971
H158	H	1.573005	0.876719	0.026029
N159	N	1.391179	0.235992	-0.722026
N160	N	1.891179	0.735992	-0.222026
H161	H	1.407694	0.187638	-0.709736
H162	H	1.907694	0.687638	-0.209736
H163	H	1.401492	0.242600	-0.772158
H164	H	1.901492	0.742600	-0.272158
H165	H	1.409043	1.067745	-0.404627
H166	H	1.909043	1.567745	0.095373
H167	H	1.408973	0.939508	-0.404606
H168	H	1.908973	1.439508	0.095394
H169	H	0.942506	0.346261	-0.436552
H170	H	1.442506	0.846261	0.063448
H171	H	1.408855	0.711987	-0.404563
H172	H	1.908855	1.211987	0.095437
N173	N	0.933583	0.417431	-0.236849
N174	N	1.433583	0.917431	0.263151
H175	H	0.853724	0.417445	-0.235923
H176	H	1.353724	0.917445	0.264077
H177	H	0.960536	0.464157	-0.225865
H178	H	1.460536	0.964157	0.274135
N179	N	1.672815	0.416006	-0.575074
N180	N	2.172815	0.916006	-0.075074
H181	H	1.715748	0.443421	-0.608186
H182	H	2.215748	0.943421	-0.108186
H183	H	1.721891	0.388467	-0.545755
H184	H	2.221891	0.888467	-0.045755
H185	H	0.940248	0.285388	-0.221299
H186	H	1.440248	0.785388	0.278701
H187	H	1.122934	0.285656	-0.220757
H188	H	1.622934	0.785656	0.279243
N189	N	1.391156	0.236022	-0.575110
N190	N	1.891156	0.736022	-0.075110
H191	H	1.348241	0.208591	-0.608234
H192	H	1.848241	0.708591	-0.108234
H193	H	1.342063	0.263574	-0.545768
H194	H	1.842063	0.763574	-0.045768
N195	N	1.672846	0.574378	-0.236178
N196	N	2.172846	1.074378	0.263822
H197	H	1.715841	0.607494	-0.208790
H198	H	2.215841	1.107494	0.291210
H199	H	1.721860	0.545006	-0.263755
H200	H	2.221860	1.045006	0.236245
H201	H	0.941866	0.437572	-0.342487
H202	H	1.441866	0.937572	0.157513
N203	N	1.672935	0.721307	-0.236209
N204	N	2.172935	1.221307	0.263791
H205	H	1.715886	0.688186	-0.208804
H206	H	2.215886	1.188186	0.291196
H207	H	1.629828	0.750680	-0.204868
H208	H	2.129828	1.250680	0.295132
H209	H	1.409193	0.247360	-1.068460
H210	H	1.909193	0.747360	-0.568460
N211	N	1.391259	0.235944	-0.930869
N212	N	1.891259	0.735944	-0.430869
H213	H	1.348345	0.208511	-0.963991
H214	H	1.848345	0.708511	-0.463991
H215	H	1.342167	0.263495	-0.901526
H216	H	1.842167	0.763495	-0.401526
N217	N	1.672966	0.415887	-1.077772
N218	N	2.172966	0.915887	-0.577772
H219	H	1.715878	0.443325	-1.044653
H220	H	2.215878	0.943325	-0.544653
H221	H	1.629789	0.447195	-1.107091
H222	H	2.129789	0.947195	-0.607091
