data_functionalizedCrystal
_audit_creation_method	'MofGen! by Chris Wilmer'
_symmetry_space_group_name_H-M	'P1'
_symmetry_Int_Tables_number	1
_symmetry_cell_setting	triclinic
loop_
_symmetry_equiv_pos_as_xyz
  x,y,z
_cell_length_a	16.109302
_cell_length_b	11.792241
_cell_length_c	10.868271
_cell_angle_alpha	89.994719
_cell_angle_beta	89.993741
_cell_angle_gamma	83.827598
loop_
_atom_site_label
_atom_site_type_symbol
_atom_site_fract_x
_atom_site_fract_y
_atom_site_fract_z
O1	O	1.103818	0.145891	-0.102378
O2	O	0.861841	0.164046	-0.102368
O3	O	0.988702	-0.010254	-0.102365
O4	O	0.976957	0.320190	-0.102382
O5	O	0.988691	-0.010260	0.102280
O6	O	0.861831	0.164039	0.102276
O7	O	1.103807	0.145885	0.102267
Zn8	Zn	0.982817	0.154961	0.134763
Zn9	Zn	0.982831	0.154970	-0.134865
O10	O	0.976947	0.320184	0.102263
C11	C	0.830858	0.163307	-0.000045
C12	C	0.738552	0.161102	-0.000041
C13	C	0.526181	0.155999	0.111499
C14	C	0.439452	0.153915	0.111495
C15	C	0.439474	0.153928	-0.111620
C16	C	0.526203	0.156004	-0.111615
C17	C	0.569554	0.157045	-0.000051
C18	C	0.396095	0.152885	-0.000061
C19	C	0.302059	0.150625	-0.000066
C20	C	0.663596	0.159303	-0.000046
C21	C	0.987959	-0.052541	-0.000043
C22	C	0.985751	-0.178536	-0.000044
C23	C	0.981690	-0.409212	-0.000064
C24	C	0.983946	-0.280847	-0.000053
C25	C	1.134791	0.146623	-0.000060
C26	C	1.227097	0.148829	-0.000072
C27	C	0.977690	0.362472	-0.000062
C28	C	0.979898	0.488466	-0.000069
N29	N	0.982814	0.154954	0.318777
N30	N	0.982841	0.154967	-0.318879
C31	C	0.982827	0.154967	0.569783
C32	C	0.982817	0.154963	0.430106
H33	H	0.404142	0.153063	0.202330
C34	C	0.573867	0.157133	0.234217
C35	C	0.642488	0.060064	0.264905
C36	C	0.690171	0.061195	0.387627
C37	C	0.669232	0.159395	0.479661
C38	C	0.600608	0.256472	0.448975
C39	C	0.552926	0.255341	0.326253
H40	H	0.657991	-0.012636	0.196774
H41	H	0.740971	-0.010668	0.410342
H42	H	0.704530	0.160232	0.570508
H43	H	0.585105	0.329172	0.517106
H44	H	0.502126	0.327204	0.303538
H45	H	0.404166	0.153081	-0.202451
H46	H	0.561518	0.156853	-0.202458
