data_functionalizedCrystal
_audit_creation_method	'MofGen! by Chris Wilmer'
_symmetry_space_group_name_H-M	'P1'
_symmetry_Int_Tables_number	1
_symmetry_cell_setting	triclinic
loop_
_symmetry_equiv_pos_as_xyz
  x,y,z
_cell_length_a	19.121112
_cell_length_b	19.121449
_cell_length_c	14.908858
_cell_angle_alpha	84.378021
_cell_angle_beta	90.700023
_cell_angle_gamma	85.039809
loop_
_atom_site_label
_atom_site_type_symbol
_atom_site_fract_x
_atom_site_fract_y
_atom_site_fract_z
Zn1	Zn	1.061745	-0.300169	-0.551749
Zn2	Zn	1.074040	-0.425210	-0.394712
Zn3	Zn	0.951446	-0.302540	-0.394740
Zn4	Zn	0.949642	-0.413349	-0.539367
O5	O	1.009218	-0.360317	-0.470142
O6	O	1.161597	-0.320728	-0.536088
O7	O	1.063679	-0.414893	-0.268468
O8	O	0.961686	-0.203521	-0.420761
O9	O	1.170631	-0.412595	-0.420714
O10	O	1.042722	-0.201780	-0.536115
O11	O	0.973609	-0.324768	-0.268488
O12	O	0.852985	-0.313267	-0.408754
O13	O	0.958612	-0.392380	-0.667257
O14	O	0.851660	-0.394678	-0.515011
O15	O	1.040973	-0.309227	-0.676354
O16	O	1.061930	-0.522341	-0.408707
O17	O	0.970535	-0.513627	-0.514985
C18	C	0.826855	-0.352943	-0.460543
C19	C	0.748839	-0.349805	-0.456457
C20	C	1.017389	-0.543577	-0.460520
C21	C	1.020947	-0.621977	-0.456437
C22	C	0.307627	-0.329891	-0.430579
C23	C	0.380931	-0.332843	-0.434423
C24	C	0.416917	-0.376785	-0.491569
C25	C	0.379595	-0.417771	-0.544883
C26	C	0.306291	-0.414814	-0.541043
C27	C	0.638213	-0.387834	-0.505930
C28	C	0.711521	-0.390789	-0.509764
C29	C	0.712853	-0.305860	-0.399305
C30	C	0.639549	-0.302911	-0.395466
C31	C	0.602232	-0.343894	-0.448783
C32	C	0.491846	-0.379806	-0.495498
C33	C	0.527304	-0.340869	-0.444858
C34	C	0.975006	-0.654299	-0.509803
C35	C	0.978353	-0.727965	-0.505963
C36	C	1.027644	-0.769307	-0.448762
C37	C	1.073587	-0.736980	-0.395391
C38	C	1.070237	-0.663316	-0.399226
C39	C	1.040139	-0.991951	-0.434411
C40	C	1.043487	-1.065621	-0.430582
C41	C	0.948251	-1.056600	-0.541154
C42	C	0.944908	-0.982935	-0.544988
C43	C	0.990849	-0.950614	-0.491613
C44	C	1.031067	-0.844605	-0.444838
C45	C	0.987422	-0.875317	-0.495533
C46	C	1.192294	-0.367720	-0.479779
C47	C	1.270310	-0.370875	-0.483886
C48	C	0.998220	-0.349216	-0.705456
C49	C	0.993533	-0.344485	-0.805732
C50	C	1.001034	-0.176342	-0.479822
C51	C	0.997546	-0.097943	-0.483947
C52	C	0.940038	-0.290896	-0.947078
C53	C	0.944439	-0.295340	-0.852859
C54	C	1.038231	-0.389190	-0.852832
C55	C	1.033830	-0.384746	-0.947051
C56	C	0.984732	-0.335599	-0.994170
C57	C	0.980328	-0.331159	-1.088391
C58	C	1.074123	-0.425005	-1.088362
C59	C	1.078524	-0.429448	-0.994143
C60	C	1.020212	-0.371326	-0.235748
C61	C	1.025026	-0.375863	-0.135490
H62	H	0.278333	-0.294109	-0.384043
N63	N	1.128672	-0.479659	-0.946021
N64	N	1.168569	-0.519571	-0.988082
H65	H	1.203986	-0.555036	-0.954098
N66	N	0.924665	-0.612062	-0.568236
N67	N	0.944765	-0.569198	-0.629191
H68	H	0.909210	-0.539368	-0.670460
N69	N	0.416338	-0.462656	-0.603269
N70	N	0.404067	-0.453825	-0.686338
H71	H	0.430015	-0.485527	-0.727575
H72	H	0.275908	-0.448186	-0.584454
N73	N	0.528611	-0.424705	-0.553849
N74	N	0.523621	-0.489743	-0.543870
H75	H	0.549588	-0.521453	-0.585080
N76	N	0.750972	-0.263982	-0.344871
N77	N	0.739595	-0.198286	-0.353995
H78	H	0.766517	-0.168704	-0.315554
N79	N	1.093824	-1.107858	-0.372131
N80	N	1.073710	-1.150723	-0.311187
H81	H	1.109256	-1.180556	-0.269908
H82	H	1.077547	-0.965642	-0.390953
H83	H	0.498001	-0.305089	-0.398333
H84	H	1.078210	-0.429198	-0.814451
H85	H	0.740819	-0.426572	-0.556304
H86	H	0.908047	-0.258937	-0.814520
N87	N	0.600112	-0.429698	-0.560398
N88	N	0.632253	-0.468928	-0.611416
H89	H	0.605342	-0.498497	-0.649888
N90	N	1.123928	-0.779218	-0.336958
N91	N	1.126914	-0.844989	-0.333540
H92	H	1.162470	-0.874819	-0.292272
N93	N	0.419039	-0.290975	-0.379963
N94	N	0.386901	-0.251750	-0.328937
H95	H	0.413814	-0.222178	-0.290470
H96	H	0.940936	-0.754278	-0.549411
H97	H	0.904771	-0.949275	-0.591566
N98	N	0.937075	-0.833101	-0.553975
N99	N	0.896061	-0.861964	-0.601629
H100	H	0.860505	-0.832145	-0.642907
H101	H	1.110519	-0.461402	-1.126715
N102	N	0.901333	-1.089627	-0.595666
N103	N	0.904329	-1.155398	-0.592238
H104	H	0.871190	-1.178724	-0.630739
N105	N	1.117166	-0.630308	-0.344703
N106	N	1.161172	-0.667227	-0.293631
H107	H	1.194315	-0.643917	-0.255118
N108	N	0.602780	-0.258016	-0.337113
N109	N	0.537331	-0.255378	-0.333698
H110	H	0.511361	-0.223670	-0.292486
H111	H	1.071201	-0.878274	-0.398266
N112	N	0.930169	-0.280958	-1.136510
N113	N	0.890270	-0.241049	-1.094448
H114	H	0.854844	-0.205592	-1.128429
N115	N	0.889877	-0.240700	-0.995200
N116	N	0.849970	-0.200796	-0.953141
H117	H	0.814542	-0.165344	-0.987126
