data_functionalizedCrystal
_audit_creation_method	'MofGen! by Chris Wilmer'
_symmetry_space_group_name_H-M	'P1'
_symmetry_Int_Tables_number	1
_symmetry_cell_setting	triclinic
loop_
_symmetry_equiv_pos_as_xyz
  x,y,z
_cell_length_a	18.215405
_cell_length_b	18.215407
_cell_length_c	18.215399
_cell_angle_alpha	90.014769
_cell_angle_beta	89.967040
_cell_angle_gamma	89.979495
loop_
_atom_site_label
_atom_site_type_symbol
_atom_site_fract_x
_atom_site_fract_y
_atom_site_fract_z
Zn1	Zn	-0.293060	-1.125050	-0.416062
Zn2	Zn	0.040273	-0.791717	-0.082729
Zn3	Zn	0.373606	-0.458383	0.250605
Zn4	Zn	-0.416137	-1.124965	-0.292990
Zn5	Zn	-0.082803	-0.791632	0.040343
Zn6	Zn	0.250530	-0.458298	0.373676
Zn7	Zn	-0.293079	-1.001989	-0.293014
Zn8	Zn	0.040254	-0.668656	0.040319
Zn9	Zn	0.373587	-0.335322	0.373653
Zn10	Zn	-0.416080	-1.001949	-0.416020
Zn11	Zn	-0.082747	-0.668615	-0.082686
Zn12	Zn	0.250586	-0.335282	0.250647
O13	O	-0.354589	-1.063488	-0.354521
O14	O	-0.021256	-0.730155	-0.021188
O15	O	0.312077	-0.396821	0.312145
O16	O	-0.309402	-1.228023	-0.399744
O17	O	0.023931	-0.894690	-0.066411
O18	O	0.357264	-0.561356	0.266922
O19	O	-0.399844	-1.108633	-0.190009
O20	O	-0.066511	-0.775300	0.143324
O21	O	0.266822	-0.441967	0.476658
O22	O	-0.190092	-1.018366	-0.309364
O23	O	0.143241	-0.685033	0.023969
O24	O	0.476574	-0.351699	0.357302
O25	O	-0.399826	-1.227960	-0.309324
O26	O	-0.066493	-0.894627	0.024009
O27	O	0.266840	-0.561294	0.357343
O28	O	-0.190079	-1.108778	-0.399767
O29	O	0.143255	-0.775445	-0.066434
O30	O	0.476588	-0.442112	0.266899
O31	O	-0.309435	-1.018283	-0.190026
O32	O	0.023899	-0.684950	0.143307
O33	O	0.357232	-0.351617	0.476640
O34	O	-0.309380	-0.898999	-0.309323
O35	O	0.023953	-0.565666	0.024010
O36	O	0.357287	-0.232333	0.357344
O37	O	-0.399730	-1.018297	-0.519010
O38	O	-0.066397	-0.684964	-0.185676
O39	O	0.266937	-0.351630	0.147657
O40	O	-0.399748	-0.898970	-0.399695
O41	O	-0.066415	-0.565636	-0.066361
O42	O	0.266918	-0.232303	0.266972
O43	O	-0.309348	-1.108739	-0.519041
O44	O	0.023986	-0.775406	-0.185707
O45	O	0.357319	-0.442072	0.147626
O46	O	-0.519114	-1.108594	-0.309283
O47	O	-0.185780	-0.775261	0.024051
O48	O	0.147553	-0.441927	0.357384
O49	O	-0.519072	-1.018214	-0.399672
O50	O	-0.185739	-0.684881	-0.066338
O51	O	0.147595	-0.351548	0.266995
C52	C	-0.354560	-0.872282	-0.354507
C53	C	-0.021227	-0.538949	-0.021174
C54	C	0.312106	-0.205615	0.312159
C55	C	-0.354566	-0.790483	-0.354519
C56	C	-0.021233	-0.457150	-0.021185
C57	C	0.312101	-0.123816	0.312148
C58	C	-0.307573	-0.602321	-0.401674
C59	C	0.025760	-0.268987	-0.068340
C60	C	0.359093	0.064346	0.264993
C61	C	-0.307577	-0.525462	-0.401675
C62	C	0.025756	-0.192129	-0.068342
C63	C	0.359090	0.141205	0.264991
C64	C	-0.401594	-0.525408	-0.307375
C65	C	-0.068261	-0.192074	0.025958
C66	C	0.265073	0.141259	0.359291
C67	C	-0.401586	-0.602265	-0.307370
C68	C	-0.068253	-0.268932	0.025963
C69	C	0.265081	0.064402	0.359296
C70	C	-0.354577	-0.640720	-0.354523
C71	C	-0.021243	-0.307386	-0.021190
C72	C	0.312090	0.025947	0.312143
C73	C	-0.354589	-0.487003	-0.354530
C74	C	-0.021255	-0.153670	-0.021197
C75	C	0.312078	0.179663	0.312136
C76	C	-0.354593	-0.403670	-0.354532
C77	C	-0.021260	-0.070336	-0.021199
C78	C	0.312074	0.262997	0.312134
C79	C	-0.354571	-0.724058	-0.354521
C80	C	-0.021238	-0.390725	-0.021188
C81	C	0.312096	-0.057392	0.312146
C82	C	-0.545795	-1.063410	-0.354486
C83	C	-0.212462	-0.730077	-0.021153
C84	C	0.120871	-0.396744	0.312181
C85	C	-0.627594	-1.063445	-0.354496
C86	C	-0.294261	-0.730111	-0.021162
C87	C	0.039072	-0.396778	0.312171
C88	C	-0.815785	-1.110616	-0.307517
C89	C	-0.482452	-0.777282	0.025817
C90	C	-0.149119	-0.443949	0.359150
C91	C	-0.892644	-1.110649	-0.307534
C92	C	-0.559311	-0.777315	0.025799
C93	C	-0.225977	-0.443982	0.359132
C94	C	-0.892641	-1.016455	-0.401579
C95	C	-0.559308	-0.683121	-0.068246
C96	C	-0.225974	-0.349788	0.265087
C97	C	-0.815784	-1.016426	-0.401565
C98	C	-0.482450	-0.683093	-0.068231
C99	C	-0.149117	-0.349759	0.265102
C100	C	-0.777358	-1.063505	-0.354529
C101	C	-0.444024	-0.730172	-0.021196
C102	C	-0.110691	-0.396839	0.312138
C103	C	-0.931074	-1.063567	-0.354562
C104	C	-0.597741	-0.730234	-0.021228
C105	C	-0.264407	-0.396900	0.312105
C106	C	-1.014407	-1.063602	-0.354581
C107	C	-0.681074	-0.730269	-0.021248
C108	C	-0.347741	-0.396936	0.312085
C109	C	-0.694019	-1.063471	-0.354510
C110	C	-0.360686	-0.730138	-0.021177
C111	C	-0.027352	-0.396805	0.312156
C112	C	-0.162636	-1.063586	-0.354573
C113	C	0.170697	-0.730253	-0.021240
C114	C	0.504030	-0.396920	0.312094
C115	C	-0.080837	-1.063628	-0.354595
C116	C	0.252496	-0.730295	-0.021262
C117	C	0.585829	-0.396961	0.312072
C118	C	-0.354530	-1.063523	-0.546474
C119	C	-0.021197	-0.730190	-0.213141
C120	C	0.312136	-0.396856	0.120192
C121	C	-0.354505	-1.063538	-0.628273
C122	C	-0.021172	-0.730204	-0.294940
C123	C	0.312161	-0.396871	0.038393
C124	C	-0.354611	-0.255441	-0.354534
C125	C	-0.021277	0.077892	-0.021201
C126	C	0.312056	0.411226	0.312132
C127	C	-0.354599	-0.337240	-0.354535
C128	C	-0.021266	-0.003907	-0.021202
C129	C	0.312067	0.329427	0.312131
C130	C	-0.307397	-1.016532	-0.816477
C131	C	0.025936	-0.683199	-0.483144
C132	C	0.359270	-0.349866	-0.149811
C133	C	-0.307382	-1.016545	-0.893336
C134	C	0.025951	-0.683212	-0.560003
C135	C	0.359284	-0.349878	-0.226670
C136	C	-0.401526	-1.110631	-0.893307
C137	C	-0.068192	-0.777298	-0.559974
C138	C	0.265141	-0.443964	-0.226641
C139	C	-0.401544	-1.110614	-0.816450
C140	C	-0.068210	-0.777281	-0.483117
C141	C	0.265123	-0.443947	-0.149783
C142	C	-0.354475	-1.063566	-0.778037
C143	C	-0.021142	-0.730232	-0.444704
C144	C	0.312191	-0.396899	-0.111370
C145	C	-0.354442	-1.063596	-0.931753
C146	C	-0.021109	-0.730262	-0.598420
C147	C	0.312224	-0.396929	-0.265087
C148	C	-0.354427	-1.063610	-1.015087
C149	C	-0.021093	-0.730276	-0.681754
C150	C	0.312240	-0.396943	-0.348420
C151	C	-0.354492	-1.063550	-0.694698
C152	C	-0.021158	-0.730217	-0.361365
C153	C	0.312175	-0.396884	-0.028031
C154	C	-0.354595	-1.063496	-0.163315
C155	C	-0.021261	-0.730163	0.170018
C156	C	0.312072	-0.396829	0.503351
C157	C	-0.354412	-1.063624	-0.081517
C158	C	-0.021079	-0.730290	0.251817
C159	C	0.312254	-0.396957	0.585150
H160	H	-0.269301	-0.494201	-0.440069
H161	H	0.064032	-0.160868	-0.106735
H162	H	0.397366	0.172466	0.226598
H163	H	-0.439868	-0.494089	-0.268985
H164	H	-0.106535	-0.160755	0.064348
H165	H	0.226799	0.172578	0.397681
C166	C	-0.453296	-0.644506	-0.255499
C167	C	-0.119962	-0.311173	0.077835
C168	C	0.213371	0.022160	0.411168
N169	N	-0.492241	-0.676322	-0.216429
N170	N	-0.158907	-0.342989	0.116904
N171	N	0.174426	-0.009656	0.450238
C172	C	-0.773511	-0.964614	-0.453300
C173	C	-0.440177	-0.631280	-0.119967
C174	C	-0.106844	-0.297947	0.213367
N175	N	-0.741671	-0.925597	-0.492272
N176	N	-0.408337	-0.592263	-0.158939
N177	N	-0.075004	-0.258930	0.174395
C178	C	-0.255855	-0.644618	-0.453537
C179	C	0.077478	-0.311284	-0.120204
C180	C	0.410811	0.022049	0.213130
N181	N	-0.216897	-0.676474	-0.492600
N182	N	0.116436	-0.343141	-0.159266
N183	N	0.449770	-0.009807	0.174067
C184	C	-0.453323	-1.162371	-0.774163
C185	C	-0.119989	-0.829037	-0.440830
C186	C	0.213344	-0.495704	-0.107496
N187	N	-0.492317	-1.201356	-0.742313
N188	N	-0.158984	-0.868023	-0.408979
N189	N	0.174350	-0.534689	-0.075646
H190	H	-0.784501	-1.148952	-0.269218
H191	H	-0.451168	-0.815618	0.064115
H192	H	-0.117834	-0.482285	0.397448
C193	C	-0.934911	-1.162471	-0.255814
C194	C	-0.601578	-0.829137	0.077520
C195	C	-0.268244	-0.495804	0.410853
N196	N	-0.966746	-1.201505	-0.216855
N197	N	-0.633413	-0.868171	0.116479
N198	N	-0.300079	-0.534838	0.449812
C199	C	-0.934916	-0.964662	-0.453307
C200	C	-0.601583	-0.631329	-0.119974
C201	C	-0.268250	-0.297995	0.213359
N202	N	-0.966758	-0.925647	-0.492267
N203	N	-0.633424	-0.592314	-0.158934
N204	N	-0.300091	-0.258981	0.174400
H205	H	-0.269071	-0.978222	-0.785204
H206	H	0.064262	-0.644889	-0.451870
H207	H	0.397596	-0.311556	-0.118537
H208	H	-0.269047	-0.978245	-0.924631
H209	H	0.064286	-0.644912	-0.591298
H210	H	0.397619	-0.311578	-0.257964
H211	H	-0.439847	-1.148937	-0.924593
H212	H	-0.106513	-0.815603	-0.591259
H213	H	0.226820	-0.482270	-0.257926
