data_functionalizedCrystal
_audit_creation_method	'MofGen! by Chris Wilmer'
_symmetry_space_group_name_H-M	'P1'
_symmetry_Int_Tables_number	1
_symmetry_cell_setting	triclinic
loop_
_symmetry_equiv_pos_as_xyz
  x,y,z
_cell_length_a	12.759395
_cell_length_b	12.594516
_cell_length_c	12.759387
_cell_angle_alpha	89.970089
_cell_angle_beta	89.982772
_cell_angle_gamma	90.013352
loop_
_atom_site_label
_atom_site_type_symbol
_atom_site_fract_x
_atom_site_fract_y
_atom_site_fract_z
Zn1	Zn	1.606256	-0.423645	-0.594010
Zn2	Zn	1.606165	-0.601662	-0.418332
Zn3	Zn	1.430564	-0.423702	-0.418347
Zn4	Zn	1.430555	-0.601587	-0.593971
O5	O	1.518385	-0.512649	-0.506165
O6	O	1.753265	-0.447267	-0.570716
O7	O	1.582837	-0.578110	-0.271313
O8	O	1.453911	-0.274749	-0.441671
O9	O	1.753198	-0.578055	-0.441646
O10	O	1.582991	-0.274707	-0.570730
O11	O	1.453824	-0.447364	-0.271323
O12	O	1.283542	-0.447292	-0.441634
O13	O	1.453896	-0.577927	-0.740998
O14	O	1.283535	-0.577983	-0.570664
O15	O	1.582983	-0.447194	-0.741026
O16	O	1.582829	-0.750597	-0.441609
O17	O	1.453809	-0.750542	-0.570650
C18	C	1.245418	-0.512636	-0.506147
C19	C	1.128641	-0.512656	-0.506164
C20	C	1.128673	-0.648965	-0.640306
C21	C	1.073828	-0.717127	-0.707380
C22	C	0.964106	-0.717140	-0.707393
C23	C	0.909227	-0.648981	-0.640327
C24	C	0.964072	-0.580818	-0.573253
C25	C	1.073796	-0.580815	-0.573245
C26	C	0.964040	-0.444506	-0.439118
C27	C	1.073762	-0.444497	-0.439098
C28	C	0.909161	-0.376347	-0.372051
C29	C	0.964006	-0.308188	-0.304970
C30	C	1.073734	-0.308178	-0.304959
C31	C	1.128606	-0.376334	-0.372024
C32	C	1.518336	-0.789190	-0.506147
C33	C	1.518412	-0.907495	-0.506174
C34	C	1.588667	-0.976740	-0.436063
C35	C	1.614339	-1.047432	-0.531956
C36	C	1.492871	-1.047602	-0.410342
C37	C	1.544133	-0.976629	-0.602117
C38	C	1.422620	-0.976793	-0.480438
C39	C	1.448256	-1.047453	-0.576397
C40	C	1.792418	-0.512663	-0.506184
C41	C	1.909195	-0.512669	-0.506192
C42	C	1.518449	-0.512546	-0.780198
C43	C	1.518476	-0.512502	-0.896975
C44	C	1.518463	-0.235028	-0.506206
C45	C	1.518496	-0.116723	-0.506224
C46	C	1.652891	-0.648574	-1.116389
C47	C	1.720042	-0.716668	-1.061513
C48	C	1.720007	-0.716709	-0.951791
C49	C	1.652812	-0.648650	-0.896943
C50	C	1.585661	-0.580556	-0.951820
C51	C	1.585706	-0.580520	-1.061544
C52	C	1.451325	-0.444408	-0.951852
C53	C	1.451363	-0.444360	-1.061574
C54	C	1.384130	-0.376349	-0.897005
C55	C	1.316983	-0.308247	-0.951881
C56	C	1.317021	-0.308209	-1.061610
C57	C	1.384212	-0.376266	-1.116450
C58	C	1.518382	-0.512675	-0.233197
C59	C	1.518558	-0.512419	-0.116421
H60	H	0.919314	-0.252693	-0.250375
C61	C	0.752003	-0.275152	-0.399036
C62	C	0.788553	-0.376362	-0.372067
H63	H	0.677544	-0.275167	-0.399048
H64	H	0.776806	-0.224812	-0.349493
H65	H	0.776859	-0.256845	-0.466867
H66	H	0.763704	-0.394666	-0.304232
H67	H	0.763739	-0.426718	-0.421612
H68	H	1.695384	-1.078464	-0.553752
C69	C	1.617209	-0.873732	-0.280365
C70	C	1.668876	-0.934816	-0.356092
H71	H	1.666728	-0.847856	-0.230996
H72	H	1.583182	-0.815578	-0.313364
H73	H	1.566687	-0.916345	-0.245367
H74	H	1.719393	-0.892201	-0.391095
H75	H	1.702920	-0.992978	-0.323089
C76	C	1.285754	-0.477543	-0.345047
C77	C	1.249214	-0.376327	-0.372011
H78	H	1.360213	-0.477539	-0.345048
H79	H	1.260907	-0.495848	-0.277223
H80	H	1.260936	-0.527883	-0.394596
H81	H	1.274026	-0.325988	-0.322457
H82	H	1.274072	-0.358010	-0.439845
C83	C	1.725894	-0.722843	-0.739751
C84	C	1.652769	-0.648699	-0.776336
H85	H	1.725869	-0.722866	-0.665293
H86	H	1.707707	-0.791506	-0.764562
H87	H	1.793705	-0.704427	-0.764576
H88	H	1.584957	-0.667119	-0.751517
H89	H	1.670950	-0.580020	-0.751514
C90	C	0.975147	-0.851878	-0.839994
C91	C	0.903814	-0.792059	-0.781126
H92	H	0.937922	-0.898131	-0.885510
H93	H	1.017964	-0.805552	-0.880255
H94	H	1.017919	-0.892535	-0.794137
H95	H	0.861047	-0.751396	-0.826984
H96	H	0.860978	-0.838391	-0.740862
H97	H	1.341598	-0.945738	-0.458614
C98	C	1.175624	-0.293505	-0.828500
C99	C	1.243129	-0.233447	-0.891589
H100	H	1.130035	-0.247323	-0.791271
H101	H	1.135438	-0.339843	-0.871305
H102	H	1.215621	-0.334068	-0.780125
H103	H	1.203132	-0.192890	-0.939970
H104	H	1.283318	-0.187090	-0.848780
H105	H	1.565690	-0.945587	-0.683251
H106	H	1.652936	-0.648538	-1.205731
H107	H	1.388879	-1.078307	-0.635778
H108	H	1.384255	-0.376236	-1.205792
C109	C	1.861411	-0.731424	-1.184894
C110	C	1.793903	-0.791475	-1.121802
H111	H	1.907010	-0.777610	-1.222106
H112	H	1.821424	-0.690875	-1.233275
H113	H	1.901594	-0.685072	-1.142085
H114	H	1.753713	-0.837822	-1.164612
H115	H	1.833894	-0.832042	-1.073416
C116	C	1.184227	-0.173632	-1.050610
C117	C	1.243206	-0.233354	-1.121926
H118	H	1.138662	-0.127415	-1.087846
H119	H	1.144014	-0.220022	-1.007814
H120	H	1.230011	-0.132941	-1.007814
H121	H	1.197423	-0.274051	-1.164717
H122	H	1.283423	-0.186958	-1.164740
C123	C	1.545588	-1.152387	-0.262215
C124	C	1.463654	-1.089681	-0.300910
H125	H	1.527557	-1.178356	-0.194652
H126	H	1.557212	-1.210479	-0.308211
H127	H	1.607557	-1.110844	-0.257524
H128	H	1.401686	-1.131226	-0.305608
H129	H	1.452017	-1.031581	-0.254902
H130	H	1.384102	-0.376391	-0.807663
C131	C	1.285867	-0.723185	-0.713303
C132	C	1.249280	-0.648965	-0.640281
H133	H	1.360326	-0.723183	-0.713288
H134	H	1.261020	-0.791835	-0.695011
H135	H	1.261081	-0.704860	-0.781137
H136	H	1.274060	-0.667295	-0.572445
H137	H	1.274139	-0.580300	-0.658567
H138	H	1.118523	-0.772619	-0.761986
C139	C	1.771113	-0.896958	-0.917963
C140	C	1.793816	-0.791561	-0.891463
H141	H	1.816683	-0.943167	-0.880722
H142	H	1.700519	-0.912523	-0.899981
H143	H	1.780759	-0.906667	-0.991159
H144	H	1.784162	-0.781850	-0.818268
H145	H	1.864427	-0.775991	-0.909439
H146	H	0.819886	-0.648988	-0.640353
H147	H	1.118382	-0.252664	-0.250347
