data_functionalizedCrystal
_audit_creation_method	'MofGen! by Chris Wilmer'
_symmetry_space_group_name_H-M	'P1'
_symmetry_Int_Tables_number	1
_symmetry_cell_setting	triclinic
loop_
_symmetry_equiv_pos_as_xyz
  x,y,z
_cell_length_a	16.109295
_cell_length_b	16.109304
_cell_length_c	22.010155
_cell_angle_alpha	89.998316
_cell_angle_beta	90.012777
_cell_angle_gamma	96.539088
loop_
_atom_site_label
_atom_site_type_symbol
_atom_site_fract_x
_atom_site_fract_y
_atom_site_fract_z
O1	O	-1.103150	0.106843	-0.050480
O2	O	-0.861087	0.120147	-0.050490
O3	O	-0.988767	-0.007536	-0.050485
O4	O	-0.975470	0.234526	-0.050485
O5	O	-0.988728	-0.007536	0.050565
O6	O	-0.861049	0.120147	0.050561
O7	O	-1.103111	0.106843	0.050570
Cu8	Cu	-0.982076	0.113495	0.059792
Cu9	Cu	-0.982122	0.113495	-0.059712
O10	O	-0.975431	0.234526	0.050566
C11	C	-0.830093	0.119609	0.000034
C12	C	-0.737797	0.117996	0.000030
C13	C	-0.988209	-0.038511	0.000039
C14	C	-0.986592	-0.130806	0.000035
C15	C	-0.515525	0.190008	0.000037
C16	C	-0.428804	0.188485	0.000040
C17	C	-0.448677	0.036996	0.000038
C18	C	-0.535396	0.038520	0.000038
C19	C	-0.568818	0.115028	0.000035
C20	C	-0.395378	0.111982	0.000038
C21	C	-0.301352	0.110331	0.000042
C22	C	-0.662850	0.116679	0.000032
C23	C	-0.134105	0.107386	0.000045
C24	C	-0.226398	0.109014	0.000042
C25	C	-0.982880	-0.343143	-0.055046
C26	C	-0.981354	-0.429863	-0.055045
C27	C	-0.981316	-0.429861	0.055125
C28	C	-0.982836	-0.343141	0.055124
C29	C	-0.983622	-0.299785	0.000037
C30	C	-0.980576	-0.473225	0.000038
C31	C	-0.978921	-0.567251	0.000039
C32	C	-0.985275	-0.205753	0.000036
C33	C	-0.975990	0.265501	0.000040
C34	C	-0.977606	0.357796	0.000041
N35	N	-0.982050	0.113494	0.143845
N36	N	-0.982154	0.113489	-0.143764
C37	C	-1.032533	0.163926	0.563626
C38	C	-1.032543	0.163924	0.627234
O39	O	-1.075435	0.206798	0.660127
N40	N	-0.982138	0.113485	0.659052
C41	C	-0.931727	0.063039	0.627259
O42	O	-0.888855	0.020137	0.660163
C43	C	-0.931722	0.063038	0.563652
C44	C	-0.982124	0.113486	0.531838
C45	C	-1.082931	0.214370	0.531812
C46	C	-1.082920	0.214373	0.468209
C47	C	-1.032511	0.163932	0.436420
C48	C	-0.982112	0.113489	0.468235
C49	C	-0.881315	0.012587	0.531860
C50	C	-0.881316	0.012590	0.468250
C51	C	-0.931717	0.063038	0.436435
C52	C	-0.931692	0.063051	0.372843
N53	N	-0.982097	0.113490	0.341025
C54	C	-1.032506	0.163930	0.372813
C55	C	-0.931742	0.063046	0.760837
C56	C	-0.931741	0.063052	0.824442
C57	C	-1.032559	0.163935	0.824413
C58	C	-1.032554	0.163934	0.760806
C59	C	-0.982146	0.113484	0.729019
C60	C	-1.032478	0.163933	0.239242
C61	C	-1.032460	0.163934	0.175633
C62	C	-0.931646	0.063048	0.175668
C63	C	-0.931661	0.063050	0.239271
C64	C	-0.982083	0.113495	0.271057
O65	O	-0.888824	0.020197	0.339909
O66	O	-1.075379	0.206818	0.339902
H67	H	-0.542734	0.252305	0.000038
C68	C	-0.370806	0.269804	0.000068
C69	C	-0.287706	0.252100	0.000085
C70	C	-0.234255	0.326993	0.000119
H71	H	-0.380838	0.301233	-0.035162
H72	H	-0.380876	0.301183	0.035320
H73	H	-0.277639	0.220734	-0.035163
H74	H	-0.277647	0.220683	0.035313
H75	H	-0.244326	0.358372	0.035370
H76	H	-0.244294	0.358416	-0.035112
H77	H	-0.177866	0.314991	0.000136
C78	C	-0.412228	-0.045982	0.000005
C79	C	-0.324876	-0.031270	-0.000013
C80	C	-0.291273	-0.107690	-0.000053
H81	H	-0.430418	-0.076920	0.035233
H82	H	-0.430488	-0.076858	-0.035249
H83	H	-0.306623	-0.000406	0.035237
H84	H	-0.306663	-0.000344	-0.035238
H85	H	-0.309533	-0.138567	-0.035307
H86	H	-0.309469	-0.138623	0.035175
H87	H	-0.232002	-0.097719	-0.000071
H88	H	-0.890689	0.021982	0.850340
C89	C	-0.876777	0.008395	0.141177
C90	C	-0.792989	0.031306	0.156648
C91	C	-0.742425	-0.019020	0.124879
H92	H	-0.892139	-0.048512	0.151570
H93	H	-0.883941	0.015635	0.098735
H94	H	-0.785829	0.024058	0.199081
H95	H	-0.777601	0.088204	0.146253
H96	H	-0.749590	-0.011780	0.082436
H97	H	-0.757795	-0.075924	0.135274
H98	H	-0.685570	-0.003477	0.135367
C99	C	-0.983471	-0.295994	0.114914
C100	C	-0.912845	-0.236849	0.118134
C101	C	-0.913392	-0.193409	0.173203
H102	H	-1.032461	-0.268442	0.117262
H103	H	-0.982746	-0.334202	0.147740
H104	H	-0.913577	-0.198647	0.085317
H105	H	-0.863844	-0.264379	0.115796
H106	H	-0.912667	-0.231617	0.206029
H107	H	-0.962385	-0.165862	0.175546
H108	H	-0.865469	-0.153280	0.175398
H109	H	-1.073503	0.205019	0.149733
H110	H	-0.578790	-0.022542	0.000039
C111	C	-0.983679	-0.296213	-0.114916
C112	C	-0.982679	-0.352747	-0.163155
C113	C	-0.983401	-0.309546	-0.218318
H114	H	-1.032714	-0.268734	-0.117295
H115	H	-0.935799	-0.256045	-0.117239
H116	H	-1.030555	-0.392900	-0.160833
H117	H	-0.933648	-0.380229	-0.160796
H118	H	-0.935520	-0.269378	-0.220640
H119	H	-1.032436	-0.282068	-0.220690
H120	H	-0.982714	-0.347897	-0.251054
H121	H	-0.980747	-0.465161	-0.099899
H122	H	-0.980678	-0.465172	0.099976
C123	C	-1.087330	0.218560	0.273778
C124	C	-1.143675	0.168173	0.310270
C125	C	-1.194219	0.218469	0.342086
H126	H	-1.053351	0.256827	0.298648
H127	H	-1.117389	0.248583	0.245733
H128	H	-1.113619	0.138165	0.338312
H129	H	-1.177673	0.129908	0.285416
H130	H	-1.224278	0.248491	0.314041
H131	H	-1.160233	0.256733	0.366952
H132	H	-1.232460	0.184288	0.366846
C133	C	-1.137742	0.269163	0.433782
C134	C	-1.181904	0.313311	0.475246
C135	C	-1.232428	0.363783	0.443560
H136	H	-1.103758	0.307492	0.408972
H137	H	-1.176058	0.235118	0.408977
H138	H	-1.143593	0.347354	0.500040
H139	H	-1.215904	0.275004	0.500058
H140	H	-1.270744	0.329738	0.418755
H141	H	-1.198437	0.402107	0.418750
H142	H	-1.262404	0.393738	0.471688
C143	C	-1.137778	0.268996	0.566349
C144	C	-1.194122	0.218614	0.602845
C145	C	-1.244666	0.268914	0.634658
H146	H	-1.103798	0.307266	0.591216
H147	H	-1.167837	0.299014	0.538302
H148	H	-1.164065	0.188610	0.630890
H149	H	-1.228120	0.180345	0.577994
H150	H	-1.274725	0.298933	0.606610
H151	H	-1.210679	0.307182	0.659521
H152	H	-1.282906	0.234737	0.659420
H153	H	-1.073595	0.205014	0.734907
C154	C	-1.087437	0.218640	0.858855
C155	C	-1.171215	0.195740	0.843354
C156	C	-1.221788	0.246118	0.875065
H157	H	-1.080331	0.211457	0.901302
H158	H	-1.072024	0.275535	0.848423
H159	H	-1.186622	0.138858	0.853790
H160	H	-1.178346	0.202926	0.800913
H161	H	-1.206376	0.303014	0.864633
H162	H	-1.214675	0.238932	0.917510
H163	H	-1.278636	0.230593	0.864548
C164	C	-0.876908	0.008252	0.726437
C165	C	-0.832755	-0.035897	0.767922
C166	C	-0.782228	-0.086372	0.736259
H167	H	-0.910891	-0.030076	0.701615
H168	H	-0.838588	0.042296	0.701646
H169	H	-0.871071	-0.069937	0.792703
H170	H	-0.798757	0.002410	0.792745
H171	H	-0.743907	-0.052328	0.711468
H172	H	-0.816217	-0.124694	0.711438
H173	H	-0.752258	-0.116327	0.764401
C174	C	-0.826573	-0.042280	0.566284
C175	C	-0.782451	-0.086471	0.524822
C176	C	-0.732022	-0.137036	0.556511
H177	H	-0.788228	-0.008321	0.591109
H178	H	-0.860645	-0.080578	0.591075
H179	H	-0.748381	-0.048178	0.500042
H180	H	-0.820774	-0.120446	0.499996
H181	H	-0.766094	-0.175334	0.581302
H182	H	-0.693682	-0.103070	0.581335
H183	H	-0.702085	-0.167031	0.528384
H184	H	-0.840267	-0.028494	0.442372
C185	C	-0.877070	0.008227	0.273892
C186	C	-0.927500	-0.048056	0.310403
C187	C	-0.877245	-0.098572	0.342304
H188	H	-0.847031	-0.021887	0.245915
H189	H	-0.838817	0.042258	0.298752
H190	H	-0.965739	-0.082083	0.285545
H191	H	-0.957539	-0.017966	0.338391
H192	H	-0.838991	-0.064541	0.367164
H193	H	-0.847208	-0.128680	0.314323
H194	H	-0.911453	-0.136760	0.367085
