data_functionalizedCrystal
_audit_creation_method	'MofGen! by Chris Wilmer'
_symmetry_space_group_name_H-M	'P1'
_symmetry_Int_Tables_number	1
_symmetry_cell_setting	triclinic
loop_
_symmetry_equiv_pos_as_xyz
  x,y,z
_cell_length_a	27.732048
_cell_length_b	12.837942
_cell_length_c	11.295483
_cell_angle_alpha	85.469583
_cell_angle_beta	85.926381
_cell_angle_gamma	91.264203
loop_
_atom_site_label
_atom_site_type_symbol
_atom_site_fract_x
_atom_site_fract_y
_atom_site_fract_z
O1	O	0.649968	-0.116220	-0.099093
O2	O	0.510103	-0.134962	-0.099081
O3	O	0.576934	0.025262	-0.099079
O4	O	0.583137	-0.276444	-0.099094
O5	O	0.571063	0.011210	0.098972
O6	O	0.504232	-0.149013	0.098970
O7	O	0.644097	-0.130272	0.098958
Cu8	Cu	0.573628	-0.140925	0.117048
Cu9	Cu	0.580571	-0.124308	-0.117170
O10	O	0.577266	-0.290495	0.098956
C11	C	0.571903	0.056823	-0.000054
C12	C	0.565654	0.171800	-0.000056
C13	C	0.489141	-0.141594	-0.000054
C14	C	0.435427	-0.140410	-0.000049
C15	C	0.665059	-0.123639	-0.000072
C16	C	0.718773	-0.124823	-0.000085
C17	C	1.053265	-0.037602	-0.000039
C18	C	1.255142	-0.041997	-0.000036
O19	O	1.282445	0.037759	0.000019
N20	N	1.278973	-0.137002	-0.000044
C21	C	1.252332	-0.230916	-0.000045
O22	O	1.277233	-0.311826	-0.000040
C23	C	1.050455	-0.226520	-0.000040
C24	C	1.026627	-0.131508	-0.000044
C25	C	1.029437	0.057403	-0.000042
C26	C	0.978971	0.058501	-0.000049
C27	C	0.952333	-0.035405	-0.000054
C28	C	0.976161	-0.130410	-0.000052
C29	C	1.023814	-0.320434	-0.000033
C30	C	0.973342	-0.319326	-0.000029
C31	C	0.949514	-0.224314	-0.000033
C32	C	0.899057	-0.223218	-0.000064
N33	N	0.875226	-0.128212	-0.000056
C34	C	0.901864	-0.034306	-0.000051
C35	C	1.358320	-0.233217	-0.000050
C36	C	1.408789	-0.234316	-0.000054
C37	C	1.411596	-0.045397	-0.000042
C38	C	1.361126	-0.044298	-0.000047
C39	C	1.334489	-0.138212	-0.000042
C40	C	0.795881	-0.032007	-0.000067
C41	C	0.745411	-0.030916	-0.000080
C42	C	0.742608	-0.219836	-0.000085
C43	C	0.793074	-0.220926	-0.000079
C44	C	0.819710	-0.127003	-0.000066
O45	O	0.871724	-0.302932	-0.000106
O46	O	0.876953	0.046590	-0.000030
C47	C	1.103731	-0.038700	-0.000032
C48	C	1.127559	-0.133705	-0.000029
C49	C	1.100922	-0.227611	-0.000034
C50	C	1.178028	-0.134804	-0.000033
C51	C	1.204666	-0.040897	-0.000028
C52	C	1.180835	0.054108	-0.000020
C53	C	1.130369	0.055206	-0.000027
C54	C	1.124753	-0.322616	-0.000043
C55	C	1.175219	-0.323707	-0.000037
C56	C	1.201857	-0.229800	-0.000032
C57	C	0.582297	-0.322056	-0.000071
C58	C	0.588546	-0.437033	-0.000078
N59	N	0.568748	-0.152612	0.281784
C60	C	0.640783	0.413964	-0.000087
C61	C	0.634914	0.521996	-0.000089
C62	C	0.548046	0.495898	-0.000069
C63	C	0.553915	0.387867	-0.000067
C64	C	0.600285	0.346904	-0.000075
C65	C	0.606154	0.238869	-0.000065
C66	C	0.519287	0.212774	-0.000053
C67	C	0.513417	0.320806	-0.000055
N68	N	0.585455	-0.112613	-0.281907
C69	C	0.620580	-0.028426	0.531074
C70	C	0.616896	-0.037265	0.655738
C71	C	0.557694	-0.179124	0.655777
C72	C	0.561378	-0.170285	0.531113
C73	C	0.592823	-0.094934	0.468766
C74	C	0.596509	-0.086101	0.344100
C75	C	0.537305	-0.227955	0.344142
C76	C	0.533621	-0.236794	0.468805
H77	H	0.726013	0.046457	-0.000086
O78	O	0.527120	-0.252175	0.716489
C79	C	0.492630	-0.202238	0.788589
H80	H	0.507585	-0.122215	0.807234
H81	H	0.484391	-0.251789	0.876268
H82	H	0.458027	-0.192332	0.740571
O83	O	0.674295	0.587045	-0.000256
C84	C	0.705184	0.575875	-0.102850
H85	H	0.698108	0.496151	-0.137043
H86	H	0.744436	0.582479	-0.079790
H87	H	0.697987	0.639960	-0.174673
O88	O	0.503008	-0.309878	0.529323
C89	C	0.455319	-0.291611	0.498867
H90	H	0.452275	-0.206252	0.464593
H91	H	0.429204	-0.309697	0.580866
H92	H	0.445916	-0.344112	0.426517
H93	H	0.514704	-0.282113	0.293396
O94	O	0.685804	0.374051	-0.000248
C95	C	0.694843	0.319636	-0.102834
H96	H	0.659026	0.294553	-0.137030
H97	H	0.716667	0.247551	-0.079765
H98	H	0.716146	0.372800	-0.174660
O99	O	0.651070	0.044890	0.470543
C100	C	0.637614	0.145166	0.501014
H101	H	0.597907	0.142688	0.535319
H102	H	0.643199	0.203033	0.419014
H103	H	0.660853	0.170865	0.573344
O104	O	0.651161	0.198898	-0.000024
C105	C	0.647660	0.089167	-0.000049
H106	H	0.610025	0.060538	0.037462
H107	H	0.675929	0.052369	0.057440
H108	H	0.654197	0.065864	-0.095064
H109	H	1.051120	0.133877	-0.000034
H110	H	0.486310	0.158160	-0.000033
H111	H	0.639498	0.016894	0.706466
O112	O	1.206702	0.145372	-0.000226
C113	C	1.198263	0.210401	-0.102778
H114	H	1.185691	0.160529	-0.174478
H115	H	1.233116	0.254955	-0.137200
H116	H	1.169161	0.268300	-0.079586
O117	O	0.468372	0.360569	-0.000258
C118	C	0.446415	0.333479	-0.102805
H119	H	0.475565	0.316494	-0.174504
H120	H	0.423874	0.401047	-0.137232
H121	H	0.422053	0.260993	-0.079602
O122	O	0.821679	0.059327	-0.000117
C123	C	0.789816	0.143404	-0.000094
H124	H	0.754542	0.119137	-0.037587
H125	H	0.807081	0.213230	-0.057599
H126	H	0.782060	0.165831	0.094918
H127	H	1.103069	-0.399088	-0.000045
H128	H	0.510293	0.529271	-0.000075
O129	O	0.626994	-0.012750	0.283614
C130	C	0.613510	0.087492	0.314146
H131	H	0.573799	0.084959	0.348422
H132	H	0.619094	0.145403	0.232185
H133	H	0.636732	0.113173	0.386518
O134	O	1.107167	0.147424	0.000134
C135	C	1.075024	0.146456	0.102720
H136	H	1.065223	0.062186	0.136913
H137	H	1.040816	0.188856	0.079651
H138	H	1.093040	0.187544	0.174547
H139	H	0.959574	0.135869	-0.000047
H140	H	1.341729	0.033069	-0.000049
H141	H	1.433293	0.031065	-0.000042
H142	H	1.428186	-0.311683	-0.000067
H143	H	1.336636	-0.309697	-0.000048
H144	H	0.720911	-0.296291	-0.000095
O145	O	1.046898	-0.412790	-0.000186
C146	C	1.036754	-0.462693	-0.102771
H147	H	1.001530	-0.432582	-0.136971
H148	H	1.033041	-0.550702	-0.079697
H149	H	1.067486	-0.445151	-0.174595
O150	O	0.947420	-0.410478	-0.000188
C151	C	0.921196	-0.408236	-0.102779
H152	H	0.915868	-0.323636	-0.136976
H153	H	0.884429	-0.449082	-0.079715
H154	H	0.942087	-0.450177	-0.174601
H155	H	0.812476	-0.298293	-0.000077
O156	O	1.198285	-0.416104	0.000018
C157	C	1.163946	-0.498743	-0.000015
H158	H	1.127270	-0.472914	0.037467
H159	H	1.175833	-0.569202	0.057494
H160	H	1.160967	-0.520936	-0.095029
