data_functionalizedCrystal
_audit_creation_method	'MofGen! by Chris Wilmer'
_symmetry_space_group_name_H-M	'P1'
_symmetry_Int_Tables_number	1
_symmetry_cell_setting	triclinic
loop_
_symmetry_equiv_pos_as_xyz
  x,y,z
_cell_length_a	12.837943
_cell_length_b	10.654550
_cell_length_c	11.295483
_cell_angle_alpha	94.136004
_cell_angle_beta	85.461227
_cell_angle_gamma	89.656922
loop_
_atom_site_label
_atom_site_type_symbol
_atom_site_fract_x
_atom_site_fract_y
_atom_site_fract_z
O1	O	1.384729	0.319125	-0.098998
O2	O	1.082808	0.302983	-0.099005
O3	O	1.240710	0.129073	-0.098997
O4	O	1.226827	0.493035	-0.099006
O5	O	1.226841	0.144321	0.099053
O6	O	1.068938	0.318232	0.099045
O7	O	1.370860	0.334374	0.099052
Cu8	Cu	1.218633	0.327695	0.117132
Cu9	Cu	1.235034	0.309662	-0.117085
O10	O	1.212958	0.508284	0.099044
C11	C	1.037213	0.305155	0.000019
C12	C	0.922019	0.288892	0.000016
C13	C	1.232756	0.089788	0.000027
C14	C	1.229706	-0.049989	0.000022
C15	C	0.682466	0.484398	0.000028
C16	C	0.574230	0.469123	0.000026
C17	C	0.597310	0.243071	0.000019
C18	C	0.705546	0.258345	0.000021
C19	C	0.748119	0.379012	0.000024
C20	C	0.856358	0.394285	0.000017
C21	C	0.879435	0.168234	0.000018
C22	C	0.771199	0.152960	0.000017
C23	C	1.322676	-0.119329	0.000028
C24	C	1.319805	-0.250663	0.000020
C25	C	1.130985	-0.243306	0.000005
C26	C	1.133858	-0.111974	0.000005
C27	C	1.418525	-0.057343	0.000046
C28	C	1.511502	-0.126683	0.000053
C29	C	1.508631	-0.258018	0.000045
C30	C	1.412782	-0.320013	0.000029
C31	C	1.416454	0.332202	0.000025
C32	C	1.531648	0.348464	0.000020
C33	C	1.220912	0.547569	0.000018
C34	C	1.223962	0.687345	0.000014
N35	N	1.207104	0.340379	0.281868
N36	N	1.246571	0.296969	-0.281821
C37	C	1.329560	0.205592	0.531164
C38	C	1.320855	0.215188	0.655827
C39	C	1.180985	0.369157	0.655860
C40	C	1.189690	0.359562	0.531196
C41	C	1.263981	0.277778	0.468853
C42	C	1.272690	0.268191	0.344187
C43	C	1.132816	0.422153	0.344222
C44	C	1.124111	0.431748	0.468886
H45	H	0.891019	0.492538	0.000021
F46	F	0.727779	0.612817	0.000016
F47	F	0.725877	0.024545	0.000018
H48	H	1.410452	-0.426956	0.000010
H49	H	1.584339	-0.314472	0.000038
F50	F	1.045047	0.518781	0.535247
F51	F	0.504360	0.581289	0.000035
F52	F	1.351758	0.181154	0.277839
F53	F	1.408634	0.118565	0.464812
F54	F	1.613506	-0.060704	0.000056
F55	F	0.551981	0.114660	0.000031
F56	F	1.390651	0.138354	0.722139
F57	F	1.101915	0.456180	0.722224
H58	H	1.420873	0.049596	0.000056
F59	F	0.949318	0.056067	-0.000001
F60	F	1.028983	-0.309290	-0.000010
F61	F	1.034909	-0.038174	-0.000002
F62	F	1.063024	0.498989	0.277895
