data_functionalizedCrystal
_audit_creation_method	'MofGen! by Chris Wilmer'
_symmetry_space_group_name_H-M	'P1'
_symmetry_Int_Tables_number	1
_symmetry_cell_setting	triclinic
loop_
_symmetry_equiv_pos_as_xyz
  x,y,z
_cell_length_a	14.853567
_cell_length_b	14.853567
_cell_length_c	7.088929
_cell_angle_alpha	83.779107
_cell_angle_beta	96.223246
_cell_angle_gamma	83.634930
loop_
_atom_site_label
_atom_site_type_symbol
_atom_site_fract_x
_atom_site_fract_y
_atom_site_fract_z
O1	O	0.126945	1.187124	0.158840
O2	O	0.140968	0.924662	0.158871
O3	O	0.002727	1.062903	0.158860
O4	O	0.265186	1.048883	0.158850
O5	O	-0.015776	1.081391	-0.159116
O6	O	0.122465	0.943150	-0.159106
O7	O	0.108442	1.205611	-0.159137
Cu8	Cu	0.113764	1.076069	-0.188155
Cu9	Cu	0.135646	1.054205	0.187889
O10	O	0.246683	1.067370	-0.159126
C11	C	0.131082	0.900317	-0.000113
C12	C	0.129178	0.800233	-0.000101
C13	C	-0.040113	1.071512	-0.000122
C14	C	-0.140196	1.069607	-0.000106
C15	C	0.039010	0.387701	-0.000140
C16	C	0.203243	0.366421	-0.000145
C17	C	0.205033	0.460454	-0.000139
C18	C	0.123811	0.518115	-0.000131
C19	C	0.040799	0.481743	-0.000129
C20	C	0.288046	0.496832	-0.000121
C21	C	0.289840	0.590871	-0.000113
C22	C	0.208616	0.648535	-0.000119
C23	C	0.125600	0.612157	-0.000119
C24	C	0.044378	0.669819	-0.000111
C25	C	-0.038640	0.633444	-0.000125
C26	C	-0.040425	0.539407	-0.000134
C27	C	0.210401	0.742571	-0.000109
C28	C	0.046166	0.763861	-0.000099
C29	C	-0.552731	0.979443	-0.000131
C30	C	-0.574013	1.143676	-0.000151
C31	C	-0.479979	1.145466	-0.000140
C32	C	-0.422316	1.064243	-0.000127
C33	C	-0.458688	0.981230	-0.000126
C34	C	-0.443601	1.228478	-0.000160
C35	C	-0.349561	1.230271	-0.000151
C36	C	-0.291896	1.149046	-0.000125
C37	C	-0.328273	1.066030	-0.000122
C38	C	-0.270610	0.984807	-0.000110
C39	C	-0.306985	0.901789	-0.000093
C40	C	-0.401023	0.900005	-0.000100
C41	C	-0.197858	1.150830	-0.000118
C42	C	-0.176567	0.986594	-0.000105
C43	C	0.289523	1.058762	-0.000139
C44	C	0.389607	1.060666	-0.000144
C45	C	0.118329	1.229956	-0.000148
C46	C	0.120233	1.330040	-0.000148
N47	N	0.098372	1.091453	-0.452644
N48	N	0.151031	1.038828	0.452378
H49	H	-0.019977	0.810804	-0.000100
N50	N	0.223310	0.966573	-0.439456
H51	H	0.210840	0.904577	-0.474210
H52	H	0.285269	0.979156	-0.474228
N53	N	-0.310333	1.319806	-0.000131
H54	H	-0.242010	1.308615	-0.000116
H55	H	-0.338270	1.362210	-0.118012
H56	H	-0.104770	0.680404	-0.000105
H57	H	-0.108017	0.509785	-0.000191
N58	N	0.299930	0.781805	-0.000073
H59	H	0.351112	0.731007	-0.000068
H60	H	0.297396	0.827216	-0.117947
N61	N	-0.158626	1.240360	-0.000159
H62	H	-0.172786	1.269106	0.117699
H63	H	-0.090315	1.229094	-0.000226
H64	H	-0.129623	0.920450	-0.000086
H65	H	-0.028581	0.358081	-0.000159
N66	N	0.290842	0.304231	-0.000139
H67	H	0.343701	0.341543	-0.000133
H68	H	0.300530	0.257898	0.117746
H69	H	-0.260024	0.835658	-0.000096
N70	N	0.026097	1.163709	-0.560783
H71	H	0.027191	1.162627	-0.702732
H72	H	-0.035855	1.151165	-0.525901
N73	N	0.375639	0.434632	-0.000098
H74	H	0.385394	0.388284	0.117773
H75	H	0.371641	0.402062	-0.118053
N76	N	-0.505801	1.316073	-0.000197
H77	H	-0.538434	1.312139	0.117676
H78	H	-0.468439	1.368893	-0.000290
N79	N	-0.440254	0.810471	-0.000090
H80	H	-0.508577	0.821667	-0.000107
H81	H	-0.426024	0.781780	-0.117964
H82	H	-0.582351	0.911851	-0.000110
N83	N	0.379379	0.630090	-0.000119
H84	H	0.376924	0.675487	-0.117994
H85	H	0.390598	0.661725	0.117832
N86	N	-0.636202	1.231280	-0.000194
H87	H	-0.701294	1.217551	-0.000207
H88	H	-0.617562	1.260601	0.117679
