data_functionalizedCrystal
_audit_creation_method	'MofGen! by Chris Wilmer'
_symmetry_space_group_name_H-M	'P1'
_symmetry_Int_Tables_number	1
_symmetry_cell_setting	triclinic
loop_
_symmetry_equiv_pos_as_xyz
  x,y,z
_cell_length_a	10.540510
_cell_length_b	10.654550
_cell_length_c	9.130313
_cell_angle_alpha	89.999724
_cell_angle_beta	90.005059
_cell_angle_gamma	95.500879
loop_
_atom_site_label
_atom_site_type_symbol
_atom_site_fract_x
_atom_site_fract_y
_atom_site_fract_z
O1	O	-0.178303	1.667883	-0.121692
O2	O	-0.195291	1.302409	-0.121719
O3	O	-0.002085	1.493504	-0.121693
O4	O	-0.371509	1.476789	-0.121718
O5	O	-0.002079	1.493491	0.121906
O6	O	-0.195285	1.302396	0.121880
O7	O	-0.178297	1.667870	0.121907
Cu8	Cu	-0.186791	1.485132	0.144136
Cu9	Cu	-0.186797	1.485147	-0.143948
O10	O	-0.371503	1.476775	0.121881
C11	C	-0.194040	1.255604	0.000077
C12	C	-0.190309	1.116160	0.000067
C13	C	-0.304065	1.036702	0.000063
C14	C	-0.300551	0.905681	0.000089
C15	C	-0.069514	0.933587	0.000116
C16	C	-0.073029	1.064606	0.000100
C17	C	-0.418809	1.478028	0.000078
C18	C	-0.559758	1.481754	0.000069
C19	C	-0.777261	1.349001	0.000637
C20	C	-0.630667	1.345026	0.000065
C21	C	-0.604512	1.551754	-0.139024
C22	C	-0.751272	1.554761	-0.139117
C23	C	-0.751038	1.557592	0.137900
C24	C	-0.604699	1.551107	0.139716
C25	C	0.045221	1.492252	0.000106
C26	C	0.186170	1.488525	0.000105
C27	C	-0.179547	1.714675	0.000107
C28	C	-0.183279	1.854119	0.000108
N29	N	-0.186785	1.485130	0.346758
N30	N	-0.186793	1.485159	-0.346571
C31	C	-0.101270	1.569776	0.423422
C32	C	-0.101270	1.569788	0.576759
C33	C	-0.272312	1.400504	0.576755
C34	C	-0.272305	1.400487	0.423421
H35	H	0.025971	0.891595	0.000152
O36	O	0.049670	1.150323	0.000107
H37	H	0.131812	1.092465	0.000113
H38	H	-0.601329	1.290246	0.099762
O39	O	-0.430558	1.092303	0.000042
H40	H	-0.413896	1.196759	0.000018
H41	H	-0.393183	0.840991	0.000089
H42	H	-0.031635	1.638712	0.639174
O43	O	-0.832847	1.278414	0.132764
H44	H	-0.887141	1.342012	0.199466
H45	H	-0.820797	1.296048	-0.098560
H46	H	-0.341942	1.331553	0.360998
H47	H	-0.341942	1.331592	0.639189
O48	O	-0.781709	1.690211	-0.147491
H49	H	-0.740894	1.733733	-0.249652
O50	O	-0.593067	1.272069	-0.132249
H51	H	-0.679639	1.239505	-0.196086
O52	O	-0.539660	1.683335	0.150851
H53	H	-0.573515	1.729551	0.250538
O54	O	-0.804604	1.491392	-0.276836
H55	H	-0.725537	1.458888	-0.342738
H56	H	-0.557086	1.652410	-0.144193
O57	O	-0.563707	1.487378	-0.276171
H58	H	-0.511566	1.405541	-0.245620
H59	H	-0.793483	1.514374	0.243337
H60	H	-0.576087	1.500174	0.242616
H61	H	-0.773159	1.660246	0.138855
H62	H	-0.031633	1.638695	0.361006
