data_functionalizedCrystal
_audit_creation_method	'MofGen! by Chris Wilmer'
_symmetry_space_group_name_H-M	'P1'
_symmetry_Int_Tables_number	1
_symmetry_cell_setting	triclinic
loop_
_symmetry_equiv_pos_as_xyz
  x,y,z
_cell_length_a	30.570277
_cell_length_b	30.570279
_cell_length_c	30.570278
_cell_angle_alpha	90.002023
_cell_angle_beta	120.002775
_cell_angle_gamma	60.000192
loop_
_atom_site_label
_atom_site_type_symbol
_atom_site_fract_x
_atom_site_fract_y
_atom_site_fract_z
O1	O	-0.385853	-0.300081	-0.013019
O2	O	-0.296276	-0.236470	0.012948
O3	O	-0.385851	-0.236468	-0.076629
O4	O	-0.296278	-0.300083	0.076558
O5	O	-0.313096	-0.309223	-0.076628
O6	O	-0.223521	-0.309225	0.012948
O7	O	-0.313098	-0.372836	-0.013018
Cu8	Cu	-0.261666	-0.347673	-0.000035
Cu9	Cu	-0.347708	-0.261633	-0.000036
O10	O	-0.223523	-0.372837	0.076558
C11	C	-0.128234	-0.080459	0.031437
C12	C	-0.075220	-0.107026	0.031806
C13	C	-0.128231	-0.159673	0.031442
C14	C	-0.075217	-0.186120	0.031810
C15	C	-0.049022	-0.159672	0.031437
C16	C	-0.154310	-0.107028	0.031810
C17	C	-0.214053	0.005153	0.025009
C18	C	-0.243217	0.059251	0.020951
C19	C	-0.218188	0.086384	0.018912
C20	C	-0.249808	0.145041	0.014509
C21	C	-0.163989	0.059424	0.020937
C22	C	-0.134825	0.005329	0.024998
C23	C	-0.159860	-0.021805	0.027032
C24	C	0.030160	-0.159464	0.025004
C25	C	0.080199	-0.184398	0.020946
C26	C	0.105296	-0.236563	0.018911
C27	C	0.159550	-0.263599	0.014508
C28	C	0.080364	-0.263802	0.020941
C29	C	0.030329	-0.238870	0.025002
C30	C	0.005227	-0.186701	0.027031
C31	C	-0.214047	-0.159470	0.025018
C32	C	-0.243213	-0.184403	0.020957
C33	C	-0.218181	-0.236568	0.018923
C34	C	-0.249798	-0.263606	0.014524
C35	C	-0.163987	-0.263803	0.020945
C36	C	-0.134821	-0.238872	0.025004
C37	C	-0.159854	-0.186705	0.027041
C38	C	-0.527089	-0.420641	-0.027236
C39	C	-0.581077	-0.393647	-0.023523
C40	C	-0.500893	-0.473285	-0.027607
C41	C	-0.447873	-0.420643	-0.027231
C42	C	-0.417163	-0.393650	-0.023513
C43	C	-0.421797	-0.473287	-0.027603
C44	C	-0.447877	-0.499854	-0.027235
C45	C	-0.417170	-0.557555	-0.023522
C46	C	-0.500890	-0.394194	-0.027603
C47	C	-0.392361	-0.604171	-0.020521
C48	C	-0.624693	-0.371839	-0.020522
C49	C	-0.392351	-0.371844	-0.020508
C50	C	-0.361238	-0.662654	-0.016756
C51	C	-0.679412	-0.344479	-0.016758
C52	C	-0.361224	-0.344487	-0.016739
C53	C	-0.560359	-0.080467	-0.400688
C54	C	-0.534162	-0.107034	-0.348043
C55	C	-0.481146	-0.159681	-0.400686
C56	C	-0.455069	-0.186127	-0.348041
C57	C	-0.481147	-0.159680	-0.321474
C58	C	-0.534161	-0.107035	-0.427135
C59	C	-0.639544	0.005145	-0.480080
C60	C	-0.689585	0.059243	-0.505187
C61	C	-0.714682	0.086375	-0.478120
C62	C	-0.768937	0.145032	-0.505338
C63	C	-0.689748	0.059415	-0.425947
C64	C	-0.639712	0.005320	-0.400842
C65	C	-0.614610	-0.021813	-0.427909
C66	C	-0.474926	-0.159473	-0.235861
C67	C	-0.445934	-0.184407	-0.181763
C68	C	-0.391734	-0.236571	-0.154630
C69	C	-0.360296	-0.263608	-0.095973
C70	C	-0.366522	-0.263810	-0.181590
C71	C	-0.395513	-0.238878	-0.235686
C72	C	-0.449713	-0.186709	-0.262819
C73	C	-0.474922	-0.159476	-0.480076
C74	C	-0.445925	-0.184409	-0.505179
C75	C	-0.391725	-0.236573	-0.478111
C76	C	-0.360286	-0.263611	-0.505327
C77	C	-0.366514	-0.263808	-0.425939
C78	C	-0.395506	-0.238878	-0.400835
C79	C	-0.449711	-0.186711	-0.427905
O80	O	0.304532	-0.372829	-0.013037
O81	O	0.177310	-0.309215	0.012925
O82	O	0.177302	-0.309218	-0.076650
O83	O	0.304540	-0.372826	0.076537
O84	O	0.177300	-0.236462	-0.076654
O85	O	0.177308	-0.236460	0.012921
O86	O	0.304530	-0.300073	-0.013041
Cu87	Cu	0.240918	-0.261623	-0.000061
Cu88	Cu	0.240921	-0.347665	-0.000056
O89	O	0.304537	-0.300070	0.076533
O90	O	-0.313114	0.317571	-0.013040
O91	O	-0.223539	0.164386	0.012922
O92	O	-0.313117	0.253954	-0.076652
O93	O	-0.223536	0.228003	0.076535
O94	O	-0.385869	0.253952	-0.076648
O95	O	-0.296290	0.164384	0.012926
O96	O	-0.385866	0.317568	-0.013035
Cu97	Cu	-0.347721	0.240976	-0.000054
Cu98	Cu	-0.261684	0.240979	-0.000059
O99	O	-0.296288	0.228001	0.076539
O100	O	-0.296268	-0.300093	-0.613836
O101	O	-0.385844	-0.236475	-0.550229
O102	O	-0.296268	-0.236478	-0.550221
O103	O	-0.385844	-0.300090	-0.613843
O104	O	-0.223514	-0.309232	-0.477465
O105	O	-0.313090	-0.309228	-0.477472
O106	O	-0.223514	-0.372846	-0.541079
Cu107	Cu	-0.261659	-0.347680	-0.502632
Cu108	Cu	-0.347699	-0.261641	-0.588676
O109	O	-0.313090	-0.372843	-0.541087
O110	O	-0.913923	0.317559	-0.541094
O111	O	-0.786696	0.164375	-0.477482
O112	O	-0.786693	0.253944	-0.477477
O113	O	-0.913926	0.227990	-0.541100
O114	O	-0.786694	0.253945	-0.550232
O115	O	-0.786697	0.164376	-0.550237
O116	O	-0.913924	0.317560	-0.613849
Cu117	Cu	-0.850310	0.240968	-0.588686
Cu118	Cu	-0.850309	0.240967	-0.502645
O119	O	-0.913927	0.227991	-0.613855
C120	C	-0.082292	-0.499866	0.338350
C121	C	-0.028305	-0.557568	0.365343
C122	C	-0.108488	-0.473300	0.364799
C123	C	-0.161506	-0.420652	0.259138
C124	C	-0.192215	-0.393658	0.201436
C125	C	-0.187582	-0.394206	0.285707
C126	C	-0.161504	-0.420654	0.338352
C127	C	-0.192211	-0.393662	0.365346
C128	C	-0.108491	-0.473297	0.285705
C129	C	-0.217020	-0.371856	0.387154
C130	C	0.015310	-0.604185	0.387149
C131	C	-0.217026	-0.371849	0.154818
C132	C	-0.248143	-0.344498	0.414514
C133	C	0.070027	-0.662668	0.414507
C134	C	-0.248152	-0.344489	0.096335
C135	C	0.552145	-0.420630	0.338329
C136	C	0.582854	-0.393636	0.365322
C137	C	0.578224	-0.473275	0.364778
C138	C	0.472927	-0.420632	0.259117
C139	C	0.418937	-0.393640	0.201414
C140	C	0.499127	-0.473277	0.285686
C141	C	0.552145	-0.499843	0.338332
C142	C	0.582855	-0.557544	0.365327
C143	C	0.499126	-0.394184	0.285684
C144	C	0.607667	-0.604161	0.387135
C145	C	0.607665	-0.371828	0.387129
C146	C	0.375319	-0.371834	0.154796
C147	C	0.638793	-0.662644	0.414495
C148	C	0.638791	-0.344468	0.414486
C149	C	0.320597	-0.344476	0.096312
C150	C	-0.161521	0.213838	0.338326
C151	C	-0.192228	0.217556	0.365321
C152	C	-0.108508	0.213473	0.364771
C153	C	-0.161522	0.213827	0.259113
C154	C	-0.192230	0.217533	0.201412
C155	C	-0.108509	0.213462	0.285678
C156	C	-0.082312	0.213841	0.338322
C157	C	-0.028328	0.217561	0.365311
C158	C	-0.187598	0.213460	0.285683
C159	C	0.015285	0.220568	0.387116
C160	C	-0.217037	0.220560	0.387130
C161	C	-0.217039	0.220528	0.154796
C162	C	0.070000	0.224340	0.414471
C163	C	-0.248160	0.224329	0.414490
C164	C	-0.248164	0.224285	0.096313
C165	C	-0.128271	-0.080468	-0.400715
C166	C	-0.154349	-0.107037	-0.427161
C167	C	-0.049052	-0.159679	-0.321499
C168	C	-0.075251	-0.186127	-0.348066
C169	C	-0.128269	-0.159682	-0.400712
C170	C	-0.075252	-0.107034	-0.348069
C171	C	-0.134494	0.005146	-0.400512
C172	C	-0.163488	0.059243	-0.425448
C173	C	-0.217691	0.086373	-0.477613
C174	C	-0.249132	0.145030	-0.504652
C175	C	-0.242904	0.059411	-0.504850
C176	C	-0.213910	0.005316	-0.479916
C177	C	-0.159708	-0.021814	-0.427747
C178	C	-0.214093	-0.159478	-0.480102
C179	C	-0.243256	-0.184414	-0.505206
C180	C	-0.218222	-0.236578	-0.478137
C181	C	-0.249843	-0.263616	-0.505353
C182	C	-0.164019	-0.263815	-0.425963
C183	C	-0.134856	-0.238881	-0.400861
C184	C	-0.159894	-0.186713	-0.427930
C185	C	0.030138	-0.159470	-0.235886
C186	C	0.080177	-0.184401	-0.181786
C187	C	0.105277	-0.236565	-0.154651
C188	C	0.159535	-0.263600	-0.095994
C189	C	0.080341	-0.263802	-0.181609
C190	C	0.030301	-0.238873	-0.235707
C191	C	0.005202	-0.186708	-0.262844
O192	O	0.703741	-0.835605	0.449767
O193	O	0.614163	-0.682422	0.386148
O194	O	0.703733	-0.771993	0.386147
O195	O	0.614170	-0.746035	0.449767
O196	O	0.776491	-0.771989	0.458901
O197	O	0.686921	-0.682419	0.458901
O198	O	0.776499	-0.835602	0.522521
Cu199	Cu	0.738353	-0.759010	0.497354
Cu200	Cu	0.652308	-0.759014	0.411314
O201	O	0.686928	-0.746031	0.522521
C202	C	-0.560378	0.272410	-0.400700
C203	C	-0.534182	0.272777	-0.427149
C204	C	-0.481167	0.272423	-0.321491
C205	C	-0.455091	0.272790	-0.348060
C206	C	-0.481168	0.272412	-0.400704
C207	C	-0.534181	0.272788	-0.348056
C208	C	-0.639559	0.265980	-0.400488
C209	C	-0.689598	0.261918	-0.425420
C210	C	-0.714694	0.259874	-0.477582
C211	C	-0.768946	0.255467	-0.504616
C212	C	-0.689760	0.261897	-0.504822
C213	C	-0.639726	0.265962	-0.479893
C214	C	-0.614626	0.268001	-0.427726
C215	C	-0.474946	0.265972	-0.480095
C216	C	-0.445956	0.261912	-0.505202
C217	C	-0.391758	0.259881	-0.478137
C218	C	-0.360320	0.255476	-0.505356
C219	C	-0.366546	0.261916	-0.425965
C220	C	-0.395537	0.265978	-0.400860
C221	C	-0.449735	0.268004	-0.427925
C222	C	-0.474944	0.266007	-0.235877
C223	C	-0.445948	0.261951	-0.181777
C224	C	-0.391750	0.259921	-0.154648
C225	C	-0.360311	0.255528	-0.095992
C226	C	-0.366539	0.261941	-0.181608
C227	C	-0.395531	0.265995	-0.235705
C228	C	-0.449733	0.268028	-0.262837
H229	H	-0.287343	0.081197	0.019304
H230	H	-0.709886	0.260261	-0.403233
C231	C	-0.245231	0.212656	0.256868
N232	N	-0.288640	0.212052	0.235165
C233	C	-0.306894	-0.321195	-0.151736
N234	N	-0.261982	-0.364417	-0.129252
H235	H	-0.375006	0.267630	-0.358381
C236	C	-0.530507	-0.335760	-0.028403
N237	N	-0.552813	-0.291749	-0.029006
C238	C	-0.611939	-0.024700	-0.509859
N239	N	-0.591144	-0.047178	-0.532288
C240	C	-0.530502	-0.502106	-0.028394
N241	N	-0.552797	-0.523817	-0.028978
H242	H	-0.412398	-0.229378	-0.326707
H243	H	-0.053316	-0.229385	-0.326735
C244	C	-0.717006	0.088894	-0.562573
N245	N	-0.737662	0.111230	-0.605798
C246	C	-0.241589	-0.102084	0.027254
N247	N	-0.262338	-0.058858	0.028932
C248	C	-0.563782	-0.078217	-0.319228
N249	N	-0.586090	-0.056513	-0.297524
H250	H	-0.556084	-0.085702	-0.470389
H251	H	-0.086563	-0.494628	0.264377
H252	H	-0.322369	-0.306282	-0.403893
H253	H	-0.619127	0.267644	-0.358012
H254	H	0.477198	-0.494605	0.264354
H255	H	-0.374983	-0.261057	-0.257636
C256	C	-0.078866	-0.502117	0.423235
N257	N	-0.056557	-0.523821	0.467247
H258	H	-0.379134	-0.494617	-0.028194
H259	H	-0.086582	0.212880	0.408027
C260	C	-0.473656	-0.154443	-0.562564
N261	N	-0.494540	-0.131871	-0.605785
C262	C	-0.473688	0.259669	-0.562586
N263	N	-0.494573	0.257977	-0.605808
C264	C	-0.075210	-0.024327	0.027223
N265	N	-0.030309	-0.046663	0.028897
H266	H	-0.519060	-0.117001	-0.502123
H267	H	-0.143612	0.081524	0.019277
C268	C	-0.135753	0.088896	-0.395485
N269	N	-0.114862	0.111233	-0.372917
C270	C	-0.245213	-0.335770	0.256892
N271	N	-0.288618	-0.291757	0.235191
H272	H	0.620886	-0.494601	0.408035
H273	H	-0.710190	0.081515	-0.403911
H274	H	0.477229	-0.350942	0.264340
H275	H	-0.086588	0.212866	0.264344
H276	H	-0.374973	-0.261055	-0.358353
H277	H	-0.197017	-0.085704	-0.470415
C278	C	-0.473672	-0.154440	-0.152113
N279	N	-0.494561	-0.131872	-0.129776
H280	H	-0.143638	-0.306293	-0.403925
H281	H	-0.053329	-0.085701	-0.326741
C282	C	0.107608	-0.154439	-0.152138
N283	N	0.128271	-0.131872	-0.129806
C284	C	0.002531	-0.102087	-0.265735
N285	N	-0.018265	-0.058864	-0.288215
C286	C	-0.075238	-0.268838	-0.343470
N287	N	-0.030335	-0.291401	-0.300241
H288	H	-0.090357	-0.016943	-0.358034
C289	C	-0.302535	0.089263	-0.562236
N290	N	-0.347449	0.111744	-0.605459
H291	H	-0.234440	-0.016635	-0.502094
C292	C	-0.241633	-0.102095	-0.509885
N293	N	-0.262379	-0.058873	-0.532317
H294	H	-0.053294	-0.229376	0.032406
C295	C	0.107976	-0.321188	0.018701
N296	N	0.128771	-0.364411	0.017014
H297	H	-0.619413	-0.016631	-0.358363
H298	H	-0.287388	-0.162232	-0.547686
H299	H	-0.519060	-0.116995	-0.257952
H300	H	0.009997	-0.261053	-0.257655
C301	C	-0.306935	0.259702	-0.396202
N302	N	-0.262042	0.258043	-0.373786
H303	H	0.100780	-0.306280	-0.159512
C304	C	-0.397463	0.273601	-0.319244
N305	N	-0.354059	0.274212	-0.297541
H306	H	-0.556113	0.273372	-0.470405
H307	H	-0.556106	0.273384	-0.326726
H308	H	-0.466481	0.260307	-0.159831
C309	C	-0.534563	0.268236	-0.265718
N310	N	-0.579464	0.269907	-0.288192
H311	H	-0.710202	0.260234	-0.547300
H312	H	-0.619428	0.267611	-0.502074
H313	H	-0.519079	0.267626	-0.502137
C314	C	-0.306915	0.259707	-0.151762
N315	N	-0.262009	0.258028	-0.129282
H316	H	-0.053295	-0.085695	0.032403
H317	H	-0.287338	-0.162223	0.019311
C318	C	0.107620	-0.154432	0.018715
N319	N	0.128277	-0.131864	0.017035
C320	C	0.002903	-0.268832	0.027233
N321	N	-0.017755	-0.291399	0.028912
H322	H	-0.374997	0.267634	-0.257654
H323	H	-0.196967	-0.085697	0.032409
C324	C	-0.136446	-0.321191	0.018711
N325	N	-0.115703	-0.364417	0.017031
H326	H	-0.234438	-0.016938	0.026670
H327	H	0.009727	-0.116987	0.026661
H328	H	-0.090691	-0.261052	0.026655
