data_functionalizedCrystal
_audit_creation_method	'MofGen! by Chris Wilmer'
_symmetry_space_group_name_H-M	'P1'
_symmetry_Int_Tables_number	1
_symmetry_cell_setting	triclinic
loop_
_symmetry_equiv_pos_as_xyz
  x,y,z
_cell_length_a	19.188930
_cell_length_b	19.188905
_cell_length_c	18.266242
_cell_angle_alpha	90.016065
_cell_angle_beta	90.010255
_cell_angle_gamma	83.139668
loop_
_atom_site_label
_atom_site_type_symbol
_atom_site_fract_x
_atom_site_fract_y
_atom_site_fract_z
O1	O	0.087084	0.926160	0.061010
O2	O	0.587084	1.426160	0.561010
O3	O	0.098837	0.722847	0.060986
O4	O	0.598837	1.222847	0.560986
O5	O	-0.008696	0.830371	0.060984
O6	O	0.491304	1.330371	0.560984
O7	O	0.194617	0.818636	0.061011
O8	O	0.694617	1.318636	0.561011
O9	O	-0.008699	0.830353	-0.060778
O10	O	0.491301	1.330353	0.439222
O11	O	0.098834	0.722828	-0.060776
O12	O	0.598834	1.222828	0.439224
O13	O	0.087081	0.926142	-0.060752
O14	O	0.587081	1.426142	0.439248
Zn15	Zn	0.092957	0.824482	-0.080097
Zn16	Zn	0.592957	1.324482	0.419903
Zn17	Zn	0.092961	0.824506	0.080330
Zn18	Zn	0.592961	1.324506	0.580330
O19	O	0.194614	0.818618	-0.060751
O20	O	0.694614	1.318618	0.439249
C21	C	0.098458	0.696826	0.000102
C22	C	0.598458	1.196826	0.500102
C23	C	0.097324	0.619321	0.000092
C24	C	0.597324	1.119321	0.500092
C25	C	0.096781	0.582939	0.066466
C26	C	0.596781	1.082939	0.566466
C27	C	0.095708	0.510115	0.066475
C28	C	0.595708	1.010115	0.566475
C29	C	0.095164	0.473678	0.000106
C30	C	0.595164	0.973678	0.500106
C31	C	0.095711	0.510068	-0.066277
C32	C	0.595711	1.010068	0.433723
C33	C	0.096791	0.582890	-0.066284
C34	C	0.596791	1.082890	0.433716
N35	N	0.053734	0.364651	-0.049292
N36	N	0.553734	0.864651	0.450708
N37	N	0.052706	0.295474	-0.049280
N38	N	0.552706	0.795474	0.450720
C39	C	0.091911	0.254272	0.000123
C40	C	0.591911	0.754272	0.500123
N41	N	0.132173	0.284861	0.049526
N42	N	0.632173	0.784861	0.549526
N43	N	0.133198	0.354045	0.049517
N44	N	0.633198	0.854045	0.549517
C45	C	0.093993	0.394716	0.000106
C46	C	0.593993	0.894716	0.500106
C47	C	0.090206	0.138926	0.066512
C48	C	0.590206	0.638926	0.566512
C49	C	0.089137	0.066100	0.066518
C50	C	0.589137	0.566100	0.566518
C51	C	0.089133	0.066056	-0.066236
C52	C	0.589133	0.566056	0.433764
C53	C	0.090209	0.138879	-0.066240
C54	C	0.590209	0.638879	0.433760
C55	C	0.090742	0.175310	0.000136
C56	C	0.590742	0.675310	0.500136
C57	C	-0.034708	0.829982	0.000101
C58	C	0.465292	1.329982	0.500101
C59	C	-0.112213	0.828841	0.000095
C60	C	0.387787	1.328841	0.500095
C61	C	-0.157142	0.891933	0.000099
C62	C	0.342858	1.391933	0.500099
C63	C	-0.229966	0.890861	0.000110
C64	C	0.270034	1.390861	0.500110
C65	C	-0.257857	0.826694	0.000103
C66	C	0.242143	1.326694	0.500103
C67	C	-0.212917	0.763594	0.000103
C68	C	0.287083	1.263594	0.500103
C69	C	-0.140095	0.764668	0.000099
C70	C	0.359905	1.264668	0.500099
N71	N	-0.365858	0.777640	-0.041341
N72	N	0.134142	1.277640	0.458659
N73	N	-0.435037	0.776624	-0.041338
N74	N	0.064963	1.276624	0.458662
C75	C	-0.477265	0.823456	0.000118
C76	C	0.022735	1.323456	0.500118
N77	N	-0.447703	0.871352	0.041561
N78	N	0.052297	1.371352	0.541561
N79	N	-0.378518	0.872369	0.041556
N80	N	0.121482	1.372369	0.541556
C81	C	-0.336819	0.825523	0.000108
C82	C	0.163181	1.325523	0.500108
C83	C	-0.601159	0.885390	0.000135
C84	C	-0.101159	1.385390	0.500135
C85	C	-0.673984	0.884315	0.000151
C86	C	-0.173984	1.384315	0.500151
C87	C	-0.656933	0.757047	0.000137
C88	C	-0.156933	1.257047	0.500137
C89	C	-0.584110	0.758123	0.000128
C90	C	-0.084110	1.258123	0.500128
C91	C	-0.556228	0.822296	0.000124
C92	C	-0.056228	1.322296	0.500124
C93	C	0.220626	0.819007	0.000134
C94	C	0.720626	1.319007	0.500134
C95	C	0.298131	0.820148	0.000145
C96	C	0.798131	1.320148	0.500145
C97	C	0.087460	0.952163	0.000134
C98	C	0.587460	1.452163	0.500134
C99	C	0.088594	1.029668	0.000148
C100	C	0.588594	1.529668	0.500148
N101	N	0.092954	0.824471	-0.189583
N102	N	0.592954	1.324471	0.310417
C103	C	0.135196	0.866681	-0.227875
C104	C	0.635196	1.366681	0.272125
C105	C	0.135194	0.866692	-0.304520
C106	C	0.635194	1.366692	0.195480
C107	C	0.092958	0.824481	-0.342870
C108	C	0.592958	1.324481	0.157130
C109	C	0.050708	0.782269	-0.304570
C110	C	0.550708	1.282269	0.195430
C111	C	0.050706	0.782264	-0.227926
C112	C	0.550706	1.282264	0.272074
N113	N	0.091244	0.763333	-0.463231
N114	N	0.591244	1.263333	0.036769
N115	N	0.091250	0.763339	-0.536039
N116	N	0.591250	1.263339	-0.036039
C117	C	0.092961	0.824495	-0.573793
C118	C	0.592961	1.324495	-0.073793
N119	N	0.094679	0.885645	-0.535988
N120	N	0.594679	1.385645	-0.035988
N121	N	0.094677	0.885637	-0.463173
N122	N	0.594677	1.385637	0.036827
C123	C	0.092955	0.824482	-0.425977
C124	C	0.592955	1.324482	0.074023
C125	C	0.135202	0.866721	-0.695191
C126	C	0.635202	1.366721	-0.195191
C127	C	0.135195	0.866734	-0.771838
C128	C	0.635195	1.366734	-0.271838
C129	C	0.050714	0.782304	-0.771886
C130	C	0.550714	1.282304	-0.271886
C131	C	0.050717	0.782298	-0.695241
C132	C	0.550717	1.282298	-0.195241
C133	C	0.092965	0.824505	-0.656898
C134	C	0.592965	1.324505	-0.156898
N135	N	0.092959	0.824523	0.189817
N136	N	0.592959	1.324523	0.689817
H137	H	0.088699	0.036479	0.120570
H138	H	0.588699	0.536479	0.620570
Cl139	Cl	-0.083609	0.685346	0.000094
Cl140	Cl	0.416391	1.185346	0.500094
H141	H	0.169595	0.901052	-0.196661
H142	H	0.669595	1.401052	0.303339
H143	H	-0.710565	0.935694	0.000158
H144	H	-0.210565	1.435694	0.500158
Cl145	Cl	0.088456	0.020255	-0.149673
Cl146	Cl	0.588456	0.520255	0.350327
Cl147	Cl	0.090887	0.184619	-0.149687
Cl148	Cl	0.590887	0.684619	0.350313
Cl149	Cl	-0.122094	0.972607	0.000114
Cl150	Cl	0.377906	1.472607	0.500114
H151	H	-0.266555	0.942239	0.000116
H152	H	0.233445	1.442239	0.500116
Cl153	Cl	-0.002398	0.729191	-0.179786
Cl154	Cl	0.497602	1.229191	0.320214
H155	H	-0.235631	0.711349	0.000099
H156	H	0.264369	1.211349	0.500099
H157	H	-0.578456	0.937644	0.000135
H158	H	-0.078456	1.437644	0.500135
H159	H	0.016322	0.747923	-0.664064
H160	H	0.516322	1.247923	-0.164064
H161	H	-0.679641	0.704801	0.000135
H162	H	-0.179641	1.204801	0.500135
Cl163	Cl	-0.527624	0.678803	0.000120
Cl164	Cl	-0.027624	1.178803	0.500120
Cl165	Cl	0.188297	0.919796	-0.646986
Cl166	Cl	0.688297	1.419796	-0.146986
H167	H	0.097215	0.612597	0.120515
H168	H	0.597215	1.112597	0.620515
H169	H	0.169594	0.901065	-0.335703
H170	H	0.669594	1.401065	0.164297
Cl171	Cl	-0.002391	0.729206	-0.352781
Cl172	Cl	0.497609	1.229206	0.147219
Cl173	Cl	0.188301	0.919806	-0.819976
Cl174	Cl	0.688301	1.419806	-0.319976
Cl175	Cl	-0.002391	0.729246	-0.820091
Cl176	Cl	0.497609	1.229246	-0.320091
H177	H	0.095267	0.480487	0.120527
H178	H	0.595267	0.980487	0.620527
H179	H	0.095269	0.480396	-0.120315
H180	H	0.595269	0.980396	0.379685
H181	H	0.090647	0.168589	0.120559
H182	H	0.590647	0.668589	0.620559
Cl183	Cl	0.097473	0.628629	-0.149733
Cl184	Cl	0.597473	1.128629	0.350267
