data_functionalizedCrystal
_audit_creation_method	'MofGen! by Chris Wilmer'
_symmetry_space_group_name_H-M	'P1'
_symmetry_Int_Tables_number	1
_symmetry_cell_setting	triclinic
loop_
_symmetry_equiv_pos_as_xyz
  x,y,z
_cell_length_a	6.817900
_cell_length_b	9.514063
_cell_length_c	14.858572
_cell_angle_alpha	90.778508
_cell_angle_beta	104.524003
_cell_angle_gamma	118.843314
loop_
_atom_site_label
_atom_site_type_symbol
_atom_site_fract_x
_atom_site_fract_y
_atom_site_fract_z
V1	V	-4.123447	-0.223219	-0.290698
V2	V	-3.790114	0.110114	0.042636
V3	V	-3.456780	0.443447	0.375969
O4	O	-4.021918	0.009687	-0.284409
O5	O	-3.688585	0.343020	0.048925
O6	O	-3.355252	0.676353	0.382258
O7	O	-4.158170	-0.441606	-0.289436
O8	O	-3.824836	-0.108272	0.043897
O9	O	-3.491503	0.225061	0.377230
O10	O	-4.078952	-0.220242	-0.417150
O11	O	-3.745618	0.113091	-0.083816
O12	O	-3.412285	0.446425	0.249517
O13	O	-4.101685	-0.213210	-0.155811
O14	O	-3.768352	0.120124	0.177522
O15	O	-3.435018	0.453457	0.510856
V16	V	-4.595798	-0.195307	-0.274476
V17	V	-4.262465	0.138026	0.058857
V18	V	-3.929131	0.471360	0.392191
O19	O	-4.409212	-0.284447	-0.326282
O20	O	-4.075878	0.048887	0.007052
O21	O	-3.742545	0.382220	0.340385
O22	O	-4.760231	-0.134079	-0.238892
O23	O	-4.426897	0.199254	0.094441
O24	O	-4.093564	0.532587	0.427775
O25	O	-4.337869	0.023080	-0.275737
O26	O	-4.004535	0.356413	0.057596
O27	O	-3.671202	0.689746	0.390929
O28	O	-4.814724	-0.428213	-0.280765
O29	O	-4.481390	-0.094879	0.052568
O30	O	-4.148057	0.238454	0.385901
O31	O	-4.734957	-0.205316	-0.409363
O32	O	-4.401624	0.128017	-0.076029
O33	O	-4.068290	0.461350	0.257304
O34	O	-4.417087	-0.198284	-0.148024
O35	O	-4.083754	0.135049	0.185309
O36	O	-3.750420	0.468382	0.518642
C37	C	-4.023266	-0.494829	-0.285038
C38	C	-3.689932	-0.161496	0.048295
C39	C	-3.356599	0.171837	0.381629
C40	C	-4.132968	-0.673366	-0.284850
C41	C	-3.799635	-0.340033	0.048484
C42	C	-3.466302	-0.006700	0.381817
C43	C	-3.922213	-0.212456	-0.447948
C44	C	-3.588880	0.120877	-0.114614
C45	C	-3.255546	0.454211	0.218719
C46	C	-3.967667	-0.211467	-0.551328
C47	C	-3.634333	0.121867	-0.217994
C48	C	-3.301000	0.455200	0.115339
C49	C	-4.134030	-0.207852	-0.929884
C50	C	-3.800697	0.125482	-0.596550
C51	C	-3.467364	0.458815	-0.263217
C52	C	-4.087734	-0.208858	-0.824558
C53	C	-3.754401	0.124476	-0.491224
C54	C	-3.421068	0.457809	-0.157891
C55	C	-4.050851	-0.209661	-0.740609
C56	C	-3.717517	0.123673	-0.407276
C57	C	-3.384184	0.457006	-0.073942
C58	C	-4.004551	-0.210664	-0.635276
C59	C	-3.671217	0.122670	-0.301943
C60	C	-3.337884	0.456003	0.031391
C61	C	-4.136118	0.076295	-0.280133
C62	C	-3.802785	0.409628	0.053200
C63	C	-3.469451	0.742962	0.386533
C64	C	-4.005654	0.254830	-0.280328
C65	C	-3.672321	0.588163	0.053005
C66	C	-3.338988	0.921497	0.386339
C67	C	-4.237169	-0.206076	-0.117221
C68	C	-3.903836	0.127258	0.216112
C69	C	-3.570503	0.460591	0.549445
C70	C	-4.170951	-0.207057	-0.013840
C71	C	-3.837618	0.126277	0.319493
C72	C	-3.504284	0.459610	0.652826
H73	H	-4.325886	-0.748475	-0.288565
H74	H	-3.992553	-0.415142	0.044769
H75	H	-3.659220	-0.081808	0.378102
H76	H	-3.812714	-0.670049	-0.276599
H77	H	-3.479380	-0.336716	0.056735
H78	H	-3.146047	-0.003382	0.390068
