data_functionalizedCrystal
_audit_creation_method	'MofGen! by Chris Wilmer'
_symmetry_space_group_name_H-M	'P1'
_symmetry_Int_Tables_number	1
_symmetry_cell_setting	triclinic
loop_
_symmetry_equiv_pos_as_xyz
  x,y,z
_cell_length_a	17.019372
_cell_length_b	17.038272
_cell_length_c	9.565339
_cell_angle_alpha	89.999258
_cell_angle_beta	86.127368
_cell_angle_gamma	87.242864
loop_
_atom_site_label
_atom_site_type_symbol
_atom_site_fract_x
_atom_site_fract_y
_atom_site_fract_z
O1	O	1.053348	0.099574	-0.010443
O2	O	0.824539	0.112279	0.017083
O3	O	0.937584	-0.007888	0.003472
O4	O	0.940304	0.219741	0.003167
O5	O	0.937574	-0.007878	-0.229047
O6	O	0.824529	0.112288	-0.215436
O7	O	1.053339	0.099583	-0.242962
Zn8	Zn	0.938932	0.105937	-0.266117
Zn9	Zn	0.938945	0.105925	0.040237
O10	O	0.940294	0.219750	-0.229352
C11	C	0.795113	0.111803	-0.095638
C12	C	0.707447	0.110360	-0.085092
C13	C	0.211628	0.102175	-0.018994
C14	C	0.294000	0.103530	-0.028922
C15	C	0.335172	0.104219	-0.160633
C16	C	0.293968	0.103544	-0.282424
C17	C	0.211599	0.102183	-0.272495
C18	C	0.583874	0.108324	-0.196954
C19	C	0.666250	0.109688	-0.206874
C20	C	0.666275	0.109672	0.046630
C21	C	0.583903	0.108316	0.056548
C22	C	0.542708	0.107637	-0.065244
C23	C	0.419368	0.105607	-0.170784
C24	C	0.458513	0.106243	-0.055091
C25	C	0.935105	-0.037009	-0.112490
C26	C	0.927725	-0.123796	-0.111601
C27	C	0.995484	-0.173969	-0.119754
C28	C	0.988545	-0.255514	-0.118906
C29	C	0.913846	-0.286883	-0.109915
C30	C	0.846082	-0.236703	-0.101757
C31	C	0.853022	-0.155160	-0.102595
C32	C	0.889328	-0.532619	-0.106946
C33	C	0.882393	-0.614169	-0.106113
C34	C	1.024858	-0.632974	-0.123259
C35	C	1.031791	-0.551429	-0.124105
C36	C	0.964027	-0.501256	-0.115940
C37	C	0.906751	-0.370234	-0.109052
C38	C	0.971122	-0.417906	-0.116793
C39	C	1.082765	0.100059	-0.130239
C40	C	1.170431	0.101502	-0.140776
C41	C	0.942772	0.248871	-0.113387
C42	C	0.950153	0.335658	-0.114266
N43	N	0.938929	0.105945	-0.475196
C44	C	0.887136	0.161942	-0.653333
C45	C	0.866457	0.091536	-0.557626
C46	C	0.959573	0.176346	-0.568829
C47	C	0.918237	0.035469	-0.657025
C48	C	1.011388	0.120325	-0.668241
C49	C	0.990735	0.049867	-0.572579
N50	N	0.938954	0.105911	0.249315
H51	H	0.550387	0.107754	0.163801
F52	F	0.895337	-0.042387	-0.707533
H53	H	0.699769	0.110254	-0.314134
H54	H	1.031942	-0.392362	-0.124082
F55	F	0.786378	0.075612	-0.494488
F56	F	1.091445	0.136278	-0.731415
H57	H	0.178056	0.101643	-0.371663
H58	H	1.056312	-0.148435	-0.127084
H59	H	0.424987	0.105679	0.052147
F60	F	1.047998	-0.012112	-0.526306
H61	H	0.977034	0.235900	-0.530030
F62	F	1.060664	-0.308909	-0.127586
H63	H	0.327539	0.104073	0.070246
H64	H	0.178111	0.101619	0.088260
F65	F	0.829830	0.223788	-0.699939
F66	F	0.710124	0.110390	0.176239
H67	H	0.550343	0.107760	-0.296125
F68	F	0.337789	0.104274	-0.422602
H69	H	0.452900	0.106169	-0.278024
F70	F	1.111296	-0.518050	-0.133639
H71	H	1.080027	-0.673833	-0.129904
H72	H	0.797845	-0.114309	-0.095956
H73	H	0.821561	-0.639706	-0.098814
H74	H	0.834149	-0.491778	-0.100298
H75	H	0.785260	-0.262250	-0.094428
F76	F	0.827253	-0.403627	-0.099478
