data_functionalizedCrystal
_audit_creation_method	'MofGen! by Chris Wilmer'
_symmetry_space_group_name_H-M	'P1'
_symmetry_Int_Tables_number	1
_symmetry_cell_setting	triclinic
loop_
_symmetry_equiv_pos_as_xyz
  x,y,z
_cell_length_a	14.750488
_cell_length_b	16.109301
_cell_length_c	16.109301
_cell_angle_alpha	83.461481
_cell_angle_beta	77.358897
_cell_angle_gamma	102.645088
loop_
_atom_site_label
_atom_site_type_symbol
_atom_site_fract_x
_atom_site_fract_y
_atom_site_fract_z
O1	O	0.079774	-1.085086	-0.124900
O2	O	0.579774	-0.585086	0.375100
O3	O	0.079789	-0.843020	-0.138203
O4	O	0.579789	-0.343020	0.361797
O5	O	0.079771	-0.970705	-0.010518
O6	O	0.579771	-0.470705	0.489482
O7	O	0.079792	-0.957401	-0.252585
O8	O	0.579792	-0.457401	0.247415
O9	O	-0.079891	-1.006812	0.025578
O10	O	0.420109	-0.506812	0.525578
O11	O	-0.079873	-0.879127	-0.102107
O12	O	0.420127	-0.379127	0.397893
O13	O	-0.079889	-1.121193	-0.088804
O14	O	0.420111	-0.621193	0.411196
Zn15	Zn	-0.105231	-1.005893	-0.089725
Zn16	Zn	0.394769	-0.505893	0.410275
Zn17	Zn	0.105131	-0.958321	-0.137282
Zn18	Zn	0.605131	-0.458321	0.362718
O19	O	-0.079871	-0.993508	-0.216489
O20	O	0.420129	-0.493508	0.283511
C21	C	-0.000040	-0.830099	-0.119617
C22	C	0.499960	-0.330099	0.380383
C23	C	-0.000035	-0.737802	-0.118003
C24	C	0.499965	-0.237802	0.381997
N25	N	-0.248798	-1.038366	-0.057267
N26	N	0.251202	-0.538366	0.442733
C27	C	-0.399553	-1.129027	0.033329
C28	C	0.100447	-0.629027	0.533329
C29	C	-0.299046	-1.106275	0.010599
C30	C	0.200954	-0.606275	0.510599
C31	C	-0.299045	-0.993179	-0.102427
C32	C	0.200955	-0.493179	0.397573
C33	C	-0.399554	-1.015919	-0.079703
C34	C	0.100446	-0.515919	0.420297
C35	C	-0.449800	-1.083845	-0.011825
C36	C	0.050200	-0.583845	0.488175
C37	C	-0.449801	-0.970737	-0.124858
C38	C	0.050199	-0.470737	0.375142
C39	C	-0.550301	-0.993479	-0.102139
C40	C	-0.050301	-0.493479	0.397861
C41	C	-0.600554	-1.061403	-0.034265
C42	C	-0.100554	-0.561403	0.465735
C43	C	-0.550300	-1.106586	0.010894
C44	C	-0.050300	-0.606586	0.510894
C45	C	-0.399553	-0.902816	-0.192740
C46	C	0.100447	-0.402816	0.307260
C47	C	-0.449800	-0.857634	-0.237894
C48	C	0.050200	-0.357634	0.262106
C49	C	-0.550302	-0.880371	-0.215171
C50	C	-0.050302	-0.380371	0.284829
C51	C	-0.600555	-0.948295	-0.147298
C52	C	-0.100555	-0.448295	0.352702
C53	C	-0.600556	-0.835187	-0.260330
C54	C	-0.100556	-0.335187	0.239670
C55	C	-0.701056	-0.857929	-0.237611
C56	C	-0.201056	-0.357929	0.262389
C57	C	-0.701055	-0.971037	-0.124579
C58	C	-0.201055	-0.471037	0.375421
C59	C	-0.000061	-0.988220	0.038505
C60	C	0.499939	-0.488220	0.538505
C61	C	-0.000062	-0.986605	0.130800
C62	C	0.499938	-0.486605	0.630800
N63	N	0.248698	-0.925854	-0.169733
N64	N	0.748698	-0.425854	0.330267
C65	C	-0.000057	-1.134114	-0.107391
C66	C	0.499943	-0.634114	0.392609
C67	C	-0.000057	-1.226409	-0.109006
C68	C	0.499943	-0.726409	0.390994
C69	C	-0.000040	-0.515531	-0.190009
C70	C	0.499960	-0.015531	0.309991
C71	C	-0.000046	-0.428812	-0.188484
C72	C	0.499954	0.071188	0.311516
C73	C	-0.000055	-0.448688	-0.036993
C74	C	0.499945	0.051312	0.463007
C75	C	-0.000055	-0.535407	-0.038518
C76	C	0.499945	-0.035407	0.461482
C77	C	-0.000043	-0.568825	-0.115030
C78	C	0.499957	-0.068825	0.384970
C79	C	-0.000049	-0.395387	-0.111979
C80	C	0.499951	0.104613	0.388021
C81	C	-0.000055	-0.301362	-0.110325
C82	C	0.499945	0.198638	0.389675
C83	C	-0.000038	-0.662855	-0.116684
C84	C	0.499962	-0.162855	0.383316
C85	C	-0.000037	-0.975993	-0.265512
C86	C	0.499963	-0.475993	0.234488
C87	C	-0.000030	-0.977606	-0.357809
C88	C	0.499970	-0.477606	0.142191
C89	C	-0.000051	-1.058610	0.353070
C90	C	0.499949	-0.558610	0.853070
C91	C	-0.000043	-1.057085	0.439789
C92	C	0.499957	-0.557085	0.939789
C93	C	-0.000037	-0.905595	0.419913
C94	C	0.499963	-0.405595	0.919913
C95	C	-0.000038	-0.907120	0.333195
C96	C	0.499962	-0.407120	0.833195
C97	C	-0.000050	-0.983631	0.299777
C98	C	0.499950	-0.483631	0.799777
C99	C	-0.000041	-0.980580	0.473214
C100	C	0.499959	-0.480580	0.973214
C101	C	-0.000032	-0.978925	0.567238
C102	C	0.499968	-0.478925	1.067238
C103	C	-0.000057	-0.985286	0.205747
C104	C	0.499943	-0.485286	0.705747
H105	H	-0.741967	-1.026342	-0.069300
H106	H	-0.241967	-0.526342	0.430700
C107	C	-0.000056	-0.411922	0.047160
C108	C	0.499944	0.088078	0.547160
H109	H	-0.000045	-0.352640	0.037328
H110	H	0.499955	0.147360	0.537328
H111	H	-0.055734	-0.442809	0.090624
H112	H	0.444266	0.057191	0.590624
H113	H	0.055629	-0.417624	0.065436
H114	H	0.555629	0.082376	0.565436
H115	H	-0.000061	-0.578802	0.022544
H116	H	0.499939	-0.078802	0.522544
C117	C	-0.000053	-1.142767	0.316310
C118	C	0.499947	-0.642767	0.816310
H119	H	-0.000044	-1.187200	0.360471
H120	H	0.499956	-0.687200	0.860471
H121	H	-0.055731	-1.159107	0.295486
H122	H	0.444269	-0.659107	0.795486
H123	H	0.055632	-1.133913	0.270303
H124	H	0.555632	-0.633913	0.770303
C125	C	-0.000034	-0.552294	-0.274164
C126	C	0.499966	-0.052294	0.225836
H127	H	-0.000025	-0.611572	-0.264338
H128	H	0.499975	-0.111572	0.235662
H129	H	-0.055710	-0.546593	-0.292447
H130	H	0.444290	-0.046593	0.207553
H131	H	0.055653	-0.521402	-0.317625
H132	H	0.555653	-0.021402	0.182375
C133	C	-0.243769	-0.918462	-0.177084
C134	C	0.256231	-0.418462	0.322916
H135	H	-0.176718	-0.911384	-0.184145
H136	H	0.323282	-0.411384	0.315855
H137	H	-0.260232	-0.931187	-0.228857
H138	H	0.239768	-0.431187	0.271143
H139	H	-0.260249	-0.866709	-0.164296
H140	H	0.239751	-0.366709	0.335704
H141	H	-0.000029	-0.843302	0.447133
H142	H	0.499971	-0.343302	0.947133
H143	H	-0.000042	-1.118140	0.483177
H144	H	0.499958	-0.618140	0.983177
H145	H	-0.000035	-0.846058	0.289800
H146	H	0.499965	-0.346058	0.789800
H147	H	-0.591212	-1.161892	0.066173
H148	H	-0.091212	-0.661892	0.566173
C149	C	-0.711102	-1.086424	-0.009269
C150	C	-0.211102	-0.586424	0.490731
H151	H	-0.733828	-1.133352	0.037618
H152	H	-0.233828	-0.633352	0.537618
H153	H	-0.733850	-1.038442	0.007270
H154	H	-0.233850	-0.538442	0.507270
H155	H	-0.733829	-1.102932	-0.057278
H156	H	-0.233829	-0.602932	0.442722
H157	H	-0.000045	-0.385423	-0.249540
H158	H	0.499955	0.114577	0.250460
H159	H	-0.440465	-1.184333	0.088608
H160	H	0.059535	-0.684333	0.588608
H161	H	-0.317719	-0.884305	-0.211238
H162	H	0.182281	-0.384305	0.288762
H163	H	-0.408878	-0.802330	-0.293164
H164	H	0.091122	-0.302330	0.206836
H165	H	-0.258140	-1.143075	0.047374
H166	H	0.241860	-0.643075	0.547374
C167	C	-0.756332	-0.808200	-0.287248
C168	C	-0.256332	-0.308200	0.212752
H169	H	-0.712014	-0.764475	-0.330912
H170	H	-0.212014	-0.264475	0.169088
H171	H	-0.795548	-0.846938	-0.313014
H172	H	-0.295548	-0.346938	0.186986
H173	H	-0.795525	-0.782484	-0.248429
H174	H	-0.295525	-0.282484	0.251571
C175	C	-0.545278	-0.760477	-0.334993
C176	C	-0.045278	-0.260477	0.165007
H177	H	-0.478228	-0.753403	-0.342055
H178	H	0.021772	-0.253403	0.157945
H179	H	-0.561744	-0.773208	-0.386763
H180	H	-0.061744	-0.273208	0.113237
H181	H	-0.561752	-0.708720	-0.322213
H182	H	-0.061752	-0.208720	0.177787
