data_functionalizedCrystal
_audit_creation_method	'MofGen! by Chris Wilmer'
_symmetry_space_group_name_H-M	'P1'
_symmetry_Int_Tables_number	1
_symmetry_cell_setting	triclinic
loop_
_symmetry_equiv_pos_as_xyz
  x,y,z
_cell_length_a	16.109301
_cell_length_b	16.109301
_cell_length_c	14.586319
_cell_angle_alpha	89.994786
_cell_angle_beta	89.999213
_cell_angle_gamma	83.461481
loop_
_atom_site_label
_atom_site_type_symbol
_atom_site_fract_x
_atom_site_fract_y
_atom_site_fract_z
O1	O	-1.103131	-0.106866	0.076185
O2	O	-0.861069	-0.120165	0.076200
O3	O	-0.988749	0.007515	0.076183
O4	O	-0.975450	-0.234547	0.076203
O5	O	-0.988741	0.007517	-0.076298
O6	O	-0.861060	-0.120164	-0.076281
O7	O	-1.103122	-0.106864	-0.076295
Cu8	Cu	-0.982090	-0.113514	-0.090211
Cu9	Cu	-0.982101	-0.113516	0.090115
O10	O	-0.975441	-0.234545	-0.076278
C11	C	-0.830090	-0.119626	-0.000038
C12	C	-0.737794	-0.118011	-0.000033
C13	C	-0.988206	0.038491	-0.000058
C14	C	-0.986591	0.130786	-0.000059
C15	C	-1.134101	-0.107404	-0.000055
C16	C	-1.226397	-0.109019	-0.000054
N17	N	-0.982089	-0.113512	-0.217042
C18	C	-0.515522	-0.190018	-0.000038
C19	C	-0.428801	-0.188494	-0.000044
C20	C	-0.448676	-0.037006	-0.000052
C21	C	-0.535394	-0.038530	-0.000053
C22	C	-0.568815	-0.115039	-0.000041
C23	C	-0.395376	-0.111990	-0.000046
C24	C	-0.301350	-0.110337	-0.000053
C25	C	-0.662847	-0.116693	-0.000036
C26	C	-0.975984	-0.265521	-0.000035
C27	C	-0.977600	-0.357816	-0.000028
C28	C	-1.058599	0.353059	-0.000049
C29	C	-1.057075	0.439779	-0.000041
C30	C	-0.905586	0.419905	-0.000036
C31	C	-0.907111	0.333186	-0.000037
C32	C	-0.983620	0.299766	-0.000048
C33	C	-0.980571	0.473205	-0.000039
C34	C	-0.978918	0.567231	-0.000031
C35	C	-0.985273	0.205734	-0.000055
C36	C	-1.038644	-0.056994	-0.452057
C37	C	-1.038647	-0.056992	-0.548038
C38	C	-0.925547	-0.170032	-0.548032
C39	C	-0.925541	-0.170030	-0.452052
C40	C	-0.982095	-0.113511	-0.404067
C41	C	-0.982103	-0.113512	-0.596028
C42	C	-0.982105	-0.113510	-0.700095
C43	C	-0.982092	-0.113512	-0.299993
N44	N	-0.982109	-0.113511	0.216947
H45	H	-0.542730	-0.252317	-0.000035
H46	H	-0.385413	-0.249550	-0.000043
C47	C	-1.142756	0.316296	-0.000051
C48	C	-1.164637	0.259403	0.079127
C49	C	-1.248797	0.222643	0.079128
C50	C	-1.311077	0.242776	-0.000048
C51	C	-1.289198	0.299671	-0.079232
C52	C	-1.205038	0.336431	-0.079233
H53	H	-1.118532	0.244497	0.137743
H54	H	-1.264993	0.180526	0.137745
H55	H	-1.373377	0.215564	-0.000047
H56	H	-1.335302	0.314577	-0.137848
H57	H	-1.188842	0.378548	-0.137851
H58	H	-0.421454	0.025285	-0.000067
H59	H	-0.846050	0.289792	-0.000033
C60	C	-0.594024	0.043952	-0.000054
C61	C	-0.557267	0.128109	-0.000055
C62	C	-0.615897	0.210587	-0.000059
C63	C	-0.711284	0.208908	-0.000064
C64	C	-0.748046	0.124748	-0.000063
C65	C	-0.689416	0.042270	-0.000058
H66	H	-0.486652	0.129355	-0.000051
H67	H	-0.588683	0.272888	-0.000060
H68	H	-0.754685	0.269963	-0.000067
H69	H	-0.818662	0.123502	-0.000066
H70	H	-0.716631	-0.020031	-0.000058
C71	C	-1.139553	0.498402	-0.000045
C72	C	-1.223706	0.461637	-0.000056
C73	C	-1.306188	0.520259	-0.000057
C74	C	-1.304518	0.615648	-0.000048
C75	C	-1.220362	0.652418	-0.000038
C76	C	-1.137880	0.593795	-0.000036
H77	H	-1.224945	0.391020	-0.000062
H78	H	-1.368486	0.493039	-0.000065
H79	H	-1.365577	0.659044	-0.000050
H80	H	-1.219123	0.723034	-0.000032
H81	H	-1.075582	0.621015	-0.000029
C82	C	-0.821431	0.456673	-0.000027
C83	C	-0.799547	0.513564	-0.079205
C84	C	-0.715391	0.550332	-0.079197
C85	C	-0.653119	0.530208	-0.000012
C86	C	-0.675002	0.473314	0.079171
C87	C	-0.759158	0.436547	0.079164
H88	H	-0.845646	0.528463	-0.137827
H89	H	-0.699193	0.592448	-0.137814
H90	H	-0.590822	0.557426	-0.000006
H91	H	-0.628903	0.458415	0.137794
H92	H	-0.775356	0.394430	0.137781
C93	C	-0.863346	-0.232207	-0.600816
C94	C	-0.863393	-0.232263	-0.706390
C95	C	-0.801192	-0.294442	-0.759171
C96	C	-0.738944	-0.356565	-0.706378
C97	C	-0.738895	-0.356512	-0.600798
C98	C	-0.801096	-0.294333	-0.548018
H99	H	-0.909475	-0.186273	-0.745476
H100	H	-0.801229	-0.294481	-0.837328
H101	H	-0.692900	-0.402593	-0.745450
H102	H	-0.692813	-0.402501	-0.561713
H103	H	-0.801059	-0.294294	-0.469860
H104	H	-1.084693	-0.010972	-0.412989
C105	C	-1.100855	0.005176	-0.600827
C106	C	-1.163066	0.067335	-0.548043
C107	C	-1.225276	0.129506	-0.600833
C108	C	-1.225275	0.129519	-0.706406
C109	C	-1.163061	0.067358	-0.759196
C110	C	-1.100851	0.005187	-0.706407
H111	H	-1.163069	0.067327	-0.469886
H112	H	-1.271331	0.175522	-0.561753
H113	H	-1.271326	0.175542	-0.745484
H114	H	-1.163058	0.067366	-0.837354
H115	H	-1.054797	-0.040829	-0.745486
H116	H	-0.879487	-0.216053	-0.412977
