data_functionalizedCrystal
_audit_creation_method	'MofGen! by Chris Wilmer'
_symmetry_space_group_name_H-M	'P1'
_symmetry_Int_Tables_number	1
_symmetry_cell_setting	triclinic
loop_
_symmetry_equiv_pos_as_xyz
  x,y,z
_cell_length_a	23.532407
_cell_length_b	23.532407
_cell_length_c	22.610064
_cell_angle_alpha	90.002995
_cell_angle_beta	90.008651
_cell_angle_gamma	82.848678
loop_
_atom_site_label
_atom_site_type_symbol
_atom_site_fract_x
_atom_site_fract_y
_atom_site_fract_z
O1	O	0.755268	0.069128	0.049117
O2	O	1.088601	0.402462	0.382450
O3	O	1.421935	0.735795	0.715783
O4	O	0.589405	0.079132	0.049135
O5	O	0.922738	0.412465	0.382468
O6	O	1.256071	0.745798	0.715802
O7	O	0.677338	-0.008802	0.049114
O8	O	1.010671	0.324532	0.382448
O9	O	1.344005	0.657865	0.715781
O10	O	0.667335	0.157062	0.049137
O11	O	1.000668	0.490395	0.382471
O12	O	1.334001	0.823728	0.715804
O13	O	0.677313	-0.008792	-0.049255
O14	O	1.010647	0.324542	0.284079
O15	O	1.343980	0.657875	0.617412
O16	O	0.589380	0.079142	-0.049234
O17	O	0.922713	0.412475	0.284099
O18	O	1.256047	0.745808	0.617432
O19	O	0.755243	0.069138	-0.049252
O20	O	1.088577	0.402472	0.284081
O21	O	1.421910	0.735805	0.617414
Zn22	Zn	0.672308	0.074142	-0.064862
Zn23	Zn	1.005641	0.407475	0.268472
Zn24	Zn	1.338974	0.740808	0.601805
Zn25	Zn	0.672340	0.074128	0.064744
Zn26	Zn	1.005674	0.407462	0.398077
Zn27	Zn	1.339007	0.740795	0.731411
O28	O	0.667310	0.157072	-0.049232
O29	O	1.000643	0.490405	0.284101
O30	O	1.333977	0.823738	0.617435
C31	C	0.568176	0.078882	-0.000048
C32	C	0.901510	0.412215	0.333286
C33	C	1.234843	0.745549	0.666619
C34	C	0.504959	0.078116	-0.000041
C35	C	0.838293	0.411449	0.333292
C36	C	1.171626	0.744783	0.666626
C37	C	0.105856	0.125350	-0.000061
C38	C	0.439190	0.458683	0.333272
C39	C	0.772523	0.792016	0.666605
C40	C	0.046456	0.124638	-0.000065
C41	C	0.379789	0.457971	0.333268
C42	C	0.713123	0.791305	0.666602
O43	O	0.009711	0.168424	-0.000081
O44	O	0.343045	0.501757	0.333253
O45	O	0.676378	0.835091	0.666586
N46	N	0.023830	0.072362	-0.000071
N47	N	0.357163	0.405695	0.333262
N48	N	0.690496	0.739028	0.666595
C49	C	0.060607	0.020794	-0.000080
C50	C	0.393941	0.354127	0.333254
C51	C	0.727274	0.687460	0.666587
O52	O	0.035908	-0.023737	-0.000086
O53	O	0.369241	0.309596	0.333247
O54	O	0.702574	0.642930	0.666581
C55	C	0.120006	0.021506	-0.000080
C56	C	0.453340	0.354839	0.333253
C57	C	0.786673	0.688172	0.666586
C58	C	0.142629	0.073785	-0.000068
C59	C	0.475962	0.407119	0.333265
C60	C	0.809296	0.740452	0.666599
C61	C	0.128479	0.177625	-0.000050
C62	C	0.461813	0.510958	0.333284
C63	C	0.795146	0.844292	0.666617
C64	C	0.187876	0.178336	-0.000045
C65	C	0.521209	0.511670	0.333288
C66	C	0.854542	0.845003	0.666622
C67	C	0.224649	0.126772	-0.000052
C68	C	0.557982	0.460105	0.333282
C69	C	0.891315	0.793439	0.666615
C70	C	0.202025	0.074497	-0.000063
C71	C	0.535359	0.407830	0.333270
C72	C	0.868692	0.741163	0.666603
C73	C	0.156783	-0.030062	-0.000093
C74	C	0.490116	0.303271	0.333240
C75	C	0.823450	0.636605	0.666574
C76	C	0.216185	-0.029345	-0.000094
C77	C	0.549519	0.303988	0.333239
C78	C	0.882852	0.637321	0.666573
C79	C	0.238808	0.022934	-0.000082
C80	C	0.572141	0.356268	0.333252
C81	C	0.905475	0.689601	0.666585
C82	C	0.298194	0.023643	-0.000065
C83	C	0.631528	0.356977	0.333268
C84	C	0.964861	0.690310	0.666602
N85	N	0.320820	0.075920	-0.000059
N86	N	0.654154	0.409253	0.333274
N87	N	0.987487	0.742586	0.666608
C88	C	0.284048	0.127484	-0.000052
C89	C	0.617381	0.460817	0.333281
C90	C	0.950714	0.794151	0.666614
C91	C	-0.064135	0.019302	-0.000080
C92	C	0.269198	0.352635	0.333254
C93	C	0.602532	0.685969	0.666587
C94	C	-0.123533	0.018589	-0.000075
C95	C	0.209800	0.351923	0.333258
C96	C	0.543134	0.685256	0.666592
C97	C	-0.137680	0.122434	-0.000061
C98	C	0.195653	0.455768	0.333272
C99	C	0.528986	0.789101	0.666605
C100	C	-0.078281	0.123146	-0.000062
C101	C	0.255052	0.456480	0.333271
C102	C	0.588385	0.789813	0.666605
C103	C	-0.041509	0.071578	-0.000074
C104	C	0.291824	0.404912	0.333260
C105	C	0.625158	0.738245	0.666593
C106	C	0.408784	0.128974	-0.000042
C107	C	0.742118	0.462307	0.333292
C108	C	1.075451	0.795640	0.666625
C109	C	0.468186	0.129680	-0.000034
C110	C	0.801520	0.463014	0.333299
C111	C	1.134853	0.796347	0.666632
C112	C	0.482329	0.025836	-0.000051
C113	C	0.815662	0.359169	0.333282
C114	C	1.148995	0.692503	0.666616
C115	C	0.422932	0.025129	-0.000055
C116	C	0.756265	0.358462	0.333278
C117	C	1.089598	0.691796	0.666611
C118	C	0.386160	0.076702	-0.000052
C119	C	0.719494	0.410036	0.333281
C120	C	1.052827	0.743369	0.666614
O121	O	0.334974	-0.020119	-0.000052
O122	O	0.668307	0.313214	0.333281
O123	O	1.001640	0.646547	0.666615
O124	O	0.308755	0.172007	-0.000054
O125	O	0.642089	0.505340	0.333279
O126	O	0.975422	0.838674	0.666613
C127	C	0.677071	-0.030013	-0.000072
C128	C	1.010404	0.303321	0.333262
C129	C	1.343738	0.636654	0.666595
C130	C	0.676305	-0.093230	-0.000076
C131	C	1.009638	0.240104	0.333257
C132	C	1.342972	0.573437	0.666591
C133	C	0.723539	-0.492333	-0.000049
C134	C	1.056872	-0.158999	0.333284
C135	C	1.390205	0.174334	0.666618
C136	C	0.722827	-0.551733	-0.000044
C137	C	1.056160	-0.218400	0.333289
C138	C	1.389494	0.114934	0.666622
O139	O	0.766613	-0.588478	-0.000027
O140	O	1.099946	-0.255144	0.333306
O141	O	1.433280	0.078189	0.666639
N142	N	0.670551	-0.574359	-0.000039
N143	N	1.003884	-0.241026	0.333294
N144	N	1.337217	0.092307	0.666628
C145	C	0.618983	-0.537582	-0.000032
C146	C	0.952316	-0.204248	0.333301
C147	C	1.285649	0.129085	0.666634
O148	O	0.574452	-0.562281	-0.000027
O149	O	0.907785	-0.228948	0.333307
O150	O	1.241119	0.104385	0.666640
C151	C	0.619695	-0.478182	-0.000033
C152	C	0.953028	-0.144849	0.333301
C153	C	1.286361	0.188484	0.666634
C154	C	0.671974	-0.455560	-0.000044
C155	C	1.005308	-0.122227	0.333289
C156	C	1.338641	0.211107	0.666623
C157	C	0.775814	-0.469710	-0.000060
C158	C	1.109147	-0.136376	0.333274
C159	C	1.442481	0.196957	0.666607
C160	C	0.776525	-0.410313	-0.000065
C161	C	1.109859	-0.076980	0.333268
C162	C	1.443192	0.256353	0.666601
C163	C	0.724961	-0.373540	-0.000060
C164	C	1.058294	-0.040207	0.333273
C165	C	1.391628	0.293126	0.666606
C166	C	0.672685	-0.396164	-0.000050
C167	C	1.006019	-0.062830	0.333284
C168	C	1.339352	0.270503	0.666617
C169	C	0.568127	-0.441406	-0.000022
C170	C	0.901460	-0.108073	0.333312
C171	C	1.234794	0.225261	0.666645
C172	C	0.568844	-0.382004	-0.000021
C173	C	0.902177	-0.048670	0.333312
C174	C	1.235510	0.284663	0.666645
C175	C	0.621123	-0.359381	-0.000033
C176	C	0.954457	-0.026048	0.333301
C177	C	1.287790	0.307286	0.666634
C178	C	0.621832	-0.299995	-0.000050
C179	C	0.955166	0.033339	0.333283
C180	C	1.288499	0.366672	0.666616
N181	N	0.674109	-0.277368	-0.000056
N182	N	1.007442	0.055965	0.333278
N183	N	1.340775	0.389298	0.666611
C184	C	0.725673	-0.314141	-0.000061
C185	C	1.059006	0.019192	0.333273
C186	C	1.392340	0.352525	0.666606
C187	C	0.617491	-0.662324	-0.000031
C188	C	0.950824	-0.328991	0.333303
C189	C	1.284158	0.004343	0.666636
C190	C	0.616778	-0.721722	-0.000034
C191	C	0.950112	-0.388389	0.333299
C192	C	1.283445	-0.055055	0.666632
C193	C	0.720623	-0.735869	-0.000045
C194	C	1.053957	-0.402536	0.333288
C195	C	1.387290	-0.069203	0.666621
C196	C	0.721335	-0.676470	-0.000046
C197	C	1.054669	-0.343137	0.333288
C198	C	1.388002	-0.009804	0.666621
C199	C	0.669767	-0.639698	-0.000036
C200	C	1.003101	-0.306365	0.333298
C201	C	1.336434	0.026969	0.666631
C202	C	0.727163	-0.189405	-0.000073
C203	C	1.060496	0.143929	0.333260
C204	C	1.393829	0.477262	0.666594
C205	C	0.727869	-0.130003	-0.000081
C206	C	1.061203	0.203331	0.333252
C207	C	1.394536	0.536664	0.666586
C208	C	0.624025	-0.115860	-0.000067
C209	C	0.957358	0.217473	0.333266
C210	C	1.290691	0.550806	0.666600
C211	C	0.623318	-0.175257	-0.000062
C212	C	0.956651	0.158076	0.333271
C213	C	1.289985	0.491409	0.666605
C214	C	0.674891	-0.212029	-0.000063
C215	C	1.008225	0.121305	0.333270
C216	C	1.341558	0.454638	0.666604
O217	O	0.578070	-0.263215	-0.000065
O218	O	0.911403	0.070118	0.333268
O219	O	1.244736	0.403451	0.666602
O220	O	0.770196	-0.289433	-0.000058
O221	O	1.103529	0.043900	0.333275
O222	O	1.436863	0.377233	0.666608
C223	C	0.776472	0.069388	-0.000069
C224	C	1.109805	0.402722	0.333265
C225	C	1.443138	0.736055	0.666598
C226	C	0.839689	0.070154	-0.000071
C227	C	1.173022	0.403487	0.333262
C228	C	1.506355	0.736821	0.666595
C229	C	0.667577	0.178283	-0.000045
C230	C	1.000910	0.511616	0.333289
C231	C	1.334244	0.844949	0.666622
C232	C	0.668343	0.241500	-0.000036
C233	C	1.001676	0.574833	0.333297
C234	C	1.335010	0.908167	0.666630
N235	N	0.672290	0.074150	-0.153314
N236	N	1.005623	0.407484	0.180019
N237	N	1.338956	0.740817	0.513353
C238	C	0.637982	0.039758	-0.438156
C239	C	0.971315	0.373091	-0.104823
C240	C	1.304649	0.706425	0.228510
C241	C	0.637977	0.039761	-0.376236
C242	C	0.971310	0.373094	-0.042903
C243	C	1.304643	0.706427	0.290430
O244	O	0.608784	0.010521	-0.344213
O245	O	0.942117	0.343854	-0.010879
O246	O	1.275450	0.677188	0.322454
N247	N	0.672313	0.074132	-0.345266
N248	N	1.005647	0.407465	-0.011933
N249	N	1.338980	0.740799	0.321400
C250	C	0.706662	0.108498	-0.376219
C251	C	1.039995	0.441832	-0.042886
C252	C	1.373329	0.775165	0.290447
O253	O	0.735868	0.137734	-0.344191
O254	O	1.069201	0.471067	-0.010858
O255	O	1.402535	0.804400	0.322475
C256	C	0.706670	0.108492	-0.438138
C257	C	1.040004	0.441826	-0.104805
C258	C	1.373337	0.775159	0.228528
C259	C	0.672327	0.074123	-0.469105
C260	C	1.005660	0.407456	-0.135772
C261	C	1.338994	0.740790	0.197562
C262	C	0.603642	0.005391	-0.469123
C263	C	0.936975	0.338724	-0.135790
C264	C	1.270309	0.672058	0.197543
C265	C	0.603647	0.005389	-0.531039
C266	C	0.936980	0.338723	-0.197706
C267	C	1.270314	0.672056	0.135628
C268	C	0.637992	0.039754	-0.561988
C269	C	0.971325	0.373088	-0.228654
C270	C	1.304658	0.706421	0.104679
C271	C	0.672332	0.074121	-0.531021
C272	C	1.005665	0.407455	-0.197687
C273	C	1.338998	0.740788	0.135646
C274	C	0.741022	0.142855	-0.469090
C275	C	1.074355	0.476188	-0.135757
C276	C	1.407688	0.809522	0.197577
C277	C	0.741027	0.142846	-0.531013
C278	C	1.074361	0.476179	-0.197680
C279	C	1.407694	0.809512	0.135654
C280	C	0.706684	0.108476	-0.561980
C281	C	1.040017	0.441810	-0.228647
C282	C	1.373351	0.775143	0.104687
C283	C	0.706681	0.108484	-0.623885
C284	C	1.040015	0.441818	-0.290552
C285	C	1.373348	0.775151	0.042782
N286	N	0.672345	0.074113	-0.654855
N287	N	1.005678	0.407446	-0.321522
N288	N	1.339011	0.740780	0.011812
C289	C	0.638000	0.039748	-0.623906
C290	C	0.971333	0.373081	-0.290573
C291	C	1.304667	0.706415	0.042760
C292	C	0.706643	0.108508	-0.246186
C293	C	1.039977	0.441841	0.087148
C294	C	1.373310	0.775175	0.420481
C295	C	0.706632	0.108518	-0.184268
C296	C	1.039966	0.441851	0.149065
C297	C	1.373299	0.775185	0.482398
C298	C	0.637948	0.039779	-0.184289
C299	C	0.971281	0.373113	0.149044
C300	C	1.304614	0.706446	0.482377
C301	C	0.637956	0.039773	-0.246208
C302	C	0.971289	0.373106	0.087125
C303	C	1.304622	0.706440	0.420458
C304	C	0.672307	0.074137	-0.277156
C305	C	1.005640	0.407470	0.056177
C306	C	1.338973	0.740804	0.389511
C307	C	0.638012	0.039747	-0.753934
C308	C	0.971345	0.373081	-0.420600
C309	C	1.304679	0.706414	-0.087267
C310	C	0.638018	0.039750	-0.815855
C311	C	0.971352	0.373084	-0.482521
C312	C	1.304685	0.706417	-0.149188
C313	C	0.706705	0.108486	-0.815828
C314	C	1.040038	0.441820	-0.482495
C315	C	1.373372	0.775153	-0.149161
C316	C	0.706697	0.108486	-0.753912
C317	C	1.040030	0.441819	-0.420579
C318	C	1.373364	0.775153	-0.087246
C319	C	0.672349	0.074112	-0.722967
C320	C	1.005682	0.407445	-0.389633
C321	C	1.339016	0.740778	-0.056300
O322	O	0.735861	0.137707	-0.655948
O323	O	1.069195	0.471041	-0.322615
O324	O	1.402528	0.804374	0.010719
O325	O	0.608804	0.010512	-0.655942
O326	O	0.942138	0.343845	-0.322609
O327	O	1.275471	0.677179	0.010725
N328	N	0.672363	0.074115	0.153196
N329	N	1.005696	0.407449	0.486530
N330	N	1.339030	0.740782	0.819863
H331	H	0.098544	0.219617	-0.000046
H332	H	0.431877	0.552951	0.333287
H333	H	0.765211	0.886284	0.666620
H334	H	0.378851	0.170970	-0.000041
H335	H	0.712185	0.504303	0.333292
H336	H	1.045518	0.837637	0.666625
H337	H	0.609990	0.011787	-0.271417
H338	H	0.943324	0.345120	0.061916
H339	H	1.276657	0.678453	0.395249
H340	H	0.734654	0.136480	-0.728698
H341	H	1.067987	0.469814	-0.395365
H342	H	1.401320	0.803147	-0.062031
H343	H	0.575496	-0.632386	-0.000028
H344	H	0.908829	-0.299053	0.333306
H345	H	1.242162	0.034280	0.666639
H346	H	0.609982	0.011797	-0.159080
H347	H	0.943315	0.345131	0.174254
H348	H	1.276649	0.678464	0.507587
C349	C	0.832540	-0.510151	-0.000070
C350	C	1.165873	-0.176818	0.333264
C351	C	1.499207	0.156515	0.666597
H352	H	0.863770	-0.488162	-0.000081
H353	H	1.197103	-0.154829	0.333253
H354	H	1.530437	0.178505	0.666586
H355	H	0.834440	-0.533620	0.034231
H356	H	1.167773	-0.200287	0.367564
H357	H	1.501106	0.133046	0.700898
H358	H	0.834412	-0.533614	-0.034380
H359	H	1.167746	-0.200281	0.298953
H360	H	1.501079	0.133053	0.632286
C361	C	-0.148412	-0.038918	-0.000083
C362	C	0.184922	0.294415	0.333251
C363	C	0.518255	0.627749	0.666584
H364	H	-0.117999	-0.069523	-0.000090
H365	H	0.215334	0.263811	0.333243
H366	H	0.548668	0.597144	0.666577
H367	H	-0.171286	-0.041362	0.034218
H368	H	0.162047	0.291972	0.367551
H369	H	0.495380	0.625305	0.700885
H370	H	-0.171290	-0.041352	-0.034393
H371	H	0.162043	0.291981	0.298940
H372	H	0.495377	0.625315	0.632273
H373	H	0.525555	-0.459814	-0.000009
H374	H	0.858889	-0.126481	0.333325
H375	H	1.192222	0.206852	0.666658
C376	C	0.783892	-0.229845	-0.000079
C377	C	1.117225	0.103489	0.333254
C378	C	1.450559	0.436822	0.666588
H379	H	0.815123	-0.207856	-0.000092
H380	H	1.148457	0.125477	0.333242
H381	H	1.481790	0.458810	0.666575
H382	H	0.785790	-0.253310	0.034224
H383	H	1.119123	0.080024	0.367558
H384	H	1.452456	0.413357	0.700891
H385	H	0.785765	-0.253311	-0.034387
H386	H	1.119098	0.080023	0.298946
H387	H	1.452431	0.413356	0.632280
H388	H	0.246123	-0.071339	-0.000104
H389	H	0.579457	0.261994	0.333229
H390	H	0.912790	0.595327	0.666563
H391	H	0.582043	-0.085909	-0.000065
H392	H	0.915376	0.247424	0.333268
H393	H	1.248709	0.580757	0.666602
C394	C	0.212753	0.235844	-0.000043
C395	C	0.546086	0.569178	0.333290
C396	C	0.879420	0.902511	0.666624
H397	H	0.182339	0.266448	-0.000047
H398	H	0.515672	0.599781	0.333287
H399	H	0.849005	0.933114	0.666620
H400	H	0.235637	0.238287	0.034258
H401	H	0.568970	0.571620	0.367592
H402	H	0.902303	0.904953	0.700925
H403	H	0.235622	0.238282	-0.034353
H404	H	0.568955	0.571616	0.298980
H405	H	0.902288	0.904949	0.632314
C406	C	0.744407	0.146327	-0.150211
C407	C	1.077740	0.479661	0.183122
C408	C	1.411073	0.812994	0.516455
H409	H	0.764863	0.166788	-0.177517
H410	H	1.098196	0.500122	0.155817
H411	H	1.431530	0.833455	0.489150
H412	H	0.720922	0.172659	-0.126060
H413	H	1.054255	0.505993	0.207273
H414	H	1.387588	0.839326	0.540606
H415	H	0.770752	0.122853	-0.126053
H416	H	1.104085	0.456187	0.207280
H417	H	1.437418	0.789520	0.540613
C418	C	0.778842	-0.651591	-0.000053
C419	C	1.112175	-0.318257	0.333281
C420	C	1.445509	0.015076	0.666614
H421	H	0.809447	-0.682003	-0.000052
H422	H	1.142780	-0.348670	0.333281
H423	H	1.476114	-0.015337	0.666614
H424	H	0.781273	-0.628712	-0.034355
H425	H	1.114607	-0.295379	0.298979
H426	H	1.447940	0.037954	0.632312
H427	H	0.781289	-0.628716	0.034257
H428	H	1.114622	-0.295382	0.367590
H429	H	1.447956	0.037951	0.700923
C430	C	-0.053402	0.180653	-0.000054
C431	C	0.279932	0.513986	0.333280
C432	C	0.613265	0.847320	0.666613
H433	H	-0.083814	0.211258	-0.000052
H434	H	0.249519	0.544591	0.333281
H435	H	0.582852	0.877925	0.666614
H436	H	-0.030517	0.183089	0.034248
H437	H	0.302816	0.516422	0.367582
H438	H	0.636150	0.849756	0.700915
H439	H	-0.030533	0.183095	-0.034363
H440	H	0.302800	0.516428	0.298970
H441	H	0.636134	0.849762	0.632304
C442	C	-0.178136	0.179156	-0.000058
C443	C	0.155198	0.512489	0.333275
C444	C	0.488531	0.845823	0.666608
H445	H	-0.156159	0.210396	-0.000049
H446	H	0.177175	0.543729	0.333284
H447	H	0.510508	0.877062	0.666617
H448	H	-0.201606	0.181036	-0.034362
H449	H	0.131728	0.514370	0.298971
H450	H	0.465061	0.847703	0.632304
H451	H	-0.201596	0.181031	0.034249
H452	H	0.131737	0.514364	0.367582
H453	H	0.465070	0.847698	0.700916
H454	H	-0.034198	-0.022693	-0.000084
H455	H	0.299136	0.310640	0.333249
H456	H	0.632469	0.643973	0.666583
H457	H	0.768989	0.170841	-0.443888
H458	H	1.102322	0.504174	-0.110554
H459	H	1.435656	0.837508	0.222779
H460	H	0.486602	0.172255	-0.000024
H461	H	0.819935	0.505588	0.333309
H462	H	1.153269	0.838921	0.666643
C463	C	0.131911	-0.087571	-0.000114
C464	C	0.465244	0.245763	0.333219
C465	C	0.798578	0.579096	0.666552
H466	H	0.162326	-0.118173	-0.000127
H467	H	0.495659	0.215160	0.333206
H468	H	0.828993	0.548494	0.666539
H469	H	0.109037	-0.090023	0.034185
H470	H	0.442370	0.243310	0.367518
H471	H	0.775703	0.576644	0.700852
H472	H	0.109033	-0.090000	-0.034426
H473	H	0.442367	0.243333	0.298907
H474	H	0.775700	0.576666	0.632240
C475	C	0.834033	-0.385436	-0.000066
C476	C	1.167367	-0.052103	0.333267
C477	C	1.500700	0.281231	0.666600
H478	H	0.864637	-0.415850	-0.000062
H479	H	1.197970	-0.082517	0.333272
H480	H	1.531303	0.250816	0.666605
H481	H	0.836470	-0.362559	-0.034368
H482	H	1.169804	-0.029225	0.298965
H483	H	1.503137	0.304108	0.632298
H484	H	0.836477	-0.362561	0.034243
H485	H	1.169810	-0.029227	0.367576
H486	H	1.503143	0.304106	0.700910
C487	C	0.778810	0.180650	-0.565052
C488	C	1.112144	0.513984	-0.231719
C489	C	1.445477	0.847317	0.101615
H490	H	0.799257	0.201121	-0.537737
H491	H	1.132590	0.534455	-0.204404
H492	H	1.465923	0.867788	0.128929
H493	H	0.805155	0.157181	-0.589202
H494	H	1.138489	0.490514	-0.255869
H495	H	1.471822	0.823847	0.077464
H496	H	0.755322	0.206983	-0.589209
H497	H	1.088655	0.540316	-0.255876
H498	H	1.421989	0.873650	0.077457
H499	H	0.404512	-0.017441	-0.000056
H500	H	0.737845	0.315892	0.333277
H501	H	1.071178	0.649225	0.666610
C502	C	0.600241	0.001943	-0.849918
C503	C	0.933574	0.335276	-0.516584
C504	C	1.266908	0.668610	-0.183251
H505	H	0.605156	0.006865	-0.891228
H506	H	0.938490	0.340198	-0.557894
H507	H	1.271823	0.673532	-0.224561
H508	H	0.611043	-0.037078	-0.839768
H509	H	0.944377	0.296255	-0.506435
H510	H	1.277710	0.629589	-0.173101
H511	H	0.561213	0.012727	-0.839777
H512	H	0.894546	0.346061	-0.506444
H513	H	1.227880	0.679394	-0.173110
C514	C	0.512117	-0.341557	-0.000013
C515	C	0.845451	-0.008224	0.333320
C516	C	1.178784	0.325110	0.666654
H517	H	0.480883	-0.363542	-0.000010
H518	H	0.814217	-0.030208	0.333323
H519	H	1.147550	0.303125	0.666656
H520	H	0.510244	-0.318087	0.034288
H521	H	0.843578	0.015246	0.367622
H522	H	1.176911	0.348579	0.700955
H523	H	0.510225	-0.318096	-0.034323
H524	H	0.843558	0.015238	0.299010
H525	H	1.176892	0.348571	0.632344
H526	H	0.512280	-0.016146	-0.000054
H527	H	0.845613	0.317187	0.333279
H528	H	1.178946	0.650520	0.666612
C529	C	0.785379	-0.105121	-0.000090
C530	C	1.118712	0.228212	0.333243
C531	C	1.452046	0.561546	0.666577
H532	H	0.815986	-0.135532	-0.000086
H533	H	1.149319	0.197801	0.333248
H534	H	1.482652	0.531134	0.666581
H535	H	0.787810	-0.082247	-0.034395
H536	H	1.121143	0.251087	0.298938
H537	H	1.454477	0.584420	0.632272
H538	H	0.787824	-0.082242	0.034216
H539	H	1.121157	0.251091	0.367550
H540	H	1.454490	0.584425	0.700883
H541	H	0.580748	-0.193677	-0.000069
H542	H	0.914081	0.139656	0.333264
H543	H	1.247414	0.472989	0.666597
H544	H	0.610043	0.011757	-0.728745
H545	H	0.943376	0.345090	-0.395412
H546	H	1.276709	0.678423	-0.062078
H547	H	0.734614	0.136497	-0.271380
H548	H	1.067947	0.469830	0.061954
H549	H	1.401280	0.803163	0.395287
C550	C	0.777344	-0.776327	-0.000040
C551	C	1.110677	-0.442994	0.333294
C552	C	1.444010	-0.109660	0.666627
H553	H	0.769428	-0.814942	-0.000030
H554	H	1.102761	-0.481608	0.333303
H555	H	1.436094	-0.148275	0.666637
H556	H	0.798793	-0.769509	-0.034343
H557	H	1.132126	-0.436175	0.298990
H558	H	1.465460	-0.102842	0.632324
H559	H	0.798797	-0.769497	0.034268
H560	H	1.132130	-0.436163	0.367602
H561	H	1.465463	-0.102830	0.700935
H562	H	0.574207	-0.740136	-0.000035
H563	H	0.907540	-0.406802	0.333298
H564	H	1.240874	-0.073469	0.666631
C565	C	0.565875	-0.032421	-0.565097
C566	C	0.899208	0.300912	-0.231764
C567	C	1.232542	0.634246	0.101569
H568	H	0.570790	-0.027504	-0.606408
H569	H	0.904123	0.305829	-0.273075
H570	H	1.237456	0.639163	0.060258
H571	H	0.576680	-0.071440	-0.554942
H572	H	0.910014	0.261893	-0.221608
H573	H	1.243347	0.595227	0.111725
H574	H	0.526846	-0.021638	-0.554957
H575	H	0.860180	0.311696	-0.221624
H576	H	1.193513	0.645029	0.111709
C577	C	0.565856	-0.032410	-0.435089
C578	C	0.899189	0.300923	-0.101756
C579	C	1.232523	0.634257	0.231578
H580	H	0.545406	-0.052872	-0.462408
H581	H	0.878739	0.280461	-0.129075
H582	H	1.212072	0.613795	0.204258
H583	H	0.589331	-0.058742	-0.410924
H584	H	0.922664	0.274592	-0.077591
H585	H	1.255998	0.607925	0.255743
H586	H	0.539505	-0.008932	-0.410947
H587	H	0.872839	0.324402	-0.077614
H588	H	1.206172	0.657735	0.255720
C589	C	0.744485	0.146281	-0.849880
C590	C	1.077818	0.479615	-0.516546
C591	C	1.411152	0.812948	-0.183213
H592	H	0.739572	0.141349	-0.891190
H593	H	1.072905	0.474682	-0.557857
H594	H	1.406238	0.808016	-0.224524
H595	H	0.733688	0.185306	-0.839740
H596	H	1.067021	0.518639	-0.506407
H597	H	1.400354	0.851972	-0.173073
H598	H	0.783511	0.135493	-0.839723
H599	H	1.116845	0.468827	-0.506390
H600	H	1.450178	0.802160	-0.173056
