data_functionalizedCrystal
_audit_creation_method	'MofGen! by Chris Wilmer'
_symmetry_space_group_name_H-M	'P1'
_symmetry_Int_Tables_number	1
_symmetry_cell_setting	triclinic
loop_
_symmetry_equiv_pos_as_xyz
  x,y,z
_cell_length_a	21.606444
_cell_length_b	21.606444
_cell_length_c	21.606444
_cell_angle_alpha	60.001331
_cell_angle_beta	90.000833
_cell_angle_gamma	59.999875
loop_
_atom_site_label
_atom_site_type_symbol
_atom_site_fract_x
_atom_site_fract_y
_atom_site_fract_z
Zr1	Zr	0.596210	0.677477	-0.081222
O2	O	0.497381	0.806595	-0.180041
O3	O	0.626507	0.548358	-0.050932
O4	O	0.626499	0.677482	-0.180050
O5	O	0.497394	0.677467	0.050931
O6	O	0.728349	0.677487	-0.180054
O7	O	0.497389	0.677471	-0.050923
O8	O	0.728363	0.446508	0.050915
O9	O	0.497380	0.908446	-0.180038
O10	O	0.715437	0.601470	-0.038013
O11	O	0.639431	0.601463	0.038003
O12	O	0.639422	0.753490	-0.114018
O13	O	0.563417	0.753484	-0.038002
Zr14	Zr	0.758657	0.677477	0.081217
Zr15	Zr	0.758648	0.677484	-0.081228
Zr16	Zr	0.596218	0.677470	0.081223
Zr17	Zr	0.596208	0.839917	-0.081217
Zr18	Zr	0.758658	0.515036	0.081212
O19	O	0.728359	0.806595	0.050927
O20	O	0.728348	0.806605	-0.180050
O21	O	0.497393	0.806585	0.050935
O22	O	0.857486	0.548358	0.180036
O23	O	0.857474	0.548368	-0.050940
O24	O	0.626519	0.548348	0.180045
O25	O	0.857473	0.677487	-0.050936
O26	O	0.728367	0.677471	0.180045
O27	O	0.626518	0.677467	0.180049
O28	O	0.857478	0.677482	0.050918
O29	O	0.626497	0.908451	-0.180043
O30	O	0.728370	0.446502	0.180038
O31	O	0.857487	0.446508	0.180033
O32	O	0.857480	0.446513	0.050910
O33	O	0.497386	0.908440	-0.050916
O34	O	0.626503	0.908446	-0.050920
O35	O	0.715445	0.601463	0.114012
O36	O	0.791450	0.601470	0.037997
O37	O	0.715435	0.753490	-0.038008
O38	O	0.639430	0.753484	0.038008
C39	C	0.677435	0.474289	-0.000009
C40	C	0.677436	0.405329	-0.000011
C41	C	0.717109	0.372934	-0.039692
C42	C	0.717111	0.308134	-0.039687
C43	C	0.677437	0.275734	-0.000005
C44	C	0.637763	0.308131	0.039680
C45	C	0.637765	0.372925	0.039679
C46	C	0.637754	0.046822	0.039686
C47	C	0.637753	-0.017975	0.039683
C48	C	0.717100	-0.017969	-0.039679
C49	C	0.717102	0.046825	-0.039680
C50	C	0.677432	0.079213	0.000008
C51	C	0.677431	0.149475	0.000003
C52	C	0.677433	0.205477	-0.000004
C53	C	0.474247	0.677468	0.000005
C54	C	0.405288	0.677465	0.000007
C55	C	0.412568	0.598113	0.039678
C56	C	0.347770	0.598115	0.039679
C57	C	0.275694	0.677471	0.000004
C58	C	0.268416	0.756829	-0.039668
C59	C	0.333212	0.756826	-0.039664
C60	C	0.007098	0.756844	-0.039685
C61	C	-0.057700	0.756842	-0.039688
C62	C	0.021656	0.598134	0.039658
C63	C	0.086452	0.598130	0.039662
C64	C	0.079169	0.677488	-0.000007
C65	C	0.149430	0.677485	-0.000006
C66	C	0.205434	0.677475	-0.000002
C67	C	0.880619	0.677485	-0.000010
C68	C	0.949579	0.677488	-0.000012
C69	C	0.677423	0.677485	-0.203197
C70	C	0.677419	0.677488	-0.272160
C71	C	0.677431	0.880665	0.000004
C72	C	0.677430	0.949625	0.000006
C73	C	0.637740	0.756841	-0.344232
C74	C	0.637747	0.756838	-0.409027
C75	C	0.677429	0.677483	-0.401748
C76	C	0.717113	0.598124	-0.329668
C77	C	0.717110	0.598127	-0.264874
C78	C	0.717125	0.598109	-0.590971
C79	C	0.717122	0.598112	-0.655771
C80	C	0.637761	0.756820	-0.735123
C81	C	0.637759	0.756823	-0.670330
C82	C	0.677446	0.677465	-0.598256
C83	C	0.677440	0.677469	-0.527998
C84	C	0.677431	0.677478	-0.472004
C85	C	0.677444	0.677468	0.203192
C86	C	0.677447	0.677465	0.272154
C87	C	0.880621	0.474297	-0.000017
C88	C	0.949581	0.405340	-0.000021
C89	C	0.677446	0.474280	0.203185
C90	C	0.677450	0.405317	0.272146
C91	C	0.880632	0.474289	0.203178
C92	C	0.949595	0.405329	0.272136
C93	C	0.474235	0.880665	-0.203183
C94	C	0.405271	0.949625	-0.272141
C95	C	0.474245	0.880656	0.000011
C96	C	0.405285	0.949613	0.000016
C97	C	0.677421	0.880673	-0.203191
C98	C	0.677417	0.949637	-0.272151
C99	C	0.942288	0.372957	-0.039707
C100	C	1.007077	0.308174	-0.039726
C101	C	1.079159	0.275770	-0.000056
C102	C	1.086451	0.308159	0.039631
C103	C	1.021663	0.372946	0.039646
C104	C	0.717130	0.372931	0.344213
C105	C	0.717131	0.308142	0.409015
C106	C	0.677456	0.275735	0.401747
C107	C	0.637771	0.308128	0.329672
C108	C	0.637766	0.372920	0.264872
C109	C	1.021662	0.372948	0.264840
C110	C	1.086467	0.308161	0.329627
C111	C	1.079203	0.275753	0.401709
C112	C	1.007129	0.308140	0.409003
C113	C	0.942326	0.372930	0.344217
C114	C	0.333204	0.982014	-0.264845
C115	C	0.268399	1.046820	-0.329632
C116	C	0.275663	1.079232	-0.401714
C117	C	0.347738	1.046841	-0.409008
C118	C	0.412541	0.982040	-0.344222
C119	C	0.412579	0.982003	0.039695
C120	C	0.347790	1.046804	0.039696
C121	C	0.275707	1.079211	0.000024
C122	C	0.268415	1.046818	-0.039660
C123	C	0.333204	0.982022	-0.039666
C124	C	0.717099	0.982023	-0.264859
C125	C	0.717110	1.046812	-0.329648
C126	C	0.677433	1.079219	-0.401728
C127	C	0.637749	1.046827	-0.409019
C128	C	0.637744	0.982034	-0.344230
H129	H	0.749412	0.399314	-0.072009
H130	H	1.001125	0.281810	-0.072044
H131	H	0.471266	0.955623	0.072006
C132	C	0.594121	0.408532	0.185602
H133	H	0.570502	0.379942	0.190561
H134	H	0.556570	0.469705	0.158667
H135	H	0.628372	0.397900	0.158677
H136	H	0.749439	0.533487	-0.649836
H137	H	0.353704	0.533498	0.071984
H138	H	0.209726	0.821442	-0.071968
C139	C	1.150420	0.204498	-0.000070
H140	H	1.135745	0.189850	-0.029382
H141	H	1.179737	0.225727	-0.021313
H142	H	1.179732	0.153934	0.050482
H143	H	0.749416	0.281759	-0.071997
H144	H	1.145149	0.281766	0.071929
H145	H	0.327254	0.955652	-0.071975
C146	C	1.029663	0.408591	0.185556
H147	H	0.980751	0.451812	0.148009
H148	H	1.056581	0.433873	0.179874
H149	H	1.056589	0.362072	0.179871
H150	H	1.145147	0.281798	0.323674
H151	H	0.209717	1.073213	-0.071961
H152	H	0.749409	0.955647	-0.206173
C153	C	0.325203	0.946373	-0.185561
H154	H	0.374115	0.903134	-0.148015
H155	H	0.298286	0.992888	-0.179876
H156	H	0.298277	0.921096	-0.179879
H157	H	1.027612	0.399304	0.071967
C158	C	0.760754	1.082442	-0.321615
H159	H	0.784369	1.053871	-0.269406
H160	H	0.798309	1.071823	-0.345232
H161	H	0.726500	1.143618	-0.345240
H162	H	0.605442	0.821443	-0.676264
H163	H	0.749438	0.399309	0.350145
C164	C	0.594142	0.272465	0.321687
H165	H	0.599842	0.229231	0.370605
H166	H	0.541938	0.318965	0.294769
H167	H	0.613748	0.247174	0.294773
C168	C	1.150491	0.204479	0.472967
H169	H	1.194450	0.189833	0.458291
H170	H	1.150507	0.225705	0.502287
H171	H	1.150503	0.153914	0.502276
H172	H	1.001226	0.281743	0.467701
H173	H	0.883648	0.399286	0.350168
C174	C	0.677439	1.150496	-0.472989
H175	H	0.706751	1.165145	-0.458316
H176	H	0.698680	1.129271	-0.502310
H177	H	0.626885	1.201058	-0.502296
C178	C	0.594127	-0.053632	0.083352
H179	H	0.570510	-0.025073	0.106998
H180	H	0.556574	-0.043020	0.049117
H181	H	0.628393	-0.114809	0.120894
C182	C	0.760794	0.272515	0.488287
H183	H	0.784431	0.301086	0.483329
H184	H	0.726557	0.283136	0.515222
H185	H	0.798345	0.211338	0.515211
H186	H	0.883601	0.399340	-0.072020
H187	H	0.749427	0.533511	-0.323745
H188	H	0.001157	0.821463	-0.072000
C189	C	0.189128	1.082432	-0.321594
H190	H	0.194089	1.053832	-0.269385
H191	H	0.162195	1.143602	-0.345206
H192	H	0.162199	1.071811	-0.345223
C193	C	0.594077	0.946427	-0.352257
H194	H	0.599751	0.903196	-0.303352
H195	H	0.541880	0.992957	-0.379182
H196	H	0.613669	0.921149	-0.379183
C197	C	0.760747	0.082459	-0.083327
H198	H	0.784382	0.053879	-0.106953
H199	H	0.726502	0.143632	-0.120872
H200	H	0.798299	0.071830	-0.049072
H201	H	0.353643	1.073239	-0.467705
C202	C	0.204375	1.150500	-0.472972
H203	H	0.160417	1.165134	-0.458296
H204	H	0.204355	1.201064	-0.502293
H205	H	0.204367	1.129253	-0.502280
C206	C	0.760745	-0.053601	-0.083331
H207	H	0.784366	-0.025017	-0.106970
H208	H	0.798295	-0.114774	-0.049088
H209	H	0.726490	-0.042976	-0.120878
C210	C	0.594111	0.082449	0.083333
H211	H	0.570475	0.053878	0.106957
H212	H	0.628357	0.071829	0.120880
H213	H	0.556559	0.143625	0.049082
H214	H	0.605446	1.073222	-0.467715
H215	H	0.605437	0.821455	-0.467709
C216	C	0.491811	0.946408	-0.352257
H217	H	0.486848	0.974990	-0.404467
H218	H	0.518753	0.957016	-0.328633
H219	H	0.518730	0.885234	-0.328642
C220	C	0.677468	0.204462	0.473029
H221	H	0.648153	0.189799	0.458385
H222	H	0.728023	0.153914	0.502338
H223	H	0.656223	0.225711	0.502338
H224	H	0.605464	0.281741	0.071994
C225	C	0.355824	1.082416	0.083358
H226	H	0.408034	1.053821	0.106994
H227	H	0.332207	1.143588	0.049122
H228	H	0.332199	1.071790	0.120909
C229	C	0.204447	1.150482	0.000038
H230	H	0.219121	1.165121	0.029359
H231	H	0.175128	1.201043	-0.050508
H232	H	0.175136	1.129240	0.021292
C233	C	0.594123	0.408566	0.083322
H234	H	0.599811	0.451790	0.077644
H235	H	0.541922	0.433844	0.063732
H236	H	0.613724	0.362046	0.135525
H237	H	0.145137	0.533511	0.071967
C238	C	0.029670	0.510838	0.083302
H239	H	0.081876	0.463578	0.106924
H240	H	0.006045	0.507533	0.120850
H241	H	0.006042	0.507543	0.049047
C242	C	0.325205	0.844113	-0.083305
H243	H	0.273000	0.891376	-0.106941
H244	H	0.348833	0.847410	-0.049056
H245	H	0.348832	0.847412	-0.120855
C246	C	-0.136987	0.844135	-0.083327
H247	H	-0.174532	0.832767	-0.077652
H248	H	-0.142672	0.876735	-0.063726
H249	H	-0.142673	0.876747	-0.135530
H250	H	0.605421	0.821462	-0.350168
C251	C	0.760770	0.510819	-0.511699
H252	H	0.784395	0.463560	-0.516647
H253	H	0.798318	0.507516	-0.484770
H254	H	0.726517	0.507521	-0.484776
C255	C	0.760754	0.510840	-0.185595
H256	H	0.784382	0.463578	-0.190538
H257	H	0.798299	0.507543	-0.158668
H258	H	0.726501	0.507542	-0.158671
H259	H	0.471252	0.533492	0.071990
C260	C	0.594113	0.844113	-0.814406
H261	H	0.599803	0.832751	-0.851955
H262	H	0.541913	0.876717	-0.820091
H263	H	0.613709	0.876720	-0.820087
