data_functionalizedCrystal
_audit_creation_method	'MofGen! by Chris Wilmer'
_symmetry_space_group_name_H-M	'P1'
_symmetry_Int_Tables_number	1
_symmetry_cell_setting	triclinic
loop_
_symmetry_equiv_pos_as_xyz
  x,y,z
_cell_length_a	19.805407
_cell_length_b	17.640280
_cell_length_c	19.805399
_cell_angle_alpha	78.776044
_cell_angle_beta	89.983114
_cell_angle_gamma	78.800112
loop_
_atom_site_label
_atom_site_type_symbol
_atom_site_fract_x
_atom_site_fract_y
_atom_site_fract_z
Zn1	Zn	1.089264	-0.314670	-0.328319
Zn2	Zn	1.589264	0.185330	0.171681
Zn3	Zn	1.112096	-0.446848	-0.192280
Zn4	Zn	1.612096	0.053152	0.307720
Zn5	Zn	0.976088	-0.314695	-0.215139
Zn6	Zn	1.476088	0.185305	0.284861
Zn7	Zn	0.998946	-0.446803	-0.305434
Zn8	Zn	1.498946	0.053197	0.194566
O9	O	1.044098	-0.380754	-0.260293
O10	O	1.544098	0.119246	0.239707
O11	O	1.187010	-0.332212	-0.310284
O12	O	1.687010	0.167788	0.189716
O13	O	1.094043	-0.429347	-0.100590
O14	O	1.594043	0.070653	0.399410
O15	O	0.971979	-0.204088	-0.249297
O16	O	1.471979	0.295912	0.250703
O17	O	1.203785	-0.429323	-0.210336
O18	O	1.703785	0.070677	0.289664
O19	O	1.055129	-0.204069	-0.332450
O20	O	1.555129	0.295931	0.167550
O21	O	0.994119	-0.332255	-0.117385
O22	O	1.494119	0.167745	0.382615
O23	O	0.884402	-0.332211	-0.227106
O24	O	1.384402	0.167789	0.272894
O25	O	1.010938	-0.429246	-0.403192
O26	O	1.510938	0.070754	0.096808
O27	O	0.901196	-0.429270	-0.293446
O28	O	1.401196	0.070730	0.206554
O29	O	1.077294	-0.332168	-0.420005
O30	O	1.577294	0.167832	0.079995
O31	O	1.116208	-0.557446	-0.188146
O32	O	1.616208	-0.057446	0.311854
O33	O	1.033077	-0.557413	-0.271280
O34	O	1.533077	-0.057413	0.228720
C35	C	0.868240	-0.380739	-0.260274
C36	C	1.368240	0.119261	0.239726
C37	C	0.793010	-0.380751	-0.260278
C38	C	1.293010	0.119249	0.239722
C39	C	0.766441	-0.431366	-0.294738
C40	C	1.266441	0.068634	0.205262
C41	C	0.695753	-0.431367	-0.294747
C42	C	1.195753	0.068633	0.205253
C43	C	0.651635	-0.380758	-0.260292
C44	C	1.151635	0.119242	0.239708
C45	C	0.678208	-0.330137	-0.225832
C46	C	1.178208	0.169863	0.274168
C47	C	0.748894	-0.330133	-0.225827
C48	C	1.248894	0.169867	0.274173
C49	C	0.393138	-0.330155	-0.225851
C50	C	0.893138	0.169845	0.274149
C51	C	0.322447	-0.330165	-0.225857
C52	C	0.822447	0.169835	0.274143
C53	C	0.339996	-0.431390	-0.294771
C54	C	0.839996	0.068610	0.205229
C55	C	0.410683	-0.431385	-0.294767
C56	C	0.910683	0.068615	0.205233
C57	C	0.437249	-0.380762	-0.260309
C58	C	0.937249	0.119238	0.239691
C59	C	0.513897	-0.380760	-0.260301
C60	C	1.013897	0.119240	0.239699
C61	C	0.574989	-0.380763	-0.260296
C62	C	1.074989	0.119237	0.239704
C63	C	1.079619	-0.586108	-0.224764
C64	C	1.579619	-0.086108	0.275236
C65	C	1.094876	-0.673959	-0.209587
C66	C	1.594876	-0.173959	0.290413
C67	C	0.928465	-0.962942	-0.375837
C68	C	1.428465	-0.462942	0.124163
C69	C	0.942803	-1.045492	-0.361554
C70	C	1.442803	-0.545492	0.138446
C71	C	1.029421	-1.045461	-0.275074
C72	C	1.529421	-0.545461	0.224926
C73	C	1.015092	-0.962910	-0.289352
C74	C	1.515092	-0.462910	0.210648
C75	C	0.964613	-0.921657	-0.339734
C76	C	1.464613	-0.421657	0.160266
C77	C	1.051240	-0.921624	-0.253249
C78	C	1.551240	-0.421624	0.246751
C79	C	1.036910	-0.839080	-0.267523
C80	C	1.536910	-0.339080	0.232477
C81	C	0.986431	-0.797821	-0.317901
C82	C	1.486431	-0.297821	0.182099
C83	C	0.950282	-0.839113	-0.354008
C84	C	1.450282	-0.339113	0.145992
C85	C	1.101716	-0.962879	-0.202864
C86	C	1.601716	-0.462879	0.297136
C87	C	1.137864	-0.921593	-0.166761
C88	C	1.637864	-0.421593	0.333239
C89	C	1.123537	-0.839048	-0.181038
C90	C	1.623537	-0.339048	0.318962
C91	C	1.073059	-0.797789	-0.231416
C92	C	1.573059	-0.297789	0.268584
C93	C	1.159686	-0.797756	-0.144931
C94	C	1.659686	-0.297756	0.355069
C95	C	1.145356	-0.715212	-0.159205
C96	C	1.645356	-0.215212	0.340795
C97	C	1.058728	-0.715245	-0.245690
C98	C	1.558728	-0.215245	0.254310
C99	C	1.220644	-0.380770	-0.260313
C100	C	1.720644	0.119230	0.239687
C101	C	1.295877	-0.380776	-0.260321
C102	C	1.795877	0.119224	0.239679
C103	C	1.044118	-0.380699	-0.436845
C104	C	1.544118	0.119301	0.063155
C105	C	1.044127	-0.380676	-0.512081
C106	C	1.544127	0.119324	-0.012081
C107	C	1.008457	-0.174598	-0.295976
C108	C	1.508457	0.325402	0.204024
C109	C	0.993270	-0.086747	-0.311182
C110	C	1.493270	0.413253	0.188818
C111	C	0.992108	-0.330115	-0.556171
C112	C	1.492108	0.169885	-0.056171
C113	C	0.992115	-0.330100	-0.626862
C114	C	1.492115	0.169900	-0.126862
C115	C	1.044144	-0.380642	-0.653463
C116	C	1.544144	0.119358	-0.153463
C117	C	1.096166	-0.431208	-0.609367
C118	C	1.596166	0.068792	-0.109367
C119	C	1.096156	-0.431227	-0.538677
C120	C	1.596156	0.068773	-0.038677
C121	C	1.096207	-0.431134	-0.894454
C122	C	1.596207	0.068866	-0.394454
C123	C	1.096214	-0.431109	-0.965150
C124	C	1.596214	0.068891	-0.465150
C125	C	0.992165	-0.330007	-0.982639
C126	C	1.492165	0.169993	-0.482639
C127	C	0.992155	-0.330026	-0.911948
C128	C	1.492155	0.169974	-0.411948
C129	C	1.044175	-0.380595	-0.867859
C130	C	1.544175	0.119405	-0.367859
C131	C	1.044166	-0.380612	-0.791207
C132	C	1.544166	0.119388	-0.291207
C133	C	1.044156	-0.380621	-0.730114
C134	C	1.544156	0.119379	-0.230114
C135	C	1.044107	-0.380752	-0.084437
C136	C	1.544107	0.119248	0.415563
C137	C	1.044191	-0.380552	-0.009240
C138	C	1.544191	0.119448	0.490760
H139	H	0.770524	-0.288913	-0.197771
H140	H	1.270524	0.211087	0.302229
H141	H	0.674125	-0.472584	-0.322807
H142	H	1.174125	0.027416	0.177193
H143	H	1.070519	-1.079061	-0.234052
H144	H	1.570519	-0.579061	0.265948
N145	N	1.152313	-0.485661	-0.846900
N146	N	1.652313	0.014339	-0.346900
H147	H	1.131134	-0.522295	-0.811228
H148	H	1.631134	-0.022295	-0.311228
H149	H	1.185261	-0.517622	-0.874527
H150	H	1.685261	-0.017622	-0.374527
H151	H	1.138584	-0.472270	-0.986805
H152	H	1.638584	0.027730	-0.486805
H153	H	0.949790	-0.288867	-0.890295
H154	H	1.449790	0.211133	-0.390295
H155	H	0.446601	-0.472599	-0.322820
H156	H	0.946601	0.027401	0.177180
N157	N	0.311343	-0.485991	-0.331939
N158	N	0.811343	0.014009	0.168061
H159	H	0.259869	-0.478316	-0.326717
H160	H	0.759869	0.021684	0.173283
H161	H	0.321604	-0.473766	-0.382410
H162	H	0.821604	0.026234	0.117590
H163	H	0.286527	-0.288948	-0.197800
H164	H	0.786527	0.211052	0.302200
N165	N	1.152278	-0.485731	-0.638053
N166	N	1.652278	0.014269	-0.138053
H167	H	1.144392	-0.478048	-0.689525
H168	H	1.644392	0.021952	-0.189525
H169	H	1.198493	-0.473443	-0.627830
H170	H	1.698493	0.026557	-0.127830
N171	N	0.936048	-0.275474	-1.030191
N172	N	1.436048	0.224526	-0.530191
H173	H	0.889810	-0.287751	-1.015751
H174	H	1.389810	0.212249	-0.515751
H175	H	0.936858	-0.219028	-1.027648
H176	H	1.436858	0.280972	-0.527648
H177	H	0.414760	-0.288941	-0.197788
H178	H	0.914760	0.211059	0.302212
H179	H	0.974760	-0.730609	-0.329517
H180	H	1.474760	-0.230609	0.170483
H181	H	0.642281	-0.288927	-0.197781
H182	H	1.142281	0.211073	0.302219
N183	N	1.152260	-0.485764	-0.491121
N184	N	1.652260	0.014236	0.008879
H185	H	1.185222	-0.517778	-0.518700
H186	H	1.685222	-0.017778	-0.018700
H187	H	1.178020	-0.453606	-0.467361
H188	H	1.678020	0.046394	0.032639
N189	N	1.004288	-0.670734	-0.300033
N190	N	1.504288	-0.170734	0.199967
H191	H	1.017258	-0.685060	-0.345927
H192	H	1.517258	-0.185060	0.154073
H193	H	0.958455	-0.685161	-0.286928
H194	H	1.458455	-0.185161	0.213072
N195	N	0.903810	-1.090023	-0.400496
N196	N	1.403810	-0.590023	0.099504
H197	H	0.869659	-1.051361	-0.434576
H198	H	1.369659	-0.551361	0.065424
H199	H	0.937279	-1.124230	-0.425931
H200	H	1.437279	-0.624230	0.074069
N201	N	0.895845	-0.794609	-0.408356
N202	N	1.395845	-0.294609	0.091644
H203	H	0.875121	-0.833287	-0.429068
H204	H	1.375121	-0.333287	0.070932
H205	H	0.858601	-0.760402	-0.386692
H206	H	1.358601	-0.260402	0.113308
H207	H	0.887364	-0.929352	-0.416868
H208	H	1.387364	-0.429352	0.083132
N209	N	1.117169	-1.051909	-0.187466
N210	N	1.617169	-0.551909	0.312534
H211	H	1.133030	-1.071757	-0.230475
H212	H	1.633030	-0.571757	0.269525
H213	H	1.154611	-1.071715	-0.150049
H214	H	1.654611	-0.571715	0.349951
H215	H	0.802358	-0.472581	-0.322792
H216	H	1.302358	0.027419	0.177208
N217	N	1.192299	-0.966089	-0.112415
N218	N	1.692299	-0.466089	0.387585
H219	H	1.195891	-1.024646	-0.108847
H220	H	1.695891	-0.524646	0.391153
H221	H	1.238121	-0.951616	-0.125497
H222	H	1.738121	-0.451616	0.374503
N223	N	0.936007	-0.275570	-0.674416
N224	N	1.436007	0.224430	-0.174416
H225	H	0.903047	-0.243552	-0.646838
H226	H	1.403047	0.256448	-0.146838
H227	H	0.957239	-0.238989	-0.710083
H228	H	1.457239	0.261011	-0.210083
H229	H	1.200781	-0.831357	-0.103906
H230	H	1.700781	-0.331357	0.396094
H231	H	0.949743	-0.288954	-0.534519
H232	H	1.449743	0.211046	-0.034519
H233	H	1.174791	-0.681597	-0.129805
H234	H	1.674791	-0.181597	0.370195
