data_functionalizedCrystal
_audit_creation_method	'MofGen! by Chris Wilmer'
_symmetry_space_group_name_H-M	'P1'
_symmetry_Int_Tables_number	1
_symmetry_cell_setting	triclinic
loop_
_symmetry_equiv_pos_as_xyz
  x,y,z
_cell_length_a	16.109293
_cell_length_b	16.109301
_cell_length_c	14.586319
_cell_angle_alpha	90.003802
_cell_angle_beta	89.993082
_cell_angle_gamma	96.540073
loop_
_atom_site_label
_atom_site_type_symbol
_atom_site_fract_x
_atom_site_fract_y
_atom_site_fract_z
O1	O	-1.103135	0.106835	0.076313
O2	O	-0.861072	0.120141	0.076299
O3	O	-0.988753	-0.007543	0.076300
O4	O	-0.975454	0.234519	0.076311
O5	O	-0.988744	-0.007545	-0.076181
O6	O	-0.861063	0.120139	-0.076182
O7	O	-1.103126	0.106833	-0.076168
Cu8	Cu	-0.982094	0.113486	-0.090098
Cu9	Cu	-0.982104	0.113488	0.090228
O10	O	-0.975445	0.234517	-0.076169
C11	C	-0.830093	0.119602	0.000056
C12	C	-0.737797	0.117990	0.000051
C13	C	-0.525450	0.114260	-0.083063
C14	C	-0.438730	0.112736	-0.083063
C15	C	-0.438750	0.112742	0.083180
C16	C	-0.525470	0.114261	0.083179
C17	C	-0.568817	0.115024	0.000054
C18	C	-0.395377	0.111981	0.000056
C19	C	-0.301351	0.110329	0.000058
C20	C	-0.662849	0.116675	0.000052
C21	C	-0.988210	-0.038519	0.000060
C22	C	-0.986595	-0.130814	0.000061
C23	C	-1.057078	-0.439814	0.000081
C24	C	-1.058603	-0.353094	0.000076
C25	C	-0.907114	-0.333217	0.000055
C26	C	-0.905590	-0.419935	0.000054
C27	C	-0.980574	-0.473232	0.000071
C28	C	-0.983624	-0.299793	0.000067
C29	C	-0.985277	-0.205767	0.000062
C30	C	-0.978921	-0.567264	0.000075
C31	C	-0.134105	0.107380	0.000069
C32	C	-0.226397	0.109015	0.000059
C33	C	-0.975988	0.265493	0.000073
C34	C	-0.977603	0.357788	0.000078
N35	N	-0.982093	0.113484	-0.216930
C36	C	-1.038648	0.056964	-0.451935
C37	C	-1.038651	0.056962	-0.547917
C38	C	-0.925550	0.170006	-0.547927
C39	C	-0.925545	0.170003	-0.451948
C40	C	-0.982098	0.113484	-0.403954
C41	C	-0.982106	0.113484	-0.595915
C42	C	-0.982109	0.113482	-0.699982
C43	C	-0.982095	0.113484	-0.299881
N44	N	-0.982112	0.113484	0.217060
H45	H	-0.403446	0.112122	0.150857
O46	O	-0.572253	0.115087	0.172830
H47	H	-0.527542	0.114314	0.230632
H48	H	-0.403425	0.112115	-0.150745
H49	H	-1.118135	-0.483207	0.000096
O50	O	-0.572201	0.115084	-0.172718
H51	H	-0.619144	0.059148	-0.176699
H52	H	-1.120901	-0.325890	0.000082
H53	H	-0.879491	0.216029	-0.412879
O54	O	-0.864566	0.230972	-0.599697
H55	H	-0.875142	0.295785	-0.581256
H56	H	-0.846065	-0.289812	0.000043
H57	H	-1.084698	0.010938	-0.586980
O58	O	-0.823071	-0.455989	0.000042
H59	H	-0.771186	-0.404361	0.000043
O60	O	-1.099633	-0.004002	-0.400166
H61	H	-1.138949	-0.043310	-0.449660
