data_functionalizedCrystal
_audit_creation_method	'MofGen! by Chris Wilmer'
_symmetry_space_group_name_H-M	'P1'
_symmetry_Int_Tables_number	1
_symmetry_cell_setting	triclinic
loop_
_symmetry_equiv_pos_as_xyz
  x,y,z
_cell_length_a	16.959455
_cell_length_b	16.959453
_cell_length_c	16.959447
_cell_angle_alpha	89.968936
_cell_angle_beta	89.979626
_cell_angle_gamma	90.017008
loop_
_atom_site_label
_atom_site_type_symbol
_atom_site_fract_x
_atom_site_fract_y
_atom_site_fract_z
Zn1	Zn	1.208384	-0.314729	-0.447032
Zn2	Zn	1.541718	0.018605	-0.113699
Zn3	Zn	1.875051	0.351938	0.219634
Zn4	Zn	1.208307	-0.446921	-0.314852
Zn5	Zn	1.541640	-0.113588	0.018481
Zn6	Zn	1.874974	0.219745	0.351815
Zn7	Zn	1.076213	-0.314754	-0.314856
Zn8	Zn	1.409546	0.018580	0.018478
Zn9	Zn	1.742879	0.351913	0.351811
Zn10	Zn	1.076178	-0.446862	-0.446977
Zn11	Zn	1.409511	-0.113529	-0.113643
Zn12	Zn	1.742844	0.219804	0.219690
O13	O	1.142270	-0.380816	-0.380929
O14	O	1.475604	-0.047483	-0.047596
O15	O	1.808937	0.285850	0.285738
O16	O	1.318985	-0.332279	-0.429520
O17	O	1.652318	0.001055	-0.096187
O18	O	1.985652	0.334388	0.237147
O19	O	1.190767	-0.429424	-0.204242
O20	O	1.524100	-0.096091	0.129092
O21	O	1.857433	0.237243	0.462425
O22	O	1.093793	-0.204140	-0.332414
O23	O	1.427126	0.129194	0.000919
O24	O	1.760459	0.462527	0.334253
O25	O	1.318928	-0.429400	-0.332408
O26	O	1.652261	-0.096066	0.000926
O27	O	1.985595	0.237267	0.334259
O28	O	1.190899	-0.204121	-0.429524
O29	O	1.524232	0.129212	-0.096190
O30	O	1.857565	0.462545	0.237143
O31	O	1.093718	-0.332321	-0.204244
O32	O	1.427051	0.001012	0.129089
O33	O	1.760384	0.334346	0.462422
O34	O	0.965597	-0.332264	-0.332360
O35	O	1.298931	0.001069	0.000973
O36	O	1.632264	0.334403	0.334306
O37	O	1.093733	-0.429299	-0.557595
O38	O	1.427066	-0.095966	-0.224262
O39	O	1.760399	0.237367	0.109072
O40	O	0.965571	-0.429324	-0.429429
O41	O	1.298905	-0.095990	-0.096095
O42	O	1.632238	0.237343	0.237238
O43	O	1.190864	-0.332221	-0.557636
O44	O	1.524198	0.001112	-0.224302
O45	O	1.857531	0.334445	0.109031
O46	O	1.190733	-0.557524	-0.332354
O47	O	1.524066	-0.224191	0.000980
O48	O	1.857399	0.109142	0.334313
O49	O	1.093658	-0.557481	-0.429425
O50	O	1.426991	-0.224148	-0.096092
O51	O	1.760324	0.109186	0.237242
C52	C	0.936904	-0.380791	-0.380889
C53	C	1.270237	-0.047457	-0.047556
C54	C	1.603571	0.285876	0.285777
C55	C	0.849048	-0.380799	-0.380891
C56	C	1.182381	-0.047465	-0.047558
C57	C	1.515714	0.285868	0.285776
C58	C	0.477532	-0.431337	-0.330337
C59	C	0.810865	-0.098004	0.002996
C60	C	1.144198	0.235329	0.336330
C61	C	0.477612	-0.330361	-0.431617
C62	C	0.810946	0.002972	-0.098284
C63	C	1.144279	0.336305	0.235049
C64	C	0.560158	-0.330348	-0.431598
C65	C	0.893491	0.002985	-0.098265
C66	C	1.226825	0.336319	0.235068
C67	C	0.601395	-0.380831	-0.380948
C68	C	0.934728	-0.047498	-0.047615
C69	C	1.268061	0.285835	0.285718
C70	C	0.560085	-0.431328	-0.330318
C71	C	0.893419	-0.097994	0.003015
C72	C	1.226752	0.235339	0.336349
C73	C	0.601474	-0.279859	-0.482234
C74	C	0.934807	0.053475	-0.148900
C75	C	1.268140	0.386808	0.184433
C76	C	0.684025	-0.279844	-0.482217
C77	C	1.017358	0.053489	-0.148884
C78	C	1.350691	0.386823	0.184450
C79	C	0.725263	-0.330324	-0.431563
C80	C	1.058596	0.003009	-0.098229
C81	C	1.391929	0.336343	0.235104
C82	C	0.683948	-0.380822	-0.380929
C83	C	1.017281	-0.047488	-0.047596
C84	C	1.350615	0.285845	0.285737
C85	C	0.725185	-0.431305	-0.330280
C86	C	1.058518	-0.097971	0.003054
C87	C	1.391851	0.235362	0.336387
C88	C	0.683872	-0.481799	-0.279642
C89	C	1.017205	-0.148466	0.053692
C90	C	1.350538	0.184868	0.387025
C91	C	0.601323	-0.481807	-0.279663
C92	C	0.934657	-0.148474	0.053670
C93	C	1.267990	0.184859	0.387003
C94	C	0.807811	-0.330315	-0.431541
C95	C	1.141144	0.003018	-0.098208
C96	C	1.474478	0.336351	0.235126
C97	C	0.807738	-0.431295	-0.330260
C98	C	1.141072	-0.097962	0.003073
C99	C	1.474405	0.235372	0.336406
C100	C	1.142205	-0.586183	-0.380900
C101	C	1.475538	-0.252849	-0.047567
C102	C	1.808871	0.080484	0.285766
C103	C	1.142249	-0.674039	-0.380914
C104	C	1.475582	-0.340706	-0.047581
C105	C	1.808915	-0.007373	0.285752
C106	C	1.192898	-1.045447	-0.431589
C107	C	1.526231	-0.712113	-0.098256
C108	C	1.859565	-0.378780	0.235077
C109	C	1.091863	-1.045583	-0.330386
C110	C	1.425197	-0.712250	0.002947
C111	C	1.758530	-0.378916	0.336280
C112	C	1.091834	-0.963037	-0.330368
C113	C	1.425167	-0.629704	0.002965
C114	C	1.758501	-0.296370	0.336299
C115	C	1.142337	-0.921692	-0.380962
C116	C	1.475670	-0.588359	-0.047629
C117	C	1.809003	-0.255026	0.285704
C118	C	1.192869	-0.962893	-0.431575
C119	C	1.526202	-0.629560	-0.098241
C120	C	1.859535	-0.296227	0.235092
C121	C	1.041297	-0.921830	-0.279762
C122	C	1.374631	-0.588496	0.053571
C123	C	1.707964	-0.255163	0.386904
C124	C	1.041265	-0.839279	-0.279743
C125	C	1.374599	-0.505946	0.053591
C126	C	1.707932	-0.172612	0.386924
C127	C	1.091773	-0.797933	-0.330334
C128	C	1.425106	-0.464599	0.003000
C129	C	1.758439	-0.131266	0.336333
C130	C	1.142307	-0.839139	-0.380947
C131	C	1.475641	-0.505805	-0.047614
C132	C	1.808974	-0.172472	0.285719
C133	C	1.192810	-0.797794	-0.431541
C134	C	1.526143	-0.464461	-0.098208
C135	C	1.859477	-0.131127	0.235125
C136	C	1.243349	-0.838999	-0.482152
C137	C	1.576683	-0.505665	-0.148819
C138	C	1.910016	-0.172332	0.184515
C139	C	1.243376	-0.921547	-0.482165
C140	C	1.576709	-0.588214	-0.148832
C141	C	1.910043	-0.254880	0.184501
C142	C	1.091746	-0.715384	-0.330320
C143	C	1.425079	-0.382051	0.003013
C144	C	1.758413	-0.048717	0.336347
C145	C	1.192781	-0.715240	-0.431527
C146	C	1.526114	-0.381907	-0.098193
C147	C	1.859447	-0.048574	0.235140
C148	C	1.348439	-0.380843	-0.380970
C149	C	1.681772	-0.047510	-0.047636
C150	C	2.015105	0.285824	0.285697
C151	C	1.436295	-0.380854	-0.380987
C152	C	1.769629	-0.047521	-0.047653
C153	C	2.102962	0.285812	0.285680
C154	C	1.142303	-0.380751	-0.587097
C155	C	1.475637	-0.047418	-0.253764
C156	C	1.808970	0.285916	0.079569
C157	C	1.142317	-0.380723	-0.674954
C158	C	1.475651	-0.047390	-0.341621
C159	C	1.808984	0.285943	-0.008287
C160	C	1.142358	-0.174648	-0.380976
C161	C	1.475691	0.158685	-0.047642
C162	C	1.809025	0.492018	0.285691
C163	C	1.142395	-0.086792	-0.380995
C164	C	1.475729	0.246542	-0.047662
C165	C	1.809062	0.579875	0.285671
C166	C	1.091840	-0.431184	-1.046411
C167	C	1.425173	-0.097850	-0.713078
C168	C	1.758506	0.235483	-0.379744
C169	C	1.192984	-0.330096	-1.046449
C170	C	1.526317	0.003237	-0.713115
C171	C	1.859651	0.336571	-0.379782
C172	C	1.192963	-0.330113	-0.963903
C173	C	1.526296	0.003221	-0.630570
C174	C	1.859629	0.336554	-0.297236
C175	C	1.142380	-0.380667	-0.922607
C176	C	1.475714	-0.047333	-0.589274
C177	C	1.809047	0.286000	-0.255941
C178	C	1.091819	-0.431204	-0.963858
C179	C	1.425152	-0.097870	-0.630524
C180	C	1.758485	0.235463	-0.297191
C181	C	1.243529	-0.279582	-0.922646
C182	C	1.576862	0.053751	-0.589313
C183	C	1.910196	0.387085	-0.255980
C184	C	1.243511	-0.279597	-0.840095
C185	C	1.576844	0.053736	-0.506762
C186	C	1.910177	0.387069	-0.173429
C187	C	1.192923	-0.330148	-0.798798
C188	C	1.526257	0.003185	-0.465465
C189	C	1.859590	0.336519	-0.132132
C190	C	1.142359	-0.380686	-0.840054
C191	C	1.475693	-0.047353	-0.506720
C192	C	1.809026	0.285980	-0.173387
C193	C	1.091777	-0.431240	-0.798758
C194	C	1.425110	-0.097907	-0.465425
C195	C	1.758443	0.235426	-0.132091
C196	C	1.041208	-0.481776	-0.840012
C197	C	1.374541	-0.148442	-0.506679
C198	C	1.707875	0.184891	-0.173345
C199	C	1.041232	-0.481754	-0.922560
C200	C	1.374565	-0.148421	-0.589227
C201	C	1.707898	0.184912	-0.255894
C202	C	1.192900	-0.330169	-0.716250
C203	C	1.526233	0.003164	-0.382916
C204	C	1.859567	0.336497	-0.049583
C205	C	1.091756	-0.431260	-0.716204
C206	C	1.425089	-0.097927	-0.382871
C207	C	1.758422	0.235406	-0.049538
C208	C	1.142283	-0.380825	-0.175563
C209	C	1.475616	-0.047491	0.157770
C210	C	1.808950	0.285842	0.491104
C211	C	1.142422	-0.380630	-0.087707
C212	C	1.475756	-0.047297	0.245627
C213	C	1.809089	0.286037	0.578960
H214	H	0.567893	-0.238763	-0.523475
H215	H	0.901226	0.094570	-0.190142
H216	H	1.234559	0.427904	0.143192
H217	H	1.284465	-0.805326	-0.523350
H218	H	1.617799	-0.471993	-0.190016
H219	H	1.951132	-0.138659	0.143317
H220	H	1.284522	-0.955103	-0.523370
H221	H	1.617855	-0.621770	-0.190037
H222	H	1.951188	-0.288437	0.143296
F223	F	0.557350	-0.535543	-0.225777
F224	F	0.890683	-0.202210	0.107556
F225	F	1.224017	0.131123	0.440889
H226	H	1.000179	-0.955499	-0.238574
H227	H	1.333512	-0.622165	0.094760
H228	H	1.666845	-0.288832	0.428093
F229	F	1.297364	-0.225788	-0.966600
F230	F	1.630697	0.107545	-0.633266
F231	F	1.964031	0.440878	-0.299933
H232	H	0.841307	-0.472402	-0.289012
H233	H	1.174641	-0.139069	0.044321
H234	H	1.507974	0.194264	0.377655
H235	H	1.234170	-0.288941	-1.080077
H236	H	1.567504	0.044392	-0.746743
H237	H	1.900837	0.377725	-0.413410
H238	H	0.717655	-0.238728	-0.523449
H239	H	1.050988	0.094605	-0.190116
H240	H	1.384321	0.427938	0.143218
F241	F	1.246685	-1.089299	-0.485447
F242	F	1.580019	-0.755966	-0.152114
F243	F	1.913352	-0.422632	0.181219
H244	H	0.443891	-0.472446	-0.289107
H245	H	0.777224	-0.139113	0.044227
H246	H	1.110558	0.194220	0.377560
F247	F	1.038109	-1.089587	-0.276553
F248	F	1.371442	-0.756254	0.056780
F249	F	1.704775	-0.422920	0.390113
F250	F	0.433723	-0.276644	-0.485527
F251	F	0.767057	0.056689	-0.152193
F252	F	1.100390	0.390023	0.181140
F253	F	0.851776	-0.276584	-0.485433
F254	F	1.185109	0.056750	-0.152100
F255	F	1.518442	0.390083	0.181234
F256	F	0.987476	-0.795433	-0.225881
F257	F	1.320810	-0.462100	0.107452
F258	F	1.654143	-0.128767	0.440785
H259	H	1.233909	-0.681582	-0.472724
H260	H	1.567243	-0.348249	-0.139390
H261	H	1.900576	-0.014916	0.193943
H262	H	1.050594	-0.681839	-0.289118
H263	H	1.383927	-0.348506	0.044216
H264	H	1.717261	-0.015172	0.377549
H265	H	1.284686	-0.238448	-0.806513
H266	H	1.618020	0.094885	-0.473180
H267	H	1.951353	0.428219	-0.139847
H268	H	1.050666	-0.472326	-1.080004
H269	H	1.383999	-0.138993	-0.746670
H270	H	1.717332	0.194341	-0.413337
H271	H	1.234074	-0.289026	-0.682664
H272	H	1.567408	0.044307	-0.349331
H273	H	1.900741	0.377640	-0.015998
F274	F	1.037914	-0.485064	-0.672261
F275	F	1.371247	-0.151731	-0.338928
F276	F	1.704580	0.181602	-0.005594
H277	H	1.000027	-0.522940	-0.806378
H278	H	1.333361	-0.189607	-0.473045
H279	H	1.666694	0.143726	-0.139712
F280	F	0.987421	-0.535535	-0.966471
F281	F	1.320754	-0.202202	-0.633137
F282	F	1.654087	0.131131	-0.299804
H283	H	0.717457	-0.522907	-0.238407
H284	H	1.050791	-0.189573	0.094927
H285	H	1.384124	0.143760	0.428260
