data_functionalizedCrystal
_audit_creation_method	'MofGen! by Chris Wilmer'
_symmetry_space_group_name_H-M	'P1'
_symmetry_Int_Tables_number	1
_symmetry_cell_setting	triclinic
loop_
_symmetry_equiv_pos_as_xyz
  x,y,z
_cell_length_a	10.654545
_cell_length_b	14.472310
_cell_length_c	10.654550
_cell_angle_alpha	90.000834
_cell_angle_beta	84.484005
_cell_angle_gamma	90.012608
loop_
_atom_site_label
_atom_site_type_symbol
_atom_site_fract_x
_atom_site_fract_y
_atom_site_fract_z
O1	O	1.667861	0.076832	0.176364
O2	O	1.302382	0.076835	0.193176
O3	O	1.493524	0.076828	0.002030
O4	O	1.476718	0.076839	0.367509
O5	O	1.493475	-0.076854	0.002041
O6	O	1.302332	-0.076847	0.193186
O7	O	1.667811	-0.076850	0.176374
Cu8	Cu	1.485067	-0.090881	0.184781
Cu9	Cu	1.485126	0.090866	0.184769
O10	O	1.476669	-0.076843	0.367520
C11	C	1.255559	-0.000005	0.191948
C12	C	1.116115	-0.000004	0.188258
C13	C	1.050584	-0.083776	0.186527
C14	C	0.919564	-0.083777	0.183039
C15	C	0.919619	0.083776	0.183019
C16	C	1.050637	0.083775	0.186498
N17	N	1.485035	-0.218712	0.184789
C18	C	1.485124	-0.592803	0.184763
C19	C	1.382498	-0.553633	0.286692
C20	C	1.382740	-0.446545	0.287070
C21	C	1.485079	-0.407212	0.184776
C22	C	1.616372	-0.446049	0.214537
C23	C	1.615796	-0.553171	0.215263
C24	C	1.457624	-0.553336	0.052779
C25	C	1.454626	-0.446209	0.053631
C26	C	1.485062	-0.302324	0.184781
C27	C	1.485150	-0.697691	0.184761
C28	C	1.714634	-0.000008	0.177602
C29	C	1.854078	-0.000003	0.181292
C30	C	1.492266	-0.000013	-0.044762
C31	C	1.488574	-0.000012	-0.184206
N32	N	1.485168	0.218697	0.184750
C33	C	1.601115	-0.000012	-0.263693
C34	C	1.597639	-0.000001	-0.394714
C35	C	1.369069	0.000008	-0.366747
C36	C	1.372547	0.000003	-0.235729
C37	C	1.477927	-0.000000	0.414312
C38	C	1.481619	0.000004	0.553755
H39	H	0.866290	0.151986	0.181587
H40	H	1.103892	-0.151995	0.187960
N41	N	1.714527	-0.414101	0.123936
N42	N	1.711373	-0.432935	0.009787
H43	H	1.780693	-0.410372	-0.054205
N44	N	1.712600	-0.000027	-0.475905
N45	N	1.736131	-0.064810	-0.552134
H46	H	1.817328	-0.064830	-0.609476
N47	N	1.404349	-0.587381	0.408850
N48	N	1.321751	-0.634316	0.471031
H49	H	1.337184	-0.658153	0.557304
H50	H	1.694609	-0.579080	0.144011
N51	N	1.647232	-0.412372	0.333962
N52	N	1.572752	-0.359779	0.397354
H53	H	1.594540	-0.335994	0.481701
N54	N	0.852647	-0.169357	0.181262
N55	N	0.911131	-0.244148	0.182827
H56	H	0.863872	-0.304594	0.181569
H57	H	1.274604	0.000018	-0.408713
H58	H	1.103995	0.151997	0.187904
N59	N	1.719617	-0.000028	-0.211039
N60	N	1.747034	-0.064813	-0.141053
H61	H	1.830728	-0.064822	-0.103867
H62	H	1.280896	0.000007	-0.171006
H63	H	1.285185	-0.420289	0.269170
H64	H	1.639856	-0.578144	0.311554
N65	N	1.259726	-0.585986	0.264576
N66	N	1.246425	-0.638294	0.173439
H67	H	1.159714	-0.661148	0.157815
H68	H	1.400421	-0.420908	0.384989
N69	N	1.340011	-0.587245	0.017275
N70	N	1.240216	-0.570806	0.085153
H71	H	1.157144	-0.594750	0.060092
H72	H	1.358040	-0.420826	0.031072
H73	H	1.524431	-0.419438	-0.025862
H74	H	1.532450	-0.578666	-0.023087
