data_functionalizedCrystal
_audit_creation_method	'MofGen! by Chris Wilmer'
_symmetry_space_group_name_H-M	'P1'
_symmetry_Int_Tables_number	1
_symmetry_cell_setting	triclinic
loop_
_symmetry_equiv_pos_as_xyz
  x,y,z
_cell_length_a	16.959455
_cell_length_b	29.839131
_cell_length_c	16.959447
_cell_angle_alpha	90.033915
_cell_angle_beta	90.014322
_cell_angle_gamma	90.038367
loop_
_atom_site_label
_atom_site_type_symbol
_atom_site_fract_x
_atom_site_fract_y
_atom_site_fract_z
Zn1	Zn	1.208267	-0.178881	0.446889
Zn2	Zn	1.708267	0.321119	0.946889
Zn3	Zn	1.208140	-0.254014	0.314702
Zn4	Zn	1.708140	0.245986	0.814702
Zn5	Zn	1.076095	-0.178895	0.314726
Zn6	Zn	1.576095	0.321105	0.814726
Zn7	Zn	1.076010	-0.253981	0.446841
Zn8	Zn	1.576010	0.246019	0.946841
O9	O	1.142128	-0.216443	0.380790
O10	O	1.642128	0.283557	0.880790
O11	O	1.318861	-0.188856	0.429364
O12	O	1.818861	0.311144	0.929364
O13	O	1.190606	-0.244070	0.204094
O14	O	1.690606	0.255930	0.704094
O15	O	1.093716	-0.116026	0.332288
O16	O	1.593716	0.383974	0.832288
O17	O	1.318767	-0.244056	0.332247
O18	O	1.818767	0.255944	0.832247
O19	O	1.190822	-0.116016	0.429388
O20	O	1.690822	0.383984	0.929388
O21	O	1.093593	-0.188880	0.204112
O22	O	1.593593	0.311120	0.704112
O23	O	0.965473	-0.188847	0.332242
O24	O	1.465473	0.311153	0.832242
O25	O	1.093572	-0.243999	0.557458
O26	O	1.593572	0.256001	1.057458
O27	O	0.965411	-0.244012	0.429305
O28	O	1.465411	0.255988	0.929305
O29	O	1.190740	-0.188823	0.557493
O30	O	1.690740	0.311177	1.057493
O31	O	1.190524	-0.316877	0.332200
O32	O	1.690524	0.183123	0.832200
O33	O	1.093449	-0.316852	0.429282
O34	O	1.593449	0.183148	0.929282
C35	C	0.936762	-0.216428	0.380771
C36	C	1.436762	0.283572	0.880771
C37	C	0.848905	-0.216433	0.380782
C38	C	1.348905	0.283567	0.880782
C39	C	0.477437	-0.187695	0.330354
C40	C	0.977437	0.312305	0.830354
C41	C	0.477421	-0.245228	0.431270
C42	C	0.977421	0.254772	0.931270
C43	C	0.559967	-0.245221	0.431265
C44	C	1.059967	0.254779	0.931265
C45	C	0.601252	-0.216452	0.380803
C46	C	1.101252	0.283548	0.880803
C47	C	0.559991	-0.187688	0.330346
C48	C	1.059991	0.312312	0.830346
C49	C	0.601235	-0.273987	0.481716
C50	C	1.101235	0.226013	0.981716
C51	C	0.683786	-0.273982	0.481713
C52	C	1.183786	0.226018	0.981713
C53	C	0.725072	-0.245210	0.431254
C54	C	1.225072	0.254790	0.931254
C55	C	0.683806	-0.216445	0.380795
C56	C	1.183806	0.283555	0.880795
C57	C	0.725090	-0.187676	0.330333
C58	C	1.225090	0.312324	0.830333
C59	C	0.683826	-0.158908	0.279878
C60	C	1.183826	0.341092	0.779878
C61	C	0.601277	-0.158916	0.279887
C62	C	1.101277	0.341084	0.779887
C63	C	0.807620	-0.245202	0.431245
C64	C	1.307620	0.254798	0.931245
C65	C	0.807644	-0.187669	0.330325
C66	C	1.307644	0.312331	0.830325
C67	C	1.141985	-0.333165	0.380750
C68	C	1.641985	0.166835	0.880750
C69	C	1.141996	-0.383100	0.380760
C70	C	1.641996	0.116900	0.880760
C71	C	1.192767	-0.692743	0.330313
C72	C	1.692767	-0.192743	0.830313
C73	C	1.192864	-0.880416	0.330344
C74	C	1.692864	-0.380416	0.830344
O75	O	1.235918	-0.904681	0.287422
O76	O	1.735918	-0.404681	0.787422
N77	N	1.142292	-0.903885	0.380849
N78	N	1.642292	-0.403885	0.880849
C79	C	1.091695	-0.880432	0.431354
C80	C	1.591695	-0.380432	0.931354
O81	O	1.048688	-0.904700	0.474319
O82	O	1.548688	-0.404700	0.974319
C83	C	1.091602	-0.692760	0.431327
C84	C	1.591602	-0.192760	0.931327
C85	C	1.142172	-0.669294	0.380812
C86	C	1.642172	-0.169294	0.880812
C87	C	1.243333	-0.669277	0.279803
C88	C	1.743333	-0.169277	0.779803
C89	C	1.243305	-0.622362	0.279793
C90	C	1.743305	-0.122362	0.779793
C91	C	1.192711	-0.598913	0.330293
C92	C	1.692711	-0.098913	0.830293
C93	C	1.142144	-0.622379	0.380802
C94	C	1.642144	-0.122379	0.880802
C95	C	1.041010	-0.669308	0.481835
C96	C	1.541010	-0.169308	0.981835
C97	C	1.040992	-0.622387	0.481826
C98	C	1.540992	-0.122387	0.981826
C99	C	1.091563	-0.598921	0.431311
C100	C	1.591563	-0.098921	0.931311
C101	C	1.091522	-0.552014	0.431292
C102	C	1.591522	-0.052014	0.931292
N103	N	1.142094	-0.528545	0.380786
N104	N	1.642094	-0.028545	0.880786
C105	C	1.192689	-0.551995	0.330287
C106	C	1.692689	-0.051995	0.830287
C107	C	1.091746	-0.978963	0.431364
C108	C	1.591746	-0.478963	0.931364
C109	C	1.091768	-1.025881	0.431370
C110	C	1.591768	-0.525881	0.931370
C111	C	1.192939	-1.025862	0.330360
C112	C	1.692939	-0.525862	0.830360
C113	C	1.192912	-0.978943	0.330351
C114	C	1.692912	-0.478943	0.830351
C115	C	1.142319	-0.955494	0.380858
C116	C	1.642319	-0.455494	0.880858
C117	C	1.192626	-0.453469	0.330268
C118	C	1.692626	0.046531	0.830268
C119	C	1.192591	-0.406549	0.330260
C120	C	1.692591	0.093451	0.830260
C121	C	1.091424	-0.406572	0.431273
C122	C	1.591424	0.093428	0.931273
C123	C	1.091455	-0.453488	0.431278
C124	C	1.591455	0.046512	0.931278
C125	C	1.142063	-0.476935	0.380773
C126	C	1.642063	0.023065	0.880773
O127	O	1.048497	-0.527720	0.474197
O128	O	1.548497	-0.027720	0.974197
O129	O	1.235702	-0.527719	0.287341
O130	O	1.735702	-0.027719	0.787341
C131	C	1.192795	-0.739659	0.330323
C132	C	1.692795	-0.239659	0.830323
C133	C	1.142228	-0.763125	0.380833
C134	C	1.642228	-0.263125	0.880833
C135	C	1.091633	-0.739675	0.431332
C136	C	1.591633	-0.239675	0.931332
C137	C	1.142250	-0.810043	0.380839
C138	C	1.642250	-0.310043	0.880839
C139	C	1.192845	-0.833492	0.330339
C140	C	1.692845	-0.333492	0.830339
C141	C	1.243417	-0.810024	0.279834
C142	C	1.743417	-0.310024	0.779834
C143	C	1.243389	-0.763108	0.279824
C144	C	1.743389	-0.263108	0.779824
C145	C	1.041061	-0.763144	0.481838
C146	C	1.541061	-0.263144	0.981838
C147	C	1.041092	-0.810059	0.481843
C148	C	1.541092	-0.310059	0.981843
C149	C	1.091687	-0.833509	0.431344
C150	C	1.591687	-0.333509	0.931344
C151	C	1.348296	-0.216458	0.380808
C152	C	1.848296	0.283542	0.880808
C153	C	1.436153	-0.216465	0.380816
C154	C	1.936153	0.283535	0.880816
C155	C	1.142161	-0.216406	0.586958
C156	C	1.642161	0.283594	1.086958
C157	C	1.142175	-0.216390	0.674814
C158	C	1.642175	0.283610	1.174814
C159	C	1.142293	-0.099264	0.380846
C160	C	1.642293	0.400736	0.880846
C161	C	1.142363	-0.049330	0.380870
C162	C	1.642363	0.450670	0.880870
C163	C	1.142141	-0.216447	0.175423
C164	C	1.642141	0.283553	0.675423
C165	C	1.142280	-0.216337	0.087567
C166	C	1.642280	0.283663	0.587567
C167	C	1.091678	-0.245070	1.046274
C168	C	1.591678	0.254930	1.546274
C169	C	1.192860	-0.187615	1.046306
C170	C	1.692860	0.312385	1.546306
C171	C	1.192839	-0.187625	0.963760
C172	C	1.692839	0.312375	1.463760
C173	C	1.142238	-0.216358	0.922468
C174	C	1.642238	0.283642	1.422468
C175	C	1.091657	-0.245081	0.963721
C176	C	1.591657	0.254919	1.463721
C177	C	1.243424	-0.158905	0.922501
C178	C	1.743424	0.341095	1.422501
C179	C	1.243406	-0.158914	0.839950
C180	C	1.743406	0.341086	1.339950
C181	C	1.192800	-0.187645	0.798656
C182	C	1.692800	0.312355	1.298656
C183	C	1.142217	-0.216369	0.839914
C184	C	1.642217	0.283631	1.339914
C185	C	1.091615	-0.245102	0.798621
C186	C	1.591615	0.254898	1.298621
C187	C	1.041028	-0.273824	0.839878
C188	C	1.541028	0.226176	1.339878
C189	C	1.041051	-0.273812	0.922426
C190	C	1.541051	0.226188	1.422426
C191	C	1.192776	-0.187657	0.716107
C192	C	1.692776	0.312343	1.216107
C193	C	1.091594	-0.245113	0.716068
C194	C	1.591594	0.254887	1.216068
H195	H	0.841252	-0.164238	0.289237
H196	H	1.341252	0.335762	0.789237
N197	N	1.295059	-0.129571	0.797799
N198	N	1.795059	0.370429	1.297799
N199	N	1.295028	-0.129580	0.724095
N200	N	1.795028	0.370420	1.224095
H201	H	1.331505	-0.108856	0.694324
H202	H	1.831505	0.391144	1.194324
H203	H	1.284538	-0.688365	0.238680
H204	H	1.784538	-0.188365	0.738680
N205	N	1.294968	-0.598403	0.228189
N206	N	1.794968	-0.098403	0.728189
N207	N	1.340136	-0.619353	0.183110
N208	N	1.840136	-0.119353	0.683110
H209	H	1.376627	-0.602435	0.146663
H210	H	1.876627	-0.102435	0.646663
H211	H	0.999862	-0.744055	0.522962
H212	H	1.499862	-0.244055	1.022962
H213	H	0.999868	-0.297198	0.956025
H214	H	1.499868	0.202802	1.456025
N215	N	0.435255	-0.274608	0.482824
N216	N	0.935255	0.225392	0.982824
N217	N	0.444498	-0.271676	0.555769
N218	N	0.944498	0.228324	1.055769
H219	H	0.414716	-0.292426	0.592183
H220	H	0.914716	0.207574	1.092183
H221	H	1.233966	-0.164273	0.682520
H222	H	1.733966	0.335727	1.182520
H223	H	0.443836	-0.164272	0.289277
H224	H	0.943836	0.335728	0.789277
H225	H	0.567672	-0.135496	0.238808
H226	H	1.067672	0.364504	0.738808
H227	H	1.050489	-0.268453	1.079869
H228	H	1.550489	0.231547	1.579869
H229	H	1.234062	-0.164225	1.079932
H230	H	1.734062	0.335775	1.579932
H231	H	1.050582	-1.044983	0.472496
H232	H	1.550582	-0.544983	0.972496
N233	N	0.989320	-0.598429	0.533418
N234	N	1.489320	-0.098429	1.033418
N235	N	1.017085	-0.572212	0.583806
N236	N	1.517085	-0.072212	1.083806
H237	H	0.980591	-0.555291	0.620242
H238	H	1.480591	-0.055291	1.120242
H239	H	0.841214	-0.268625	0.472322
H240	H	1.341214	0.231375	0.972322
H241	H	1.284626	-0.135515	0.956128
H242	H	1.784626	0.364485	1.456128
H243	H	1.050279	-0.472595	0.472414
H244	H	1.550279	0.027405	0.972414
N245	N	0.989353	-0.303175	0.797682
N246	N	1.489353	0.196825	1.297682
N247	N	0.989353	-0.303181	0.723978
N248	N	1.489353	0.196819	1.223978
H249	H	0.952859	-0.323909	0.694174
H250	H	1.452859	0.176091	1.194174
H251	H	1.234091	-0.959840	0.289218
H252	H	1.734091	-0.459840	0.789218
H253	H	0.717450	-0.135486	0.238788
H254	H	1.217450	0.364514	0.738788
N255	N	0.989430	-0.834033	0.533435
N256	N	1.489430	-0.334033	1.033435
N257	N	0.939091	-0.860254	0.505593
N258	N	1.439091	-0.360254	1.005593
H259	H	0.902609	-0.877185	0.542031
H260	H	1.402609	-0.377185	1.042031
H261	H	1.234135	-1.044962	0.289242
H262	H	1.734135	-0.544962	0.789242
N263	N	1.040070	-0.955016	0.482970
N264	N	1.540070	-0.455016	0.982970
N265	N	1.045269	-0.960233	0.555910
N266	N	1.545269	-0.460233	1.055910
H267	H	1.008770	-0.943322	0.592357
H268	H	1.508770	-0.443322	1.092357
N269	N	0.559053	-0.303372	0.533250
N270	N	1.059053	0.196628	1.033250
N271	N	0.485349	-0.303370	0.533252
N272	N	0.985349	0.196630	1.033252
H273	H	0.455554	-0.324122	0.569651
H274	H	0.955554	0.175878	1.069651
H275	H	0.999826	-0.688406	0.522966
H276	H	1.499826	-0.188406	1.022966
H277	H	1.233771	-0.387445	0.289123
H278	H	1.733771	0.112555	0.789123
N279	N	0.725920	-0.303369	0.533253
N280	N	1.225920	0.196631	1.033253
N281	N	0.689048	-0.329055	0.578302
N282	N	1.189048	0.170945	1.078302
H283	H	0.718806	-0.349809	0.614704
H284	H	1.218806	0.150191	1.114704
H285	H	1.050228	-0.387473	0.472387
H286	H	1.550228	0.112527	0.972387
H287	H	1.284568	-0.744006	0.238690
H288	H	1.784568	-0.244006	0.738690
N289	N	1.244311	-0.477409	0.278663
N290	N	1.744311	0.022591	0.778663
N291	N	1.239101	-0.472194	0.205723
N292	N	1.739101	0.027806	0.705723
H293	H	1.275599	-0.489101	0.169272
H294	H	1.775599	0.010899	0.669272
N295	N	1.295088	-0.833989	0.228249
N296	N	1.795088	-0.333989	0.728249
N297	N	1.295096	-0.875879	0.228271
N298	N	1.795096	-0.375879	0.728271
H299	H	1.331588	-0.892807	0.191844
H300	H	1.831588	-0.392807	0.691844
N301	N	1.039892	-0.274457	0.673891
N302	N	1.539892	0.225543	1.173891
N303	N	0.966962	-0.271466	0.683111
N304	N	1.466962	0.228534	1.183111
H305	H	0.930446	-0.292190	0.653324
H306	H	1.430446	0.207810	1.153324
