data_functionalizedCrystal
_audit_creation_method	'MofGen! by Chris Wilmer'
_symmetry_space_group_name_H-M	'P1'
_symmetry_Int_Tables_number	1
_symmetry_cell_setting	triclinic
loop_
_symmetry_equiv_pos_as_xyz
  x,y,z
_cell_length_a	21.295419
_cell_length_b	21.295417
_cell_length_c	13.897441
_cell_angle_alpha	89.965596
_cell_angle_beta	89.980254
_cell_angle_gamma	90.044503
loop_
_atom_site_label
_atom_site_type_symbol
_atom_site_fract_x
_atom_site_fract_y
_atom_site_fract_z
Zn1	Zn	0.962329	-0.250347	-0.545379
Zn2	Zn	0.962242	-0.355624	-0.384067
Zn3	Zn	0.857061	-0.250400	-0.384094
Zn4	Zn	0.857023	-0.355609	-0.545316
O5	O	0.909664	-0.302995	-0.464714
O6	O	1.050407	-0.264296	-0.523995
O7	O	0.948269	-0.341694	-0.249089
O8	O	0.871078	-0.162303	-0.405526
O9	O	1.050343	-0.341643	-0.405480
O10	O	0.948418	-0.162264	-0.524022
O11	O	0.870993	-0.264386	-0.249109
O12	O	0.768967	-0.264372	-0.405466
O13	O	0.871013	-0.341617	-0.680306
O14	O	0.768939	-0.341669	-0.523915
O15	O	0.948381	-0.264282	-0.680352
O16	O	0.948232	-0.443711	-0.405419
O17	O	0.870928	-0.443700	-0.523889
C18	C	0.746112	-0.303025	-0.464687
C19	C	0.676144	-0.303053	-0.464698
C20	C	0.643333	-0.262844	-0.526505
C21	C	0.577591	-0.262828	-0.526508
C22	C	0.544662	-0.303030	-0.464716
C23	C	0.577480	-0.343242	-0.402898
C24	C	0.643222	-0.343253	-0.402889
N25	N	0.441388	-0.358109	-0.457179
N26	N	0.378936	-0.358096	-0.457193
C27	C	0.346587	-0.302998	-0.464737
N28	N	0.379049	-0.247911	-0.472286
N29	N	0.441506	-0.247924	-0.472277
C30	C	0.473376	-0.303022	-0.464718
C31	C	0.242491	-0.262768	-0.526551
C32	C	0.176747	-0.262750	-0.526548
C33	C	0.176638	-0.343170	-0.402942
C34	C	0.242380	-0.343182	-0.402940
C35	C	0.275303	-0.302982	-0.464750
C36	C	0.909584	-0.466546	-0.464665
C37	C	0.909607	-0.536515	-0.464677
C38	C	0.949855	-0.569304	-0.526421
C39	C	0.949877	-0.635046	-0.526445
C40	C	0.909658	-0.667997	-0.464707
C41	C	0.869402	-0.635200	-0.402958
C42	C	0.869377	-0.569459	-0.402943
N43	N	0.904903	-0.771264	-0.380290
N44	N	0.904931	-0.833715	-0.380307
C45	C	0.909732	-0.866072	-0.464751
N46	N	0.914515	-0.833617	-0.549178
N47	N	0.914491	-0.771160	-0.549160
C48	C	0.909681	-0.739282	-0.464717
C49	C	0.950006	-0.970146	-0.526526
C50	C	0.950024	-1.035890	-0.526552
C51	C	0.869552	-1.036042	-0.403056
C52	C	0.869531	-0.970300	-0.403039
C53	C	0.909761	-0.937356	-0.464773
C54	C	1.073854	-0.302965	-0.464742
C55	C	1.143822	-0.302952	-0.464754
C56	C	0.909703	-0.302942	-0.716307
C57	C	0.909719	-0.302919	-0.823521
C58	C	0.909762	-0.138804	-0.464784
C59	C	0.909803	-0.068836	-0.464814
C60	C	0.909732	-0.302902	-0.910591
C61	C	0.909750	-0.302873	-1.019824
C62	C	0.909662	-0.303002	-0.214100
C63	C	0.909767	-0.302847	-0.106886
H64	H	0.550665	-0.375975	-0.352585
H65	H	0.982647	-0.661748	-0.576736
H66	H	0.982762	-0.943322	-0.576797
H67	H	0.269095	-0.375927	-0.352615
N68	N	0.991147	-1.069374	-0.589627
N69	N	1.049232	-1.061966	-0.583300
H70	H	1.078277	-1.085614	-0.627848
H71	H	0.550871	-0.230082	-0.576837
H72	H	0.669936	-0.375997	-0.352557
H73	H	0.150034	-0.230003	-0.576876
N74	N	0.828319	-0.668865	-0.339906
N75	N	0.828348	-0.727562	-0.339927
H76	H	0.799329	-0.751338	-0.295398
N77	N	0.276115	-0.221699	-0.589684
N78	N	0.246808	-0.185793	-0.644857
H79	H	0.270554	-0.156786	-0.689444
H80	H	0.149828	-0.375903	-0.352629
N81	N	0.990951	-0.535663	-0.589485
N82	N	1.026884	-0.564952	-0.644612
H83	H	1.055909	-0.541193	-0.689153
N84	N	0.676959	-0.221766	-0.589618
N85	N	0.713667	-0.181628	-0.555786
H86	H	0.737416	-0.152614	-0.600357
N87	N	0.828260	-0.535955	-0.339882
N88	N	0.788123	-0.499300	-0.373763
H89	H	0.759082	-0.475637	-0.329227
H90	H	0.836801	-1.062870	-0.352794
H91	H	0.836760	-0.943601	-0.352757
