data_functionalizedCrystal
_audit_creation_method	'MofGen! by Chris Wilmer'
_symmetry_space_group_name_H-M	'P1'
_symmetry_Int_Tables_number	1
_symmetry_cell_setting	triclinic
loop_
_symmetry_equiv_pos_as_xyz
  x,y,z
_cell_length_a	10.723024
_cell_length_b	10.723024
_cell_length_c	9.798715
_cell_angle_alpha	89.998022
_cell_angle_beta	89.996609
_cell_angle_gamma	84.467869
loop_
_atom_site_label
_atom_site_type_symbol
_atom_site_fract_x
_atom_site_fract_y
_atom_site_fract_z
O1	O	1.657187	0.175024	-0.113478
O2	O	2.157187	0.675024	0.386522
O3	O	1.294035	0.191778	-0.113483
O4	O	1.794035	0.691778	0.386517
O5	O	1.483988	0.001825	-0.113475
O6	O	1.983988	0.501825	0.386525
O7	O	1.467234	0.364977	-0.113486
O8	O	1.967234	0.864977	0.386514
O9	O	1.483974	0.001824	0.113507
O10	O	1.983974	0.501824	0.613507
O11	O	1.294021	0.191777	0.113499
O12	O	1.794021	0.691777	0.613499
O13	O	1.657173	0.175024	0.113504
O14	O	2.157173	0.675024	0.613504
Zn15	Zn	1.475595	0.183401	0.149540
Zn16	Zn	1.975595	0.683401	0.649540
Zn17	Zn	1.475613	0.183401	-0.149519
Zn18	Zn	1.975613	0.683401	0.350481
O19	O	1.467220	0.364977	0.113496
O20	O	1.967220	0.864977	0.613496
C21	C	1.247528	0.190558	0.000008
C22	C	1.747528	0.690558	0.500008
C23	C	1.108974	0.186911	0.000006
C24	C	1.608974	0.686911	0.500006
C25	C	0.917217	0.073603	0.000007
C26	C	1.417217	0.573603	0.500007
C27	C	1.060420	0.077371	0.000009
C28	C	1.560420	0.577371	0.500009
C29	C	1.482762	-0.044675	0.000014
C30	C	1.982762	0.455325	0.500014
C31	C	1.479114	-0.183229	0.000009
C32	C	1.979114	0.316771	0.500009
C33	C	1.585401	-0.258212	0.000009
C34	C	2.085401	0.241788	0.500009
C35	C	1.581634	-0.401415	0.000004
C36	C	2.081634	0.098585	0.500004
C37	C	1.703680	0.176243	0.000010
C38	C	2.203680	0.676243	0.500010
C39	C	1.842234	0.179891	0.000003
C40	C	2.342234	0.679891	0.500003
C41	C	1.468447	0.411477	0.000004
C42	C	1.968447	0.911477	0.500004
C43	C	1.472094	0.550031	-0.000000
C44	C	1.972094	1.050031	0.500000
N45	N	1.475591	0.183399	0.353640
N46	N	1.975591	0.683399	0.853640
N47	N	1.475627	0.183393	-0.353619
N48	N	1.975627	0.683393	0.146381
C49	C	1.555347	0.103292	0.421420
C50	C	2.055347	0.603292	0.921420
C51	C	1.555367	0.103288	0.578582
C52	C	2.055367	0.603288	1.078582
H53	H	0.884056	0.273677	0.000009
H54	H	1.384056	0.773677	0.500009
H55	H	1.407319	0.251975	0.411961
H56	H	1.907319	0.751975	0.911961
Cl57	Cl	1.722124	-0.500888	0.000013
Cl58	Cl	2.222124	-0.000888	0.500013
Cl59	Cl	0.852658	-0.071202	0.000020
Cl60	Cl	1.352658	0.428798	0.500020
H61	H	1.623611	0.034707	0.363100
H62	H	2.123611	0.534707	0.863100
H63	H	1.124853	-0.013619	0.000003
H64	H	1.624853	0.486381	0.500003
H65	H	1.623654	0.034709	0.636870
H66	H	2.123654	0.534709	1.136870
H67	H	1.381099	-0.385544	0.000010
H68	H	1.881099	0.114456	0.500010
Cl69	Cl	1.009509	0.327406	-0.000010
Cl70	Cl	1.509509	0.827406	0.499990
Cl71	Cl	1.730207	-0.193653	0.000002
Cl72	Cl	2.230207	0.306347	0.500002
H73	H	1.385328	-0.225051	-0.000001
H74	H	1.885328	0.274949	0.499999
H75	H	1.407345	0.251984	0.588102
H76	H	1.907345	0.751984	1.088102
