data_functionalizedCrystal
_audit_creation_method	'MofGen! by Chris Wilmer'
_symmetry_space_group_name_H-M	'P1'
_symmetry_Int_Tables_number	1
_symmetry_cell_setting	triclinic
loop_
_symmetry_equiv_pos_as_xyz
  x,y,z
_cell_length_a	14.044220
_cell_length_b	10.654541
_cell_length_c	9.730217
_cell_angle_alpha	89.999538
_cell_angle_beta	90.003455
_cell_angle_gamma	88.836403
loop_
_atom_site_label
_atom_site_type_symbol
_atom_site_fract_x
_atom_site_fract_y
_atom_site_fract_z
O1	O	1.259692	0.302984	-0.114128
O2	O	0.983651	0.292051	-0.114163
O3	O	1.128020	0.115416	-0.114145
O4	O	1.115324	0.479619	-0.114146
O5	O	1.128015	0.115414	0.114435
O6	O	0.983647	0.292048	0.114417
O7	O	1.259688	0.302982	0.114452
Zn8	Zn	1.121667	0.297515	0.150727
Zn9	Zn	1.121673	0.297518	-0.150438
O10	O	1.115320	0.479617	0.114434
C11	C	0.948303	0.287264	0.000122
C12	C	0.842984	0.272988	0.000108
C13	C	1.116253	0.526510	0.000145
C14	C	1.119041	0.666233	0.000145
C15	C	1.127086	0.068523	0.000142
C16	C	1.124298	-0.071201	0.000132
C17	C	0.650151	0.246889	0.000136
C18	C	0.593183	0.348138	0.000141
C19	C	0.485884	0.333616	0.000157
C20	C	0.757460	0.261409	0.000120
C21	C	1.295036	0.307769	0.000164
C22	C	1.400356	0.322044	0.000169
N23	N	1.121670	0.297513	0.356263
C24	C	0.946409	0.676856	0.000140
C25	C	0.861407	0.747809	0.000142
C26	C	0.864032	0.879090	0.000142
C27	C	0.951669	0.939422	0.000136
C28	C	1.036671	0.868470	0.000134
C29	C	1.034037	0.737186	0.000138
C30	C	1.209301	0.857847	0.000130
C31	C	1.206678	0.726565	0.000139
C32	C	1.296937	0.918179	0.000123
C33	C	1.381942	0.847226	0.000131
C34	C	1.379313	0.715937	0.000132
C35	C	1.291680	0.655613	0.000137
N36	N	1.121677	0.297511	-0.355974
C37	C	1.249561	0.141158	0.356270
C38	C	1.313512	0.062984	0.428213
C39	C	1.313522	0.062985	0.572092
C40	C	1.249571	0.141164	0.644032
C41	C	1.185619	0.219337	0.572089
C42	C	1.185618	0.219331	0.428206
C43	C	1.057725	0.375684	0.572083
C44	C	1.057719	0.375692	0.428203
C45	C	0.993774	0.453863	0.644023
C46	C	0.929826	0.532045	0.572080
C47	C	0.929819	0.532042	0.428191
C48	C	0.993767	0.453865	0.356260
H49	H	0.624995	0.445725	0.000135
Cl50	Cl	1.288368	0.490572	0.000146
Cl51	Cl	1.300238	1.083220	0.000112
Cl52	Cl	1.249571	0.141146	0.824911
H53	H	1.365579	-0.000671	0.369627
Cl54	Cl	0.943103	0.511816	0.000165
H55	H	1.249567	0.141161	0.239115
Cl56	Cl	1.393915	-0.035299	0.662537
Cl57	Cl	0.993769	0.453860	0.175381
H58	H	0.993781	0.453854	0.761177
Cl59	Cl	0.601038	0.096230	0.000138
H60	H	0.790055	0.698672	0.000143
H61	H	0.953799	1.046319	0.000119
Cl62	Cl	0.757172	0.968291	0.000137
H63	H	0.877757	0.595687	0.630662
Cl64	Cl	1.492101	0.923078	0.000111
Cl65	Cl	1.486180	0.626750	0.000117
H66	H	0.877738	0.595695	0.369623
