data_functionalizedCrystal
_audit_creation_method	'MofGen! by Chris Wilmer'
_symmetry_space_group_name_H-M	'P1'
_symmetry_Int_Tables_number	1
_symmetry_cell_setting	triclinic
loop_
_symmetry_equiv_pos_as_xyz
  x,y,z
_cell_length_a	10.654550
_cell_length_b	9.130313
_cell_length_c	10.654550
_cell_angle_alpha	90.001595
_cell_angle_beta	95.515071
_cell_angle_gamma	89.999724
loop_
_atom_site_label
_atom_site_type_symbol
_atom_site_fract_x
_atom_site_fract_y
_atom_site_fract_z
O1	O	-1.667839	0.121680	0.176399
O2	O	-1.302361	0.121706	0.193205
O3	O	-1.493503	0.121693	0.002063
O4	O	-1.476697	0.121692	0.367541
O5	O	-1.493490	-0.121906	0.002057
O6	O	-1.302348	-0.121893	0.193199
O7	O	-1.667826	-0.121919	0.176393
Cu8	Cu	-1.485086	-0.144149	0.184796
Cu9	Cu	-1.485101	0.143935	0.184802
O10	O	-1.476684	-0.121907	0.367535
C11	C	-1.255556	-0.000090	0.191968
C12	C	-1.116113	-0.000080	0.188276
C13	C	-1.492263	-0.000103	-0.044738
C14	C	-1.488571	-0.000092	-0.184181
C15	C	-1.714631	-0.000120	0.177630
C16	C	-1.854074	-0.000121	0.181322
N17	N	-1.485084	-0.346771	0.184790
C18	C	-1.036628	-0.000085	0.300818
C19	C	-0.905607	-0.000110	0.297341
C20	C	-0.933570	-0.000121	0.068772
C21	C	-1.064588	-0.000106	0.072250
C22	C	-1.569751	-0.423429	0.100188
C23	C	-1.569763	-0.576766	0.100189
C24	C	-1.400437	-0.576774	0.269404
C25	C	-1.400420	-0.423440	0.269396
N26	N	-1.485113	0.346558	0.184798
C27	C	-1.483361	0.132683	-0.380719
C28	C	-1.486843	0.132691	-0.249699
C29	C	-1.486830	-0.132894	-0.249693
C30	C	-1.483357	-0.132901	-0.380712
C31	C	-1.477925	-0.000108	0.414336
C32	C	-1.481616	-0.000108	0.553779
H33	H	-1.078574	-0.000075	0.395294
C34	C	-1.481433	-0.278978	-0.452768
H35	H	-1.482948	-0.358063	-0.394988
H36	H	-1.553186	-0.284506	-0.512821
H37	H	-1.406959	-0.284489	-0.494934
C38	C	-1.488728	-0.278953	-0.177627
H39	H	-1.491032	-0.259932	-0.090214
H40	H	-1.561262	-0.333527	-0.208036
H41	H	-1.415035	-0.333502	-0.190159
H42	H	-0.840894	-0.000117	0.388984
C43	C	-0.876887	-0.000129	-0.058847
H44	H	-0.787473	-0.000123	-0.044802
H45	H	-0.904108	-0.085074	-0.105239
H46	H	-0.904100	0.084833	-0.105227
H47	H	-1.129309	-0.000106	-0.019401
H48	H	-1.638687	-0.361009	0.031295
H49	H	-1.331508	-0.639213	0.338290
C50	C	-1.662901	-0.661083	0.007132
H51	H	-1.713323	-0.593456	-0.043248
H52	H	-1.617285	-0.720911	-0.045573
H53	H	-1.715577	-0.720884	0.052811
H54	H	-1.331468	-0.361022	0.338290
C55	C	-1.481485	0.278747	-0.452779
H56	H	-1.483042	0.357832	-0.395001
H57	H	-1.407030	0.284295	-0.494960
H58	H	-1.553258	0.284236	-0.512822
H59	H	-1.488265	0.240823	-0.196373
