data_functionalizedCrystal
_audit_creation_method	'MofGen! by Chris Wilmer'
_symmetry_space_group_name_H-M	'P1'
_symmetry_Int_Tables_number	1
_symmetry_cell_setting	triclinic
loop_
_symmetry_equiv_pos_as_xyz
  x,y,z
_cell_length_a	10.654562
_cell_length_b	23.532407
_cell_length_c	9.730223
_cell_angle_alpha	89.994043
_cell_angle_beta	89.996961
_cell_angle_gamma	83.669390
loop_
_atom_site_label
_atom_site_type_symbol
_atom_site_fract_x
_atom_site_fract_y
_atom_site_fract_z
O1	O	1.665290	0.080017	-0.114396
O2	O	1.299572	0.087630	-0.114380
O3	O	1.493459	0.000964	-0.114363
O4	O	1.471402	0.166683	-0.114413
O5	O	1.493457	0.000966	0.114217
O6	O	1.299570	0.087632	0.114200
O7	O	1.665287	0.080019	0.114184
Zn8	Zn	1.482428	0.083826	0.150484
Zn9	Zn	1.482431	0.083823	-0.150680
O10	O	1.471400	0.166685	0.114167
C11	C	1.252791	0.087070	-0.000088
C12	C	1.113401	0.085393	-0.000081
C13	C	1.047894	0.084612	0.124507
C14	C	0.916922	0.083041	0.124485
C15	C	0.916975	0.083035	-0.124725
C16	C	1.047946	0.084602	-0.124701
C17	C	1.047862	0.084619	0.268387
C18	C	0.916890	0.083048	0.268365
C19	C	1.492896	-0.020255	-0.000070
C20	C	1.491207	-0.083483	-0.000059
C21	C	1.595354	-0.481905	-0.000139
C22	C	1.593785	-0.541316	-0.000149
O23	O	1.690330	-0.577430	-0.000204
N24	N	1.478520	-0.564696	-0.000143
C25	C	1.364815	-0.528661	-0.000141
O26	O	1.266628	-0.554002	-0.000138
C27	C	1.366385	-0.469252	-0.000141
C28	C	1.481658	-0.445876	-0.000133
C29	C	1.710618	-0.458529	-0.000133
C30	C	1.712186	-0.399122	-0.000120
C31	C	1.598490	-0.363093	-0.000113
C32	C	1.483227	-0.386469	-0.000120
C33	C	1.252682	-0.433218	-0.000148
C34	C	1.254262	-0.373806	-0.000149
C35	C	1.369535	-0.350430	-0.000141
C36	C	1.371099	-0.291033	-0.000100
N37	N	1.486365	-0.267654	-0.000106
C38	C	1.600060	-0.303683	-0.000113
C39	C	1.361527	-0.653425	-0.000145
C40	C	1.359955	-0.712833	-0.000135
C41	C	1.588926	-0.725484	-0.000146
C42	C	1.590496	-0.666075	-0.000146
C43	C	1.476792	-0.630046	-0.000151
C44	C	1.603345	-0.178925	-0.000084
C45	C	1.604903	-0.119513	-0.000066
C46	C	1.375933	-0.106867	-0.000062
C47	C	1.374374	-0.166274	-0.000074
C48	C	1.488091	-0.202302	-0.000089
O49	O	1.274605	-0.254885	-0.000051
O50	O	1.698231	-0.278334	-0.000133
C51	C	1.712068	0.080578	-0.000111
C52	C	1.851458	0.082255	-0.000127
C53	C	1.471963	0.187904	-0.000129
C54	C	1.473652	0.251132	-0.000149
N55	N	1.482435	0.083827	0.356020
N56	N	1.482434	0.083817	-0.356216
C57	C	1.568310	0.045465	0.427954
C58	C	1.568307	0.045458	0.571837
C59	C	1.396550	0.122181	0.571840
C60	C	1.396548	0.122185	0.427960
C61	C	1.667476	0.001171	0.427953
C62	C	1.667473	0.001164	0.571836
H63	H	0.888617	0.041516	0.313023
H64	H	1.266088	-0.731860	-0.000118
H65	H	1.101279	0.085229	-0.226153
N66	N	1.110800	0.032488	0.341572
H67	H	1.205293	0.033599	0.341621
H68	H	1.079220	0.032121	0.439401
H69	H	1.268929	-0.624093	-0.000137
N70	N	1.303913	0.163561	0.350388
H71	H	1.351566	0.188985	0.290685
H72	H	1.248613	0.141522	0.290780
N73	N	1.711554	-0.764355	-0.000165
H74	H	1.761879	-0.756779	-0.084901
H75	H	1.761783	-0.756774	0.084624
H76	H	1.638271	-0.040200	0.616465
N77	N	1.794890	0.014096	0.623572
H78	H	1.833975	-0.018907	0.681244
H79	H	1.851656	0.019886	0.542810
H80	H	0.869356	0.122404	0.323589
H81	H	1.698776	-0.100484	-0.000056
N82	N	1.640915	-0.056806	0.376223
H83	H	1.629054	-0.082681	0.456918
H84	H	1.561642	-0.052505	0.318523
N85	N	1.085320	0.139625	0.327521
H86	H	1.132630	0.159861	0.255844
H87	H	1.007032	0.165011	0.356085
H88	H	1.695944	-0.208253	-0.000102
N89	N	1.787678	0.019537	0.368817
H90	H	1.783289	0.018869	0.265150
H91	H	1.798089	0.059558	0.400937
N92	N	0.846377	0.082178	-0.259132
H93	H	0.753467	0.081064	-0.240245
H94	H	0.858667	0.117690	-0.313558
H95	H	1.806053	-0.380096	-0.000119
H96	H	1.803208	-0.487859	-0.000143
H97	H	1.684362	-0.647046	-0.000140
H98	H	1.158814	-0.452240	-0.000163
H99	H	1.161668	-0.344473	-0.000155
N100	N	1.250049	-0.191492	-0.000063
H101	H	1.178262	-0.159650	-0.000052
H102	H	1.244412	-0.215855	-0.084812
H103	H	1.283365	-0.077521	-0.000052
N104	N	1.303915	0.163549	0.649432
H105	H	1.316942	0.157725	0.751495
H106	H	1.317906	0.204012	0.624283
