data_functionalizedCrystal
_audit_creation_method	'MofGen! by Chris Wilmer'
_symmetry_space_group_name_H-M	'P1'
_symmetry_Int_Tables_number	1
_symmetry_cell_setting	triclinic
loop_
_symmetry_equiv_pos_as_xyz
  x,y,z
_cell_length_a	6.817900
_cell_length_b	9.582860
_cell_length_c	10.943624
_cell_angle_alpha	90.879795
_cell_angle_beta	108.838799
_cell_angle_gamma	111.206767
loop_
_atom_site_label
_atom_site_type_symbol
_atom_site_fract_x
_atom_site_fract_y
_atom_site_fract_z
V1	V	-4.128075	-0.207016	-0.402315
O2	O	-4.072597	0.009988	-0.394900
O3	O	-4.118391	-0.410518	-0.399329
O4	O	-4.105843	-0.203814	-0.577885
O5	O	-4.085232	-0.198146	-0.215108
V6	V	-4.603295	-0.181062	-0.379952
O7	O	-4.407545	-0.263949	-0.451370
O8	O	-4.774022	-0.124130	-0.330897
O9	O	-4.389772	0.022439	-0.382937
O10	O	-4.776169	-0.398067	-0.387367
O11	O	-4.763534	-0.189933	-0.567158
O12	O	-4.402320	-0.184264	-0.204381
C13	C	-3.971963	-0.460127	-0.392922
C14	C	-4.045507	-0.626492	-0.391651
C15	C	-3.955955	-0.196455	-0.620686
C16	C	-4.019318	-0.195183	-0.764214
C17	C	-3.863628	-0.186621	-0.841371
C18	C	-4.060709	-0.313713	-0.947216
C19	C	-3.935165	-0.065840	-0.914112
C20	C	-4.215617	-0.322395	-0.868182
C21	C	-4.089986	-0.074410	-0.835055
C22	C	-4.287206	-0.201538	-0.940870
C23	C	-4.199543	0.072041	-0.389341
C24	C	-4.105239	0.238404	-0.390620
C25	C	-4.215550	-0.191629	-0.161574
C26	C	-4.131424	-0.192892	-0.018044
H27	H	-3.684054	-0.180484	-0.797930
C28	C	-4.044889	-0.450377	-1.013201
C29	C	-3.885886	-0.425019	-1.091016
C30	C	-3.870044	-0.561675	-1.156994
C31	C	-4.013204	-0.723689	-1.145157
C32	C	-4.172218	-0.749054	-1.067339
C33	C	-4.188061	-0.612398	-1.001361
H34	H	-3.779900	-0.305081	-1.099781
H35	H	-3.752330	-0.542898	-1.214600
H36	H	-4.001477	-0.824850	-1.193998
H37	H	-4.278205	-0.868992	-1.058574
H38	H	-4.305775	-0.631176	-0.943755
H39	H	-4.333595	-0.430941	-0.847513
C40	C	-4.105688	0.062264	-0.769019
C41	C	-3.959366	0.224310	-0.778801
C42	C	-3.975037	0.360998	-0.712757
C43	C	-4.137031	0.335641	-0.636931
C44	C	-4.283365	0.173588	-0.627145
C45	C	-4.267694	0.036899	-0.693189
H46	H	-3.839438	0.243087	-0.834935
H47	H	-3.866710	0.480961	-0.720001
H48	H	-4.148632	0.436826	-0.588041
H49	H	-4.403293	0.154810	-0.571011
H50	H	-4.376021	-0.083063	-0.685945
C51	C	-3.775842	0.080649	-0.942265
C52	C	-3.808318	0.109355	-1.084167
C53	C	-3.648982	0.255837	-1.112315
C54	C	-3.457169	0.373612	-0.998562
C55	C	-3.424684	0.344909	-0.856650
C56	C	-3.584021	0.198427	-0.828502
H57	H	-3.950317	0.022168	-1.168382
H58	H	-3.673030	0.277084	-1.217368
H59	H	-3.339219	0.482046	-1.019399
H60	H	-3.282686	0.432096	-0.772435
H61	H	-3.559972	0.177180	-0.723449
H62	H	-4.466906	-0.207875	-0.984107
