data_functionalizedCrystal
_audit_creation_method	'MofGen! by Chris Wilmer'
_symmetry_space_group_name_H-M	'P1'
_symmetry_Int_Tables_number	1
_symmetry_cell_setting	triclinic
loop_
_symmetry_equiv_pos_as_xyz
  x,y,z
_cell_length_a	13.897449
_cell_length_b	13.897447
_cell_length_c	19.805399
_cell_angle_alpha	90.020948
_cell_angle_beta	90.019597
_cell_angle_gamma	90.021029
loop_
_atom_site_label
_atom_site_type_symbol
_atom_site_fract_x
_atom_site_fract_y
_atom_site_fract_z
Zn1	Zn	-1.474648	0.384042	-0.382751
Zn2	Zn	-0.974648	0.884042	0.117249
Zn3	Zn	-1.474541	0.545348	-0.269576
Zn4	Zn	-0.974541	1.045348	0.230424
Zn5	Zn	-1.313346	0.384068	-0.269576
Zn6	Zn	-0.813346	0.884068	0.230424
Zn7	Zn	-1.313309	0.545296	-0.382723
Zn8	Zn	-0.813309	1.045296	0.117277
O9	O	-1.393961	0.464688	-0.326157
O10	O	-0.893961	0.964688	0.173843
O11	O	-1.609616	0.405450	-0.367750
O12	O	-1.109616	0.905450	0.132250
O13	O	-1.453130	0.523986	-0.174859
O14	O	-0.953130	1.023986	0.325141
O15	O	-1.334804	0.249083	-0.284601
O16	O	-0.834804	0.749083	0.215399
O17	O	-1.609537	0.523961	-0.284601
O18	O	-1.109537	1.023961	0.215399
O19	O	-1.453311	0.249063	-0.367750
O20	O	-0.953311	0.749063	0.132250
O21	O	-1.334700	0.405494	-0.174859
O22	O	-0.834700	0.905494	0.325141
O23	O	-1.178360	0.405444	-0.284573
O24	O	-0.678360	0.905444	0.215427
O25	O	-1.334740	0.523872	-0.477443
O26	O	-0.834740	1.023872	0.022557
O27	O	-1.178332	0.523898	-0.367702
O28	O	-0.678332	1.023898	0.132298
O29	O	-1.453275	0.405400	-0.477464
O30	O	-0.953275	0.905400	0.022536
O31	O	-1.453093	0.680322	-0.284574
O32	O	-0.953093	1.180322	0.215426
O33	O	-1.334637	0.680284	-0.367702
O34	O	-0.834637	1.180284	0.132298
C35	C	-1.143347	0.464669	-0.326135
C36	C	-0.643347	0.964669	0.173865
C37	C	-1.036133	0.464684	-0.326141
C38	C	-0.536133	0.964684	0.173859
C39	C	-1.393876	0.715303	-0.326149
C40	C	-0.893876	1.215303	0.173851
C41	C	-1.393927	0.822516	-0.326169
C42	C	-0.893927	1.322516	0.173831
C43	C	-0.839838	0.464682	-0.326154
C44	C	-0.339838	0.964682	0.173846
C45	C	-0.949070	0.464680	-0.326145
C46	C	-0.449070	0.964680	0.173855
C47	C	-1.394015	0.464627	-0.502699
C48	C	-0.894015	0.964627	-0.002699
C49	C	-1.394038	0.464601	-0.577931
C50	C	-0.894038	0.964601	-0.077931
C51	C	-0.645554	0.464702	-0.326172
C52	C	-0.145554	0.964702	0.173828
C53	C	-0.752768	0.464691	-0.326162
C54	C	-0.252768	0.964691	0.173838
C55	C	-1.393971	0.909586	-0.326187
C56	C	-0.893971	1.409586	0.173813
C57	C	-1.394036	1.018819	-0.326209
C58	C	-0.894036	1.518819	0.173791
C59	C	-1.394066	1.213095	-0.326187
C60	C	-0.894066	1.713095	0.173813
C61	C	-1.394092	1.105881	-0.326222
C62	C	-0.894092	1.605881	0.173778
C63	C	-1.455761	0.402910	-0.613287
C64	C	-0.955761	0.902910	-0.113287
C65	C	-1.455771	0.402882	-0.683976
C66	C	-0.955771	0.902882	-0.183976
C67	C	-1.394062	0.464551	-0.719307
C68	C	-0.894062	0.964551	-0.219307
C69	C	-1.332333	0.526246	-0.683946
C70	C	-0.832333	1.026246	-0.183946
C71	C	-1.332319	0.526268	-0.613259
C72	C	-0.832319	1.026268	-0.113259
C73	C	-1.332387	0.526156	-0.969019
C74	C	-0.832387	1.026156	-0.469019
C75	C	-1.332408	0.526131	-1.039711
C76	C	-0.832408	1.026131	-0.539711
C77	C	-1.455839	0.402769	-1.039737
C78	C	-0.955839	0.902769	-0.539737
C79	C	-1.455825	0.402792	-0.969049
C80	C	-0.955825	0.902792	-0.469049
C81	C	-1.394093	0.464482	-0.933694
C82	C	-0.894093	0.964482	-0.433694
C83	C	-1.394081	0.464511	-0.857046
C84	C	-0.894081	0.964511	-0.357046
C85	C	-1.394078	0.464528	-0.795954
C86	C	-0.894078	0.964528	-0.295954
C87	C	-1.393963	0.464679	-0.150301
C88	C	-0.893963	0.964679	0.349699
C89	C	-1.394127	0.464433	-0.075069
C90	C	-0.894127	0.964433	0.424931
H91	H	-1.506014	0.352694	-0.584526
H92	H	-1.006014	0.852694	-0.084526
H93	H	-1.506034	0.352648	-0.712760
H94	H	-1.006034	0.852648	-0.212760
H95	H	-1.282048	0.576494	-0.584473
H96	H	-0.782048	1.076494	-0.084473
H97	H	-1.506078	0.352577	-0.940286
H98	H	-1.006078	0.852577	-0.440286
C99	C	-1.264477	0.594014	-0.930138
C100	C	-0.764477	1.094014	-0.430138
N101	N	-1.213321	0.645127	-0.900850
N102	N	-0.713321	1.145127	-0.400850
H103	H	-1.506102	0.352534	-1.068531
H104	H	-1.006102	0.852534	-0.568531
C105	C	-1.264443	0.594073	-0.722813
C106	C	-0.764443	1.094073	-0.222813
N107	N	-1.213307	0.645163	-0.752086
N108	N	-0.713307	1.145163	-0.252086
H109	H	-1.282154	0.576351	-1.068476
H110	H	-0.782154	1.076351	-0.568476
