data_functionalizedCrystal
_audit_creation_method	'MofGen! by Chris Wilmer'
_symmetry_space_group_name_H-M	'P1'
_symmetry_Int_Tables_number	1
_symmetry_cell_setting	triclinic
loop_
_symmetry_equiv_pos_as_xyz
  x,y,z
_cell_length_a	14.446369
_cell_length_b	17.052862
_cell_length_c	17.052862
_cell_angle_alpha	61.493325
_cell_angle_beta	90.000505
_cell_angle_gamma	70.263107
loop_
_atom_site_label
_atom_site_type_symbol
_atom_site_fract_x
_atom_site_fract_y
_atom_site_fract_z
Zr1	Zr	1.072840	0.816645	-0.200429
O2	O	0.970612	0.944543	-0.328560
O3	O	1.081670	0.665923	-0.146238
O4	O	1.131274	0.783724	-0.307049
O5	O	0.907485	0.860669	-0.057861
O6	O	1.283609	0.783718	-0.307044
O7	O	0.921009	0.826742	-0.167749
O8	O	1.194878	0.572993	-0.019382
O9	O	0.996215	1.071394	-0.345523
O10	O	1.226316	0.736366	-0.141139
O11	O	1.102536	0.761690	-0.059135
O12	O	1.160937	0.900385	-0.248469
O13	O	1.037158	0.925709	-0.166465
Zr14	Zr	1.294226	0.870746	-0.025163
Zr15	Zr	1.315797	0.816635	-0.200421
Zr16	Zr	1.051269	0.870755	-0.025171
Zr17	Zr	1.113674	1.018957	-0.227484
Zr18	Zr	1.253393	0.668433	0.001891
O19	O	1.285396	1.021468	-0.079355
O20	O	1.316066	0.944530	-0.328549
O21	O	0.939942	1.021481	-0.079366
O22	O	1.396454	0.742848	0.102967
O23	O	1.427124	0.665910	-0.146226
O24	O	1.051000	0.742860	0.102956
O25	O	1.459582	0.826721	-0.167731
O26	O	1.235793	0.903666	0.081456
O27	O	1.083457	0.903672	0.081451
O28	O	1.446057	0.860649	-0.057844
O29	O	1.189334	1.071386	-0.345517
O30	O	1.177732	0.616004	0.119924
O31	O	1.370851	0.615997	0.119931
O32	O	1.387996	0.572986	-0.019376
O33	O	0.979070	1.114404	-0.206217
O34	O	1.172188	1.114397	-0.206210
O35	O	1.206129	0.787005	0.022877
O36	O	1.329908	0.761681	-0.059127
O37	O	1.264530	0.925701	-0.166458
O38	O	1.140751	0.951025	-0.084454
C39	C	1.132456	0.590633	-0.078955
C40	C	1.115121	0.504746	-0.067470
C41	C	1.324702	0.209774	-0.206328
C42	C	1.340987	0.290472	-0.217125
C43	C	1.284523	0.344044	-0.179712
C44	C	1.211769	0.316911	-0.131500
C45	C	1.195476	0.236209	-0.120708
C46	C	1.155297	0.370479	-0.094092
C47	C	1.082543	0.343346	-0.045881
C48	C	1.066255	0.262652	-0.035090
C49	C	1.122719	0.209080	-0.072503
C50	C	1.171590	0.451181	-0.104884
C51	C	1.042364	0.477616	-0.019265
C52	C	1.026079	0.396918	-0.008468
C53	C	0.879631	0.843707	-0.112806
C54	C	0.776489	0.843710	-0.112810
C55	C	0.588554	0.947225	-0.180241
C56	C	0.695838	0.947217	-0.180541
C57	C	0.765837	0.772747	-0.142605
C58	C	0.658268	0.773389	-0.143083
C59	C	0.643460	0.810252	-0.015394
C60	C	0.749900	0.812459	-0.015835
C61	C	1.487435	0.843684	-0.112786
C62	C	1.590577	0.843680	-0.112783
C63	C	1.210514	0.776011	-0.332017
C64	C	1.219672	0.753040	-0.406418
C65	C	1.234610	1.096757	-0.146637
C66	C	1.251945	1.182644	-0.158123
C67	C	1.108962	1.030763	-0.840251
C68	C	1.100352	1.052348	-0.770349
C69	C	1.130182	0.977523	-0.679364
C70	C	1.168622	0.881109	-0.658286
C71	C	1.177225	0.859521	-0.728194
C72	C	1.198445	0.806282	-0.567307
C73	C	1.236884	0.709867	-0.546229
C74	C	1.245487	0.688283	-0.616132
C75	C	1.215657	0.763108	-0.707118
C76	C	1.189841	0.827869	-0.497398
C77	C	1.258104	0.656628	-0.385342
C78	C	1.266714	0.635042	-0.455243
C79	C	1.156552	0.911379	0.106424
C80	C	1.147394	0.934350	0.180826
C81	C	1.436358	0.590621	-0.078945
C82	C	1.522165	0.504730	-0.067457
C83	C	1.105475	0.658316	0.140265
C84	C	1.078983	0.595401	0.226152
C85	C	1.409377	0.658305	0.140275
C86	C	1.486026	0.595385	0.226166
C87	C	0.957689	1.029085	-0.365868
C88	C	0.881040	1.092005	-0.451758
C89	C	0.930708	1.096769	-0.146647
C90	C	0.844901	1.182660	-0.158136
C91	C	1.261591	1.029074	-0.365858
C92	C	1.288084	1.091990	-0.451745
C93	C	1.508387	0.451179	-0.104878
C94	C	1.589007	0.370481	-0.094101
C95	C	1.683401	0.343333	-0.045897
C96	C	1.697178	0.396893	-0.008475
C97	C	1.616561	0.477593	-0.019258
C98	C	1.120615	0.579071	0.309302
C99	C	1.095720	0.519969	0.390007
C100	C	1.029198	0.477191	0.387561
C101	C	0.987561	0.493525	0.304402
C102	C	1.012450	0.552633	0.223698
C103	C	1.586644	0.552619	0.223695
C104	C	1.658676	0.493508	0.304390
C105	C	1.630089	0.477160	0.387555
C106	C	1.529462	0.519934	0.390022
C107	C	1.457432	0.579049	0.309328
C108	C	0.780424	1.134781	-0.449289
C109	C	0.708397	1.193917	-0.529987
C110	C	0.736985	1.210269	-0.613153
C111	C	0.837611	1.167490	-0.615620
C112	C	0.909638	1.108361	-0.534923
C113	C	0.858681	1.236218	-0.120723
C114	C	0.778069	1.316932	-0.131522
C115	C	0.683675	1.344082	-0.179729
C116	C	0.669897	1.290519	-0.217147
C117	C	0.750510	1.209811	-0.206353
C118	C	1.354609	1.134750	-0.449269
C119	C	1.379520	1.193858	-0.529961
C120	C	1.337900	1.210209	-0.613128
C121	C	1.271371	1.167441	-0.615601
C122	C	1.246466	1.108329	-0.534909
H123	H	1.297787	0.409751	-0.188506
H124	H	1.298011	0.556540	-0.438093
H125	H	1.431536	0.473277	-0.144141
H126	H	0.821980	0.695914	-0.095162
H127	H	1.237489	1.180764	-0.683327
H128	H	0.662917	0.696585	-0.096290
F129	F	1.384779	0.152763	-0.246148
F130	F	1.148933	0.930478	-0.519839
H131	H	1.123169	0.995104	-0.622450
H132	H	1.577770	0.326881	-0.124576
H133	H	1.276777	0.609776	-0.598964
H134	H	1.388506	1.121449	-0.381558
H135	H	0.789305	1.360532	-0.101047
F136	F	1.364413	1.273126	-0.699001
F137	F	0.988814	0.233785	0.016211
F138	F	1.706760	0.414241	0.473431
F139	F	0.597887	1.429981	-0.191209
H140	H	0.597270	0.858199	0.011012
H141	H	1.433690	1.228676	-0.527930
H142	H	1.192292	1.073519	-0.536938
F143	F	0.569428	1.319424	-0.268448
H144	H	1.129634	0.506677	0.457710
H145	H	1.174781	0.613897	0.311311
F146	F	1.499051	0.502526	0.478541
F147	F	0.660317	1.273202	-0.699031
H148	H	0.860878	1.180812	-0.683342
F149	F	1.059416	1.154956	-0.792785
H150	H	1.230826	0.473265	-0.144139
F151	F	1.617092	0.570010	0.135193
F152	F	1.418411	0.319346	-0.268437
F153	F	1.105391	0.123187	-0.061008
F154	F	1.224819	0.740139	-0.781520
F155	F	1.077206	1.110385	-0.937081
H156	H	0.996383	0.521237	0.011197
F157	F	0.948655	0.368028	0.042845
F158	F	0.756116	0.880350	0.013454
F159	F	1.016720	1.062834	-0.537564
F160	F	0.959136	1.207341	-0.069416
F161	F	1.002717	0.414284	0.473462
H162	H	1.740606	0.458685	0.302365
H163	H	1.749036	0.277619	-0.037122
H164	H	1.774045	0.374777	0.030772
F165	F	0.916764	0.447990	0.301813
F166	F	0.735827	1.152812	-0.246171
H167	H	0.700429	1.001744	-0.161686
H168	H	0.540961	1.001876	-0.161331
H169	H	1.375505	0.613863	0.311352
F170	F	0.539521	0.981797	-0.273916
H171	H	0.784293	0.793865	-0.213155
H172	H	0.710944	0.973716	-0.252628
H173	H	1.627792	0.521188	0.011222
H174	H	0.624513	0.795268	-0.214385
H175	H	1.282390	0.595699	-0.311257
F176	F	0.749976	1.117388	-0.360786
F177	F	0.601309	1.239434	-0.527342
H178	H	0.806346	0.738127	0.037409
F179	F	0.649929	0.710795	0.050360
H180	H	0.978548	0.565917	0.155998
