data_functionalizedCrystal
_audit_creation_method	'MofGen! by Chris Wilmer'
_symmetry_space_group_name_H-M	'P1'
_symmetry_Int_Tables_number	1
_symmetry_cell_setting	triclinic
loop_
_symmetry_equiv_pos_as_xyz
  x,y,z
_cell_length_a	16.625545
_cell_length_b	12.594517
_cell_length_c	16.625539
_cell_angle_alpha	89.992676
_cell_angle_beta	90.028107
_cell_angle_gamma	89.980800
loop_
_atom_site_label
_atom_site_type_symbol
_atom_site_fract_x
_atom_site_fract_y
_atom_site_fract_z
Zn1	Zn	-0.321137	-1.627192	0.455625
Zn2	Zn	-0.071137	-1.377192	0.705625
Zn3	Zn	0.178863	-1.127192	0.955625
Zn4	Zn	0.428863	-0.877192	1.205625
Zn5	Zn	-0.455980	-1.627055	0.320793
Zn6	Zn	-0.205980	-1.377055	0.570793
Zn7	Zn	0.044020	-1.127055	0.820793
Zn8	Zn	0.294020	-0.877055	1.070793
Zn9	Zn	-0.321150	-1.449197	0.320837
Zn10	Zn	-0.071150	-1.199197	0.570837
Zn11	Zn	0.178850	-0.949197	0.820837
Zn12	Zn	0.428850	-0.699197	1.070837
Zn13	Zn	-0.455916	-1.449149	0.455614
Zn14	Zn	-0.205916	-1.199149	0.705614
Zn15	Zn	0.044084	-0.949149	0.955614
Zn16	Zn	0.294084	-0.699149	1.205614
O17	O	-0.388546	-1.538148	0.388217
O18	O	-0.138546	-1.288148	0.638217
O19	O	0.111454	-1.038148	0.888217
O20	O	0.361454	-0.788148	1.138217
O21	O	-0.339045	-1.776120	0.437726
O22	O	-0.089045	-1.526120	0.687726
O23	O	0.160955	-1.276120	0.937726
O24	O	0.410955	-1.026120	1.187726
O25	O	-0.438127	-1.603424	0.207967
O26	O	-0.188127	-1.353424	0.457967
O27	O	0.061873	-1.103424	0.707967
O28	O	0.311873	-0.853424	0.957967
O29	O	-0.208316	-1.472886	0.338740
O30	O	0.041684	-1.222886	0.588740
O31	O	0.291684	-0.972886	0.838740
O32	O	0.541684	-0.722886	1.088740
O33	O	-0.438114	-1.776019	0.338665
O34	O	-0.188114	-1.526019	0.588665
O35	O	0.061886	-1.276019	0.838665
O36	O	0.311886	-1.026019	1.088665
O37	O	-0.208306	-1.603658	0.437769
O38	O	0.041694	-1.353658	0.687769
O39	O	0.291694	-1.103658	0.937769
O40	O	0.541694	-0.853658	1.187769
O41	O	-0.339068	-1.472753	0.207999
O42	O	-0.089068	-1.222753	0.457999
O43	O	0.160932	-0.972753	0.707999
O44	O	0.410932	-0.722753	0.957999
O45	O	-0.339006	-1.300245	0.338729
O46	O	-0.089006	-1.050245	0.588729
O47	O	0.160994	-0.800245	0.838729
O48	O	0.410994	-0.550245	1.088729
O49	O	-0.438005	-1.472804	0.568448
O50	O	-0.188005	-1.222804	0.818448
O51	O	0.061995	-0.972804	1.068448
O52	O	0.311995	-0.722804	1.318448
O53	O	-0.438018	-1.300209	0.437749
O54	O	-0.188018	-1.050209	0.687749
O55	O	0.061982	-0.800209	0.937749
O56	O	0.311982	-0.550209	1.187749
O57	O	-0.338984	-1.603611	0.568456
O58	O	-0.088984	-1.353611	0.818456
O59	O	0.161016	-1.103611	1.068456
O60	O	0.411016	-0.853611	1.318456
O61	O	-0.568804	-1.603377	0.338654
O62	O	-0.318804	-1.353377	0.588654
O63	O	-0.068804	-1.103377	0.838654
O64	O	0.181196	-0.853377	1.088654
O65	O	-0.568757	-1.472670	0.437707
O66	O	-0.318757	-1.222670	0.687707
O67	O	-0.068757	-0.972670	0.937707
O68	O	0.181243	-0.722670	1.187707
C69	C	-0.388507	-1.261607	0.388243
C70	C	-0.138507	-1.011607	0.638243
C71	C	0.111493	-0.761607	0.888243
C72	C	0.361493	-0.511607	1.138243
C73	C	-0.388510	-1.143302	0.388274
C74	C	-0.138510	-0.893302	0.638274
C75	C	0.111490	-0.643302	0.888274
C76	C	0.361490	-0.393302	1.138274
C77	C	-0.598037	-1.538033	0.388192
C78	C	-0.348037	-1.288033	0.638192
C79	C	-0.098037	-1.038033	0.888192
C80	C	0.151963	-0.788033	1.138192
C81	C	-0.687658	-1.538080	0.388208
C82	C	-0.437658	-1.288080	0.638208
C83	C	-0.187658	-1.038080	0.888208
C84	C	0.062342	-0.788080	1.138208
C85	C	-0.442466	-1.074060	0.442030
C86	C	-0.192466	-0.824060	0.692030
C87	C	0.057534	-0.574060	0.942030
C88	C	0.307534	-0.324060	1.192030
C89	C	-0.368949	-1.003267	0.461868
C90	C	-0.118949	-0.753267	0.711868
C91	C	0.131051	-0.503267	0.961868
C92	C	0.381051	-0.253267	1.211868
C93	C	-0.462082	-1.003295	0.368428
C94	C	-0.212082	-0.753295	0.618428
C95	C	0.037918	-0.503295	0.868428
C96	C	0.287918	-0.253295	1.118428
C97	C	-0.314954	-1.074067	0.408150
C98	C	-0.064954	-0.824067	0.658150
C99	C	0.185046	-0.574067	0.908150
C100	C	0.435046	-0.324067	1.158150
C101	C	-0.408136	-1.074102	0.314676
C102	C	-0.158136	-0.824102	0.564676
C103	C	0.091864	-0.574102	0.814676
C104	C	0.341864	-0.324102	1.064676
C105	C	-0.334568	-1.003341	0.334486
C106	C	-0.084568	-0.753341	0.584486
C107	C	0.165432	-0.503341	0.834486
C108	C	0.415432	-0.253341	1.084486
C109	C	-0.760440	-1.538122	0.388224
C110	C	-0.510440	-1.288122	0.638224
C111	C	-0.260440	-1.038122	0.888224
C112	C	-0.010440	-0.788122	1.138224
C113	C	-0.851749	-1.538184	0.388242
C114	C	-0.601749	-1.288184	0.638242
C115	C	-0.351749	-1.038184	0.888242
C116	C	-0.101749	-0.788184	1.138242
C117	C	-0.924525	-1.538239	0.388252
C118	C	-0.674525	-1.288239	0.638252
C119	C	-0.424525	-1.038239	0.888252
C120	C	-0.174525	-0.788239	1.138252
C121	C	-1.015840	-1.538300	0.388269
C122	C	-0.765840	-1.288300	0.638269
C123	C	-0.515840	-1.038300	0.888269
C124	C	-0.265840	-0.788300	1.138269
C125	C	-0.178237	-1.538293	0.388261
C126	C	0.071763	-1.288293	0.638261
C127	C	0.321763	-1.038293	0.888261
C128	C	0.571763	-0.788293	1.138261
C129	C	-0.088616	-1.538355	0.388279
C130	C	0.161384	-1.288355	0.638279
C131	C	0.411384	-1.038355	0.888279
C132	C	0.661384	-0.788355	1.138279
C133	C	-0.388486	-1.538217	0.598526
C134	C	-0.138486	-1.288217	0.848526
C135	C	0.111514	-1.038217	1.098526
C136	C	0.361514	-0.788217	1.348526
C137	C	-0.388460	-1.538247	0.688148
C138	C	-0.138460	-1.288247	0.938148
C139	C	0.111540	-1.038247	1.188148
C140	C	0.361540	-0.788247	1.438148
C141	C	-0.388578	-0.815769	0.388204
C142	C	-0.138578	-0.565769	0.638204
C143	C	0.111422	-0.315769	0.888204
C144	C	0.361422	-0.065769	1.138204
C145	C	-0.388573	-0.934074	0.388230
C146	C	-0.138573	-0.684074	0.638230
C147	C	0.111427	-0.434074	0.888230
C148	C	0.361427	-0.184074	1.138230
C149	C	-0.388548	-1.538140	0.178727
C150	C	-0.138548	-1.288140	0.428727
C151	C	0.111452	-1.038140	0.678727
C152	C	0.361452	-0.788140	0.928727
C153	C	-0.388346	-1.538317	0.089106
C154	C	-0.138346	-1.288317	0.339106
C155	C	0.111654	-1.038317	0.589106
C156	C	0.361654	-0.788317	0.839106
C157	C	-0.388370	-1.538296	1.016323
C158	C	-0.138370	-1.288296	1.266323
C159	C	0.111630	-1.038296	1.516323
C160	C	0.361630	-0.788296	1.766323
C161	C	-0.388398	-1.538279	0.925015
C162	C	-0.138398	-1.288279	1.175015
C163	C	0.111602	-1.038279	1.425015
C164	C	0.361602	-0.788279	1.675015
C165	C	-0.388416	-1.538272	0.852238
C166	C	-0.138416	-1.288272	1.102238
C167	C	0.111584	-1.038272	1.352238
C168	C	0.361584	-0.788272	1.602238
C169	C	-0.388442	-1.538254	0.760924
C170	C	-0.138442	-1.288254	1.010924
C171	C	0.111558	-1.038254	1.260924
C172	C	0.361558	-0.788254	1.510924
H173	H	-0.488010	-1.105115	0.487544
H174	H	-0.238010	-0.855115	0.737544
H175	H	0.011990	-0.605115	0.987544
H176	H	0.261990	-0.355115	1.237544
H177	H	-0.524274	-0.972203	0.351663
H178	H	-0.274274	-0.722203	0.601663
H179	H	-0.024274	-0.472203	0.851663
H180	H	0.225726	-0.222203	1.101663
H181	H	-0.252743	-1.105025	0.424987
H182	H	-0.002743	-0.855025	0.674987
H183	H	0.247257	-0.605025	0.924987
H184	H	0.497257	-0.355025	1.174987
O185	O	-0.349305	-0.966184	0.536143
O186	O	-0.099305	-0.716184	0.786143
O187	O	0.150695	-0.466184	1.036143
O188	O	0.400695	-0.216184	1.286143
C189	C	-0.406297	-1.002226	0.592663
C190	C	-0.156297	-0.752226	0.842663
C191	C	0.093703	-0.502226	1.092663
C192	C	0.343703	-0.252226	1.342663
H193	H	-0.464960	-1.022108	0.560498
H194	H	-0.214960	-0.772108	0.810498
H195	H	0.035040	-0.522108	1.060498
H196	H	0.285040	-0.272108	1.310498
H197	H	-0.417684	-0.937442	0.639170
H198	H	-0.167684	-0.687442	0.889170
H199	H	0.082316	-0.437442	1.139170
H200	H	0.332316	-0.187442	1.389170
H201	H	-0.382334	-1.076271	0.624027
H202	H	-0.132334	-0.826271	0.874027
H203	H	0.117666	-0.576271	1.124027
H204	H	0.367666	-0.326271	1.374027
H205	H	-0.288914	-0.972485	0.289008
H206	H	-0.038914	-0.722485	0.539008
H207	H	0.211086	-0.472485	0.789008
H208	H	0.461086	-0.222485	1.039008
O209	O	-0.428076	-1.111206	0.240491
O210	O	-0.178076	-0.861206	0.490491
O211	O	0.071924	-0.611206	0.740491
O212	O	0.321924	-0.361206	0.990491
C213	C	-0.505067	-1.073559	0.219177
C214	C	-0.255067	-0.823559	0.469177
C215	C	-0.005067	-0.573559	0.719177
C216	C	0.244933	-0.323559	0.969177
H217	H	-0.540039	-1.052527	0.275948
H218	H	-0.290039	-0.802527	0.525948
H219	H	-0.040039	-0.552527	0.775948
H220	H	0.209961	-0.302527	1.025948
H221	H	-0.538690	-1.137816	0.184515
H222	H	-0.288690	-0.887816	0.434515
H223	H	-0.038690	-0.637816	0.684515
H224	H	0.211310	-0.387816	0.934515
H225	H	-0.498729	-0.999895	0.179833
H226	H	-0.248729	-0.749895	0.429833
H227	H	0.001271	-0.499895	0.679833
H228	H	0.251271	-0.249895	0.929833
