data_functionalizedCrystal
_audit_creation_method	'MofGen! by Chris Wilmer'
_symmetry_space_group_name_H-M	'P1'
_symmetry_Int_Tables_number	1
_symmetry_cell_setting	triclinic
loop_
_symmetry_equiv_pos_as_xyz
  x,y,z
_cell_length_a	21.295418
_cell_length_b	14.908520
_cell_length_c	14.908308
_cell_angle_alpha	83.639235
_cell_angle_beta	93.257934
_cell_angle_gamma	86.662388
loop_
_atom_site_label
_atom_site_type_symbol
_atom_site_fract_x
_atom_site_fract_y
_atom_site_fract_z
Zn1	Zn	0.925204	0.389534	-0.532998
Zn2	Zn	0.925132	0.532180	-0.390369
Zn3	Zn	0.826383	0.380873	-0.381610
Zn4	Zn	0.813469	0.540894	-0.541626
O5	O	0.872547	0.460870	-0.461651
O6	O	1.013282	0.408435	-0.514133
O7	O	0.917408	0.504837	-0.262549
O8	O	0.844927	0.255355	-0.394416
O9	O	1.013230	0.513235	-0.409344
O10	O	0.917530	0.261719	-0.505640
O11	O	0.844858	0.393673	-0.256114
O12	O	0.736582	0.402122	-0.402782
O13	O	0.822916	0.528087	-0.667139
O14	O	0.727094	0.519689	-0.520344
O15	O	0.905007	0.416884	-0.660801
O16	O	0.904885	0.660002	-0.417709
O17	O	0.822847	0.666404	-0.528837
C18	C	0.708998	0.460912	-0.461549
C19	C	0.639029	0.460953	-0.461529
C20	C	0.862473	0.696048	-0.475180
C21	C	0.858220	0.796659	-0.480998
C22	C	0.862529	0.474424	-0.697729
C23	C	0.858260	0.480200	-0.798332
C24	C	0.601239	0.522241	-0.522661
C25	C	0.535495	0.522221	-0.522701
C26	C	0.507545	0.460921	-0.461592
C27	C	0.545344	0.399621	-0.400454
C28	C	0.611086	0.399637	-0.400423
N29	N	0.407947	0.449285	-0.382019
N30	N	0.345495	0.449276	-0.382051
C31	C	0.309469	0.460869	-0.461684
N32	N	0.338254	0.472490	-0.541286
N33	N	0.400712	0.472504	-0.541252
C34	C	0.436260	0.460897	-0.461620
C35	C	0.200392	0.522139	-0.522865
C36	C	0.134648	0.522113	-0.522905
C37	C	0.144498	0.399518	-0.400651
C38	C	0.210241	0.399539	-0.400618
C39	C	0.238184	0.460855	-0.461724
C40	C	1.036735	0.460829	-0.461753
C41	C	1.106702	0.460812	-0.461797
C42	C	0.882677	0.224776	-0.448089
C43	C	0.886993	0.124166	-0.442310
C44	C	0.935733	0.978997	-0.376306
C45	C	0.931739	1.073531	-0.381770
C46	C	0.846241	1.080262	-0.497392
C47	C	0.850235	0.985728	-0.491929
C48	C	0.894982	0.935099	-0.431383
C49	C	0.898973	0.840564	-0.425915
C50	C	0.813478	0.847297	-0.541542
C51	C	0.809484	0.941830	-0.547005
C52	C	0.935718	0.375236	-0.980775
C53	C	0.931709	0.380660	-1.075300
C54	C	0.846230	0.496465	-1.081908
C55	C	0.850239	0.491042	-0.987383
C56	C	0.894985	0.430426	-0.936820
C57	C	0.898997	0.425007	-0.842294
C58	C	0.813515	0.540808	-0.848903
C59	C	0.809506	0.546232	-0.943428
C60	C	0.882565	0.447304	-0.226487
C61	C	0.886967	0.441273	-0.125870
H62	H	0.623986	0.572168	-0.572420
H63	H	0.522583	0.349709	-0.350700
C64	C	0.760284	0.612899	-0.999058
N65	N	0.723208	0.663114	-1.040957
C66	C	0.797022	1.135970	-0.563986
N67	N	0.759949	1.177930	-0.614142
C68	C	0.984953	0.923303	-0.309704
N69	N	1.022027	0.881355	-0.259539
H70	H	0.964923	1.109269	-0.336922
H71	H	0.780294	0.811544	-0.586386
H72	H	0.773054	0.983065	-0.596302
C73	C	0.796999	0.563115	-1.137543
N74	N	0.759913	0.613310	-1.179447
C75	C	0.493918	0.589649	-0.589952
N76	N	0.462604	0.640437	-0.640604
H77	H	0.641855	0.349726	-0.350641
C78	C	0.948216	0.358326	-0.786675
N79	N	0.985288	0.308097	-0.744786
H80	H	0.223144	0.572062	-0.572625
C81	C	0.984941	0.308563	-0.925154
N82	N	1.022017	0.258343	-0.883261
H83	H	0.780349	0.585750	-0.813105
C84	C	0.948195	0.784873	-0.359314
N85	N	0.985272	0.742929	-0.309150
H86	H	0.241010	0.349636	-0.350833
H87	H	0.964877	0.335716	-1.111085
H88	H	0.121741	0.349602	-0.350899
C89	C	0.093078	0.589546	-0.590153
N90	N	0.061767	0.640342	-0.640801
