data_functionalizedCrystal
_audit_creation_method	'MofGen! by Chris Wilmer'
_symmetry_space_group_name_H-M	'P1'
_symmetry_Int_Tables_number	1
_symmetry_cell_setting	triclinic
loop_
_symmetry_equiv_pos_as_xyz
  x,y,z
_cell_length_a	19.805407
_cell_length_b	19.805405
_cell_length_c	19.805399
_cell_angle_alpha	89.970699
_cell_angle_beta	89.980427
_cell_angle_gamma	90.026410
loop_
_atom_site_label
_atom_site_type_symbol
_atom_site_fract_x
_atom_site_fract_y
_atom_site_fract_z
Zn1	Zn	1.034736	-0.269479	-0.382712
Zn2	Zn	1.368069	0.063854	-0.049378
Zn3	Zn	1.701402	0.397188	0.283955
Zn4	Zn	1.034651	-0.382667	-0.269520
Zn5	Zn	1.367984	-0.049334	0.063813
Zn6	Zn	1.701317	0.283999	0.397147
Zn7	Zn	0.921550	-0.269498	-0.269536
Zn8	Zn	1.254884	0.063836	0.063797
Zn9	Zn	1.588217	0.397169	0.397131
Zn10	Zn	0.921514	-0.382631	-0.382667
Zn11	Zn	1.254847	-0.049298	-0.049333
Zn12	Zn	1.588180	0.284035	0.284000
O13	O	0.978113	-0.326069	-0.326109
O14	O	1.311446	0.007265	0.007225
O15	O	1.644779	0.340598	0.340558
O16	O	1.129441	-0.284501	-0.367708
O17	O	1.462774	0.048833	-0.034375
O18	O	1.796108	0.382166	0.298958
O19	O	1.019627	-0.367678	-0.174805
O20	O	1.352960	-0.034345	0.158528
O21	O	1.686294	0.298989	0.491861
O22	O	0.936616	-0.174778	-0.284575
O23	O	1.269949	0.158555	0.048759
O24	O	1.603282	0.491888	0.382092
O25	O	1.129378	-0.367660	-0.284547
O26	O	1.462712	-0.034326	0.048786
O27	O	1.796045	0.299007	0.382120
O28	O	1.019772	-0.174765	-0.367724
O29	O	1.353106	0.158569	-0.034391
O30	O	1.686439	0.491902	0.298942
O31	O	0.936533	-0.284533	-0.174817
O32	O	1.269866	0.048801	0.158516
O33	O	1.603200	0.382134	0.491849
O34	O	0.826829	-0.284498	-0.284531
O35	O	1.160162	0.048836	0.048802
O36	O	1.493496	0.382169	0.382136
O37	O	0.936553	-0.367598	-0.477389
O38	O	1.269887	-0.034265	-0.144056
O39	O	1.603220	0.299068	0.189277
O40	O	0.826802	-0.367617	-0.367648
O41	O	1.160135	-0.034283	-0.034314
O42	O	1.493469	0.299050	0.299019
O43	O	1.019737	-0.284466	-0.477422
O44	O	1.353070	0.048867	-0.144089
O45	O	1.686404	0.382201	0.189244
O46	O	1.019592	-0.477379	-0.284503
O47	O	1.352925	-0.144046	0.048830
O48	O	1.686258	0.189288	0.382163
O49	O	0.936471	-0.477353	-0.367632
O50	O	1.269804	-0.144019	-0.034299
O51	O	1.603137	0.189314	0.299035
C52	C	0.802257	-0.326056	-0.326087
C53	C	1.135590	0.007278	0.007247
C54	C	1.468923	0.340611	0.340580
C55	C	0.727025	-0.326067	-0.326093
C56	C	1.060358	0.007267	0.007240
C57	C	1.393691	0.340600	0.340573
C58	C	0.691684	-0.369412	-0.369302
C59	C	1.025018	-0.036078	-0.035969
C60	C	1.358351	0.297255	0.297365
C61	C	0.620996	-0.369413	-0.369312
C62	C	0.954329	-0.036080	-0.035978
C63	C	1.287662	0.297254	0.297355
C64	C	0.585649	-0.326072	-0.326109
C65	C	0.918982	0.007262	0.007225
C66	C	1.252316	0.340595	0.340558
C67	C	0.620994	-0.282722	-0.282898
C68	C	0.954328	0.050611	0.050435
C69	C	1.287661	0.383945	0.383769
C70	C	0.691681	-0.282718	-0.282892
C71	C	1.025015	0.050616	0.050441
C72	C	1.358348	0.383949	0.383774
C73	C	0.335921	-0.282737	-0.282920
C74	C	0.669254	0.050596	0.050413
C75	C	1.002588	0.383930	0.383746
C76	C	0.265229	-0.282746	-0.282928
C77	C	0.598562	0.050588	0.050406
C78	C	0.931896	0.383921	0.383739
C79	C	0.265235	-0.369432	-0.369340
C80	C	0.598569	-0.036099	-0.036006
C81	C	0.931902	0.297235	0.297327
C82	C	0.335922	-0.369428	-0.369334
C83	C	0.669256	-0.036094	-0.036001
C84	C	1.002589	0.297239	0.297333
C85	C	0.371262	-0.326076	-0.326126
C86	C	0.704595	0.007258	0.007207
C87	C	1.037928	0.340591	0.340540
C88	C	0.447910	-0.326074	-0.326117
C89	C	0.781243	0.007259	0.007216
C90	C	1.114577	0.340593	0.340549
C91	C	0.509002	-0.326076	-0.326114
C92	C	0.842335	0.007257	0.007220
C93	C	1.175669	0.340590	0.340553
C94	C	0.978036	-0.501925	-0.326076
C95	C	1.311370	-0.168591	0.007258
C96	C	1.644703	0.164742	0.340591
C97	C	0.978066	-0.577157	-0.326084
C98	C	1.311399	-0.243823	0.007249
C99	C	1.644732	0.089510	0.340582
C100	C	1.021389	-0.612492	-0.282845
C101	C	1.354722	-0.279159	0.050489
C102	C	1.688056	0.054174	0.383822
C103	C	1.021418	-0.683181	-0.282860
C104	C	1.354751	-0.349847	0.050474
C105	C	1.688084	-0.016514	0.383807
C106	C	0.978119	-0.718532	-0.326111
C107	C	1.311453	-0.385199	0.007222
C108	C	1.644786	-0.051866	0.340555
C109	C	0.934794	-0.683192	-0.369356
C110	C	1.268128	-0.349859	-0.036023
C111	C	1.601461	-0.016525	0.297311
C112	C	0.934769	-0.612505	-0.369344
C113	C	1.268103	-0.279171	-0.036010
C114	C	1.601436	0.054162	0.297323
C115	C	0.934894	-0.968265	-0.369406
C116	C	1.268227	-0.634932	-0.036073
C117	C	1.601561	-0.301598	0.297261
C118	C	0.934921	-1.038957	-0.369413
C119	C	1.268254	-0.705624	-0.036080
C120	C	1.601588	-0.372291	0.297253
C121	C	1.021542	-1.038941	-0.282922
C122	C	1.354876	-0.705608	0.050411
C123	C	1.688209	-0.372274	0.383745
C124	C	1.021517	-0.968254	-0.282910
C125	C	1.354851	-0.634921	0.050423
C126	C	1.688184	-0.301587	0.383757
C127	C	0.978195	-0.932920	-0.326157
C128	C	1.311529	-0.599586	0.007177
C129	C	1.644862	-0.266253	0.340510
C130	C	0.978166	-0.856271	-0.326141
C131	C	1.311499	-0.522938	0.007193
C132	C	1.644832	-0.189605	0.340526
C133	C	0.978145	-0.795179	-0.326124
C134	C	1.311478	-0.461846	0.007209
C135	C	1.644812	-0.128513	0.340542
C136	C	1.154655	-0.326082	-0.326131
C137	C	1.487989	0.007251	0.007202
C138	C	1.821322	0.340584	0.340536
C139	C	1.229887	-0.326088	-0.326140
C140	C	1.563221	0.007245	0.007193
C141	C	1.896554	0.340579	0.340526
C142	C	0.978151	-0.326026	-0.502651
C143	C	1.311484	0.007307	-0.169318
C144	C	1.644817	0.340641	0.164015
C145	C	0.978167	-0.326008	-0.577883
C146	C	1.311500	0.007325	-0.244550
C147	C	1.644833	0.340659	0.088783
C148	C	0.978207	-0.149526	-0.326156
C149	C	1.311541	0.183807	0.007177
C150	C	1.644874	0.517141	0.340510
C151	C	0.978248	-0.074294	-0.326177
C152	C	1.311581	0.259039	0.007157
C153	C	1.644915	0.592373	0.340490
C154	C	1.021481	-0.282719	-0.613246
C155	C	1.354815	0.050615	-0.279912
C156	C	1.688148	0.383948	0.053421
C157	C	1.021488	-0.282699	-0.683934
C158	C	1.354822	0.050634	-0.350601
C159	C	1.688155	0.383968	-0.017268
C160	C	0.978184	-0.325973	-0.719259
C161	C	1.311517	0.007361	-0.385926
C162	C	1.644850	0.340694	-0.052592
C163	C	0.934864	-0.369264	-0.683892
C164	C	1.268197	-0.035930	-0.350558
C165	C	1.601531	0.297403	-0.017225
C166	C	0.934854	-0.369279	-0.613204
C167	C	1.268188	-0.035946	-0.279871
C168	C	1.601521	0.297387	0.053462
C169	C	0.934902	-0.369201	-0.968965
C170	C	1.268236	-0.035867	-0.635632
C171	C	1.601569	0.297466	-0.302298
C172	C	0.934917	-0.369183	-1.039657
C173	C	1.268250	-0.035850	-0.706324
C174	C	1.601584	0.297484	-0.372991
C175	C	1.021536	-0.282620	-1.039695
C176	C	1.354870	0.050713	-0.706362
C177	C	1.688203	0.384046	-0.373028
C178	C	1.021527	-0.282636	-0.969008
C179	C	1.354860	0.050697	-0.635674
C180	C	1.688193	0.384031	-0.302341
C181	C	0.978205	-0.325924	-0.933647
C182	C	1.311538	0.007409	-0.600313
C183	C	1.644872	0.340742	-0.266980
C184	C	0.978197	-0.325944	-0.856998
C185	C	1.311530	0.007389	-0.523665
C186	C	1.644864	0.340723	-0.190331
C187	C	0.978194	-0.325957	-0.795906
C188	C	1.311528	0.007377	-0.462573
C189	C	1.644861	0.340710	-0.129240
C190	C	0.978114	-0.326062	-0.150253
C191	C	1.311447	0.007271	0.183081
C192	C	1.644780	0.340604	0.516414
C193	C	0.978229	-0.325890	-0.075021
C194	C	1.311562	0.007443	0.258312
C195	C	1.644895	0.340777	0.591646
H196	H	0.236452	-0.247448	-0.247747
H197	H	0.569785	0.085885	0.085587
H198	H	0.903118	0.419219	0.418920
Br199	Br	0.217271	-0.428270	-0.427979
Br200	Br	0.550605	-0.094936	-0.094645
Br201	Br	0.883938	0.238397	0.238688
Br202	Br	0.383873	-0.223898	-0.224285
Br203	Br	0.717206	0.109435	0.109048
Br204	Br	1.050539	0.442769	0.442382
H205	H	0.592209	-0.247430	-0.247724
H206	H	0.925543	0.085903	0.085609
H207	H	1.258876	0.419237	0.418942
H208	H	0.899602	-0.404495	-0.712659
H209	H	1.232935	-0.071162	-0.379325
H210	H	1.566269	0.262171	-0.045992
Br211	Br	0.876037	-0.731168	-0.428061
Br212	Br	1.209370	-0.397835	-0.094728
Br213	Br	1.542704	-0.064502	0.238605
Br214	Br	0.739645	-0.223886	-0.224253
Br215	Br	1.072978	0.109447	0.109080
Br216	Br	1.406311	0.442780	0.442413
H217	H	1.056820	-1.067719	-0.247711
H218	H	1.390153	-0.734385	0.085622
H219	H	1.723487	-0.401052	0.418956
H220	H	1.056644	-0.583713	-0.247621
H221	H	1.389978	-0.250380	0.085712
H222	H	1.723311	0.082953	0.419045
Br223	Br	0.876107	-0.427948	-0.920984
Br224	Br	1.209441	-0.094615	-0.587650
Br225	Br	1.542774	0.238719	-0.254317
H226	H	1.056695	-0.711948	-0.247649
H227	H	1.390029	-0.378614	0.085684
H228	H	1.723362	-0.045281	0.419017
H229	H	0.899576	-0.404523	-0.584413
H230	H	1.232909	-0.071190	-0.251080
H231	H	1.566243	0.262143	0.082253
Br232	Br	0.383890	-0.428254	-0.427965
Br233	Br	0.717223	-0.094921	-0.094631
Br234	Br	1.050556	0.238413	0.238702
Br235	Br	0.876155	-1.086935	-0.428116
Br236	Br	1.209488	-0.753601	-0.094783
Br237	Br	1.542821	-0.420268	0.238551
Br238	Br	0.573036	-0.428239	-0.427956
Br239	Br	0.906369	-0.094906	-0.094623
Br240	Br	1.239703	0.238427	0.238710
H241	H	1.056809	-0.247370	-1.068495
H242	H	1.390142	0.085963	-0.735161
H243	H	1.723475	0.419296	-0.401828
Br244	Br	0.876100	-0.920320	-0.428098
Br245	Br	1.209433	-0.586987	-0.094765
Br246	Br	1.542767	-0.253654	0.238568
H247	H	0.899492	-0.583735	-0.404555
H248	H	1.232826	-0.250402	-0.071221
H249	H	1.566159	0.082931	0.262112
Br250	Br	1.080280	-0.920280	-0.224208
Br251	Br	1.413614	-0.586947	0.109125
Br252	Br	1.746947	-0.253613	0.442459
Br253	Br	1.080261	-0.223992	-0.565312
Br254	Br	1.413594	0.109341	-0.231979
Br255	Br	1.746927	0.442675	0.101355
Br256	Br	1.080307	-0.223978	-0.731924
Br257	Br	1.413640	0.109355	-0.398591
Br258	Br	1.746973	0.442689	-0.065257
H259	H	0.899650	-0.404423	-1.068417
H260	H	1.232983	-0.071090	-0.735083
H261	H	1.566317	0.262244	-0.401750
Br262	Br	0.739648	-0.428240	-0.427933
Br263	Br	1.072981	-0.094907	-0.094600
Br264	Br	1.406315	0.238427	0.238734
Br265	Br	1.080303	-0.223909	-0.921070
Br266	Br	1.413636	0.109424	-0.587737
Br267	Br	1.746970	0.442757	-0.254404
