data_functionalizedCrystal
_audit_creation_method	'MofGen! by Chris Wilmer'
_symmetry_space_group_name_H-M	'P1'
_symmetry_Int_Tables_number	1
_symmetry_cell_setting	triclinic
loop_
_symmetry_equiv_pos_as_xyz
  x,y,z
_cell_length_a	14.853566
_cell_length_b	15.625429
_cell_length_c	14.185292
_cell_angle_alpha	59.451664
_cell_angle_beta	103.180409
_cell_angle_gamma	83.949208
loop_
_atom_site_label
_atom_site_type_symbol
_atom_site_fract_x
_atom_site_fract_y
_atom_site_fract_z
O1	O	1.162444	0.151593	-0.138495
O2	O	0.898609	0.166990	-0.144111
O3	O	1.050373	0.015238	-0.088901
O4	O	1.010680	0.303345	-0.193705
O5	O	1.095219	-0.029592	0.094252
O6	O	0.943455	0.122160	0.039041
O7	O	1.207290	0.106763	0.044658
Cu8	Cu	1.079467	0.110369	0.058573
Cu9	Cu	1.026431	0.163385	-0.158026
O10	O	1.055526	0.258515	-0.010553
C11	C	0.887504	0.143879	-0.052284
C12	C	0.787605	0.141791	-0.051531
C13	C	0.340767	0.157386	-0.148133
C14	C	0.389681	0.108511	0.051547
C15	C	0.483539	0.110474	0.050829
C16	C	0.506015	0.135895	-0.049371
C17	C	0.434633	0.159352	-0.148854
C18	C	0.554927	0.087027	0.150307
C19	C	0.648792	0.088990	0.149594
C20	C	0.671270	0.114404	0.049395
C21	C	0.599881	0.137861	-0.050092
C22	C	0.622357	0.163282	-0.150293
C23	C	0.550970	0.186733	-0.249778
C24	C	0.457111	0.184766	-0.249053
C25	C	0.765129	0.116370	0.048670
C26	C	0.716222	0.165249	-0.151014
C27	C	1.075445	-0.044047	0.016085
C28	C	1.083329	-0.153909	0.056043
C29	C	0.987013	-0.393058	-0.311683
C30	C	0.994425	-0.496298	-0.274103
C31	C	1.043314	-0.545155	-0.074443
C32	C	1.035910	-0.441918	-0.112006
C33	C	1.007758	-0.365877	-0.230627
C34	C	1.056655	-0.414736	-0.030951
C35	C	1.049248	-0.311507	-0.068512
C36	C	1.021094	-0.235460	-0.187128
C37	C	1.000351	-0.262648	-0.268189
C38	C	1.084800	-0.490778	0.087670
C39	C	1.105546	-0.463596	0.168725
C40	C	1.098144	-0.360367	0.131165
C41	C	1.069991	-0.284320	0.012549
C42	C	1.118888	-0.333179	0.212225
C43	C	1.111480	-0.229950	0.174664
C44	C	1.062583	-0.181091	-0.025012
C45	C	1.218394	0.129876	-0.047172
C46	C	1.318291	0.131965	-0.047933
C47	C	1.030453	0.317801	-0.115541
C48	C	1.022568	0.427665	-0.155506
N49	N	1.116776	0.073079	0.210917
N50	N	0.989130	0.200667	-0.310368
C51	C	1.226352	-0.036417	0.408280
C52	C	1.198095	-0.008187	0.292982
C53	C	1.063679	0.126143	0.244126
C54	C	1.091922	0.097921	0.359422
C55	C	1.173259	0.016641	0.441491
C56	C	1.038829	0.150979	0.392634
C57	C	1.067073	0.122762	0.507919
C58	C	1.148409	0.041488	0.589993
C59	C	1.201503	-0.011575	0.556776
C60	C	0.957496	0.232263	0.310562
C61	C	0.904403	0.285321	0.343773
C62	C	0.932643	0.257100	0.459062
C63	C	1.013979	0.175826	0.541136
C64	C	0.879549	0.310163	0.492279
C65	C	0.907793	0.281947	0.607564
C66	C	1.042223	0.147609	0.656421
H67	H	1.039668	-0.119173	-0.121605
Cl68	Cl	1.094111	-0.620553	0.134889
Cl69	Cl	1.011785	-0.105685	-0.234351
H70	H	1.292579	-0.102610	0.475107
Cl71	Cl	0.251035	0.186836	-0.273183
Cl72	Cl	0.802155	0.387501	0.240595
Cl73	Cl	0.964973	-0.167047	-0.417315
H74	H	0.964098	-0.331141	-0.408276
Cl75	Cl	0.968337	-0.530463	-0.376015
H76	H	1.241338	-0.051399	0.265952
Cl77	Cl	1.137566	-0.195775	0.276564
Cl78	Cl	1.154259	-0.428781	0.361342
Cl79	Cl	0.744470	0.197200	-0.276985
Cl80	Cl	0.961431	0.228323	0.140948
H81	H	0.813328	0.376349	0.425442
H82	H	1.128463	-0.525522	0.265307
H83	H	1.066231	-0.607080	0.022139
H84	H	0.569281	0.207437	-0.331364
Cl85	Cl	1.144470	0.045415	0.759602
H86	H	1.171406	0.018518	0.683863
Cl87	Cl	0.361421	0.076567	0.177502
Cl88	Cl	0.367374	0.214206	-0.374095
Cl89	Cl	0.526663	0.055084	0.276260
H90	H	0.706908	0.069893	0.230602
Cl91	Cl	1.303751	-0.113769	0.659957
H92	H	0.823245	0.097287	0.129666
Cl93	Cl	0.921997	0.267737	0.165630
H94	H	0.864559	0.325153	0.634603
