data_functionalizedCrystal
_audit_creation_method	'MofGen! by Chris Wilmer'
_symmetry_space_group_name_H-M	'P1'
_symmetry_Int_Tables_number	1
_symmetry_cell_setting	triclinic
loop_
_symmetry_equiv_pos_as_xyz
  x,y,z
_cell_length_a	21.395362
_cell_length_b	10.686285
_cell_length_c	10.685314
_cell_angle_alpha	90.303498
_cell_angle_beta	94.328484
_cell_angle_gamma	85.645931
loop_
_atom_site_label
_atom_site_type_symbol
_atom_site_fract_x
_atom_site_fract_y
_atom_site_fract_z
Zn1	Zn	0.953446	-0.553216	-0.671786
Zn2	Zn	0.969372	-0.746949	-0.445971
Zn3	Zn	0.856045	-0.537259	-0.461958
Zn4	Zn	0.857279	-0.762976	-0.655604
O5	O	0.909036	-0.650100	-0.558830
O6	O	1.043232	-0.578886	-0.641912
O7	O	0.960488	-0.705748	-0.272547
O8	O	0.861784	-0.363834	-0.503255
O9	O	1.054933	-0.721221	-0.476008
O10	O	0.933344	-0.375558	-0.657414
O11	O	0.877227	-0.551689	-0.284292
O12	O	0.768535	-0.567230	-0.487564
O13	O	0.863887	-0.748536	-0.833296
O14	O	0.769442	-0.733063	-0.629835
O15	O	0.934540	-0.594427	-0.845184
O16	O	0.961684	-0.924616	-0.460317
O17	O	0.879330	-0.936391	-0.614333
C18	C	0.746256	-0.650155	-0.558679
C19	C	0.676618	-0.650211	-0.558642
C20	C	0.922385	-0.976022	-0.533862
C21	C	0.928152	-1.115456	-0.523222
C22	C	0.644402	-0.736658	-0.632594
C23	C	0.578963	-0.736631	-0.632652
C24	C	0.545745	-0.650170	-0.558735
C25	C	0.577968	-0.563707	-0.484779
C26	C	0.643405	-0.563728	-0.484732
C27	C	0.445577	-0.631444	-0.446576
C28	C	0.380142	-0.631432	-0.446620
C29	C	0.343916	-0.650099	-0.558880
C30	C	0.373134	-0.668804	-0.671098
C31	C	0.438571	-0.668825	-0.671051
C32	C	0.474789	-0.650137	-0.558778
C33	C	0.240743	-0.736521	-0.632902
C34	C	0.175303	-0.736486	-0.632963
C35	C	0.174310	-0.563568	-0.485077
C36	C	0.239748	-0.563597	-0.485028
C37	C	0.272961	-0.650080	-0.558938
C38	C	1.072451	-0.650045	-0.558982
C39	C	1.142089	-0.650022	-0.559046
C40	C	0.897575	-0.675049	-0.886030
C41	C	0.892691	-0.685681	-1.025463
C42	C	0.895650	-0.322908	-0.583923
C43	C	0.889946	-0.183478	-0.594616
C44	C	0.920484	-0.625157	-0.232910
C45	C	0.925475	-0.614172	-0.093504
H46	H	0.671440	-0.807078	-0.692780
H47	H	0.552728	-0.807026	-0.692878
H48	H	0.149074	-0.806879	-0.693191
Br49	Br	0.978474	-0.498548	-1.012812
Br50	Br	0.839678	-0.801289	-1.106160
Br51	Br	0.283473	-0.446270	-0.384658
H52	H	0.669635	-0.493329	-0.424512
H53	H	0.475067	-0.616238	-0.355154
Br54	Br	0.532887	-0.446356	-0.384473
Br55	Br	0.323978	-0.694135	-0.823464
Br56	Br	0.478222	-0.694204	-0.823339
H57	H	0.965272	-1.163895	-0.453945
Br58	Br	0.285822	-0.853883	-0.733211
Br59	Br	0.129234	-0.446213	-0.384772
Br60	Br	0.340495	-0.606049	-0.294327
H61	H	0.852824	-1.135045	-0.663881
