data_functionalizedCrystal
_audit_creation_method	'MofGen! by Chris Wilmer'
_symmetry_space_group_name_H-M	'P1'
_symmetry_Int_Tables_number	1
_symmetry_cell_setting	triclinic
loop_
_symmetry_equiv_pos_as_xyz
  x,y,z
_cell_length_a	14.044191
_cell_length_b	12.503572
_cell_length_c	12.837942
_cell_angle_alpha	93.896304
_cell_angle_beta	85.989642
_cell_angle_gamma	93.837835
loop_
_atom_site_label
_atom_site_type_symbol
_atom_site_fract_x
_atom_site_fract_y
_atom_site_fract_z
O1	O	1.285438	0.089266	-0.246522
O2	O	1.618771	0.422600	0.086811
O3	O	1.952105	0.755933	0.420144
O4	O	1.008647	0.089280	-0.237420
O5	O	1.341980	0.422613	0.095914
O6	O	1.675314	0.755947	0.429247
O7	O	1.140905	0.089267	-0.090501
O8	O	1.474238	0.422600	0.242832
O9	O	1.807571	0.755934	0.576166
O10	O	1.153180	0.089280	-0.393441
O11	O	1.486514	0.422613	-0.060108
O12	O	1.819847	0.755946	0.273225
O13	O	1.130960	-0.089374	-0.101570
O14	O	1.464293	0.243959	0.231763
O15	O	1.797626	0.577293	0.565097
O16	O	0.998702	-0.089361	-0.248489
O17	O	1.332036	0.243972	0.084844
O18	O	1.665369	0.577306	0.418178
O19	O	1.275493	-0.089375	-0.257592
O20	O	1.608827	0.243959	0.075742
O21	O	1.942160	0.577292	0.409075
Cu22	Cu	1.136190	-0.105679	-0.254051
Cu23	Cu	1.469523	0.227654	0.079282
Cu24	Cu	1.802856	0.560988	0.412616
Cu25	Cu	1.147951	0.105585	-0.240960
Cu26	Cu	1.481284	0.438918	0.092373
Cu27	Cu	1.814617	0.772251	0.425706
O28	O	1.143236	-0.089361	-0.404510
O29	O	1.476569	0.243972	-0.071177
O30	O	1.809902	0.577305	0.262156
C31	C	0.968001	-0.000039	-0.238972
C32	C	1.301334	0.333295	0.094361
C33	C	1.634667	0.666628	0.427694
C34	C	0.861702	-0.000034	-0.227095
C35	C	1.195035	0.333300	0.106239
C36	C	1.528369	0.666633	0.439572
C37	C	0.617062	-0.000042	-0.289617
C38	C	0.950396	0.333292	0.043716
C39	C	1.283729	0.666625	0.377049
C40	C	0.667084	-0.000043	-0.205398
C41	C	1.000418	0.333290	0.127935
C42	C	1.333751	0.666623	0.461269
C43	C	0.775380	-0.000038	-0.217473
C44	C	1.108713	0.333295	0.115860
C45	C	1.442046	0.666629	0.449194
C46	C	0.508757	-0.000047	-0.277544
C47	C	0.842091	0.333286	0.055789
C48	C	1.175424	0.666620	0.389123
N49	N	1.127925	-0.254270	-0.263258
N50	N	1.461258	0.079063	0.070075
N51	N	1.794591	0.412396	0.403409
C52	C	1.115767	-0.473385	-0.276811
C53	C	1.449101	-0.140051	0.056522
C54	C	1.782434	0.193282	0.389856
C55	C	1.168377	-0.526717	-0.218196
C56	C	1.501710	-0.193383	0.115137
C57	C	1.835044	0.139950	0.448471
C58	C	1.161612	-0.648639	-0.225737
C59	C	1.494946	-0.315306	0.107596
C60	C	1.828279	0.018027	0.440930
C61	C	1.122531	-0.351451	-0.269271
C62	C	1.455864	-0.018118	0.064062
C63	C	1.789197	0.315216	0.397395
C64	C	1.316140	-0.000053	-0.256039
C65	C	1.649473	0.333280	0.077294
C66	C	1.982806	0.666613	0.410628
C67	C	1.422439	-0.000051	-0.267916
C68	C	1.755772	0.333282	0.065417
C69	C	2.089105	0.666615	0.398751
C70	C	1.131786	-0.000053	-0.057031
C71	C	1.465119	0.333281	0.276302
C72	C	1.798452	0.666614	0.609635
C73	C	1.119418	-0.000050	0.059190
C74	C	1.452752	0.333283	0.392523
C75	C	1.786085	0.666616	0.725856
N76	N	1.156222	0.254176	-0.231746
N77	N	1.489556	0.587509	0.101588
N78	N	1.822889	0.920843	0.434921
C79	C	1.152355	-0.000039	-0.437980
C80	C	1.485688	0.333294	-0.104646
C81	C	1.819021	0.666627	0.228687
C82	C	1.164723	-0.000035	-0.554201
C83	C	1.498056	0.333299	-0.220867
C84	C	1.831389	0.666632	0.112466
C85	C	1.268099	-0.000035	0.286397
C86	C	1.601432	0.333298	0.619730
C87	C	1.934765	0.666631	0.953064
C88	C	1.256483	-0.000033	0.395597
C89	C	1.589816	0.333300	0.728931
C90	C	1.923150	0.666634	1.062264
C91	C	1.084572	-0.000036	0.386793
C92	C	1.417906	0.333298	0.720127
C93	C	1.751239	0.666631	1.053460
C94	C	1.096188	-0.000038	0.277593
C95	C	1.429521	0.333295	0.610926
C96	C	1.762855	0.666629	0.944260
C97	C	1.187954	-0.000039	0.227399
C98	C	1.521287	0.333294	0.560732
C99	C	1.854621	0.666627	0.894065
C100	C	1.199569	-0.000049	0.118196
C101	C	1.532902	0.333284	0.451529
C102	C	1.866235	0.666617	0.784862
C103	C	1.027659	-0.000044	0.109395
C104	C	1.360992	0.333289	0.442728
C105	C	1.694326	0.666622	0.776061
C106	C	1.016043	-0.000042	0.218595
C107	C	1.349377	0.333291	0.551928
C108	C	1.682710	0.666625	0.885262
H109	H	1.218499	-0.480809	-0.162351
H110	H	1.551832	-0.147476	0.170982
H111	H	1.885165	0.185858	0.504316
H112	H	1.065650	-0.519287	-0.332654
H113	H	1.398984	-0.185954	0.000680
H114	H	1.732317	0.147380	0.334013
H115	H	1.274289	-0.000055	0.077329
H116	H	1.607622	0.333279	0.410662
H117	H	1.940956	0.666612	0.743996
O118	O	0.663048	0.000163	-0.386414
O119	O	0.996381	0.333496	-0.053081
O120	O	1.329714	0.666830	0.280252
C121	C	0.725824	0.092675	-0.392646
C122	C	1.059158	0.426008	-0.059312
C123	C	1.392491	0.759342	0.274021
H124	H	0.700816	0.157330	-0.331873
H125	H	1.034149	0.490664	0.001460
H126	H	1.367483	0.823997	0.334793
H127	H	0.726347	0.123744	-0.474151
H128	H	1.059680	0.457077	-0.140817
H129	H	1.393013	0.790410	0.192516
H130	H	0.801071	0.071760	-0.376953
H131	H	1.134404	0.405094	-0.043620
H132	H	1.467738	0.738427	0.289714
O133	O	1.357305	0.000010	0.237800
O134	O	1.690638	0.333343	0.571134
O135	O	2.023971	0.666677	0.904467
C136	C	1.425552	-0.000019	0.313290
C137	C	1.758886	0.333314	0.646623
C138	C	2.092219	0.666648	0.979956
H139	H	1.393958	0.033801	0.391937
H140	H	1.727291	0.367134	0.725270
H141	H	2.060624	0.700467	1.058604
H142	H	1.491909	0.051845	0.288027
H143	H	1.825243	0.385178	0.621360
H144	H	2.158576	0.718512	0.954694
H145	H	1.445978	-0.085723	0.320947
H146	H	1.779311	0.247611	0.654281
H147	H	2.112644	0.580944	0.987614
O148	O	0.621123	0.000152	-0.108568
O149	O	0.954456	0.333486	0.224766
O150	O	1.287790	0.666819	0.558099
C151	C	0.568635	0.092661	-0.090867
C152	C	0.901969	0.425994	0.242466
C153	C	1.235302	0.759327	0.575799
H154	H	0.600828	0.157320	-0.143633
H155	H	0.934161	0.490653	0.189700
H156	H	1.267494	0.823986	0.523034
H157	H	0.571578	0.123726	-0.005514
H158	H	0.904912	0.457059	0.327819
H159	H	1.238245	0.790393	0.661152
H160	H	0.491059	0.071742	-0.109139
H161	H	0.824393	0.405075	0.224194
H162	H	1.157726	0.738408	0.557527
H163	H	1.321746	-0.000026	0.443630
H164	H	1.655079	0.333307	0.776963
H165	H	1.988412	0.666641	1.110297
O166	O	0.995503	-0.000079	0.435725
O167	O	1.328836	0.333255	0.769059
O168	O	1.662170	0.666588	1.102392
C169	C	1.002445	-0.000042	0.544761
C170	C	1.335778	0.333291	0.878094
C171	C	1.669111	0.666625	1.211428
H172	H	1.072849	-0.033860	0.561360
H173	H	1.406182	0.299473	0.894694
H174	H	1.739516	0.632807	1.228027
H175	H	0.940254	-0.051903	0.580250
H176	H	1.273587	0.281430	0.913584
H177	H	1.606920	0.614763	1.246917
H178	H	0.999844	0.085664	0.580842
H179	H	1.333178	0.418997	0.914175
H180	H	1.666511	0.752331	1.247508
H181	H	0.941330	-0.000037	0.259479
H182	H	1.274663	0.333297	0.592812
H183	H	1.607996	0.666630	0.926145
H184	H	0.962399	-0.000056	0.061346
H185	H	1.295732	0.333277	0.394679
H186	H	1.629065	0.666610	0.728012
