data_functionalizedCrystal
_audit_creation_method	'MofGen! by Chris Wilmer'
_symmetry_space_group_name_H-M	'P1'
_symmetry_Int_Tables_number	1
_symmetry_cell_setting	triclinic
loop_
_symmetry_equiv_pos_as_xyz
  x,y,z
_cell_length_a	10.968094
_cell_length_b	10.967829
_cell_length_c	9.198806
_cell_angle_alpha	77.868939
_cell_angle_beta	102.123501
_cell_angle_gamma	87.247546
loop_
_atom_site_label
_atom_site_type_symbol
_atom_site_fract_x
_atom_site_fract_y
_atom_site_fract_z
O1	O	1.657124	0.174992	0.250373
O2	O	1.293986	0.191753	0.155207
O3	O	1.483929	0.001794	0.250382
O4	O	1.467181	0.364950	0.155198
O5	O	1.483914	0.001794	0.492164
O6	O	1.293971	0.191752	0.396989
O7	O	1.657109	0.174991	0.492154
Cu8	Cu	1.475538	0.183372	0.466648
Cu9	Cu	1.475556	0.183372	0.180713
O10	O	1.467166	0.364950	0.396979
C11	C	1.247481	0.190534	0.264755
C12	C	1.108932	0.186890	0.230962
C13	C	0.903951	0.181484	0.306212
C14	C	1.047147	0.185260	0.341152
C15	C	1.482702	-0.044706	0.382615
C16	C	1.479052	-0.183261	0.416407
C17	C	1.477433	-0.245027	0.306221
C18	C	1.473661	-0.388232	0.341143
C19	C	1.703614	0.176210	0.382603
C20	C	1.842163	0.179855	0.416387
C21	C	1.468393	0.411450	0.264743
C22	C	1.472042	0.550006	0.230942
N23	N	1.475535	0.183371	0.667761
N24	N	1.475570	0.183364	-0.020395
C25	C	1.555286	0.103261	0.780008
C26	C	1.555306	0.103256	0.947426
H27	H	0.895276	0.181250	0.536579
C28	C	1.118887	0.187173	0.503531
N29	N	1.172923	0.188623	0.625830
C30	C	1.383321	0.276026	0.849416
N31	N	1.313838	0.345818	0.751347
C32	C	1.473941	-0.378220	0.068559
N33	N	1.475372	-0.324160	-0.053746
H34	H	1.477638	-0.236399	0.536593
C35	C	1.471758	-0.460008	0.503524
N36	N	1.470326	-0.514072	0.625827
H37	H	1.623547	0.034673	0.752165
H38	H	0.850839	0.180076	0.186024
C39	C	1.647550	0.010597	1.077622
N40	N	1.717029	-0.059199	1.175691
C41	C	1.479340	-0.173247	0.143849
N42	N	1.480782	-0.119184	0.021549
H43	H	1.055825	0.185490	0.110762
H44	H	1.407266	0.251948	0.695606
