data_functionalizedCrystal
_audit_creation_method	'MofGen! by Chris Wilmer'
_symmetry_space_group_name_H-M	'P1'
_symmetry_Int_Tables_number	1
_symmetry_cell_setting	triclinic
loop_
_symmetry_equiv_pos_as_xyz
  x,y,z
_cell_length_a	27.732048
_cell_length_b	27.732048
_cell_length_c	26.210047
_cell_angle_alpha	89.996535
_cell_angle_beta	89.987768
_cell_angle_gamma	97.357346
loop_
_atom_site_label
_atom_site_type_symbol
_atom_site_fract_x
_atom_site_fract_y
_atom_site_fract_z
O1	O	-0.057510	0.640931	-0.042355
O2	O	-0.066256	0.500138	-0.042369
O3	O	0.008514	0.574907	-0.042369
O4	O	-0.132279	0.566162	-0.042356
O5	O	0.008502	0.574893	0.042489
O6	O	-0.066267	0.500123	0.042489
O7	O	-0.057522	0.640917	0.042503
Cu8	Cu	-0.061896	0.570519	0.050244
Cu9	Cu	-0.061882	0.570536	-0.050110
O10	O	-0.132291	0.566147	0.042502
C11	C	-0.066078	0.482124	0.000058
C12	C	-0.065525	0.428469	0.000052
C13	C	-0.106229	0.089654	0.000078
C14	C	-0.104178	-0.112006	0.000082
O15	O	-0.141398	-0.143262	0.000107
N16	N	-0.059843	-0.131130	0.000077
C17	C	-0.016017	-0.099835	0.000074
O18	O	0.021740	-0.120728	0.000076
C19	C	-0.018068	0.101824	0.000074
C20	C	-0.062407	0.120944	0.000073
C21	C	-0.150563	0.108775	0.000078
C22	C	-0.151076	0.159187	0.000074
C23	C	-0.107253	0.190477	0.000070
C24	C	-0.062919	0.171356	0.000070
C25	C	0.025757	0.133117	0.000075
C26	C	0.025240	0.183535	0.000076
C27	C	-0.019098	0.202655	0.000076
C28	C	-0.019609	0.253059	0.000062
N29	N	-0.063944	0.272183	0.000066
C30	C	-0.107766	0.240892	0.000071
C31	C	-0.014943	-0.205709	0.000074
C32	C	-0.014430	-0.256124	0.000073
C33	C	-0.102591	-0.268291	0.000082
C34	C	-0.103104	-0.217876	0.000079
C35	C	-0.059278	-0.186585	0.000079
C36	C	-0.108839	0.346761	0.000062
C37	C	-0.109347	0.397178	0.000056
C38	C	-0.021186	0.409341	0.000050
C39	C	-0.020678	0.358929	0.000054
C40	C	-0.064508	0.327639	0.000061
O41	O	0.017592	0.284343	0.000042
O42	O	-0.145518	0.261794	0.000081
C43	C	-0.105716	0.039242	0.000081
C44	C	-0.061382	0.020120	0.000081
C45	C	-0.017560	0.051411	0.000077
C46	C	-0.060869	-0.030294	0.000080
C47	C	-0.104691	-0.061585	0.000085
C48	C	-0.149026	-0.042461	0.000089
C49	C	-0.149539	0.007951	0.000086
C50	C	0.026775	0.032287	0.000072
C51	C	0.027284	-0.018125	0.000075
C52	C	-0.016538	-0.049416	0.000080
C53	C	-0.150292	0.566338	0.000075
C54	C	-0.203947	0.566891	0.000080
C55	C	-0.542762	0.526187	0.000051
C56	C	-0.744422	0.528238	0.000045
O57	O	-0.775677	0.491017	0.000019
N58	N	-0.763546	0.572573	0.000050
C59	C	-0.732251	0.616399	0.000054
O60	O	-0.753144	0.654156	0.000053
C61	C	-0.530592	0.614347	0.000056
C62	C	-0.511472	0.570009	0.000056
C63	C	-0.523641	0.481853	0.000051
C64	C	-0.473229	0.481340	0.000055
C65	C	-0.441938	0.525162	0.000060
C66	C	-0.461060	0.569497	0.000060
C67	C	-0.499299	0.658172	0.000056
C68	C	-0.448881	0.657656	0.000055
C69	C	-0.429761	0.613317	0.000055
C70	C	-0.379357	0.612807	0.000069
N71	N	-0.360233	0.568472	0.000064
C72	C	-0.391524	0.524649	0.000059
C73	C	-0.838125	0.617473	0.000054
C74	C	-0.888539	0.617986	0.000054
C75	C	-0.900707	0.529825	0.000045
C76	C	-0.850291	0.529312	0.000048
C77	C	-0.819001	0.573138	0.000048
C78	C	-0.285655	0.523577	0.000069
C79	C	-0.235238	0.523069	0.000075
C80	C	-0.223075	0.611229	0.000082
C81	C	-0.273487	0.611738	0.000078
C82	C	-0.304777	0.567908	0.000070
O83	O	-0.348073	0.650008	0.000090
O84	O	-0.370621	0.486898	0.000049
C85	C	-0.593174	0.526699	0.000047
C86	C	-0.612295	0.571034	0.000048
C87	C	-0.581005	0.614856	0.000052
C88	C	-0.662710	0.571547	0.000048
C89	C	-0.694001	0.527725	0.000043
C90	C	-0.674877	0.483389	0.000038
C91	C	-0.624465	0.482877	0.000042
C92	C	-0.600129	0.659191	0.000058
C93	C	-0.650541	0.659700	0.000054
C94	C	-0.681832	0.615878	0.000049
C95	C	0.026515	0.574716	0.000058
C96	C	0.080170	0.574164	0.000049
C97	C	-0.057699	0.658931	0.000075
C98	C	-0.058252	0.712586	0.000077
N99	N	-0.061905	0.570510	0.120828
N100	N	-0.061868	0.570548	-0.120694
C101	C	-0.028781	0.603640	0.473342
C102	C	-0.028774	0.603651	0.687001
O103	O	-0.000614	0.631801	0.714623
N104	N	-0.061871	0.570538	0.713722
C105	C	-0.094970	0.537419	0.687025
O106	O	-0.123117	0.509251	0.714655
C107	C	-0.094974	0.537406	0.473367
C108	C	-0.061878	0.570524	0.446649
C109	C	0.004312	0.636755	0.446624
C110	C	0.004308	0.636754	0.393213
C111	C	-0.028789	0.603638	0.366519
C112	C	-0.061882	0.570523	0.393238
C113	C	-0.128070	0.504284	0.446671
C114	C	-0.128067	0.504283	0.393253
C115	C	-0.094971	0.537401	0.366535
C116	C	-0.094983	0.537405	0.313133
N117	N	-0.061886	0.570518	0.286412
C118	C	-0.028789	0.603634	0.313105
C119	C	-0.094966	0.537428	0.799198
C120	C	-0.094965	0.537432	0.852612
C121	C	-0.028769	0.603664	0.852585
C122	C	-0.028773	0.603662	0.799170
C123	C	-0.061869	0.570541	0.772477
C124	C	-0.028800	0.603629	0.200937
C125	C	-0.028808	0.603626	0.147521
C126	C	-0.095002	0.537393	0.147553
C127	C	-0.094996	0.537397	0.200965
C128	C	-0.061891	0.570517	0.227656
O129	O	-0.123125	0.509267	0.285478
O130	O	-0.000639	0.631790	0.285466
C131	C	-0.028777	0.603641	0.526754
C132	C	-0.061871	0.570527	0.553472
C133	C	-0.094968	0.537410	0.526779
C134	C	-0.061870	0.570530	0.606886
C135	C	-0.028773	0.603646	0.633579
C136	C	0.004323	0.636759	0.606858
C137	C	0.004320	0.636758	0.553447
C138	C	-0.128064	0.504298	0.553500
C139	C	-0.128058	0.504302	0.606911
C140	C	-0.094961	0.537418	0.633604
H141	H	-0.145454	0.412743	0.000055
H142	H	0.031266	0.663722	0.468353
H143	H	-0.423407	0.693344	0.000053
H144	H	-0.121951	0.510432	0.125812
H145	H	-0.574656	0.694877	0.000061
H146	H	-0.155015	0.477330	0.531770
H147	H	-0.139207	-0.202311	0.000081
H148	H	0.031259	0.663720	0.371462
H149	H	-0.904103	0.654090	0.000062
H150	H	-0.186251	0.083302	0.000083
Br151	Br	-0.162064	-0.310766	0.000088
H152	H	-0.155013	0.477334	0.628661
Br153	Br	0.085934	0.107181	0.000064
Br154	Br	0.016108	0.648577	0.111263
Br155	Br	-0.209715	0.033892	0.000084
Br156	Br	0.049237	0.681706	0.517194
Br157	Br	0.084721	0.225997	0.000079
Br158	Br	0.039496	0.332978	0.000055
H159	H	0.021674	-0.271687	0.000065
H160	H	-0.608902	0.446773	0.000042
Br161	Br	-0.172987	0.459337	0.482921
Br162	Br	-0.525235	0.718349	0.000044
Br163	Br	-0.676483	0.719879	0.000055
H164	H	0.031271	0.663725	0.628601
H165	H	0.014492	0.434827	0.000045
H166	H	-0.001821	0.630629	0.874327
H167	H	-0.155018	0.477311	0.371523
H168	H	-0.834727	0.493208	0.000050
Br169	Br	0.044540	-0.163250	0.000074
H170	H	-0.184708	-0.067947	0.000091
Br171	Br	-0.299438	0.671911	0.000100
H172	H	0.063392	-0.033688	0.000072
Br173	Br	-0.447288	0.421164	0.000049
Br174	Br	-0.209292	0.462892	0.000078
H175	H	-0.700363	0.447708	0.000037
Br176	Br	-0.566098	0.422371	0.000042
Br177	Br	-0.139919	0.492457	0.237224
Br178	Br	-0.328111	0.464093	0.000058
H179	H	0.062462	0.057760	0.000070
H180	H	-0.812652	0.653163	0.000055
Br181	Br	-0.943182	0.470352	0.000039
Br182	Br	0.016129	0.648578	0.237152
Br183	Br	0.016144	0.648609	0.762915
H184	H	-0.121920	0.510469	0.874363
H185	H	-0.187180	0.174750	0.000074
H186	H	-0.197589	0.646908	0.000088
H187	H	-0.144530	0.321291	0.000070
Br188	Br	-0.139887	0.492475	0.762979
