data_functionalizedCrystal
_audit_creation_method	'MofGen! by Chris Wilmer'
_symmetry_space_group_name_H-M	'P1'
_symmetry_Int_Tables_number	1
_symmetry_cell_setting	triclinic
loop_
_symmetry_equiv_pos_as_xyz
  x,y,z
_cell_length_a	15.995350
_cell_length_b	12.837942
_cell_length_c	11.295483
_cell_angle_alpha	85.469583
_cell_angle_beta	94.101747
_cell_angle_gamma	89.160658
loop_
_atom_site_label
_atom_site_type_symbol
_atom_site_fract_x
_atom_site_fract_y
_atom_site_fract_z
O1	O	-1.126724	-0.126645	-0.098922
O2	O	-0.626724	0.373355	0.401078
O3	O	-0.884267	-0.143143	-0.098946
O4	O	-0.384267	0.356857	0.401054
O5	O	-1.000119	0.016009	-0.098927
O6	O	-0.500119	0.516009	0.401073
O7	O	-1.010872	-0.285796	-0.098941
O8	O	-0.510872	0.214204	0.401059
O9	O	-0.989941	0.002051	0.099122
O10	O	-0.489941	0.502051	0.599122
O11	O	-0.874089	-0.157100	0.099103
O12	O	-0.374089	0.342900	0.599103
O13	O	-1.116547	-0.140602	0.099127
O14	O	-0.616547	0.359398	0.599127
Cu15	Cu	-0.994389	-0.150125	0.117198
Cu16	Cu	-0.494389	0.349875	0.617198
Cu17	Cu	-1.006425	-0.133619	-0.117018
Cu18	Cu	-0.506425	0.366381	0.382982
O19	O	-1.000695	-0.299753	0.099108
O20	O	-0.500695	0.200247	0.599108
C21	C	-0.847929	-0.149439	0.000075
C22	C	-0.347929	0.350561	0.500075
C23	C	-0.754816	-0.147393	0.000066
C24	C	-0.254816	0.352607	0.500066
C25	C	-1.152885	-0.134305	0.000103
C26	C	-0.652885	0.365695	0.500103
C27	C	-1.245998	-0.136350	0.000104
C28	C	-0.745998	0.363650	0.500104
C29	C	-0.991398	0.047651	0.000096
C30	C	-0.491398	0.547651	0.500096
C31	C	-0.980565	0.162728	0.000093
C32	C	-0.480565	0.662728	0.500093
C33	C	-0.416481	-0.140051	0.000091
C34	C	0.083519	0.359949	0.500091
C35	C	-0.454849	-0.026737	0.000538
C36	C	0.045151	0.473263	0.500538
C37	C	-0.551725	-0.028750	0.000083
C38	C	-0.051725	0.471250	0.500083
C39	C	-0.584333	-0.143693	0.000079
C40	C	-0.084333	0.356307	0.500079
C41	C	-0.553518	-0.191629	-0.113014
C42	C	-0.053518	0.308371	0.386986
C43	C	-0.456659	-0.188775	-0.113101
C44	C	0.043341	0.311225	0.386899
C45	C	-0.444934	-0.206989	0.112118
C46	C	0.055066	0.293011	0.612118
C47	C	-0.541801	-0.207067	0.113605
C48	C	-0.041801	0.292933	0.613605
C49	C	-0.679196	-0.145757	0.000069
C50	C	-0.179196	0.354243	0.500069
C51	C	-0.321619	-0.137990	0.000094
C52	C	0.178381	0.362010	0.500094
C53	C	-1.009416	-0.331395	0.000082
C54	C	-0.509416	0.168605	0.500082
C55	C	-1.020249	-0.446472	0.000077
C56	C	-0.520249	0.053528	0.500077
N57	N	-0.985930	-0.161734	0.281933
N58	N	-0.485930	0.338266	0.781933
C59	C	-1.110803	0.403687	0.000081
C60	C	-0.610803	0.903687	0.500081
C61	C	-1.100628	0.511813	0.000078
C62	C	-0.600628	1.011813	0.500078
C63	C	-0.950041	0.487109	0.000075
C64	C	-0.450041	0.987109	0.500075
C65	C	-0.960216	0.378983	0.000078
C66	C	-0.460216	0.878983	0.500078
C67	C	-1.040599	0.337276	0.000083
C68	C	-0.540599	0.837276	0.500083
C69	C	-1.050773	0.229147	0.000095
C70	C	-0.550773	0.729147	0.500095
C71	C	-0.900187	0.204446	0.000083
C72	C	-0.400187	0.704446	0.500083
C73	C	-0.890012	0.312572	0.000080
C74	C	-0.390012	0.812572	0.500080
N75	N	-1.014890	-0.122002	-0.281753
N76	N	-0.514890	0.377998	0.218247
C77	C	-1.075780	-0.038379	0.531237
C78	C	-0.575780	0.461621	1.031237
C79	C	-1.069394	-0.047159	0.655900
C80	C	-0.569394	0.452841	1.155900
C81	C	-0.966767	-0.188069	0.655923
C82	C	-0.466767	0.311931	1.155923
C83	C	-0.973153	-0.179289	0.531261
C84	C	-0.473153	0.320711	1.031261
C85	C	-1.027662	-0.104442	0.468922
C86	C	-0.527662	0.395558	0.968922
C87	C	-1.034052	-0.095668	0.344257
C88	C	-0.534052	0.404332	0.844257
C89	C	-0.931422	-0.236572	0.344283
C90	C	-0.431422	0.263428	0.844283
C91	C	-0.925036	-0.245352	0.468945
C92	C	-0.425036	0.254648	0.968945
H93	H	-0.428544	0.012855	0.081642
H94	H	0.071456	0.512855	0.581642
H95	H	-0.824566	0.346545	0.000072
H96	H	-0.324566	0.846545	0.500072
H97	H	-1.157795	0.565882	0.000073
H98	H	-0.657795	1.065882	0.500073
N99	N	-0.824460	0.132816	0.000092
N100	N	-0.324460	0.632816	0.500092
H101	H	-0.843100	0.057989	0.000097
H102	H	-0.343100	0.557989	0.500097
H103	H	-0.793572	0.151489	-0.073328
H104	H	-0.293572	0.651489	0.426672
N105	N	-0.907983	-0.268801	0.723157
N106	N	-0.407983	0.231199	1.223157
H107	H	-0.848714	-0.255302	0.701474
H108	H	-0.348714	0.244698	1.201474
H109	H	-0.911306	-0.264303	0.811566
H110	H	-0.411306	0.235697	1.311566
N111	N	-0.866242	-0.326071	0.536185
N112	N	-0.366242	0.173929	1.036185
H113	H	-0.869495	-0.321608	0.624614
H114	H	-0.369495	0.178392	1.124614
H115	H	-0.882901	-0.398082	0.514394
H116	H	-0.382901	0.101918	1.014394
H117	H	-0.892244	-0.290368	0.293532
H118	H	-0.392244	0.209632	0.793532
H119	H	-1.078439	-0.034727	0.293502
H120	H	-0.578439	0.465273	0.793502
N121	N	-0.863349	0.532103	0.000057
N122	N	-0.363349	1.032103	0.500057
H123	H	-0.867560	0.610678	0.000050
H124	H	-0.367560	1.110678	0.500050
H125	H	-0.828475	0.502647	0.073477
H126	H	-0.328475	1.002647	0.573477
N127	N	-1.121299	0.024088	0.723110
N128	N	-0.621299	0.524088	1.223110
H129	H	-1.158881	-0.019198	0.774822
H130	H	-0.658881	0.480802	1.274822
H131	H	-1.082938	0.066353	0.774775
H132	H	-0.582938	0.566353	1.274775
N133	N	-0.411649	-0.317758	0.113135
N134	N	0.088351	0.182242	0.613135
H135	H	-0.378299	-0.324596	0.041422
H136	H	0.121701	0.175404	0.541422
H137	H	-0.374342	-0.335430	0.188215
H138	H	0.125658	0.164570	0.688215
H139	H	-0.435801	0.024046	-0.080115
H140	H	0.064199	0.524046	0.419885
N141	N	-0.423083	-0.298517	-0.119932
N142	N	0.076917	0.201483	0.380068
H143	H	-0.359962	-0.297520	-0.120045
H144	H	0.140038	0.202480	0.379955
H145	H	-0.439552	-0.344315	-0.048846
H146	H	0.060448	0.155685	0.451154
N147	N	-1.134565	0.042335	0.463973
N148	N	-0.634565	0.542335	0.963973
H149	H	-1.193836	0.028833	0.485643
H150	H	-0.693836	0.528833	0.985643
H151	H	-1.117873	0.114355	0.485688
H152	H	-0.617873	0.614355	0.985688
N153	N	-0.579229	0.021884	0.107470
N154	N	-0.079229	0.521884	0.607470
H155	H	-0.528384	0.045718	0.155530
H156	H	-0.028384	0.545718	0.655530
H157	H	-0.617168	0.084074	0.080374
H158	H	-0.117168	0.584074	0.580374
H159	H	-0.580226	0.021215	-0.081124
H160	H	-0.080226	0.521215	0.418876
H161	H	-0.574597	-0.275778	-0.117222
H162	H	-0.074597	0.224222	0.382778
N163	N	-0.433839	-0.126876	-0.225068
N164	N	0.066161	0.373124	0.274932
H165	H	-0.457787	-0.161345	-0.297008
H166	H	0.042213	0.338655	0.202992
H167	H	-0.457629	-0.053414	-0.226865
H168	H	0.042371	0.446586	0.273135
N169	N	-0.592722	-0.132346	-0.224506
N170	N	-0.092722	0.367654	0.275494
H171	H	-0.630448	-0.074431	-0.202014
H172	H	-0.130448	0.425569	0.297986
H173	H	-0.547143	-0.101417	-0.272964
H174	H	-0.047143	0.398583	0.227036
N175	N	-0.407997	-0.165898	0.225670
N176	N	0.092003	0.334102	0.725670
H177	H	-0.427059	-0.209964	0.296417
H178	H	0.072941	0.290036	0.796417
H179	H	-0.344802	-0.169110	0.227158
H180	H	0.155198	0.330890	0.727158
H181	H	-0.563503	-0.291368	0.120433
H182	H	-0.063503	0.208632	0.620433
N183	N	-0.567970	-0.160826	0.224437
N184	N	-0.067970	0.339174	0.724437
H185	H	-0.607213	-0.099084	0.201220
H186	H	-0.107213	0.400916	0.701220
H187	H	-0.597468	-0.215419	0.274596
H188	H	-0.097468	0.284581	0.774596
H189	H	-1.116225	0.195192	0.000103
H190	H	-0.616225	0.695192	0.500103
H191	H	-1.176253	0.369728	0.000097
H192	H	-0.676253	0.869728	0.500097
