data_functionalizedCrystal
_audit_creation_method	'MofGen! by Chris Wilmer'
_symmetry_space_group_name_H-M	'P1'
_symmetry_Int_Tables_number	1
_symmetry_cell_setting	triclinic
loop_
_symmetry_equiv_pos_as_xyz
  x,y,z
_cell_length_a	14.519709
_cell_length_b	11.026607
_cell_length_c	10.065875
_cell_angle_alpha	100.731764
_cell_angle_beta	81.242070
_cell_angle_gamma	96.133081
loop_
_atom_site_label
_atom_site_type_symbol
_atom_site_fract_x
_atom_site_fract_y
_atom_site_fract_z
O1	O	1.260605	0.141346	-0.113307
O2	O	0.995219	0.160080	-0.113348
O3	O	1.105917	-0.025988	-0.113326
O4	O	1.149907	0.327413	-0.113329
O5	O	1.084832	0.009635	0.113659
O6	O	0.974135	0.195703	0.113637
O7	O	1.239520	0.176969	0.113678
Zn8	Zn	1.103480	0.191992	0.149696
Zn9	Zn	1.131260	0.145057	-0.149366
O10	O	1.128823	0.363037	0.113656
C11	C	1.087259	-0.053405	0.000164
C12	C	1.063067	-0.188173	0.000155
C13	C	0.950174	0.177017	0.000139
C14	C	0.847363	0.174397	0.000123
C15	C	1.129866	-0.261832	0.000163
C16	C	1.104865	-0.401122	0.000155
C17	C	0.470874	0.164772	0.000186
C18	C	0.575624	0.167445	0.000168
C19	C	0.659115	0.169584	0.000153
C20	C	0.763872	0.172258	0.000138
C21	C	1.284566	0.160032	0.000188
C22	C	1.387378	0.162650	0.000195
C23	C	1.147480	0.390453	0.000163
C24	C	1.171673	0.525220	0.000163
N25	N	1.084527	0.224023	0.353798
N26	N	1.150218	0.113016	-0.353468
C27	C	1.124658	0.156194	0.421585
C28	C	1.110081	0.180855	0.578749
H29	H	1.205564	-0.221773	0.000184
H30	H	1.039372	0.300348	0.412115
Br31	Br	1.199631	0.028665	0.324398
Br32	Br	1.225742	-0.013929	0.549355
H33	H	1.247386	-0.434746	0.000072
H34	H	1.029162	-0.441175	0.000134
H35	H	0.987370	-0.228232	0.000135
H36	H	1.064923	0.257185	0.637061
