data_functionalizedCrystal
_audit_creation_method	'MofGen! by Chris Wilmer'
_symmetry_space_group_name_H-M	'P1'
_symmetry_Int_Tables_number	1
_symmetry_cell_setting	triclinic
loop_
_symmetry_equiv_pos_as_xyz
  x,y,z
_cell_length_a	15.995355
_cell_length_b	15.072220
_cell_length_c	15.995280
_cell_angle_alpha	90.001270
_cell_angle_beta	83.478901
_cell_angle_gamma	89.991677
loop_
_atom_site_label
_atom_site_type_symbol
_atom_site_fract_x
_atom_site_fract_y
_atom_site_fract_z
O1	O	-1.110966	0.073692	-0.107942
O2	O	-0.610966	0.573692	0.392058
O3	O	-0.867188	0.073712	-0.121266
O4	O	-0.367188	0.573712	0.378734
O5	O	-0.995772	0.073701	0.007287
O6	O	-0.495772	0.573701	0.507287
O7	O	-0.982383	0.073703	-0.236496
O8	O	-0.482383	0.573703	0.263504
O9	O	-0.995740	-0.073864	0.007280
O10	O	-0.495740	0.426136	0.507280
O11	O	-0.867156	-0.073853	-0.121274
O12	O	-0.367156	0.426147	0.378726
O13	O	-1.110934	-0.073873	-0.107950
O14	O	-0.610934	0.426127	0.392050
Zn15	Zn	-0.989040	-0.097293	-0.114613
Zn16	Zn	-0.489040	0.402707	0.385387
Zn17	Zn	-0.989082	0.097131	-0.114603
Zn18	Zn	-0.489082	0.597131	0.385397
O19	O	-0.982351	-0.073862	-0.236503
O20	O	-0.482351	0.426138	0.263497
C21	C	-0.835978	-0.000068	-0.120719
C22	C	-0.335978	0.499932	0.379281
C23	C	-0.743028	-0.000060	-0.119065
C24	C	-0.243028	0.499940	0.380935
N25	N	-0.989018	-0.229981	-0.114619
N26	N	-0.489018	0.270019	0.385381
C27	C	-0.572843	-0.000073	-0.116064
C28	C	-0.072843	0.499927	0.383936
C29	C	-0.549521	-0.000073	-0.023263
C30	C	-0.049521	0.499927	0.476737
C31	C	-0.452844	-0.000414	-0.021513
C32	C	0.047156	0.499586	0.478487
C33	C	-0.405285	-0.000084	-0.113108
C34	C	0.094715	0.499916	0.386892
C35	C	-0.434347	-0.084183	-0.159775
C36	C	0.065653	0.415817	0.340225
C37	C	-0.531138	-0.084248	-0.160880
C38	C	-0.031138	0.415752	0.339120
C39	C	-0.531085	0.083567	-0.162230
C40	C	-0.031085	0.583567	0.337770
C41	C	-0.434591	0.084667	-0.158800
C42	C	0.065409	0.584667	0.341200
C43	C	-0.310588	-0.000093	-0.111442
C44	C	0.189412	0.499907	0.388558
C45	C	-0.667540	-0.000069	-0.117732
C46	C	-0.167540	0.499931	0.382268
C47	C	-0.989081	-0.589183	-0.114600
C48	C	-0.489081	-0.089183	0.385400
C49	C	-0.920047	-0.551570	-0.183156
C50	C	-0.420047	-0.051570	0.316844
C51	C	-0.920205	-0.448744	-0.183406
C52	C	-0.420205	0.051256	0.316594
C53	C	-0.989049	-0.410979	-0.114609
C54	C	-0.489049	0.089021	0.385391
C55	C	-1.076409	-0.448277	-0.133693
C56	C	-0.576409	0.051723	0.366307
C57	C	-1.076022	-0.551135	-0.134180
C58	C	-0.576022	-0.051135	0.365820
C59	C	-0.971533	-0.551282	-0.026757
C60	C	-0.471533	-0.051282	0.473243
C61	C	-0.969529	-0.448418	-0.027343
C62	C	-0.469529	0.051582	0.472657
C63	C	-0.989036	-0.310265	-0.114613
C64	C	-0.489036	0.189735	0.385387
C65	C	-0.989099	-0.689896	-0.114598
C66	C	-0.489099	-0.189896	0.385402
C67	C	-0.142146	-0.000092	-0.108486
C68	C	0.357854	0.499908	0.391514
C69	C	-0.235100	-0.000096	-0.110107
C70	C	0.264900	0.499904	0.389893
C71	C	-0.995213	-0.000080	0.038479
C72	C	-0.495213	0.499920	0.538479
C73	C	-0.993584	-0.000075	0.131433
C74	C	-0.493584	0.499925	0.631433
N75	N	-0.989111	0.229820	-0.114591
N76	N	-0.489111	0.729820	0.385409
C77	C	-0.987598	-0.000087	0.469173
C78	C	-0.487598	0.499913	0.969173
C79	C	-1.080401	-0.000424	0.445859
C80	C	-0.580401	0.499576	0.945859
C81	C	-1.082161	-0.000087	0.349183
C82	C	-0.582161	0.499913	0.849183
C83	C	-0.990569	-0.000081	0.301616
C84	C	-0.490569	0.499919	0.801616
C85	C	-0.944190	0.084186	0.330722
C86	C	-0.444190	0.584186	0.830722
C87	C	-0.943077	0.084252	0.427513
C88	C	-0.443077	0.584252	0.927513
C89	C	-0.941146	-0.083557	0.427362
C90	C	-0.441146	0.416443	0.927362
C91	C	-0.944581	-0.084666	0.330869
C92	C	-0.444581	0.415334	0.830869
C93	C	-0.992242	-0.000075	0.206920
C94	C	-0.492242	0.499925	0.706920
C95	C	-0.985922	-0.000087	0.563870
C96	C	-0.485922	0.499913	1.063870
C97	C	-0.982921	-0.000083	0.732306
C98	C	-0.482921	0.499917	1.232306
C99	C	-0.984582	-0.000094	0.639357
C100	C	-0.484582	0.499906	1.139357
H101	H	-0.577550	0.060226	0.012709
H102	H	-0.077550	0.560226	0.512709
C103	C	-0.832468	-0.414670	-0.168106
C104	C	-0.332468	0.085330	0.331894
H105	H	-0.832444	-0.351638	-0.168251
H106	H	-0.332444	0.148362	0.331749
H107	H	-0.791800	-0.435805	-0.211428
H108	H	-0.291800	0.064195	0.288572
H109	H	-0.819033	-0.435538	-0.115201
H110	H	-0.319033	0.064462	0.384799
H111	H	-0.545694	-0.087843	-0.228933
H112	H	-0.045694	0.412157	0.271067
H113	H	-0.931408	-0.424131	-0.248593
H114	H	-0.431408	0.075869	0.251407
C115	C	-0.853144	0.088441	0.287669
C116	C	-0.353144	0.588441	0.787669
H117	H	-0.826264	0.139887	0.306161
H118	H	-0.326264	0.639887	0.806161
H119	H	-0.853640	0.090970	0.228388
H120	H	-0.353640	0.590970	0.728388
H121	H	-0.823353	0.037093	0.301912
H122	H	-0.323353	0.537093	0.801912
H123	H	-0.909215	-0.577267	-0.008407
H124	H	-0.409215	-0.077267	0.491593
H125	H	-0.414250	-0.147007	-0.127761
H126	H	0.085750	0.352993	0.372239
H127	H	-0.416056	0.146885	-0.124816
H128	H	0.083944	0.646885	0.375184
C129	C	-0.851164	0.089433	0.447182
C130	C	-0.351164	0.589433	0.947182
H131	H	-0.849862	0.089503	0.506414
H132	H	-0.349862	0.589503	1.006414
H133	H	-0.826078	0.142379	0.423931
H134	H	-0.326078	0.642379	0.923931
H135	H	-0.820852	0.039601	0.423341
H136	H	-0.320852	0.539601	0.923341
H137	H	-1.092245	-0.422509	-0.197026
H138	H	-0.592245	0.077491	0.302974
H139	H	-1.118725	0.060420	0.330781
H140	H	-0.618725	0.560420	0.830781
C141	C	-0.987658	0.168902	0.303526
C142	C	-0.487658	0.668902	0.803526
H143	H	-1.034071	0.153097	0.274455
H144	H	-0.534071	0.653097	0.774455
H145	H	-0.948697	0.202914	0.267462
H146	H	-0.448697	0.702914	0.767462
H147	H	-1.007017	0.202950	0.351859
H148	H	-0.507017	0.702950	0.851859
C149	C	-0.391300	-0.088098	-0.250839
C150	C	0.108700	0.411902	0.249161
H151	H	-0.355132	-0.038362	-0.261231
H152	H	0.144868	0.461638	0.238769
H153	H	-0.432877	-0.087181	-0.288777
H154	H	0.067123	0.412819	0.211223
H155	H	-0.359318	-0.141166	-0.258684
H156	H	0.140682	0.358834	0.241316
H157	H	-0.578501	-0.060292	0.012117
H158	H	-0.078501	0.439708	0.512117
C159	C	-1.131240	-0.081680	0.323473
C160	C	-0.631240	0.418320	0.823473
H161	H	-1.150283	-0.115330	0.372156
H162	H	-0.650283	0.384670	0.872156
H163	H	-1.095505	-0.117332	0.285678
H164	H	-0.595505	0.382668	0.785678
H165	H	-1.178230	-0.062708	0.296740
H166	H	-0.678230	0.437292	0.796740
H167	H	-0.854900	-0.576326	-0.171973
H168	H	-0.354900	-0.076326	0.328027
C169	C	-0.390075	0.091866	-0.249097
C170	C	0.109925	0.591866	0.250903
H171	H	-0.352872	0.043058	-0.260164
H172	H	0.147128	0.543058	0.239836
H173	H	-0.359041	0.145670	-0.254953
H174	H	0.140959	0.645670	0.245047
H175	H	-0.430856	0.091290	-0.287889
H176	H	0.069144	0.591290	0.212111
H177	H	-0.434404	-0.061053	0.014840
H178	H	0.065596	0.438947	0.514840
H179	H	-0.433847	0.059860	0.015017
H180	H	0.066153	0.559860	0.515017
C181	C	-0.934971	-0.586467	-0.270724
C182	C	-0.434971	-0.086467	0.229276
H183	H	-0.983091	-0.623857	-0.265686
H184	H	-0.483091	-0.123857	0.234314
H185	H	-0.887168	-0.619210	-0.294037
H186	H	-0.387168	-0.119210	0.205963
H187	H	-0.943878	-0.537856	-0.306469
H188	H	-0.443878	-0.037856	0.193531
C189	C	-1.033047	-0.413707	0.044806
C190	C	-0.533047	0.086293	0.544806
H191	H	-1.072482	-0.375763	0.022552
H192	H	-0.572482	0.124237	0.522552
H193	H	-1.004004	-0.381594	0.083679
H194	H	-0.504004	0.118406	0.583679
H195	H	-1.061863	-0.462361	0.072688
H196	H	-0.561863	0.037639	0.572688
H197	H	-0.905266	-0.424041	-0.012861
H198	H	-0.405266	0.075959	0.487139
H199	H	-0.559375	0.147332	-0.132950
H200	H	-0.059375	0.647332	0.367050
H201	H	-0.970360	-0.147432	0.455448
H202	H	-0.470360	0.352568	0.955448
H203	H	-0.557918	-0.147353	-0.128947
H204	H	-0.057918	0.352647	0.371053
H205	H	-0.545081	0.084378	-0.230537
H206	H	-0.045081	0.584378	0.269463
H207	H	-1.091488	-0.575118	-0.198243
H208	H	-0.591488	-0.075118	0.301757
H209	H	-0.978351	-0.147007	0.312300
H210	H	-0.478351	0.352993	0.812300
C211	C	-1.147495	-0.584750	-0.069292
C212	C	-0.647495	-0.084750	0.430708
H213	H	-1.176644	-0.535542	-0.042757
H214	H	-0.676644	-0.035542	0.457243
H215	H	-1.124484	-0.619779	-0.028146
H216	H	-0.624484	-0.119779	0.471854
H217	H	-1.185464	-0.619656	-0.096953
H218	H	-0.685464	-0.119656	0.403047
H219	H	-1.116160	-0.060857	0.473853
H220	H	-0.616160	0.439143	0.973853
H221	H	-1.021876	-0.575605	0.024260
H222	H	-0.521876	-0.075605	0.524260
H223	H	-1.115988	0.059663	0.474880
H224	H	-0.615988	0.559663	0.974880
C225	C	-1.147466	-0.415225	-0.068042
C226	C	-0.647466	0.084775	0.431958
H227	H	-1.124431	-0.378293	-0.028318
H228	H	-0.624431	0.121707	0.471682
H229	H	-1.174697	-0.464601	-0.039852
H230	H	-0.674697	0.035399	0.460148
H231	H	-1.187102	-0.382371	-0.095457
H232	H	-0.687102	0.117629	0.404543
C233	C	-0.986465	0.169363	0.463743
C234	C	-0.486465	0.669363	0.963743
H235	H	-1.004612	0.203568	0.419286
H236	H	-0.504612	0.703568	0.919286
H237	H	-0.947866	0.203028	0.491758
H238	H	-0.447866	0.703028	0.991758
H239	H	-1.033685	0.154005	0.502524
H240	H	-0.533685	0.654005	1.002524
H241	H	-0.877727	-0.089751	0.297901
H242	H	-0.377727	0.410249	0.797901
H243	H	-0.872836	-0.084121	0.441354
H244	H	-0.372836	0.415879	0.941354
