data_functionalizedCrystal
_audit_creation_method	'MofGen! by Chris Wilmer'
_symmetry_space_group_name_H-M	'P1'
_symmetry_Int_Tables_number	1
_symmetry_cell_setting	triclinic
loop_
_symmetry_equiv_pos_as_xyz
  x,y,z
_cell_length_a	6.817900
_cell_length_b	11.353959
_cell_length_c	16.255661
_cell_angle_alpha	105.295386
_cell_angle_beta	103.488922
_cell_angle_gamma	107.526623
loop_
_atom_site_label
_atom_site_type_symbol
_atom_site_fract_x
_atom_site_fract_y
_atom_site_fract_z
V1	V	-4.067278	-0.182068	-0.290700
O2	O	-4.012483	0.007662	-0.257719
O3	O	-4.058467	-0.359964	-0.315110
O4	O	-4.018322	-0.179745	-0.405441
O5	O	-4.052905	-0.173806	-0.166763
V6	V	-4.545848	-0.159318	-0.272669
O7	O	-4.339401	-0.231972	-0.330252
O8	O	-4.723923	-0.109413	-0.233118
O9	O	-4.331453	0.018579	-0.248260
O10	O	-4.718040	-0.349047	-0.305651
O11	O	-4.677618	-0.167580	-0.396607
O12	O	-4.371598	-0.161641	-0.157929
C13	C	-3.913116	-0.403317	-0.317336
C14	C	-3.987195	-0.548752	-0.338058
C15	C	-3.977973	-0.595542	-0.270984
C16	C	-4.054536	-0.745857	-0.292400
C17	C	-3.861907	-0.173427	-0.432561
C18	C	-3.903426	-0.172704	-0.526535
C19	C	-3.812059	-0.164074	-0.748082
C20	C	-3.993295	-0.275466	-0.833973
C21	C	-3.979508	-0.171350	-0.698584
C22	C	-3.872279	-0.058682	-0.780143
C23	C	-4.052983	-0.170035	-0.864774
C24	C	-4.160248	-0.282842	-0.783260
C25	C	-4.039149	-0.065959	-0.729400
C26	C	-4.220528	-0.177383	-0.815276
C27	C	-3.937176	-0.172108	-0.602847
C28	C	-4.095335	-0.169287	-0.960513
C29	C	-4.140147	0.061924	-0.246033
C30	C	-4.045307	0.207358	-0.225316
C31	C	-4.191356	-0.167963	-0.130805
C32	C	-4.129074	-0.168679	-0.036829
H33	H	-4.119121	-0.817077	-0.365685
N34	N	-3.964305	-0.703293	-0.133383
N35	N	-3.902225	-0.581313	-0.116114
H36	H	-3.845014	-0.518208	-0.051188
N37	N	-3.969522	-0.386582	-0.890590
N38	N	-3.790487	-0.399560	-0.872169
H39	H	-3.773682	-0.478034	-0.912149
N40	N	-4.312509	-0.401807	-0.783906
N41	N	-4.439099	-0.395798	-0.739783
H42	H	-4.546630	-0.479817	-0.740237
N43	N	-4.437725	-0.184485	-0.851876
N44	N	-4.598114	-0.281947	-0.860148
H45	H	-4.751513	-0.286969	-0.885999
H46	H	-4.058007	0.022621	-0.684238
N47	N	-3.720112	0.060140	-0.779716
N48	N	-3.594891	0.053853	-0.824475
H49	H	-3.487426	0.137759	-0.824187
N50	N	-3.595069	-0.157204	-0.711346
N51	N	-3.538699	-0.246147	-0.749203
H52	H	-3.385455	-0.241302	-0.723260
H53	H	-3.913407	-0.524319	-0.197704
H54	H	-4.051779	-0.619976	-0.411338
