data_functionalizedCrystal
_audit_creation_method	'MofGen! by Chris Wilmer'
_symmetry_space_group_name_H-M	'P1'
_symmetry_Int_Tables_number	1
_symmetry_cell_setting	triclinic
loop_
_symmetry_equiv_pos_as_xyz
  x,y,z
_cell_length_a	9.198806
_cell_length_b	10.654550
_cell_length_c	10.654550
_cell_angle_alpha	84.484931
_cell_angle_beta	89.996970
_cell_angle_gamma	89.999292
loop_
_atom_site_label
_atom_site_type_symbol
_atom_site_fract_x
_atom_site_fract_y
_atom_site_fract_z
O1	O	0.120784	-1.667840	-0.176396
O2	O	0.620784	-1.167840	0.323604
O3	O	0.120810	-1.302362	-0.193202
O4	O	0.620810	-0.802362	0.306798
O5	O	0.120787	-1.493504	-0.002060
O6	O	0.620787	-0.993504	0.497940
O7	O	0.120807	-1.476698	-0.367539
O8	O	0.620807	-0.976698	0.132461
O9	O	-0.120998	-1.493489	-0.002060
O10	O	0.379002	-0.993489	0.497940
O11	O	-0.120975	-1.302347	-0.193202
O12	O	0.379025	-0.802347	0.306798
O13	O	-0.121002	-1.667825	-0.176396
O14	O	0.378998	-1.167825	0.323604
Cu15	Cu	-0.143065	-1.485085	-0.184799
Cu16	Cu	0.356935	-0.985085	0.315201
Cu17	Cu	0.142874	-1.485103	-0.184799
Cu18	Cu	0.642874	-0.985103	0.315201
O19	O	-0.120978	-1.476683	-0.367538
O20	O	0.379022	-0.976683	0.132462
C21	C	-0.000079	-1.255556	-0.191968
C22	C	0.499921	-0.755556	0.308032
C23	C	-0.000069	-1.116113	-0.188276
C24	C	0.499931	-0.616113	0.311724
N25	N	-0.344179	-1.485081	-0.184798
N26	N	0.155821	-0.985081	0.315202
C27	C	-0.000105	-1.492263	0.044738
C28	C	0.499895	-0.992263	0.544738
C29	C	-0.000102	-1.488571	0.184181
C30	C	0.499898	-0.988571	0.684181
C31	C	-0.416386	-1.565336	-0.104188
C32	C	0.083614	-1.065336	0.395812
C33	C	-0.583798	-1.565356	-0.104184
C34	C	-0.083798	-1.065356	0.395816
N35	N	0.343988	-1.485116	-0.184791
N36	N	0.843988	-0.985116	0.315209
C37	C	-0.000109	-1.714631	-0.177630
C38	C	0.499891	-1.214631	0.322370
C39	C	-0.000110	-1.854074	-0.181322
C40	C	0.499890	-1.354074	0.318678
C41	C	-0.000067	-1.036628	-0.300818
C42	C	0.499933	-0.536628	0.199182
C43	C	-0.000093	-0.905607	-0.297341
C44	C	0.499907	-0.405607	0.202659
C45	C	-0.000116	-0.933570	-0.068772
C46	C	0.499884	-0.433570	0.431228
C47	C	-0.000101	-1.064588	-0.072250
C48	C	0.499899	-0.564588	0.427750
C49	C	-0.000084	-1.477925	-0.414336
C50	C	0.499916	-0.977925	0.085664
C51	C	-0.000077	-1.481616	-0.553779
C52	C	0.499923	-0.981616	-0.053779
C53	C	-0.000110	-1.601112	0.263667
C54	C	0.499890	-1.101112	0.763667
C55	C	-0.000092	-1.597636	0.394688
C56	C	0.499908	-1.097636	0.894688
C57	C	-0.000065	-1.369066	0.366725
C58	C	0.499935	-0.869066	0.866725
C59	C	-0.000072	-1.372544	0.235706
C60	C	0.499928	-0.872544	0.735706
H61	H	-0.354268	-1.634028	-0.035174
H62	H	0.145732	-1.134028	0.464826
H63	H	-0.000052	-1.078574	-0.395294
H64	H	0.499948	-0.578574	0.104706
H65	H	-0.000150	-0.891602	0.025693
H66	H	0.499850	-0.391602	0.525693
H67	H	-0.000095	-1.689279	0.459401
H68	H	0.499905	-1.189279	0.959401
H69	H	-0.000131	-1.695588	0.221720
H70	H	0.499869	-1.195588	0.721720
C71	C	-0.667673	-1.658177	-0.010948
C72	C	-0.167673	-1.158177	0.489052
H73	H	-0.769189	-1.646006	-0.023169
H74	H	-0.269189	-1.146006	0.476831
H75	H	-0.642786	-1.742192	-0.025101
H76	H	-0.142786	-1.242192	0.474899
H77	H	-0.642806	-1.643578	0.072960
H78	H	-0.142806	-1.143578	0.572960
C79	C	-0.000080	-0.818178	-0.421137
C80	C	0.499920	-0.318178	0.078863
H81	H	-0.000048	-0.867634	-0.490731
H82	H	0.499952	-0.367634	0.009269
H83	H	-0.084401	-0.766492	-0.424542
H84	H	0.415599	-0.266492	0.075458
H85	H	0.084241	-0.766482	-0.424524
H86	H	0.584241	-0.266482	0.075476
C87	C	-0.428079	-1.392256	-0.278011
C88	C	0.071921	-0.892256	0.221989
H89	H	-0.361067	-1.341891	-0.328575
H90	H	0.138933	-0.841891	0.171425
H91	H	-0.487461	-1.438081	-0.330525
H92	H	0.012539	-0.938081	0.169475
H93	H	-0.487450	-1.339502	-0.232429
H94	H	0.012550	-0.839502	0.267571
C95	C	-0.000096	-1.152028	0.051552
C96	C	0.499904	-0.652028	0.551552
H97	H	-0.000096	-1.102579	0.121151
H98	H	0.499904	-0.602579	0.621151
H99	H	-0.084405	-1.203727	0.054944
H100	H	0.415595	-0.703727	0.554944
H101	H	0.084237	-1.203711	0.054942
H102	H	0.584237	-0.703711	0.554942
H103	H	-0.593927	-1.416407	-0.253812
H104	H	-0.093927	-0.916407	0.246188
C105	C	-0.000056	-1.248746	0.148261
C106	C	0.499944	-0.748746	0.648261
H107	H	-0.000047	-1.267437	0.062853
H108	H	0.499953	-0.767437	0.562853
H109	H	-0.084362	-1.201203	0.163986
H110	H	0.415638	-0.701203	0.663986
H111	H	0.084281	-1.201235	0.163984
H112	H	0.584281	-0.701235	0.663984
H113	H	-0.000043	-1.274601	0.408693
H114	H	0.499957	-0.774601	0.908693
