data_functionalizedCrystal
_audit_creation_method	'MofGen! by Chris Wilmer'
_symmetry_space_group_name_H-M	'P1'
_symmetry_Int_Tables_number	1
_symmetry_cell_setting	triclinic
loop_
_symmetry_equiv_pos_as_xyz
  x,y,z
_cell_length_a	6.817900
_cell_length_b	9.582860
_cell_length_c	16.255661
_cell_angle_alpha	93.082919
_cell_angle_beta	103.488922
_cell_angle_gamma	111.206767
loop_
_atom_site_label
_atom_site_type_symbol
_atom_site_fract_x
_atom_site_fract_y
_atom_site_fract_z
V1	V	-4.066850	-0.208264	-0.263715
O2	O	-4.012501	0.008764	-0.258855
O3	O	-4.057621	-0.411756	-0.261758
O4	O	-4.017900	-0.205606	-0.378800
O5	O	-4.052497	-0.198813	-0.141002
V6	V	-4.545474	-0.182240	-0.249056
O7	O	-4.338856	-0.265349	-0.295870
O8	O	-4.723666	-0.125156	-0.216901
O9	O	-4.331497	0.021252	-0.251013
O10	O	-4.717220	-0.399268	-0.253917
O11	O	-4.677224	-0.191691	-0.371769
O12	O	-4.371218	-0.184898	-0.133971
C13	C	-3.912169	-0.461346	-0.257558
C14	C	-3.985905	-0.627706	-0.256725
C15	C	-3.861499	-0.198379	-0.406856
C16	C	-3.903020	-0.197553	-0.500938
C17	C	-3.811674	-0.187680	-0.723764
C18	C	-3.992647	-0.315100	-0.793145
C19	C	-3.979106	-0.196003	-0.673188
C20	C	-3.872142	-0.067125	-0.771446
C21	C	-4.052584	-0.194499	-0.839573
C22	C	-4.159583	-0.323537	-0.741338
C23	C	-4.038994	-0.075449	-0.719624
C24	C	-4.220111	-0.202905	-0.788985
C25	C	-3.936772	-0.196871	-0.577338
C26	C	-4.094937	-0.193643	-0.935422
C27	C	-4.140293	0.070834	-0.255211
C28	C	-4.045794	0.237193	-0.256049
C29	C	-4.190961	-0.192130	-0.105911
C30	C	-4.128678	-0.192948	-0.011828
H31	H	-3.638711	-0.181409	-0.695288
C32	C	-4.064739	0.061438	-0.676341
N33	N	-4.084106	0.164555	-0.643735
C34	C	-4.453988	-0.211675	-0.827308
N35	N	-4.630147	-0.218298	-0.856187
C36	C	-3.966777	-0.451968	-0.836398
N37	N	-3.947274	-0.555051	-0.868975
H38	H	-4.280707	-0.432019	-0.727790
C39	C	-3.708517	0.079277	-0.789896
N40	N	-3.585262	0.189543	-0.803789
