data_functionalizedCrystal
_audit_creation_method	'MofGen! by Chris Wilmer'
_symmetry_space_group_name_H-M	'P1'
_symmetry_Int_Tables_number	1
_symmetry_cell_setting	triclinic
loop_
_symmetry_equiv_pos_as_xyz
  x,y,z
_cell_length_a	16.120530
_cell_length_b	18.050588
_cell_length_c	16.120297
_cell_angle_alpha	87.127354
_cell_angle_beta	89.871860
_cell_angle_gamma	87.125117
loop_
_atom_site_label
_atom_site_type_symbol
_atom_site_fract_x
_atom_site_fract_y
_atom_site_fract_z
Zn1	Zn	1.247396	-0.376247	0.534565
Zn2	Zn	1.254332	-0.494471	0.395507
Zn3	Zn	1.115387	-0.363697	0.388483
Zn4	Zn	1.108289	-0.493787	0.527477
O5	O	1.181351	-0.432050	0.461508
O6	O	1.364681	-0.397467	0.522025
O7	O	1.241775	-0.472158	0.278210
O8	O	1.132966	-0.261442	0.407888
O9	O	1.369778	-0.484326	0.419860
O10	O	1.229952	-0.270661	0.515214
O11	O	1.139693	-0.376079	0.273049
O12	O	0.998080	-0.375416	0.401015
O13	O	1.120868	-0.483161	0.644782
O14	O	0.992865	-0.470992	0.503133
O15	O	1.223069	-0.396804	0.649990
O16	O	1.234892	-0.598300	0.412987
O17	O	1.127594	-0.597798	0.509944
C18	C	0.965300	-0.421768	0.450543
C19	C	0.872872	-0.417388	0.445871
C20	C	1.181247	-0.624996	0.461478
C21	C	1.181277	-0.707544	0.461496
C22	C	0.703643	-0.409375	0.437350
C23	C	0.659896	-0.454783	0.485727
C24	C	0.565732	-0.450324	0.480985
C25	C	0.797816	-0.413833	0.442090
C26	C	1.123016	-0.956128	0.514227
C27	C	1.197806	-0.911136	0.538472
C28	C	1.181447	-1.004675	0.461552
C29	C	1.106575	-0.902582	0.437318
C30	C	1.181360	-0.858685	0.461526
C31	C	1.256276	-0.960774	0.485839
C32	C	1.164996	-0.952220	0.384646
C33	C	1.239840	-0.907252	0.408866
C34	C	1.181497	-1.088776	0.461568
C35	C	1.181319	-0.774586	0.461510
C36	C	1.398246	-0.442373	0.472517
C37	C	1.490673	-0.446772	0.477208
C38	C	1.170403	-0.441306	0.678402
C39	C	1.165737	-0.445250	0.770830
C40	C	1.181477	-0.238353	0.461558
C41	C	1.181531	-0.155810	0.461579
C42	C	1.192305	-0.422779	0.245460
C43	C	1.197131	-0.418634	0.153041
C44	C	1.157189	-0.452433	0.940054
C45	C	1.205677	-0.411453	0.983822
C46	C	1.200921	-0.415449	1.077984
C47	C	1.161944	-0.448438	0.845883
H48	H	0.693164	-0.497006	0.530705
H49	H	1.250761	-0.373365	0.950574
Br50	Br	1.361776	-1.002983	0.520106
H51	H	1.211690	-0.892953	0.603499
H52	H	1.112109	-0.490518	0.973300
Br53	Br	1.141819	-0.982556	0.276291
H54	H	0.670378	-0.367155	0.392376
Br55	Br	1.040813	-0.991922	0.588550
H56	H	1.289270	-0.885922	0.364312
H57	H	1.043294	-0.877166	0.416833
