data_functionalizedCrystal
_audit_creation_method	'MofGen! by Chris Wilmer'
_symmetry_space_group_name_H-M	'P1'
_symmetry_Int_Tables_number	1
_symmetry_cell_setting	triclinic
loop_
_symmetry_equiv_pos_as_xyz
  x,y,z
_cell_length_a	14.519709
_cell_length_b	19.288865
_cell_length_c	12.996460
_cell_angle_alpha	90.005525
_cell_angle_beta	90.000602
_cell_angle_gamma	83.408197
loop_
_atom_site_label
_atom_site_type_symbol
_atom_site_fract_x
_atom_site_fract_y
_atom_site_fract_z
O1	O	-1.223293	-0.091045	-0.085445
O2	O	-0.954748	-0.101767	-0.085478
O3	O	-1.096780	0.004696	-0.085440
O4	O	-1.081261	-0.197509	-0.085483
O5	O	-1.096762	0.004690	0.085693
O6	O	-0.954730	-0.101774	0.085656
O7	O	-1.223275	-0.091051	0.085689
Cu8	Cu	-1.089001	-0.096413	0.101298
Cu9	Cu	-1.089022	-0.096406	-0.101088
O10	O	-1.081243	-0.197515	0.085651
C11	C	-0.920382	-0.101271	0.000085
C12	C	-0.818010	-0.099773	0.000073
C13	C	-1.096272	0.030571	0.000130
C14	C	-1.094773	0.107680	0.000138
C15	C	-1.257640	-0.091548	0.000123
C16	C	-1.360012	-0.093045	0.000128
C17	C	-0.443150	-0.094261	0.000121
C18	C	-0.547448	-0.095792	0.000108
C19	C	-0.630577	-0.097017	0.000096
C20	C	-0.734882	-0.098548	0.000084
C21	C	-1.081751	-0.223390	0.000079
C22	C	-1.083250	-0.300499	0.000063
N23	N	-1.088992	-0.096418	0.243645
C24	C	-1.178111	0.152077	0.000154
C25	C	-1.176702	0.224529	0.000137
C26	C	-1.091951	0.252581	0.000126
C27	C	-1.008602	0.208175	0.000105
C28	C	-1.010013	0.135725	0.000111
C29	C	-1.025321	0.361106	0.060062
C30	C	-1.023914	0.433556	0.060063
C31	C	-1.087597	0.476043	0.000103
C32	C	-1.152703	0.446072	-0.059844
C33	C	-1.154114	0.373622	-0.059838
C34	C	-1.090412	0.331141	0.000119
C35	C	-1.169414	0.599000	0.000099
C36	C	-1.168002	0.671454	0.000076
C37	C	-0.999899	0.655098	0.000054
C38	C	-1.001314	0.582647	0.000066
C39	C	-1.086073	0.554602	0.000094
N40	N	-1.089038	-0.096396	-0.243435
C41	C	-1.088996	-0.096419	0.336751
C42	C	-1.089005	-0.096415	0.453556
C43	C	-1.089016	-0.096407	0.546654
C44	C	-1.089026	-0.096403	0.663467
H45	H	-1.247128	0.129248	0.000172
Br46	Br	-0.884878	0.693161	0.000029
H47	H	-0.973460	0.326519	0.108895
Br48	Br	-0.896902	0.075468	0.000088
Br49	Br	-0.888205	0.522390	0.000047
H50	H	-0.939597	0.231020	0.000094
Br51	Br	-1.289812	0.284793	0.000153
H52	H	-1.207124	0.349223	-0.108651
Br53	Br	-1.239138	0.503724	-0.141224
Br54	Br	-1.284441	0.560936	0.000146
Br55	Br	-1.281114	0.731709	0.000085
Br56	Br	-0.935563	0.474223	0.141425
