data_functionalizedCrystal
_audit_creation_method	'MofGen! by Chris Wilmer'
_symmetry_space_group_name_H-M	'P1'
_symmetry_Int_Tables_number	1
_symmetry_cell_setting	triclinic
loop_
_symmetry_equiv_pos_as_xyz
  x,y,z
_cell_length_a	14.044209
_cell_length_b	9.565339
_cell_length_c	14.044190
_cell_angle_alpha	90.004600
_cell_angle_beta	86.810135
_cell_angle_gamma	90.001629
loop_
_atom_site_label
_atom_site_type_symbol
_atom_site_fract_x
_atom_site_fract_y
_atom_site_fract_z
O1	O	-1.277173	0.116119	0.230151
O2	O	-1.000501	0.116158	0.221848
O3	O	-1.134681	0.116112	0.087663
O4	O	-1.142994	0.116165	0.364336
O5	O	-1.134670	-0.116409	0.087671
O6	O	-1.000491	-0.116362	0.221856
O7	O	-1.277162	-0.116401	0.230159
Zn8	Zn	-1.138825	-0.153299	0.226009
Zn9	Zn	-1.138839	0.153056	0.225998
O10	O	-1.142983	-0.116355	0.364344
C11	C	-0.964874	-0.000098	0.218216
C12	C	-0.858731	-0.000084	0.207373
N13	N	-1.138822	-0.362379	0.226016
C14	C	-0.664393	-0.000112	0.187548
C15	C	-0.613265	-0.000102	0.264463
C16	C	-0.505128	-0.000118	0.253432
C17	C	-0.772539	-0.000096	0.198577
C18	C	-1.076746	-0.453560	0.288048
C19	C	-1.164585	-0.546747	0.313867
C20	C	-1.051021	-0.546747	0.200208
C21	C	-1.226708	-0.453514	0.251882
C22	C	-1.113084	-0.453506	0.138180
C23	C	-1.200982	-0.546650	0.163968
C24	C	-0.312790	-0.000138	0.233793
C25	C	-0.418932	-0.000131	0.244642
C26	C	-1.131039	-0.000152	0.052045
C27	C	-1.120192	-0.000163	-0.054098
N28	N	-1.138849	0.362135	0.225984
C29	C	-1.177292	-0.000116	-0.299557
C30	C	-1.100376	-0.000115	-0.248430
C31	C	-1.111404	-0.000141	-0.140294
C32	C	-1.166265	-0.000089	-0.407703
C33	C	-1.146625	-0.000088	0.399962
C34	C	-1.157472	-0.000068	0.506105
H35	H	-0.626954	-0.000134	0.113420
H36	H	-1.026243	-0.000096	-0.285873
H37	H	-0.650706	-0.000082	0.338596
N38	N	-1.275484	-0.000173	-0.249968
H39	H	-1.311368	0.086013	-0.268999
H40	H	-1.269457	-0.000249	-0.178642
H41	H	-1.253552	-0.587267	0.111498
H42	H	-1.091271	-0.412517	0.063934
H43	H	-1.024307	-0.412687	0.340563
N44	N	-1.193444	-0.600998	0.412241
H45	H	-1.140460	-0.660607	0.436213
H46	H	-1.253290	-0.659020	0.409286
N47	N	-1.325113	-0.399511	0.280890
H48	H	-1.324490	-0.293926	0.280750
H49	H	-1.344646	-0.434353	0.346998
H50	H	-0.976758	-0.587704	0.178394
