data_functionalizedCrystal
_audit_creation_method	'MofGen! by Chris Wilmer'
_symmetry_space_group_name_H-M	'P1'
_symmetry_Int_Tables_number	1
_symmetry_cell_setting	triclinic
loop_
_symmetry_equiv_pos_as_xyz
  x,y,z
_cell_length_a	14.971506
_cell_length_b	10.654550
_cell_length_c	13.448316
_cell_angle_alpha	89.994587
_cell_angle_beta	89.992937
_cell_angle_gamma	84.053645
loop_
_atom_site_label
_atom_site_type_symbol
_atom_site_fract_x
_atom_site_fract_y
_atom_site_fract_z
O1	O	1.187827	0.163780	-0.082696
O2	O	0.927536	0.183352	-0.082696
O3	O	1.063666	-0.009237	-0.082693
O4	O	1.051697	0.356369	-0.082700
O5	O	1.063649	-0.009249	0.082691
O6	O	0.927519	0.183340	0.082687
O7	O	1.187810	0.163768	0.082688
Cu8	Cu	1.057663	0.173553	0.097788
Cu9	Cu	1.057683	0.173567	-0.097797
O10	O	1.051680	0.356357	0.082684
C11	C	0.894198	0.182466	-0.000005
C12	C	0.794888	0.179830	-0.000005
C13	C	1.062779	-0.056031	-0.000002
C14	C	1.060150	-0.195447	-0.000005
C15	C	0.357166	0.282910	-0.000017
C16	C	0.450480	0.285378	-0.000021
C17	C	0.507084	0.172224	-0.000015
C18	C	0.470370	0.056596	-0.000014
C19	C	0.377058	0.054130	-0.000016
C20	C	0.664861	0.061744	-0.000005
C21	C	0.758180	0.064210	-0.000001
C22	C	0.738283	0.292992	-0.000010
C23	C	0.644971	0.290526	-0.000013
C24	C	0.608264	0.174897	-0.000010
C25	C	1.140301	-0.275784	-0.000002
C26	C	1.137825	-0.406778	-0.000009
C27	C	0.975039	-0.377085	-0.000018
C28	C	0.977516	-0.246093	-0.000018
C29	C	1.222934	-0.225137	0.000011
C30	C	1.303092	-0.305476	0.000015
C31	C	1.300616	-0.436470	0.000008
C32	C	1.217982	-0.487126	-0.000003
C33	C	1.221148	0.164654	-0.000007
C34	C	1.320458	0.167291	-0.000013
C35	C	1.052567	0.403152	-0.000009
C36	C	1.055197	0.542567	-0.000012
N37	N	1.057655	0.173543	0.235353
N38	N	1.057698	0.173568	-0.235362
C39	C	1.117953	0.088299	0.287395
C40	C	1.117958	0.088298	0.391498
C41	C	1.057670	0.173547	0.443557
C42	C	0.997366	0.258795	0.391508
C43	C	0.997357	0.258789	0.287407
C44	C	0.997391	0.258803	0.608488
C45	C	0.997401	0.258811	0.712596
C46	C	1.117992	0.088313	0.712579
C47	C	1.117983	0.088307	0.608478
C48	C	1.057680	0.173556	0.556436
H49	H	0.311085	0.375053	-0.000015
Br50	Br	1.199788	-0.027395	0.462130
H51	H	0.912250	-0.180680	-0.000020
Br52	Br	0.500294	0.442297	-0.000036
Br53	Br	0.915537	0.374484	0.462156
H54	H	1.167050	0.018885	0.245015
H55	H	0.948282	0.328218	0.566119
H56	H	1.365884	-0.501879	0.000001
H57	H	0.598886	0.382666	-0.000012
Br58	Br	1.199810	-0.027377	0.537822
H59	H	1.215973	-0.593792	-0.000020
Br60	Br	0.327240	-0.102788	-0.000015
H61	H	0.948307	0.328229	0.754978
H62	H	0.948255	0.328201	0.245035
H63	H	0.768174	0.387141	-0.000012
H64	H	0.804265	-0.027929	-0.000003
Br65	Br	0.615045	-0.095182	0.000003
H66	H	0.516465	-0.035535	-0.000014
H67	H	0.907763	-0.418340	-0.000026
Br68	Br	1.226299	-0.047360	0.000027
Br69	Br	1.415232	-0.236732	0.000012
Br70	Br	1.199835	-0.027375	0.783211
