data_functionalizedCrystal
_audit_creation_method	'MofGen! by Chris Wilmer'
_symmetry_space_group_name_H-M	'P1'
_symmetry_Int_Tables_number	1
_symmetry_cell_setting	triclinic
loop_
_symmetry_equiv_pos_as_xyz
  x,y,z
_cell_length_a	17.699083
_cell_length_b	12.996460
_cell_length_c	17.699083
_cell_angle_alpha	89.992964
_cell_angle_beta	96.716985
_cell_angle_gamma	89.999557
loop_
_atom_site_label
_atom_site_type_symbol
_atom_site_fract_x
_atom_site_fract_y
_atom_site_fract_z
O1	O	1.004077	0.085425	-0.095713
O2	O	1.337410	0.418758	0.237621
O3	O	1.670744	0.752091	0.570954
O4	O	0.783698	0.085459	-0.108165
O5	O	1.117032	0.418792	0.225168
O6	O	1.450365	0.752125	0.558502
O7	O	0.900114	0.085432	0.008250
O8	O	1.233447	0.418765	0.341584
O9	O	1.566781	0.752098	0.674917
O10	O	0.887661	0.085452	-0.212128
O11	O	1.220995	0.418785	0.121205
O12	O	1.554328	0.752118	0.454539
O13	O	0.900102	-0.085702	0.008257
O14	O	1.233435	0.247631	0.341590
O15	O	1.566768	0.580964	0.674923
O16	O	0.783686	-0.085675	-0.108159
O17	O	1.117020	0.247658	0.225175
O18	O	1.450353	0.580991	0.558508
O19	O	1.004065	-0.085709	-0.095706
O20	O	1.337398	0.247624	0.237627
O21	O	1.670731	0.580957	0.570960
Cu22	Cu	0.893874	-0.101318	-0.101932
Cu23	Cu	1.227208	0.232015	0.231401
Cu24	Cu	1.560541	0.565349	0.564735
Cu25	Cu	0.893889	0.101067	-0.101939
Cu26	Cu	1.227222	0.434401	0.231394
Cu27	Cu	1.560555	0.767734	0.564727
O28	O	0.887649	-0.085682	-0.212122
O29	O	1.220983	0.247651	0.121212
O30	O	1.554316	0.580985	0.454545
C31	C	0.755495	-0.000104	-0.107716
C32	C	1.088829	0.333229	0.225618
C33	C	1.422162	0.666563	0.558951
C34	C	0.671477	-0.000091	-0.106377
C35	C	1.004811	0.333242	0.226956
C36	C	1.338144	0.666575	0.560290
N37	N	0.893870	-0.243665	-0.101926
N38	N	1.227203	0.089668	0.231407
N39	N	1.560537	0.423002	0.564741
C40	C	0.622856	-0.000085	-0.174710
C41	C	0.956190	0.333248	0.158623
C42	C	1.289523	0.666581	0.491956
C43	C	0.543913	-0.000099	-0.173448
C44	C	0.877246	0.333234	0.159885
C45	C	1.210580	0.666568	0.493218
C46	C	0.513592	-0.000111	-0.103852
C47	C	0.846926	0.333222	0.229482
C48	C	1.180259	0.666556	0.562815
C49	C	0.562219	-0.000120	-0.035513
C50	C	0.895553	0.333213	0.297820
C51	C	1.228886	0.666547	0.631154
C52	C	0.641161	-0.000114	-0.036776
C53	C	0.974495	0.333220	0.296557
C54	C	1.307828	0.666553	0.629891
C55	C	0.243856	-0.000146	-0.030418
C56	C	0.577190	0.333188	0.302915
C57	C	0.910523	0.666521	0.636249
C58	C	0.164908	-0.000149	-0.029160
C59	C	0.498242	0.333185	0.304173
C60	C	0.831575	0.666518	0.637507
C61	C	0.146608	-0.000131	-0.167090
C62	C	0.479942	0.333202	0.166243
C63	C	0.813275	0.666536	0.499577
C64	C	0.225550	-0.000125	-0.168353
C65	C	0.558883	0.333209	0.164980
C66	C	0.892217	0.666542	0.498314
C67	C	0.274170	-0.000139	-0.100015
C68	C	0.607504	0.333194	0.233319
C69	C	0.940837	0.666527	0.566652
C70	C	0.359769	-0.000127	-0.101384
C71	C	0.693103	0.333207	0.231949
C72	C	1.026436	0.666540	0.565282
C73	C	0.427995	-0.000116	-0.102481
C74	C	0.761328	0.333217	0.230852
C75	C	1.094661	0.666551	0.564185
C76	C	0.893888	-0.663479	-0.101940
C77	C	1.227221	-0.330146	0.231393
C78	C	1.560554	0.003187	0.564726
C79	C	0.893880	-0.546674	-0.101939
C80	C	1.227214	-0.213341	0.231395
C81	C	1.560547	0.119992	0.564728
C82	C	0.893879	-0.453576	-0.101934
C83	C	1.227213	-0.120243	0.231400
C84	C	1.560546	0.213091	0.564733
C85	C	0.893871	-0.336763	-0.101931
C86	C	1.227205	-0.003430	0.231402
C87	C	1.560538	0.329903	0.564735
C88	C	1.032268	-0.000144	-0.096156
C89	C	1.365601	0.333189	0.237178
C90	C	1.698934	0.666522	0.570511
C91	C	1.116286	-0.000150	-0.097494
C92	C	1.449619	0.333183	0.235839
C93	C	1.782953	0.666516	0.569172
C94	C	0.899662	-0.000135	0.036451
C95	C	1.232995	0.333198	0.369784
C96	C	1.566328	0.666531	0.703117
C97	C	0.898323	-0.000136	0.120469
C98	C	1.231656	0.333198	0.453802
C99	C	1.564990	0.666531	0.787135
N100	N	0.893899	0.243415	-0.101939
N101	N	1.227233	0.576748	0.231394
N102	N	1.560566	0.910081	0.564727
C103	C	0.888102	-0.000113	-0.240322
C104	C	1.221435	0.333220	0.093011
C105	C	1.554768	0.666554	0.426345
C106	C	0.889440	-0.000106	-0.324340
C107	C	1.222773	0.333227	0.008993
C108	C	1.556107	0.666561	0.342327
C109	C	0.966656	-0.000148	0.169090
C110	C	1.299990	0.333186	0.502423
C111	C	1.633323	0.666519	0.835756
C112	C	0.965394	-0.000138	0.248033
C113	C	1.298727	0.333195	0.581366
C114	C	1.632061	0.666528	0.914700
C115	C	0.895798	-0.000124	0.278354
C116	C	1.229131	0.333209	0.611687
C117	C	1.562464	0.666542	0.945020
C118	C	0.827459	-0.000109	0.229727
C119	C	1.160792	0.333224	0.563060
C120	C	1.494126	0.666557	0.896393
C121	C	0.828722	-0.000111	0.150785
C122	C	1.162055	0.333222	0.484118
C123	C	1.495389	0.666555	0.817451
C124	C	0.822364	-0.000100	0.548090
C125	C	1.155697	0.333233	0.881423
C126	C	1.489030	0.666567	1.214756
C127	C	0.821106	-0.000101	0.627038
C128	C	1.154439	0.333232	0.960371
C129	C	1.487773	0.666565	1.293704
C130	C	0.959036	-0.000127	0.645338
C131	C	1.292369	0.333206	0.978671
C132	C	1.625703	0.666539	1.312004
C133	C	0.960299	-0.000129	0.566396
C134	C	1.293632	0.333204	0.899729
C135	C	1.626966	0.666538	1.233063
C136	C	0.891961	-0.000109	0.517776
C137	C	1.225294	0.333225	0.851109
C138	C	1.558627	0.666558	1.184442
C139	C	0.893330	-0.000117	0.432177
C140	C	1.226664	0.333217	0.765510
C141	C	1.559997	0.666550	1.098843
C142	C	0.894427	-0.000124	0.363951
C143	C	1.227761	0.333210	0.697285
C144	C	1.561094	0.666543	1.030618
H145	H	0.647537	-0.000075	-0.231384
H146	H	0.980870	0.333258	0.101949
H147	H	1.314204	0.666592	0.435283
F148	F	1.034373	-0.000143	0.534131
F149	F	1.367706	0.333190	0.867464
F150	F	1.701039	0.666524	1.200798
H151	H	0.107012	-0.000125	-0.222734
H152	H	0.440345	0.333209	0.110599
H153	H	0.773678	0.666542	0.443933
H154	H	1.021038	-0.000150	0.287618
H155	H	1.354372	0.333183	0.620951
H156	H	1.687705	0.666516	0.954284
F157	F	1.031768	-0.000145	0.697089
F158	F	1.365102	0.333188	1.030423
F159	F	1.698435	0.666521	1.363756
H160	H	0.764429	-0.000092	0.651721
H161	H	1.097762	0.333241	0.985054
H162	H	1.431096	0.666575	1.318388
F163	F	0.132641	-0.000162	0.044918
F164	F	0.465975	0.333172	0.378251
F165	F	0.799308	0.666505	0.711584
H166	H	0.766718	-0.000084	0.508512
H167	H	1.100052	0.333250	0.841845
H168	H	1.433385	0.666583	1.175179
F169	F	1.040732	-0.000172	0.136828
F170	F	1.374065	0.333161	0.470161
F171	F	1.707398	0.666494	0.803494
H172	H	0.504328	-0.000093	-0.229092
H173	H	0.837662	0.333240	0.104241
H174	H	1.170995	0.666574	0.437574
H175	H	0.283434	-0.000158	0.025228
H176	H	0.616767	0.333175	0.358561
H177	H	0.950101	0.666508	0.691894
F178	F	0.257815	-0.000106	-0.242427
F179	F	0.591148	0.333228	0.090907
F180	F	0.924482	0.666561	0.424240
F181	F	0.692907	-0.000124	0.035954
F182	F	1.026241	0.333210	0.369287
F183	F	1.359574	0.666543	0.702620
H184	H	0.770792	-0.000091	0.254420
H185	H	1.104126	0.333242	0.587753
H186	H	1.437459	0.666575	0.921087
H187	H	0.773078	-0.000101	0.111198
H188	H	1.106411	0.333232	0.444531
H189	H	1.439745	0.666565	0.777864
H190	H	0.537526	-0.000144	0.021154
H191	H	0.870859	0.333189	0.354487
H192	H	1.204193	0.666522	0.687820
