data_functionalizedCrystal
_audit_creation_method	'MofGen! by Chris Wilmer'
_symmetry_space_group_name_H-M	'P1'
_symmetry_Int_Tables_number	1
_symmetry_cell_setting	triclinic
loop_
_symmetry_equiv_pos_as_xyz
  x,y,z
_cell_length_a	10.540539
_cell_length_b	10.654550
_cell_length_c	9.130313
_cell_angle_alpha	90.000110
_cell_angle_beta	89.998199
_cell_angle_gamma	84.505197
loop_
_atom_site_label
_atom_site_type_symbol
_atom_site_fract_x
_atom_site_fract_y
_atom_site_fract_z
O1	O	-1.685816	-0.176986	-0.121726
O2	O	-1.316397	-0.193663	-0.121744
O3	O	-1.509601	-0.002588	-0.121729
O4	O	-1.492613	-0.368061	-0.121741
O5	O	-1.509598	-0.002593	0.121870
O6	O	-1.316395	-0.193668	0.121855
O7	O	-1.685814	-0.176992	0.121873
Cu8	Cu	-1.501104	-0.185330	0.144106
Cu9	Cu	-1.501107	-0.185324	-0.143978
O10	O	-1.492611	-0.368066	0.121858
C11	C	-1.269094	-0.192415	0.000053
C12	C	-1.128147	-0.188673	0.000046
C13	C	-1.508352	0.044208	0.000068
C14	C	-1.504620	0.183652	0.000063
C15	C	-1.733118	-0.178240	0.000072
C16	C	-1.874064	-0.181981	0.000069
C17	C	-0.944772	-0.045302	0.000620
C18	C	-1.091388	-0.049095	0.000055
C19	C	-1.066451	-0.255841	-0.139057
C20	C	-0.919909	-0.251077	-0.139158
C21	C	-0.919416	-0.253923	0.137859
C22	C	-1.066398	-0.255208	0.139682
C23	C	-1.493859	-0.414862	0.000057
C24	C	-1.497591	-0.554306	0.000053
N25	N	-1.501112	-0.185334	0.346729
C26	C	-1.618375	0.263098	0.000073
C27	C	-1.614861	0.394120	0.000063
C28	C	-1.383827	0.366238	0.000039
C29	C	-1.387343	0.235218	0.000038
C30	C	-1.735653	0.211532	0.000098
C31	C	-1.849417	0.290979	0.000109
C32	C	-1.845903	0.422001	0.000099
C33	C	-1.728625	0.473576	0.000077
N34	N	-1.501110	-0.185311	-0.346600
C35	C	-1.586684	-0.100755	0.423387
C36	C	-1.586681	-0.100740	0.576724
C37	C	-1.415528	-0.269893	0.576731
C38	C	-1.415526	-0.269901	0.423397
C39	C	-1.672269	-0.016187	0.346720
C40	C	-1.757850	0.068397	0.423378
C41	C	-1.757846	0.068412	0.576715
C42	C	-1.672262	-0.016157	0.653393
H43	H	-0.916205	0.009838	0.100379
H44	H	-0.887886	-0.208754	0.243299
H45	H	-1.345850	-0.338748	0.639172
O46	O	-1.672258	-0.016196	0.181336
H47	H	-1.746135	0.056825	0.140899
O48	O	-1.739443	0.070216	0.000121
H49	H	-1.690504	0.029640	-0.099163
O50	O	-1.323241	-0.361129	0.340697
H51	H	-1.263743	-0.419948	0.419767
H52	H	-1.827520	0.137292	0.639129
O53	O	-1.975907	0.235363	0.000127
H54	H	-1.959243	0.130909	0.000146
H55	H	-1.827522	0.137258	0.360939
H56	H	-1.288345	0.408241	0.000023
O57	O	-1.122873	-0.194024	-0.276186
H58	H	-1.078495	-0.242342	-0.373799
H59	H	-1.725773	0.580264	0.000053
H60	H	-1.672258	-0.016129	0.778251
O61	O	-1.968596	0.507696	0.000117
H62	H	-2.050731	0.449822	0.000149
O63	O	-1.264652	0.149520	0.000047
H64	H	-1.208579	0.167983	-0.099235
O65	O	-1.147861	0.020899	0.132150
H66	H	-1.124817	0.120329	0.128052
O67	O	-0.904783	0.027454	-0.130764
H68	H	-0.834772	-0.033310	-0.196458
H69	H	-0.891717	-0.201430	-0.243137
O70	O	-1.146729	0.021397	-0.132257
H71	H	-1.068751	0.058320	-0.196098
H72	H	-0.871903	-0.351460	-0.145475
H73	H	-1.088767	-0.358344	-0.144236
H74	H	-1.090588	-0.356970	0.148078
O75	O	-1.120671	-0.190224	0.276009
H76	H	-1.191335	-0.110871	0.244463
O77	O	-0.856796	-0.387459	0.139118
H78	H	-0.883439	-0.436821	0.038248
