data_functionalizedCrystal
_audit_creation_method	'MofGen! by Chris Wilmer'
_symmetry_space_group_name_H-M	'P1'
_symmetry_Int_Tables_number	1
_symmetry_cell_setting	triclinic
loop_
_symmetry_equiv_pos_as_xyz
  x,y,z
_cell_length_a	11.026607
_cell_length_b	22.010155
_cell_length_c	10.967829
_cell_angle_alpha	77.874046
_cell_angle_beta	83.619437
_cell_angle_gamma	90.015125
loop_
_atom_site_label
_atom_site_type_symbol
_atom_site_fract_x
_atom_site_fract_y
_atom_site_fract_z
O1	O	1.614568	0.105335	-0.523495
O2	O	1.260763	0.099094	-0.463883
O3	O	1.445817	0.083385	-0.313875
O4	O	1.429514	0.121044	-0.673503
O5	O	1.445763	-0.017664	-0.313885
O6	O	1.260709	-0.001955	-0.463894
O7	O	1.614514	0.004285	-0.523505
Cu8	Cu	1.437607	-0.008061	-0.493700
Cu9	Cu	1.437670	0.111441	-0.493688
O10	O	1.429460	0.019994	-0.673513
C11	C	1.215433	0.047418	-0.452891
C12	C	1.080444	0.043986	-0.420108
N13	N	1.437570	-0.092113	-0.493710
C14	C	1.007397	0.053465	-0.510628
C15	C	0.867879	0.049918	-0.476747
C16	C	1.363274	-0.394400	-0.401242
C17	C	1.363263	-0.330792	-0.401245
O18	O	1.300047	-0.306128	-0.322618
N19	N	1.437618	-0.289300	-0.493682
C20	C	1.511997	-0.311419	-0.586114
O21	O	1.575242	-0.270286	-0.664737
C22	C	1.512014	-0.375027	-0.586104
C23	C	1.437645	-0.416515	-0.493669
C24	C	1.288912	-0.435888	-0.308814
C25	C	1.288921	-0.499492	-0.308812
C26	C	1.363292	-0.521607	-0.401239
C27	C	1.437654	-0.480119	-0.493668
C28	C	1.586399	-0.397145	-0.678529
C29	C	1.586409	-0.460758	-0.678511
C30	C	1.512041	-0.502247	-0.586076
C31	C	1.512034	-0.565837	-0.586093
N32	N	1.437680	-0.607330	-0.493656
C33	C	1.363308	-0.585214	-0.401230
C34	C	1.511959	-0.177840	-0.586125
C35	C	1.511937	-0.114233	-0.586141
C36	C	1.363204	-0.133611	-0.401271
C37	C	1.363221	-0.197218	-0.401262
C38	C	1.437604	-0.219332	-0.493689
C39	C	1.363333	-0.718785	-0.401234
C40	C	1.363345	-0.782393	-0.401244
C41	C	1.512082	-0.763010	-0.586109
C42	C	1.512066	-0.699408	-0.586104
C43	C	1.437688	-0.677298	-0.493656
O44	O	1.575222	-0.590547	-0.664677
O45	O	1.300086	-0.626355	-0.322609
C46	C	1.659844	0.055963	-0.534497
C47	C	1.794833	0.059399	-0.567280
N48	N	1.437716	0.195492	-0.493671
C49	C	1.444600	0.027966	-0.267124
C50	C	1.441038	0.013381	-0.127803
C51	C	1.430677	0.075415	-0.720264
C52	C	1.434239	0.090004	-0.859585
C53	C	1.439479	0.059226	-0.065690
C54	C	1.435798	0.044153	0.078305
H55	H	1.048148	0.064203	-0.613208
H56	H	0.827133	0.039192	-0.374160
N57	N	1.283108	-0.694942	-0.301530
H58	H	1.335518	-0.673702	-0.252251
H59	H	1.236020	-0.730913	-0.243071
H60	H	1.572606	-0.665624	-0.661386
H61	H	0.835576	0.070137	-0.669868
H62	H	1.228367	-0.533267	-0.233539
H63	H	1.039693	0.033260	-0.317528
N64	N	1.433958	-0.022625	0.149054
H65	H	1.431592	-0.023927	0.241890
H66	H	1.509770	-0.043591	0.119449
H67	H	1.302779	-0.816172	-0.325971
N68	N	1.208695	-0.412043	-0.209113
H69	H	1.161598	-0.447985	-0.150568
H70	H	1.149703	-0.381363	-0.250235
N71	N	1.283019	-0.241965	-0.301559
H72	H	1.235907	-0.218297	-0.243013
H73	H	1.335529	-0.273488	-0.252376
N74	N	1.282988	-0.109752	-0.301577
H75	H	1.294273	-0.063162	-0.315614
H76	H	1.306258	-0.129813	-0.216063
H77	H	1.439641	-0.037027	-0.074375
H78	H	1.572630	-0.781028	-0.661363
H79	H	1.572481	-0.080456	-0.661423
N80	N	1.592206	-0.201690	-0.685810
H81	H	1.639307	-0.165750	-0.744357
H82	H	1.539736	-0.222950	-0.734997
H83	H	1.646961	-0.363375	-0.753798
N84	N	1.666630	-0.484606	-0.778214
H85	H	1.655358	-0.531196	-0.764195
H86	H	1.754841	-0.473972	-0.773426
N87	N	1.441162	0.125998	-0.136430
H88	H	1.443480	0.127301	-0.229262
H89	H	1.515782	0.148447	-0.120458
N90	N	1.436070	0.156782	0.069669
H91	H	1.438437	0.158086	-0.023168
H92	H	1.510737	0.179172	0.085701
