data_functionalizedCrystal
_audit_creation_method	'MofGen! by Chris Wilmer'
_symmetry_space_group_name_H-M	'P1'
_symmetry_Int_Tables_number	1
_symmetry_cell_setting	triclinic
loop_
_symmetry_equiv_pos_as_xyz
  x,y,z
_cell_length_a	16.109301
_cell_length_b	16.109295
_cell_length_c	14.586319
_cell_angle_alpha	90.000675
_cell_angle_beta	89.998857
_cell_angle_gamma	96.539615
loop_
_atom_site_label
_atom_site_type_symbol
_atom_site_fract_x
_atom_site_fract_y
_atom_site_fract_z
O1	O	1.103129	-0.106867	-0.076184
O2	O	1.603129	0.393133	0.423816
O3	O	0.861066	-0.120167	-0.076196
O4	O	1.361066	0.379833	0.423804
O5	O	0.988750	0.007514	-0.076190
O6	O	1.488750	0.507514	0.423810
O7	O	0.975445	-0.234548	-0.076189
O8	O	1.475445	0.265452	0.423811
O9	O	0.988741	0.007516	0.076290
O10	O	1.488741	0.507516	0.576290
O11	O	0.861057	-0.120165	0.076285
O12	O	1.361057	0.379835	0.576285
O13	O	1.103120	-0.106865	0.076297
O14	O	1.603120	0.393135	0.576297
Cu15	Cu	0.982088	-0.113515	0.090214
Cu16	Cu	1.482088	0.386485	0.590214
Cu17	Cu	0.982098	-0.113517	-0.090112
Cu18	Cu	1.482098	0.386483	0.409888
O19	O	0.975436	-0.234546	0.076292
O20	O	1.475436	0.265454	0.576292
C21	C	0.830087	-0.119627	0.000043
C22	C	1.330087	0.380373	0.500043
C23	C	0.737792	-0.118012	0.000038
C24	C	1.237792	0.381988	0.500038
C25	C	0.988207	0.038490	0.000048
C26	C	1.488207	0.538490	0.500048
C27	C	0.986594	0.130786	0.000041
C28	C	1.486594	0.630786	0.500041
C29	C	0.428792	-0.188495	0.000055
C30	C	0.928792	0.311505	0.500055
C31	C	0.515512	-0.190020	0.000049
C32	C	1.015512	0.309980	0.500049
C33	C	0.535389	-0.038531	0.000036
C34	C	1.035389	0.461469	0.500036
C35	C	0.448670	-0.037007	0.000035
C36	C	0.948670	0.462993	0.500035
C37	C	0.395374	-0.111991	0.000049
C38	C	0.895374	0.388009	0.500049
C39	C	0.568812	-0.115041	0.000045
C40	C	1.068812	0.384959	0.500045
C41	C	0.662838	-0.116694	0.000039
C42	C	1.162838	0.383306	0.500039
C43	C	0.301342	-0.110338	0.000053
C44	C	0.801342	0.389662	0.500053
C45	C	1.134099	-0.107405	0.000056
C46	C	1.634099	0.392595	0.500056
C47	C	1.226394	-0.109020	0.000055
C48	C	1.726394	0.390980	0.500055
N49	N	0.982086	-0.113513	0.217046
N50	N	1.482086	0.386487	0.717046
C51	C	1.058606	0.353059	0.000011
C52	C	1.558606	0.853059	0.500011
C53	C	1.057084	0.439779	-0.000004
C54	C	1.557084	0.939779	0.499996
C55	C	0.905594	0.419905	-0.000007
C56	C	1.405594	0.919905	0.499993
C57	C	0.907118	0.333186	0.000001
C58	C	1.407118	0.833186	0.500001
C59	C	0.983626	0.299766	0.000015
C60	C	1.483626	0.799766	0.500015
C61	C	0.980580	0.473205	-0.000009
C62	C	1.480580	0.973205	0.499991
C63	C	0.978929	0.567231	-0.000025
C64	C	1.478929	1.067231	0.499975
C65	C	0.985277	0.205733	0.000030
C66	C	1.485277	0.705733	0.500030
C67	C	0.975984	0.734478	0.000030
C68	C	1.475984	1.234478	0.500030
C69	C	0.977612	0.642185	-0.000035
C70	C	1.477612	1.142185	0.499965
N71	N	0.982106	-0.113513	-0.216944
N72	N	1.482106	0.386487	0.283056
C73	C	1.038643	-0.056995	0.452054
C74	C	1.538643	0.443005	0.952054
C75	C	1.038646	-0.056993	0.548036
C76	C	1.538646	0.443007	1.048036
C77	C	0.925543	-0.170033	0.548041
C78	C	1.425543	0.329967	1.048041
C79	C	0.925538	-0.170031	0.452061
C80	C	1.425538	0.329969	0.952061
C81	C	0.982092	-0.113512	0.404070
C82	C	1.482092	0.386488	0.904070
C83	C	0.982100	-0.113513	0.596031
C84	C	1.482100	0.386487	1.096031
C85	C	0.982103	-0.113511	0.700098
C86	C	1.482103	0.386489	1.200098
C87	C	0.982089	-0.113513	0.299997
C88	C	1.482089	0.386487	0.799997
H89	H	0.385400	-0.249552	0.000066
H90	H	0.885400	0.250448	0.500066
H91	H	1.120904	0.325851	0.000020
H92	H	1.620904	0.825851	0.500020
C93	C	0.757218	0.322244	0.000007
C94	C	1.257218	0.822244	0.500007
C95	C	0.824693	0.274599	0.000009
C96	C	1.324693	0.774599	0.500009
H97	H	0.706336	0.286073	0.000015
H98	H	1.206336	0.786073	0.500015
H99	H	0.759773	0.356474	-0.053166
H100	H	1.259773	0.856474	0.446834
H101	H	0.759777	0.356488	0.053181
H102	H	1.259777	0.856488	0.553181
H103	H	0.822137	0.240360	-0.053169
H104	H	1.322137	0.740360	0.446831
H105	H	0.822136	0.240354	0.053188
H106	H	1.322136	0.740354	0.553188
C107	C	1.150432	0.054748	0.461694
C108	C	1.650432	0.554748	0.961694
C109	C	1.100799	0.005137	0.399302
C110	C	1.600799	0.505137	0.899302
H111	H	1.188800	0.093110	0.429127
H112	H	1.688800	0.593110	0.929127
H113	H	1.180329	0.020131	0.499121
H114	H	1.680329	0.520131	0.999121
H115	H	1.115826	0.084658	0.499137
H116	H	1.615826	0.584658	0.999137
H117	H	1.135405	-0.024778	0.361864
H118	H	1.635405	0.475222	0.861864
H119	H	1.070900	0.039758	0.361859
H120	H	1.570900	0.539758	0.861859
C121	C	1.056732	0.056157	0.655965
C122	C	1.556732	0.556157	1.155965
C123	C	1.100810	0.005133	0.600779
C124	C	1.600810	0.505133	1.100779
H125	H	1.095113	0.094516	0.688521
H126	H	1.595113	0.594516	1.188521
H127	H	1.023064	0.022499	0.698282
H128	H	1.523064	0.522499	1.198282
H129	H	1.022137	0.086071	0.618514
H130	H	1.522137	0.586071	1.118514
H131	H	1.135400	-0.024785	0.638230
H132	H	1.635400	0.475215	1.138230
H133	H	1.134492	0.038796	0.558457
H134	H	1.634492	0.538796	1.058457
H135	H	0.879499	-0.216051	0.587124
H136	H	1.379499	0.283949	1.087124
H137	H	0.879483	-0.216055	0.412990
H138	H	1.379483	0.283945	0.912990
C139	C	1.206975	0.450708	0.000013
C140	C	1.706975	0.950708	0.500013
C141	C	1.139504	0.498359	-0.000003
C142	C	1.639504	0.998359	0.499997
H143	H	1.257859	0.486874	0.000019
H144	H	1.757859	0.986874	0.500019
H145	H	1.204422	0.416467	-0.053153
H146	H	1.704422	0.916467	0.446847
H147	H	1.204406	0.416474	0.053195
H148	H	1.704406	0.916474	0.553195
H149	H	1.142069	0.532589	-0.053188
H150	H	1.642069	1.032589	0.446812
H151	H	1.142059	0.532614	0.053168
H152	H	1.642059	1.032614	0.553168
H153	H	0.542717	-0.252317	0.000054
H154	H	1.042717	0.247683	0.500054
C155	C	0.677149	0.026397	0.000044
C156	C	1.177149	0.526397	0.500044
C157	C	0.593975	0.043889	0.000034
C158	C	1.093975	0.543889	0.500034
H159	H	0.713314	0.077282	0.000051
H160	H	1.213314	0.577282	0.500051
H161	H	0.687277	-0.004970	-0.053125
H162	H	1.187277	0.495030	0.446875
H163	H	0.687265	-0.004973	0.053222
H164	H	1.187265	0.495027	0.553222
H165	H	0.583857	0.075254	-0.053148
H166	H	1.083857	0.575254	0.446852
H167	H	0.583843	0.075269	0.053208
H168	H	1.083843	0.575269	0.553208
C169	C	0.816003	0.505901	-0.078398
C170	C	1.316003	1.005901	0.421602
C171	C	0.821501	0.456648	-0.000012
C172	C	1.321501	0.956648	0.499988
H173	H	0.764088	0.528586	-0.078394
H174	H	1.264088	1.028586	0.421606
H175	H	0.819741	0.472479	-0.131559
H176	H	1.319741	0.972479	0.368441
H177	H	0.860446	0.550049	-0.078391
H178	H	1.360446	1.050049	0.421609
H179	H	0.777061	0.412496	-0.000023
H180	H	1.277061	0.912496	0.499977
H181	H	0.817755	0.490071	0.053163
H182	H	1.317755	0.990071	0.553163
C183	C	0.477021	0.112588	0.000031
C184	C	0.977021	0.612588	0.500031
C185	C	0.411930	0.047093	0.000032
C186	C	0.911930	0.547093	0.500032
H187	H	0.454337	0.164503	0.000033
H188	H	0.954337	0.664503	0.500033
H189	H	0.510431	0.108841	-0.053138
H190	H	1.010431	0.608841	0.446862
H191	H	0.510431	0.108842	0.053210
H192	H	1.010431	0.608842	0.553210
H193	H	0.378524	0.050835	-0.053150
H194	H	0.878524	0.550835	0.446850
H195	H	0.378506	0.050842	0.053206
H196	H	0.878506	0.550842	0.553206
