data_functionalizedCrystal
_audit_creation_method	'MofGen! by Chris Wilmer'
_symmetry_space_group_name_H-M	'P1'
_symmetry_Int_Tables_number	1
_symmetry_cell_setting	triclinic
loop_
_symmetry_equiv_pos_as_xyz
  x,y,z
_cell_length_a	10.654550
_cell_length_b	27.732048
_cell_length_c	9.130313
_cell_angle_alpha	89.990549
_cell_angle_beta	89.999724
_cell_angle_gamma	83.563793
loop_
_atom_site_label
_atom_site_type_symbol
_atom_site_fract_x
_atom_site_fract_y
_atom_site_fract_z
O1	O	1.664986	0.067886	-0.121708
O2	O	1.299235	0.074354	-0.121737
O3	O	1.493470	0.000794	-0.121693
O4	O	1.470751	0.141446	-0.121751
O5	O	1.493457	0.000792	0.121905
O6	O	1.299222	0.074351	0.121862
O7	O	1.664973	0.067884	0.121891
Cu8	Cu	1.482096	0.071117	0.144119
Cu9	Cu	1.482112	0.071120	-0.143965
O10	O	1.470738	0.141444	0.121848
C11	C	1.252451	0.073878	0.000060
C12	C	1.113067	0.072457	0.000050
C13	C	1.031761	0.115768	0.000036
C14	C	0.900796	0.114430	0.000063
C15	C	0.932457	0.026466	0.000110
C16	C	1.063419	0.027805	0.000094
C17	C	1.492986	-0.017217	0.000110
C18	C	1.491550	-0.070881	0.000122
C19	C	1.597290	-0.409038	0.000055
C20	C	1.591962	-0.610730	0.000034
O21	O	1.688653	-0.641384	-0.000022
N22	N	1.476789	-0.630571	0.000027
C23	C	1.362940	-0.599986	0.000015
O24	O	1.264855	-0.621490	-0.000008
C25	C	1.368269	-0.398294	0.000025
C26	C	1.483449	-0.378456	0.000047
C27	C	1.712461	-0.389199	0.000076
C28	C	1.713792	-0.338779	0.000089
C29	C	1.599951	-0.308197	0.000081
C30	C	1.484780	-0.328036	0.000061
C31	C	1.254421	-0.367709	0.000002
C32	C	1.255764	-0.317284	0.000001
C33	C	1.370944	-0.297446	0.000024
C34	C	1.372271	-0.247034	0.000066
N35	N	1.487444	-0.227193	0.000074
C36	C	1.601284	-0.257774	0.000081
C37	C	1.360150	-0.705877	0.000012
C38	C	1.358817	-0.756300	0.000012
C39	C	1.587840	-0.767041	0.000029
C40	C	1.589171	-0.716617	0.000039
C41	C	1.475323	-0.686036	0.000020
C42	C	1.604070	-0.151888	0.000110
C43	C	1.605391	-0.101463	0.000130
C44	C	1.376369	-0.090726	0.000105
C45	C	1.375047	-0.141147	0.000093
C46	C	1.488908	-0.171727	0.000091
O47	O	1.275631	-0.216352	0.000106
O48	O	1.699354	-0.236261	0.000071
C49	C	1.595959	-0.459458	0.000042
C50	C	1.480788	-0.479296	0.000021
C51	C	1.366947	-0.448715	0.000013
C52	C	1.479455	-0.529719	0.000021
C53	C	1.593296	-0.560301	0.000029
C54	C	1.708469	-0.540460	0.000036
C55	C	1.709799	-0.490040	0.000049
C56	C	1.251774	-0.468556	0.000006
C57	C	1.250453	-0.518976	-0.000006
C58	C	1.364293	-0.549558	0.000002
C59	C	1.711757	0.068360	0.000092
C60	C	1.851141	0.069781	0.000092
C61	C	1.471221	0.159455	0.000041
C62	C	1.472657	0.213118	0.000020
N63	N	1.482094	0.071115	0.346742
N64	N	1.482123	0.071118	-0.346587
C65	C	1.568130	0.038557	0.423413
C66	C	1.568142	0.038557	0.576750
C67	C	1.396079	0.103678	0.576731
C68	C	1.396062	0.103675	0.423397
H69	H	0.834601	0.149698	0.000054
H70	H	1.072179	0.152126	0.000012
O71	O	1.138668	-0.538324	0.000034
C72	C	1.035090	-0.611235	-0.000122
C73	C	1.161768	-0.589391	-0.000113
H74	H	1.053722	-0.652525	-0.000272
H75	H	0.978849	-0.598715	0.101838
H76	H	0.978908	-0.598630	-0.102054
H77	H	1.218053	-0.601986	0.101750
H78	H	1.217913	-0.601909	-0.102140
H79	H	1.638181	0.012044	0.361004
O80	O	1.651841	0.006913	0.651000
C81	C	1.822454	-0.057697	0.634826
C82	C	1.727752	-0.021876	0.550557
H83	H	1.883835	-0.080989	0.553655
H84	H	1.884866	-0.036628	0.706553
H85	H	1.768700	-0.082017	0.706675
H86	H	1.781403	0.002452	0.478630
H87	H	1.665342	-0.042975	0.478923
O88	O	1.312345	0.135258	0.651135
C89	C	1.093459	0.162814	0.698009
C90	C	1.188149	0.127014	0.613685
H91	H	0.993026	0.156168	0.667738
H92	H	1.108143	0.157224	0.820788
H93	H	1.109120	0.201582	0.667850
H94	H	1.172545	0.088232	0.643721
H95	H	1.173441	0.132647	0.490926
O96	O	1.312606	0.135373	0.348977
C97	C	1.237322	0.219151	0.302072
C98	C	1.331922	0.183311	0.386416
H99	H	1.252889	0.257916	0.332333
H100	H	1.252083	0.213597	0.179296
H101	H	1.136889	0.212467	0.332224
H102	H	1.432393	0.189973	0.356387
H103	H	1.317052	0.188873	0.509171
H104	H	0.892018	-0.009888	0.000154
H105	H	1.699189	-0.085314	0.000152
O106	O	1.142231	-0.014315	0.000040
C107	C	1.159826	-0.101705	0.000179
C108	C	1.070430	-0.054044	0.000197
H109	H	1.101810	-0.133837	0.000337
H110	H	1.221902	-0.103310	-0.101795
H111	H	1.221961	-0.103248	0.102096
H112	H	1.008215	-0.052469	-0.101651
H113	H	1.008440	-0.052458	0.102239
O114	O	1.714788	-0.181519	0.000179
C115	C	1.942085	-0.186838	0.000128
C116	C	1.816793	-0.153225	0.000073
H117	H	2.024589	-0.163976	0.000011
H118	H	1.947274	-0.210711	0.102094
H119	H	1.947139	-0.210716	-0.101797
H120	H	1.811655	-0.129317	0.101929
H121	H	1.811656	-0.129385	-0.101961
H122	H	1.807584	-0.322632	0.000101
H123	H	1.805169	-0.414094	0.000077
H124	H	1.682961	-0.700469	0.000056
H125	H	1.680533	-0.791950	0.000036
O126	O	1.246820	-0.775488	-0.000059
C127	C	1.019804	-0.759498	0.000002
C128	C	1.146554	-0.737707	0.000059
H129	H	0.938706	-0.728963	0.000128
H130	H	1.013368	-0.782812	-0.101970
H131	H	1.013508	-0.782858	0.101922
H132	H	1.152935	-0.714325	-0.101791
H133	H	1.152936	-0.714421	0.102099
O134	O	1.141216	-0.438833	-0.000256
C135	C	1.009809	-0.375646	-0.126395
C136	C	1.135059	-0.409283	-0.126308
H137	H	1.004802	-0.351739	-0.228281
H138	H	0.927226	-0.398470	-0.126497
H139	H	1.004712	-0.351802	-0.024395
H140	H	1.140279	-0.433134	-0.228291
H141	H	1.217583	-0.386430	-0.126129
H142	H	1.267435	-0.680982	-0.000004
H143	H	1.160629	-0.383852	-0.000025
H144	H	1.281258	-0.157299	0.000116
O145	O	1.821654	-0.470749	0.000318
C146	C	1.956064	-0.420050	0.126480
C147	C	1.829351	-0.441868	0.126381
H148	H	1.962317	-0.396686	0.228376
H149	H	2.037240	-0.450555	0.126574
H150	H	1.962407	-0.396727	0.024489
H151	H	1.822885	-0.465185	0.228355
H152	H	1.748236	-0.411339	0.126210
H153	H	1.283683	-0.065817	0.000104
H154	H	1.163052	-0.292386	-0.000017
O155	O	1.818940	-0.570241	-0.000025
C156	C	1.918355	-0.652687	0.000042
C157	C	1.793165	-0.619013	0.000089
H158	H	1.897559	-0.692125	0.000165
H159	H	1.975105	-0.645454	-0.101925
H160	H	1.975090	-0.645405	0.101967
H161	H	1.736328	-0.626275	-0.101767
H162	H	1.736510	-0.626253	0.102123
