data_functionalizedCrystal
_audit_creation_method	'MofGen! by Chris Wilmer'
_symmetry_space_group_name_H-M	'P1'
_symmetry_Int_Tables_number	1
_symmetry_cell_setting	triclinic
loop_
_symmetry_equiv_pos_as_xyz
  x,y,z
_cell_length_a	6.817900
_cell_length_b	16.418049
_cell_length_c	14.125465
_cell_angle_alpha	95.891231
_cell_angle_beta	100.398878
_cell_angle_gamma	103.389670
loop_
_atom_site_label
_atom_site_type_symbol
_atom_site_fract_x
_atom_site_fract_y
_atom_site_fract_z
V1	V	-3.990825	-0.115166	-0.300313
O2	O	-3.979535	0.006275	-0.294248
O3	O	-3.942095	-0.229066	-0.298594
O4	O	-3.926976	-0.113069	-0.431137
O5	O	-3.994759	-0.110525	-0.160788
V6	V	-4.476498	-0.100678	-0.283584
O7	O	-4.247369	-0.146945	-0.337010
O8	O	-4.670152	-0.068899	-0.246887
O9	O	-4.302021	0.013222	-0.285303
O10	O	-4.605185	-0.222119	-0.289649
O11	O	-4.589961	-0.105319	-0.423109
O12	O	-4.317140	-0.102775	-0.152760
C13	C	-3.787516	-0.256843	-0.293943
C14	C	-3.828857	-0.349956	-0.293410
C15	C	-3.768229	-0.108876	-0.463013
C16	C	-3.797307	-0.107916	-0.569965
C17	C	-4.105464	-0.568437	-0.297014
C18	C	-4.144296	-0.655927	-0.296522
C19	C	-3.781216	-0.647406	-0.286889
C20	C	-3.742389	-0.559918	-0.287388
C21	C	-3.904519	-0.520435	-0.292446
C22	C	-3.982178	-0.695414	-0.291454
C23	C	-4.024280	-0.790275	-0.290920
C24	C	-3.862415	-0.425569	-0.292982
C25	C	-3.850605	-0.106155	-0.765783
C26	C	-4.036087	-0.109688	-0.818114
C27	C	-4.065745	-0.108708	-0.927074
C28	C	-3.820939	-0.107135	-0.656813
C29	C	-4.119943	0.040994	-0.289951
C30	C	-4.057839	0.134107	-0.290490
C31	C	-4.139230	-0.106971	-0.120879
C32	C	-4.089391	-0.107927	-0.013926
H33	H	-4.307923	-0.695007	-0.300243
H34	H	-3.714093	-0.102396	-0.802810
O35	O	-3.623954	-0.685889	-0.281929
C36	C	-3.522870	-0.816899	-0.276943
C37	C	-3.701158	-0.773426	-0.282544
H38	H	-3.585231	-0.887682	-0.277459
H39	H	-3.402847	-0.788635	-0.206979
H40	H	-3.448549	-0.806565	-0.342320
H41	H	-3.775645	-0.783744	-0.217217
H42	H	-3.821047	-0.801696	-0.352549
H43	H	-4.237482	-0.536293	-0.301131
H44	H	-3.578750	-0.520834	-0.283672
O45	O	-4.198772	-0.114219	-0.773803
C46	C	-4.317033	-0.119270	-0.623207
C47	C	-4.132638	-0.114148	-0.673273
H48	H	-4.263621	-0.119196	-0.541918
H49	H	-4.441324	-0.180033	-0.655982
H50	H	-4.382648	-0.062306	-0.634654
H51	H	-4.066849	-0.171068	-0.661844
H52	H	-4.008477	-0.053350	-0.640490
