data_functionalizedCrystal
_audit_creation_method	'MofGen! by Chris Wilmer'
_symmetry_space_group_name_H-M	'P1'
_symmetry_Int_Tables_number	1
_symmetry_cell_setting	triclinic
loop_
_symmetry_equiv_pos_as_xyz
  x,y,z
_cell_length_a	12.837932
_cell_length_b	14.519731
_cell_length_c	11.295483
_cell_angle_alpha	94.102025
_cell_angle_beta	85.460332
_cell_angle_gamma	89.259278
loop_
_atom_site_label
_atom_site_type_symbol
_atom_site_fract_x
_atom_site_fract_y
_atom_site_fract_z
O1	O	1.382892	0.234195	-0.099033
O2	O	1.081063	0.222348	-0.099035
O3	O	1.239968	0.094725	-0.099023
O4	O	1.223988	0.361817	-0.099045
O5	O	1.226011	0.105916	0.099027
O6	O	1.067107	0.233538	0.099015
O7	O	1.368935	0.245385	0.099017
Cu8	Cu	1.216746	0.240483	0.117099
Cu9	Cu	1.233252	0.227249	-0.117117
O10	O	1.210031	0.373007	0.099005
C11	C	1.035457	0.223941	-0.000010
C12	C	0.920356	0.212006	-0.000010
C13	C	0.770319	0.112254	0.000000
C14	C	0.878467	0.123462	-0.000001
C15	C	0.854089	0.289349	-0.000014
C16	C	0.745941	0.278141	-0.000013
C17	C	0.704060	0.189591	-0.000007
C18	C	0.595911	0.178383	-0.000015
C19	C	0.571534	0.344270	-0.000019
C20	C	0.679682	0.355477	-0.000020
C21	C	1.232241	0.065896	0.000002
C22	C	1.229997	-0.036678	0.000003
C23	C	1.228174	-0.119980	-0.000000
C24	C	1.225896	-0.224486	-0.000009
C25	C	1.224088	-0.307782	-0.000017
C26	C	1.221810	-0.412294	-0.000024
C27	C	1.414542	0.243791	-0.000011
C28	C	1.529643	0.255726	-0.000018
C29	C	1.217758	0.401836	-0.000023
C30	C	1.220003	0.504410	-0.000031
N31	N	1.205145	0.249791	0.281835
N32	N	1.244862	0.217935	-0.281853
C33	C	1.328377	0.150879	0.531133
C34	C	1.319617	0.157921	0.655796
C35	C	1.178860	0.270910	0.655826
C36	C	1.187620	0.263868	0.531163
C37	C	1.262382	0.203852	0.468821
C38	C	1.271147	0.196816	0.344156
C39	C	1.130385	0.309800	0.344188
C40	C	1.121625	0.316841	0.468851
H41	H	0.561815	0.106281	-0.000015
N42	N	1.102497	0.332213	0.719510
N43	N	1.105047	0.416811	0.705596
H44	H	1.051111	0.460105	0.750570
H45	H	1.373356	0.114784	0.706528
N46	N	0.946166	0.044474	-0.000011
N47	N	1.042724	0.054490	-0.000016
H48	H	1.090539	-0.001298	-0.000022
H49	H	1.076651	0.352937	0.293439
N50	N	1.045262	0.378133	0.532555
N51	N	1.037445	0.384410	0.643860
H52	H	0.983513	0.427699	0.688851
H53	H	0.517573	0.407243	-0.000026
H54	H	0.736221	0.040153	-0.000007
H55	H	1.389259	0.102019	0.480374
N56	N	0.896895	0.379788	-0.000003
N57	N	0.993457	0.389778	0.000007
H58	H	1.023691	0.453651	0.000015
H59	H	1.332024	0.147951	0.293398
N60	N	0.722483	0.445918	-0.000016
N61	N	0.819043	0.455916	-0.000012
H62	H	0.849272	0.519791	-0.000011
