data_functionalizedCrystal
_audit_creation_method	'MofGen! by Chris Wilmer'
_symmetry_space_group_name_H-M	'P1'
_symmetry_Int_Tables_number	1
_symmetry_cell_setting	triclinic
loop_
_symmetry_equiv_pos_as_xyz
  x,y,z
_cell_length_a	25.639242
_cell_length_b	12.759394
_cell_length_c	12.759387
_cell_angle_alpha	89.975844
_cell_angle_beta	89.968335
_cell_angle_gamma	89.998550
loop_
_atom_site_label
_atom_site_type_symbol
_atom_site_fract_x
_atom_site_fract_y
_atom_site_fract_z
Zn1	Zn	0.799404	-0.418336	-0.594366
Zn2	Zn	1.299404	0.081664	-0.094366
Zn3	Zn	0.799367	-0.594053	-0.418707
Zn4	Zn	1.299367	-0.094053	0.081293
Zn5	Zn	0.711966	-0.418375	-0.418669
Zn6	Zn	1.211966	0.081625	0.081331
Zn7	Zn	0.711980	-0.593960	-0.594312
Zn8	Zn	1.211980	-0.093960	-0.094312
O9	O	0.755679	-0.506181	-0.506514
O10	O	1.255679	-0.006181	-0.006514
O11	O	0.872564	-0.441668	-0.571103
O12	O	1.372564	0.058332	-0.071103
O13	O	0.787752	-0.570804	-0.271681
O14	O	1.287752	-0.070804	0.228319
O15	O	0.723574	-0.271349	-0.441982
O16	O	1.223574	0.228651	0.058018
O17	O	0.872537	-0.570767	-0.442047
O18	O	1.372537	-0.070767	0.057953
O19	O	0.787814	-0.271320	-0.571066
O20	O	1.287814	0.228680	-0.071066
O21	O	0.723538	-0.441734	-0.271653
O22	O	1.223538	0.058266	0.228347
O23	O	0.638802	-0.441644	-0.441930
O24	O	1.138802	0.058356	0.058070
O25	O	0.723598	-0.570608	-0.741340
O26	O	1.223598	-0.070608	-0.241340
O27	O	0.638813	-0.570646	-0.570974
O28	O	1.138813	-0.070646	-0.070974
O29	O	0.787828	-0.441578	-0.741380
O30	O	1.287828	0.058422	-0.241380
O31	O	0.787766	-0.741062	-0.441995
O32	O	1.287766	-0.241062	0.058005
O33	O	0.723562	-0.740994	-0.571011
O34	O	1.223562	-0.240994	-0.071011
C35	C	0.619836	-0.506140	-0.506442
C36	C	1.119836	-0.006140	-0.006442
C37	C	0.561722	-0.506147	-0.506437
C38	C	1.061722	-0.006147	-0.006437
C39	C	0.201374	-0.573465	-0.573643
C40	C	0.701374	-0.073465	-0.073643
C41	C	0.146769	-0.573471	-0.573660
C42	C	0.646769	-0.073471	-0.073660
O43	O	0.118545	-0.630655	-0.630741
O44	O	0.618545	-0.130655	-0.130741
N45	N	0.119440	-0.506210	-0.506582
N46	N	0.619440	-0.006210	-0.006582
C47	C	0.146718	-0.438931	-0.439491
C48	C	0.646718	0.061069	0.060509
O49	O	0.118458	-0.381720	-0.382438
O50	O	0.618458	0.118280	0.117562
C51	C	0.201321	-0.438920	-0.439481
C52	C	0.701321	0.061080	0.060519
C53	C	0.228648	-0.506193	-0.506555
C54	C	0.728648	-0.006193	-0.006555
C55	C	0.228700	-0.640731	-0.640713
C56	C	0.728700	-0.140731	-0.140713
C57	C	0.283301	-0.640726	-0.640695
C58	C	0.783301	-0.140726	-0.140695
C59	C	0.310575	-0.573454	-0.573607
C60	C	0.810575	-0.073454	-0.073607
C61	C	0.283248	-0.506187	-0.506537
C62	C	0.783248	-0.006187	-0.006537
C63	C	0.228598	-0.371636	-0.372396
C64	C	0.728598	0.128364	0.127604
C65	C	0.283205	-0.371630	-0.372391
C66	C	0.783205	0.128370	0.127609
C67	C	0.310531	-0.438903	-0.439466
C68	C	0.810531	0.061097	0.060534
C69	C	0.365123	-0.438910	-0.439430
C70	C	0.865123	0.061090	0.060570
N71	N	0.392452	-0.506171	-0.506508
N72	N	0.892452	-0.006171	-0.006508
C73	C	0.365178	-0.573443	-0.573596
C74	C	0.865178	-0.073443	-0.073596
C75	C	0.032047	-0.438958	-0.439520
C76	C	0.532047	0.061042	0.060480
C77	C	-0.022555	-0.438973	-0.439524
C78	C	0.477445	0.061027	0.060476
C79	C	-0.022500	-0.573512	-0.573694
C80	C	0.477500	-0.073512	-0.073694
C81	C	0.032103	-0.573501	-0.573684
C82	C	0.532103	-0.073501	-0.073684
C83	C	0.059376	-0.506219	-0.506597
C84	C	0.559376	-0.006219	-0.006597
C85	C	0.479843	-0.573427	-0.573552
C86	C	0.979843	-0.073427	-0.073552
C87	C	0.534448	-0.573419	-0.573525
C88	C	1.034448	-0.073419	-0.073525
C89	C	0.534388	-0.438877	-0.439359
C90	C	1.034388	0.061123	0.060641
C91	C	0.479788	-0.438888	-0.439382
C92	C	0.979788	0.061112	0.060618
C93	C	0.452516	-0.506167	-0.506487
C94	C	0.952516	-0.006167	-0.006487
O95	O	0.393382	-0.381752	-0.382382
O96	O	0.893382	0.118248	0.117618
O97	O	0.393444	-0.630634	-0.630649
O98	O	0.893444	-0.130634	-0.130649
C99	C	0.755676	-0.779149	-0.506524
C100	C	1.255676	-0.279149	-0.006524
C101	C	0.755722	-0.895925	-0.506564
C102	C	1.255722	-0.395925	-0.006564
C103	C	0.755718	-0.506078	-0.780547
C104	C	1.255718	-0.006078	-0.280547
C105	C	0.755735	-0.506034	-0.897324
C106	C	1.255735	-0.006034	-0.397324
C107	C	0.892052	-0.506223	-0.506586
C108	C	1.392052	-0.006223	-0.006586
C109	C	0.950166	-0.506242	-0.506616
C110	C	1.450166	-0.006242	-0.006616
C111	C	0.755697	-0.232148	-0.506526
C112	C	1.255697	0.267852	-0.006526
C113	C	0.755704	-0.115371	-0.506532
C114	C	1.255704	0.384629	-0.006532
C115	C	0.688815	-0.115381	-0.372107
C116	C	1.188815	0.384619	0.127893
C117	C	0.655377	-0.060525	-0.304898
C118	C	1.155377	0.439475	0.195102
C119	C	0.655386	0.049196	-0.304907
C120	C	1.155386	0.549196	0.195093
C121	C	0.688836	0.104065	-0.372136
C122	C	1.188836	0.604065	0.127864
C123	C	0.722274	0.049209	-0.439345
C124	C	1.222274	0.549209	0.060655
C125	C	0.722263	-0.060515	-0.439326
C126	C	1.222263	0.439485	0.060674
C127	C	0.789160	0.049219	-0.573773
C128	C	1.289160	0.549219	-0.073773
C129	C	0.789154	-0.060503	-0.573760
C130	C	1.289154	0.439497	-0.073760
C131	C	0.822610	0.104087	-0.641001
C132	C	1.322610	0.604087	-0.141001
C133	C	0.856052	0.049231	-0.708207
C134	C	1.356052	0.549231	-0.208207
C135	C	0.856042	-0.060497	-0.708194
C136	C	1.356042	0.439503	-0.208194
C137	C	0.822592	-0.115359	-0.640969
C138	C	1.322592	0.384641	-0.140969
C139	C	0.822623	-0.371684	-0.897385
C140	C	1.322623	0.128316	-0.397385
C141	C	0.856074	-0.304493	-0.952277
C142	C	1.356074	0.195507	-0.452277
C143	C	0.856086	-0.304455	-1.061998
C144	C	1.356086	0.195545	-0.561998
C145	C	0.822643	-0.371613	-1.116831
C146	C	1.322643	0.128387	-0.616831
C147	C	0.789192	-0.438803	-1.061940
C148	C	1.289192	0.061197	-0.561940
C149	C	0.789184	-0.438837	-0.952216
C150	C	1.289184	0.061163	-0.452216
C151	C	0.722303	-0.573147	-1.061878
C152	C	1.222303	-0.073147	-0.561878
C153	C	0.722292	-0.573192	-0.952157
C154	C	1.222292	-0.073192	-0.452157
C155	C	0.688860	-0.640304	-1.116711
C156	C	1.188860	-0.140304	-0.616711
C157	C	0.655411	-0.707502	-1.061820
C158	C	1.155411	-0.207502	-0.561820
C159	C	0.655400	-0.707538	-0.952091
C160	C	1.155400	-0.207538	-0.452091
C161	C	0.688841	-0.640383	-0.897265
C162	C	1.188841	-0.140383	-0.397265
C163	C	0.755670	-0.506208	-0.233546
C164	C	1.255670	-0.006208	0.266454
C165	C	0.755754	-0.505956	-0.116770
C166	C	1.255754	-0.005956	0.383230
H167	H	0.054349	-0.628279	-0.628304
H168	H	0.554349	-0.128279	-0.128304
H169	H	0.054249	-0.384169	-0.384882
H170	H	0.554249	0.115831	0.115118
H171	H	0.883266	-0.105154	-0.762933
H172	H	1.383266	0.394846	-0.262933
H173	H	0.556605	-0.384109	-0.384734
H174	H	1.056605	0.115891	0.115266
H175	H	0.628156	0.093860	-0.250184
H176	H	1.128156	0.593860	0.249816
H177	H	0.822613	0.193428	-0.641009
H178	H	1.322613	0.693428	-0.141009
H179	H	0.883322	-0.249736	-1.106691
H180	H	1.383322	0.250264	-0.606691
H181	H	0.883282	0.093912	-0.762944
H182	H	1.383282	0.593912	-0.262944
H183	H	0.628142	-0.105211	-0.250164
H184	H	1.128142	0.394789	0.249836
H185	H	0.822652	-0.371566	-1.206172
H186	H	1.322652	0.128434	-0.706172
H187	H	0.688838	-0.640410	-0.807924
H188	H	1.188838	-0.140410	-0.307924
H189	H	0.457645	-0.628210	-0.628198
H190	H	0.957645	-0.128210	-0.128198
H191	H	0.822621	-0.371718	-0.808044
H192	H	1.322621	0.128282	-0.308044
H193	H	0.688808	-0.204722	-0.372084
H194	H	1.188808	0.295278	0.127916
H195	H	0.883301	-0.249813	-0.907620
H196	H	1.383301	0.250187	-0.407620
H197	H	0.822582	-0.204700	-0.640949
H198	H	1.322582	0.295300	-0.140949
H199	H	0.628154	-0.762242	-0.907405
H200	H	1.128154	-0.262242	-0.407405
H201	H	0.628182	-0.762171	-1.106473
H202	H	1.128182	-0.262171	-0.606473
H203	H	0.556695	-0.628205	-0.628146
H204	H	1.056695	-0.128205	-0.128146
H205	H	0.688871	-0.640264	-1.206052
H206	H	1.188871	-0.140264	-0.706052
H207	H	0.305545	-0.695504	-0.695316
H208	H	0.805545	-0.195504	-0.195316
H209	H	0.206500	-0.695512	-0.695350
H210	H	0.706500	-0.195512	-0.195350
H211	H	-0.044800	-0.384203	-0.384894
H212	H	0.455200	0.115797	0.115106
H213	H	-0.044716	-0.628285	-0.628325
H214	H	0.455284	-0.128285	-0.128325
H215	H	0.305408	-0.316833	-0.317766
H216	H	0.805408	0.183167	0.182234
H217	H	0.206358	-0.316858	-0.317773
H218	H	0.706358	0.183142	0.182227
H219	H	0.457537	-0.384112	-0.384762
H220	H	0.957537	0.115888	0.115238
H221	H	0.688836	0.193406	-0.372147
H222	H	1.188836	0.693406	0.127853
