data_functionalizedCrystal
_audit_creation_method	'MofGen! by Chris Wilmer'
_symmetry_space_group_name_H-M	'P1'
_symmetry_Int_Tables_number	1
_symmetry_cell_setting	triclinic
loop_
_symmetry_equiv_pos_as_xyz
  x,y,z
_cell_length_a	15.944551
_cell_length_b	11.792254
_cell_length_c	10.268362
_cell_angle_alpha	89.994545
_cell_angle_beta	89.999906
_cell_angle_gamma	83.848668
loop_
_atom_site_label
_atom_site_type_symbol
_atom_site_fract_x
_atom_site_fract_y
_atom_site_fract_z
O1	O	1.115190	0.146380	-0.108165
O2	O	1.615190	0.646380	0.391835
O3	O	0.870722	0.164427	-0.108197
O4	O	1.370722	0.664427	0.391803
O5	O	0.998883	-0.009815	-0.108171
O6	O	1.498883	0.490185	0.391829
O7	O	0.987029	0.320622	-0.108191
O8	O	1.487029	0.820622	0.391809
O9	O	0.998872	-0.009822	0.108429
O10	O	1.498872	0.490178	0.608429
O11	O	0.870711	0.164420	0.108403
O12	O	1.370711	0.664420	0.608403
O13	O	1.115178	0.146373	0.108436
O14	O	1.615178	0.646373	0.608436
Cu15	Cu	0.992944	0.155395	0.128197
Cu16	Cu	1.492944	0.655395	0.628197
Cu17	Cu	0.992957	0.155404	-0.127959
Cu18	Cu	1.492957	0.655404	0.372041
O19	O	0.987018	0.320615	0.108409
O20	O	1.487018	0.820615	0.608409
C21	C	0.998131	-0.052103	0.000129
C22	C	1.498131	0.447897	0.500129
C23	C	0.995895	-0.178098	0.000127
C24	C	1.495895	0.321902	0.500127
C25	C	0.839419	0.163674	0.000099
C26	C	1.339419	0.663674	0.500099
C27	C	0.746163	0.161428	0.000087
C28	C	1.246163	0.661428	0.500087
C29	C	0.994079	-0.280420	0.000122
C30	C	1.494079	0.219580	0.500122
C31	C	0.991809	-0.408787	0.000110
C32	C	1.491809	0.091213	0.500110
C33	C	0.530791	0.048056	0.000119
C34	C	1.030791	0.548056	0.500119
C35	C	0.470015	0.100705	-0.106680
C36	C	0.970015	0.600705	0.393320
C37	C	0.575418	0.157364	0.000102
C38	C	1.075418	0.657364	0.500102
C39	C	0.470027	0.100724	0.106871
C40	C	0.970027	0.600724	0.606871
C41	C	0.410488	0.153431	0.000123
C42	C	0.910488	0.653431	0.500123
C43	C	0.515872	0.210044	-0.106785
C44	C	1.015872	0.710044	0.393215
C45	C	0.515889	0.210048	0.106863
C46	C	1.015889	0.710048	0.606863
C47	C	0.455132	0.262777	0.000038
C48	C	0.955132	0.762777	0.500038
C49	C	0.670431	0.159627	0.000089
C50	C	1.170431	0.659627	0.500089
C51	C	0.315477	0.151177	0.000127
C52	C	0.815477	0.651177	0.500127
C53	C	1.146481	0.147125	0.000137
C54	C	1.646481	0.647125	0.500137
C55	C	1.239738	0.149371	0.000140
C56	C	1.739738	0.649371	0.500140
C57	C	0.987770	0.362903	0.000107
C58	C	1.487770	0.862903	0.500107
C59	C	0.990005	0.488897	0.000100
C60	C	1.490005	0.988897	0.500100
N61	N	0.992940	0.155389	0.308363
N62	N	1.492940	0.655389	0.808363
N63	N	0.992967	0.155402	-0.308124
N64	N	1.492967	0.655402	0.191876
C65	C	0.992953	0.155402	0.574033
C66	C	1.492953	0.655402	1.074033
C67	C	0.992943	0.155398	0.426195
C68	C	1.492943	0.655398	0.926195
H69	H	0.563711	-0.042661	-0.000008
H70	H	1.063711	0.457339	0.499992
H71	H	0.536074	0.256246	-0.197173
H72	H	1.036074	0.756246	0.302827
H73	H	0.422386	0.353588	-0.000027
H74	H	0.922386	0.853588	0.499973
H75	H	0.449700	0.054475	-0.196965
H76	H	0.949700	0.554475	0.303035
H77	H	0.536226	0.256240	0.197152
H78	H	1.036226	0.756240	0.697152
H79	H	0.449726	0.054468	0.197158
H80	H	0.949726	0.554468	0.697158
