data_functionalizedCrystal
_audit_creation_method	'MofGen! by Chris Wilmer'
_symmetry_space_group_name_H-M	'P1'
_symmetry_Int_Tables_number	1
_symmetry_cell_setting	triclinic
loop_
_symmetry_equiv_pos_as_xyz
  x,y,z
_cell_length_a	13.897448
_cell_length_b	12.759401
_cell_length_c	13.897441
_cell_angle_alpha	90.020302
_cell_angle_beta	89.969401
_cell_angle_gamma	89.986705
loop_
_atom_site_label
_atom_site_type_symbol
_atom_site_fract_x
_atom_site_fract_y
_atom_site_fract_z
Zn1	Zn	-0.384097	-1.606236	-0.545370
Zn2	Zn	-0.050764	-1.272902	-0.212037
Zn3	Zn	0.282569	-0.939569	0.121297
Zn4	Zn	-0.545419	-1.606120	-0.384071
Zn5	Zn	-0.212086	-1.272787	-0.050738
Zn6	Zn	0.121248	-0.939453	0.282595
Zn7	Zn	-0.384127	-1.430537	-0.384090
Zn8	Zn	-0.050794	-1.097204	-0.050756
Zn9	Zn	0.282539	-0.763870	0.282577
Zn10	Zn	-0.545340	-1.430517	-0.545325
Zn11	Zn	-0.212006	-1.097184	-0.211992
Zn12	Zn	0.121327	-0.763850	0.121341
O13	O	-0.464746	-1.518352	-0.464714
O14	O	-0.131412	-1.185019	-0.131381
O15	O	0.201921	-0.851686	0.201953
O16	O	-0.405518	-1.753241	-0.523985
O17	O	-0.072184	-1.419908	-0.190651
O18	O	0.261149	-1.086575	0.142682
O19	O	-0.524069	-1.582789	-0.249092
O20	O	-0.190736	-1.249455	0.084241
O21	O	0.142598	-0.916122	0.417575
O22	O	-0.249142	-1.453900	-0.405510
O23	O	0.084192	-1.120567	-0.072177
O24	O	0.417525	-0.787234	0.261157
O25	O	-0.524040	-1.753156	-0.405479
O26	O	-0.190707	-1.419823	-0.072146
O27	O	0.142627	-1.086490	0.261188
O28	O	-0.249120	-1.582985	-0.524002
O29	O	0.084214	-1.249652	-0.190669
O30	O	0.417547	-0.916319	0.142664
O31	O	-0.405569	-1.453788	-0.249105
O32	O	-0.072235	-1.120455	0.084228
O33	O	0.261098	-0.787122	0.417561
O34	O	-0.405492	-1.283513	-0.405467
O35	O	-0.072158	-0.950180	-0.072133
O36	O	0.261175	-0.616847	0.261200
O37	O	-0.523905	-1.453866	-0.680313
O38	O	-0.190571	-1.120533	-0.346980
O39	O	0.142762	-0.787200	-0.013646
O40	O	-0.523934	-1.283499	-0.523926
O41	O	-0.190600	-0.950165	-0.190593
O42	O	0.142733	-0.616832	0.142741
O43	O	-0.405441	-1.582966	-0.680346
O44	O	-0.072107	-1.249633	-0.347012
O45	O	0.261226	-0.916299	-0.013679
O46	O	-0.680390	-1.582769	-0.405436
O47	O	-0.347057	-1.249436	-0.072102
O48	O	-0.013723	-0.916103	0.261231
O49	O	-0.680332	-1.453755	-0.523908
O50	O	-0.346998	-1.120421	-0.190575
O51	O	-0.013665	-0.787088	0.142758
C52	C	-0.464708	-1.245385	-0.464694
C53	C	-0.131375	-0.912052	-0.131361
C54	C	0.201959	-0.578718	0.201973
C55	C	-0.464715	-1.128608	-0.464708
C56	C	-0.131382	-0.795275	-0.131375
C57	C	0.201951	-0.461942	0.201958
C58	C	-0.403125	-0.964054	-0.526512
C59	C	-0.069792	-0.630721	-0.193179
C60	C	0.263541	-0.297387	0.140154
C61	C	-0.403112	-1.073778	-0.526508
C62	C	-0.069779	-0.740445	-0.193175
C63	C	0.263554	-0.407112	0.140158
C64	C	-0.526342	-1.073709	-0.402915
C65	C	-0.193008	-0.740376	-0.069582
C66	C	0.140325	-0.407042	0.263752
C67	C	-0.526359	-0.963987	-0.402925
C68	C	-0.193025	-0.630654	-0.069591
C69	C	0.140308	-0.297320	0.263742
C70	C	-0.715360	-1.518276	-0.464686
C71	C	-0.382027	-1.184942	-0.131353
C72	C	-0.048694	-0.851609	0.201981
C73	C	-0.822574	-1.518339	-0.464706
C74	C	-0.489241	-1.185006	-0.131373
C75	C	-0.155907	-0.851672	0.201960
C76	C	-1.018869	-1.518449	-0.464767
C77	C	-0.685536	-1.185116	-0.131434
C78	C	-0.352202	-0.851783	0.201900
C79	C	-0.909637	-1.518385	-0.464736
C80	C	-0.576303	-1.185052	-0.131403
C81	C	-0.242970	-0.851718	0.201930
C82	C	-0.213153	-1.518458	-0.464763
C83	C	0.120181	-1.185125	-0.131430
C84	C	0.453514	-0.851791	0.201903
C85	C	-0.105939	-1.518503	-0.464784
C86	C	0.227394	-1.185170	-0.131451
C87	C	0.560728	-0.851836	0.201883
C88	C	-0.464661	-1.518427	-0.716307
C89	C	-0.131327	-1.185094	-0.382974
C90	C	0.202006	-0.851760	-0.049641
C91	C	-0.464624	-1.518459	-0.823521
C92	C	-0.131291	-1.185125	-0.490188
C93	C	0.202042	-0.851792	-0.156855
C94	C	-0.464770	-0.792386	-0.464729
C95	C	-0.131437	-0.459052	-0.131396
C96	C	0.201896	-0.125719	0.201937
C97	C	-0.464745	-0.909162	-0.464722
C98	C	-0.131412	-0.575829	-0.131389
C99	C	0.201922	-0.242496	0.201945
C100	C	-0.464559	-1.518487	-1.019816
C101	C	-0.131226	-1.185154	-0.686483
C102	C	0.202108	-0.851821	-0.353150
C103	C	-0.464598	-1.518468	-0.910584
C104	C	-0.131265	-1.185135	-0.577251
C105	C	0.202069	-0.851802	-0.243917
C106	C	-0.464761	-1.518339	-0.214100
C107	C	-0.131428	-1.185005	0.119234
C108	C	0.201906	-0.851672	0.452567
C109	C	-0.464526	-1.518510	-0.106886
C110	C	-0.131192	-1.185177	0.226447
C111	C	0.202141	-0.851844	0.559780
H112	H	-0.576542	-0.919293	-0.352607
H113	H	-0.243209	-0.585959	-0.019274
H114	H	0.090124	-0.252626	0.314060
O115	O	-0.592778	-1.132845	-0.336251
O116	O	-0.259445	-0.799512	-0.002918
O117	O	0.073888	-0.466179	0.330415
H118	H	-0.641894	-1.182864	-0.379327
H119	H	-0.308561	-0.849531	-0.045994
H120	H	0.024772	-0.516198	0.287340
O121	O	-0.336647	-1.132978	-0.593155
O122	O	-0.003314	-0.799645	-0.259821
O123	O	0.330020	-0.466312	0.073512
H124	H	-0.346991	-1.218487	-0.582777
H125	H	-0.013658	-0.885153	-0.249444
H126	H	0.319676	-0.551820	0.083889
O127	O	-0.336683	-0.904916	-0.593169
O128	O	-0.003349	-0.571583	-0.259836
O129	O	0.329984	-0.238250	0.073498
H130	H	-0.293840	-0.961525	-0.636141
H131	H	0.039494	-0.628191	-0.302808
H132	H	0.372827	-0.294858	0.030525
