data_functionalizedCrystal
_audit_creation_method	'MofGen! by Chris Wilmer'
_symmetry_space_group_name_H-M	'P1'
_symmetry_Int_Tables_number	1
_symmetry_cell_setting	triclinic
loop_
_symmetry_equiv_pos_as_xyz
  x,y,z
_cell_length_a	16.959455
_cell_length_b	12.759399
_cell_length_c	12.759393
_cell_angle_alpha	90.027451
_cell_angle_beta	89.980759
_cell_angle_gamma	89.987521
loop_
_atom_site_label
_atom_site_type_symbol
_atom_site_fract_x
_atom_site_fract_y
_atom_site_fract_z
Zn1	Zn	1.208447	0.418299	-0.594063
Zn2	Zn	1.208369	0.594015	-0.418393
Zn3	Zn	1.076264	0.418342	-0.418396
Zn4	Zn	1.076251	0.593927	-0.594028
O5	O	1.142333	0.506146	-0.506220
O6	O	1.319048	0.441628	-0.570773
O7	O	1.190818	0.570766	-0.271372
O8	O	1.093837	0.271315	-0.441714
O9	O	1.318990	0.570725	-0.441709
O10	O	1.190951	0.271284	-0.570776
O11	O	1.093761	0.441700	-0.271374
O12	O	0.965652	0.441614	-0.441680
O13	O	1.093814	0.570576	-0.741053
O14	O	0.965642	0.570617	-0.570716
O15	O	1.190938	0.441542	-0.741079
O16	O	1.190805	0.741025	-0.441675
O17	O	1.093738	0.740960	-0.570713
C18	C	0.936966	0.506111	-0.506196
C19	C	0.849110	0.506122	-0.506210
C20	C	1.142283	0.779113	-0.506213
C21	C	1.142334	0.895890	-0.506245
C22	C	1.142383	0.506044	-0.780253
C23	C	1.142405	0.506001	-0.897030
C24	C	0.477615	0.438920	-0.439171
C25	C	0.477653	0.573459	-0.573328
C26	C	0.560199	0.573444	-0.573322
C27	C	0.601457	0.506167	-0.506238
C28	C	0.560169	0.438905	-0.439160
C29	C	0.601494	0.640712	-0.640391
C30	C	0.684045	0.640701	-0.640387
C31	C	0.725304	0.573417	-0.573307
C32	C	0.684010	0.506152	-0.506227
C33	C	0.725268	0.438875	-0.439143
C34	C	0.683976	0.371603	-0.372068
C35	C	0.601428	0.371621	-0.372080
C36	C	0.807852	0.573399	-0.573294
C37	C	0.807821	0.438860	-0.439132
C38	C	1.348501	0.506182	-0.506244
C39	C	1.436357	0.506197	-0.506255
C40	C	1.192932	0.950751	-0.439132
C41	C	1.192979	1.060475	-0.439171
C42	C	1.091824	1.060468	-0.573438
C43	C	1.091781	0.950746	-0.573404
C44	C	1.243485	0.895895	-0.371973
C45	C	1.294086	0.950756	-0.304854
C46	C	1.294133	1.060480	-0.304893
C47	C	1.243579	1.115343	-0.372050
C48	C	1.142402	1.232113	-0.506263
C49	C	1.142424	1.115336	-0.506318
C50	C	1.091849	0.573157	-0.951880
C51	C	1.091878	0.573119	-1.061604
C52	C	1.193021	0.438760	-1.061618
C53	C	1.192995	0.438804	-0.951896
C54	C	1.041259	0.640354	-0.897014
C55	C	0.990699	0.707515	-0.951865
C56	C	0.990728	0.707477	-1.061589
C57	C	1.041317	0.640278	-1.116462
C58	C	1.142328	0.506171	-0.233252
C59	C	1.142459	0.505919	-0.116476
H60	H	0.841408	0.384067	-0.384510
N61	N	0.728582	0.713239	-0.712737
H62	H	0.762819	0.761869	-0.669960
H63	H	0.689872	0.755791	-0.755223
H64	H	1.041341	0.640259	-1.205807
N65	N	0.936197	0.779902	-1.120758
H66	H	0.968313	0.828582	-1.166278
H67	H	0.904155	0.822405	-1.069286
H68	H	1.050580	0.906078	-0.628055
H69	H	0.567800	0.316854	-0.317470
H70	H	1.243450	0.806552	-0.371932
H71	H	1.041229	0.640391	-0.807671
N72	N	1.348618	0.891590	-0.232434
H73	H	1.340912	0.813757	-0.242591
H74	H	1.336357	0.910844	-0.157391
N75	N	0.433156	0.646009	-0.645687
H76	H	0.471840	0.688614	-0.688180
H77	H	0.398890	0.694589	-0.602847
N78	N	1.247534	0.366398	-0.892718
H79	H	1.215428	0.317723	-0.847180
H80	H	1.284118	0.409230	-0.847268
N81	N	1.243620	1.233689	-0.372095
H82	H	1.258128	1.260046	-0.444194
H83	H	1.283338	1.260043	-0.319344
H84	H	0.949515	0.762231	-0.907179
H85	H	1.234207	0.384049	-1.106305
H86	H	1.335341	1.105145	-0.250249
N87	N	0.433086	0.366383	-0.366810
H88	H	0.374531	0.376602	-0.376986
H89	H	0.447499	0.382667	-0.291755
H90	H	0.567896	0.695493	-0.695000
N91	N	0.852386	0.645955	-0.645623
H92	H	0.838046	0.629738	-0.720721
H93	H	0.910926	0.635704	-0.635350
N94	N	0.728478	0.299048	-0.299707
H95	H	0.787037	0.309255	-0.309879
H96	H	0.714067	0.224033	-0.316186
N97	N	1.037298	1.119636	-0.645865
H98	H	1.045002	1.197469	-0.635700
H99	H	0.980846	1.100524	-0.629439
