data_functionalizedCrystal
_audit_creation_method	'MofGen! by Chris Wilmer'
_symmetry_space_group_name_H-M	'P1'
_symmetry_Int_Tables_number	1
_symmetry_cell_setting	triclinic
loop_
_symmetry_equiv_pos_as_xyz
  x,y,z
_cell_length_a	16.109301
_cell_length_b	9.130313
_cell_length_c	10.654558
_cell_angle_alpha	90.000339
_cell_angle_beta	83.974905
_cell_angle_gamma	89.997871
loop_
_atom_site_label
_atom_site_type_symbol
_atom_site_fract_x
_atom_site_fract_y
_atom_site_fract_z
O1	O	1.104090	0.121716	0.161416
O2	O	0.862148	0.121736	0.181504
O3	O	0.988678	0.121719	-0.011354
O4	O	0.977560	0.121733	0.354274
O5	O	0.988676	-0.121880	-0.011349
O6	O	0.862146	-0.121863	0.181509
O7	O	1.104088	-0.121883	0.161421
Cu8	Cu	0.983117	-0.144115	0.171465
Cu9	Cu	0.983119	0.143968	0.171459
O10	O	0.977558	-0.121866	0.354279
C11	C	0.831167	-0.000061	0.180693
C12	C	0.738857	-0.000053	0.178253
C13	C	0.430494	-0.000075	0.284716
C14	C	0.517228	-0.000066	0.287020
C15	C	0.535737	-0.000055	0.058200
C16	C	0.449004	-0.000053	0.055897
C17	C	0.396385	-0.000070	0.169159
C18	C	0.569851	-0.000064	0.173766
C19	C	0.663892	-0.000054	0.176263
C20	C	0.302338	-0.000077	0.166662
N21	N	0.983122	-0.346738	0.171469
C22	C	1.039164	-0.423398	0.086100
C23	C	1.039162	-0.576734	0.086085
C24	C	0.927073	-0.576739	0.256819
C25	C	0.927071	-0.423405	0.256827
C26	C	1.095214	-0.346731	0.000743
C27	C	1.151262	-0.423390	-0.084632
C28	C	1.151259	-0.576727	-0.084647
C29	C	1.095210	-0.653405	0.000712
C30	C	1.135069	-0.000083	0.162232
C31	C	1.227379	-0.000081	0.164672
C32	C	0.987859	-0.000079	-0.058138
C33	C	0.985413	-0.000074	-0.197548
N34	N	0.983121	0.346591	0.171446
C35	C	0.984261	-0.132857	-0.263043
C36	C	0.981969	-0.132851	-0.394034
C37	C	0.981978	0.132734	-0.394024
C38	C	0.984276	0.132726	-0.263036
C39	C	0.985398	-0.265657	-0.197555
C40	C	0.984245	-0.398452	-0.263050
C41	C	0.981953	-0.398445	-0.394042
C42	C	0.980814	-0.265645	-0.459538
C43	C	0.978377	-0.000065	0.401063
C44	C	0.980823	-0.000060	0.540473
H45	H	0.387653	-0.000088	0.376941
H46	H	0.544995	-0.000068	0.381117
H47	H	0.578589	-0.000044	-0.034013
C48	C	0.980715	0.278805	-0.466065
C49	C	1.051198	0.315324	-0.570409
C50	C	1.049931	0.461397	-0.642449
C51	C	0.978180	0.570952	-0.610145
C52	C	0.907692	0.534436	-0.505796
C53	C	0.908959	0.388362	-0.433756
H54	H	1.104317	0.234222	-0.594328
H55	H	1.102111	0.488428	-0.719695
H56	H	0.977242	0.679084	-0.663473
H57	H	0.854573	0.615537	-0.481877
H58	H	0.856778	0.361331	-0.356510
H59	H	0.421233	-0.000045	-0.038208
H60	H	0.987260	-0.265677	-0.090895
H61	H	1.095223	-0.221876	0.000749
C62	C	0.985543	0.278784	-0.190978
C63	C	1.057298	0.388324	-0.223267
C64	C	1.058572	0.534384	-0.151207
C65	C	0.988090	0.570905	-0.046859
C66	C	0.916329	0.461363	-0.014564
C67	C	0.915056	0.315302	-0.086624
H68	H	1.109478	0.361292	-0.300516
H69	H	1.111694	0.615475	-0.175114
H70	H	0.989033	0.679028	0.006484
H71	H	0.864150	0.488395	0.062685
H72	H	0.861934	0.234212	-0.062717
C73	C	1.212905	-0.661057	-0.178557
C74	C	1.274552	-0.576723	-0.272450
C75	C	1.336203	-0.661051	-0.366359
C76	C	1.336208	-0.829712	-0.366374
C77	C	1.274559	-0.914056	-0.272478
C78	C	1.212908	-0.829728	-0.178569
H79	H	1.274550	-0.451862	-0.272442
H80	H	1.381839	-0.598614	-0.435867
H81	H	1.381846	-0.892137	-0.435891
H82	H	1.274561	-1.038918	-0.272486
H83	H	1.167272	-0.892166	-0.109061
H84	H	0.881436	-0.360988	0.326341
H85	H	1.095207	-0.778262	0.000685
H86	H	1.196891	-0.360952	-0.154136
H87	H	0.881440	-0.639179	0.326316
H88	H	0.985179	-0.506572	-0.209716
H89	H	0.981022	-0.506573	-0.447366
H90	H	0.978955	-0.265651	-0.566202
