data_functionalizedCrystal
_audit_creation_method	'MofGen! by Chris Wilmer'
_symmetry_space_group_name_H-M	'P1'
_symmetry_Int_Tables_number	1
_symmetry_cell_setting	triclinic
loop_
_symmetry_equiv_pos_as_xyz
  x,y,z
_cell_length_a	13.897448
_cell_length_b	10.685980
_cell_length_c	10.686551
_cell_angle_alpha	81.591741
_cell_angle_beta	85.592616
_cell_angle_gamma	94.384308
loop_
_atom_site_label
_atom_site_type_symbol
_atom_site_fract_x
_atom_site_fract_y
_atom_site_fract_z
Zn1	Zn	-0.216203	1.995774	-0.866694
Zn2	Zn	0.117130	2.329107	-0.533361
Zn3	Zn	0.450464	2.662440	-0.200028
Zn4	Zn	-0.390948	1.979340	-0.654423
Zn5	Zn	-0.057615	2.312673	-0.321090
Zn6	Zn	0.275719	2.646006	0.012244
Zn7	Zn	-0.243050	1.767199	-0.638157
Zn8	Zn	0.090283	2.100532	-0.304824
Zn9	Zn	0.423617	2.433866	0.028509
Zn10	Zn	-0.390854	1.783463	-0.850333
Zn11	Zn	-0.057521	2.116797	-0.517000
Zn12	Zn	0.275812	2.450130	-0.183667
O13	O	-0.310264	1.881444	-0.752402
O14	O	0.023070	2.214777	-0.419069
O15	O	0.356403	2.548111	-0.085735
O16	O	-0.228187	2.171228	-0.852190
O17	O	0.105146	2.504561	-0.518857
O18	O	0.438480	2.837895	-0.185524
O19	O	-0.382604	1.937514	-0.474633
O20	O	-0.049271	2.270848	-0.141299
O21	O	0.284063	2.604181	0.192034
O22	O	-0.104500	1.797591	-0.668513
O23	O	0.228833	2.130924	-0.335180
O24	O	0.562166	2.464258	-0.001847
O25	O	-0.356571	2.159154	-0.696235
O26	O	-0.023238	2.492487	-0.362902
O27	O	0.310095	2.825821	-0.029569
O28	O	-0.084776	1.965524	-0.836418
O29	O	0.248557	2.298857	-0.503085
O30	O	0.581891	2.632191	-0.169752
O31	O	-0.273944	1.781655	-0.462683
O32	O	0.059390	2.114989	-0.129349
O33	O	0.392723	2.448322	0.203984
O34	O	-0.273853	1.591722	-0.652649
O35	O	0.059481	1.925056	-0.319315
O36	O	0.392814	2.258389	0.014018
O37	O	-0.356412	1.825311	-1.030136
O38	O	-0.023078	2.158644	-0.696803
O39	O	0.310255	2.491978	-0.363469
O40	O	-0.382444	1.603672	-0.808533
O41	O	-0.049111	1.937005	-0.475200
O42	O	0.284223	2.270338	-0.141867
O43	O	-0.228096	1.981295	-1.042156
O44	O	0.105237	2.314628	-0.708823
O45	O	0.438571	2.647961	-0.375490
O46	O	-0.525924	1.953285	-0.680371
O47	O	-0.192590	2.286618	-0.347038
O48	O	0.140743	2.619952	-0.013704
O49	O	-0.525855	1.809376	-0.824305
O50	O	-0.192522	2.142709	-0.490972
O51	O	0.140812	2.476042	-0.157639
C52	C	-0.331052	1.551638	-0.727051
C53	C	0.002281	1.884972	-0.393718
C54	C	0.335615	2.218305	-0.060385
C55	C	-0.339967	1.410548	-0.716236
C56	C	-0.006633	1.743882	-0.382903
C57	C	0.326700	2.077215	-0.049570
C58	C	-0.560886	1.881348	-0.752358
C59	C	-0.227553	2.214682	-0.419025
C60	C	0.105780	2.548015	-0.085691
C61	C	-0.668094	1.881427	-0.752391
C62	C	-0.334760	2.214760	-0.419057
C63	C	-0.001427	2.548094	-0.085724
C64	C	-0.864375	1.881566	-0.752481
C65	C	-0.531042	2.214900	-0.419147
C66	C	-0.197709	2.548233	-0.085814
C67	C	-0.755150	1.881486	-0.752434
C68	C	-0.421817	2.214819	-0.419101
C69	C	-0.088484	2.548152	-0.085768
C70	C	-0.058659	1.881576	-0.752476
C71	C	0.274675	2.214910	-0.419143
C72	C	0.608008	2.548243	-0.085810
C73	C	0.048560	1.881633	-0.752508
C74	C	0.381894	2.214966	-0.419175
C75	C	0.715227	2.548300	-0.085842
C76	C	-0.289249	1.906950	-1.083492
C77	C	0.044085	2.240284	-0.750159
C78	C	0.377418	2.573617	-0.416826
C79	C	-0.280293	1.917820	-1.224583
C80	C	0.053040	2.251153	-0.891250
C81	C	0.386373	2.584486	-0.557917
C82	C	-0.289395	2.212537	-0.777852
C83	C	0.043938	2.545871	-0.444519
C84	C	0.377272	2.879204	-0.111186
C85	C	-0.280502	2.353630	-0.788698
C86	C	0.052831	2.686963	-0.455364
C87	C	0.386165	3.020296	-0.122031
C88	C	-0.331123	1.856110	-0.422605
C89	C	0.002210	2.189443	-0.089272
C90	C	0.335544	2.522776	0.244061
C91	C	-0.339791	1.845486	-0.281534
C92	C	-0.006458	2.178820	0.051799
C93	C	0.326876	2.512153	0.385133
H94	H	-0.397701	1.351334	-0.645915
H95	H	-0.064368	1.684667	-0.312582
H96	H	0.268966	2.018000	0.020752
C97	C	-0.110723	1.399520	-0.854024
C98	C	0.222610	1.732853	-0.520691
C99	C	0.555943	2.066187	-0.187358
C100	C	-0.202562	1.433550	-0.883624
C101	C	0.130771	1.766883	-0.550291
C102	C	0.464105	2.100217	-0.216957
H103	H	-0.062608	1.448872	-0.912626
H104	H	0.270726	1.782206	-0.579293
H105	H	0.604059	2.115539	-0.245960
H106	H	-0.106699	1.312021	-0.858969
H107	H	0.226635	1.645355	-0.525636
H108	H	0.559968	1.978688	-0.192302
H109	H	-0.100575	1.414610	-0.770408
H110	H	0.232758	1.747943	-0.437074
H111	H	0.566091	2.081277	-0.103741
H112	H	-0.212713	1.418451	-0.967238
H113	H	0.120620	1.751785	-0.633904
H114	H	0.453954	2.085118	-0.300571
H115	H	-0.206589	1.521070	-0.878692
H116	H	0.126744	1.854403	-0.545358
H117	H	0.460078	2.187736	-0.212025
H118	H	-0.397583	1.775247	-1.222354
H119	H	-0.064250	2.108580	-0.889020
H120	H	0.269083	2.441913	-0.555687
H121	H	-0.222503	1.988073	-1.283771
H122	H	0.110830	2.321406	-0.950438
H123	H	0.444163	2.654739	-0.617104
