data_functionalizedCrystal
_audit_creation_method	'MofGen! by Chris Wilmer'
_symmetry_space_group_name_H-M	'P1'
_symmetry_Int_Tables_number	1
_symmetry_cell_setting	triclinic
loop_
_symmetry_equiv_pos_as_xyz
  x,y,z
_cell_length_a	19.805407
_cell_length_b	29.839131
_cell_length_c	19.805407
_cell_angle_alpha	90.015304
_cell_angle_beta	90.009221
_cell_angle_gamma	90.041420
loop_
_atom_site_label
_atom_site_type_symbol
_atom_site_fract_x
_atom_site_fract_y
_atom_site_fract_z
Zn1	Zn	1.034596	-0.178927	0.382710
Zn2	Zn	1.284596	0.071073	0.632710
Zn3	Zn	1.534596	0.321073	0.882710
Zn4	Zn	1.784596	0.571073	1.132710
Zn5	Zn	1.034502	-0.254036	0.269518
Zn6	Zn	1.284502	-0.004036	0.519518
Zn7	Zn	1.534502	0.245964	0.769518
Zn8	Zn	1.784502	0.495964	1.019518
Zn9	Zn	0.921431	-0.178921	0.269535
Zn10	Zn	1.171431	0.071079	0.519535
Zn11	Zn	1.421431	0.321079	0.769535
Zn12	Zn	1.671431	0.571079	1.019535
Zn13	Zn	0.921344	-0.254031	0.382665
Zn14	Zn	1.171344	-0.004031	0.632665
Zn15	Zn	1.421344	0.245969	0.882665
Zn16	Zn	1.671344	0.495969	1.132665
O17	O	0.977968	-0.216479	0.326107
O18	O	1.227968	0.033521	0.576107
O19	O	1.477968	0.283521	0.826107
O20	O	1.727968	0.533521	1.076107
O21	O	1.129300	-0.188895	0.367707
O22	O	1.379300	0.061105	0.617707
O23	O	1.629300	0.311105	0.867707
O24	O	1.879300	0.561105	1.117707
O25	O	1.019499	-0.244071	0.174804
O26	O	1.269499	0.005929	0.424804
O27	O	1.519499	0.255929	0.674804
O28	O	1.769499	0.505929	0.924804
O29	O	0.936518	-0.116054	0.284574
O30	O	1.186518	0.133946	0.534574
O31	O	1.436518	0.383946	0.784574
O32	O	1.686518	0.633946	1.034574
O33	O	1.129231	-0.244077	0.284545
O34	O	1.379231	0.005923	0.534545
O35	O	1.629231	0.255923	0.784545
O36	O	1.879231	0.505923	1.034545
O37	O	1.019660	-0.116059	0.367723
O38	O	1.269660	0.133941	0.617723
O39	O	1.519660	0.383941	0.867723
O40	O	1.769660	0.633941	1.117723
O41	O	0.936427	-0.188884	0.174816
O42	O	1.186427	0.061116	0.424816
O43	O	1.436427	0.311116	0.674816
O44	O	1.686427	0.561116	0.924816
O45	O	0.826703	-0.188879	0.284530
O46	O	1.076703	0.061121	0.534530
O47	O	1.326703	0.311121	0.784530
O48	O	1.576703	0.561121	1.034530
O49	O	0.936371	-0.244069	0.477387
O50	O	1.186371	0.005931	0.727387
O51	O	1.436371	0.255931	0.977387
O52	O	1.686371	0.505931	1.227387
O53	O	0.826639	-0.244062	0.367646
O54	O	1.076639	0.005938	0.617646
O55	O	1.326639	0.255938	0.867646
O56	O	1.576639	0.505938	1.117646
O57	O	1.019576	-0.188890	0.477421
O58	O	1.269576	0.061110	0.727421
O59	O	1.519576	0.311110	0.977421
O60	O	1.769576	0.561110	1.227421
O61	O	1.019415	-0.316902	0.284501
O62	O	1.269415	-0.066902	0.534501
O63	O	1.519415	0.183098	0.784501
O64	O	1.769415	0.433098	1.034501
O65	O	0.936279	-0.316899	0.367629
O66	O	1.186279	-0.066899	0.617629
O67	O	1.436279	0.183101	0.867629
O68	O	1.686279	0.433101	1.117629
C69	C	0.802112	-0.216470	0.326085
C70	C	1.052112	0.033530	0.576085
C71	C	1.302112	0.283530	0.826085
C72	C	1.552112	0.533530	1.076085
C73	C	0.726880	-0.216477	0.326092
C74	C	0.976880	0.033523	0.576092
C75	C	1.226880	0.283523	0.826092
C76	C	1.476880	0.533523	1.076092
C77	C	0.691521	-0.245254	0.369300
C78	C	0.941521	0.004746	0.619300
C79	C	1.191521	0.254746	0.869300
C80	C	1.441521	0.504746	1.119300
C81	C	0.620832	-0.245255	0.369310
C82	C	0.870832	0.004745	0.619310
C83	C	1.120832	0.254745	0.869310
C84	C	1.370832	0.504745	1.119310
C85	C	0.585505	-0.216481	0.326107
C86	C	0.835505	0.033519	0.576107
C87	C	1.085505	0.283519	0.826107
C88	C	1.335505	0.533519	1.076107
C89	C	0.620869	-0.187700	0.282896
C90	C	0.870869	0.062300	0.532896
C91	C	1.120869	0.312300	0.782896
C92	C	1.370869	0.562300	1.032896
C93	C	0.691556	-0.187698	0.282891
C94	C	0.941556	0.062302	0.532891
C95	C	1.191556	0.312302	0.782891
C96	C	1.441556	0.562302	1.032891
C97	C	0.335796	-0.187710	0.282919
C98	C	0.585796	0.062290	0.532919
C99	C	0.835796	0.312290	0.782919
C100	C	1.085796	0.562290	1.032919
C101	C	0.265104	-0.187716	0.282926
C102	C	0.515104	0.062284	0.532926
C103	C	0.765104	0.312284	0.782926
C104	C	1.015104	0.562284	1.032926
C105	C	0.265072	-0.245268	0.369338
C106	C	0.515072	0.004732	0.619338
C107	C	0.765072	0.254732	0.869338
C108	C	1.015072	0.504732	1.119338
C109	C	0.335759	-0.245265	0.369332
C110	C	0.585759	0.004735	0.619332
C111	C	0.835759	0.254735	0.869332
C112	C	1.085759	0.504735	1.119332
C113	C	0.371117	-0.216483	0.326125
C114	C	0.621117	0.033517	0.576125
C115	C	0.871117	0.283517	0.826125
C116	C	1.121117	0.533517	1.076125
C117	C	0.447766	-0.216482	0.326116
C118	C	0.697766	0.033518	0.576116
C119	C	0.947766	0.283518	0.826116
C120	C	1.197766	0.533518	1.076116
C121	C	0.508857	-0.216484	0.326112
C122	C	0.758857	0.033516	0.576112
C123	C	1.008857	0.283516	0.826112
C124	C	1.258857	0.533516	1.076112
C125	C	0.977846	-0.333201	0.326073
C126	C	1.227846	-0.083201	0.576073
C127	C	1.477846	0.166799	0.826073
C128	C	1.727846	0.416799	1.076073
C129	C	0.977856	-0.383136	0.326082
C130	C	1.227856	-0.133136	0.576082
C131	C	1.477856	0.116864	0.826082
C132	C	1.727856	0.366864	1.076082
C133	C	1.021336	-0.692768	0.282885
C134	C	1.271336	-0.442768	0.532885
C135	C	1.521336	-0.192768	0.782885
C136	C	1.771336	0.057232	1.032885
C137	C	1.021419	-0.880441	0.282911
C138	C	1.271419	-0.630441	0.532911
C139	C	1.521419	-0.380441	0.782911
C140	C	1.771419	-0.130441	1.032911
O141	O	1.058291	-0.904697	0.246158
O142	O	1.308291	-0.654697	0.496158
O143	O	1.558291	-0.404697	0.746158
O144	O	1.808291	-0.154697	0.996158
N145	N	0.978109	-0.903921	0.326158
N146	N	1.228109	-0.653921	0.576158
N147	N	1.478109	-0.403921	0.826158
N148	N	1.728109	-0.153921	1.076158
C149	C	0.934777	-0.880479	0.369404
C150	C	1.184777	-0.630479	0.619404
C151	C	1.434777	-0.380479	0.869404
C152	C	1.684777	-0.130479	1.119404
O153	O	0.897945	-0.904756	0.406193
O154	O	1.147945	-0.654756	0.656193
O155	O	1.397945	-0.404756	0.906193
O156	O	1.647945	-0.154756	1.156193
C157	C	0.934697	-0.692807	0.369381
C158	C	1.184697	-0.442807	0.619381
C159	C	1.434697	-0.192807	0.869381
C160	C	1.684697	0.057193	1.119381
C161	C	0.978006	-0.669330	0.326127
C162	C	1.228006	-0.419330	0.576127
C163	C	1.478006	-0.169330	0.826127
C164	C	1.728006	0.080670	1.076127
C165	C	1.064642	-0.669291	0.239635
C166	C	1.314642	-0.419291	0.489635
C167	C	1.564642	-0.169291	0.739635
C168	C	1.814642	0.080709	0.989635
C169	C	1.064618	-0.622376	0.239626
C170	C	1.314618	-0.372376	0.489626
C171	C	1.564618	-0.122376	0.739626
C172	C	1.814618	0.127624	0.989626
C173	C	1.021288	-0.598937	0.282868
C174	C	1.271288	-0.348937	0.532868
C175	C	1.521288	-0.098937	0.782868
C176	C	1.771288	0.151063	1.032868
C177	C	0.977982	-0.622414	0.326118
C178	C	1.227982	-0.372414	0.576118
C179	C	1.477982	-0.122414	0.826118
C180	C	1.727982	0.127586	1.076118
C181	C	0.891369	-0.669366	0.412630
C182	C	1.141369	-0.419366	0.662630
C183	C	1.391369	-0.169366	0.912630
C184	C	1.641369	0.080634	1.162630
C185	C	0.891355	-0.622445	0.412621
C186	C	1.141355	-0.372445	0.662621
C187	C	1.391355	-0.122445	0.912621
C188	C	1.641355	0.127555	1.162621
C189	C	0.934663	-0.598968	0.369367
C190	C	1.184663	-0.348968	0.619367
C191	C	1.434663	-0.098968	0.869367
C192	C	1.684663	0.151032	1.119367
C193	C	0.934628	-0.552060	0.369350
C194	C	1.184628	-0.302060	0.619350
C195	C	1.434628	-0.052060	0.869350
C196	C	1.684628	0.197940	1.119350
N197	N	0.977939	-0.528581	0.326104
N198	N	1.227939	-0.278581	0.576104
N199	N	1.477939	-0.028581	0.826104
N200	N	1.727939	0.221419	1.076104
C201	C	1.021269	-0.552020	0.282863
C202	C	1.271269	-0.302020	0.532863
C203	C	1.521269	-0.052020	0.782863
C204	C	1.771269	0.197980	1.032863
C205	C	0.934821	-0.979009	0.369412
C206	C	1.184821	-0.729009	0.619412
C207	C	1.434821	-0.479009	0.869412
C208	C	1.684821	-0.229009	1.119412
C209	C	0.934840	-1.025927	0.369417
C210	C	1.184840	-0.775927	0.619417
C211	C	1.434840	-0.525927	0.869417
C212	C	1.684840	-0.275927	1.119417
C213	C	1.021483	-1.025887	0.282926
C214	C	1.271483	-0.775887	0.532926
C215	C	1.521483	-0.525887	0.782926
C216	C	1.771483	-0.275887	1.032926
C217	C	1.021460	-0.978968	0.282917
C218	C	1.271460	-0.728968	0.532917
C219	C	1.521460	-0.478968	0.782917
C220	C	1.771460	-0.228968	1.032917
C221	C	0.978132	-0.955530	0.326166
C222	C	1.228132	-0.705530	0.576166
C223	C	1.478132	-0.455530	0.826166
C224	C	1.728132	-0.205530	1.076166
C225	C	1.021215	-0.453494	0.282847
C226	C	1.271215	-0.203494	0.532847
C227	C	1.521215	0.046506	0.782847
C228	C	1.771215	0.296506	1.032847
C229	C	1.021185	-0.406574	0.282840
C230	C	1.271185	-0.156574	0.532840
C231	C	1.521185	0.093426	0.782840
C232	C	1.771185	0.343426	1.032840
C233	C	0.934545	-0.406619	0.369334
C234	C	1.184545	-0.156619	0.619334
C235	C	1.434545	0.093381	0.869334
C236	C	1.684545	0.343381	1.119334
C237	C	0.934572	-0.453534	0.369339
C238	C	1.184572	-0.203534	0.619339
C239	C	1.434572	0.046466	0.869339
C240	C	1.684572	0.296466	1.119339
C241	C	0.977912	-0.476971	0.326093
C242	C	1.227912	-0.226971	0.576093
C243	C	1.477912	0.023029	0.826093
C244	C	1.727912	0.273029	1.076093
O245	O	0.897782	-0.527776	0.406089
O246	O	1.147782	-0.277776	0.656089
O247	O	1.397782	-0.027776	0.906089
O248	O	1.647782	0.222224	1.156089
O249	O	1.058106	-0.527735	0.246089
O250	O	1.308106	-0.277735	0.496089
O251	O	1.558106	-0.027735	0.746089
O252	O	1.808106	0.222265	0.996089
C253	C	1.021360	-0.739684	0.282894
C254	C	1.271360	-0.489684	0.532894
C255	C	1.521360	-0.239684	0.782894
C256	C	1.771360	0.010316	1.032894
C257	C	0.978054	-0.763161	0.326144
C258	C	1.228054	-0.513161	0.576144
C259	C	1.478054	-0.263161	0.826144
C260	C	1.728054	-0.013161	1.076144
C261	C	0.934724	-0.739722	0.369385
C262	C	1.184724	-0.489722	0.619385
C263	C	1.434724	-0.239722	0.869385
C264	C	1.684724	0.010278	1.119385
C265	C	0.978073	-0.810078	0.326149
C266	C	1.228073	-0.560078	0.576149
C267	C	1.478073	-0.310078	0.826149
C268	C	1.728073	-0.060078	1.076149
C269	C	1.021403	-0.833517	0.282908
C270	C	1.271403	-0.583517	0.532908
C271	C	1.521403	-0.333517	0.782908
C272	C	1.771403	-0.083517	1.032908
C273	C	1.064713	-0.810038	0.239661
C274	C	1.314713	-0.560038	0.489661
C275	C	1.564713	-0.310038	0.739661
C276	C	1.814713	-0.060038	0.989661
C277	C	1.064689	-0.763122	0.239653
C278	C	1.314689	-0.513122	0.489653
C279	C	1.564689	-0.263122	0.739653
C280	C	1.814689	-0.013122	0.989653
C281	C	0.891413	-0.763201	0.412632
C282	C	1.141413	-0.513201	0.662632
C283	C	1.391413	-0.263201	0.912632
C284	C	1.641413	-0.013201	1.162632
C285	C	0.891440	-0.810117	0.412636
C286	C	1.141440	-0.560117	0.662636
C287	C	1.391440	-0.310117	0.912636
C288	C	1.641440	-0.060117	1.162636
C289	C	0.934770	-0.833555	0.369395
C290	C	1.184770	-0.583555	0.619395
C291	C	1.434770	-0.333555	0.869395
C292	C	1.684770	-0.083555	1.119395
C293	C	1.154511	-0.216488	0.326129
C294	C	1.404511	0.033512	0.576129
C295	C	1.654511	0.283512	0.826129
C296	C	1.904511	0.533512	1.076129
C297	C	1.229743	-0.216491	0.326139
C298	C	1.479743	0.033509	0.576139
C299	C	1.729743	0.283509	0.826139
C300	C	1.979743	0.533509	1.076139
C301	C	0.977974	-0.216479	0.502650
C302	C	1.227974	0.033521	0.752650
C303	C	1.477974	0.283521	1.002650
C304	C	1.727974	0.533521	1.252650
C305	C	0.977977	-0.216480	0.577882
C306	C	1.227977	0.033520	0.827882
C307	C	1.477977	0.283520	1.077882
C308	C	1.727977	0.533520	1.327882
C309	C	0.978109	-0.099300	0.326155
C310	C	1.228109	0.150700	0.576155
C311	C	1.478109	0.400700	0.826155
C312	C	1.728109	0.650700	1.076155
C313	C	0.978169	-0.049366	0.326176
C314	C	1.228169	0.200634	0.576176
C315	C	1.478169	0.450634	0.826176
C316	C	1.728169	0.700634	1.076176
C317	C	1.021296	-0.187753	0.613244
C318	C	1.271296	0.062247	0.863244
C319	C	1.521296	0.312247	1.113244
C320	C	1.771296	0.562247	1.363244
C321	C	1.021291	-0.187752	0.683933
C322	C	1.271291	0.062248	0.933933
C323	C	1.521291	0.312248	1.183933
C324	C	1.771291	0.562248	1.433933
C325	C	0.977968	-0.216480	0.719257
C326	C	1.227968	0.033520	0.969257
C327	C	1.477968	0.283520	1.219257
C328	C	1.727968	0.533520	1.469257
C329	C	0.934644	-0.245208	0.683890
C330	C	1.184644	0.004792	0.933890
C331	C	1.434644	0.254792	1.183890
C332	C	1.684644	0.504792	1.433890
C333	C	0.934647	-0.245207	0.613202
C334	C	1.184647	0.004793	0.863202
C335	C	1.434647	0.254793	1.113202
C336	C	1.684647	0.504793	1.363202
C337	C	0.934630	-0.245213	0.968963
C338	C	1.184630	0.004787	1.218963
C339	C	1.434630	0.254787	1.468963
C340	C	1.684630	0.504787	1.718963
C341	C	0.934632	-0.245213	1.039655
C342	C	1.184632	0.004787	1.289655
C343	C	1.434632	0.254787	1.539655
C344	C	1.684632	0.504787	1.789655
C345	C	1.021274	-0.187758	1.039693
C346	C	1.271274	0.062242	1.289693
C347	C	1.521274	0.312242	1.539693
C348	C	1.771274	0.562242	1.789693
C349	C	1.021277	-0.187757	0.969006
C350	C	1.271277	0.062243	1.219006
C351	C	1.521277	0.312243	1.469006
C352	C	1.771277	0.562243	1.719006
C353	C	0.977951	-0.216483	0.933644
C354	C	1.227951	0.033517	1.183644
C355	C	1.477951	0.283517	1.433644
C356	C	1.727951	0.533517	1.683644
C357	C	0.977957	-0.216484	0.856996
C358	C	1.227957	0.033516	1.106996
C359	C	1.477957	0.283516	1.356996
C360	C	1.727957	0.533516	1.606996
C361	C	0.977965	-0.216482	0.795904
C362	C	1.227965	0.033518	1.045904
C363	C	1.477965	0.283518	1.295904
C364	C	1.727965	0.533518	1.545904
C365	C	0.977956	-0.216487	1.150251
C366	C	1.227956	0.033513	1.400251
C367	C	1.477956	0.283513	1.650251
C368	C	1.727956	0.533513	1.900251
C369	C	0.977949	-0.216484	1.075019
C370	C	1.227949	0.033516	1.325019
C371	C	1.477949	0.283516	1.575019
C372	C	1.727949	0.533516	1.825019
H373	H	0.592100	-0.164270	0.247723
H374	H	0.842100	0.085730	0.497723
H375	H	1.092100	0.335730	0.747723
H376	H	1.342100	0.585730	0.997723
H377	H	1.056557	-0.164365	0.940248
H378	H	1.306557	0.085635	1.190248
H379	H	1.556557	0.335635	1.440248
H380	H	1.806557	0.585635	1.690248
Br381	Br	1.123456	-0.701092	0.180944
Br382	Br	1.373456	-0.451092	0.430944
Br383	Br	1.623456	-0.201092	0.680944
Br384	Br	1.873456	0.048908	0.930944
H385	H	0.592046	-0.268688	0.404494
H386	H	0.842046	-0.018688	0.654494
H387	H	1.092046	0.231312	0.904494
H388	H	1.342046	0.481312	1.154494
Br389	Br	0.876051	-1.057783	0.428112
Br390	Br	1.126051	-0.807783	0.678112
Br391	Br	1.376051	-0.557783	0.928112
Br392	Br	1.626051	-0.307783	1.178112
Br393	Br	0.217159	-0.148663	0.224289
Br394	Br	0.467159	0.101337	0.474289
Br395	Br	0.717159	0.351337	0.724289
Br396	Br	0.967159	0.601337	0.974289
Br397	Br	0.383773	-0.148647	0.224284
Br398	Br	0.633773	0.101353	0.474284
Br399	Br	0.883773	0.351353	0.724284
Br400	Br	1.133773	0.601353	0.974284
Br401	Br	1.080285	-1.057705	0.224239
Br402	Br	1.330285	-0.807705	0.474239
Br403	Br	1.580285	-0.557705	0.724239
Br404	Br	1.830285	-0.307705	0.974239
Br405	Br	1.080075	-0.148771	1.087687
Br406	Br	1.330075	0.101229	1.337687
Br407	Br	1.580075	0.351229	1.587687
Br408	Br	1.830075	0.601229	1.837687
H409	H	0.899536	-0.959929	0.404631
H410	H	1.149536	-0.709929	0.654631
H411	H	1.399536	-0.459929	0.904631
H412	H	1.649536	-0.209929	1.154631
Br413	Br	1.080100	-0.148766	0.565311
Br414	Br	1.330100	0.101234	0.815311
Br415	Br	1.580100	0.351234	1.065311
Br416	Br	1.830100	0.601234	1.315311
H417	H	0.720345	-0.164262	0.247710
H418	H	0.970345	0.085738	0.497710
H419	H	1.220345	0.335738	0.747710
H420	H	1.470345	0.585738	0.997710
Br421	Br	0.875844	-0.284194	0.731829
Br422	Br	1.125844	-0.034194	0.981829
Br423	Br	1.375844	0.215806	1.231829
Br424	Br	1.625844	0.465806	1.481829
Br425	Br	1.079964	-0.374715	0.224133
Br426	Br	1.329964	-0.124715	0.474133
Br427	Br	1.579964	0.125285	0.724133
Br428	Br	1.829964	0.375285	0.974133
H429	H	0.899364	-0.268595	0.584411
H430	H	1.149364	-0.018595	0.834411
H431	H	1.399364	0.231405	1.084411
H432	H	1.649364	0.481405	1.334411
Br433	Br	0.832656	-0.841972	0.471342
Br434	Br	1.082656	-0.591972	0.721342
Br435	Br	1.332656	-0.341972	0.971342
Br436	Br	1.582656	-0.091972	1.221342
Br437	Br	0.832604	-0.731399	0.471324
Br438	Br	1.082604	-0.481399	0.721324
Br439	Br	1.332604	-0.231399	0.971324
Br440	Br	1.582604	0.018601	1.221324
Br441	Br	0.739458	-0.284311	0.427931
Br442	Br	0.989458	-0.034311	0.677931
Br443	Br	1.239458	0.215689	0.927931
Br444	Br	1.489458	0.465689	1.177931
H445	H	0.899351	-0.268608	1.068414
H446	H	1.149351	-0.018608	1.318414
H447	H	1.399351	0.231392	1.568414
H448	H	1.649351	0.481392	1.818414
H449	H	1.056509	-0.472570	0.247634
H450	H	1.306509	-0.222570	0.497634
H451	H	1.556509	0.027430	0.747634
H452	H	1.806509	0.277430	0.997634
Br453	Br	0.383700	-0.284320	0.427962
Br454	Br	0.633700	-0.034320	0.677962
Br455	Br	0.883700	0.215680	0.927962
Br456	Br	1.133700	0.465680	1.177962
H457	H	0.899361	-0.268611	0.940180
H458	H	1.149361	-0.018611	1.190180
H459	H	1.399361	0.231389	1.440180
H460	H	1.649361	0.481389	1.690180
H461	H	0.236274	-0.268701	0.404522
H462	H	0.486274	-0.018701	0.654522
H463	H	0.736274	0.231299	0.904522
H464	H	0.986274	0.481299	1.154522
Br465	Br	1.080238	-0.947111	0.224213
Br466	Br	1.330238	-0.697111	0.474213
Br467	Br	1.580238	-0.447111	0.724213
Br468	Br	1.830238	-0.197111	0.974213
Br469	Br	0.832550	-0.590639	0.471322
Br470	Br	1.082550	-0.340639	0.721322
Br471	Br	1.332550	-0.090639	0.971322
Br472	Br	1.582550	0.159361	1.221322
Br473	Br	1.080116	-0.148784	0.731922
Br474	Br	1.330116	0.101216	0.981922
Br475	Br	1.580116	0.351216	1.231922
Br476	Br	1.830116	0.601216	1.481922
H477	H	1.099885	-0.603264	0.204407
H478	H	1.349885	-0.353264	0.454407
H479	H	1.599885	-0.103264	0.704407
H480	H	1.849885	0.146736	0.954407
H481	H	0.899308	-0.472650	0.404562
H482	H	1.149308	-0.222650	0.654562
H483	H	1.399308	0.027350	0.904562
H484	H	1.649308	0.277350	1.154562
Br485	Br	0.875745	-0.374800	0.428019
Br486	Br	1.125745	-0.124800	0.678019
Br487	Br	1.375745	0.125200	0.928019
Br488	Br	1.625745	0.375200	1.178019
Br489	Br	1.123515	-0.841857	0.180974
Br490	Br	1.373515	-0.591857	0.430974
Br491	Br	1.623515	-0.341857	0.680974
Br492	Br	1.873515	-0.091857	0.930974
H493	H	0.856099	-0.688472	0.447849
H494	H	1.106099	-0.438472	0.697849
H495	H	1.356099	-0.188472	0.947849
H496	H	1.606099	0.061528	1.197849
H497	H	1.099956	-0.744011	0.204431
H498	H	1.349956	-0.494011	0.454431
H499	H	1.599956	-0.244011	0.704431
H500	H	1.849956	0.005989	0.954431
