data_functionalizedCrystal
_audit_creation_method	'MofGen! by Chris Wilmer'
_symmetry_space_group_name_H-M	'P1'
_symmetry_Int_Tables_number	1
_symmetry_cell_setting	triclinic
loop_
_symmetry_equiv_pos_as_xyz
  x,y,z
_cell_length_a	25.639240
_cell_length_b	12.759395
_cell_length_c	12.759387
_cell_angle_alpha	90.020674
_cell_angle_beta	89.968599
_cell_angle_gamma	89.970464
loop_
_atom_site_label
_atom_site_type_symbol
_atom_site_fract_x
_atom_site_fract_y
_atom_site_fract_z
Zn1	Zn	-0.208158	-1.606142	-0.594005
Zn2	Zn	-0.295604	-1.605979	-0.418324
Zn3	Zn	-0.208181	-1.430440	-0.418342
Zn4	Zn	-0.295561	-1.430379	-0.593962
O5	O	-0.251876	-1.518235	-0.506158
O6	O	-0.219767	-1.753141	-0.570711
O7	O	-0.284035	-1.582651	-0.271305
O8	O	-0.135013	-1.453841	-0.441669
O9	O	-0.284013	-1.753022	-0.441639
O10	O	-0.134996	-1.582928	-0.570728
O11	O	-0.219805	-1.453683	-0.271318
O12	O	-0.219763	-1.283411	-0.441628
O13	O	-0.283939	-1.453737	-0.740989
O14	O	-0.283961	-1.283366	-0.570655
O15	O	-0.219725	-1.582869	-0.741021
O16	O	-0.368764	-1.582592	-0.441597
O17	O	-0.368732	-1.453579	-0.570638
C18	C	-0.251860	-1.245268	-0.506139
C19	C	-0.251866	-1.128491	-0.506156
C20	C	-0.185074	-1.128596	-0.640777
C21	C	-0.151684	-1.073788	-0.708094
C22	C	-0.151691	-0.964066	-0.708105
C23	C	-0.185091	-0.909150	-0.640788
C24	C	-0.218481	-0.963959	-0.573471
C25	C	-0.218472	-1.073683	-0.573470
C26	C	-0.285269	-0.963853	-0.438847
C27	C	-0.285266	-1.073575	-0.438840
C28	C	-0.318669	-0.908938	-0.371531
C29	C	-0.352063	-0.963746	-0.304217
C30	C	-0.352055	-1.073474	-0.304210
C31	C	-0.318656	-1.128383	-0.371523
C32	C	-0.387719	-1.518090	-0.506134
C33	C	-0.445833	-1.518124	-0.506159
C34	C	-0.696966	-1.585445	-0.573428
C35	C	-0.642362	-1.585413	-0.573420
O36	O	-0.614074	-1.642531	-0.630580
N37	N	-0.615106	-1.518239	-0.506172
C38	C	-0.642458	-1.451099	-0.438920
O39	O	-0.614261	-1.393960	-0.381719
C40	C	-0.697061	-1.451137	-0.438923
C41	C	-0.724314	-1.518308	-0.506183
C42	C	-0.724219	-1.652612	-0.640682
C43	C	-0.778819	-1.652641	-0.640691
C44	C	-0.806167	-1.585505	-0.573446
C45	C	-0.778915	-1.518338	-0.506192
C46	C	-0.724412	-1.384004	-0.371667
C47	C	-0.779019	-1.384048	-0.371675
C48	C	-0.806272	-1.451219	-0.438935
C49	C	-0.860863	-1.451231	-0.438957
N50	N	-0.888118	-1.518406	-0.506205
C51	C	-0.860771	-1.585542	-0.573450
C52	C	-0.527788	-1.451027	-0.438916
C53	C	-0.473185	-1.450983	-0.438918
C54	C	-0.473093	-1.585299	-0.573417
C55	C	-0.527696	-1.585336	-0.573420
C56	C	-0.555043	-1.518201	-0.506165
C57	C	-0.975436	-1.585600	-0.573464
C58	C	-1.030041	-1.585620	-0.573470
C59	C	-1.030129	-1.451309	-0.438968
C60	C	-0.975528	-1.451284	-0.438965
C61	C	-0.948183	-1.518438	-0.506217
O62	O	-0.889185	-1.394146	-0.381823
O63	O	-0.888974	-1.642682	-0.630632
C64	C	-0.115503	-1.518409	-0.506206
C65	C	-0.057389	-1.518484	-0.506226
C66	C	-0.251825	-1.518315	-0.780192
C67	C	-0.251803	-1.518348	-0.896969
C68	C	-0.251887	-0.792269	-0.506172
C69	C	-0.251879	-0.909045	-0.506164
C70	C	-0.184941	-1.652823	-0.897021
C71	C	-0.151502	-1.720075	-0.951908
C72	C	-0.151483	-1.720100	-1.061630
C73	C	-0.184906	-1.652864	-1.116467
C74	C	-0.218344	-1.585613	-1.061580
C75	C	-0.218361	-1.585596	-0.951856
C76	C	-0.285203	-1.451135	-1.061527
C77	C	-0.285225	-1.451113	-0.951806
C78	C	-0.318625	-1.383899	-1.116365
C79	C	-0.352067	-1.316651	-1.061477
C80	C	-0.352085	-1.316629	-0.951749
C81	C	-0.318664	-1.383861	-0.896919
C82	C	-0.251889	-1.518217	-0.233191
C83	C	-0.251764	-1.518386	-0.116415
H84	H	-0.379252	-0.919025	-0.249410
N85	N	-0.946137	-1.378830	-0.366420
H86	H	-0.923484	-1.421543	-0.317762
H87	H	-0.923515	-1.330118	-0.409133
H88	H	-0.318605	-1.383920	-1.205706
H89	H	-1.052405	-1.396646	-0.384221
N90	N	-0.388151	-1.244097	-0.892543
H91	H	-0.366904	-1.195436	-0.847020
H92	H	-0.409313	-1.201579	-0.943994
N93	N	-0.318641	-1.246725	-0.371530
H94	H	-0.308980	-1.273139	-0.299496
H95	H	-0.354524	-1.273060	-0.390756
H96	H	-0.550050	-1.396347	-0.384152
N97	N	-0.945947	-1.658027	-0.645998
H98	H	-0.971503	-1.700575	-0.688600
H99	H	-0.923294	-1.615224	-0.694580
H100	H	-0.185090	-0.819809	-0.640795
N101	N	-0.808512	-1.311638	-0.299128
H102	H	-0.799034	-1.236556	-0.315373
H103	H	-0.847230	-1.321935	-0.309365
N104	N	-0.184969	-1.652808	-0.778679
H105	H	-0.158725	-1.705606	-0.752269
H106	H	-0.175370	-1.580712	-0.752318
N107	N	-0.318670	-0.790596	-0.371538
H108	H	-0.328329	-0.764188	-0.443575
H109	H	-0.344888	-0.764204	-0.318634
N110	N	-0.388100	-1.244130	-1.120635
H111	H	-0.412324	-1.286792	-1.166167
H112	H	-0.409255	-1.201530	-1.069162
N113	N	-0.184885	-1.652892	-1.234809
H114	H	-0.211131	-1.600099	-1.261219
H115	H	-0.148993	-1.633668	-1.261165
H116	H	-0.185063	-1.217937	-0.640770
H117	H	-0.124251	-1.774856	-1.106319
H118	H	-0.124490	-1.118512	-0.762899
H119	H	-1.052228	-1.640318	-0.628248
N120	N	-0.318688	-1.383821	-0.778577
H121	H	-0.328312	-1.455868	-0.752143
H122	H	-0.282816	-1.364509	-0.752246
N123	N	-0.115461	-1.792598	-0.892761
H124	H	-0.094275	-1.835204	-0.944182
H125	H	-0.091266	-1.749862	-0.847238
H126	H	-0.124499	-0.919441	-0.762914
H127	H	-0.379244	-1.118093	-0.249388
N128	N	-0.695027	-1.311561	-0.299114
H129	H	-0.720645	-1.269049	-0.256516
H130	H	-0.672372	-1.354346	-0.250529
H131	H	-0.701957	-1.707287	-0.695440
N132	N	-0.808210	-1.725055	-0.713271
H133	H	-0.782592	-1.767564	-0.755874
H134	H	-0.830867	-1.773730	-0.670592
H135	H	-0.450816	-1.639967	-0.628170
N136	N	-0.557088	-1.657772	-0.645976
H137	H	-0.531473	-1.700287	-0.688577
H138	H	-0.579737	-1.706440	-0.603271
H139	H	-0.451000	-1.396275	-0.384160
