data_functionalizedCrystal
_audit_creation_method	'MofGen! by Chris Wilmer'
_symmetry_space_group_name_H-M	'P1'
_symmetry_Int_Tables_number	1
_symmetry_cell_setting	triclinic
loop_
_symmetry_equiv_pos_as_xyz
  x,y,z
_cell_length_a	17.917559
_cell_length_b	31.640172
_cell_length_c	31.640172
_cell_angle_alpha	90.014226
_cell_angle_beta	57.015799
_cell_angle_gamma	63.038360
loop_
_atom_site_label
_atom_site_type_symbol
_atom_site_fract_x
_atom_site_fract_y
_atom_site_fract_z
Zr1	Zr	0.818438	0.428328	-0.076447
O2	O	0.974475	0.364856	-0.147956
O3	O	0.662423	0.444989	-0.051746
O4	O	0.818450	0.449001	-0.143935
O5	O	0.818430	0.360861	0.013791
O6	O	0.818435	0.518557	-0.143925
O7	O	0.818448	0.360844	-0.055767
O8	O	0.539330	0.511381	0.020985
O9	O	1.097535	0.368037	-0.151119
O10	O	0.726574	0.507383	-0.044562
O11	O	0.726573	0.455486	0.007341
O12	O	0.910275	0.460210	-0.101200
O13	O	0.910273	0.408313	-0.049297
Zr14	Zr	0.818385	0.539290	0.034505
Zr15	Zr	0.818413	0.539263	-0.076432
Zr16	Zr	0.818410	0.428355	0.034490
Zr17	Zr	1.014704	0.433402	-0.081491
Zr18	Zr	0.622119	0.534216	0.039549
O19	O	0.974400	0.522629	0.009804
O20	O	0.974440	0.522591	-0.147935
O21	O	0.974435	0.364894	0.009782
O22	O	0.662348	0.602762	0.106015
O23	O	0.662388	0.602724	-0.051724
O24	O	0.662383	0.445027	0.105993
O25	O	0.818393	0.606757	-0.055733
O26	O	0.818372	0.518617	0.101993
O27	O	0.818388	0.449060	0.101984
O28	O	0.818375	0.606774	0.013825
O29	O	1.097515	0.456216	-0.151107
O30	O	0.539308	0.511402	0.109165
O31	O	0.539288	0.599581	0.109177
O32	O	0.539311	0.599559	0.020997
O33	O	1.097512	0.368059	-0.062939
O34	O	1.097493	0.456237	-0.062926
O35	O	0.726548	0.507408	0.059259
O36	O	0.726550	0.559305	0.007355
O37	O	0.910250	0.512132	-0.049283
O38	O	0.910249	0.460235	0.002621
C39	C	0.572913	0.477462	-0.014662
C40	C	0.489593	0.475308	-0.012520
C41	C	0.818442	0.345046	-0.020990
C42	C	0.818453	0.297952	-0.020997
C43	C	0.299842	0.496208	-0.033366
C44	C	0.336985	0.471411	-0.008577
C45	C	0.421904	0.473580	-0.010772
C46	C	0.214916	0.494040	-0.031172
C47	C	0.722512	0.030568	0.008604
C48	C	0.722493	-0.146417	0.008615
O49	O	0.640942	-0.148361	0.033777
N50	N	0.818382	-0.193171	-0.020950
C51	C	0.914283	-0.195677	-0.050517
O52	O	0.995842	-0.239505	-0.075660
C53	C	0.914300	-0.018692	-0.050525
C54	C	0.818405	0.028061	-0.020962
C55	C	0.626624	0.077319	0.038165
C56	C	0.626630	0.121563	0.038160
C57	C	0.722523	0.119055	0.008594
C58	C	0.818410	0.072304	-0.020967
C59	C	1.010200	-0.021199	-0.080088
C60	C	1.010195	0.023052	-0.080086
C61	C	0.914300	0.069805	-0.050524
C62	C	0.914309	0.114040	-0.050538
N63	N	0.818420	0.160794	-0.020973
C64	C	0.722527	0.163301	0.008593
C65	C	0.914267	-0.288595	-0.050512
C66	C	0.914263	-0.332841	-0.050511
C67	C	0.722473	-0.283578	0.008622
C68	C	0.722478	-0.239332	0.008618
C69	C	0.818378	-0.241842	-0.020947
C70	C	0.722546	0.256214	0.008579
C71	C	0.722560	0.300459	0.008569
C72	C	0.914349	0.251192	-0.050561
C73	C	0.914336	0.206951	-0.050554
C74	C	0.818425	0.209465	-0.020980
O75	O	0.995818	0.116022	-0.075683
O76	O	0.640980	0.207134	0.033741
C77	C	0.722506	-0.013675	0.008610
C78	C	0.818394	-0.060426	-0.020951
C79	C	0.914287	-0.062934	-0.050517
C80	C	0.818390	-0.104672	-0.020950
C81	C	0.722497	-0.102165	0.008616
C82	C	0.626607	-0.055411	0.038181
C83	C	0.626613	-0.011168	0.038176
C84	C	1.010176	-0.109688	-0.080082
C85	C	1.010163	-0.153929	-0.080075
C86	C	0.914269	-0.151422	-0.050509
C87	C	1.063910	0.490156	-0.027280
C88	C	1.147230	0.492310	-0.029421
C89	C	0.818447	0.483775	-0.159736
C90	C	0.818459	0.483764	-0.206832
C91	C	0.818381	0.622571	-0.020952
C92	C	0.818370	0.669666	-0.020945
C93	C	0.818399	0.445492	-0.543108
C94	C	0.818431	0.445467	-0.366128
O95	O	0.818400	0.412886	-0.343239
N96	N	0.818427	0.483784	-0.343988
C97	C	0.818408	0.522112	-0.366095
O98	O	0.818394	0.554705	-0.343199
C99	C	0.818368	0.522138	-0.543072
C100	C	0.818383	0.483816	-0.565212
C101	C	0.818413	0.407173	-0.565248
C102	C	0.818410	0.407178	-0.609492
C103	C	0.818394	0.445502	-0.631596
C104	C	0.818380	0.483821	-0.609456
C105	C	0.818341	0.560468	-0.565175
C106	C	0.818328	0.560472	-0.609421
C107	C	0.818343	0.522149	-0.631561
C108	C	0.818362	0.522150	-0.675805
N109	N	0.818366	0.483833	-0.697944
C110	C	0.818382	0.445509	-0.675840
C111	C	0.818431	0.522095	-0.273180
C112	C	0.818443	0.522088	-0.228936
C113	C	0.818464	0.445443	-0.228972
C114	C	0.818460	0.445449	-0.273218
C115	C	0.818435	0.483778	-0.295319
C116	C	0.818378	0.445522	-0.768756
C117	C	0.818380	0.445530	-0.813006
C118	C	0.818353	0.522176	-0.812964
C119	C	0.818357	0.522167	-0.768721
C120	C	0.818366	0.483838	-0.746616
O121	O	0.818381	0.554718	-0.698717
O122	O	0.818373	0.412927	-0.698735
C123	C	0.818401	0.445487	-0.498864
C124	C	0.818387	0.483806	-0.476724
C125	C	0.818371	0.522130	-0.498828
C126	C	0.818399	0.483799	-0.432480
C127	C	0.818415	0.445474	-0.410376
C128	C	0.818420	0.407157	-0.432515
C129	C	0.818417	0.407162	-0.476760
C130	C	0.818367	0.560447	-0.476688
C131	C	0.818371	0.560438	-0.432445
C132	C	0.818387	0.522114	-0.410340
C133	C	0.818376	0.483843	0.117795
C134	C	0.818364	0.483854	0.164890
C135	C	0.572882	0.616224	-0.014642
C136	C	0.489552	0.661165	-0.012495
C137	C	0.572878	0.477496	0.124104
C138	C	0.489546	0.475353	0.173341
C139	C	0.572847	0.616258	0.124123
C140	C	0.489504	0.661210	0.173367
C141	C	1.063976	0.351360	-0.166065
C142	C	1.147319	0.306408	-0.215308
C143	C	1.063941	0.351393	-0.027299
C144	C	1.147271	0.306453	-0.029447
C145	C	1.063945	0.490122	-0.166045
C146	C	1.147277	0.492265	-0.215282
C147	C	0.450432	0.655167	-0.038591
C148	C	0.372145	0.697389	-0.036584
C149	C	0.332974	0.745609	-0.008476
C150	C	0.372101	0.751607	0.017621
C151	C	0.450392	0.709385	0.015610
C152	C	0.450399	0.501449	0.223568
C153	C	0.372111	0.499434	0.269835
C154	C	0.332965	0.471326	0.265874
C155	C	0.372120	0.445226	0.215642
C156	C	0.450412	0.447238	0.169375
C157	C	0.450367	0.709414	0.169399
C158	C	0.372068	0.751656	0.215664
C159	C	0.332904	0.745692	0.265896
C160	C	0.372049	0.697483	0.269863
C161	C	0.450351	0.655243	0.223598
C162	C	1.186466	0.258204	-0.211341
C163	C	1.264788	0.215963	-0.257606
C164	C	1.303957	0.221926	-0.307839
C165	C	1.264806	0.270135	-0.311805
C166	C	1.186491	0.312376	-0.265540
C167	C	1.186400	0.312451	-0.003355
C168	C	1.264708	0.270229	-0.005376
C169	C	1.303882	0.222009	-0.033485
C170	C	1.264750	0.216012	-0.059580
C171	C	1.186449	0.258233	-0.057562
C172	C	1.186398	0.520378	-0.211304
C173	C	1.264687	0.522401	-0.257563
C174	C	1.303859	0.496308	-0.307800
C175	C	1.264730	0.468193	-0.311777
C176	C	1.186437	0.466173	-0.265518
H177	H	0.305013	0.448550	0.014290
H178	H	1.154579	0.253338	-0.170443
H179	H	1.296651	0.176713	-0.254367
O180	O	0.329843	0.803654	0.211392
H181	H	0.294159	0.807234	0.190833
O182	O	1.307011	0.164001	-0.089898
H183	H	1.291981	0.142168	-0.062152
O184	O	0.248438	0.791253	0.315795
H185	H	0.227799	0.825773	0.304592
H186	H	0.818367	0.591645	-0.414424
H187	H	0.340235	0.422340	0.212424
H188	H	0.992422	0.168882	-0.074633
O189	O	0.818311	0.601813	-0.633258
H190	H	0.746606	0.622065	-0.631302
H191	H	0.331817	0.519064	-0.056235
O192	O	0.818439	0.365822	-0.408668
H193	H	0.818452	0.339172	-0.431494
H194	H	0.548532	0.079370	0.062244
O195	O	1.144299	0.364362	-0.269838
H196	H	1.159328	0.386211	-0.251366
H197	H	0.644467	0.338527	0.032645
O198	O	0.818435	0.365830	-0.500641
H199	H	0.890140	0.345589	-0.542908
O200	O	0.619103	0.258927	0.040469
H201	H	0.552436	0.298873	0.061016
H202	H	0.992365	-0.290647	-0.074591
H203	H	0.482274	0.425989	0.128480
H204	H	0.340241	0.520690	0.310732
H205	H	1.154510	0.351711	0.019537
O206	O	1.144242	0.251761	-0.085702
H207	H	1.108581	0.229356	-0.069123
O208	O	1.388438	0.176366	-0.357738
H209	H	1.409071	0.141846	-0.346535
O210	O	0.523200	0.171987	0.070049
H211	H	0.456528	0.166289	0.090610
O212	O	0.492613	0.531768	0.227847
H213	H	0.528292	0.517030	0.248407
O214	O	1.113632	0.020345	-0.111979
H215	H	1.180305	-0.019599	-0.132536
H216	H	1.296636	0.446949	-0.352686
H217	H	0.269215	0.469691	0.303552
O218	O	0.492613	0.715853	0.115222
H219	H	0.452245	0.756472	0.120244
O220	O	0.329790	0.691053	0.324043
H221	H	0.268755	0.728527	0.355543
O222	O	1.307058	0.276563	-0.365987
H223	H	1.241343	0.296347	-0.368800
H224	H	0.818352	0.591656	-0.494682
O225	O	0.492540	0.603250	0.227880
H226	H	0.452134	0.606205	0.270584
O227	O	1.306893	0.276703	0.022779
H228	H	1.266477	0.317327	0.042672
O229	O	1.388310	0.176476	-0.035638
H230	H	1.459643	0.178349	-0.054416
O231	O	1.144145	0.548530	-0.157123
H232	H	1.184499	0.568423	-0.162136
H233	H	0.644392	-0.201266	0.032695
O234	O	1.017698	-0.383264	-0.082404
H235	H	1.022301	-0.404609	-0.112476
O236	O	0.619041	-0.280876	0.040516
H237	H	0.635158	-0.319499	0.035551
O238	O	1.388318	0.498482	-0.357690
H239	H	1.358262	0.538057	-0.356877
H240	H	1.088288	-0.059261	-0.104161
O241	O	0.248523	0.791147	-0.006304
H242	H	0.227899	0.778870	-0.029170
H243	H	1.296537	0.545294	-0.254314
O244	O	1.144247	0.435847	-0.269809
H245	H	1.209992	0.395896	-0.292991
O246	O	1.017741	0.248525	-0.082488
H247	H	1.022364	0.267524	-0.055279
O248	O	0.523183	0.039257	0.070064
H249	H	0.456511	0.033559	0.090624
H250	H	1.088258	-0.191996	-0.104154
O251	O	0.523176	-0.052709	0.070072
H252	H	0.539294	-0.091333	0.065108
H253	H	1.088265	-0.111737	-0.104160
H254	H	0.818418	0.375974	-0.627515
H255	H	0.818395	0.414321	-0.831032
H256	H	0.818384	0.414312	-0.750763
O257	O	0.818440	0.365832	-0.541413
H258	H	0.818456	0.339189	-0.564251
O259	O	0.818493	0.404112	-0.297103
H260	H	0.818512	0.377462	-0.274297
O261	O	0.329943	0.690915	-0.064728
H262	H	0.370324	0.650290	-0.084600
O263	O	0.818457	0.404112	-0.205120
H264	H	0.818447	0.410553	-0.170631
O265	O	0.329840	0.803616	0.047941
H266	H	0.268818	0.831963	0.044958
H267	H	0.482234	0.714275	0.036864
O268	O	0.818326	0.563498	-0.744824
H269	H	0.890009	0.563477	-0.775407
O270	O	0.818432	0.563419	-0.205059
H271	H	0.818407	0.590070	-0.227863
O272	O	0.818431	0.563433	-0.297019
H273	H	0.746741	0.600221	-0.266406
O274	O	0.818307	0.601808	-0.541298
H275	H	0.889986	0.601782	-0.571894
O276	O	0.818330	0.563512	-0.836807
H277	H	0.818317	0.557077	-0.871289
H278	H	0.482324	0.615907	-0.061486
