data_functionalizedCrystal
_audit_creation_method	'MofGen! by Chris Wilmer'
_symmetry_space_group_name_H-M	'P1'
_symmetry_Int_Tables_number	1
_symmetry_cell_setting	triclinic
loop_
_symmetry_equiv_pos_as_xyz
  x,y,z
_cell_length_a	16.992694
_cell_length_b	12.996460
_cell_length_c	14.519731
_cell_angle_alpha	89.988498
_cell_angle_beta	92.821461
_cell_angle_gamma	89.999814
loop_
_atom_site_label
_atom_site_type_symbol
_atom_site_fract_x
_atom_site_fract_y
_atom_site_fract_z
O1	O	1.040679	0.085459	-0.195571
O2	O	0.812391	0.085489	-0.193425
O3	O	0.932579	0.085452	-0.060695
O4	O	0.920491	0.085495	-0.328302
O5	O	0.932567	-0.085682	-0.060686
O6	O	0.812378	-0.085645	-0.193417
O7	O	1.040667	-0.085675	-0.195562
Cu8	Cu	0.926521	-0.101286	-0.194489
Cu9	Cu	0.926536	0.101100	-0.194499
O10	O	0.920479	-0.085639	-0.328293
C11	C	0.783168	-0.000075	-0.190661
C12	C	0.696112	-0.000064	-0.182426
N13	N	0.926517	-0.243633	-0.194481
C14	C	0.645988	-0.000052	-0.261885
C15	C	0.564190	-0.000068	-0.254142
C16	C	0.532517	-0.000088	-0.166938
C17	C	0.582648	-0.000103	-0.087473
C18	C	0.664444	-0.000095	-0.095217
C19	C	0.288873	-0.000120	-0.134841
C20	C	0.207070	-0.000125	-0.127103
C21	C	0.188618	-0.000092	-0.293773
C22	C	0.270416	-0.000078	-0.301509
C23	C	0.320539	-0.000098	-0.222044
N24	N	0.448907	-0.000100	-0.159021
N25	N	0.404148	-0.000093	-0.229962
C26	C	0.926535	-0.663447	-0.194500
C27	C	0.926528	-0.546642	-0.194498
C28	C	0.926526	-0.453544	-0.194491
C29	C	0.926518	-0.336731	-0.194488
C30	C	1.069890	-0.000110	-0.198327
C31	C	1.156946	-0.000113	-0.206562
C32	C	0.932006	-0.000118	-0.026290
C33	C	0.930309	-0.000127	0.076212
N34	N	0.926547	0.243447	-0.194500
C35	C	0.928930	-0.000132	0.159455
C36	C	0.927207	-0.000132	0.263887
C37	C	0.925839	-0.000133	0.347124
C38	C	0.924116	-0.000135	0.451563
C39	C	0.921051	-0.000088	0.637303
C40	C	0.922748	-0.000136	0.534801
H41	H	0.671769	-0.000035	-0.332896
H42	H	0.523382	-0.000057	-0.318846
H43	H	0.181286	-0.000141	-0.056087
C44	C	0.305250	-0.000071	-0.397433
H45	H	0.263682	-0.000077	-0.443649
H46	H	0.336775	0.059608	-0.403926
H47	H	0.336776	-0.059756	-0.403909
H48	H	0.329674	-0.000138	-0.070134
C49	C	0.133482	-0.000083	-0.381176
H50	H	0.080230	-0.000099	-0.364078
H51	H	0.143091	0.059600	-0.416692
H52	H	0.143101	-0.059764	-0.416677
C53	C	0.547810	-0.000123	0.008450
H54	H	0.491916	-0.000115	0.001683
H55	H	0.565008	-0.059805	0.041425
H56	H	0.565006	0.059559	0.041415
C57	C	0.719580	-0.000098	-0.007812
H58	H	0.689004	-0.000099	0.045233
H59	H	0.751878	-0.059771	-0.007363
H60	H	0.751867	0.059593	-0.007374
