data_functionalizedCrystal
_audit_creation_method	'MofGen! by Chris Wilmer'
_symmetry_space_group_name_H-M	'P1'
_symmetry_Int_Tables_number	1
_symmetry_cell_setting	triclinic
loop_
_symmetry_equiv_pos_as_xyz
  x,y,z
_cell_length_a	11.792241
_cell_length_b	11.026607
_cell_length_c	10.868271
_cell_angle_alpha	89.998659
_cell_angle_beta	90.000588
_cell_angle_gamma	96.389716
loop_
_atom_site_label
_atom_site_type_symbol
_atom_site_fract_x
_atom_site_fract_y
_atom_site_fract_z
O1	O	-1.539979	-0.166544	-0.102197
O2	O	-1.039979	0.333456	0.397803
O3	O	-1.213047	-0.183709	-0.102225
O4	O	-0.713047	0.316291	0.397775
O5	O	-1.349417	0.001705	-0.102208
O6	O	-0.849417	0.501705	0.397792
O7	O	-1.403609	-0.351958	-0.102213
O8	O	-0.903609	0.148042	0.397787
O9	O	-1.349401	0.001697	0.102436
O10	O	-0.849401	0.501697	0.602436
O11	O	-1.213031	-0.183717	0.102420
O12	O	-0.713031	0.316283	0.602420
O13	O	-1.539964	-0.166552	0.102448
O14	O	-1.039964	0.333448	0.602448
Zn15	Zn	-1.376495	-0.175135	0.134926
Zn16	Zn	-0.876495	0.324865	0.634926
Zn17	Zn	-1.376516	-0.175125	-0.134702
Zn18	Zn	-0.876516	0.324875	0.365298
O19	O	-1.403593	-0.351965	0.102432
O20	O	-0.903593	0.148035	0.602432
C21	C	-1.170534	-0.182634	0.000094
C22	C	-0.670534	0.317366	0.500094
C23	C	-1.043879	-0.179407	0.000083
C24	C	-0.543879	0.320593	0.500083
C25	C	-1.339412	0.046978	0.000112
C26	C	-0.839412	0.546978	0.500112
C27	C	-1.309609	0.181888	0.000105
C28	C	-0.809609	0.681888	0.500105
C29	C	-1.582477	-0.167626	0.000127
C30	C	-1.082477	0.332374	0.500127
C31	C	-1.709131	-0.170853	0.000130
C32	C	-1.209131	0.329147	0.500130
C33	C	-0.811989	-0.173473	0.000119
C34	C	-0.311989	0.326527	0.500119
C35	C	-0.941029	-0.176770	0.000099
C36	C	-0.441029	0.323230	0.500099
C37	C	-1.413598	-0.397238	0.000109
C38	C	-0.913598	0.102762	0.500109
C39	C	-1.443401	-0.532148	0.000108
C40	C	-0.943401	-0.032148	0.500108
N41	N	-1.376489	-0.175142	0.318940
N42	N	-0.876489	0.324858	0.818940
C43	C	-1.391899	0.255152	0.000110
C44	C	-0.891899	0.755152	0.500110
C45	C	-1.361099	0.394589	0.000103
C46	C	-0.861099	0.894589	0.500103
C47	C	-1.376497	-0.175143	0.430278
C48	C	-0.876497	0.324857	0.930278
C49	C	-1.376509	-0.175133	0.569955
C50	C	-0.876509	0.324867	1.069955
N51	N	-1.376523	-0.175118	0.681284
N52	N	-0.876523	0.324882	1.181284
H53	H	-1.485153	0.214647	0.000126
H54	H	-0.985153	0.714647	0.500126
H55	H	-1.267839	0.435088	0.000087
H56	H	-0.767839	0.935088	0.500087
Cl57	Cl	-1.587390	0.405336	0.000115
Cl58	Cl	-1.087390	0.905336	0.500115
Cl59	Cl	-1.165628	0.244413	0.000080
Cl60	Cl	-0.665628	0.744413	0.500080
