data_functionalizedCrystal
_audit_creation_method	'MofGen! by Chris Wilmer'
_symmetry_space_group_name_H-M	'P1'
_symmetry_Int_Tables_number	1
_symmetry_cell_setting	triclinic
loop_
_symmetry_equiv_pos_as_xyz
  x,y,z
_cell_length_a	13.897448
_cell_length_b	21.395364
_cell_length_c	21.395355
_cell_angle_alpha	90.025298
_cell_angle_beta	89.984371
_cell_angle_gamma	89.965607
loop_
_atom_site_label
_atom_site_type_symbol
_atom_site_fract_x
_atom_site_fract_y
_atom_site_fract_z
Zn1	Zn	-0.383697	-0.957916	-0.354287
Zn2	Zn	-0.544976	-0.957842	-0.249514
Zn3	Zn	-0.383744	-0.853131	-0.249522
Zn4	Zn	-0.544998	-0.853124	-0.354253
O5	O	-0.464354	-0.905503	-0.301894
O6	O	-0.405062	-1.045584	-0.340399
O7	O	-0.523599	-0.943924	-0.161837
O8	O	-0.248756	-0.867065	-0.263436
O9	O	-0.523553	-1.045530	-0.263423
O10	O	-0.248721	-0.944050	-0.340406
O11	O	-0.405142	-0.866993	-0.161843
O12	O	-0.405164	-0.765452	-0.263404
O13	O	-0.523591	-0.867053	-0.441935
O14	O	-0.523637	-0.765447	-0.340350
O15	O	-0.405083	-0.944043	-0.441960
O16	O	-0.679961	-0.943917	-0.263391
O17	O	-0.679977	-0.866981	-0.340342
C18	C	-0.464408	-0.742716	-0.301874
C19	C	-0.464455	-0.673074	-0.301881
C20	C	-0.402859	-0.640412	-0.342023
C21	C	-0.402837	-0.574976	-0.342025
C22	C	-0.464427	-0.542206	-0.301890
C23	C	-0.526027	-0.574876	-0.261740
C24	C	-0.526041	-0.640311	-0.261735
C25	C	-0.551299	-0.438494	-0.296854
C26	C	-0.551286	-0.373061	-0.296864
C27	C	-0.464384	-0.340385	-0.301902
C28	C	-0.377490	-0.373150	-0.306944
C29	C	-0.377504	-0.438584	-0.306939
C30	C	-0.464418	-0.471254	-0.301891
C31	C	-0.402758	-0.236770	-0.342048
C32	C	-0.402734	-0.171334	-0.342045
C33	C	-0.525933	-0.171235	-0.261764
C34	C	-0.525949	-0.236670	-0.261763
C35	C	-0.464362	-0.269434	-0.301909
C36	C	-0.714968	-0.905457	-0.301876
C37	C	-0.822182	-0.905495	-0.301889
C38	C	-1.018477	-0.905561	-0.301928
C39	C	-0.909245	-0.905523	-0.301908
C40	C	-0.212761	-0.905566	-0.301926
C41	C	-0.105547	-0.905593	-0.301940
C42	C	-0.464334	-0.905555	-0.465317
C43	C	-0.464326	-0.905577	-0.534959
C44	C	-0.464312	-0.068926	-0.301911
C45	C	-0.464324	-0.138568	-0.301910
C46	C	-0.402616	-0.945664	-0.567686
C47	C	-0.402575	-0.945664	-0.633121
C48	C	-0.464260	-0.905582	-0.665827
C49	C	-0.525974	-0.865487	-0.633092
C50	C	-0.526007	-0.865485	-0.567658
C51	C	-0.551115	-0.900619	-0.769495
C52	C	-0.551084	-0.900626	-0.834928
C53	C	-0.464158	-0.905586	-0.867648
C54	C	-0.377262	-0.910553	-0.834926
C55	C	-0.377295	-0.910550	-0.769492
C56	C	-0.464231	-0.905580	-0.736779
C57	C	-0.402399	-0.945674	-0.971327
C58	C	-0.402356	-0.945669	-1.036764
C59	C	-0.525763	-0.865496	-1.036734
C60	C	-0.525798	-0.865498	-0.971299
C61	C	-0.464117	-0.905591	-0.938599
C62	C	-0.464304	-0.905487	-0.139106
C63	C	-0.464040	-0.905587	-0.069466
H64	H	-0.622040	-0.346389	-0.292761
H65	H	-0.352710	-0.667084	-0.374713
H66	H	-0.576081	-0.144554	-0.229085
H67	H	-0.576111	-0.263264	-0.229077
H68	H	-0.576257	-0.832838	-0.541012
H69	H	-0.352673	-0.548377	-0.374713
H70	H	-0.306753	-0.465259	-0.311042
H71	H	-0.352169	-0.978317	-0.944702
H72	H	-0.306726	-0.346546	-0.311046
H73	H	-0.575979	-0.832855	-1.063363
H74	H	-0.306479	-0.914593	-0.861565
H75	H	-0.352099	-0.978312	-1.063409
H76	H	-0.621840	-0.896586	-0.861565
H77	H	-0.622071	-0.465094	-0.292751
H78	H	-0.352605	-0.263448	-0.374733
H79	H	-0.576174	-0.548191	-0.229061
H80	H	-0.352390	-0.978310	-0.541066
H81	H	-0.576202	-0.666904	-0.229045
H82	H	-0.621882	-0.896412	-0.742861
H83	H	-0.352318	-0.978306	-0.659772
H84	H	-0.576196	-0.832851	-0.659726
H85	H	-0.306540	-0.914592	-0.742853
H86	H	-0.352569	-0.144741	-0.374734
H87	H	-0.576054	-0.832859	-0.944652
