data_functionalizedCrystal
_audit_creation_method	'MofGen! by Chris Wilmer'
_symmetry_space_group_name_H-M	'P1'
_symmetry_Int_Tables_number	1
_symmetry_cell_setting	triclinic
loop_
_symmetry_equiv_pos_as_xyz
  x,y,z
_cell_length_a	12.759401
_cell_length_b	19.121063
_cell_length_c	12.759393
_cell_angle_alpha	87.597083
_cell_angle_beta	90.018496
_cell_angle_gamma	92.469017
loop_
_atom_site_label
_atom_site_type_symbol
_atom_site_fract_x
_atom_site_fract_y
_atom_site_fract_z
Zn1	Zn	1.588321	-0.279568	0.611771
Zn2	Zn	1.580680	-0.397037	0.443567
Zn3	Zn	1.412621	-0.279605	0.436113
Zn4	Zn	1.405080	-0.396983	0.619205
O5	O	1.496676	-0.338298	0.527664
O6	O	1.734328	-0.295158	0.589467
O7	O	1.558345	-0.381497	0.295559
O8	O	1.442282	-0.181316	0.453184
O9	O	1.728714	-0.381462	0.465888
O10	O	1.571368	-0.181289	0.582240
O11	O	1.434872	-0.295221	0.290083
O12	O	1.264600	-0.295168	0.460392
O13	O	1.429429	-0.381370	0.765237
O14	O	1.259060	-0.381405	0.594909
O15	O	1.564056	-0.295106	0.759776
O16	O	1.551032	-0.495314	0.473095
O17	O	1.422020	-0.495274	0.602136
C18	C	1.223709	-0.338285	0.527649
C19	C	1.106932	-0.338297	0.527668
C20	C	1.049208	-0.383272	0.597605
C21	C	0.939483	-0.383281	0.597616
C22	C	0.945216	-0.293337	0.457747
C23	C	1.054939	-0.293325	0.457741
C24	C	1.045897	-0.435203	0.678354
C25	C	0.936172	-0.435212	0.678366
C26	C	1.484907	-0.520778	0.539254
C27	C	1.479969	-0.598844	0.544247
C28	C	1.544871	-0.635516	0.479464
C29	C	1.540233	-0.708867	0.484167
C30	C	1.470686	-0.745544	0.553648
C31	C	1.405781	-0.708866	0.618438
C32	C	1.410426	-0.635517	0.613740
C33	C	1.453305	-0.967013	0.571195
C34	C	1.448663	-1.040368	0.575886
C35	C	1.583116	-1.040364	0.441616
C36	C	1.587750	-0.967013	0.436920
C37	C	1.522849	-0.930341	0.501714
C38	C	1.465941	-0.820521	0.558454
C39	C	1.527600	-0.855366	0.496912
C40	C	1.770708	-0.338312	0.527680
C41	C	1.887484	-0.338318	0.527686
C42	C	1.496754	-0.338227	0.801693
C43	C	1.496787	-0.338197	0.918468
C44	C	1.508518	-0.155106	0.516052
C45	C	1.513565	-0.077040	0.511103
C46	C	1.496661	-0.338318	0.254698
C47	C	1.496844	-0.338151	0.137911
C48	C	1.566897	-0.293275	0.970488
C49	C	1.566923	-0.293250	1.080210
C50	C	1.426727	-0.383075	1.085884
C51	C	1.426696	-0.383096	0.976163
C52	C	1.647841	-0.241418	0.967213
C53	C	1.647867	-0.241392	1.076936
H54	H	1.601498	-0.605659	0.422881
C55	C	0.891195	-0.508670	0.653404
H56	H	0.816737	-0.508675	0.653424
H57	H	0.915197	-0.520763	0.586339
H58	H	0.913891	-0.541891	0.705068
H59	H	1.635956	-1.070229	0.388866
H60	H	1.392042	-1.070228	0.632484
C61	C	1.087380	-0.504967	0.643242
H62	H	1.029926	-0.536044	0.627616
H63	H	1.129804	-0.496569	0.582472
H64	H	1.127991	-0.525335	0.697992
C65	C	1.349557	-0.432496	0.918943
H66	H	1.307824	-0.459233	0.969021
H67	H	1.305516	-0.405625	0.874444
H68	H	1.387744	-0.463118	0.878075
H69	H	1.644380	-0.937152	0.380343
H70	H	1.076635	-0.420697	0.758838
C71	C	1.623142	-0.167945	0.922326
H72	H	1.623133	-0.167962	0.847870
H73	H	1.556136	-0.155783	0.946362
H74	H	1.674938	-0.134763	0.945043
H75	H	0.903420	-0.415796	0.754482
H76	H	1.622069	-0.189711	1.107695
C77	C	1.604099	-0.815027	0.420487
H78	H	1.642095	-0.847371	0.382575
H79	H	1.565738	-0.786459	0.372853
H80	H	1.651672	-0.786368	0.458889
C81	C	0.888021	-0.243875	0.380830
H82	H	0.814406	-0.250324	0.390846
H83	H	0.909046	-0.196696	0.393325
H84	H	0.905315	-0.254100	0.310858
H85	H	1.728304	-0.255961	1.107641
H86	H	1.400458	-0.937161	0.623951
C87	C	1.118432	-0.243851	0.380814
H88	H	1.071750	-0.217076	0.339164
H89	H	1.163219	-0.213278	0.419135
H90	H	1.159489	-0.270680	0.336665
C91	C	1.329279	-0.749209	0.694862
H92	H	1.335799	-0.798146	0.688375
H93	H	1.345377	-0.737143	0.764695
H94	H	1.259453	-0.737233	0.678649
C95	C	1.339035	-0.595177	0.685003
H96	H	1.296945	-0.627524	0.727051
H97	H	1.381019	-0.566517	0.728976
H98	H	1.295083	-0.566609	0.642942
C99	C	1.349642	-0.432464	1.149351
H100	H	1.359704	-0.426021	1.222148
H101	H	1.279711	-0.422188	1.130715
H102	H	1.361971	-0.479661	1.134356
H103	H	1.593082	-0.738723	0.431413
H104	H	1.409314	-0.850391	0.615023
C105	C	1.750539	-0.267749	0.922901
H106	H	1.796296	-0.279457	0.979093
H107	H	1.735440	-0.308038	0.883541
H108	H	1.783250	-0.231989	0.878740
