data_functionalizedCrystal
_audit_creation_method	'MofGen! by Chris Wilmer'
_symmetry_space_group_name_H-M	'P1'
_symmetry_Int_Tables_number	1
_symmetry_cell_setting	triclinic
loop_
_symmetry_equiv_pos_as_xyz
  x,y,z
_cell_length_a	19.288864
_cell_length_b	23.532407
_cell_length_c	18.366186
_cell_angle_alpha	89.989089
_cell_angle_beta	89.977106
_cell_angle_gamma	82.992461
loop_
_atom_site_label
_atom_site_type_symbol
_atom_site_fract_x
_atom_site_fract_y
_atom_site_fract_z
O1	O	0.921134	0.071045	-0.060790
O2	O	1.421134	0.571045	0.439210
O3	O	0.718843	0.080629	-0.060742
O4	O	1.218843	0.580629	0.439258
O5	O	0.826089	-0.007082	-0.060754
O6	O	1.326089	0.492918	0.439246
O7	O	0.813889	0.158756	-0.060778
O8	O	1.313889	0.658756	0.439222
O9	O	0.826071	-0.007086	0.060345
O10	O	1.326071	0.492914	0.560345
O11	O	0.718825	0.080625	0.060358
O12	O	1.218825	0.580625	0.560358
O13	O	0.921116	0.071041	0.060309
O14	O	1.421116	0.571041	0.560309
Zn15	Zn	0.819968	0.075832	0.079560
Zn16	Zn	1.319968	0.575832	0.579560
Zn17	Zn	0.819991	0.075838	-0.079993
Zn18	Zn	1.319991	0.575838	0.420007
O19	O	0.813870	0.158752	0.060321
O20	O	1.313870	0.658752	0.560321
C21	C	0.692959	0.080319	-0.000186
C22	C	1.192959	0.580319	0.499814
C23	C	0.615858	0.079393	-0.000166
C24	C	1.115858	0.579393	0.499834
C25	C	0.571003	0.130858	-0.000185
C26	C	1.071003	0.630858	0.499815
C27	C	0.498559	0.129988	-0.000193
C28	C	0.998559	0.629988	0.499807
C29	C	0.470973	0.077651	-0.000197
C30	C	0.970973	0.577651	0.499803
C31	C	0.515838	0.026179	-0.000174
C32	C	1.015838	0.526179	0.499826
C33	C	0.588280	0.027050	-0.000159
C34	C	1.088280	0.527050	0.499841
C35	C	0.362844	0.036509	-0.042642
C36	C	0.862844	0.536509	0.457358
C37	C	0.290402	0.035640	-0.042662
C38	C	0.790402	0.535640	0.457338
C39	C	0.247535	0.074961	-0.000240
C40	C	0.747535	0.574961	0.499760
C41	C	0.277118	0.115162	0.042191
C42	C	0.777118	0.615162	0.542191
C43	C	0.349561	0.116033	0.042206
C44	C	0.849561	0.616033	0.542206
C45	C	0.392422	0.076700	-0.000213
C46	C	0.892422	0.576700	0.499787
C47	C	0.124127	0.125487	-0.000267
C48	C	0.624127	0.625487	0.499733
C49	C	0.051682	0.124615	-0.000270
C50	C	0.551682	0.624615	0.499730
C51	C	0.068962	0.020805	-0.000258
C52	C	0.568962	0.520805	0.499742
C53	C	0.141406	0.021678	-0.000248
C54	C	0.641406	0.521678	0.499752
C55	C	0.168984	0.074021	-0.000255
C56	C	0.668984	0.574021	0.499745
C57	C	0.825769	-0.028301	-0.000203
C58	C	1.325769	0.471699	0.499797
C59	C	0.824835	-0.091520	-0.000197
C60	C	1.324835	0.408480	0.499803
C61	C	0.882442	-0.490503	-0.000251
C62	C	1.382442	0.009497	0.499749
C63	C	0.881574	-0.549905	-0.000256
C64	C	1.381574	-0.049905	0.499744
O65	O	0.934976	-0.586539	-0.000296
O66	O	1.434976	-0.086539	0.499704
N67	N	0.817817	-0.572664	-0.000240
N68	N	1.317817	-0.072664	0.499760
C69	C	0.754923	-0.536017	-0.000226
C70	C	1.254923	-0.036017	0.499774
O71	O	0.700613	-0.560829	-0.000214
O72	O	1.200613	-0.060829	0.499786
C73	C	0.755792	-0.476616	-0.000226
C74	C	1.255792	0.023384	0.499774
C75	C	0.819553	-0.453861	-0.000235
C76	C	1.319553	0.046139	0.499765
C77	C	0.946198	-0.467748	-0.000260
C78	C	1.446198	0.032252	0.499740
C79	C	0.947065	-0.408350	-0.000253
C80	C	1.447065	0.091650	0.499747
C81	C	0.884177	-0.371707	-0.000237
C82	C	1.384177	0.128293	0.499763
C83	C	0.820420	-0.394463	-0.000228
C84	C	1.320420	0.105537	0.499772
C85	C	0.692899	-0.439970	-0.000217
C86	C	1.192899	0.060030	0.499783
C87	C	0.693773	-0.380565	-0.000218
C88	C	1.193773	0.119435	0.499782
C89	C	0.757534	-0.357810	-0.000226
C90	C	1.257534	0.142190	0.499774
C91	C	0.758399	-0.298422	-0.000205
C92	C	1.258399	0.201578	0.499795
N93	N	0.822156	-0.275664	-0.000221
N94	N	1.322156	0.224336	0.499779
C95	C	0.885045	-0.312307	-0.000237
C96	C	1.385045	0.187693	0.499763
C97	C	0.753104	-0.660763	-0.000228
C98	C	1.253104	-0.160763	0.499772
C99	C	0.752235	-0.720163	-0.000223
C100	C	1.252235	-0.220163	0.499777
C101	C	0.878886	-0.734047	-0.000254
C102	C	1.378886	-0.234047	0.499746
C103	C	0.879755	-0.674647	-0.000254
C104	C	1.379755	-0.174647	0.499746
C105	C	0.816861	-0.638005	-0.000244
C106	C	1.316861	-0.138005	0.499756
C107	C	0.886862	-0.187566	-0.000222
C108	C	1.386862	0.312434	0.499778
C109	C	0.887724	-0.128162	-0.000213
C110	C	1.387724	0.371838	0.499787
C111	C	0.761073	-0.114283	-0.000185
C112	C	1.261073	0.385717	0.499815
C113	C	0.760211	-0.173681	-0.000191
C114	C	1.260211	0.326319	0.499809
C115	C	0.823111	-0.210322	-0.000212
C116	C	1.323111	0.289678	0.499788
O117	O	0.705025	-0.261754	-0.000168
O118	O	1.205025	0.238246	0.499832
O119	O	0.939346	-0.287486	-0.000259
O120	O	1.439346	0.212514	0.499741
C121	C	0.947000	0.071351	-0.000249
C122	C	1.447000	0.571351	0.499751
C123	C	1.024101	0.072277	-0.000273
C124	C	1.524101	0.572277	0.499727
C125	C	0.814190	0.179971	-0.000232
C126	C	1.314190	0.679971	0.499768
C127	C	0.815124	0.243190	-0.000242
C128	C	1.315124	0.743190	0.499758
N129	N	0.819956	0.075828	0.188452
N130	N	1.319956	0.575828	0.688452
N131	N	0.820008	0.075837	-0.188884
N132	N	1.320008	0.575837	0.311116
C133	C	0.867460	0.037009	0.226546
C134	C	1.367460	0.537009	0.726546
C135	C	0.867464	0.037006	0.302774
C136	C	1.367464	0.537006	0.802774
C137	C	0.819972	0.075833	0.340904
C138	C	1.319972	0.575833	0.840904
C139	C	0.772459	0.114655	0.302800
C140	C	1.272459	0.614655	0.802800
C141	C	0.772452	0.114653	0.226574
C142	C	1.272452	0.614653	0.726574
C143	C	0.810514	0.127724	0.461659
C144	C	1.310514	0.627724	0.961659
C145	C	0.810526	0.127727	0.537884
C146	C	1.310526	0.627727	1.037884
C147	C	0.819991	0.075840	0.576012
C148	C	1.319991	0.575840	1.076012
C149	C	0.829459	0.023947	0.537906
C150	C	1.329459	0.523947	1.037906
C151	C	0.829451	0.023945	0.461679
C152	C	1.329451	0.523945	0.961679
C153	C	0.819975	0.075839	0.423559
C154	C	1.319975	0.575839	0.923559
C155	C	0.867502	0.037014	0.696762
C156	C	1.367502	0.537014	1.196762
C157	C	0.867502	0.037011	0.772991
C158	C	1.367502	0.537011	1.272991
C159	C	0.772500	0.114665	0.773015
C160	C	1.272500	0.614665	1.273015
C161	C	0.772497	0.114663	0.696788
C162	C	1.272497	0.614663	1.196788
C163	C	0.820002	0.075839	0.658665
C164	C	1.320002	0.575839	1.158665
H165	H	0.462031	0.171898	-0.000206
H166	H	0.962031	0.671898	0.499794
O167	O	0.693246	-0.074754	-0.000164
O168	O	1.193246	0.425246	0.499836
H169	H	0.662720	-0.082816	-0.049515
H170	H	1.162720	0.417184	0.450485
H171	H	0.177928	-0.020230	-0.000236
H172	H	0.677928	0.479770	0.499764
H173	H	0.146582	0.168107	-0.000262
H174	H	0.646582	0.668107	0.499738
O175	O	0.948525	-0.650106	-0.000267
O176	O	1.448525	-0.150106	0.499733
H177	H	0.951957	-0.623367	-0.049625
H178	H	1.451957	-0.123367	0.450375
H179	H	0.906149	0.005393	0.333797
H180	H	1.406149	0.505393	0.833797
O181	O	1.015836	-0.383810	-0.000284
O182	O	1.515836	0.116190	0.499716
H183	H	1.059415	-0.419277	-0.000308
H184	H	1.559415	0.080723	0.499692
O185	O	0.003296	0.180126	-0.000288
O186	O	0.503296	0.680126	0.499712
H187	H	0.034647	0.216667	-0.000297
H188	H	0.534647	0.716667	0.499703
O189	O	0.839650	-0.032019	0.420576
O190	O	1.339650	0.467981	0.920576
H191	H	0.846227	-0.068102	0.459889
H192	H	1.346227	0.431898	0.959889
O193	O	0.039213	-0.035644	-0.000259
O194	O	0.539213	0.464356	0.499741
H195	H	0.057228	-0.060363	0.049110
H196	H	0.557228	0.439637	0.549110
H197	H	0.642556	-0.350733	-0.000211
H198	H	1.142556	0.149267	0.499789
H199	H	0.708291	-0.192209	-0.000164
H200	H	1.208291	0.307791	0.499836
H201	H	0.593452	0.173479	-0.000193
H202	H	1.093452	0.673479	0.499807
O203	O	1.014033	-0.507266	-0.000267
O204	O	1.514033	-0.007266	0.499733
H205	H	1.058506	-0.481453	-0.000266
H206	H	1.558506	0.018547	0.499734
O207	O	0.946720	-0.773574	-0.000279
O208	O	1.446720	-0.273574	0.499721
H209	H	0.935399	-0.818701	-0.000286
H210	H	1.435399	-0.318701	0.499714
H211	H	0.373644	0.148763	0.076758
H212	H	0.873644	0.648763	0.576758
H213	H	0.242217	0.147181	0.076735
H214	H	0.742217	0.647181	0.576735
H215	H	0.939648	-0.109639	-0.000218
H216	H	1.439648	0.390361	0.499782
H217	H	0.266322	0.002909	-0.077215
H218	H	0.766322	0.502909	0.422785
O219	O	0.409078	-0.005902	-0.088403
O220	O	0.909078	0.494098	0.411597
H221	H	0.376337	-0.033993	-0.117920
H222	H	0.876337	0.466007	0.382080
O223	O	0.486091	-0.030273	-0.000178
O224	O	0.986091	0.469727	0.499822
H225	H	0.428180	-0.022233	-0.000199
H226	H	0.928180	0.477767	0.499801
O227	O	0.918686	-0.004872	0.185427
O228	O	1.418686	0.495128	0.685427
H229	H	0.951714	-0.031870	0.224728
H230	H	1.451714	0.468130	0.724728
O231	O	0.683465	-0.744704	-0.000204
O232	O	1.183465	-0.244704	0.499796
H233	H	0.639884	-0.709239	-0.000196
H234	H	1.139884	-0.209239	0.499804
H235	H	0.624802	-0.014860	-0.000144
H236	H	1.124802	0.485140	0.499856
O237	O	0.839685	-0.032025	0.579011
O238	O	1.339685	0.467975	1.079011
H239	H	0.797414	-0.057992	0.564403
H240	H	1.297414	0.442008	1.064403
O241	O	0.918727	-0.004865	0.655635
O242	O	1.418727	0.495135	1.155635
H243	H	0.951753	-0.031867	0.694935
H244	H	1.451753	0.468133	1.194935
H245	H	0.640978	-0.458486	-0.000215
H246	H	1.140978	0.041514	0.499785
O247	O	0.954702	-0.227082	-0.000234
O248	O	1.454702	0.272918	0.499766
H249	H	0.999175	-0.201271	-0.000231
H250	H	1.499175	0.298729	0.499769
H251	H	0.906183	0.005397	0.804008
H252	H	1.406183	0.505397	1.304008
O253	O	0.685266	-0.621242	-0.000197
O254	O	1.185266	-0.121242	0.499803
H255	H	0.640791	-0.647051	-0.000177
H256	H	1.140791	-0.147051	0.499823
H257	H	0.733828	0.146276	0.804060
H258	H	1.233828	0.646276	1.304060
H259	H	0.733818	0.146276	0.665769
H260	H	1.233818	0.646276	1.165769
O261	O	0.800329	0.183693	0.578983
O262	O	1.300329	0.683693	1.078983
H263	H	0.793737	0.219773	0.539666
H264	H	1.293737	0.719773	1.039666
O265	O	0.800309	0.183691	0.420536
O266	O	1.300309	0.683691	0.920536
H267	H	0.793740	0.219774	0.459837
H268	H	1.293740	0.719774	0.959837
O269	O	0.721237	0.156537	0.343920
O270	O	1.221237	0.656537	0.843920
H271	H	0.729228	0.150022	0.403325
H272	H	1.229228	0.650022	0.903325
H273	H	0.733768	0.146265	0.195556
H274	H	1.233768	0.646265	0.695556
