data_functionalizedCrystal
_audit_creation_method	'MofGen! by Chris Wilmer'
_symmetry_space_group_name_H-M	'P1'
_symmetry_Int_Tables_number	1
_symmetry_cell_setting	triclinic
loop_
_symmetry_equiv_pos_as_xyz
  x,y,z
_cell_length_a	17.019383
_cell_length_b	17.019294
_cell_length_c	12.503572
_cell_angle_alpha	89.649141
_cell_angle_beta	82.619237
_cell_angle_gamma	83.133350
loop_
_atom_site_label
_atom_site_type_symbol
_atom_site_fract_x
_atom_site_fract_y
_atom_site_fract_z
O1	O	1.056512	0.090567	-0.195322
O2	O	0.825813	0.104394	-0.175285
O3	O	0.947058	-0.016846	-0.175269
O4	O	0.935267	0.211807	-0.195338
O5	O	0.937940	-0.007713	0.003371
O6	O	0.816695	0.113527	0.003354
O7	O	1.047393	0.099700	-0.016682
Cu8	Cu	0.931212	0.107447	0.009647
Cu9	Cu	0.941995	0.096647	-0.201615
O10	O	0.926149	0.220940	-0.016699
C11	C	0.791725	0.108614	-0.083205
C12	C	0.703738	0.107573	-0.074979
C13	C	0.667365	0.102107	-0.168483
C14	C	0.584689	0.101142	-0.160739
C15	C	0.538390	0.105637	-0.059490
C16	C	0.574769	0.111105	0.034021
C17	C	0.657442	0.112076	0.026276
C18	C	0.288521	0.102960	-0.031232
C19	C	0.205842	0.101986	-0.023494
C20	C	0.215769	0.092025	-0.218255
C21	C	0.298444	0.092991	-0.225991
C22	C	0.334815	0.098464	-0.132481
C23	C	0.453882	0.104648	-0.051572
C24	C	0.419320	0.099458	-0.140400
C25	C	0.941872	-0.041527	-0.083187
C26	C	0.939995	-0.128675	-0.074956
C27	C	0.944085	-0.174591	-0.168465
C28	C	0.942316	-0.256475	-0.160727
C29	C	0.936462	-0.292442	-0.059480
C30	C	0.932369	-0.246519	0.034036
C31	C	0.934133	-0.164636	0.026298
C32	C	0.930883	-0.539426	-0.031243
C33	C	0.929122	-0.621316	-0.023512
C34	C	0.939067	-0.631265	-0.218276
C35	C	0.940835	-0.549381	-0.226006
C36	C	0.936738	-0.503465	-0.132489
C37	C	0.934656	-0.376140	-0.051568
C38	C	0.938539	-0.419767	-0.140401
C39	C	1.081481	0.095480	-0.108765
C40	C	1.169469	0.096521	-0.116998
C41	C	0.931335	0.245621	-0.108783
C42	C	0.933212	0.332768	-0.117021
N43	N	0.923633	0.115044	0.158237
N44	N	0.949580	0.089044	-0.350204
C45	C	0.912484	0.126225	0.377347
C46	C	0.960726	0.077866	0.430692
C47	C	0.954523	0.084087	0.552613
C48	C	0.918687	0.120004	0.255416
H49	H	0.168144	0.105669	0.058958
F50	F	0.347714	0.088204	-0.333754
H51	H	0.945603	-0.520103	-0.308452
H52	H	0.186146	0.087571	-0.294386
H53	H	0.318125	0.107411	0.044911
F54	F	0.943427	-0.680138	-0.317795
F55	F	0.468596	0.094678	-0.248154
F56	F	0.852416	0.186444	0.437331
H57	H	0.945650	-0.293857	-0.236872
F58	F	0.944771	-0.381487	-0.248153
H59	H	0.927563	-0.502053	0.044903
H60	H	0.924351	-0.650596	0.058940
F61	F	0.929778	-0.115769	0.125823
F62	F	0.716634	0.097318	-0.276247
H63	H	0.537064	0.114769	0.116460
F64	F	0.926130	-0.284799	0.141792
H65	H	0.687055	0.116530	0.102416
H66	H	0.555078	0.096692	-0.236880
H67	H	0.416176	0.108305	0.030866
H68	H	0.948856	-0.145314	-0.250911
H69	H	0.929892	-0.405434	0.030867
H70	H	1.006686	0.031793	0.384796
