data_functionalizedCrystal
_audit_creation_method	'MofGen! by Chris Wilmer'
_symmetry_space_group_name_H-M	'P1'
_symmetry_Int_Tables_number	1
_symmetry_cell_setting	triclinic
loop_
_symmetry_equiv_pos_as_xyz
  x,y,z
_cell_length_a	12.759395
_cell_length_b	16.120484
_cell_length_c	12.759387
_cell_angle_alpha	92.863664
_cell_angle_beta	89.982772
_cell_angle_gamma	92.926975
loop_
_atom_site_label
_atom_site_type_symbol
_atom_site_fract_x
_atom_site_fract_y
_atom_site_fract_z
Zn1	Zn	1.584952	-0.331830	-0.615167
Zn2	Zn	2.084952	0.168170	-0.115167
Zn3	Zn	1.575909	-0.471266	-0.448379
Zn4	Zn	2.075909	0.028734	0.051621
Zn5	Zn	1.409257	-0.331875	-0.439506
Zn6	Zn	1.909257	0.168125	0.060494
Zn7	Zn	1.400303	-0.471208	-0.624015
Zn8	Zn	1.900303	0.028792	-0.124015
O9	O	1.492605	-0.401545	-0.531767
O10	O	1.992605	0.098455	-0.031767
O11	O	1.730773	-0.350333	-0.593052
O12	O	2.230773	0.149667	-0.093052
O13	O	1.553766	-0.452819	-0.300184
O14	O	2.053766	0.047181	0.199816
O15	O	1.440095	-0.215204	-0.455392
O16	O	1.940095	0.284796	0.044608
O17	O	1.724130	-0.452776	-0.470515
O18	O	2.224130	0.047224	0.029485
O19	O	1.569177	-0.215171	-0.584449
O20	O	2.069177	0.284829	-0.084449
O21	O	1.431327	-0.350409	-0.293665
O22	O	1.931327	0.149591	0.206335
O23	O	1.261049	-0.350352	-0.463971
O24	O	1.761049	0.149648	0.036029
O25	O	1.424834	-0.452676	-0.769859
O26	O	1.924834	0.047324	-0.269859
O27	O	1.254470	-0.452719	-0.599529
O28	O	1.754470	0.047281	-0.099529
O29	O	1.560495	-0.350276	-0.763359
O30	O	2.060495	0.149724	-0.263359
O31	O	1.545083	-0.587924	-0.479094
O32	O	2.045083	-0.087924	0.020906
O33	O	1.416066	-0.587881	-0.608133
O34	O	1.916066	-0.087881	-0.108133
C35	C	1.219638	-0.401535	-0.531748
C36	C	1.719638	0.098465	-0.031748
C37	C	1.102861	-0.401550	-0.531766
C38	C	1.602861	0.098450	-0.031766
C39	C	1.096038	-0.508317	-0.672716
C40	C	1.596038	-0.008317	-0.172716
C41	C	1.037765	-0.561708	-0.743194
C42	C	1.537765	-0.061708	-0.243194
C43	C	0.928043	-0.561718	-0.743208
C44	C	1.428043	-0.061718	-0.243208
C45	C	0.876591	-0.508330	-0.672737
C46	C	1.376591	-0.008330	-0.172737
C47	C	0.934864	-0.454940	-0.602259
C48	C	1.434864	0.045060	-0.102259
C49	C	1.044588	-0.454938	-0.602251
C50	C	1.544588	0.045062	-0.102251
C51	C	0.941687	-0.348170	-0.461316
C52	C	1.441687	0.151830	0.038684
C53	C	1.051409	-0.348163	-0.461296
C54	C	1.551409	0.151837	0.038704
C55	C	0.890235	-0.294783	-0.390846
C56	C	1.390235	0.205217	0.109154
C57	C	0.948508	-0.241396	-0.320361
C58	C	1.448508	0.258604	0.179639
C59	C	1.058236	-0.241388	-0.320350
C60	C	1.558236	0.258612	0.179650
C61	C	1.109682	-0.294773	-0.390818
C62	C	1.609682	0.205227	0.109182
C63	C	1.478650	-0.618152	-0.545559
C64	C	1.978650	-0.118152	-0.045559
C65	C	1.472776	-0.710818	-0.551495
C66	C	1.972776	-0.210818	-0.051495
C67	C	1.462058	-0.880479	-0.562353
C68	C	1.962058	-0.380479	-0.062353
C69	C	1.523341	-0.921770	-0.501198
C70	C	2.023341	-0.421770	-0.001198
C71	C	1.517377	-1.016175	-0.507240
C72	C	2.017377	-0.516175	-0.007240
C73	C	1.468020	-0.786065	-0.556313
C74	C	1.968020	-0.286065	-0.056313
C75	C	1.766638	-0.401556	-0.531786
C76	C	2.266638	0.098444	-0.031786
C77	C	1.883414	-0.401560	-0.531795
C78	C	2.383414	0.098440	-0.031795
C79	C	1.492674	-0.401464	-0.805795
C80	C	1.992674	0.098536	-0.305795
C81	C	1.492703	-0.401430	-0.922570
C82	C	1.992703	0.098570	-0.422570
C83	C	1.506644	-0.184091	-0.517944
C84	C	2.006644	0.315909	-0.017944
C85	C	1.512626	-0.091426	-0.512053
C86	C	2.012626	0.408574	-0.012053
C87	C	1.620276	-0.508011	-1.148779
C88	C	2.120276	-0.008011	-0.648779
C89	C	1.684003	-0.561348	-1.097303
C90	C	2.184003	-0.061348	-0.597303
C91	C	1.683966	-0.561380	-0.987584
C92	C	2.183966	-0.061380	-0.487584
C93	C	1.620193	-0.508071	-0.929337
C94	C	2.120193	-0.008071	-0.429337
C95	C	1.556467	-0.454734	-0.980813
C96	C	2.056467	0.045266	-0.480813
C97	C	1.556513	-0.454707	-1.090536
C98	C	2.056513	0.045293	-0.590536
C99	C	1.428977	-0.348093	-0.974046
C100	C	1.928977	0.151907	-0.474046
C101	C	1.429018	-0.348056	-1.083765
C102	C	1.929018	0.151944	-0.583765
C103	C	1.365204	-0.294784	-0.915800
C104	C	1.865204	0.205216	-0.415800
C105	C	1.301482	-0.241442	-0.967275
C106	C	1.801482	0.258558	-0.467275
C107	C	1.301522	-0.241412	-1.077002
C108	C	1.801522	0.258588	-0.577002
C109	C	1.365291	-0.294719	-1.135241
C110	C	1.865291	0.205281	-0.635241
C111	C	1.492601	-0.401565	-0.258801
C112	C	1.992601	0.098435	0.241199
C113	C	1.492790	-0.401365	-0.142012
C114	C	1.992790	0.098635	0.357988
H115	H	1.199023	-0.294774	-0.390813
H116	H	1.699023	0.205226	0.109187
H117	H	1.580285	-0.886219	-0.444303
H118	H	2.080285	-0.386219	0.055697
C119	C	1.620134	-0.508115	-0.808650
C120	C	2.120134	-0.008115	-0.308650
H121	H	1.573024	-0.468734	-0.781334
H122	H	2.073024	0.031266	-0.281334
H123	H	1.688851	-0.493717	-0.782895
H124	H	2.188851	0.006283	-0.282895
H125	H	1.598467	-0.561927	-0.787263
H126	H	2.098467	-0.061927	-0.287263
H127	H	1.405117	-0.916027	-0.619242
H128	H	1.905117	-0.416027	-0.119242
H129	H	1.249625	-0.197980	-1.118907
H130	H	1.749625	0.302020	-0.618907
C131	C	1.365335	-0.294685	-1.255930
C132	C	1.865335	0.205315	-0.755930
H133	H	1.318254	-0.255283	-1.278248
H134	H	1.818254	0.244717	-0.778248
H135	H	1.343706	-0.348478	-1.284169
H136	H	1.843706	0.151522	-0.784169
H137	H	1.434079	-0.280259	-1.279828
H138	H	1.934079	0.219741	-0.779828
H139	H	1.735922	-0.604753	-1.144740
H140	H	2.235922	-0.104753	-0.644740
C141	C	1.216729	-0.508305	-0.672708
C142	C	1.716729	-0.008305	-0.172708
H143	H	1.239026	-0.547740	-0.724775
H144	H	1.739026	-0.047740	-0.224775
H145	H	1.240609	-0.522646	-0.605791
H146	H	1.740609	-0.022646	-0.105791
H147	H	1.245012	-0.454518	-0.687579
H148	H	1.745012	0.045482	-0.187579
H149	H	1.620323	-0.507983	-1.238119
H150	H	2.120323	-0.007983	-0.738119
H151	H	1.079670	-0.605173	-0.800571
H152	H	1.579670	-0.105173	-0.300571
H153	H	1.365175	-0.294817	-0.826460
H154	H	1.865175	0.205183	-0.326460
C155	C	1.754059	-0.620048	-0.930953
C156	C	2.254059	-0.120048	-0.430953
H157	H	1.744894	-0.612432	-0.857267
H158	H	2.244894	-0.112432	-0.357267
H159	H	1.825445	-0.607851	-0.948153
H160	H	2.325445	-0.107851	-0.448153
H161	H	1.735062	-0.676061	-0.952490
H162	H	2.235062	-0.176061	-0.452490
C163	C	0.755900	-0.508338	-0.672758
C164	C	1.255900	-0.008338	-0.172758
H165	H	0.728565	-0.547783	-0.724822
H166	H	1.228565	-0.047783	-0.224822
H167	H	0.734550	-0.454558	-0.687617
H168	H	1.234550	0.045442	-0.187617
H169	H	0.730127	-0.522696	-0.605842
H170	H	1.230127	-0.022696	-0.105842
C171	C	0.863944	-0.620408	-0.820775
C172	C	1.363944	-0.120408	-0.320775
H173	H	0.910296	-0.652194	-0.862752
H174	H	1.410296	-0.152194	-0.362752
H175	H	0.823233	-0.588531	-0.864576
H176	H	1.323233	-0.088531	-0.364576
H177	H	0.818767	-0.656710	-0.782855
H178	H	1.318767	-0.156710	-0.282855
C179	C	0.769544	-0.294796	-0.390856
C180	C	1.269544	0.205204	0.109144
H181	H	0.742205	-0.334245	-0.442913
H182	H	1.242205	0.165755	0.057087
H183	H	0.748185	-0.241019	-0.405718
H184	H	1.248185	0.258981	0.094282
H185	H	0.743781	-0.309151	-0.323935
H186	H	1.243781	0.190849	0.176065
H187	H	1.249558	-0.198046	-0.919843
H188	H	1.749558	0.301954	-0.419843
H189	H	0.906607	-0.197928	-0.262995
H190	H	1.406607	0.302072	0.237005
C191	C	1.122328	-0.182656	-0.242825
C192	C	1.622328	0.317344	0.257175
H193	H	1.075967	-0.150868	-0.200859
H194	H	1.575967	0.349132	0.299141
H195	H	1.167486	-0.146370	-0.280779
H196	H	1.667486	0.353630	0.219221
H197	H	1.163059	-0.214500	-0.198992
H198	H	1.663059	0.285500	0.301008
