data_functionalizedCrystal
_audit_creation_method	'MofGen! by Chris Wilmer'
_symmetry_space_group_name_H-M	'P1'
_symmetry_Int_Tables_number	1
_symmetry_cell_setting	triclinic
loop_
_symmetry_equiv_pos_as_xyz
  x,y,z
_cell_length_a	11.792241
_cell_length_b	10.489716
_cell_length_c	10.868271
_cell_angle_alpha	89.998908
_cell_angle_beta	89.999461
_cell_angle_gamma	95.638724
loop_
_atom_site_label
_atom_site_type_symbol
_atom_site_fract_x
_atom_site_fract_y
_atom_site_fract_z
O1	O	-1.507366	0.174834	-0.102172
O2	O	-1.007366	0.674834	0.397828
O3	O	-1.177072	0.192853	-0.102204
O4	O	-0.677072	0.692853	0.397796
O5	O	-1.349750	-0.001782	-0.102192
O6	O	-0.849750	0.498218	0.397808
O7	O	-1.334689	0.369469	-0.102185
O8	O	-0.834689	0.869469	0.397815
O9	O	-1.349735	-0.001790	0.102453
O10	O	-0.849735	0.498210	0.602453
O11	O	-1.177058	0.192845	0.102441
O12	O	-0.677058	0.692845	0.602441
O13	O	-1.507352	0.174827	0.102472
O14	O	-1.007352	0.674827	0.602472
Zn15	Zn	-1.342203	0.183835	0.134948
Zn16	Zn	-0.842203	0.683835	0.634948
Zn17	Zn	-1.342222	0.183845	-0.134680
Zn18	Zn	-0.842222	0.683845	0.365320
O19	O	-1.334675	0.369461	0.102460
O20	O	-0.834675	0.869461	0.602460
C21	C	-1.134771	0.191717	0.000114
C22	C	-0.634771	0.691717	0.500114
C23	C	-1.008749	0.188329	0.000102
C24	C	-0.508749	0.688329	0.500102
C25	C	-0.778020	0.182100	0.000134
C26	C	-0.278020	0.682100	0.500134
C27	C	-0.906415	0.185561	0.000116
C28	C	-0.406415	0.685561	0.500116
C29	C	-1.348611	-0.049314	0.000127
C30	C	-0.848611	0.450686	0.500127
C31	C	-1.345225	-0.190934	0.000115
C32	C	-0.845225	0.309066	0.500115
C33	C	-1.451116	-0.288968	0.000136
C34	C	-0.951116	0.211032	0.500136
C35	C	-1.395168	-0.366134	-0.100766
C36	C	-0.895168	0.133866	0.399234
C37	C	-1.395130	-0.366106	0.100997
C38	C	-0.895130	0.133894	0.600997
C39	C	-1.289322	-0.266234	-0.100871
C40	C	-0.789322	0.233766	0.399129
C41	C	-1.289298	-0.266201	0.100983
C42	C	-0.789298	0.233799	0.600983
C43	C	-1.233272	-0.343318	0.000056
C44	C	-0.733272	0.156682	0.500056
C45	C	-0.549653	0.175962	0.000148
C46	C	-0.049653	0.675962	0.500148
C47	C	-0.675676	0.179350	0.000144
C48	C	-0.175676	0.679350	0.500144
C49	C	-1.335814	0.416994	0.000139
C50	C	-0.835814	0.916994	0.500139
C51	C	-1.339199	0.558613	0.000142
C52	C	-0.839199	1.058613	0.500142
N53	N	-1.342198	0.183827	0.318962
N54	N	-0.842198	0.683827	0.818962
N55	N	-1.342235	0.183842	-0.318694
N56	N	-0.842235	0.683842	0.181306
C57	C	-1.342216	0.183842	0.569968
C58	C	-0.842216	0.683842	1.069968
C59	C	-1.342202	0.183837	0.430291
C60	C	-0.842202	0.683837	0.930291
H61	H	-1.543223	-0.264606	0.000043
H62	H	-1.043223	0.235394	0.500043
Br63	Br	-1.214873	-0.193382	0.243161
Br64	Br	-0.714873	0.306618	0.743161
H65	H	-1.439847	-0.409734	0.186300
H66	H	-0.939847	0.090266	0.686300
Br67	Br	-1.214869	-0.193810	-0.243214
Br68	Br	-0.714869	0.306190	0.256786
Br69	Br	-1.469678	-0.438880	-0.242937
Br70	Br	-0.969678	0.061120	0.257063
H71	H	-1.141096	-0.367434	-0.000007
H72	H	-0.641096	0.132566	0.499993
