data_functionalizedCrystal
_audit_creation_method	'MofGen! by Chris Wilmer'
_symmetry_space_group_name_H-M	'P1'
_symmetry_Int_Tables_number	1
_symmetry_cell_setting	triclinic
loop_
_symmetry_equiv_pos_as_xyz
  x,y,z
_cell_length_a	8.497374
_cell_length_b	12.759401
_cell_length_c	12.759399
_cell_angle_alpha	89.983359
_cell_angle_beta	89.991562
_cell_angle_gamma	90.001753
loop_
_atom_site_label
_atom_site_type_symbol
_atom_site_fract_x
_atom_site_fract_y
_atom_site_fract_z
Zn1	Zn	0.891958	1.606064	0.418406
Zn2	Zn	0.628160	1.606013	0.594052
Zn3	Zn	0.628185	1.430422	0.418393
Zn4	Zn	0.891892	1.430354	0.594048
O5	O	0.760048	1.518213	0.506225
O6	O	0.856982	1.753079	0.441713
O7	O	0.407401	1.582728	0.570747
O8	O	0.663213	1.453771	0.271373
O9	O	0.663171	1.753041	0.570760
O10	O	0.857005	1.582815	0.271383
O11	O	0.407419	1.453722	0.441691
O12	O	0.663149	1.283392	0.441686
O13	O	1.112663	1.453655	0.570752
O14	O	0.856893	1.283342	0.570739
O15	O	1.112711	1.582749	0.441709
O16	O	0.663107	1.582661	0.741073
O17	O	0.856869	1.453605	0.741069
C18	C	0.760017	1.245246	0.506212
C19	C	0.760041	1.128469	0.506232
C20	C	0.760013	1.518149	0.779192
C21	C	0.760050	1.518217	0.895969
C22	C	0.860765	1.073609	0.573532
C23	C	0.860796	0.963885	0.573536
C24	C	0.659366	0.963891	0.438937
C25	C	0.659344	1.073613	0.438928
C26	C	1.046781	0.813947	0.611283
C27	C	1.147491	0.759083	0.678599
C28	C	1.171437	0.794674	0.781136
C29	C	1.094649	0.885128	0.816378
C30	C	0.993928	0.939987	0.749067
C31	C	0.970012	0.904397	0.646515
C32	C	0.473357	1.223553	0.401192
C33	C	0.372627	1.278414	0.333885
C34	C	0.348665	1.242824	0.231346
C35	C	0.425424	1.152367	0.196109
C36	C	0.526155	1.097506	0.263415
C37	C	0.550119	1.133103	0.365953
C38	C	1.171529	1.518205	0.506226
C39	C	1.350173	1.518208	0.506237
C40	C	0.760081	1.792246	0.506238
C41	C	0.760095	1.909023	0.506244
C42	C	0.760119	1.518307	0.232191
C43	C	0.760149	1.518346	0.115415
C44	C	0.659273	1.585494	0.950797
C45	C	0.659326	1.585561	1.060521
C46	C	0.860938	1.451067	1.060578
C47	C	0.860891	1.451006	0.950856
C48	C	0.603186	1.709582	1.210382
C49	C	0.502384	1.776849	1.265215
C50	C	0.348458	1.793046	1.229634
C51	C	0.295302	1.741961	1.139222
C52	C	0.396096	1.674686	1.084396
C53	C	0.550044	1.658509	1.119975
C54	C	0.917015	1.326983	0.800993
C55	C	1.017802	1.259702	0.746165
C56	C	1.171731	1.243495	0.781743
C57	C	1.224880	1.294561	0.872158
C58	C	1.124094	1.361842	0.926987
C59	C	0.970167	1.378052	0.891401
H60	H	0.942763	1.118269	0.628332
H61	H	1.027310	0.784967	0.527785
H62	H	0.943037	1.396344	1.105281
C63	C	0.499706	1.262699	0.513994
C64	C	0.415246	1.362184	0.552762
C65	C	0.441581	1.401327	0.665565
C66	C	0.552376	1.340985	0.739600
C67	C	0.636843	1.241493	0.700833
C68	C	0.610508	1.202350	0.588030
H69	H	0.333223	1.406859	0.497956
H70	H	0.379052	1.474978	0.694262
H71	H	0.571871	1.369961	0.823103
H72	H	0.718867	1.196819	0.755639
H73	H	0.673037	1.128700	0.559333
H74	H	0.545678	1.818443	1.338828
H75	H	1.350223	1.281365	0.901127
C76	C	1.282597	1.169479	0.721435
C77	C	1.224145	1.113290	0.621990
C78	C	1.335013	1.039278	0.561687
C79	C	1.504333	1.021455	0.600829
C80	C	1.562794	1.077646	0.700279
C81	C	1.451926	1.151657	0.760582
H82	H	1.098796	1.126482	0.593010
H83	H	1.291736	0.997683	0.488067
H84	H	1.586404	0.966667	0.556189
H85	H	1.688143	1.064453	0.729259
H86	H	1.495203	1.193253	0.834202
C87	C	1.120976	0.924271	0.929179
C88	C	1.036517	1.023759	0.967941
C89	C	1.062847	1.062906	1.080743
C90	C	1.173636	1.002565	1.154783
C91	C	1.258103	0.903071	1.116022
C92	C	1.231773	0.863924	1.003220
H93	H	0.954498	1.068433	0.913131
H94	H	1.000319	1.136559	1.109436
H95	H	1.193127	1.031543	1.238286
H96	H	1.340122	0.858397	1.170832
H97	H	1.294301	0.790272	0.974527
H98	H	0.728530	1.696411	1.239354
C99	C	0.337647	1.618497	0.984946
C100	C	0.448521	1.544508	0.924632
C101	C	0.390071	1.488325	0.825176
C102	C	0.220747	1.506132	0.786035
C103	C	0.109862	1.580125	0.846350
C104	C	0.168312	1.636308	0.945806
H105	H	0.573875	1.531323	0.953606
H106	H	0.472157	1.433551	0.780527
H107	H	0.177479	1.464543	0.712412
H108	H	-0.015491	1.593310	0.817376
H109	H	0.086227	1.691082	0.990455
H110	H	0.405889	1.123377	0.112620
H111	H	0.266627	1.287497	0.176550
H112	H	0.588668	1.023856	0.234713
C113	C	0.237579	1.867029	1.289965
C114	C	0.082423	1.824868	1.335947
C115	C	-0.028444	1.898849	1.396289
C116	C	0.015847	2.014990	1.410650
C117	C	0.171010	2.057158	1.364667
C118	C	0.281877	1.983177	1.304325
H119	H	0.049630	1.738887	1.325317
H120	H	-0.143306	1.867633	1.430329
H121	H	-0.066223	2.069755	1.455319
H122	H	0.203803	2.143138	1.375297
H123	H	0.396739	2.014392	1.270285
H124	H	0.974517	1.218127	0.672539
H125	H	0.791677	1.340183	0.772010
H126	H	1.253439	0.749996	0.835946
C127	C	1.182557	1.418024	1.026442
C128	C	1.351877	1.400202	1.065586
C129	C	1.410338	1.456384	1.165039
C130	C	1.299479	1.530388	1.225349
C131	C	1.130149	1.548213	1.186206
C132	C	1.071688	1.492032	1.086753
H133	H	1.433950	1.345417	1.020940
H134	H	1.535688	1.443188	1.194015
H135	H	1.342756	1.571977	1.298970
H136	H	1.048076	1.602998	1.230851
H137	H	0.946339	1.505228	1.057777
H138	H	0.310124	1.352069	0.362585
H139	H	0.931408	1.013632	0.777760
H140	H	0.577380	0.919214	0.384142
H141	H	1.210013	0.685435	0.649896
H142	H	0.577164	1.640223	0.906111
H143	H	0.169953	1.755146	1.110266
