data_functionalizedCrystal
_audit_creation_method	'MofGen! by Chris Wilmer'
_symmetry_space_group_name_H-M	'P1'
_symmetry_Int_Tables_number	1
_symmetry_cell_setting	triclinic
loop_
_symmetry_equiv_pos_as_xyz
  x,y,z
_cell_length_a	14.971486
_cell_length_b	14.971496
_cell_length_c	13.448316
_cell_angle_alpha	90.007882
_cell_angle_beta	89.998199
_cell_angle_gamma	96.383877
loop_
_atom_site_label
_atom_site_type_symbol
_atom_site_fract_x
_atom_site_fract_y
_atom_site_fract_z
O1	O	1.186951	-0.116564	-0.082580
O2	O	1.686951	0.383436	0.417420
O3	O	0.926552	-0.130523	-0.082608
O4	O	1.426552	0.369477	0.417392
O5	O	1.063726	0.006656	-0.082584
O6	O	1.563726	0.506656	0.417416
O7	O	1.049777	-0.253743	-0.082605
O8	O	1.549777	0.246257	0.417395
O9	O	1.063709	0.006664	0.082800
O10	O	1.563709	0.506664	0.582800
O11	O	0.926535	-0.130515	0.082776
O12	O	1.426535	0.369485	0.582776
O13	O	1.186934	-0.116556	0.082803
O14	O	1.686934	0.383444	0.582803
Cu15	Cu	1.056733	-0.123534	0.097891
Cu16	Cu	1.556733	0.376466	0.597891
Cu17	Cu	1.056753	-0.123544	-0.097695
Cu18	Cu	1.556753	0.376456	0.402305
O19	O	1.049760	-0.253735	0.082779
O20	O	1.549760	0.246265	0.582779
C21	C	0.893218	-0.129895	0.000081
C22	C	1.393218	0.370105	0.500081
C23	C	0.793921	-0.128024	0.000071
C24	C	1.293921	0.371976	0.500071
C25	C	1.063092	0.039985	0.000109
C26	C	1.563092	0.539985	0.500109
C27	C	1.061218	0.139281	0.000110
C28	C	1.561218	0.639281	0.500110
C29	C	0.736699	-0.208613	0.000065
C30	C	1.236699	0.291387	0.500065
C31	C	0.643399	-0.206850	0.000080
C32	C	1.143399	0.293150	0.500080
C33	C	0.607324	-0.124497	0.000093
C34	C	1.107324	0.375503	0.500093
C35	C	0.664554	-0.043902	0.000101
C36	C	1.164554	0.456098	0.500101
C37	C	0.757852	-0.045666	0.000094
C38	C	1.257852	0.454334	0.500094
C39	C	0.470091	-0.040231	0.000115
C40	C	0.970091	0.459769	0.500115
C41	C	0.376787	-0.038466	0.000121
C42	C	0.876787	0.461534	0.500121
C43	C	0.355639	-0.201414	0.000102
C44	C	0.855639	0.298586	0.500102
C45	C	0.448937	-0.203179	0.000094
C46	C	0.948937	0.296821	0.500094
C47	C	0.506160	-0.122583	0.000101
C48	C	1.006160	0.377417	0.500101
C49	C	1.220268	-0.117184	0.000113
C50	C	1.720268	0.382816	0.500113
C51	C	1.319565	-0.119055	0.000116
C52	C	1.819565	0.380945	0.500116
N53	N	1.056725	-0.123527	0.235455
N54	N	1.556725	0.376473	0.735455
C55	C	1.053160	0.566981	-0.090065
C56	C	1.553160	1.066981	0.409935
C57	C	1.054926	0.473682	-0.090061
C58	C	1.554926	0.973682	0.409939
C59	C	1.055793	0.427043	0.000093
C60	C	1.555793	0.927043	0.500093
C61	C	1.054904	0.473709	0.090250
C62	C	1.554904	0.973709	0.590250
C63	C	1.053144	0.567007	0.090245
C64	C	1.553144	1.067007	0.590245
C65	C	1.058569	0.279246	0.090254
C66	C	1.558569	0.779246	0.590254
C67	C	1.060326	0.185941	0.090259
C68	C	1.560326	0.685941	0.590259
C69	C	1.060350	0.185920	-0.090052
C70	C	1.560350	0.685920	0.409948
C71	C	1.058590	0.279218	-0.090057
C72	C	1.558590	0.779218	0.409943
C73	C	1.057700	0.325878	0.000100
C74	C	1.557700	0.825878	0.500100
C75	C	1.050394	0.712937	0.000087
C76	C	1.550394	1.212937	0.500087
C77	C	1.052268	0.613640	0.000084
C78	C	1.552268	1.113640	0.500084
N79	N	1.056768	-0.123545	-0.235259
N80	N	1.556768	0.376455	0.264741
C81	C	1.117485	-0.062809	0.287506
C82	C	1.617485	0.437191	0.787506
C83	C	1.117490	-0.062808	0.391609
C84	C	1.617490	0.437192	0.891609
C85	C	1.056740	-0.123530	0.443659
C86	C	1.556740	0.376470	0.943659
C87	C	0.995973	-0.184251	0.391601
C88	C	1.495973	0.315749	0.891601
C89	C	0.995964	-0.184247	0.287500
C90	C	1.495964	0.315753	0.787500
C91	C	0.995998	-0.184257	0.608581
C92	C	1.495998	0.315743	1.108581
C93	C	0.996008	-0.184263	0.712690
C94	C	1.496008	0.315737	1.212690
C95	C	1.117524	-0.062819	0.712691
C96	C	1.617524	0.437181	1.212691
C97	C	1.117515	-0.062814	0.608589
C98	C	1.617515	0.437186	1.108589
C99	C	1.056750	-0.123536	0.556538
C100	C	1.556750	0.376464	1.056538
H101	H	0.766063	-0.275674	0.000054
H102	H	1.266063	0.224326	0.500054
Br103	Br	1.199948	0.019599	0.462253
Br104	Br	1.699948	0.519599	0.962253
H105	H	0.309043	-0.267038	0.000102
H106	H	0.809043	0.232962	0.500102
Br107	Br	0.547751	0.069150	0.000129
Br108	Br	1.047751	0.569150	0.500129
Br109	Br	0.913525	-0.266663	0.537943
Br110	Br	1.413525	0.233337	1.037943
H111	H	0.804442	0.019958	0.000097
H112	H	1.304442	0.519958	0.500097
Br113	Br	0.565743	-0.316225	0.000070
Br114	Br	1.065743	0.183775	0.500070
Br115	Br	0.913517	-0.266655	0.462237
Br116	Br	1.413517	0.233345	0.962237
H117	H	1.055654	0.435696	-0.163470
H118	H	1.555654	0.935696	0.336530
H119	H	0.635174	0.023152	0.000126
H120	H	1.135174	0.523152	0.500126
Br121	Br	1.057403	0.342513	-0.212410
Br122	Br	1.557403	0.842513	0.287590
Br123	Br	0.913495	-0.266647	0.216859
Br124	Br	1.413495	0.233353	0.716859
Br125	Br	1.199994	0.019585	0.783334
Br126	Br	1.699994	0.519585	1.283334
H127	H	0.478306	-0.270237	0.000074
H128	H	0.978306	0.229763	0.500074
Br129	Br	1.061505	0.122591	-0.212408
Br130	Br	1.561505	0.622591	0.287592
Br131	Br	0.327828	0.073300	0.000172
Br132	Br	0.827828	0.573300	0.500172
Br133	Br	1.061525	0.122648	0.212612
Br134	Br	1.561525	0.622648	0.712612
H135	H	1.057844	0.317233	0.163669
H136	H	1.557844	0.817233	0.663669
H137	H	1.052445	0.604946	-0.163479
H138	H	1.552445	1.104946	0.336521
H139	H	1.055616	0.435729	0.163655
H140	H	1.555616	0.935729	0.663655
H141	H	1.052417	0.604996	0.163653
H142	H	1.552417	1.104996	0.663653
H143	H	1.166959	-0.013366	0.245133
H144	H	1.666959	0.486634	0.745133
H145	H	1.166987	-0.013374	0.566210
H146	H	1.666987	0.486626	1.066210
H147	H	0.946538	-0.233708	0.755064
H148	H	1.446538	0.266292	1.255064
