data_functionalizedCrystal
_audit_creation_method	'MofGen! by Chris Wilmer'
_symmetry_space_group_name_H-M	'P1'
_symmetry_Int_Tables_number	1
_symmetry_cell_setting	triclinic
loop_
_symmetry_equiv_pos_as_xyz
  x,y,z
_cell_length_a	9.065218
_cell_length_b	11.026607
_cell_length_c	7.540329
_cell_angle_alpha	89.998289
_cell_angle_beta	89.996962
_cell_angle_gamma	96.800951
loop_
_atom_site_label
_atom_site_type_symbol
_atom_site_fract_x
_atom_site_fract_y
_atom_site_fract_z
O1	O	2.004900	0.178453	-0.147482
O2	O	1.579265	0.193091	-0.147484
O3	O	1.756807	0.008731	-0.147476
O4	O	1.827359	0.362813	-0.147489
O5	O	1.756792	0.008729	0.147489
O6	O	1.579251	0.193088	0.147481
O7	O	2.004886	0.178451	0.147483
Cu8	Cu	1.792067	0.185769	0.174415
Cu9	Cu	1.792084	0.185772	-0.174415
O10	O	1.827345	0.362810	0.147476
C11	C	1.523921	0.191683	-0.000002
C12	C	1.359029	0.187476	-0.000002
C13	C	1.743784	-0.036624	0.000004
C14	C	1.704984	-0.171765	-0.000003
C15	C	1.812117	-0.244393	-0.000005
C16	C	1.772018	-0.384068	-0.000011
C17	C	2.060230	0.179859	-0.000003
C18	C	2.225122	0.184065	-0.000014
C19	C	1.840368	0.408165	-0.000008
C20	C	1.879168	0.543306	-0.000013
N21	N	1.792066	0.185767	0.419763
N22	N	1.792094	0.185765	-0.419764
H23	H	1.933525	-0.203167	0.000007
H24	H	1.583576	-0.212990	-0.000015
O25	O	1.627222	-0.433374	-0.000254
C26	C	1.434238	-0.561733	-0.153135
C27	C	1.598253	-0.505996	-0.153059
H28	H	1.410757	-0.620439	-0.276683
H29	H	1.410660	-0.620634	-0.029782
H30	H	1.359842	-0.485306	-0.153045
H31	H	1.672756	-0.582343	-0.153211
H32	H	1.621710	-0.447065	-0.276402
O33	O	2.023944	-0.407332	0.000064
C34	C	2.195911	-0.223111	-0.000047
C35	C	2.031898	-0.278851	-0.000091
H36	H	2.202395	-0.119228	-0.000210
H37	H	2.253412	-0.254349	0.123423
H38	H	2.253353	-0.254505	-0.123462
H39	H	1.974328	-0.247483	0.123240
H40	H	1.974507	-0.247618	-0.123643
