data_functionalizedCrystal
_audit_creation_method	'MofGen! by Chris Wilmer'
_symmetry_space_group_name_H-M	'P1'
_symmetry_Int_Tables_number	1
_symmetry_cell_setting	triclinic
loop_
_symmetry_equiv_pos_as_xyz
  x,y,z
_cell_length_a	11.792241
_cell_length_b	23.532407
_cell_length_c	10.268362
_cell_angle_alpha	89.990068
_cell_angle_beta	89.999626
_cell_angle_gamma	83.521047
loop_
_atom_site_label
_atom_site_type_symbol
_atom_site_fract_x
_atom_site_fract_y
_atom_site_fract_z
O1	O	1.505071	0.078055	-0.108188
O2	O	2.005071	0.578055	0.391812
O3	O	1.174541	0.086099	-0.108220
O4	O	1.674541	0.586099	0.391780
O5	O	1.349773	-0.000795	-0.108179
O6	O	1.849773	0.499205	0.391821
O7	O	1.329839	0.164950	-0.108229
O8	O	1.829839	0.664950	0.391771
O9	O	1.349758	-0.000799	0.108421
O10	O	1.849758	0.499201	0.608421
O11	O	1.174526	0.086096	0.108380
O12	O	1.674526	0.586096	0.608380
O13	O	1.505056	0.078051	0.108412
O14	O	2.005056	0.578051	0.608412
Cu15	Cu	1.339790	0.082073	0.128174
Cu16	Cu	1.839790	0.582073	0.628174
Cu17	Cu	1.339808	0.082078	-0.127982
Cu18	Cu	1.839808	0.582078	0.372018
O19	O	1.329824	0.164946	0.108372
O20	O	1.829824	0.664946	0.608372
C21	C	1.132254	0.085592	0.000076
C22	C	1.632254	0.585592	0.500076
C23	C	1.006276	0.084080	0.000065
C24	C	1.506276	0.584080	0.500065
C25	C	1.349258	-0.022016	0.000124
C26	C	1.849258	0.477984	0.500124
C27	C	1.347732	-0.085242	0.000134
C28	C	1.847732	0.414758	0.500134
C29	C	0.775630	0.081299	0.000104
C30	C	1.275630	0.581299	0.500104
C31	C	0.903978	0.082844	0.000082
C32	C	1.403978	0.582844	0.500082
C33	C	1.441858	-0.483788	0.000072
C34	C	1.941858	0.016212	0.500072
C35	C	1.440440	-0.543196	0.000062
C36	C	1.940440	-0.043196	0.500062
O37	O	1.527696	-0.579424	0.000022
O38	O	2.027696	-0.079424	0.500022
N39	N	1.336265	-0.566440	0.000053
N40	N	1.836265	-0.066440	0.500053
C41	C	1.233500	-0.530271	0.000040
C42	C	1.733500	-0.030271	0.500040
O43	O	1.144761	-0.555497	0.000030
O44	O	1.644761	-0.055497	0.500030
C45	C	1.234919	-0.470864	0.000041
C46	C	1.734919	0.029136	0.500041
C47	C	1.339102	-0.447624	0.000063
C48	C	1.839102	0.052376	0.500063
C49	C	1.546032	-0.460547	0.000093
C50	C	2.046032	0.039453	0.500093
C51	C	1.547449	-0.401142	0.000105
C52	C	2.047449	0.098858	0.500105
C53	C	1.444693	-0.364979	0.000097
C54	C	1.944693	0.135021	0.500097
C55	C	1.340519	-0.388219	0.000076
C56	C	1.840519	0.111781	0.500076
C57	C	1.132156	-0.434696	0.000019
C58	C	1.632156	0.065304	0.500019
C59	C	1.133584	-0.375285	0.000019
C60	C	1.633584	0.124715	0.500019
C61	C	1.237766	-0.352045	0.000041
C62	C	1.737766	0.147955	0.500041
C63	C	1.239180	-0.292651	0.000080
C64	C	1.739180	0.207349	0.500080
N65	N	1.343355	-0.269407	0.000089
N66	N	1.843355	0.230593	0.500089
C67	C	1.446112	-0.305571	0.000097
C68	C	1.946112	0.194429	0.500097
C69	C	1.230528	-0.655031	0.000036
C70	C	1.730528	-0.155031	0.500036
C71	C	1.229108	-0.714438	0.000045
C72	C	1.729108	-0.214438	0.500045
C73	C	1.436049	-0.727359	0.000064
C74	C	1.936049	-0.227359	0.500064
C75	C	1.437468	-0.667951	0.000065
C76	C	1.937468	-0.167951	0.500065
C77	C	1.334704	-0.631788	0.000046
C78	C	1.834704	-0.131788	0.500046
C79	C	1.449080	-0.180817	0.000125
C80	C	1.949080	0.319183	0.500125
C81	C	1.450489	-0.121406	0.000142
C82	C	1.950489	0.378594	0.500142
C83	C	1.243549	-0.108491	0.000117
C84	C	1.743549	0.391509	0.500117
C85	C	1.242140	-0.167896	0.000106
C86	C	1.742140	0.332104	0.500106
C87	C	1.344915	-0.204058	0.000105
C88	C	1.844915	0.295942	0.500105
O89	O	1.151970	-0.256388	0.000114
O90	O	1.651970	0.243612	0.500114
O91	O	1.534837	-0.280337	0.000090
O92	O	2.034837	0.219663	0.500090
C93	C	1.547343	0.078558	0.000113
C94	C	2.047343	0.578558	0.500113
C95	C	1.673321	0.080071	0.000115
C96	C	2.173321	0.580071	0.500115
C97	C	1.330339	0.186167	0.000065
C98	C	1.830339	0.686167	0.500065
C99	C	1.331865	0.249393	0.000047
C100	C	1.831865	0.749393	0.500047
N101	N	1.339786	0.082070	0.308340
N102	N	1.839786	0.582070	0.808340
N103	N	1.339821	0.082076	-0.308148
N104	N	1.839821	0.582076	0.191852
C105	C	1.339802	0.082076	0.574010
C106	C	1.839802	0.582076	1.074010
C107	C	1.339789	0.082074	0.426172
C108	C	1.839789	0.582074	0.926172
H109	H	1.532770	-0.210254	0.000119
H110	H	2.032770	0.289746	0.500119
H111	H	1.629714	-0.489986	0.000095
H112	H	2.129714	0.010014	0.500095
O113	O	1.033786	-0.340133	-0.000227
O114	O	1.533786	0.159867	0.499773
C115	C	1.028436	-0.305361	-0.112384
C116	C	1.528436	0.194639	0.387616
H117	H	1.086735	-0.326921	-0.190785
H118	H	1.586735	0.173079	0.309215
H119	H	1.057299	-0.262075	-0.087009
H120	H	1.557299	0.237925	0.412991
C121	C	0.833243	-0.270247	-0.066977
C122	C	1.333243	0.229753	0.433023
C123	C	0.904840	-0.296729	-0.163274
C124	C	1.404840	0.203271	0.336726
H125	H	0.757004	-0.264919	-0.098366
H126	H	1.257004	0.235081	0.401634
H127	H	0.836849	-0.293671	0.008589
H128	H	1.336849	0.206329	0.508589
H129	H	0.857310	-0.234177	-0.045840
H130	H	1.357310	0.265823	0.454160
H131	H	0.880782	-0.332801	-0.184398
H132	H	1.380782	0.167199	0.315602
H133	H	0.901228	-0.273310	-0.238845
H134	H	1.401228	0.226690	0.261155
O135	O	1.143840	-0.073274	0.000049
O136	O	1.643840	0.426726	0.500049
C137	C	1.167444	-0.015858	0.000090
C138	C	1.667444	0.484142	0.500090
H139	H	1.256569	-0.013301	-0.040896
H140	H	1.756569	0.486699	0.459104
H141	H	1.162930	0.001299	0.104005
H142	H	1.662930	0.501299	0.604005
C143	C	0.969469	0.017089	-0.034531
C144	C	1.469469	0.517089	0.465469
C145	C	1.078930	0.020230	-0.084881
C146	C	1.578930	0.520230	0.415119
H147	H	0.914867	0.039351	-0.086940
H148	H	1.414867	0.539351	0.413060
H149	H	0.953564	-0.021593	-0.034554
H150	H	1.453564	0.478407	0.465446
H151	H	0.965723	0.031386	0.052064
H152	H	1.465723	0.531386	0.552064
H153	H	1.082678	0.005927	-0.171467
H154	H	1.582678	0.505927	0.328533
H155	H	1.094833	0.058911	-0.084875
H156	H	1.594833	0.558911	0.415125
H157	H	1.157306	-0.186819	0.000124
H158	H	1.657306	0.313181	0.500124
H159	H	1.144273	-0.733354	0.000049
H160	H	1.644273	-0.233354	0.500049
O161	O	1.130770	-0.619846	0.000210
O162	O	1.630770	-0.119846	0.500210
C163	C	1.125372	-0.585115	0.112407
C164	C	1.625372	-0.085115	0.612407
H165	H	1.215416	-0.581822	0.149813
H166	H	1.715416	-0.081822	0.649813
H167	H	1.073770	-0.604832	0.190955
H168	H	1.573770	-0.104832	0.690955
C169	C	0.956956	-0.529033	0.032389
C170	C	1.456956	-0.029033	0.532389
C171	C	1.067550	-0.524985	0.078325
C172	C	1.567550	-0.024985	0.578325
H173	H	0.921284	-0.491943	0.011369
H174	H	1.421284	0.008057	0.511369
H175	H	0.960589	-0.552433	-0.043198
H176	H	1.460589	-0.052433	0.456802
H177	H	0.913968	-0.545467	0.097854
H178	H	1.413968	-0.045467	0.597854
H179	H	1.110540	-0.508559	0.012855
H180	H	1.610540	-0.008559	0.512855
H181	H	1.063923	-0.501581	0.153901
H182	H	1.563923	-0.001581	0.653901
H183	H	1.632285	-0.382226	0.000118
H184	H	2.132285	0.117774	0.500118
O185	O	1.538697	-0.645405	-0.000157
O186	O	2.038697	-0.145405	0.499843
C187	C	1.601310	-0.663862	-0.112313
C188	C	2.101310	-0.163862	0.387687
H189	H	1.540380	-0.676405	-0.190723
H190	H	2.040380	-0.176405	0.309277
H191	H	1.664994	-0.702379	-0.086942
H192	H	2.164994	-0.202379	0.413058
C193	C	1.740821	-0.599645	-0.066877
C194	C	2.240821	-0.099645	0.433123
C195	C	1.665984	-0.615045	-0.163185
C196	C	2.165984	-0.115045	0.336815
H197	H	1.780720	-0.569534	-0.098255
H198	H	2.280720	-0.069534	0.401745
H199	H	1.698640	-0.587211	0.008688
H200	H	2.198640	-0.087211	0.508688
H201	H	1.793880	-0.631747	-0.045743
H202	H	2.293880	-0.131747	0.454257
H203	H	1.612919	-0.582946	-0.184306
H204	H	2.112919	-0.082946	0.315694
H205	H	1.708158	-0.627473	-0.238755
H206	H	2.208158	-0.127473	0.261245
O207	O	1.551796	-0.098926	0.000101
O208	O	2.051796	0.401074	0.500101
C209	C	1.642184	-0.143589	0.000133
C210	C	2.142184	0.356411	0.500133
H211	H	1.610836	-0.184037	-0.040884
H212	H	2.110836	0.315963	0.459116
H213	H	1.673841	-0.151906	0.104049
H214	H	2.173841	0.348094	0.604049
C215	C	1.779001	-0.076825	-0.034420
C216	C	2.279001	0.423175	0.465580
C217	C	1.740502	-0.126502	-0.084808
C218	C	2.240502	0.373498	0.415192
H219	H	1.839651	-0.066285	-0.086810
H220	H	2.339651	0.433715	0.413190
H221	H	1.718107	-0.046734	-0.034437
H222	H	2.218107	0.453266	0.465563
H223	H	1.805374	-0.083763	0.052176
H224	H	2.305374	0.416237	0.552176
H225	H	1.714116	-0.119562	-0.171395
H226	H	2.214116	0.380438	0.328605
H227	H	1.801395	-0.156592	-0.084808
H228	H	2.301395	0.343408	0.415192
O229	O	1.535766	-0.762576	-0.000001
O230	O	2.035766	-0.262576	0.499999
C231	C	1.512162	-0.819992	0.000018
C232	C	2.012162	-0.319992	0.500018
H233	H	1.423042	-0.822541	-0.040988
H234	H	1.923042	-0.322541	0.459012
H235	H	1.516662	-0.837170	0.103928
H236	H	2.016662	-0.337170	0.603928
C237	C	1.710142	-0.852932	-0.034570
C238	C	2.210142	-0.352932	0.465430
C239	C	1.600687	-0.856063	-0.084945
C240	C	2.100687	-0.356063	0.415055
H241	H	1.764750	-0.875183	-0.086974
H242	H	2.264750	-0.375183	0.413026
H243	H	1.726046	-0.814250	-0.034578
H244	H	2.226046	-0.314250	0.465422
H245	H	1.713876	-0.867246	0.052021
H246	H	2.213876	-0.367246	0.552021
H247	H	1.596950	-0.841743	-0.171528
H248	H	2.096950	-0.341743	0.328472
H249	H	1.584784	-0.894744	-0.084954
H250	H	2.084784	-0.394744	0.415046
H251	H	1.047320	-0.453608	-0.000007
H252	H	1.547320	0.046392	0.499993
