data_functionalizedCrystal
_audit_creation_method	'MofGen! by Chris Wilmer'
_symmetry_space_group_name_H-M	'P1'
_symmetry_Int_Tables_number	1
_symmetry_cell_setting	triclinic
loop_
_symmetry_equiv_pos_as_xyz
  x,y,z
_cell_length_a	16.704493
_cell_length_b	16.704479
_cell_length_c	20.016444
_cell_angle_alpha	63.426339
_cell_angle_beta	85.838401
_cell_angle_gamma	54.475721
loop_
_atom_site_label
_atom_site_type_symbol
_atom_site_fract_x
_atom_site_fract_y
_atom_site_fract_z
Zr1	Zr	0.728019	0.878567	-0.094135
O2	O	0.591230	1.046025	-0.185350
O3	O	0.775928	0.711114	-0.071510
O4	O	0.767300	0.878573	-0.203192
O5	O	0.599865	0.878560	0.056276
O6	O	0.899390	0.878571	-0.211194
O7	O	0.599857	0.878566	-0.053669
O8	O	0.914823	0.579018	0.024360
O9	O	0.584432	1.178114	-0.179279
O10	O	0.887717	0.779987	-0.061385
O11	O	0.789146	0.779983	0.026638
O12	O	0.778988	0.977144	-0.128400
O13	O	0.680417	0.977141	-0.040378
Zr14	Zr	0.938698	0.878555	0.068451
Zr15	Zr	0.938686	0.878565	-0.106898
Zr16	Zr	0.728030	0.878557	0.081213
Zr17	Zr	0.717176	1.089233	-0.084452
Zr18	Zr	0.949540	0.667889	0.058767
O19	O	0.890788	1.046008	0.045826
O20	O	0.890772	1.046023	-0.203497
O21	O	0.591246	1.046011	0.063973
O22	O	1.075486	0.711096	0.159666
O23	O	1.075470	0.711111	-0.089658
O24	O	0.775945	0.711099	0.177813
O25	O	1.066852	0.878562	-0.081960
O26	O	0.899416	0.878549	0.177508
O27	O	0.767326	0.878550	0.185510
O28	O	1.066859	0.878556	0.027984
O29	O	0.751884	1.178112	-0.189423
O30	O	0.914832	0.579010	0.163739
O31	O	1.082285	0.579008	0.153594
O32	O	1.082275	0.579016	0.014215
O33	O	0.584441	1.178106	-0.039900
O34	O	0.751893	1.178104	-0.050045
O35	O	0.887728	0.779977	0.102716
O36	O	0.986300	0.779981	0.014694
O37	O	0.877570	0.977139	-0.052322
O38	O	0.778999	0.977135	0.035700
C39	C	0.846920	0.615050	-0.024955
C40	C	0.851523	0.525617	-0.029066
C41	C	0.569845	0.878563	0.003122
C42	C	0.480412	0.878564	0.008540
C43	C	0.909458	0.399567	-0.080803
C44	C	0.905137	0.483598	-0.076944
C45	C	0.802224	0.483603	0.014955
C46	C	0.806545	0.399573	0.011095
C47	C	0.860165	0.357556	-0.036784
C48	C	0.864492	0.273519	-0.040639
C49	C	0.761574	0.273532	0.051255
C50	C	0.757253	0.357562	0.055114
C51	C	0.312358	0.878552	-0.102425
C52	C	0.228327	0.878553	-0.097337
C53	C	0.228321	0.878558	0.023805
C54	C	0.312352	0.878558	0.018718
C55	C	0.354367	0.878556	-0.044400
C56	C	0.438395	0.878563	-0.049490
C57	C	0.438392	0.878561	0.071655
C58	C	0.354361	0.878562	0.076742
C59	C	1.096871	0.878559	-0.028807
C60	C	1.186305	0.878558	-0.034225
C61	C	0.833344	0.878574	-0.232177
C62	C	0.833339	0.878578	-0.306617
C63	C	0.819796	1.142072	-0.000730
C64	C	0.815193	1.231505	0.003381
C65	C	0.776601	0.981479	-0.512856
C66	C	0.776609	0.981474	-0.582798
C67	C	0.890122	0.775635	-0.512821
C68	C	0.890119	0.775641	-0.442881
C69	C	0.833352	0.878566	-0.442901
C70	C	0.833364	0.878556	-0.582783
C71	C	0.833373	0.878550	-0.658617
C72	C	0.833344	0.878573	-0.367063
C73	C	0.833373	0.878548	0.206492
C74	C	0.833378	0.878544	0.280932
C75	C	1.110433	0.615048	-0.040919
C76	C	1.204470	0.525614	-0.050448
C77	C	0.846935	0.615038	0.194380
C78	C	0.851543	0.525600	0.264709
C79	C	1.110448	0.615035	0.178415
C80	C	1.204489	0.525597	0.243326
C81	C	0.556269	1.142087	-0.204100
C82	C	0.462227	1.231525	-0.269011
C83	C	0.556283	1.142074	0.015235
C84	C	0.462246	1.231508	0.024764
C85	C	0.819781	1.142084	-0.220064
C86	C	0.815173	1.231522	-0.290393
C87	C	1.197171	0.483618	-0.094643
C88	C	1.285520	0.399597	-0.103612
C89	C	1.381167	0.357568	-0.068381
C90	C	1.388463	0.399572	-0.024185
C91	C	1.300115	0.483597	-0.015221
C92	C	0.905166	0.483597	0.337455
C93	C	0.909491	0.399572	0.403545
C94	C	0.860199	0.357548	0.396885
C95	C	0.806569	0.399560	0.324131
C96	C	0.802238	0.483588	0.258044
C97	C	1.300114	0.483598	0.227862
C98	C	1.388484	0.399573	0.288846
C99	C	1.381227	0.357543	0.365294
C100	C	1.285591	0.399550	0.380757
C101	C	1.197224	0.483579	0.319774
C102	C	0.366601	1.273534	-0.253546
C103	C	0.278230	1.357585	-0.314529
C104	C	0.285488	1.399620	-0.390976
C105	C	0.381123	1.357607	-0.406440
C106	C	0.469492	1.273563	-0.345458
C107	C	0.469544	1.273513	0.068951
C108	C	0.381194	1.357557	0.077902
C109	C	0.285548	1.399589	0.042669
C110	C	0.278252	1.357581	-0.001524
C111	C	0.366601	1.273544	-0.010479
C112	C	0.864477	1.273520	-0.283709
C113	C	0.860167	1.357544	-0.349786
C114	C	0.806547	1.399575	-0.422545
C115	C	0.757243	1.357569	-0.429228
C116	C	0.761559	1.273540	-0.363153
H117	H	0.908155	0.239307	-0.079623
O118	O	0.708375	0.228257	0.098730
H119	H	0.765076	0.135557	0.138671
O120	O	0.922326	1.228182	-0.205238
H121	H	0.955893	1.271501	-0.211705
H122	H	1.119365	0.517764	0.332376
H123	H	0.863733	0.289127	0.450703
H124	H	0.936338	0.691837	-0.512814
H125	H	0.721405	1.239354	-0.368606
H126	H	0.766437	0.365331	0.318720
O127	O	0.357667	0.878561	-0.170504
H128	H	0.353502	0.955521	-0.201878
H129	H	0.945306	0.517804	0.342893
H130	H	0.900316	1.391737	-0.344329
H131	H	0.758562	0.517834	0.053930
H132	H	0.758576	0.517776	0.198812
O133	O	0.483708	0.878561	0.134244
H134	H	0.510011	0.801613	0.190424
H135	H	1.306043	0.517806	0.165619
H136	H	0.803040	1.467997	-0.476342
O137	O	1.491627	0.354261	0.272159
H138	H	1.481819	0.397592	0.208754
H139	H	0.713586	1.391804	-0.488478
H140	H	0.730398	1.065276	-0.639756
O141	O	0.951327	0.664638	-0.367420
H142	H	0.990788	0.593066	-0.379153
H143	H	1.119299	0.517837	-0.123343
H144	H	0.472600	0.878567	-0.100885
O145	O	0.967287	0.354241	-0.132440
H146	H	1.000835	0.397575	-0.162404
H147	H	1.279560	0.365407	-0.139599
H148	H	1.279697	0.365317	0.443009
O149	O	0.958305	0.528910	-0.124418
H150	H	0.996319	0.485568	-0.158354
O151	O	0.967355	0.354250	0.482008
H152	H	1.000919	0.397575	0.475527
H153	H	0.713594	0.391786	0.094094
O154	O	0.175093	1.402877	-0.297835
H155	H	0.114855	1.468392	-0.353078
H156	H	0.360673	1.239314	-0.191303
O157	O	0.715386	1.092485	-0.512873
H158	H	0.675932	1.164045	-0.573271
O159	O	1.476547	0.266898	0.431061
H160	H	1.455444	0.244722	0.486822
H161	H	0.213524	1.468053	-0.440625
H162	H	0.194127	0.878548	-0.144586
H163	H	1.453097	0.289148	-0.075685
O164	O	0.388946	1.402940	-0.488896
H165	H	0.311428	1.468426	-0.528696
O166	O	1.491627	0.354227	0.013820
H167	H	1.551826	0.288734	0.000166
O168	O	0.183005	0.878552	0.091881
H169	H	0.117515	0.878554	0.085666
O170	O	0.572632	1.228240	-0.362142
H171	H	0.562822	1.271585	-0.425547
O172	O	0.175086	1.402925	-0.039525
H173	H	0.135182	1.386792	0.005450
H174	H	0.547417	1.239297	0.097649
O175	O	0.389074	1.402843	0.125579
H176	H	0.470429	1.359475	0.148585
O177	O	1.307992	0.528874	0.032461
H178	H	1.389346	0.485515	0.055457
H179	H	0.213617	1.468017	0.049967
O180	O	0.358725	1.228230	-0.058131
H181	H	0.277371	1.271573	-0.081116
H182	H	0.320146	0.878559	0.128133
