data_functionalizedCrystal
_audit_creation_method	'MofGen! by Chris Wilmer'
_symmetry_space_group_name_H-M	'P1'
_symmetry_Int_Tables_number	1
_symmetry_cell_setting	triclinic
loop_
_symmetry_equiv_pos_as_xyz
  x,y,z
_cell_length_a	19.121102
_cell_length_b	19.121063
_cell_length_c	19.121175
_cell_angle_alpha	94.951770
_cell_angle_beta	85.212968
_cell_angle_gamma	90.126902
loop_
_atom_site_label
_atom_site_type_symbol
_atom_site_fract_x
_atom_site_fract_y
_atom_site_fract_z
Zn1	Zn	1.078480	-0.345237	-0.457776
Zn2	Zn	1.328480	-0.095237	-0.207776
Zn3	Zn	1.578480	0.154763	0.042224
Zn4	Zn	1.828480	0.404763	0.292224
Zn5	Zn	1.068784	-0.457452	-0.344694
Zn6	Zn	1.318784	-0.207452	-0.094694
Zn7	Zn	1.568784	0.042548	0.155306
Zn8	Zn	1.818784	0.292548	0.405306
Zn9	Zn	0.956233	-0.334783	-0.334686
Zn10	Zn	1.206233	-0.084783	-0.084686
Zn11	Zn	1.456233	0.165217	0.165314
Zn12	Zn	1.706233	0.415217	0.415314
Zn13	Zn	0.956186	-0.457406	-0.457304
Zn14	Zn	1.206186	-0.207406	-0.207304
Zn15	Zn	1.456186	0.042594	0.042696
Zn16	Zn	1.706186	0.292594	0.292696
O17	O	1.014921	-0.398719	-0.398615
O18	O	1.264921	-0.148719	-0.148615
O19	O	1.514921	0.101281	0.101385
O20	O	1.764921	0.351281	0.351385
O21	O	1.175477	-0.364516	-0.447161
O22	O	1.425477	-0.114516	-0.197161
O23	O	1.675477	0.135484	0.052839
O24	O	1.925477	0.385484	0.302839
O25	O	1.049816	-0.436824	-0.244725
O26	O	1.299816	-0.186824	0.005275
O27	O	1.549816	0.063176	0.255275
O28	O	1.799816	0.313176	0.505275
O29	O	0.976527	-0.237889	-0.347024
O30	O	1.226527	0.012111	-0.097024
O31	O	1.476527	0.262111	0.152976
O32	O	1.726527	0.512111	0.402976
O33	O	1.168354	-0.446961	-0.364080
O34	O	1.418354	-0.196961	-0.114080
O35	O	1.668354	0.053039	0.135920
O36	O	1.918354	0.303039	0.385920
O37	O	1.066341	-0.245569	-0.437457
O38	O	1.316341	0.004431	-0.187457
O39	O	1.566341	0.254431	0.062543
O40	O	1.816341	0.504431	0.312543
O41	O	0.967125	-0.346700	-0.237373
O42	O	1.217125	-0.096700	0.012627
O43	O	1.467125	0.153300	0.262627
O44	O	1.717125	0.403300	0.512627
O45	O	0.857943	-0.346655	-0.346566
O46	O	1.107943	-0.096655	-0.096566
O47	O	1.357943	0.153345	0.153434
O48	O	1.607943	0.403345	0.403434
O49	O	0.976446	-0.446882	-0.556008
O50	O	1.226446	-0.196882	-0.306008
O51	O	1.476446	0.053118	-0.056008
O52	O	1.726446	0.303118	0.193992
O53	O	0.857908	-0.436746	-0.436653
O54	O	1.107908	-0.186746	-0.186653
O55	O	1.357908	0.063254	0.063347
O56	O	1.607908	0.313254	0.313347
O57	O	1.066295	-0.364472	-0.556354
O58	O	1.316295	-0.114472	-0.306354
O59	O	1.566295	0.135528	-0.056354
O60	O	1.816295	0.385528	0.193646
O61	O	1.049770	-0.555727	-0.363622
O62	O	1.299770	-0.305727	-0.113622
O63	O	1.549770	-0.055727	0.136378
O64	O	1.799770	0.194273	0.386378
O65	O	0.967044	-0.555693	-0.446357
O66	O	1.217044	-0.305693	-0.196357
O67	O	1.467044	-0.055693	0.053643
O68	O	1.717044	0.194307	0.303643
C69	C	0.832442	-0.390561	-0.390473
C70	C	1.082442	-0.140561	-0.140473
C71	C	1.332442	0.109439	0.109527
C72	C	1.582442	0.359439	0.359527
C73	C	0.754377	-0.387089	-0.387007
C74	C	1.004377	-0.137089	-0.137007
C75	C	1.254377	0.112911	0.112993
C76	C	1.504377	0.362911	0.362993
C77	C	0.717696	-0.432428	-0.432214
C78	C	0.967696	-0.182428	-0.182214
C79	C	1.217696	0.067572	0.067786
C80	C	1.467696	0.317572	0.317786
C81	C	0.644346	-0.429156	-0.428961
C82	C	0.894346	-0.179156	-0.178961
C83	C	1.144346	0.070844	0.071039
C84	C	1.394346	0.320844	0.321039
C85	C	0.607678	-0.380548	-0.380496
C86	C	0.857678	-0.130548	-0.130496
C87	C	1.107678	0.119452	0.119504
C88	C	1.357678	0.369452	0.369504
C89	C	0.644364	-0.335205	-0.335287
C90	C	0.894364	-0.085205	-0.085287
C91	C	1.144364	0.164795	0.164713
C92	C	1.394364	0.414795	0.414713
C93	C	0.717713	-0.338474	-0.338545
C94	C	0.967713	-0.088474	-0.088545
C95	C	1.217713	0.161526	0.161455
C96	C	1.467713	0.411526	0.411455
C97	C	0.386212	-0.368326	-0.368321
C98	C	0.636212	-0.118326	-0.118321
C99	C	0.886212	0.131674	0.131679
C100	C	1.136212	0.381674	0.381679
C101	C	0.312858	-0.365061	-0.365066
C102	C	0.562858	-0.115061	-0.115066
C103	C	0.812858	0.134939	0.134934
C104	C	1.062858	0.384939	0.384934
C105	C	0.312845	-0.459012	-0.458740
C106	C	0.562845	-0.209012	-0.208740
C107	C	0.812845	0.040988	0.041260
C108	C	1.062845	0.290988	0.291260
C109	C	0.386195	-0.462279	-0.461990
C110	C	0.636195	-0.212279	-0.211990
C111	C	0.886195	0.037721	0.038010
C112	C	1.136195	0.287721	0.288010
C113	C	0.422875	-0.416933	-0.416784
C114	C	0.672875	-0.166933	-0.166784
C115	C	0.922875	0.083067	0.083216
C116	C	1.172875	0.333067	0.333216
C117	C	0.532702	-0.377205	-0.377168
C118	C	0.782702	-0.127205	-0.127168
C119	C	1.032702	0.122795	0.122832
C120	C	1.282702	0.372795	0.372832
C121	C	0.497850	-0.420275	-0.420116
C122	C	0.747850	-0.170275	-0.170116
C123	C	0.997850	0.079725	0.079884
C124	C	1.247850	0.329725	0.329884
C125	C	1.007370	-0.581194	-0.406040
C126	C	1.257370	-0.331194	-0.156040
C127	C	1.507370	-0.081194	0.093960
C128	C	1.757370	0.168806	0.343960
C129	C	1.004204	-0.659262	-0.409244
C130	C	1.254204	-0.409262	-0.159244
C131	C	1.504204	-0.159262	0.090756
C132	C	1.754204	0.090738	0.340756
C133	C	1.045825	-0.695936	-0.367712
C134	C	1.295825	-0.445936	-0.117712
C135	C	1.545825	-0.195936	0.132288
C136	C	1.795825	0.054064	0.382288
C137	C	1.042852	-0.769289	-0.370729
C138	C	1.292852	-0.519289	-0.120729
C139	C	1.542852	-0.269289	0.129271
C140	C	1.792852	-0.019289	0.379271
C141	C	0.998255	-0.805966	-0.415274
C142	C	1.248255	-0.555966	-0.165274
C143	C	1.498255	-0.305966	0.084726
C144	C	1.748255	-0.055966	0.334726
C145	C	0.956634	-0.769287	-0.456810
C146	C	1.206634	-0.519287	-0.206810
C147	C	1.456634	-0.269287	0.043190
C148	C	1.706634	-0.019287	0.293190
C149	C	0.959610	-0.695936	-0.453797
C150	C	1.209610	-0.445936	-0.203797
C151	C	1.459610	-0.195936	0.046203
C152	C	1.709610	0.054064	0.296203
C153	C	0.987115	-1.027440	-0.426530
C154	C	1.237115	-0.777440	-0.176530
C155	C	1.487115	-0.527440	0.073470
C156	C	1.737115	-0.277440	0.323470
C157	C	0.984139	-1.100797	-0.429539
C158	C	1.234139	-0.850797	-0.179539
C159	C	1.484139	-0.600797	0.070461
C160	C	1.734139	-0.350797	0.320461
C161	C	1.070359	-1.100793	-0.343458
C162	C	1.320359	-0.850793	-0.093458
C163	C	1.570359	-0.600793	0.156542
C164	C	1.820359	-0.350793	0.406542
C165	C	1.073329	-1.027440	-0.340445
C166	C	1.323329	-0.777440	-0.090445
C167	C	1.573329	-0.527440	0.159555
C168	C	1.823329	-0.277440	0.409555
C169	C	1.031710	-0.990768	-0.381984
C170	C	1.281710	-0.740768	-0.131984
C171	C	1.531710	-0.490768	0.118016
C172	C	1.781710	-0.240768	0.368016
C173	C	0.995214	-0.880945	-0.418357
C174	C	1.245214	-0.630945	-0.168357
C175	C	1.495214	-0.380945	0.081643
C176	C	1.745214	-0.130945	0.331643
C177	C	1.034755	-0.915791	-0.378904
C178	C	1.284755	-0.665791	-0.128904
C179	C	1.534755	-0.415791	0.121096
C180	C	1.784755	-0.165791	0.371096
C181	C	1.198112	-0.406910	-0.406789
C182	C	1.448112	-0.156910	-0.156789
C183	C	1.698112	0.093090	0.093211
C184	C	1.948112	0.343090	0.343211
C185	C	1.276177	-0.410400	-0.410273
C186	C	1.526177	-0.160400	-0.160273
C187	C	1.776177	0.089600	0.089727
C188	C	2.026177	0.339600	0.339727
C189	C	1.022447	-0.406838	-0.582473
C190	C	1.272447	-0.156838	-0.332473
C191	C	1.522447	0.093162	-0.082473
C192	C	1.772447	0.343162	0.167527
C193	C	1.025654	-0.410297	-0.660822
C194	C	1.275654	-0.160297	-0.410822
C195	C	1.525654	0.089703	-0.160822
C196	C	1.775654	0.339703	0.089178
C197	C	1.022521	-0.215534	-0.391177
C198	C	1.272521	0.034466	-0.141177
C199	C	1.522521	0.284466	0.108823
C200	C	1.772521	0.534466	0.358823
C201	C	1.025760	-0.137471	-0.388007
C202	C	1.275760	0.112529	-0.138007
C203	C	1.525760	0.362529	0.111993
C204	C	1.775760	0.612529	0.361993
C205	C	0.984110	-0.365001	-0.693802
C206	C	1.234110	-0.115001	-0.443802
C207	C	1.484110	0.134999	-0.193802
C208	C	1.734110	0.384999	0.056198
C209	C	0.987121	-0.368257	-0.767419
C210	C	1.237121	-0.118257	-0.517419
C211	C	1.487121	0.131743	-0.267419
C212	C	1.737121	0.381743	-0.017419
C213	C	1.031680	-0.416807	-0.808055
C214	C	1.281680	-0.166807	-0.558055
C215	C	1.531680	0.083193	-0.308055
C216	C	1.781680	0.333193	-0.058055
C217	C	1.073225	-0.462109	-0.775070
C218	C	1.323225	-0.212109	-0.525070
C219	C	1.573225	0.037891	-0.275070
C220	C	1.823225	0.287891	-0.025070
C221	C	1.070210	-0.458855	-0.701454
C222	C	1.320210	-0.208855	-0.451454
C223	C	1.570210	0.041145	-0.201454
C224	C	1.820210	0.291145	0.048546
C225	C	1.042933	-0.428981	-1.030520
C226	C	1.292933	-0.178981	-0.780520
C227	C	1.542933	0.071019	-0.530520
C228	C	1.792933	0.321019	-0.280520
C229	C	1.045947	-0.432229	-1.104141
C230	C	1.295947	-0.182229	-0.854141
C231	C	1.545947	0.067771	-0.604141
C232	C	1.795947	0.317771	-0.354141
C233	C	0.959841	-0.338378	-1.096485
C234	C	1.209841	-0.088378	-0.846485
C235	C	1.459841	0.161622	-0.596485
C236	C	1.709841	0.411622	-0.346485
C237	C	0.956833	-0.335126	-1.022868
C238	C	1.206833	-0.085126	-0.772868
C239	C	1.456833	0.164874	-0.522868
C240	C	1.706833	0.414874	-0.272868
C241	C	0.998376	-0.380430	-0.989889
C242	C	1.248376	-0.130430	-0.739889
C243	C	1.498376	0.119570	-0.489889
C244	C	1.748376	0.369570	-0.239889
C245	C	1.034760	-0.420135	-0.883304
C246	C	1.284760	-0.170135	-0.633304
C247	C	1.534760	0.079865	-0.383304
C248	C	1.784760	0.329865	-0.133304
C249	C	0.995292	-0.377105	-0.914642
C250	C	1.245292	-0.127105	-0.664642
C251	C	1.495292	0.122895	-0.414642
C252	C	1.745292	0.372895	-0.164642
C253	C	1.007466	-0.390584	-0.215472
C254	C	1.257466	-0.140584	0.034528
C255	C	1.507466	0.109416	0.284528
C256	C	1.757466	0.359416	0.534528
C257	C	1.004403	-0.386933	-0.137122
C258	C	1.254403	-0.136933	0.112878
C259	C	1.504403	0.113067	0.362878
C260	C	1.754403	0.363067	0.612878
H261	H	0.747546	-0.472011	-0.471677
H262	H	0.997546	-0.222011	-0.221677
H263	H	1.247546	0.027989	0.028323
H264	H	1.497546	0.277989	0.278323
H265	H	1.109643	-0.997579	-0.304173
H266	H	1.359643	-0.747579	-0.054173
H267	H	1.609643	-0.497579	0.195827
H268	H	1.859643	-0.247579	0.445827
H269	H	0.958902	-0.910816	-0.454624
H270	H	1.208902	-0.660816	-0.204624
H271	H	1.458902	-0.410816	0.045376
H272	H	1.708902	-0.160816	0.295376
Cl273	Cl	0.763826	-0.281473	-0.281712
Cl274	Cl	1.013826	-0.031473	-0.031712
Cl275	Cl	1.263826	0.218527	0.218288
Cl276	Cl	1.513826	0.468527	0.468288
H277	H	1.076743	-0.799145	-0.336909
H278	H	1.326743	-0.549145	-0.086909
H279	H	1.576743	-0.299145	0.163091
H280	H	1.826743	-0.049145	0.413091
Cl281	Cl	0.543948	-0.481379	-0.481041
Cl282	Cl	0.793948	-0.231379	-0.231041
Cl283	Cl	1.043948	0.018621	0.018959
Cl284	Cl	1.293948	0.268621	0.268959
Cl285	Cl	1.095164	-0.485930	-0.989071
Cl286	Cl	1.345164	-0.235930	-0.739071
Cl287	Cl	1.595164	0.014070	-0.489071
Cl288	Cl	1.845164	0.264070	-0.239071
H289	H	0.926019	-0.301495	-1.123345
H290	H	1.176019	-0.051495	-0.873345
H291	H	1.426019	0.198505	-0.623345
H292	H	1.676019	0.448505	-0.373345
Cl293	Cl	0.907288	-0.649832	-0.506013
Cl294	Cl	1.157288	-0.399832	-0.256013
Cl295	Cl	1.407288	-0.149832	-0.006013
Cl296	Cl	1.657288	0.100168	0.243987
Cl297	Cl	1.129238	-0.523148	-0.826156
Cl298	Cl	1.379238	-0.273148	-0.576156
Cl299	Cl	1.629238	-0.023148	-0.326156
Cl300	Cl	1.879238	0.226852	-0.076156
Cl301	Cl	0.934858	-0.311341	-0.808877
Cl302	Cl	1.184858	-0.061341	-0.558877
Cl303	Cl	1.434858	0.188659	-0.308877
Cl304	Cl	1.684858	0.438659	-0.058877
H305	H	1.071069	-0.885926	-0.342638
H306	H	1.321069	-0.635926	-0.092638
H307	H	1.571069	-0.385926	0.157362
H308	H	1.821069	-0.135926	0.407362
Cl309	Cl	0.900573	-0.815397	-0.512815
Cl310	Cl	1.150573	-0.565397	-0.262815
Cl311	Cl	1.400573	-0.315397	-0.012815
Cl312	Cl	1.650573	-0.065397	0.237185
H313	H	1.104045	-0.495736	-0.674603
H314	H	1.354045	-0.245736	-0.424603
H315	H	1.604045	0.004264	-0.174603
H316	H	1.854045	0.254264	0.075397
Cl317	Cl	0.939279	-0.316071	-0.863556
Cl318	Cl	1.189279	-0.066071	-0.613556
Cl319	Cl	1.439279	0.183929	-0.363556
Cl320	Cl	1.689279	0.433929	-0.113556
H321	H	0.416046	-0.501862	-0.501454
H322	H	0.666046	-0.251862	-0.251454
H323	H	0.916046	-0.001862	-0.001454
H324	H	1.166046	0.248138	0.248546
Cl325	Cl	0.598236	-0.486156	-0.485795
Cl326	Cl	0.848236	-0.236156	-0.235795
Cl327	Cl	1.098236	0.013844	0.014205
Cl328	Cl	1.348236	0.263844	0.264205
Cl329	Cl	0.486599	-0.316100	-0.316243
Cl330	Cl	0.736599	-0.066100	-0.066243
Cl331	Cl	0.986599	0.183900	0.183757
Cl332	Cl	1.236599	0.433900	0.433757
Cl333	Cl	0.928094	-0.303959	-0.642724
Cl334	Cl	1.178094	-0.053959	-0.392724
Cl335	Cl	1.428094	0.196041	-0.142724
Cl336	Cl	1.678094	0.446041	0.107276
H337	H	0.920547	-0.295593	-0.989787
H338	H	1.170547	-0.045593	-0.739787
H339	H	1.420547	0.204407	-0.489787
H340	H	1.670547	0.454407	-0.239787
H341	H	1.082235	-0.471766	-1.137226
H342	H	1.332235	-0.221766	-0.887226
H343	H	1.582235	0.028234	-0.637226
H344	H	1.832235	0.278234	-0.387226
H345	H	1.071039	-0.459665	-0.916398
H346	H	1.321039	-0.209665	-0.666398
H347	H	1.571039	0.040335	-0.416398
H348	H	1.821039	0.290335	-0.166398
H349	H	0.282973	-0.495929	-0.495546
H350	H	0.532973	-0.245929	-0.245546
H351	H	0.782973	0.004071	0.004454
H352	H	1.032973	0.254071	0.254454
H353	H	0.283005	-0.325472	-0.325604
H354	H	0.533005	-0.075472	-0.075604
H355	H	0.783005	0.174528	0.174396
H356	H	1.033005	0.424528	0.424396
H357	H	0.614503	-0.295625	-0.295829
H358	H	0.864503	-0.045625	-0.045829
H359	H	1.114503	0.204375	0.204171
H360	H	1.364503	0.454375	0.454171
Cl361	Cl	0.432314	-0.311317	-0.311491
Cl362	Cl	0.682314	-0.061317	-0.061491
Cl363	Cl	0.932314	0.188683	0.188509
Cl364	Cl	1.182314	0.438683	0.438509
H365	H	1.082137	-0.666077	-0.331435
H366	H	1.332137	-0.416077	-0.081435
H367	H	1.582137	-0.166077	0.168565
H368	H	1.832137	0.083923	0.418565
H369	H	0.947832	-1.130659	-0.465825
H370	H	1.197832	-0.880659	-0.215825
H371	H	1.447832	-0.630659	0.034175
H372	H	1.697832	-0.380659	0.284175
Cl373	Cl	1.122682	-1.146900	-0.291246
Cl374	Cl	1.372682	-0.896900	-0.041246
Cl375	Cl	1.622682	-0.646900	0.208754
Cl376	Cl	1.872682	-0.396900	0.458754
Cl377	Cl	0.934792	-0.981348	-0.478749
Cl378	Cl	1.184792	-0.731348	-0.228749
Cl379	Cl	1.434792	-0.481348	0.021251
Cl380	Cl	1.684792	-0.231348	0.271251
