data_functionalizedCrystal
_audit_creation_method	'MofGen! by Chris Wilmer'
_symmetry_space_group_name_H-M	'P1'
_symmetry_Int_Tables_number	1
_symmetry_cell_setting	triclinic
loop_
_symmetry_equiv_pos_as_xyz
  x,y,z
_cell_length_a	19.805407
_cell_length_b	19.805405
_cell_length_c	19.805399
_cell_angle_alpha	89.973385
_cell_angle_beta	89.982197
_cell_angle_gamma	90.024042
loop_
_atom_site_label
_atom_site_type_symbol
_atom_site_fract_x
_atom_site_fract_y
_atom_site_fract_z
Zn1	Zn	1.034734	-0.269527	-0.382692
Zn2	Zn	1.034648	-0.382716	-0.269506
Zn3	Zn	0.921549	-0.269541	-0.269520
Zn4	Zn	0.921512	-0.382674	-0.382656
O5	O	0.978111	-0.326115	-0.326094
O6	O	1.129439	-0.284554	-0.367687
O7	O	1.019625	-0.367726	-0.174791
O8	O	0.936615	-0.174822	-0.284554
O9	O	1.129376	-0.367713	-0.284529
O10	O	1.019771	-0.174813	-0.367701
O11	O	0.936531	-0.284576	-0.174802
O12	O	0.826827	-0.284536	-0.284519
O13	O	0.936551	-0.367642	-0.477378
O14	O	0.826800	-0.367655	-0.367639
O15	O	1.019735	-0.284514	-0.477404
O16	O	1.019589	-0.477427	-0.284494
O17	O	0.936468	-0.477396	-0.367625
C18	C	0.802255	-0.326093	-0.326077
C19	C	0.727023	-0.326101	-0.326086
C20	C	0.691712	-0.282876	-0.369452
C21	C	0.621024	-0.282880	-0.369455
C22	C	0.585647	-0.326112	-0.326094
C23	C	0.620963	-0.369338	-0.282724
C24	C	0.691650	-0.369330	-0.282718
C25	C	0.335890	-0.369368	-0.282744
C26	C	0.265197	-0.369374	-0.282755
C27	C	0.265263	-0.282918	-0.369481
C28	C	0.335950	-0.282910	-0.369476
C29	C	0.371260	-0.326134	-0.326103
C30	C	0.447908	-0.326128	-0.326099
C31	C	0.509000	-0.326121	-0.326100
C32	C	0.978034	-0.501971	-0.326069
C33	C	0.978063	-0.577203	-0.326081
C34	C	1.021337	-0.612483	-0.369410
C35	C	1.021361	-0.683172	-0.369422
C36	C	0.978114	-0.718578	-0.326103
C37	C	0.934835	-0.683292	-0.282772
C38	C	0.934808	-0.612605	-0.282763
C39	C	0.934944	-0.968366	-0.282807
C40	C	0.934976	-1.039058	-0.282817
C41	C	1.021497	-1.038932	-0.369466
C42	C	1.021470	-0.968245	-0.369457
C43	C	0.978189	-0.932965	-0.326129
C44	C	0.978162	-0.856317	-0.326117
C45	C	0.978144	-0.795225	-0.326111
C46	C	1.154653	-0.326136	-0.326111
C47	C	1.229885	-0.326146	-0.326118
C48	C	0.978149	-0.326072	-0.502636
C49	C	0.978165	-0.326054	-0.577868
C50	C	0.978207	-0.149572	-0.326133
C51	C	0.978247	-0.074340	-0.326150
C52	C	1.021480	-0.282766	-0.613227
C53	C	1.021487	-0.282747	-0.683916
C54	C	0.978182	-0.326018	-0.719244
C55	C	0.934862	-0.369308	-0.683880
C56	C	0.934852	-0.369323	-0.613193
C57	C	0.934900	-0.369244	-0.968954
C58	C	0.934915	-0.369227	-1.039646
C59	C	1.021535	-0.282668	-1.039677
C60	C	1.021525	-0.282684	-0.968989
C61	C	0.978203	-0.325970	-0.933632
C62	C	0.978195	-0.325990	-0.856983
C63	C	0.978193	-0.326002	-0.795891
C64	C	0.978112	-0.326108	-0.150238
C65	C	0.978227	-0.325936	-0.075006
H66	H	0.236396	-0.404580	-0.247443
H67	H	1.056807	-0.247420	-1.068473
O68	O	0.227181	-0.236285	-0.416255
H69	H	0.172084	-0.243543	-0.408970
O70	O	0.582811	-0.415964	-0.235950
H71	H	0.550611	-0.450449	-0.266183
H72	H	0.899704	-0.939647	-0.247527
O73	O	0.373970	-0.415983	-0.235964
H74	H	0.337493	-0.446048	-0.205819
H75	H	0.899600	-0.404538	-0.712650
H76	H	1.056791	-0.247450	-0.940229
O77	O	0.888197	-0.721475	-0.236037
H78	H	0.895494	-0.776556	-0.243313
O79	O	0.374101	-0.236276	-0.416242
H80	H	0.406307	-0.266608	-0.450628
O81	O	0.888126	-0.416002	-0.575050
H82	H	0.858014	-0.446090	-0.611490
O83	O	1.067990	-0.574301	-0.416130
H84	H	1.037668	-0.542094	-0.450534
O85	O	0.888140	-0.574547	-0.236025
H86	H	0.858078	-0.611041	-0.205898
H87	H	1.056604	-0.711894	-0.404700
O88	O	0.729868	-0.236243	-0.416216
H89	H	0.693435	-0.206182	-0.446365
O90	O	0.888198	-0.415892	-1.077754
H91	H	0.858065	-0.445989	-1.041293
H92	H	1.056737	-1.067665	-0.404747
H93	H	0.592277	-0.247684	-0.404769
O94	O	0.888325	-1.077242	-0.236090
H95	H	0.918653	-1.109435	-0.201679
H96	H	1.056746	-0.247532	-0.584468
H97	H	0.720399	-0.404528	-0.247405
H98	H	1.056688	-0.939419	-0.404730
H99	H	1.056760	-0.247500	-0.712702
H100	H	0.899635	-0.404501	-0.940174
