data_functionalizedCrystal
_audit_creation_method	'MofGen! by Chris Wilmer'
_symmetry_space_group_name_H-M	'P1'
_symmetry_Int_Tables_number	1
_symmetry_cell_setting	triclinic
loop_
_symmetry_equiv_pos_as_xyz
  x,y,z
_cell_length_a	17.699083
_cell_length_b	10.489716
_cell_length_c	16.776229
_cell_angle_alpha	89.997416
_cell_angle_beta	89.998886
_cell_angle_gamma	83.906075
loop_
_atom_site_label
_atom_site_type_symbol
_atom_site_fract_x
_atom_site_fract_y
_atom_site_fract_z
O1	O	1.005125	0.161298	-0.066169
O2	O	0.784883	0.182283	-0.066194
O3	O	0.900025	-0.013903	-0.066184
O4	O	0.889983	0.357483	-0.066180
O5	O	0.900010	-0.013915	0.066392
O6	O	0.784868	0.182271	0.066382
O7	O	1.005110	0.161286	0.066407
Zn8	Zn	0.894986	0.171776	0.087444
Zn9	Zn	0.895007	0.171792	-0.087231
O10	O	0.889967	0.357471	0.066397
C11	C	0.756673	0.181525	0.000090
C12	C	0.672641	0.179269	0.000080
C13	C	0.624767	0.294426	0.000082
C14	C	0.545810	0.292299	0.000092
C15	C	0.514728	0.175013	0.000095
C16	C	0.562608	0.059847	0.000096
C17	C	0.641563	0.061976	0.000092
C18	C	0.244189	0.051261	0.000116
C19	C	0.165227	0.049141	0.000118
C20	C	0.148436	0.281583	0.000117
C21	C	0.227391	0.283712	0.000112
C22	C	0.275264	0.168547	0.000117
C23	C	0.360878	0.170855	0.000107
C24	C	0.429115	0.172704	0.000099
C25	C	0.899263	-0.061427	0.000102
C26	C	0.897006	-0.203016	0.000094
C27	C	0.967614	-0.302002	0.000109
C28	C	0.930311	-0.378664	-0.065260
C29	C	0.930279	-0.378639	0.065450
C30	C	0.859731	-0.277813	-0.065329
C31	C	0.859710	-0.277783	0.065439
C32	C	0.822355	-0.354395	0.000054
C33	C	1.033319	0.162043	0.000121
C34	C	1.117352	0.164299	0.000125
C35	C	0.890730	0.404995	0.000109
C36	C	0.892987	0.546584	0.000112
N37	N	0.894978	0.171765	0.206655
N38	N	0.895021	0.171793	-0.206443
C39	C	0.945979	0.084929	0.248377
C40	C	0.945983	0.084928	0.331829
C41	C	0.894989	0.171770	0.373558
C42	C	0.843983	0.258609	0.331831
C43	C	0.843976	0.258603	0.248380
C44	C	0.844010	0.258634	0.668378
C45	C	0.844023	0.258636	0.751834
C46	C	0.946018	0.084959	0.751827
C47	C	0.946010	0.084953	0.668376
C48	C	0.895002	0.171788	0.626656
C49	C	0.894997	0.171786	0.536168
C50	C	0.894997	0.171778	0.464045
H51	H	0.506834	0.386071	0.000093
H52	H	0.802479	0.329340	0.634416
C53	C	0.694224	-0.064696	0.000082
H54	H	0.664406	-0.134853	0.000075
H55	H	0.725378	-0.068706	0.046311
H56	H	0.725370	-0.068688	-0.046160
H57	H	0.650067	0.389933	0.000079
C58	C	1.050580	-0.270195	0.000032
H59	H	1.075562	-0.304920	-0.046469
H60	H	1.075895	-0.306227	0.046001
H61	H	1.051462	-0.179804	0.000498
H62	H	0.139924	-0.046372	0.000121
C63	C	0.787914	0.354143	0.797735
H64	H	0.757525	0.405845	0.760937
H65	H	0.815414	0.407194	0.830288
H66	H	0.756174	0.308295	0.830291
C67	C	0.095777	0.408268	0.000117
H68	H	0.125598	0.478421	0.000104
H69	H	0.064627	0.412278	0.046350
H70	H	0.064627	0.412267	-0.046121
C71	C	0.296839	-0.075415	0.000116
H72	H	0.267017	-0.145567	0.000110
H73	H	0.327989	-0.079425	0.046347
H74	H	0.327987	-0.079416	-0.046123
C75	C	0.970583	-0.438176	-0.139906
H76	H	1.022156	-0.420658	-0.139823
H77	H	0.946018	-0.402314	-0.186329
H78	H	0.968436	-0.528283	-0.139604
H79	H	0.829923	-0.233717	0.120701
C80	C	0.787892	0.354135	0.377730
H81	H	0.795206	0.341713	0.433406
H82	H	0.737306	0.340392	0.364063
H83	H	0.796573	0.439247	0.364045
H84	H	0.802445	0.329312	0.214411
H85	H	0.829947	-0.233950	-0.120655
C86	C	0.970550	-0.438108	0.140111
H87	H	1.022118	-0.420562	0.140029
H88	H	0.968407	-0.528210	0.139839
H89	H	0.945977	-0.402213	0.186526
H90	H	0.760891	-0.377683	0.000012
C91	C	1.002071	-0.010600	0.202482
H92	H	1.032441	-0.062324	0.239285
H93	H	1.033820	0.035209	0.169920
H94	H	0.974553	-0.063645	0.169937
H95	H	0.537295	-0.035649	0.000110
C96	C	1.002091	-0.010579	0.377720
H97	H	1.032468	-0.062285	0.340915
H98	H	0.974593	-0.063624	0.410282
H99	H	1.033842	0.035259	0.410264
H100	H	0.987537	0.014243	0.634403
H101	H	0.252693	0.379218	0.000106
C102	C	1.002119	-0.010572	0.797721
H103	H	0.994817	0.001854	0.853398
H104	H	1.052702	0.003174	0.784039
H105	H	0.993438	-0.095685	0.784047
