data_functionalizedCrystal
_audit_creation_method	'MofGen! by Chris Wilmer'
_symmetry_space_group_name_H-M	'P1'
_symmetry_Int_Tables_number	1
_symmetry_cell_setting	triclinic
loop_
_symmetry_equiv_pos_as_xyz
  x,y,z
_cell_length_a	19.188929
_cell_length_b	10.723022
_cell_length_c	9.798715
_cell_angle_alpha	89.996609
_cell_angle_beta	90.024927
_cell_angle_gamma	96.193996
loop_
_atom_site_label
_atom_site_type_symbol
_atom_site_fract_x
_atom_site_fract_y
_atom_site_fract_z
O1	O	-0.097917	1.655156	-0.113555
O2	O	-0.107291	1.291809	-0.113567
O3	O	-0.001016	1.483968	-0.113476
O4	O	-0.204191	1.462997	-0.113646
O5	O	-0.001016	1.483953	0.113506
O6	O	-0.107291	1.291794	0.113415
O7	O	-0.097916	1.655142	0.113427
Zn8	Zn	-0.102604	1.473466	0.149460
Zn9	Zn	-0.102604	1.473485	-0.149599
O10	O	-0.204191	1.462983	0.113337
C11	C	-0.106609	1.245316	-0.000076
C12	C	-0.104569	1.106804	-0.000076
C13	C	-0.043284	1.059515	-0.000025
C14	C	-0.041173	0.916356	-0.000025
C15	C	-0.230207	1.463669	-0.000176
C16	C	-0.307724	1.465707	-0.000241
C17	C	-0.351916	1.352955	-0.000217
C18	C	-0.424752	1.354870	-0.000186
C19	C	-0.453394	1.469544	-0.000152
C20	C	-0.409192	1.582312	-0.000184
C21	C	-0.336358	1.580393	-0.000228
N22	N	-0.561931	1.557193	0.077184
N23	N	-0.631122	1.559008	0.077229
C24	C	-0.672840	1.475331	-0.000021
N25	N	-0.642755	1.389752	-0.077300
N26	N	-0.573559	1.387934	-0.077339
C27	C	-0.532370	1.471637	-0.000104
C28	C	-0.796009	1.364648	0.000035
C29	C	-0.868847	1.366568	0.000057
C30	C	-0.853285	1.594013	0.000074
C31	C	-0.780449	1.592089	0.000038
C32	C	-0.751816	1.477403	0.000025
C33	C	0.024999	1.483281	0.000034
C34	C	0.102517	1.481243	0.000089
C35	C	-0.098599	1.701634	-0.000067
C36	C	-0.100639	1.840146	-0.000076
N37	N	-0.102603	1.473462	0.353559
N38	N	-0.102599	1.473498	-0.353699
C39	C	-0.057784	1.554149	0.421374
C40	C	-0.057782	1.554169	0.578537
H41	H	0.007622	1.125014	0.000011
H42	H	0.011298	0.875633	-0.000017
H43	H	-0.153113	0.880860	-0.000111
Cl44	Cl	-0.315924	1.208779	-0.000248
H45	H	-0.155474	1.041305	-0.000124
Cl46	Cl	-0.161841	1.366821	0.443548
H47	H	-0.300376	1.672213	-0.000249
Cl48	Cl	0.001459	1.660833	0.668570
H49	H	-0.460740	1.263050	-0.000164
H50	H	-0.432517	1.675680	-0.000181
H51	H	-0.772695	1.271264	0.000032
Cl52	Cl	-0.161849	1.366843	0.556277
H53	H	-0.904827	1.274747	0.000068
H54	H	-0.744467	1.683905	0.000027
Cl55	Cl	-0.889285	1.738176	0.000103
H56	H	-0.019412	1.623209	0.363084
