data_functionalizedCrystal
_audit_creation_method	'MofGen! by Chris Wilmer'
_symmetry_space_group_name_H-M	'P1'
_symmetry_Int_Tables_number	1
_symmetry_cell_setting	triclinic
loop_
_symmetry_equiv_pos_as_xyz
  x,y,z
_cell_length_a	11.026607
_cell_length_b	14.853559
_cell_length_c	10.065875
_cell_angle_alpha	98.803502
_cell_angle_beta	79.302338
_cell_angle_gamma	96.108735
loop_
_atom_site_label
_atom_site_type_symbol
_atom_site_fract_x
_atom_site_fract_y
_atom_site_fract_z
O1	O	1.628521	0.367250	-0.113481
O2	O	1.275144	0.324250	-0.113484
O3	O	1.461277	0.216044	-0.113481
O4	O	1.442388	0.475456	-0.113484
O5	O	1.425784	0.236783	0.113507
O6	O	1.239651	0.344989	0.113504
O7	O	1.593028	0.387989	0.113507
Zn8	Zn	1.410704	0.369782	0.149545
Zn9	Zn	1.457468	0.342457	-0.149522
O10	O	1.406895	0.496196	0.113504
C11	C	1.212174	0.326687	0.000009
C12	C	1.077421	0.303039	0.000008
C13	C	1.003723	0.368334	0.000006
C14	C	0.864449	0.343895	0.000005
C15	C	1.442677	0.192687	0.000010
C16	C	1.440119	0.092189	0.000003
C17	C	1.448609	-0.344043	-0.123729
C18	C	1.409913	-0.321427	0.123742
C19	C	1.412328	-0.227004	0.123744
C20	C	1.432881	-0.191096	0.000007
C21	C	1.451020	-0.249612	-0.123731
C22	C	1.394176	-0.168482	0.247479
C23	C	1.396589	-0.074053	0.247486
C24	C	1.417152	-0.038143	0.123747
C25	C	1.435293	-0.096665	0.000004
C26	C	1.455846	-0.060758	-0.123733
C27	C	1.473997	-0.119277	-0.247477
C28	C	1.471583	-0.213702	-0.247470
C29	C	1.419565	0.056282	0.123740
C30	C	1.458258	0.033674	-0.123735
C31	C	1.655998	0.385552	0.000010
C32	C	1.790753	0.409199	0.000003
C33	C	1.425496	0.519553	0.000009
C34	C	1.428055	0.620049	0.000008
N35	N	1.378799	0.388432	0.353650
N36	N	1.489383	0.323802	-0.353627
C37	C	1.446359	0.348939	0.421430
C38	C	1.421813	0.363301	0.578597
H39	H	0.824447	0.269892	-0.000030
H40	H	1.522368	0.304491	0.363107
H41	H	1.043735	0.442329	0.000013
H42	H	1.404760	0.103922	0.224490
H43	H	0.830757	0.483200	0.000011
H44	H	1.345790	0.407743	0.636916
H45	H	1.302781	0.432871	0.411975
H46	H	1.463391	-0.391693	-0.224479
H47	H	1.565397	0.279352	0.588053
C48	C	1.023372	0.203073	0.000009
N49	N	0.982664	0.127777	0.000008
C50	C	1.480870	0.073163	-0.259859
N51	N	1.497899	0.102906	-0.362388
H52	H	1.490722	-0.090030	-0.348224
H53	H	1.393171	-0.350669	0.224483
H54	H	1.486359	-0.261357	-0.348216
H55	H	1.381814	-0.026413	0.348246
C56	C	1.371549	-0.207988	0.383580
N57	N	1.354502	-0.237748	0.486096
