data_functionalizedCrystal
_audit_creation_method	'MofGen! by Chris Wilmer'
_symmetry_space_group_name_H-M	'P1'
_symmetry_Int_Tables_number	1
_symmetry_cell_setting	triclinic
loop_
_symmetry_equiv_pos_as_xyz
  x,y,z
_cell_length_a	10.654546
_cell_length_b	15.995350
_cell_length_c	9.130313
_cell_angle_alpha	90.000588
_cell_angle_beta	90.005677
_cell_angle_gamma	83.987929
loop_
_atom_site_label
_atom_site_type_symbol
_atom_site_fract_x
_atom_site_fract_y
_atom_site_fract_z
O1	O	1.666308	0.117586	0.121823
O2	O	1.300683	0.128794	0.121819
O3	O	1.493490	0.001360	0.121820
O4	O	1.473501	0.245020	0.121822
O5	O	1.493472	0.001361	-0.121779
O6	O	1.300665	0.128794	-0.121780
O7	O	1.666290	0.117587	-0.121775
Cu8	Cu	1.483476	0.123191	-0.144020
Cu9	Cu	1.483497	0.123190	0.144064
O10	O	1.473483	0.245020	-0.121777
C11	C	1.253887	0.127972	0.000019
C12	C	1.114475	0.125512	0.000017
C13	C	1.049006	0.124347	0.132809
C14	C	0.918015	0.122029	0.132821
C15	C	0.917976	0.122036	-0.132764
C16	C	1.048963	0.124361	-0.132774
C17	C	1.049028	0.124339	0.286143
C18	C	0.918037	0.122021	0.286155
C19	C	1.492655	-0.029839	0.000023
C20	C	1.490177	-0.122804	0.000031
C21	C	1.481280	-0.460603	0.000026
C22	C	1.343966	-0.413965	0.000571
C23	C	1.346444	-0.317260	0.000022
C24	C	1.485693	-0.293017	0.000030
C25	C	1.553411	-0.333701	-0.139074
C26	C	1.549961	-0.430357	-0.139190
C27	C	1.552819	-0.430699	0.137827
C28	C	1.552786	-0.333754	0.139666
C29	C	1.488195	-0.198305	0.000027
C30	C	1.478783	-0.555315	0.000020
C31	C	1.713087	0.118409	0.000028
C32	C	1.852498	0.120869	0.000039
C33	C	1.474318	0.276219	0.000023
C34	C	1.476796	0.369184	0.000025
N35	N	1.483470	0.123191	-0.346643
C36	C	1.398083	0.179593	-0.423333
C37	C	1.398108	0.179592	-0.576670
C38	C	1.568909	0.066778	-0.576613
C39	C	1.568889	0.066784	-0.423279
C40	C	1.299469	0.244723	-0.423367
C41	C	1.299494	0.244721	-0.576704
N42	N	1.483513	0.123183	0.346686
H43	H	1.073079	0.183459	0.345016
H44	H	1.203173	0.230377	-0.618346
H45	H	1.101533	0.064709	0.333709
F46	F	1.180617	0.218090	-0.361227
H47	H	1.289091	-0.432815	0.100324
H48	H	1.329222	0.305533	-0.624256
H49	H	1.506362	-0.305592	-0.242595
H50	H	0.865550	0.181649	0.333748
F51	F	0.886612	0.044742	0.363093
F52	F	1.118633	0.125616	-0.274109
H53	H	1.292840	-0.289706	-0.099864
H54	H	1.650775	-0.462020	-0.145496
F55	F	0.848242	0.120812	-0.274081
H56	H	1.293213	-0.289147	0.099736
H57	H	1.500566	-0.448944	-0.243178
F58	F	1.687128	-0.314464	-0.145833
F59	F	1.272354	-0.440272	-0.128734
F60	F	1.659781	0.006764	-0.341660
H61	H	1.507932	-0.451500	0.243260
F62	F	1.659815	0.006750	-0.658186
F63	F	1.488571	-0.298122	0.274190
H64	H	1.654333	-0.317803	0.148070
H65	H	1.654060	-0.461873	0.138768
F66	F	1.326385	0.328845	-0.368970
