data_functionalizedCrystal
_audit_creation_method	'MofGen! by Chris Wilmer'
_symmetry_space_group_name_H-M	'P1'
_symmetry_Int_Tables_number	1
_symmetry_cell_setting	triclinic
loop_
_symmetry_equiv_pos_as_xyz
  x,y,z
_cell_length_a	12.759401
_cell_length_b	10.685194
_cell_length_c	12.759393
_cell_angle_alpha	85.596526
_cell_angle_beta	89.981425
_cell_angle_gamma	94.377657
loop_
_atom_site_label
_atom_site_type_symbol
_atom_site_fract_x
_atom_site_fract_y
_atom_site_fract_z
Zn1	Zn	1.574245	-0.502325	-0.561907
Zn2	Zn	1.560690	-0.713395	-0.372748
Zn3	Zn	1.398543	-0.502392	-0.386241
Zn4	Zn	1.385092	-0.713299	-0.548395
O5	O	1.479643	-0.607853	-0.467323
O6	O	1.719468	-0.530336	-0.536822
O7	O	1.539137	-0.685474	-0.227512
O8	O	1.433153	-0.325784	-0.420845
O9	O	1.709508	-0.685408	-0.397848
O10	O	1.562241	-0.325734	-0.549906
O11	O	1.420009	-0.530450	-0.237426
O12	O	1.249739	-0.530357	-0.407744
O13	O	1.410228	-0.685244	-0.697213
O14	O	1.239856	-0.685309	-0.526878
O15	O	1.549198	-0.530242	-0.707140
O16	O	1.526094	-0.889981	-0.384746
O17	O	1.397083	-0.889911	-0.513794
C18	C	1.206677	-0.607831	-0.467309
C19	C	1.089899	-0.607852	-0.467327
C20	C	1.040214	-0.527252	-0.539785
C21	C	0.930489	-0.527264	-0.539791
C22	C	0.920143	-0.688489	-0.394877
C23	C	1.029866	-0.688469	-0.394867
C24	C	1.458687	-0.935736	-0.446362
C25	C	1.449818	-1.076006	-0.437431
C26	C	1.753675	-0.607875	-0.467337
C27	C	1.870451	-0.607885	-0.467343
C28	C	1.479724	-0.607725	-0.741364
C29	C	1.479759	-0.607671	-0.858145
C30	C	1.500709	-0.278689	-0.488388
C31	C	1.509687	-0.138419	-0.497365
C32	C	1.417754	-0.526935	-0.918169
C33	C	1.417781	-0.526896	-1.027896
C34	C	1.541827	-0.688332	-1.017564
C35	C	1.541793	-0.688376	-0.907839
C36	C	1.479628	-0.607889	-0.194353
C37	C	1.479819	-0.607588	-0.077596
H38	H	0.890041	-0.461629	-0.598792
H39	H	0.871251	-0.754126	-0.335884
O40	O	1.078196	-0.766591	-0.324379
C41	C	1.146246	-0.694631	-0.261234
H42	H	1.119516	-0.595236	-0.261237
H43	H	1.144557	-0.740159	-0.177407
H44	H	1.229690	-0.690309	-0.293995
O45	O	1.098376	-0.448820	-0.610206
C46	C	1.030986	-0.377706	-0.674177
H47	H	0.953038	-0.373289	-0.631438
H48	H	1.069038	-0.278286	-0.691876
H49	H	1.016392	-0.424036	-0.750945
H50	H	1.567729	-1.084543	-0.555515
H51	H	1.391762	-1.129889	-0.379286
O52	O	1.357390	-0.448512	-0.870060
C53	C	1.302687	-0.377226	-0.946575
H54	H	1.295769	-0.428886	-1.021480
H55	H	1.220760	-0.363775	-0.915733
H56	H	1.347294	-0.281377	-0.964383
O57	O	1.357422	-0.448651	-1.086235
C58	C	1.284996	-0.520469	-1.145111
H59	H	1.272141	-0.619876	-1.105678
H60	H	1.207063	-0.474820	-1.149265
H61	H	1.317216	-0.524785	-1.227997
O62	O	1.602213	-0.766537	-1.065899
C63	C	1.674672	-0.694670	-1.133990
H64	H	1.687515	-0.595291	-1.107287
H65	H	1.752603	-0.740322	-1.132317
H66	H	1.642492	-0.690283	-1.217426
O67	O	1.602126	-0.766847	-0.849683
C68	C	1.656873	-0.838085	-0.917070
H69	H	1.663850	-0.786366	-0.998597
H70	H	1.738776	-0.851572	-0.884502
H71	H	1.612265	-0.933921	-0.922600
