data_functionalizedCrystal
_audit_creation_method	'MofGen! by Chris Wilmer'
_symmetry_space_group_name_H-M	'P1'
_symmetry_Int_Tables_number	1
_symmetry_cell_setting	triclinic
loop_
_symmetry_equiv_pos_as_xyz
  x,y,z
_cell_length_a	16.120484
_cell_length_b	13.897449
_cell_length_c	16.120256
_cell_angle_alpha	87.125877
_cell_angle_beta	95.616173
_cell_angle_gamma	87.074300
loop_
_atom_site_label
_atom_site_type_symbol
_atom_site_fract_x
_atom_site_fract_y
_atom_site_fract_z
Zn1	Zn	-0.356769	-1.424977	-0.489549
Zn2	Zn	-0.489455	-1.424856	-0.356858
Zn3	Zn	-0.349700	-1.272287	-0.349784
Zn4	Zn	-0.496500	-1.255016	-0.496571
O5	O	-0.423106	-1.344284	-0.423190
O6	O	-0.374380	-1.559941	-0.471969
O7	O	-0.465009	-1.411794	-0.238958
O8	O	-0.233673	-1.299820	-0.362425
O9	O	-0.471864	-1.559851	-0.374482
O10	O	-0.238866	-1.412001	-0.465109
O11	O	-0.362332	-1.299703	-0.233760
O12	O	-0.369163	-1.135016	-0.369234
O13	O	-0.483871	-1.270385	-0.612601
O14	O	-0.477016	-1.122327	-0.477077
O15	O	-0.381211	-1.395254	-0.607442
O16	O	-0.607355	-1.395047	-0.381291
O17	O	-0.612530	-1.270267	-0.483937
C18	C	-0.423088	-1.093673	-0.423150
C19	C	-0.423101	-0.986458	-0.423154
C20	C	-0.423103	-0.899388	-0.423165
C21	C	-0.423109	-0.790153	-0.423186
C22	C	-0.640271	-1.330795	-0.434162
C23	C	-0.733177	-1.325111	-0.438883
C24	C	-0.903277	-1.314738	-0.447521
C25	C	-0.942095	-1.374002	-0.398874
C26	C	-1.036744	-1.368230	-0.403680
C27	C	-0.808619	-1.320508	-0.442716
C28	C	-0.205094	-1.357850	-0.412195
C29	C	-0.112190	-1.363632	-0.407509
C30	C	-0.434115	-1.330906	-0.641197
C31	C	-0.438807	-1.325206	-0.734098
C32	C	-0.423121	-0.595874	-0.423221
C33	C	-0.423117	-0.703089	-0.423207
C34	C	-0.398619	-1.374012	-0.943027
C35	C	-0.447338	-1.314768	-0.904182
C36	C	-0.442590	-1.320577	-0.809538
C37	C	-0.403366	-1.368204	-1.037679
C38	C	-0.412079	-1.357669	-0.206029
C39	C	-0.407152	-1.363571	-0.113117
H40	H	-0.904243	-1.429073	-0.353616
H41	H	-0.353347	-1.429092	-0.905206
H42	H	-0.492609	-1.259679	-0.942006
H43	H	-0.941126	-1.259670	-0.492774
