data_functionalizedCrystal
_audit_creation_method	'MofGen! by Chris Wilmer'
_symmetry_space_group_name_H-M	'P1'
_symmetry_Int_Tables_number	1
_symmetry_cell_setting	triclinic
loop_
_symmetry_equiv_pos_as_xyz
  x,y,z
_cell_length_a	13.635800
_cell_length_b	10.992469
_cell_length_c	10.992410
_cell_angle_alpha	91.830594
_cell_angle_beta	108.764651
_cell_angle_gamma	108.765624
loop_
_atom_site_label
_atom_site_type_symbol
_atom_site_fract_x
_atom_site_fract_y
_atom_site_fract_z
V1	V	-2.057126	-0.177761	-0.400575
O2	O	-2.036188	0.008542	-0.392968
O3	O	-2.045918	-0.352470	-0.397817
O4	O	-2.045922	-0.175026	-0.575288
O5	O	-2.036183	-0.170130	-0.214269
V6	V	-2.295573	-0.155477	-0.378293
O7	O	-2.195027	-0.226642	-0.449451
O8	O	-2.382771	-0.106595	-0.329417
O9	O	-2.195178	0.019232	-0.381051
O10	O	-2.375210	-0.341780	-0.385900
O11	O	-2.375214	-0.163108	-0.564599
O12	O	-2.195173	-0.158211	-0.203581
V13	V	-1.557126	-0.177761	-0.400575
O14	O	-1.536188	0.008542	-0.392968
O15	O	-1.545918	-0.352470	-0.397817
O16	O	-1.545922	-0.175026	-0.575288
O17	O	-1.536183	-0.170130	-0.214269
V18	V	-1.795573	-0.155477	-0.378293
O19	O	-1.695027	-0.226642	-0.449451
O20	O	-1.882771	-0.106595	-0.329417
O21	O	-1.695178	0.019232	-0.381051
O22	O	-1.875210	-0.341780	-0.385900
O23	O	-1.875214	-0.163108	-0.564599
O24	O	-1.695173	-0.158211	-0.203581
C25	C	-1.971158	-0.395060	-0.391493
C26	C	-2.002724	-0.537887	-0.390403
C27	C	-1.971163	-0.168712	-0.617873
C28	C	-2.002730	-0.167632	-0.760701
C29	C	-1.903535	-0.584385	-0.382247
C30	C	-1.936462	-0.733022	-0.381616
C31	C	-2.135079	-0.764535	-0.515760
C32	C	-2.101516	-0.615889	-0.516930
C33	C	-2.039683	-0.577587	-0.271579
C34	C	-2.070052	-0.725808	-0.268700
C35	C	-1.936292	-0.157796	-0.955826
C36	C	-1.903517	-0.159451	-0.807342
C37	C	-2.101740	-0.294312	-0.837792
C38	C	-2.133897	-0.293192	-0.986359
C39	C	-2.072777	-0.047893	-0.948352
C40	C	-2.037422	-0.047293	-0.799339
C41	C	-2.101609	0.061816	-0.387371
C42	C	-2.059663	0.204641	-0.388470
C43	C	-1.471158	-0.395060	-0.391493
C44	C	-1.502724	-0.537887	-0.390403
C45	C	-2.101603	-0.164530	-0.160989
C46	C	-2.059655	-0.165603	-0.018159
C47	C	-1.436558	-0.733174	-0.381616
C48	C	-1.403515	-0.584530	-0.382241
C49	C	-1.538029	-0.576522	-0.270587
C50	C	-1.570148	-0.725066	-0.269318
C51	C	-1.635902	-0.763647	-0.514933
C52	C	-1.601373	-0.615134	-0.517533
C53	C	-1.471163	-0.168712	-0.617873
C54	C	-1.502730	-0.167632	-0.760701
C55	C	-1.601609	0.061816	-0.387371
C56	C	-1.559663	0.204641	-0.388470
C57	C	-1.601603	-0.164530	-0.160989
C58	C	-1.559655	-0.165603	-0.018159
C59	C	-1.436292	-0.157796	-0.955826
C60	C	-1.403517	-0.159451	-0.807342
C61	C	-1.601740	-0.294312	-0.837792
C62	C	-1.633897	-0.293192	-0.986359
C63	C	-1.572777	-0.047893	-0.948352
C64	C	-1.537422	-0.047293	-0.799339
H65	H	-1.878178	-0.752659	-0.290140
H66	H	-1.923824	-0.242371	-1.003809
H67	H	-1.514748	-0.742580	-0.174186
H68	H	-1.676263	-0.584926	-0.530915
Cl69	Cl	-1.563547	-0.578254	-0.654399
H70	H	-1.423647	-0.779595	-0.466698
Cl71	Cl	-1.774736	-0.827112	-0.524622
Cl72	Cl	-1.859274	-0.543302	-0.514085
Cl73	Cl	-1.288886	-0.018841	-0.724999
H74	H	-2.176928	-0.304874	-0.808988
Cl75	Cl	-1.926833	0.097397	-0.718527
Cl76	Cl	-1.359404	-0.544744	-0.514412
H77	H	-1.829288	-0.068362	-0.754011
H78	H	-2.108479	-0.045805	-0.766828
Cl79	Cl	-2.210942	-0.054995	-1.011410
H80	H	-1.377689	-0.066081	-0.974664
Cl81	Cl	-1.706175	-0.788192	-0.269025
Cl82	Cl	-1.710942	-0.054995	-1.011410
H83	H	-1.608479	-0.045805	-0.766828
Cl84	Cl	-1.347165	-0.764912	-0.240806
Cl85	Cl	-1.288737	-0.503553	-0.241313
Cl86	Cl	-1.717830	-0.310624	-0.793329
Cl87	Cl	-2.066421	-0.432261	-0.798250
H88	H	-2.225806	-0.806311	-0.525421
H89	H	-1.610844	-0.546287	-0.271969
Cl90	Cl	-1.631016	-0.840102	-0.654909
Cl91	Cl	-1.788372	-0.503190	-0.241762
H92	H	-1.724898	-0.304208	-1.028989
H93	H	-1.578860	-0.383659	-0.812178
H94	H	-1.467734	-0.522285	-0.176469
Cl95	Cl	-1.917011	-0.804523	-0.513467
H96	H	-2.078694	-0.592854	-0.606780
H97	H	-2.176524	-0.586514	-0.528115
Cl98	Cl	-1.493332	0.100630	-0.979801
Cl99	Cl	-2.125609	-0.839942	-0.653110
Cl100	Cl	-1.417038	-0.288376	-1.029898
H101	H	-1.874928	-0.245201	-0.782519
Cl102	Cl	-1.845789	-0.016067	-0.984693
Cl103	Cl	-1.934336	-0.493345	-0.124161
H104	H	-1.626117	-0.382320	-1.032620
H105	H	-2.013824	-0.744010	-0.174605
H106	H	-1.374928	-0.245201	-0.782519
Cl107	Cl	-1.993332	0.100630	-0.979801
Cl108	Cl	-2.204927	-0.790077	-0.264980
Cl109	Cl	-2.153690	-0.531968	-0.278962
Cl110	Cl	-2.121885	-0.430797	-1.057788
H111	H	-1.465794	0.046420	-0.746991
Cl112	Cl	-2.274387	-0.310173	-1.052179
