data_functionalizedCrystal
_audit_creation_method	'MofGen! by Chris Wilmer'
_symmetry_space_group_name_H-M	'P1'
_symmetry_Int_Tables_number	1
_symmetry_cell_setting	triclinic
loop_
_symmetry_equiv_pos_as_xyz
  x,y,z
_cell_length_a	13.339070
_cell_length_b	16.109301
_cell_length_c	14.586319
_cell_angle_alpha	90.005214
_cell_angle_beta	90.003986
_cell_angle_gamma	99.545387
loop_
_atom_site_label
_atom_site_type_symbol
_atom_site_fract_x
_atom_site_fract_y
_atom_site_fract_z
O1	O	-1.342144	-0.416774	-0.076285
O2	O	-1.047635	-0.362069	-0.076278
O3	O	-1.202980	-0.270259	-0.076272
O4	O	-1.186799	-0.508584	-0.076291
O5	O	-1.202969	-0.270254	0.076208
O6	O	-1.047624	-0.362065	0.076203
O7	O	-1.342133	-0.416769	0.076196
Cu8	Cu	-1.194878	-0.389417	0.090122
Cu9	Cu	-1.194890	-0.389422	-0.090204
O10	O	-1.186788	-0.508580	0.076190
C11	C	-1.009943	-0.352827	-0.000037
C12	C	-0.897651	-0.325282	-0.000034
C13	C	-1.379825	-0.426012	-0.000048
C14	C	-1.492117	-0.453556	-0.000057
C15	C	-0.532787	-0.539450	-0.000065
C16	C	-0.638291	-0.565332	-0.000070
C17	C	-0.703136	-0.505322	-0.000061
C18	C	-0.662467	-0.419426	-0.000046
C19	C	-0.556952	-0.393541	-0.000048
C20	C	-0.727301	-0.359413	-0.000044
C21	C	-0.686632	-0.273517	-0.000030
C22	C	-0.581127	-0.247637	-0.000030
C23	C	-0.516283	-0.307647	-0.000040
C24	C	-0.832816	-0.385297	-0.000043
C25	C	-0.856981	-0.239388	-0.000026
C26	C	-0.751477	-0.213506	-0.000020
C27	C	-1.202319	-0.239130	-0.000032
C28	C	-1.200354	-0.146381	-0.000030
C29	C	-1.187449	-0.539708	-0.000053
C30	C	-1.189414	-0.632457	-0.000060
N31	N	-1.194876	-0.389414	0.216954
C32	C	-1.287963	0.055662	-0.000047
C33	C	-1.286109	0.142810	-0.000054
C34	C	-1.101798	0.165494	-0.000046
C35	C	-1.103653	0.078347	-0.000045
C36	C	-1.196739	0.023433	-0.000041
C37	C	-1.193029	0.197729	-0.000049
C38	C	-1.191018	0.292219	-0.000058
C39	C	-1.198750	-0.071064	-0.000035
N40	N	-1.194900	-0.389420	-0.217036
C41	C	-1.263685	-0.348785	0.451963
C42	C	-1.263688	-0.348783	0.547944
C43	C	-1.126083	-0.430050	0.547948
C44	C	-1.126076	-0.430046	0.451969
C45	C	-1.194883	-0.389415	0.403978
C46	C	-1.194893	-0.389418	0.595939
C47	C	-1.194896	-0.389417	0.700006
C48	C	-1.194879	-0.389415	0.299905
H49	H	-0.865918	-0.455234	-0.000051
F50	F	-1.006554	0.044046	-0.000046
F51	F	-1.002734	0.223945	-0.000052
H52	H	-0.671396	-0.635268	-0.000089
H53	H	-1.070044	-0.463132	0.412897
H54	H	-1.319711	-0.315699	0.412891
H55	H	-1.360393	0.169046	-0.000061
F56	F	-1.052860	-0.473293	0.599029
F57	F	-0.815423	-0.532870	-0.000065
F58	F	-0.463770	-0.603307	-0.000087
F59	F	-0.537847	-0.156218	-0.000041
H60	H	-1.363760	0.010952	-0.000045
H61	H	-0.430371	-0.286578	-0.000035
F62	F	-0.708180	-0.122091	-0.000005
H63	H	-1.319712	-0.315697	0.587010
H64	H	-0.909778	-0.190522	-0.000022
