data_functionalizedCrystal
_audit_creation_method	'MofGen! by Chris Wilmer'
_symmetry_space_group_name_H-M	'P1'
_symmetry_Int_Tables_number	1
_symmetry_cell_setting	triclinic
loop_
_symmetry_equiv_pos_as_xyz
  x,y,z
_cell_length_a	18.215407
_cell_length_b	15.297510
_cell_length_c	18.215399
_cell_angle_alpha	80.352494
_cell_angle_beta	89.986109
_cell_angle_gamma	80.294249
loop_
_atom_site_label
_atom_site_type_symbol
_atom_site_fract_x
_atom_site_fract_y
_atom_site_fract_z
Zn1	Zn	1.074319	0.359211	-0.466757
Zn2	Zn	1.574319	0.859211	0.033243
Zn3	Zn	1.052925	0.510087	-0.364985
Zn4	Zn	1.552925	1.010087	0.135015
Zn5	Zn	0.951254	0.359239	-0.343714
Zn6	Zn	1.451254	0.859239	0.156286
Zn7	Zn	0.929918	0.510022	-0.488007
Zn8	Zn	1.429918	1.010022	0.011993
O9	O	1.002104	0.434640	-0.415866
O10	O	1.502104	0.934640	0.084134
O11	O	1.174463	0.379240	-0.453265
O12	O	1.674463	0.879240	0.046735
O13	O	1.039414	0.490115	-0.259185
O14	O	1.539414	0.990115	0.240815
O15	O	0.985461	0.232989	-0.342241
O16	O	1.485461	0.732989	0.157759
O17	O	1.158745	0.490088	-0.378494
O18	O	1.658745	0.990088	0.121506
O19	O	1.075876	0.232969	-0.432640
O20	O	1.575876	0.732969	0.067360
O21	O	0.964717	0.379288	-0.243557
O22	O	1.464717	0.879288	0.256443
O23	O	0.845441	0.379225	-0.362847
O24	O	1.345441	0.879225	0.137153
O25	O	0.949097	0.489978	-0.588167
O26	O	1.449097	0.989978	-0.088167
O27	O	0.829766	0.490005	-0.468858
O28	O	1.329766	0.990005	0.031142
O29	O	1.055188	0.379177	-0.572555
O30	O	1.555188	0.879177	-0.072555
O31	O	1.018726	0.636324	-0.399099
O32	O	1.518726	1.136324	0.100901
O33	O	0.928353	0.636276	-0.489483
O34	O	1.428353	1.136276	0.010517
C35	C	0.810902	0.434612	-0.415851
C36	C	1.310902	0.934612	0.084149
C37	C	0.729101	0.434622	-0.415865
C38	C	1.229101	0.934622	0.084135
C39	C	0.968923	0.669034	-0.448921
C40	C	1.468923	1.169034	0.051079
C41	C	0.954795	0.769309	-0.463087
C42	C	1.454795	1.269309	0.036913
C43	C	0.455885	0.492417	-0.471015
C44	C	0.955885	0.992417	0.028985
C45	C	0.532745	0.492410	-0.471010
C46	C	1.032745	0.992410	0.028990
C47	C	0.549061	0.376882	-0.360733
C48	C	1.049061	0.876882	0.139267
C49	C	0.472202	0.376895	-0.360735
C50	C	0.972202	0.876895	0.139265
C51	C	0.425616	0.434661	-0.415880
C52	C	0.925616	0.934661	0.084120
C53	C	0.579335	0.434641	-0.415873
C54	C	1.079335	0.934641	0.084127
C55	C	0.662670	0.434632	-0.415868
C56	C	1.162670	0.934632	0.084132
C57	C	0.342276	0.434671	-0.415885
C58	C	0.842276	0.934671	0.084115
C59	C	1.103344	1.051941	-0.314914
C60	C	1.603344	1.551941	0.185086
C61	C	1.116617	0.957728	-0.301600
C62	C	1.616617	1.457728	0.198400
C63	C	1.076163	0.910618	-0.341971
C64	C	1.576163	1.410618	0.158029
C65	C	1.022433	0.957732	-0.395657
C66	C	1.522433	1.457732	0.104343
C67	C	1.009154	1.051954	-0.408968
C68	C	1.509154	1.551954	0.091032
C69	C	0.981973	0.910632	-0.436025
C70	C	1.481973	1.410632	0.063975
C71	C	0.928243	0.957745	-0.489711
C72	C	1.428243	1.457745	0.010289
C73	C	0.914967	1.051959	-0.503019
C74	C	1.414967	1.551959	-0.003019
C75	C	0.955421	1.099068	-0.462649
C76	C	1.455421	1.599068	0.037351
C77	C	0.995252	0.816409	-0.422714
C78	C	1.495252	1.316409	0.077286
C79	C	0.901062	0.816423	-0.516768
C80	C	1.401062	1.316423	-0.016768
C81	C	0.887789	0.910636	-0.530082
C82	C	1.387789	1.410636	-0.030082
C83	C	1.194053	0.434668	-0.415882
C84	C	1.694053	0.934668	0.084118
C85	C	1.275850	0.434680	-0.415888
C86	C	1.775850	0.934680	0.084112
C87	C	1.035428	1.199330	-0.382705
C88	C	1.535428	1.699330	0.117295
C89	C	1.049611	1.099054	-0.368595
C90	C	1.549611	1.599054	0.131405
C91	C	1.002149	0.434567	-0.607809
C92	C	1.502149	0.934567	-0.107809
C93	C	1.002168	0.434537	-0.689603
C94	C	1.502168	0.934537	-0.189603
C95	C	0.963318	0.376790	-0.869656
C96	C	1.463318	0.876790	-0.369656
C97	C	0.963334	0.376772	-0.946512
C98	C	1.463334	0.876772	-0.446512
C99	C	1.041121	0.492176	-0.962774
C100	C	1.541121	0.992176	-0.462774
C101	C	1.041101	0.492198	-0.885920
C102	C	1.541101	0.992198	-0.385920
C103	C	1.002201	0.434500	-0.839362
C104	C	1.502201	0.934500	-0.339362
C105	C	1.002237	0.434460	-0.993072
C106	C	1.502237	0.934460	-0.493072
C107	C	1.002254	0.434440	-1.076403
C108	C	1.502254	0.934440	-0.576403
C109	C	1.002183	0.434520	-0.756026
C110	C	1.502183	0.934520	-0.256026
C111	C	1.002111	0.434646	-0.224661
C112	C	1.502111	0.934646	0.275339
C113	C	1.002270	0.434423	-0.142831
C114	C	1.502270	0.934423	0.357169
H115	H	0.417956	0.539455	-0.515917
H116	H	0.917956	1.039455	-0.015917
H117	H	0.931644	0.329809	-0.831750
H118	H	1.431644	0.829809	-0.331750
H119	H	0.931670	0.329779	-0.971173
H120	H	1.431670	0.829779	-0.471173
H121	H	1.072765	0.539196	-0.861255
H122	H	1.572765	1.039196	-0.361255
F123	F	0.564955	0.553884	-0.529691
F124	F	1.064955	1.053884	-0.029691
F125	F	0.598648	0.315403	-0.302049
F126	F	1.098648	0.815403	0.197951
H127	H	0.447558	0.329861	-0.315834
H128	H	0.947558	0.829861	0.184166
F129	F	1.052434	0.766278	-0.365579
F130	F	1.552434	1.266278	0.134421
H131	H	1.160363	0.919371	-0.257889
H132	H	1.660363	1.419371	0.242111
F133	F	0.941063	1.199341	-0.476581
F134	F	1.441063	1.699341	0.023419
H135	H	1.086973	0.833906	-0.331127
H136	H	1.586973	1.333906	0.168873
F137	F	0.857779	1.102098	-0.560154
F138	F	1.357779	1.602098	-0.060154
F139	F	1.082520	0.553577	-1.012330
F140	F	1.582520	1.053577	-0.512330
F141	F	0.830606	0.960788	-0.587217
F142	F	1.330606	1.460788	-0.087217
H143	H	1.136271	1.090306	-0.282045
H144	H	1.636271	1.590306	0.217955
H145	H	0.868119	0.778067	-0.549640
H146	H	1.368119	1.278067	-0.049640
