data_functionalizedCrystal
_audit_creation_method	'MofGen! by Chris Wilmer'
_symmetry_space_group_name_H-M	'P1'
_symmetry_Int_Tables_number	1
_symmetry_cell_setting	triclinic
loop_
_symmetry_equiv_pos_as_xyz
  x,y,z
_cell_length_a	10.654550
_cell_length_b	10.654554
_cell_length_c	9.130313
_cell_angle_alpha	90.000385
_cell_angle_beta	90.000110
_cell_angle_gamma	84.485824
loop_
_atom_site_label
_atom_site_type_symbol
_atom_site_fract_x
_atom_site_fract_y
_atom_site_fract_z
O1	O	-0.176420	-1.667831	-0.121801
O2	O	-0.193220	-1.302353	-0.121802
O3	O	-0.002081	-1.493495	-0.121796
O4	O	-0.367559	-1.476689	-0.121807
O5	O	-0.002086	-1.493493	0.121803
O6	O	-0.193225	-1.302351	0.121797
O7	O	-0.176425	-1.667828	0.121798
Cu8	Cu	-0.184826	-1.485089	0.144040
Cu9	Cu	-0.184820	-1.485092	-0.144044
O10	O	-0.367564	-1.476686	0.121792
C11	C	-0.191988	-1.255554	-0.000003
C12	C	-0.188294	-1.116111	-0.000003
C13	C	0.044714	-1.492260	0.000002
C14	C	0.184158	-1.488568	-0.000003
C15	C	-0.177657	-1.714627	-0.000004
C16	C	-0.181351	-1.854070	-0.000013
C17	C	-0.414360	-1.477922	-0.000009
C18	C	-0.553803	-1.481613	-0.000013
C19	C	0.263642	-1.601109	0.000002
C20	C	0.394663	-1.597633	-0.000009
C21	C	0.366703	-1.369064	-0.000022
C22	C	0.235684	-1.372541	-0.000023
C23	C	0.279785	-1.733072	0.000016
C24	C	0.410806	-1.729595	0.000006
N25	N	-0.184829	-1.485097	0.346663
C26	C	-0.297367	-0.905602	-0.000010
C27	C	-0.300839	-1.036624	-0.000010
C28	C	-0.072269	-1.064571	-0.000011
C29	C	-0.068799	-0.933552	-0.000021
C30	C	-0.429330	-0.889469	-0.000003
C31	C	-0.432802	-1.020490	-0.000003
N32	N	-0.184806	-1.485095	-0.346666
C33	C	-0.100222	-1.569756	0.423317
C34	C	-0.100207	-1.569753	0.576654
C35	C	-0.269418	-1.400426	0.576668
C36	C	-0.269426	-1.400424	0.423334
C37	C	-0.002533	-1.667519	0.423311
C38	C	-0.002518	-1.667516	0.576648
H39	H	0.170972	-1.280899	-0.000047
H40	H	-0.484394	-1.049850	0.101953
Br41	Br	-0.384230	-1.285506	0.319299
Br42	Br	0.220383	-1.803080	0.175335
H43	H	0.456451	-1.769477	-0.105173
Br44	Br	0.230842	-1.819102	-0.169880
Br45	Br	0.080473	-1.172445	-0.000025
H46	H	0.452563	-1.779316	0.101950
Br47	Br	0.088657	-0.863618	-0.000092
H48	H	-0.338293	-1.331487	0.639111
H49	H	-0.479057	-0.847724	-0.101946
H50	H	-0.469201	-0.843817	0.105173
H51	H	-0.474825	-1.056124	-0.105186
Br52	Br	0.436640	-1.211607	-0.000057
H53	H	0.094000	-1.646076	0.381693
H54	H	-0.033123	-1.758703	0.375752
Br55	Br	0.149513	-1.616644	0.655916
Br56	Br	-0.038369	-1.828371	0.646025
