data_functionalizedCrystal
_audit_creation_method	'MofGen! by Chris Wilmer'
_symmetry_space_group_name_H-M	'P1'
_symmetry_Int_Tables_number	1
_symmetry_cell_setting	triclinic
loop_
_symmetry_equiv_pos_as_xyz
  x,y,z
_cell_length_a	15.944493
_cell_length_b	14.421503
_cell_length_c	15.944551
_cell_angle_alpha	89.996660
_cell_angle_beta	83.486891
_cell_angle_gamma	90.007064
loop_
_atom_site_label
_atom_site_type_symbol
_atom_site_fract_x
_atom_site_fract_y
_atom_site_fract_z
O1	O	1.114560	0.077101	0.108089
O2	O	1.614560	0.577101	0.608089
O3	O	0.870003	0.077106	0.121496
O4	O	1.370003	0.577106	0.621496
O5	O	0.998960	0.077095	-0.007484
O6	O	1.498960	0.577095	0.492516
O7	O	0.985603	0.077112	0.237068
O8	O	1.485603	0.577112	0.737068
O9	O	0.998938	-0.077128	-0.007465
O10	O	1.498938	0.422872	0.492535
O11	O	0.869982	-0.077117	0.121515
O12	O	1.369982	0.422883	0.621515
O13	O	1.114538	-0.077122	0.108108
O14	O	1.614538	0.422878	0.608108
Cu15	Cu	0.992258	-0.091201	0.114813
Cu16	Cu	1.492258	0.408799	0.614813
Cu17	Cu	0.992283	0.091186	0.114790
Cu18	Cu	1.492283	0.591186	0.614790
O19	O	0.985582	-0.077111	0.237087
O20	O	1.485582	0.422889	0.737087
C21	C	0.838698	-0.000005	0.120957
C22	C	1.338698	0.499995	0.620957
C23	C	0.745449	-0.000003	0.119314
C24	C	1.245449	0.499997	0.619314
C25	C	0.509689	0.000002	0.195235
C26	C	1.009689	0.500002	0.695235
C27	C	0.459120	-0.076045	0.154303
C28	C	0.959120	0.423955	0.654303
C29	C	0.574728	-0.000005	0.116270
C30	C	1.074728	0.499995	0.616270
C31	C	0.459146	0.076008	0.154266
C32	C	0.959146	0.576008	0.654266
C33	C	0.409819	-0.000003	0.113336
C34	C	0.909819	0.499997	0.613336
C35	C	0.525388	-0.076115	0.075360
C36	C	1.025388	0.423885	0.575360
C37	C	0.525417	0.076005	0.075334
C38	C	1.025417	0.576005	0.575334
C39	C	0.474880	-0.000060	0.034345
C40	C	0.974880	0.499940	0.534345
C41	C	0.669728	-0.000007	0.117963
C42	C	1.169728	0.499993	0.617963
C43	C	0.314821	-0.000008	0.111637
C44	C	0.814821	0.499992	0.611637
N45	N	0.992246	-0.219483	0.114828
N46	N	1.492246	0.280517	0.614828
C47	C	0.932607	-0.469131	0.174442
C48	C	1.432607	0.030869	0.674442
C49	C	1.008509	-0.530934	0.190733
C50	C	1.508509	-0.030934	0.690733
C51	C	0.992267	-0.408644	0.114808
C52	C	1.492267	0.091356	0.614808
C53	C	0.916384	-0.530935	0.098537
C54	C	1.416384	-0.030935	0.598537
C55	C	0.992280	-0.591366	0.114791
C56	C	1.492280	-0.091366	0.614791
C57	C	1.068207	-0.469086	0.131138
C58	C	1.568207	0.030914	0.631138
C59	C	0.976033	-0.469082	0.038908
C60	C	1.476033	0.030918	0.538908
C61	C	1.051990	-0.530857	0.055167
C62	C	1.551990	-0.030857	0.555167
C63	C	0.992258	-0.303383	0.114821
C64	C	1.492258	0.196617	0.614821
C65	C	0.992297	-0.696625	0.114778
C66	C	1.492297	-0.196625	0.614778
C67	C	1.145844	-0.000009	0.108646
C68	C	1.645844	0.499991	0.608646
C69	C	1.239092	-0.000004	0.110289
C70	C	1.739092	0.499996	0.610289
C71	C	0.998395	-0.000017	-0.038768
C72	C	1.498395	0.499983	0.461232
C73	C	0.996732	-0.000017	-0.132014
C74	C	1.496732	0.499983	0.367986
N75	N	0.992302	0.219467	0.114768
N76	N	1.492302	0.719467	0.614768
C77	C	0.912826	-0.000003	-0.346853
C78	C	1.412826	0.499997	0.153147
C79	C	0.951779	-0.076045	-0.407869
C80	C	1.451779	0.423955	0.092131
C81	C	0.993725	-0.000010	-0.302739
C82	C	1.493725	0.499990	0.197261
C83	C	0.951819	0.076007	-0.407872
C84	C	1.451819	0.576007	0.092128
C85	C	0.990814	0.000001	-0.467651
C86	C	1.490814	0.500001	0.032349
C87	C	1.032700	-0.076115	-0.362527
C88	C	1.532700	0.423885	0.137473
C89	C	1.032729	0.076006	-0.362523
C90	C	1.532729	0.576006	0.137477
C91	C	1.071741	-0.000055	-0.423521
C92	C	1.571741	0.499945	0.076479
C93	C	0.995399	-0.000017	-0.207737
C94	C	1.495399	0.499983	0.292263
C95	C	0.989146	0.000002	-0.562652
C96	C	1.489146	0.500002	-0.062652
C97	C	0.986147	0.000003	0.268372
C98	C	1.486147	0.500003	0.768372
C99	C	0.987809	0.000009	0.361617
C100	C	1.487809	0.500009	0.861617
H101	H	0.459415	-0.000109	-0.033726
H102	H	0.959415	0.499891	0.466274
H103	H	0.962267	-0.441892	-0.025251
H104	H	1.462267	0.058108	0.474749
H105	H	0.525313	-0.000064	0.263254
H106	H	1.025313	0.499936	0.763254
Br107	Br	0.809419	-0.576222	0.075609
Br108	Br	1.309419	-0.076222	0.575609
H109	H	1.138950	-0.000099	-0.456694
H110	H	1.638950	0.499901	0.043306
Br111	Br	1.089673	-0.183382	-0.329214
Br112	Br	1.589673	0.316618	0.170786
Br113	Br	1.089729	0.183160	-0.328994
Br114	Br	1.589729	0.683160	0.171006
H115	H	0.554372	0.140295	0.042003
H116	H	1.054372	0.640295	0.542003
H117	H	1.132399	-0.442033	0.144970
H118	H	1.632399	0.057967	0.644970
H119	H	0.845675	-0.000077	-0.313532
H120	H	1.345675	0.499923	0.186468
Br121	Br	0.894779	0.183148	-0.441362
Br122	Br	1.394779	0.683148	0.058638
H123	H	1.022251	-0.558102	0.254913
H124	H	1.522251	-0.058102	0.754913
Br125	Br	1.136178	-0.575753	-0.028904
Br126	Br	1.636178	-0.075753	0.471096
H127	H	0.917552	-0.140331	-0.427962
H128	H	1.417552	0.359669	0.072038
Br129	Br	0.573414	-0.183381	0.019824
Br130	Br	1.073414	0.316619	0.519824
Br131	Br	0.410926	0.183149	0.209859
Br132	Br	0.910926	0.683149	0.709859
H133	H	0.430174	-0.140331	0.187659
H134	H	0.930174	0.359669	0.687659
Br135	Br	0.848600	-0.423953	0.258558
Br136	Br	1.348600	0.076047	0.758558
