data_functionalizedCrystal
_audit_creation_method	'MofGen! by Chris Wilmer'
_symmetry_space_group_name_H-M	'P1'
_symmetry_Int_Tables_number	1
_symmetry_cell_setting	triclinic
loop_
_symmetry_equiv_pos_as_xyz
  x,y,z
_cell_length_a	19.121063
_cell_length_b	16.120530
_cell_length_c	16.120297
_cell_angle_alpha	89.871860
_cell_angle_beta	84.820568
_cell_angle_gamma	89.687057
loop_
_atom_site_label
_atom_site_type_symbol
_atom_site_fract_x
_atom_site_fract_y
_atom_site_fract_z
Zn1	Zn	-0.355748	1.228532	0.551587
Zn2	Zn	0.144252	1.728532	1.051587
Zn3	Zn	-0.467532	1.229542	0.417878
Zn4	Zn	0.032468	1.729542	0.917878
Zn5	Zn	-0.343883	1.097153	0.404937
Zn6	Zn	0.156117	1.597153	0.904937
Zn7	Zn	-0.466885	1.083532	0.549816
Zn8	Zn	0.033115	1.583532	1.049816
O9	O	-0.408512	1.159690	0.481054
O10	O	0.091488	1.659690	0.981054
O11	O	-0.375813	1.344754	0.540007
O12	O	0.124187	1.844754	1.040007
O13	O	-0.446434	1.218103	0.299571
O14	O	0.053566	1.718103	0.799571
O15	O	-0.247198	1.119859	0.419716
O16	O	0.252802	1.619859	0.919716
O17	O	-0.457940	1.345496	0.441771
O18	O	0.042060	1.845496	0.941771
O19	O	-0.255916	1.216382	0.527458
O20	O	0.244084	1.716382	1.027458
O21	O	-0.355590	1.120838	0.290063
O22	O	0.144410	1.620838	0.790063
O23	O	-0.354963	0.979258	0.417999
O24	O	0.145037	1.479258	0.917999
O25	O	-0.456838	1.096644	0.666641
O26	O	0.043162	1.596644	1.166641
O27	O	-0.445332	0.969251	0.524441
O28	O	0.054668	1.469251	1.024441
O29	O	-0.375186	1.203175	0.667942
O30	O	0.124814	1.703175	1.167942
O31	O	-0.565705	1.204895	0.440054
O32	O	-0.065705	1.704895	0.940054
O33	O	-0.565230	1.097623	0.536989
O34	O	-0.065230	1.597623	1.036989
C35	C	-0.398790	0.944155	0.469624
C36	C	0.101210	1.444155	0.969624
C37	C	-0.394649	0.851946	0.464754
C38	C	0.105351	1.351946	0.964754
C39	C	-0.387072	0.683119	0.455870
C40	C	0.112928	1.183119	0.955870
C41	C	-0.430006	0.637096	0.506302
C42	C	0.069994	1.137096	1.006302
C43	C	-0.425790	0.543155	0.501358
C44	C	0.074210	1.043155	1.001358
C45	C	-0.391287	0.777068	0.460812
C46	C	0.108713	1.277068	0.960812
C47	C	-0.590946	1.149912	0.489753
C48	C	-0.090946	1.649912	0.989753
C49	C	-0.668997	1.145804	0.493506
C50	C	-0.168997	1.645804	0.993506
C51	C	-0.705893	1.199763	0.444847
C52	C	-0.205893	1.699763	0.944847
C53	C	-0.779230	1.195904	0.448382
C54	C	-0.279230	1.695904	0.948382
C55	C	-0.815670	1.138080	0.500573
C56	C	-0.315670	1.638080	1.000573
C57	C	-0.778769	1.084118	0.549237
C58	C	-0.278769	1.584118	1.049237
C59	C	-0.705433	1.087982	0.545706
C60	C	-0.205433	1.587982	1.045706
C61	C	-1.037085	1.123621	0.513761
C62	C	-0.537085	1.623621	1.013761
C63	C	-1.110426	1.119760	0.517287
C64	C	-0.610426	1.619760	1.017287
C65	C	-1.110882	1.231547	0.416433
C66	C	-0.610882	1.731547	0.916433
C67	C	-1.037545	1.235403	0.412903
C68	C	-0.537545	1.735403	0.912903
C69	C	-1.000650	1.181443	0.461570
C70	C	-0.500650	1.681443	0.961570
C71	C	-0.890632	1.134132	0.504185
C72	C	-0.390632	1.634132	1.004185
C73	C	-0.925690	1.185396	0.457962
C74	C	-0.425690	1.685396	0.957962
C75	C	-0.225367	1.169527	0.472341
C76	C	0.274633	1.669527	0.972341
C77	C	-0.147322	1.173720	0.468628
C78	C	0.352678	1.673720	0.968628
C79	C	-0.417263	1.148278	0.698367
C80	C	0.082737	1.648278	1.198367
C81	C	-0.420993	1.143414	0.790973
C82	C	0.079007	1.643414	1.290973
C83	C	-0.418272	1.376067	0.492530
C84	C	0.081728	1.876067	0.992530
C85	C	-0.422431	1.468274	0.497420
C86	C	0.077569	1.968274	0.997420
C87	C	-0.399746	1.171108	0.264587
C88	C	0.100254	1.671108	0.764587
C89	C	-0.395826	1.176143	0.171981
C90	C	0.104174	1.676143	0.671981
C91	C	-0.427785	1.134506	0.960523
C92	C	0.072215	1.634506	1.460523
C93	C	-0.389036	1.185049	1.002436
C94	C	0.110964	1.685049	1.502436
C95	C	-0.392815	1.180092	1.096780
C96	C	0.107185	1.680092	1.596780
C97	C	-0.424006	1.139461	0.866171
C98	C	0.075994	1.639461	1.366171
H99	H	-0.676228	1.246846	0.402345
H100	H	-0.176228	1.746846	0.902345
C101	C	-0.483958	0.679171	0.569621
C102	C	0.016042	1.179171	1.069621
H103	H	-0.479762	0.737706	0.564666
H104	H	0.020238	1.237706	1.064666
H105	H	-0.475410	0.662651	0.624414
H106	H	0.024590	1.162651	1.124414
H107	H	-0.529998	0.663126	0.558825
H108	H	-0.029998	1.163126	1.058825
C109	C	-0.476436	1.071029	1.007755
C110	C	0.023564	1.571029	1.507755
H111	H	-0.500251	1.039964	0.969053
H112	H	-0.000251	1.539964	1.469053
H113	H	-0.509790	1.099377	1.044851
H114	H	-0.009790	1.599377	1.544851
H115	H	-0.449276	1.034574	1.038499
H116	H	0.050724	1.534574	1.538499
H117	H	-0.347152	0.651970	0.408986
H118	H	0.152848	1.151970	0.908986
H119	H	-0.809268	1.239843	0.408758
H120	H	-0.309268	1.739843	0.908758
C121	C	-0.340391	1.248541	0.955204
C122	C	0.159609	1.748541	1.455204
H123	H	-0.316575	1.279599	0.993910
H124	H	0.183425	1.779599	1.493910
H125	H	-0.367552	1.284988	0.924462
H126	H	0.132448	1.784988	1.424462
H127	H	-0.307027	1.220199	0.918108
H128	H	0.192973	1.720199	1.418108
C129	C	-0.997467	1.299013	0.355499
C130	C	-0.497467	1.799013	0.855499
H131	H	-1.029945	1.330603	0.327030
H132	H	-0.529945	1.830603	0.827030
H133	H	-0.966001	1.270724	0.316115
H134	H	-0.466001	1.770724	0.816115
H135	H	-0.971736	1.334969	0.387944
H136	H	-0.471736	1.834969	0.887944
C137	C	-0.818850	1.020512	0.606643
C138	C	-0.318850	1.520512	1.106643
H139	H	-0.867810	1.025932	0.601771
H140	H	-0.367810	1.525932	1.101771
H141	H	-0.809604	1.030299	0.662695
H142	H	-0.309604	1.530299	1.162695
H143	H	-0.803868	0.966055	0.590864
H144	H	-0.303868	1.466055	1.090864
C145	C	-1.151468	1.290902	0.362910
C146	C	-0.651468	1.790902	0.862910
H147	H	-1.200363	1.280327	0.372491
H148	H	-0.700363	1.780327	0.872491
H149	H	-1.136678	1.282382	0.305702
H150	H	-0.636678	1.782382	0.805702
H151	H	-1.142408	1.346625	0.377532
H152	H	-0.642408	1.846625	0.877532
H153	H	-1.140094	1.072682	0.559802
H154	H	-0.640094	1.572682	1.059802
H155	H	-1.007051	1.079684	0.553387
H156	H	-0.507051	1.579684	1.053387
H157	H	-0.675393	1.044044	0.585330
H158	H	-0.175393	1.544044	1.085330
H159	H	-0.896019	1.232479	0.415471
H160	H	-0.396019	1.732479	0.915471
H161	H	-0.920309	1.087051	0.546677
H162	H	-0.420309	1.587051	1.046677
