data_functionalizedCrystal
_audit_creation_method	'MofGen! by Chris Wilmer'
_symmetry_space_group_name_H-M	'P1'
_symmetry_Int_Tables_number	1
_symmetry_cell_setting	triclinic
loop_
_symmetry_equiv_pos_as_xyz
  x,y,z
_cell_length_a	14.519731
_cell_length_b	14.519709
_cell_length_c	9.730223
_cell_angle_alpha	89.997715
_cell_angle_beta	89.999699
_cell_angle_gamma	83.684499
loop_
_atom_site_label
_atom_site_type_symbol
_atom_site_fract_x
_atom_site_fract_y
_atom_site_fract_z
O1	O	1.223850	0.120981	-0.114296
O2	O	1.723850	0.620981	0.385704
O3	O	0.955376	0.135197	-0.114298
O4	O	1.455376	0.635197	0.385702
O5	O	1.096731	-0.006149	-0.114285
O6	O	1.596731	0.493851	0.385715
O7	O	1.082495	0.262327	-0.114310
O8	O	1.582495	0.762327	0.385690
O9	O	1.096730	-0.006146	0.114295
O10	O	1.596730	0.493854	0.614295
O11	O	0.955374	0.135200	0.114282
O12	O	1.455374	0.635200	0.614282
O13	O	1.223848	0.120984	0.114284
O14	O	1.723848	0.620984	0.614284
Zn15	Zn	1.089611	0.128093	0.150575
Zn16	Zn	1.589611	0.628093	0.650575
Zn17	Zn	1.089613	0.128088	-0.150589
Zn18	Zn	1.589613	0.628088	0.349411
O19	O	1.082493	0.262330	0.114270
O20	O	1.582493	0.762330	0.614270
C21	C	0.921016	0.134532	-0.000009
C22	C	1.421016	0.634532	0.499991
C23	C	0.818635	0.132536	-0.000009
C24	C	1.318635	0.632536	0.499991
C25	C	1.096067	-0.040507	0.000006
C26	C	1.596067	0.459493	0.500006
C27	C	1.094079	-0.142889	0.000006
C28	C	1.594079	0.357111	0.500006
C29	C	0.735491	0.130915	-0.000015
C30	C	1.235491	0.630915	0.499985
C31	C	0.631182	0.128888	-0.000015
C32	C	1.131182	0.628888	0.499985
C33	C	0.548043	0.127280	-0.000015
C34	C	1.048043	0.627280	0.499985
C35	C	0.443728	0.125253	-0.000017
C36	C	0.943728	0.625253	0.499983
C37	C	1.086759	-0.517785	-0.000029
C38	C	1.586759	-0.017785	0.499971
C39	C	1.088792	-0.413477	-0.000019
C40	C	1.588792	0.086523	0.499981
C41	C	1.090419	-0.330340	-0.000010
C42	C	1.590419	0.169660	0.499990
C43	C	1.092452	-0.226025	-0.000002
C44	C	1.592452	0.273975	0.499998
C45	C	1.258209	0.121649	-0.000009
C46	C	1.758209	0.621649	0.499991
C47	C	1.360589	0.123645	-0.000017
C48	C	1.860589	0.623645	0.499983
C49	C	1.083157	0.296688	-0.000023
C50	C	1.583157	0.796688	0.499977
C51	C	1.085146	0.399070	-0.000033
C52	C	1.585146	0.899070	0.499967
N53	N	1.089616	0.128096	0.356111
N54	N	1.589616	0.628096	0.856111
N55	N	1.089615	0.128078	-0.356125
N56	N	1.589615	0.628078	0.143875
C57	C	1.152224	0.065529	0.428043
C58	C	1.652224	0.565529	0.928043
C59	C	1.152222	0.065518	0.571926
C60	C	1.652222	0.565518	1.071926
C61	C	1.027000	0.190648	0.571932
C62	C	1.527000	0.690648	1.071932
C63	C	1.026999	0.190654	0.428052
C64	C	1.526999	0.690654	0.928052
C65	C	1.224523	-0.006712	0.428041
C66	C	1.724523	0.493288	0.928041
C67	C	1.224521	-0.006723	0.571924
C68	C	1.724521	0.493277	1.071924
H69	H	0.976019	0.241581	0.630522
H70	H	1.476019	0.741581	1.130522
H71	H	1.209277	-0.077491	0.388993
H72	H	1.709277	0.422509	0.888993
H73	H	1.291325	0.015283	0.383413
H74	H	1.791325	0.515283	0.883413
H75	H	1.202586	-0.073556	0.616545
H76	H	1.702586	0.426444	1.116545
H77	H	1.295282	0.008584	0.610974
H78	H	1.795282	0.508584	1.110974
H79	H	0.976011	0.241593	0.369486
H80	H	1.476011	0.741593	0.869486
