data_functionalizedCrystal
_audit_creation_method	'MofGen! by Chris Wilmer'
_symmetry_space_group_name_H-M	'P1'
_symmetry_Int_Tables_number	1
_symmetry_cell_setting	triclinic
loop_
_symmetry_equiv_pos_as_xyz
  x,y,z
_cell_length_a	42.784839
_cell_length_b	42.784841
_cell_length_c	42.789818
_cell_angle_alpha	90.006688
_cell_angle_beta	59.988228
_cell_angle_gamma	119.999863
loop_
_atom_site_label
_atom_site_type_symbol
_atom_site_fract_x
_atom_site_fract_y
_atom_site_fract_z
O1	O	0.275697	-0.214412	-0.009300
O2	O	0.211690	-0.168962	0.009253
O3	O	0.275704	-0.168959	-0.054749
O4	O	0.211682	-0.214414	0.054702
O5	O	0.223720	-0.220944	-0.054749
O6	O	0.159706	-0.220946	0.009253
O7	O	0.223712	-0.266396	-0.009299
Cu8	Cu	0.186962	-0.248417	-0.000023
Cu9	Cu	0.248440	-0.186940	-0.000024
O10	O	0.159698	-0.266398	0.054702
C11	C	0.051015	-0.022779	0.028112
C12	C	0.013135	-0.041762	0.028375
C13	C	0.051012	-0.079379	0.028115
C14	C	0.013133	-0.098276	0.028379
C15	C	-0.005584	-0.079378	0.028112
C16	C	0.069646	-0.041763	0.028379
C17	C	0.152944	0.113708	0.017863
C18	C	0.173783	0.152360	0.014965
C19	C	0.155899	0.171750	0.013508
C20	C	0.178497	0.213661	0.010359
C21	C	0.117174	0.152485	0.014953
C22	C	0.096335	0.113835	0.017857
C23	C	0.114222	0.094446	0.019312
C24	C	-0.131817	-0.113937	0.017859
C25	C	-0.167570	-0.131751	0.014961
C26	C	-0.185505	-0.169025	0.013506
C27	C	-0.224266	-0.188341	0.010358
C28	C	-0.167688	-0.188486	0.014954
C29	C	-0.131941	-0.170675	0.017859
C30	C	-0.114006	-0.133396	0.019309
C31	C	0.152935	-0.113944	0.017877
C32	C	0.173775	-0.131757	0.014977
C33	C	0.155889	-0.169033	0.013523
C34	C	0.178484	-0.188349	0.010377
C35	C	0.117167	-0.188491	0.014967
C36	C	0.096330	-0.170676	0.017865
C37	C	0.114216	-0.133402	0.019323
C38	C	0.091624	0.052536	0.022456
C39	C	0.073612	0.019130	0.024964
C40	C	0.073607	-0.098694	0.024971
C41	C	0.091618	-0.114089	0.022466
C42	C	-0.044344	-0.098691	0.024964
C43	C	-0.075242	-0.114085	0.022456
O44	O	-0.327854	-0.266388	-0.009322
O45	O	-0.236956	-0.220936	0.009228
O46	O	-0.236938	-0.220937	-0.054773
O47	O	-0.327872	-0.266387	0.054679
O48	O	-0.236936	-0.168952	-0.054776
O49	O	-0.236954	-0.168951	0.009225
O50	O	-0.327852	-0.214403	-0.009325
Cu51	Cu	-0.282403	-0.186930	-0.000050
Cu52	Cu	-0.282405	-0.248408	-0.000046
O53	O	-0.327870	-0.214402	0.054676
C54	C	-0.005490	-0.079141	-0.305032
C55	C	0.013235	-0.041525	-0.324017
C56	C	0.051122	-0.079144	-0.361628
C57	C	0.069760	-0.041528	-0.380527
C58	C	0.051124	-0.022544	-0.361632
C59	C	0.013232	-0.098039	-0.324012
C60	C	-0.131767	-0.170815	-0.168543
C61	C	-0.167532	-0.188754	-0.129892
C62	C	-0.185471	-0.169412	-0.110505
C63	C	-0.224244	-0.188858	-0.068594
C64	C	-0.167645	-0.132132	-0.129772
C65	C	-0.131887	-0.114199	-0.168422
C66	C	-0.113948	-0.133542	-0.187808
C67	C	0.095947	0.113944	-0.396201
C68	C	0.116664	0.152596	-0.414018
C69	C	0.155403	0.171986	-0.451291
C70	C	0.177873	0.213895	-0.470610
C71	C	0.173422	0.152719	-0.470749
C72	C	0.152701	0.114067	-0.452936
C73	C	0.113962	0.094682	-0.415658
C74	C	0.095933	-0.170827	-0.396180
C75	C	0.116651	-0.188767	-0.413990
C76	C	0.155390	-0.169428	-0.451265
C77	C	0.177857	-0.188877	-0.470578
C78	C	0.173411	-0.132150	-0.470726
C79	C	0.152693	-0.114212	-0.452914
C80	C	0.113950	-0.133555	-0.415641
C81	C	-0.075171	-0.114091	-0.229717
C82	C	-0.044264	-0.098588	-0.263123
C83	C	0.073585	-0.098594	-0.380939
C84	C	0.091490	-0.114100	-0.396331
C85	C	0.073591	0.019365	-0.380947
C86	C	0.091498	0.052771	-0.396344
C87	C	0.440764	-0.356211	-0.028193
C88	C	0.422047	-0.393826	-0.028458
C89	C	0.384164	-0.356212	-0.028190
C90	C	0.365532	-0.393827	-0.028455
C91	C	0.384166	-0.412809	-0.028193
C92	C	0.422045	-0.337315	-0.028456
C93	C	0.567004	-0.264531	-0.017949
C94	C	0.602759	-0.246591	-0.015053
C95	C	0.620695	-0.265930	-0.013600
C96	C	0.659458	-0.246482	-0.010453
C97	C	0.602876	-0.303210	-0.015048
C98	C	0.567128	-0.321145	-0.017949
C99	C	0.549192	-0.301804	-0.019399
C100	C	0.339360	-0.549295	-0.017951
C101	C	0.318648	-0.587946	-0.015055
C102	C	0.279918	-0.607338	-0.013597
C103	C	0.257454	-0.649247	-0.010452
C104	C	0.261902	-0.588073	-0.015041
C105	C	0.282617	-0.549421	-0.017944
C106	C	0.321347	-0.530035	-0.019397
C107	C	0.339348	-0.264536	-0.017936
C108	C	0.318631	-0.246598	-0.015032
C109	C	0.279901	-0.265939	-0.013576
C110	C	0.257435	-0.246492	-0.010426
C111	C	0.261887	-0.303217	-0.015022
C112	C	0.282604	-0.321153	-0.017924
C113	C	0.321338	-0.301808	-0.019385
C114	C	0.510426	-0.321257	-0.022541
C115	C	0.479527	-0.336761	-0.025048
C116	C	0.361701	-0.336764	-0.025041
C117	C	0.343797	-0.321261	-0.022532
C118	C	0.361706	-0.454718	-0.025047
C119	C	0.343804	-0.488124	-0.022541
O120	O	0.223730	0.336934	-0.009323
O121	O	0.159724	0.227482	0.009226
O122	O	0.223741	0.291480	-0.054774
O123	O	0.159713	0.272936	0.054678
O124	O	0.275723	0.291478	-0.054771
O125	O	0.211705	0.227480	0.009230
O126	O	0.275712	0.336933	-0.009320
Cu127	Cu	0.248455	0.282206	-0.000045
Cu128	Cu	0.186981	0.282208	-0.000049
O129	O	0.211695	0.272935	0.054681
O130	O	0.223590	-0.266418	-0.496629
O131	O	0.159587	-0.220957	-0.451187
O132	O	0.223582	-0.220961	-0.451181
O133	O	0.159596	-0.266414	-0.496635
O134	O	0.275582	-0.168979	-0.503168
O135	O	0.211588	-0.168976	-0.503175
O136	O	0.275590	-0.214437	-0.548616
Cu137	Cu	0.248337	-0.186960	-0.530642
Cu138	Cu	0.186841	-0.248434	-0.469161
O139	O	0.211596	-0.214433	-0.548622
O140	O	0.275628	0.337168	-0.548656
O141	O	0.211607	0.227714	-0.503203
O142	O	0.275606	0.291708	-0.503198
O143	O	0.211630	0.273173	-0.548661
O144	O	0.223609	0.291711	-0.451217
O145	O	0.159610	0.227716	-0.451222
O146	O	0.223631	0.337170	-0.496675
Cu147	Cu	0.186873	0.282443	-0.469202
Cu148	Cu	0.248365	0.282440	-0.530676
O149	O	0.159633	0.273176	-0.496680
C150	C	-0.005421	-0.412584	0.361555
C151	C	0.013293	-0.393602	0.380453
C152	C	0.051190	-0.355984	0.304958
C153	C	0.069818	-0.337088	0.323942
C154	C	0.051177	-0.355986	0.361557
C155	C	0.013306	-0.393600	0.323940
C156	C	-0.131667	-0.549070	0.396113
C157	C	-0.167425	-0.587722	0.413927
C158	C	-0.185368	-0.607113	0.451201
C159	C	-0.224134	-0.649024	0.470515
C160	C	-0.167553	-0.587849	0.470662
C161	C	-0.131802	-0.549198	0.452850
C162	C	-0.113859	-0.529809	0.415574
C163	C	0.095964	-0.321429	0.453235
C164	C	0.116672	-0.303615	0.471176
C165	C	0.155405	-0.266342	0.451838
C166	C	0.177864	-0.247026	0.471284
C167	C	0.173428	-0.246880	0.414559
C168	C	0.152717	-0.264690	0.396622
C169	C	0.113984	-0.301969	0.415964
C170	C	0.096028	-0.321417	0.168472
C171	C	0.116751	-0.303603	0.129819
C172	C	0.155485	-0.266328	0.110431
C173	C	0.177958	-0.247011	0.068520
C174	C	0.173495	-0.246870	0.129695
C175	C	0.152771	-0.264686	0.168346
C176	C	0.114035	-0.301959	0.187733
C177	C	-0.075089	-0.487900	0.396262
C178	C	-0.044187	-0.454493	0.380868
C179	C	0.073659	-0.336669	0.263050
C180	C	0.091568	-0.321273	0.229644
C181	C	0.073633	-0.336674	0.381006
C182	C	0.091531	-0.321280	0.396510
C183	C	0.384467	-0.079129	-0.361603
C184	C	0.422351	-0.041514	-0.380500
C185	C	0.384455	-0.079131	-0.305005
C186	C	0.422339	-0.041515	-0.323988
C187	C	0.441066	-0.022531	-0.361603
C188	C	0.365827	-0.098027	-0.323988
C189	C	0.282550	-0.170806	-0.396165
C190	C	0.261716	-0.188746	-0.413979
C191	C	0.279609	-0.169405	-0.451254
C192	C	0.257018	-0.188851	-0.470569
C193	C	0.318340	-0.132125	-0.470714
C194	C	0.339173	-0.114190	-0.452901
C195	C	0.321276	-0.133533	-0.415625
C196	C	0.567324	0.113957	-0.453279
C197	C	0.603082	0.152609	-0.471218
C198	C	0.621013	0.172000	-0.451879
C199	C	0.659779	0.213909	-0.471324
C200	C	0.603186	0.152733	-0.414600
C201	C	0.567434	0.114081	-0.396664
C202	C	0.549503	0.094696	-0.416007
C203	C	0.282501	-0.170814	-0.168520
C204	C	0.261652	-0.188753	-0.129867
C205	C	0.279534	-0.169414	-0.110478
C206	C	0.256929	-0.188863	-0.068567
C207	C	0.318260	-0.132135	-0.129741
C208	C	0.339106	-0.114197	-0.168392
C209	C	0.321225	-0.133542	-0.187780
C210	C	0.343868	-0.114081	-0.396311
C211	C	0.361876	-0.098578	-0.380917
C212	C	0.361851	-0.098581	-0.263097
C213	C	0.343833	-0.114086	-0.229691
C214	C	0.479832	0.019378	-0.381051
C215	C	0.510734	0.052784	-0.396554
C216	C	-0.615931	-0.356205	0.361532
C217	C	-0.634568	-0.393820	0.380430
C218	C	-0.559318	-0.356205	0.304935
C219	C	-0.578042	-0.393821	0.323919
C220	C	-0.615931	-0.412803	0.361534
C221	C	-0.578041	-0.337308	0.323917
C222	C	-0.660746	-0.264525	0.396089
C223	C	-0.681462	-0.246585	0.413903
C224	C	-0.720201	-0.265924	0.451177
C225	C	-0.742669	-0.246476	0.470491
C226	C	-0.738221	-0.303204	0.470639
C227	C	-0.717502	-0.321140	0.452827
C228	C	-0.678763	-0.301798	0.415551
C229	C	-0.717881	-0.549290	0.453215
C230	C	-0.738723	-0.587942	0.471155
C231	C	-0.720836	-0.607333	0.451818
C232	C	-0.743434	-0.649243	0.471265
C233	C	-0.682101	-0.588068	0.414538
C234	C	-0.661255	-0.549416	0.396601
C235	C	-0.679152	-0.530030	0.415943
C236	C	-0.433042	-0.264527	0.168448
C237	C	-0.397281	-0.246589	0.129795
C238	C	-0.379341	-0.265930	0.110406
C239	C	-0.340567	-0.246483	0.068496
C240	C	-0.397166	-0.303208	0.129671
C241	C	-0.432927	-0.321144	0.168323
C242	C	-0.450860	-0.301799	0.187710
C243	C	-0.656301	-0.321251	0.396239
C244	C	-0.638395	-0.336755	0.380845
C245	C	-0.520544	-0.336757	0.263026
C246	C	-0.489637	-0.321253	0.229620
C247	C	-0.638532	-0.454713	0.380984
C248	C	-0.656548	-0.488119	0.396488
C249	C	0.440833	0.310313	-0.361617
C250	C	0.422119	0.310576	-0.380515
C251	C	0.384225	0.310322	-0.305023
C252	C	0.365597	0.310585	-0.324007
C253	C	0.384237	0.310315	-0.361621
C254	C	0.422108	0.310583	-0.324004
C255	C	0.567074	0.300059	-0.396169
C256	C	0.602830	0.297158	-0.413980
C257	C	0.620772	0.295699	-0.451254
C258	C	0.659536	0.292547	-0.470566
C259	C	0.602957	0.297143	-0.470715
C260	C	0.567208	0.300048	-0.452905
C261	C	0.549266	0.301506	-0.415631
C262	C	0.339448	0.300057	-0.453299
C263	C	0.318741	0.297158	-0.471240
C264	C	0.280009	0.295705	-0.451904
C265	C	0.257550	0.292556	-0.471350
C266	C	0.261988	0.297156	-0.414626
C267	C	0.282698	0.300062	-0.396688
C268	C	0.321430	0.301510	-0.416029
C269	C	0.339390	0.300093	-0.168539
C270	C	0.318668	0.297196	-0.129887
C271	C	0.279936	0.295745	-0.110500
C272	C	0.257464	0.292603	-0.068590
C273	C	0.261926	0.297188	-0.129765
C274	C	0.282648	0.300083	-0.168415
C275	C	0.321384	0.301539	-0.187801
C276	C	0.510498	0.304653	-0.396320
C277	C	0.479597	0.307163	-0.380928
C278	C	0.361757	0.307181	-0.263115
C279	C	0.343849	0.304679	-0.229710
C280	C	0.361781	0.307166	-0.381070
C281	C	0.343883	0.304657	-0.396575
O282	O	-0.327744	-0.772297	0.548560
O283	O	-0.236831	-0.662845	0.503109
O284	O	-0.236828	-0.726843	0.503105
O285	O	-0.327747	-0.708299	0.548563
O286	O	-0.236817	-0.726842	0.451122
O287	O	-0.236820	-0.662844	0.451126
O288	O	-0.327733	-0.772296	0.496576
Cu289	Cu	-0.282276	-0.717570	0.469104
Cu290	Cu	-0.282288	-0.717571	0.530581
O291	O	-0.327736	-0.708298	0.496580
C292	C	0.050954	0.254099	0.361528
C293	C	0.013072	0.253839	0.380422
C294	C	0.050966	0.254092	0.304930
C295	C	0.013084	0.253832	0.323910
C296	C	-0.005641	0.254101	0.361524
C297	C	0.069594	0.253830	0.323914
C298	C	0.152869	0.264347	0.396093
C299	C	0.173702	0.267246	0.413908
C300	C	0.155810	0.268706	0.451181
C301	C	0.178401	0.271856	0.470497
C302	C	0.117081	0.267263	0.470640
C303	C	0.096248	0.264360	0.452826
C304	C	0.114144	0.262902	0.415551
C305	C	-0.131893	0.264364	0.453192
C306	C	-0.167649	0.267265	0.471129
C307	C	-0.185579	0.268720	0.451790
C308	C	-0.224344	0.271870	0.471232
C309	C	-0.167753	0.267268	0.414511
C310	C	-0.132004	0.264361	0.396578
C311	C	-0.114074	0.262911	0.415922
C312	C	0.152916	0.264319	0.168449
C313	C	0.173764	0.267216	0.129797
C314	C	0.155883	0.268669	0.110407
C315	C	0.178487	0.271812	0.068497
C316	C	0.117158	0.267228	0.129668
C317	C	0.096314	0.264333	0.168318
C318	C	0.114194	0.262875	0.187707
C319	C	0.091553	0.259756	0.396237
C320	C	0.073545	0.257248	0.380842
C321	C	0.073570	0.257233	0.263022
C322	C	0.091587	0.259736	0.229617
C323	C	-0.044406	0.257252	0.380970
C324	C	-0.075306	0.259762	0.396471
H325	H	0.205304	-0.115911	0.013801
H326	H	-0.666789	-0.216232	0.398054
H327	H	0.267975	-0.186560	-0.365814
H328	H	0.204963	-0.216528	0.398815
H329	H	0.335049	-0.409067	-0.028878
H330	H	-0.181926	-0.603404	0.398079
H331	H	-0.117302	-0.533515	0.468698
H332	H	0.617485	-0.318952	-0.013867
H333	H	-0.117218	-0.083585	0.019042
H334	H	-0.182073	-0.115903	0.013781
H335	H	0.102600	0.268412	0.113878
H336	H	0.370932	0.301281	-0.184322
H337	H	0.204956	-0.116403	-0.501078
H338	H	0.437715	-0.409065	-0.028885
H339	H	-0.002532	-0.129182	0.028804
H340	H	0.333318	-0.603629	-0.013877
H341	H	0.438023	-0.026274	-0.411406
H342	H	0.102603	-0.218844	0.013783
H343	H	0.064404	0.098163	-0.365850
H344	H	0.267937	-0.186566	-0.184304
H345	H	0.167502	-0.083593	0.019063
H346	H	0.167479	0.263134	0.184234
H347	H	-0.002444	-0.128948	-0.308771
H348	H	0.205235	0.268422	0.398062
H349	H	0.102515	0.268450	0.500988
H350	H	0.437770	0.311008	-0.308763
H351	H	0.064715	0.263183	0.468672
H352	H	0.552470	0.301247	-0.365819
H353	H	-0.002600	0.253414	0.411328
H354	H	-0.182168	-0.603639	0.501012
H355	H	0.100083	0.253411	0.308674
H356	H	0.332906	-0.116381	-0.501063
H357	H	-0.667533	-0.603856	0.398795
H358	H	0.064426	-0.351781	0.468988
H359	H	0.552404	-0.248779	-0.019131
H360	H	0.064782	0.263158	0.183999
H361	H	-0.732454	-0.533507	0.468967
H362	H	0.230182	-0.219098	-0.398132
H363	H	-0.002530	-0.026520	0.028802
H364	H	-0.117439	-0.186523	0.019040
H365	H	0.064798	-0.186524	0.019045
H366	H	0.267981	0.301256	-0.184098
H367	H	0.230349	-0.318965	-0.013835
H368	H	-0.117166	-0.186569	-0.184324
H369	H	-0.665057	-0.409059	0.411337
H370	H	0.100125	-0.026522	0.028807
H371	H	0.230368	-0.603862	-0.013858
H372	H	0.167512	0.097925	0.019049
H373	H	-0.002386	-0.408843	0.411361
H374	H	-0.629716	-0.533733	0.366249
H375	H	0.230453	0.295978	-0.398883
H376	H	0.552625	-0.351497	-0.019128
H377	H	0.333299	-0.216247	-0.013852
H378	H	0.102615	0.168275	0.013770
H379	H	0.205313	0.168042	0.013788
H380	H	0.552707	0.301225	-0.468754
H381	H	0.370707	-0.083838	-0.468748
H382	H	0.333333	0.296020	-0.114203
H383	H	0.617593	0.168293	-0.501569
H384	H	0.064804	0.098151	0.019035
H385	H	-0.770262	-0.603625	0.501507
H386	H	0.335335	-0.128931	-0.308746
H387	H	-0.769761	-0.318946	0.500988
H388	H	-0.117062	-0.533287	0.365762
H389	H	-0.629203	-0.248773	0.365738
H390	H	-0.117380	-0.083848	-0.184108
H391	H	0.230116	-0.219104	-0.114184
H392	H	0.617327	0.295976	-0.398130
H393	H	0.552729	0.098175	-0.469032
H394	H	0.552923	0.098397	-0.366313
H395	H	0.205298	0.268394	0.114116
H396	H	0.167368	-0.083859	-0.468763
H397	H	0.102085	-0.319449	0.114136
H398	H	0.370896	-0.533512	-0.019136
H399	H	0.204962	0.168506	-0.501100
H400	H	0.100251	-0.026290	-0.411432
H401	H	-0.732176	-0.351492	0.468675
H402	H	-0.447437	-0.351497	0.184006
H403	H	0.064387	-0.186580	-0.365830
H404	H	0.101991	0.168280	-0.398172
H405	H	0.167391	-0.248841	0.366271
H406	H	0.370986	0.301238	-0.469050
H407	H	-0.382557	-0.318956	0.113883
H408	H	-0.182042	-0.219106	-0.114207
H409	H	-0.182255	-0.116389	-0.113985
H410	H	0.617261	-0.216239	-0.013873
H411	H	0.101974	-0.219120	-0.398142
H412	H	0.267947	-0.533739	-0.019121
H413	H	-0.182296	-0.218838	0.013775
H414	H	-0.002441	-0.026288	-0.308779
H415	H	0.370638	-0.083844	-0.184074
H416	H	0.437710	-0.306409	-0.028878
H417	H	-0.382777	-0.216240	0.114109
H418	H	-0.002576	0.253406	0.308667
H419	H	0.335112	0.311009	-0.308766
H420	H	-0.562370	-0.409060	0.308678
H421	H	-0.182357	0.268446	0.398767
H422	H	0.167372	0.098382	-0.468781
H423	H	0.370885	-0.248783	-0.019121
H424	H	0.267935	-0.351506	-0.019101
H425	H	-0.117297	0.263184	0.468945
H426	H	0.100302	-0.306181	0.308700
H427	H	0.617790	0.168520	-0.398856
H428	H	0.437795	0.311001	-0.411422
H429	H	0.617570	0.295957	-0.501064
H430	H	0.167437	-0.248839	0.184029
H431	H	-0.002359	-0.408840	0.308702
H432	H	0.064483	-0.351765	0.184257
H433	H	0.101995	-0.319464	0.501528
H434	H	0.205035	-0.216517	0.113906
H435	H	0.437997	-0.026275	-0.308744
H436	H	0.332818	-0.116387	-0.113951
H437	H	0.167443	0.263159	0.365743
H438	H	0.333416	0.295975	-0.501591
H439	H	-0.562392	-0.306411	0.308667
H440	H	-0.447643	-0.248774	0.184231
H441	H	0.268024	0.301244	-0.366338
H442	H	0.230386	0.296004	-0.113977
H443	H	-0.182159	0.268448	0.501480
H444	H	-0.117494	0.263178	0.366227
