data_functionalizedCrystal
_audit_creation_method	'MofGen! by Chris Wilmer'
_symmetry_space_group_name_H-M	'P1'
_symmetry_Int_Tables_number	1
_symmetry_cell_setting	triclinic
loop_
_symmetry_equiv_pos_as_xyz
  x,y,z
_cell_length_a	19.288840
_cell_length_b	12.811415
_cell_length_c	18.366186
_cell_angle_alpha	84.562925
_cell_angle_beta	89.983729
_cell_angle_gamma	83.586086
loop_
_atom_site_label
_atom_site_type_symbol
_atom_site_fract_x
_atom_site_fract_y
_atom_site_fract_z
O1	O	0.922014	0.130809	-0.069307
O2	O	1.422014	0.630809	0.430693
O3	O	0.719838	0.148499	-0.070450
O4	O	1.219838	0.648499	0.429550
O5	O	0.826011	-0.013164	-0.059786
O6	O	1.326011	0.486836	0.440214
O7	O	0.815841	0.292471	-0.079972
O8	O	1.315841	0.792471	0.420028
O9	O	0.825993	-0.013172	0.061314
O10	O	1.325993	0.486828	0.561314
O11	O	0.719820	0.148491	0.050650
O12	O	1.219820	0.648491	0.550650
O13	O	0.921996	0.130801	0.051793
O14	O	1.421996	0.630801	0.551793
Zn15	Zn	0.820905	0.139645	0.070448
Zn16	Zn	1.320905	0.639645	0.570448
Zn17	Zn	0.820929	0.139655	-0.089106
Zn18	Zn	1.320929	0.639655	0.410894
O19	O	0.815823	0.292463	0.041128
O20	O	1.315823	0.792463	0.541128
C21	C	0.693950	0.147930	-0.009860
C22	C	1.193950	0.647930	0.490140
C23	C	0.616837	0.146234	-0.009738
C24	C	1.116837	0.646234	0.490262
C25	C	0.580639	0.145424	-0.075697
C26	C	1.080639	0.645424	0.424303
C27	C	0.508184	0.143819	-0.075600
C28	C	1.008184	0.643819	0.424400
C29	C	0.471932	0.143004	-0.009539
C30	C	0.971932	0.643004	0.490461
C31	C	0.508138	0.143820	0.056429
C32	C	1.008138	0.643820	0.556429
C33	C	0.580590	0.145435	0.056330
C34	C	1.080590	0.645435	0.556330
C35	C	0.362278	0.078964	0.045252
C36	C	0.862278	0.578964	0.545252
C37	C	0.289828	0.077342	0.045350
C38	C	0.789828	0.577342	0.545350
C39	C	0.248463	0.138026	-0.009229
C40	C	0.748463	0.638026	0.490771
C41	C	0.279560	0.200319	-0.063916
C42	C	0.779560	0.700319	0.436084
C43	C	0.352012	0.201934	-0.064016
C44	C	0.852012	0.701934	0.435984
C45	C	0.393369	0.141253	-0.009423
C46	C	0.893369	0.641253	0.490577
C47	C	0.133702	0.135477	-0.075088
C48	C	0.633702	0.635477	0.424912
C49	C	0.061245	0.133879	-0.074988
C50	C	0.561245	0.633879	0.425012
C51	C	0.061200	0.133869	0.057044
C52	C	0.561200	0.633869	0.557044
C53	C	0.133655	0.135478	0.056942
C54	C	0.633655	0.635478	0.556942
C55	C	0.169902	0.136277	-0.009126
C56	C	0.669902	0.636277	0.490874
C57	C	0.825432	-0.052269	0.003346
C58	C	1.325432	0.447731	0.503346
C59	C	0.823724	-0.168780	0.011037
C60	C	1.323724	0.331220	0.511037
C61	C	0.820522	-0.387694	-0.106549
C62	C	1.320522	0.112306	0.393451
C63	C	0.818917	-0.497166	-0.099326
C64	C	1.318917	0.002834	0.400674
C65	C	0.818905	-0.497196	0.032706
C66	C	1.318905	0.002804	0.532706
C67	C	0.820510	-0.387724	0.025482
C68	C	1.320510	0.112276	0.525482
C69	C	0.821319	-0.332977	-0.044147
C70	C	1.321319	0.167023	0.455853
C71	C	0.822929	-0.223505	-0.051369
C72	C	1.322929	0.276495	0.448631
C73	C	0.822911	-0.223535	0.080661
C74	C	1.322911	0.276465	0.580661
C75	C	0.821307	-0.333007	0.087884
C76	C	1.321307	0.166993	0.587884
C77	C	0.947884	0.131369	-0.008800
C78	C	1.447884	0.631369	0.491200
C79	C	1.024997	0.133065	-0.008926
C80	C	1.524997	0.633065	0.491074
C81	C	0.816402	0.331569	-0.022005
C82	C	1.316402	0.831569	0.477995
C83	C	0.818110	0.448079	-0.029701
C84	C	1.318110	0.948079	0.470299
N85	N	0.820894	0.139637	0.179340
N86	N	1.320894	0.639637	0.679340
N87	N	0.820946	0.139654	-0.197997
N88	N	1.320946	0.639654	0.302003
C89	C	0.867923	0.068088	0.222160
C90	C	1.367923	0.568088	0.722160
C91	C	0.867927	0.068083	0.298389
C92	C	1.367927	0.568083	0.798389
C93	C	0.820909	0.139645	0.331792
C94	C	1.320909	0.639645	0.831792
C95	C	0.773871	0.211200	0.288962
C96	C	1.273871	0.711200	0.788962
C97	C	0.773864	0.211196	0.212736
C98	C	1.273864	0.711196	0.712736
C99	C	0.812086	0.235280	0.446237
C100	C	1.312086	0.735280	0.946237
C101	C	0.812099	0.235286	0.522461
C102	C	1.312099	0.735286	1.022461
C103	C	0.820929	0.139659	0.566899
C104	C	1.320929	0.639659	1.066899
C105	C	0.829762	0.044021	0.535103
C106	C	1.329762	0.544021	1.035103
C107	C	0.829754	0.044017	0.458877
C108	C	1.329754	0.544017	0.958877
C109	C	0.820912	0.139658	0.414446
C110	C	1.320912	0.639658	0.914446
C111	C	0.867965	0.068098	0.692375
C112	C	1.367965	0.568098	1.192375
C113	C	0.867965	0.068092	0.768605
C114	C	1.367965	0.568092	1.268605
C115	C	0.773912	0.211219	0.759176
C116	C	1.273912	0.711219	1.259176
C117	C	0.773910	0.211216	0.682949
C118	C	1.273910	0.711216	1.182949
C119	C	0.820940	0.139657	0.649553
C120	C	1.320940	0.639657	1.149553
H121	H	0.245882	0.249738	-0.108357
H122	H	0.745882	0.749738	0.391643
H123	H	0.264515	0.026614	0.089876
H124	H	0.764515	0.526614	0.589876
H125	H	0.377328	0.252657	-0.108542
H126	H	0.877328	0.752657	0.391458
C127	C	0.620413	0.146320	0.128887
C128	C	1.120413	0.646320	0.628887
H129	H	0.668754	0.147403	0.119365
H130	H	1.168754	0.647403	0.619365
H131	H	0.613655	0.084863	0.160071
H132	H	1.113655	0.584863	0.660071
H133	H	0.603404	0.207258	0.151983
H134	H	1.103404	0.707258	0.651983
H135	H	0.610147	0.146075	-0.129495
H136	H	1.110147	0.646075	0.370505
H137	H	0.820645	-0.377596	0.144574
H138	H	1.320645	0.122404	0.644574
C139	C	0.818005	-0.557422	0.109291
C140	C	1.318005	-0.057422	0.609291
H141	H	0.818704	-0.509157	0.145424
H142	H	1.318704	-0.009157	0.645424
H143	H	0.857830	-0.608337	0.115390
H144	H	1.357830	-0.108337	0.615390
H145	H	0.776914	-0.591915	0.114310
H146	H	1.276914	-0.091915	0.614310
H147	H	0.804883	0.313157	0.410061
H148	H	1.304883	0.813157	0.910061
H149	H	0.804911	0.313159	0.548344
H150	H	1.304911	0.813159	1.048344
H151	H	0.163128	0.136131	0.110654
H152	H	0.663128	0.636131	0.610654
C153	C	0.722138	0.289912	0.165628
C154	C	1.222138	0.789912	0.665628
H155	H	0.728868	0.279659	0.115447
H156	H	1.228868	0.779659	0.615447
H157	H	0.729884	0.359931	0.173491
H158	H	1.229884	0.859931	0.673491
H159	H	0.675749	0.278695	0.178876
H160	H	1.175749	0.778695	0.678876
C161	C	0.407775	0.012210	0.105291
C162	C	0.907775	0.512210	0.605291
H163	H	0.455378	0.022100	0.097405
H164	H	0.955378	0.522100	0.597405
H165	H	0.401949	-0.060196	0.103707
H166	H	0.901949	0.439804	0.603707
H167	H	0.394073	0.033563	0.151805
H168	H	0.894073	0.533563	0.651805
C169	C	0.468358	0.142938	-0.148159
C170	C	0.968358	0.642938	0.351841
H171	H	0.500322	0.143644	-0.187520
H172	H	1.000322	0.643644	0.312480
H173	H	0.434969	0.203503	-0.154903
H174	H	0.934969	0.703503	0.345097
H175	H	0.445221	0.081108	-0.146822
H176	H	0.945221	0.581108	0.353178
C177	C	0.821419	-0.327467	-0.183133
C178	C	1.321419	0.172533	0.316867
H179	H	0.822494	-0.254434	-0.178497
H180	H	1.322494	0.245566	0.321503
H181	H	0.780706	-0.337199	-0.209614
H182	H	1.280706	0.162801	0.290386
H183	H	0.861622	-0.353603	-0.208534
H184	H	1.361622	0.146397	0.291466
H185	H	0.836944	-0.033854	0.432991
H186	H	1.336944	0.466146	0.932991
C187	C	0.919646	-0.010635	0.185429
C188	C	1.419646	0.489365	0.685429
H189	H	0.947651	-0.053255	0.221854
H190	H	1.447651	0.446745	0.721854
H191	H	0.948663	0.027000	0.153189
H192	H	1.448663	0.527000	0.653189
H193	H	0.894528	-0.054235	0.158591
H194	H	1.394528	0.445765	0.658591
H195	H	0.735617	0.269482	0.648082
H196	H	1.235617	0.769482	1.148082
H197	H	0.735588	0.269466	0.316164
H198	H	1.235588	0.769466	0.816164
H199	H	0.163214	0.136139	-0.128885
H200	H	0.663214	0.636139	0.371115
H201	H	0.836952	-0.033848	0.571283
H202	H	1.336952	0.466152	1.071283
C203	C	0.919662	-0.010618	0.345503
C204	C	1.419662	0.489382	0.845503
H205	H	0.912927	-0.000368	0.395684
H206	H	1.412927	0.499632	0.895684
H207	H	0.966046	0.000602	0.332250
H208	H	1.466046	0.500602	0.832250
H209	H	0.911919	-0.080647	0.337648
H210	H	1.411919	0.419353	0.837648
C211	C	0.021428	0.132982	-0.147547
C212	C	0.521428	0.632982	0.352453
H213	H	0.053395	0.133678	-0.186905
H214	H	0.553395	0.633678	0.313095
H215	H	-0.011962	0.193545	-0.154302
H216	H	0.488038	0.693545	0.345698
H217	H	-0.001706	0.071150	-0.146203
H218	H	0.498294	0.571150	0.353797
H219	H	0.031684	0.133211	0.110832
H220	H	0.531684	0.633211	0.610832
H221	H	0.906259	0.009823	0.803470
H222	H	1.406259	0.509823	1.303470
H223	H	0.906258	0.009827	0.665183
H224	H	1.406258	0.509827	1.165183
C225	C	0.468256	0.143002	0.129090
C226	C	0.968256	0.643002	0.629090
H227	H	0.419920	0.141938	0.119702
H228	H	0.919920	0.641938	0.619702
H229	H	0.475009	0.204484	0.152119
H230	H	0.975009	0.704484	0.652119
H231	H	0.485228	0.082089	0.160273
H232	H	0.985228	0.582089	0.660273
H233	H	0.823563	-0.178974	0.131473
H234	H	1.323563	0.321026	0.631473
C235	C	0.823820	-0.163280	-0.127956
C236	C	1.323820	0.336720	0.372044
H237	H	0.824896	-0.090246	-0.123322
H238	H	1.324896	0.409754	0.376678
H239	H	0.783103	-0.173013	-0.154430
H240	H	1.283103	0.326987	0.345570
H241	H	0.864020	-0.189418	-0.153360
H242	H	1.364020	0.310582	0.346640
C243	C	0.818053	-0.557354	-0.167967
C244	C	1.318053	-0.057354	0.332033
H245	H	0.818773	-0.509068	-0.210467
H246	H	1.318773	-0.009068	0.289533
H247	H	0.776976	-0.591867	-0.168435
H248	H	1.276976	-0.091867	0.331565
H249	H	0.857892	-0.608252	-0.167353
H250	H	1.357892	-0.108252	0.332647
H251	H	0.735627	0.269482	0.786373
H252	H	1.235627	0.769482	1.286373
