data_functionalizedCrystal
_audit_creation_method	'MofGen! by Chris Wilmer'
_symmetry_space_group_name_H-M	'P1'
_symmetry_Int_Tables_number	1
_symmetry_cell_setting	triclinic
loop_
_symmetry_equiv_pos_as_xyz
  x,y,z
_cell_length_a	14.519709
_cell_length_b	14.519709
_cell_length_c	8.140239
_cell_angle_alpha	90.004096
_cell_angle_beta	89.995855
_cell_angle_gamma	83.680145
loop_
_atom_site_label
_atom_site_type_symbol
_atom_site_fract_x
_atom_site_fract_y
_atom_site_fract_z
O1	O	1.223864	0.120889	0.136403
O2	O	1.557197	0.454223	0.469736
O3	O	1.890530	0.787556	0.803070
O4	O	0.955387	0.135126	0.136454
O5	O	1.288720	0.468459	0.469787
O6	O	1.622053	0.801793	0.803120
O7	O	1.096743	-0.006231	0.136412
O8	O	1.430077	0.327103	0.469746
O9	O	1.763410	0.660436	0.803079
O10	O	1.082507	0.262246	0.136445
O11	O	1.415840	0.595580	0.469778
O12	O	1.749174	0.928913	0.803111
O13	O	1.096739	-0.006232	-0.136815
O14	O	1.430072	0.327102	0.196519
O15	O	1.763406	0.660435	0.529852
O16	O	0.955382	0.135125	-0.136773
O17	O	1.288716	0.468458	0.196560
O18	O	1.622049	0.801792	0.529893
O19	O	1.223859	0.120889	-0.136824
O20	O	1.557192	0.454222	0.196509
O21	O	1.890526	0.787555	0.529843
Zn22	Zn	1.089620	0.128007	-0.180179
Zn23	Zn	1.422953	0.461340	0.153154
Zn24	Zn	1.756287	0.794673	0.486487
Zn25	Zn	1.089626	0.128008	0.179809
Zn26	Zn	1.422959	0.461341	0.513142
Zn27	Zn	1.756293	0.794675	0.846476
O28	O	1.082502	0.262245	-0.136783
O29	O	1.415836	0.595579	0.196551
O30	O	1.749169	0.928912	0.529884
C31	C	0.921025	0.134462	-0.000153
C32	C	1.254358	0.467795	0.333180
C33	C	1.587691	0.801129	0.666513
C34	C	0.818643	0.132474	-0.000135
C35	C	1.151977	0.465807	0.333199
C36	C	1.485310	0.799141	0.666532
C37	C	0.443748	0.125154	-0.000210
C38	C	0.777081	0.458488	0.333123
C39	C	1.110414	0.791821	0.666456
C40	C	0.548056	0.127187	-0.000189
C41	C	0.881389	0.460520	0.333145
C42	C	1.214722	0.793854	0.666478
C43	C	0.631192	0.128814	-0.000171
C44	C	0.964526	0.462147	0.333162
C45	C	1.297859	0.795481	0.666496
C46	C	0.735507	0.130847	-0.000152
C47	C	1.068840	0.464180	0.333181
C48	C	1.402173	0.797514	0.666514
C49	C	1.096078	-0.040591	-0.000201
C50	C	1.429411	0.292742	0.333132
C51	C	1.762744	0.626076	0.666465
C52	C	1.094090	-0.142972	-0.000202
C53	C	1.427423	0.190361	0.333131
C54	C	1.760756	0.523694	0.666465
C55	C	1.086770	-0.517868	-0.000158
C56	C	1.420103	-0.184535	0.333175
C57	C	1.753437	0.148799	0.666509
C58	C	1.088803	-0.413560	-0.000171
C59	C	1.422136	-0.080227	0.333163
C60	C	1.755469	0.253107	0.666496
C61	C	1.090430	-0.330423	-0.000181
C62	C	1.423763	0.002910	0.333152
C63	C	1.757096	0.336243	0.666485
C64	C	1.092463	-0.226109	-0.000191
C65	C	1.425796	0.107224	0.333142
C66	C	1.759129	0.440558	0.666476
C67	C	1.258221	0.121553	-0.000213
C68	C	1.591554	0.454886	0.333120
C69	C	1.924888	0.788219	0.666454
C70	C	1.360602	0.123541	-0.000221
C71	C	1.693936	0.456874	0.333112
C72	C	2.027269	0.790207	0.666445
C73	C	1.083168	0.296606	-0.000165
C74	C	1.416502	0.629939	0.333168
C75	C	1.749835	0.963272	0.666501
C76	C	1.085156	0.398987	-0.000154
C77	C	1.418490	0.732320	0.333179
C78	C	1.751823	1.065653	0.666513
N79	N	1.089623	0.128005	-0.425862
N80	N	1.422956	0.461339	-0.092529
N81	N	1.756289	0.794672	0.240805
N82	N	1.089631	0.128002	0.425492
N83	N	1.422964	0.461335	0.758825
N84	N	1.756297	0.794669	1.092158
