data_functionalizedCrystal
_audit_creation_method	'MofGen! by Chris Wilmer'
_symmetry_space_group_name_H-M	'P1'
_symmetry_Int_Tables_number	1
_symmetry_cell_setting	triclinic
loop_
_symmetry_equiv_pos_as_xyz
  x,y,z
_cell_length_a	14.560438
_cell_length_b	14.560438
_cell_length_c	14.560438
_cell_angle_alpha	89.998666
_cell_angle_beta	59.999682
_cell_angle_gamma	119.999095
loop_
_atom_site_label
_atom_site_type_symbol
_atom_site_fract_x
_atom_site_fract_y
_atom_site_fract_z
Zr1	Zr	1.005268	0.120497	0.884763
O2	O	1.196873	0.267144	0.738112
O3	O	0.813667	0.075545	0.929719
O4	O	1.005271	0.267146	0.929715
O5	O	1.005267	-0.075597	0.738120
O6	O	1.005269	0.267144	1.080855
O7	O	1.005269	0.075543	0.738116
O8	O	0.662525	-0.075595	1.080863
O9	O	1.348011	0.267141	0.738112
O10	O	0.892473	0.056369	1.061687
O11	O	0.892472	-0.056425	0.948896
O12	O	1.118061	0.169161	0.948891
O13	O	1.118060	0.056367	0.836099
Zr14	Zr	1.005262	-0.120557	1.125821
Zr15	Zr	1.005266	0.120495	1.125814
Zr16	Zr	1.005264	-0.120555	0.884769
Zr17	Zr	1.246316	0.120493	0.884764
Zr18	Zr	0.764215	-0.120553	1.125820
O19	O	1.196864	-0.075605	1.080864
O20	O	1.196870	0.267140	1.080856
O21	O	1.196867	-0.075601	0.738120
O22	O	0.813658	-0.267204	1.272472
O23	O	0.813663	0.075541	1.272463
O24	O	0.813661	-0.267200	0.929728
O25	O	1.005264	0.075538	1.272464
O26	O	1.005260	-0.267205	1.080869
O27	O	1.005262	-0.267204	0.929729
O28	O	1.005262	-0.075603	1.272468
O29	O	1.348009	0.267139	0.929716
O30	O	0.662521	-0.267199	1.080868
O31	O	0.662520	-0.267201	1.272472
O32	O	0.662523	-0.075597	1.272467
O33	O	1.348008	0.075537	0.738117
O34	O	1.348006	0.075535	0.929721
O35	O	0.892469	-0.169220	1.061693
O36	O	0.892470	-0.056427	1.174485
O37	O	1.118058	0.056365	1.061688
O38	O	1.118057	-0.056429	0.948896
C39	C	0.703751	-0.000024	1.005291
C40	C	0.601420	-0.000022	1.005291
C41	C	1.005270	0.301490	1.005284
C42	C	1.005272	0.403822	1.005282
C43	C	1.005260	-0.301549	1.005300
C44	C	1.005259	-0.403882	1.005302
C45	C	0.553345	0.058855	1.064165
C46	C	0.457185	0.058844	1.064169
C47	C	0.457190	-0.058922	0.946417
C48	C	0.553341	-0.058917	0.946420
C49	C	1.306779	-0.000036	1.005292
C50	C	1.409110	-0.000038	1.005293
C51	C	1.005268	-0.000027	0.703774
C52	C	1.005269	-0.000025	0.601441
C53	C	1.123025	0.510775	0.946404
C54	C	1.123018	0.606924	0.946417
C55	C	0.887497	0.489154	1.064187
C56	C	0.887504	0.393008	1.064180
C57	C	1.005273	0.083241	0.553363
C58	C	1.005265	0.083235	0.457215
C59	C	1.005253	-0.083309	0.457230
C60	C	1.005253	-0.083307	0.553380
C61	C	1.005262	-0.000033	1.306810
C62	C	1.005261	-0.000034	1.409143
C63	C	0.703749	-0.000028	1.306810
C64	C	0.601417	-0.000027	1.409142
C65	C	0.703746	-0.301544	1.005299
C66	C	0.601414	-0.403875	1.005301
C67	C	0.703744	-0.301547	1.306817
C68	C	0.601410	-0.403879	1.409152
C69	C	1.306787	0.301487	0.703766
C70	C	1.409121	0.403819	0.601432
C71	C	1.306782	-0.000032	0.703774
C72	C	1.409114	-0.000033	0.601442
C73	C	1.306784	0.301484	1.005285
C74	C	1.409117	0.403815	1.005282
C75	C	0.553340	0.058849	1.398342
C76	C	0.457196	0.058854	1.494498
C77	C	0.457210	-0.058903	1.612251
C78	C	0.553359	-0.058900	1.516096
C79	C	0.553334	-0.510828	1.064180
C80	C	0.457191	-0.606975	1.064170
C81	C	0.457211	-0.489201	0.946400
C82	C	0.553359	-0.393057	0.946404
C83	C	0.553331	-0.393081	1.516105
C84	C	0.457187	-0.489237	1.612256
C85	C	0.457203	-0.606986	1.494487
C86	C	0.553353	-0.510831	1.398339
H87	H	0.592487	0.106809	1.112103
F88	F	0.406027	0.121512	1.126828
H89	H	1.005284	0.151052	0.592493
F90	F	1.005241	-0.171937	0.406072
F91	F	0.604480	-0.279257	1.527618
H92	H	0.418033	-0.106871	0.898485
F93	F	1.005240	-0.171939	0.604557
H94	H	0.592462	-0.519643	1.112134
F95	F	0.406047	-0.720816	1.482990
H96	H	0.418045	-0.480437	1.699340
H97	H	1.005266	0.151037	0.418073
H98	H	0.592477	0.106799	1.311259
F99	F	0.604502	-0.121593	0.883762
F100	F	0.406035	0.121520	1.482996
F101	F	0.604530	-0.522327	1.284501
F102	F	0.406028	-0.720803	1.126834
F103	F	1.248363	0.522289	0.883727
H104	H	0.418068	-0.106837	1.699342
H105	H	1.218904	0.694006	0.898475
F106	F	0.762167	0.477656	1.126860
F107	F	0.604534	-0.121563	1.527594
F108	F	0.406058	-0.477700	0.883723
H109	H	0.791610	0.305916	1.112130
H110	H	0.592509	-0.305964	0.898452
