data_functionalizedCrystal
_audit_creation_method	'MofGen! by Chris Wilmer'
_symmetry_space_group_name_H-M	'P1'
_symmetry_Int_Tables_number	1
_symmetry_cell_setting	triclinic
loop_
_symmetry_equiv_pos_as_xyz
  x,y,z
_cell_length_a	12.827893
_cell_length_b	12.827892
_cell_length_c	11.169409
_cell_angle_alpha	89.966914
_cell_angle_beta	89.978812
_cell_angle_gamma	90.015362
loop_
_atom_site_label
_atom_site_type_symbol
_atom_site_fract_x
_atom_site_fract_y
_atom_site_fract_z
Zn1	Zn	1.597689	-0.415949	-0.678580
Zn2	Zn	1.597578	-0.590737	-0.477894
Zn3	Zn	1.422925	-0.416010	-0.477910
Zn4	Zn	1.422916	-0.590649	-0.678535
O5	O	1.510277	-0.503336	-0.578230
O6	O	1.743911	-0.439146	-0.651971
O7	O	1.574367	-0.567621	-0.309947
O8	O	1.446158	-0.269766	-0.504555
O9	O	1.743828	-0.567562	-0.504529
O10	O	1.574557	-0.269721	-0.651986
O11	O	1.446050	-0.439250	-0.309958
O12	O	1.276688	-0.439165	-0.504510
O13	O	1.446143	-0.567412	-0.846490
O14	O	1.276681	-0.567471	-0.651909
O15	O	1.574548	-0.439061	-0.846524
O16	O	1.574358	-0.736961	-0.504484
O17	O	1.446035	-0.736897	-0.651894
C18	C	1.238767	-0.503316	-0.578207
C19	C	1.122614	-0.503333	-0.578226
C20	C	1.070854	-0.566922	-0.651050
C21	C	0.950803	-0.566940	-0.651071
C22	C	1.510212	-0.774846	-0.578209
C23	C	1.510279	-0.890999	-0.578240
C24	C	1.573853	-0.942781	-0.505378
C25	C	1.573924	-1.062832	-0.505408
C26	C	1.782847	-0.503357	-0.578253
C27	C	1.899000	-0.503366	-0.578263
C28	C	1.510357	-0.503220	-0.891272
C29	C	1.510391	-0.503171	-1.024672
C30	C	1.510371	-0.230766	-0.578277
C31	C	1.510411	-0.114613	-0.578297
C32	C	1.510257	-0.503376	-0.266405
C33	C	1.510425	-0.503131	-0.133006
H34	H	0.943506	-0.448926	-0.515908
H35	H	1.628233	-0.898240	-0.442979
Cl36	Cl	1.139646	-0.650963	-0.747287
H37	H	1.078051	-0.448901	-0.515898
H38	H	1.628349	-1.107363	-0.443025
H39	H	1.455976	-1.070089	-0.640676
H40	H	1.455909	-0.935543	-0.640646
H41	H	0.906290	-0.621384	-0.713416
