data_functionalizedCrystal
_audit_creation_method	'MofGen! by Chris Wilmer'
_symmetry_space_group_name_H-M	'P1'
_symmetry_Int_Tables_number	1
_symmetry_cell_setting	triclinic
loop_
_symmetry_equiv_pos_as_xyz
  x,y,z
_cell_length_a	19.188905
_cell_length_b	19.188924
_cell_length_c	14.586319
_cell_angle_alpha	89.994146
_cell_angle_beta	89.989373
_cell_angle_gamma	83.138260
loop_
_atom_site_label
_atom_site_type_symbol
_atom_site_fract_x
_atom_site_fract_y
_atom_site_fract_z
O1	O	0.926153	0.087084	-0.076396
O2	O	1.426153	0.587084	0.423604
O3	O	0.722839	0.098836	-0.076365
O4	O	1.222839	0.598836	0.423635
O5	O	0.830366	-0.008696	-0.076370
O6	O	1.330366	0.491304	0.423630
O7	O	0.818626	0.194617	-0.076390
O8	O	1.318626	0.694617	0.423610
O9	O	0.830358	-0.008698	0.076111
O10	O	1.330358	0.491302	0.576111
O11	O	0.722831	0.098835	0.076116
O12	O	1.222831	0.598835	0.576116
O13	O	0.926145	0.087082	0.076085
O14	O	1.426145	0.587082	0.576085
Cu15	Cu	0.824488	0.092958	0.090023
Cu16	Cu	1.324488	0.592958	0.590023
Cu17	Cu	0.824497	0.092960	-0.090303
Cu18	Cu	1.324497	0.592960	0.409697
O19	O	0.818619	0.194615	0.076091
O20	O	1.318619	0.694615	0.576091
C21	C	0.696824	0.098458	-0.000120
C22	C	1.196824	0.598458	0.499880
C23	C	0.619318	0.097324	-0.000108
C24	C	1.119318	0.597324	0.499892
C25	C	0.582931	0.096780	-0.083228
C26	C	1.082931	0.596780	0.416772
C27	C	0.510107	0.095707	-0.083239
C28	C	1.010107	0.595707	0.416761
C29	C	0.473676	0.095164	-0.000126
C30	C	0.973676	0.595164	0.499874
C31	C	0.510072	0.095712	0.083005
C32	C	1.010072	0.595712	0.583005
C33	C	0.582893	0.096792	0.083014
C34	C	1.082893	0.596792	0.583014
N35	N	0.364654	0.053735	0.061731
N36	N	0.864654	0.553735	0.561731
N37	N	0.295477	0.052707	0.061717
N38	N	0.795477	0.552707	0.561717
C39	C	0.254269	0.091911	-0.000148
C40	C	0.754269	0.591911	0.499852
N41	N	0.284853	0.132173	-0.062012
N42	N	0.784853	0.632173	0.437988
N43	N	0.354037	0.133198	-0.062000
N44	N	0.854037	0.633198	0.438000
C45	C	0.394713	0.093993	-0.000126
C46	C	0.894713	0.593993	0.499874
C47	C	0.138918	0.090205	-0.083285
C48	C	0.638918	0.590205	0.416715
C49	C	0.066092	0.089137	-0.083293
C50	C	0.566092	0.589137	0.416707
C51	C	0.066059	0.089134	0.082953
C52	C	0.566059	0.589134	0.582953
C53	C	0.138883	0.090210	0.082958
C54	C	0.638883	0.590210	0.582958
C55	C	0.175308	0.090742	-0.000163
C56	C	0.675308	0.590742	0.499837
C57	C	0.829982	-0.034708	-0.000129
C58	C	1.329982	0.465292	0.499871
C59	C	0.828844	-0.112213	-0.000126
C60	C	1.328844	0.387787	0.499874
C61	C	0.828316	-0.148611	-0.083244
C62	C	1.328316	0.351389	0.416756
C63	C	0.827236	-0.221434	-0.083251
C64	C	1.327236	0.278566	0.416749
C65	C	0.826698	-0.257857	-0.000135
C66	C	1.326698	0.242143	0.499865
C67	C	0.827221	-0.221450	0.082993
C68	C	1.327221	0.278550	0.582993
C69	C	0.828294	-0.148628	0.082998
C70	C	1.328294	0.351372	0.582998
N71	N	0.864743	-0.377525	0.061720
N72	N	1.364743	0.122475	0.561720
N73	N	0.863725	-0.446703	0.061710
N74	N	1.363725	0.053297	0.561710
C75	C	0.823464	-0.477266	-0.000144
C76	C	1.323464	0.022734	0.499856
N77	N	0.784267	-0.436039	-0.062001
N78	N	1.284267	0.063961	0.437999
N79	N	0.785288	-0.366855	-0.061993
N80	N	1.285288	0.133145	0.438007
C81	C	0.825534	-0.336821	-0.000131
C82	C	1.325534	0.163179	0.499869
C83	C	0.821764	-0.592627	-0.083274
C84	C	1.321764	-0.092627	0.416726
C85	C	0.820680	-0.665450	-0.083277
C86	C	1.320680	-0.165450	0.416723
C87	C	0.820672	-0.665466	0.082969
C88	C	1.320672	-0.165466	0.582969
C89	C	0.821750	-0.592643	0.082970
C90	C	1.321750	-0.092643	0.582970
C91	C	0.822299	-0.556228	-0.000154
C92	C	1.322299	-0.056228	0.499846
C93	C	0.952160	0.087461	-0.000161
C94	C	1.452160	0.587461	0.499839
C95	C	1.029666	0.088594	-0.000179
C96	C	1.529666	0.588594	0.499821
C97	C	0.819002	0.220627	-0.000153
C98	C	1.319002	0.720627	0.499847
C99	C	0.820141	0.298132	-0.000161
C100	C	1.320141	0.798132	0.499839
N101	N	0.824487	0.092957	0.216855
N102	N	1.324487	0.592957	0.716855
N103	N	0.824503	0.092956	-0.217135
N104	N	1.324503	0.592956	0.282865
C105	C	0.872115	0.045357	0.451859
C106	C	1.372115	0.545357	0.951859
C107	C	0.872117	0.045355	0.547840
C108	C	1.372117	0.545355	1.047840
C109	C	0.776870	0.140558	0.547855
C110	C	1.276870	0.640558	1.047855
C111	C	0.776865	0.140556	0.451875
C112	C	1.276865	0.640556	0.951875
C113	C	0.824492	0.092956	0.403880
C114	C	1.324492	0.592956	0.903880
C115	C	0.824498	0.092957	0.595841
C116	C	1.324498	0.592957	1.095841
C117	C	0.824500	0.092955	0.699908
C118	C	1.324500	0.592955	1.199908
C119	C	0.824489	0.092957	0.299806
C120	C	1.324489	0.592957	0.799806
H121	H	0.480474	0.095266	-0.150927
H122	H	0.980474	0.595266	0.349073
Cl123	Cl	0.931986	-0.014486	0.391526
Cl124	Cl	1.431986	0.485514	0.891526
H125	H	0.828762	-0.118966	-0.150930
H126	H	1.328762	0.381034	0.349070
H127	H	0.826781	-0.251111	0.150666
H128	H	1.326781	0.248889	0.650666
H129	H	0.738094	0.179314	0.586942
H130	H	1.238094	0.679314	1.086942
H131	H	0.820229	-0.695121	0.150643
H132	H	1.320229	-0.195121	0.650643
H133	H	0.168510	0.090648	0.150643
H134	H	0.668510	0.590648	0.650643
Cl135	Cl	0.822449	-0.546844	-0.187770
Cl136	Cl	1.322449	-0.046844	0.312230
H137	H	0.036397	0.088696	0.150625
H138	H	0.536397	0.588696	0.650625
Cl139	Cl	0.931988	-0.014488	0.608155
Cl140	Cl	1.431988	0.485512	1.108155
H141	H	0.822185	-0.563008	0.150653
H142	H	1.322185	-0.063008	0.650653
H143	H	0.738081	0.179318	0.412808
H144	H	1.238081	0.679318	0.912808
Cl145	Cl	0.826573	-0.267201	-0.187749
Cl146	Cl	1.326573	0.232799	0.312251
H147	H	0.612584	0.097214	-0.150912
H148	H	1.112584	0.597214	0.349088
Cl149	Cl	0.464273	0.095033	0.187490
Cl150	Cl	0.964273	0.595033	0.687490
H151	H	0.828721	-0.118993	0.150684
H152	H	1.328721	0.381007	0.650684
H153	H	0.612519	0.097235	0.150702
H154	H	1.112519	0.597235	0.650702
Cl155	Cl	0.820012	-0.711208	-0.187778
Cl156	Cl	1.320012	-0.211208	0.312222
H157	H	0.036466	0.088698	-0.150982
H158	H	0.536466	0.588698	0.349018
Cl159	Cl	0.184712	0.090881	-0.187779
Cl160	Cl	0.684712	0.590881	0.312221
