data_functionalizedCrystal
_audit_creation_method	'MofGen! by Chris Wilmer'
_symmetry_space_group_name_H-M	'P1'
_symmetry_Int_Tables_number	1
_symmetry_cell_setting	triclinic
loop_
_symmetry_equiv_pos_as_xyz
  x,y,z
_cell_length_a	16.974829
_cell_length_b	15.455313
_cell_length_c	10.654550
_cell_angle_alpha	87.308851
_cell_angle_beta	83.940441
_cell_angle_gamma	96.328434
loop_
_atom_site_label
_atom_site_type_symbol
_atom_site_fract_x
_atom_site_fract_y
_atom_site_fract_z
O1	O	1.056993	0.146325	0.148950
O2	O	0.826127	0.130122	0.170562
O3	O	0.946868	0.138591	-0.023093
O4	O	0.936252	0.137857	0.342605
O5	O	0.939963	-0.006156	-0.012065
O6	O	0.819222	-0.014625	0.181591
O7	O	1.050088	0.001579	0.159979
Cu8	Cu	0.934025	-0.019739	0.171792
Cu9	Cu	0.942190	0.151440	0.158749
O10	O	0.929347	-0.006890	0.353634
C11	C	0.793113	0.055674	0.175458
C12	C	0.705029	0.049491	0.173599
C13	C	0.208803	0.006221	0.163826
C14	C	0.291567	0.012032	0.165572
C15	C	0.336714	0.093840	0.160423
C16	C	0.299092	0.169842	0.153541
C17	C	0.216328	0.164030	0.151805
C18	C	0.584643	0.119682	0.164981
C19	C	0.667413	0.125488	0.166714
C20	C	0.659882	-0.032323	0.178747
C21	C	0.577118	-0.038128	0.177002
C22	C	0.539502	0.037874	0.170127
N23	N	0.421313	0.099781	0.162204
N24	N	0.454904	0.031932	0.168355
N25	N	0.928287	-0.140137	0.180964
C26	C	0.979600	-0.181932	0.098723
C27	C	0.975269	-0.273044	0.105671
C28	C	0.919627	-0.322359	0.194868
C29	C	0.868309	-0.280558	0.277113
C30	C	0.872637	-0.189448	0.270158
C31	C	0.900944	-0.595251	0.224856
C32	C	0.896621	-0.686367	0.231808
C33	C	1.003581	-0.678846	0.060363
C34	C	1.007907	-0.587735	0.053421
C35	C	0.956586	-0.545942	0.135662
N36	N	0.915200	-0.415490	0.201975
N37	N	0.961010	-0.452813	0.128548
C38	C	1.083102	0.076029	0.155083
C39	C	1.171186	0.082217	0.156941
C40	C	0.942636	0.066163	-0.064361
C41	C	0.940304	0.066001	-0.203756
N42	N	0.947934	0.271839	0.149566
C43	C	1.011394	0.070991	-0.284721
C44	C	1.009199	0.070847	-0.415697
C45	C	0.864816	0.060720	-0.384729
C46	C	0.867012	0.060870	-0.253756
C47	C	0.933579	0.065539	0.394901
C48	C	0.935912	0.065708	0.534296
H49	H	0.690518	-0.094200	0.184347
O50	O	0.343068	0.249242	0.148493
C51	C	0.424182	0.238078	0.151530
H52	H	0.435315	0.171272	0.117185
H53	H	0.440085	0.242929	0.252476
C54	C	0.462589	0.391622	0.107062
C55	C	0.476265	0.309574	0.064868
H56	H	0.494718	0.435726	0.053610
H57	H	0.407941	0.399145	0.105021
H58	H	0.475842	0.395653	0.191184
H59	H	0.463003	0.305540	-0.019246
H60	H	0.530913	0.302052	0.066893
H61	H	0.185702	0.225915	0.146201
O62	O	1.025145	-0.313741	0.025969
C63	C	1.071957	-0.362947	0.096957
H64	H	1.040244	-0.378769	0.196454
H65	H	1.132304	-0.323703	0.102458
C66	C	1.123364	-0.428903	-0.089541
C67	C	1.084409	-0.448342	0.032661
H68	H	1.131048	-0.481577	-0.129203
H69	H	1.091828	-0.395750	-0.137368
H70	H	1.173648	-0.396198	-0.084940
H71	H	1.034122	-0.481036	0.028058
H72	H	1.115937	-0.481503	0.080486
O73	O	0.798027	0.056066	-0.174921
C74	C	0.815684	0.057281	-0.048600
H75	H	0.879335	0.089056	-0.046111
H76	H	0.809570	-0.012358	-0.005412
C77	C	0.679070	0.070733	0.024628
C78	C	0.757245	0.109765	0.027686
H79	H	0.643021	0.103103	0.071688
H80	H	0.667174	0.069910	-0.060476
H81	H	0.673987	0.012702	0.060616
H82	H	0.762330	0.167791	-0.008315
H83	H	0.769142	0.110598	0.112786
H84	H	1.071073	0.075171	-0.244016
O85	O	1.033674	-0.134164	0.011965
C86	C	1.078047	-0.190595	-0.059113
H87	H	1.042428	-0.257833	-0.055372
H88	H	1.136743	-0.196114	-0.017959
C89	C	1.139095	-0.071373	-0.201993
C90	C	1.095343	-0.153953	-0.197408
H91	H	1.149767	-0.048769	-0.287299
H92	H	1.109202	-0.033353	-0.154105
H93	H	1.188003	-0.075983	-0.167692
H94	H	1.046433	-0.149340	-0.231695
H95	H	1.125228	-0.191971	-0.245306
O96	O	0.711145	0.205030	0.161780
C97	C	0.660200	0.270866	0.155317
H98	H	0.597035	0.243379	0.195588
H99	H	0.660323	0.295063	0.052547
C100	C	0.767292	0.380986	0.183221
C101	C	0.689712	0.347228	0.232693
H102	H	0.785497	0.428092	0.230945
H103	H	0.801616	0.336632	0.187571
H104	H	0.767384	0.401144	0.097581
H105	H	0.689623	0.327061	0.318325
H106	H	0.655389	0.391581	0.228359
H107	H	0.823000	-0.320716	0.349735
H108	H	1.067088	0.074913	-0.481615
H109	H	0.172049	-0.060396	0.168024
O110	O	0.842527	-0.734375	0.318287
C111	C	0.790713	-0.790546	0.255340
H112	H	0.821131	-0.802008	0.157924
H113	H	0.733699	-0.759577	0.244484
C114	C	0.732683	-0.864179	0.452488
C115	C	0.770045	-0.878262	0.332844
H116	H	0.719930	-0.918285	0.500297
H117	H	0.767588	-0.826334	0.494898
H118	H	0.685175	-0.838368	0.443424
H119	H	0.817556	-0.904062	0.341909
H120	H	0.735147	-0.916114	0.290437
O121	O	0.533255	-0.117579	0.181766
C122	C	0.493531	-0.125065	0.072374
H123	H	0.526466	-0.078119	-0.006515
H124	H	0.429918	-0.108414	0.094023
C125	C	0.451130	-0.276812	0.127091
C126	C	0.491585	-0.219157	0.030196
H127	H	0.449926	-0.334852	0.101076
H128	H	0.477890	-0.271768	0.200794
H129	H	0.398123	-0.262925	0.145123
H130	H	0.544594	-0.233037	0.012176
H131	H	0.464834	-0.224205	-0.043511
H132	H	0.322191	-0.049853	0.171175
H133	H	0.859157	-0.561230	0.291822
O134	O	1.053392	-0.719354	-0.019710
C135	C	1.040851	-0.698076	-0.145637
H136	H	1.013419	-0.634076	-0.150337
H137	H	0.998708	-0.752152	-0.180309
C138	C	1.154832	-0.766844	-0.224236
C139	C	1.121144	-0.688234	-0.230010
H140	H	1.204359	-0.760776	-0.276284
H141	H	1.163279	-0.781183	-0.139397
H142	H	1.119705	-0.811899	-0.253127
H143	H	1.156266	-0.643183	-0.201105
H144	H	1.112704	-0.673887	-0.314847
H145	H	1.053215	-0.547584	-0.019210
H146	H	0.554027	0.181568	0.159378
O147	O	0.822758	-0.148982	0.350182
C148	C	0.772706	-0.212044	0.430383
H149	H	0.802154	-0.274699	0.436563
H150	H	0.713091	-0.225907	0.390705
C151	C	0.722615	-0.100616	0.555647
C152	C	0.758786	-0.177566	0.563246
H153	H	0.714025	-0.079348	0.637602
H154	H	0.756333	-0.058129	0.501612
H155	H	0.672939	-0.112178	0.522577
H156	H	0.808465	-0.166001	0.596300
H157	H	0.725076	-0.220051	0.617290
H158	H	0.805144	0.056540	-0.425455
