data_functionalizedCrystal
_audit_creation_method	'MofGen! by Chris Wilmer'
_symmetry_space_group_name_H-M	'P1'
_symmetry_Int_Tables_number	1
_symmetry_cell_setting	triclinic
loop_
_symmetry_equiv_pos_as_xyz
  x,y,z
_cell_length_a	10.654550
_cell_length_b	10.489741
_cell_length_c	9.730223
_cell_angle_alpha	89.998920
_cell_angle_beta	89.996251
_cell_angle_gamma	84.512038
loop_
_atom_site_label
_atom_site_type_symbol
_atom_site_fract_x
_atom_site_fract_y
_atom_site_fract_z
O1	O	1.667918	0.179156	-0.114402
O2	O	1.302447	0.196226	-0.114380
O3	O	1.493499	0.002089	-0.114383
O4	O	1.476867	0.373293	-0.114399
O5	O	1.493497	0.002094	0.114196
O6	O	1.302445	0.196231	0.114200
O7	O	1.667916	0.179161	0.114178
Zn8	Zn	1.485180	0.187697	0.150481
Zn9	Zn	1.485183	0.187690	-0.150683
O10	O	1.476864	0.373298	0.114181
C11	C	1.255648	0.194975	-0.000087
C12	C	1.116203	0.191225	-0.000079
C13	C	1.036771	0.305530	-0.000103
C14	C	0.905748	0.301999	-0.000127
C15	C	0.933603	0.069849	-0.000107
C16	C	1.064623	0.073381	-0.000073
C17	C	1.088351	0.423374	-0.000109
C18	C	1.008917	0.537688	-0.000135
C19	C	0.877895	0.534157	-0.000159
C20	C	0.826306	0.416312	-0.000156
C21	C	1.492241	-0.045439	-0.000094
C22	C	1.488483	-0.187067	-0.000096
C23	C	1.366923	-0.255148	-0.000099
C24	C	1.424346	-0.347296	0.112599
C25	C	1.424377	-0.347276	-0.112763
C26	C	1.545956	-0.277350	0.112695
C27	C	1.545970	-0.277319	-0.112768
C28	C	1.603481	-0.369440	-0.000043
C29	C	1.714715	0.180412	-0.000118
C30	C	1.854160	0.184162	-0.000136
C31	C	1.478122	0.420826	-0.000111
C32	C	1.481880	0.562454	-0.000118
N33	N	1.485187	0.187700	0.356017
N34	N	1.485186	0.187677	-0.356220
C35	C	1.569807	0.101766	0.427942
C36	C	1.569803	0.101751	0.571825
C37	C	1.400557	0.273615	0.571846
C38	C	1.400555	0.273623	0.427966
C39	C	1.654439	0.015843	0.355993
C40	C	1.739066	-0.070097	0.427918
C41	C	1.739063	-0.070113	0.571801
C42	C	1.654432	0.015812	0.643759
H43	H	0.813223	0.627237	-0.000166
C44	C	1.654296	0.016104	0.199778
C45	C	1.562096	0.109776	0.152188
C46	C	1.561942	0.110072	0.008292
H47	H	1.636337	-0.065506	0.167041
H48	H	1.734695	0.034400	0.167187
H49	H	1.481714	0.091473	0.184765
H50	H	1.580033	0.191401	0.184887
H51	H	1.642341	0.128368	-0.024299
H52	H	1.543986	0.028457	-0.024432
H53	H	1.499394	0.173635	-0.024017
H54	H	1.266977	-0.205449	0.000020
H55	H	1.331655	0.343573	0.630444
H56	H	1.331649	0.343598	0.369404
H57	H	1.807963	-0.140062	0.369322
C58	C	0.877524	-0.058052	-0.000403
C59	C	0.803180	-0.066873	-0.118042
C60	C	0.751516	-0.184685	-0.118377
H61	H	0.826879	-0.064382	0.079199
H62	H	0.943562	-0.125663	-0.000458
H63	H	0.737151	0.000719	-0.117974
H64	H	0.853796	-0.060566	-0.197663
H65	H	0.817554	-0.252296	-0.118432
H66	H	0.700877	-0.191004	-0.038769
H67	H	0.701078	-0.190690	-0.198199
C68	C	1.831075	-0.163474	0.649645
C69	C	1.905206	-0.238693	0.555834
C70	C	1.989999	-0.324698	0.627489
H71	H	1.785572	-0.217131	0.705775
H72	H	1.883831	-0.117125	0.705744
H73	H	1.852457	-0.285038	0.499758
H74	H	1.950737	-0.185071	0.499700
H75	H	2.042756	-0.278350	0.683589
H76	H	1.944485	-0.378347	0.683618
H77	H	2.040315	-0.375737	0.563850
H78	H	0.719617	0.413446	-0.000154
C79	C	1.614333	-0.236441	0.240052
C80	C	1.550886	-0.272746	0.357645
C81	C	1.613841	-0.235095	0.474991
H82	H	1.616301	-0.146101	0.239498
H83	H	1.698113	-0.276638	0.240449
H84	H	1.467128	-0.232545	0.357249
H85	H	1.548916	-0.363080	0.358245
H86	H	1.697621	-0.275292	0.475387
H87	H	1.615805	-0.144756	0.474423
H88	H	1.570808	-0.259732	0.554791
C89	C	1.355793	-0.388305	-0.239928
C90	C	1.315633	-0.280158	-0.318410
C91	C	1.252457	-0.317899	-0.435565
H92	H	1.284759	-0.430589	-0.213015
H93	H	1.411230	-0.444971	-0.293092
H94	H	1.260200	-0.223514	-0.265255
H95	H	1.386642	-0.237861	-0.345358
H96	H	1.307893	-0.374565	-0.488730
H97	H	1.181428	-0.360184	-0.408639
H98	H	1.225211	-0.244530	-0.488836
H99	H	1.195034	0.426262	-0.000096
H100	H	1.654428	0.015784	0.760919
C101	C	1.355533	-0.388522	0.239532
C102	C	1.231728	-0.330159	0.239009
C103	C	1.168289	-0.368112	0.355902
H104	H	1.397760	-0.363432	0.319662
H105	H	1.354235	-0.478955	0.239035
H106	H	1.233032	-0.239745	0.239518
H107	H	1.189467	-0.355241	0.158906
H108	H	1.166991	-0.458545	0.355406
H109	H	1.210526	-0.343020	0.436023
H110	H	1.084277	-0.328529	0.355557
H111	H	1.050930	0.633633	-0.000126
C112	C	1.150815	-0.050758	-0.000341
C113	C	1.127408	-0.121634	-0.117963
C114	C	1.206798	-0.235991	-0.118262
H115	H	1.135122	-0.099183	0.079273
H116	H	1.236249	-0.031824	-0.000393
H117	H	1.041994	-0.140572	-0.117898
H118	H	1.143109	-0.073248	-0.197596
H119	H	1.292233	-0.217056	-0.118314
H120	H	1.191099	-0.284404	-0.038643
H121	H	1.190936	-0.284088	-0.198073
H122	H	1.703518	-0.418912	0.000014
H123	H	1.597362	-0.246302	-0.208058
