data_functionalizedCrystal
_audit_creation_method	'MofGen! by Chris Wilmer'
_symmetry_space_group_name_H-M	'P1'
_symmetry_Int_Tables_number	1
_symmetry_cell_setting	triclinic
loop_
_symmetry_equiv_pos_as_xyz
  x,y,z
_cell_length_a	13.897449
_cell_length_b	18.050590
_cell_length_c	13.897441
_cell_angle_alpha	90.033006
_cell_angle_beta	90.020733
_cell_angle_gamma	90.019832
loop_
_atom_site_label
_atom_site_type_symbol
_atom_site_fract_x
_atom_site_fract_y
_atom_site_fract_z
Zn1	Zn	1.474697	-0.295610	0.545365
Zn2	Zn	1.808030	0.037723	0.878698
Zn3	Zn	2.141364	0.371056	1.212032
Zn4	Zn	1.474588	-0.419815	0.384060
Zn5	Zn	1.807922	-0.086481	0.717393
Zn6	Zn	2.141255	0.246852	1.050726
Zn7	Zn	1.313386	-0.295646	0.384083
Zn8	Zn	1.646719	0.037688	0.717417
Zn9	Zn	1.980053	0.371021	1.050750
Zn10	Zn	1.313365	-0.419766	0.545312
Zn11	Zn	1.646699	-0.086433	0.878646
Zn12	Zn	1.980032	0.246901	1.211979
O13	O	1.394009	-0.357709	0.464705
O14	O	1.727342	-0.024376	0.798038
O15	O	2.060676	0.308958	1.131372
O16	O	1.609664	-0.312092	0.523980
O17	O	1.942997	0.021241	0.857313
O18	O	2.276331	0.354575	1.190646
O19	O	1.453168	-0.403379	0.249081
O20	O	1.786501	-0.070045	0.582414
O21	O	2.119835	0.263288	0.915748
O22	O	1.334838	-0.191716	0.405510
O23	O	1.668172	0.141617	0.738843
O24	O	2.001505	0.474950	1.072176
O25	O	1.609584	-0.403344	0.405469
O26	O	1.942918	-0.070011	0.738803
O27	O	2.276251	0.263322	1.072136
O28	O	1.453353	-0.191690	0.524003
O29	O	1.786686	0.141643	0.857336
O30	O	2.120019	0.474976	1.190669
O31	O	1.334733	-0.312152	0.249099
O32	O	1.668066	0.021181	0.582432
O33	O	2.001400	0.354514	0.915765
O34	O	1.178402	-0.312105	0.405459
O35	O	1.511735	0.021228	0.738792
O36	O	1.845068	0.354562	1.072125
O37	O	1.334803	-0.403261	0.680301
O38	O	1.668136	-0.069928	1.013634
O39	O	2.001470	0.263406	1.346968
O40	O	1.178386	-0.403295	0.523913
O41	O	1.511720	-0.069962	0.857246
O42	O	1.845053	0.263371	1.190579
O43	O	1.453333	-0.312045	0.680340
O44	O	1.786666	0.021289	1.013673
O45	O	2.119999	0.354622	1.347006
O46	O	1.453148	-0.523733	0.405418
O47	O	1.786481	-0.190399	0.738751
O48	O	2.119814	0.142934	1.072085
O49	O	1.334698	-0.523697	0.523890
O50	O	1.668031	-0.190364	0.857223
O51	O	2.001364	0.142970	1.190556
C52	C	1.143395	-0.357699	0.464683
C53	C	1.476728	-0.024366	0.798016
C54	C	1.810061	0.308967	1.131350
C55	C	1.036181	-0.357713	0.464697
C56	C	1.369514	-0.024380	0.798030
C57	C	1.702848	0.308954	1.131363
C58	C	1.393935	-0.550661	0.464667
C59	C	1.727268	-0.217328	0.798000
C60	C	2.060602	0.116005	1.131333
C61	C	1.393991	-0.633207	0.464682
C62	C	1.727325	-0.299874	0.798016
C63	C	2.060658	0.033460	1.131349
C64	C	0.839886	-0.357716	0.464722
C65	C	1.173219	-0.024382	0.798055
C66	C	1.506552	0.308951	1.131389
C67	C	0.949118	-0.357712	0.464705
C68	C	1.282452	-0.024378	0.798038
C69	C	1.615785	0.308955	1.131372
C70	C	1.458539	-0.832650	0.400348
C71	C	1.791872	-0.499317	0.733681
C72	C	2.125205	-0.165984	1.067014
C73	C	1.482104	-0.881977	0.488383
C74	C	1.815438	-0.548644	0.821716
C75	C	2.148771	-0.215310	1.155049
C76	C	1.394046	-0.784337	0.464721
C77	C	1.727380	-0.451004	0.798054
C78	C	2.060713	-0.117671	1.131388
C79	C	1.370579	-0.882092	0.376725
C80	C	1.703912	-0.548759	0.710059
C81	C	2.037245	-0.215426	1.043392
C82	C	1.394101	-0.930322	0.464750
C83	C	1.727434	-0.596989	0.798084
C84	C	2.060768	-0.263656	1.131417
C85	C	1.417657	-0.832577	0.552802
C86	C	1.750991	-0.499244	0.886136
C87	C	2.084324	-0.165910	1.219469
C88	C	1.306091	-0.832688	0.441086
C89	C	1.639424	-0.499355	0.774419
C90	C	1.972757	-0.166021	1.107752
C91	C	1.329623	-0.881992	0.529181
C92	C	1.662956	-0.548659	0.862515
C93	C	1.996290	-0.215326	1.195848
C94	C	1.394017	-0.700239	0.464703
C95	C	1.727351	-0.366906	0.798036
C96	C	2.060684	-0.033572	1.131369
C97	C	1.394130	-1.014419	0.464778
C98	C	1.727463	-0.681086	0.798112
C99	C	2.060797	-0.347752	1.131445
C100	C	1.645602	-0.357720	0.464728
C101	C	1.978935	-0.024386	0.798061
C102	C	2.312269	0.308947	1.131394
C103	C	1.752816	-0.357724	0.464737
C104	C	2.086149	-0.024391	0.798071
C105	C	2.419483	0.308943	1.131404
C106	C	1.394078	-0.357644	0.716298
C107	C	1.727411	-0.024310	1.049632
C108	C	2.060744	0.309023	1.382965
C109	C	1.394107	-0.357616	0.823512
C110	C	1.727440	-0.024282	1.156846
C111	C	2.060773	0.309051	1.490179
C112	C	1.394110	-0.164004	0.464765
C113	C	1.727443	0.169330	0.798098
C114	C	2.060777	0.502663	1.131431
C115	C	1.394153	-0.081458	0.464790
C116	C	1.727486	0.251876	0.798124
C117	C	2.060819	0.585209	1.131457
C118	C	1.393996	-0.357721	0.214091
C119	C	1.727330	-0.024388	0.547424
C120	C	2.060663	0.308946	0.880757
C121	C	1.394154	-0.357540	0.106877
C122	C	1.727488	-0.024206	0.440211
C123	C	2.060821	0.309127	0.773544
C124	C	1.394133	-0.357565	1.019808
C125	C	1.727466	-0.024232	1.353141
C126	C	2.060800	0.309101	1.686474
C127	C	1.394115	-0.357595	0.910575
C128	C	1.727449	-0.024262	1.243908
C129	C	2.060782	0.309071	1.577242
H130	H	1.513096	-0.810984	0.345965
H131	H	1.846429	-0.477651	0.679299
H132	H	2.179763	-0.144317	1.012632
H133	H	1.556510	-0.903630	0.508393
H134	H	1.889844	-0.570296	0.841726
H135	H	2.223177	-0.236963	1.175059
O136	O	1.444106	-0.803900	0.651422
O137	O	1.777439	-0.470567	0.984755
O138	O	2.110773	-0.137234	1.318089
H139	H	1.443914	-0.742413	0.650624
H140	H	1.777248	-0.409080	0.983958
H141	H	2.110581	-0.075747	1.317291
O142	O	1.257405	-0.910516	0.601381
O143	O	1.590738	-0.577183	0.934714
O144	O	1.924072	-0.243849	1.268047
H145	H	1.277134	-0.890574	0.674334
H146	H	1.610468	-0.557241	1.007667
H147	H	1.943801	-0.223908	1.341001
H148	H	1.231706	-0.811019	0.421049
H149	H	1.565039	-0.477686	0.754383
H150	H	1.898373	-0.144353	1.087716
H151	H	1.350707	-0.903841	0.302296
H152	H	1.684040	-0.570508	0.635630
H153	H	2.017374	-0.237175	0.968963
