data_functionalizedCrystal
_audit_creation_method	'MofGen! by Chris Wilmer'
_symmetry_space_group_name_H-M	'P1'
_symmetry_Int_Tables_number	1
_symmetry_cell_setting	triclinic
loop_
_symmetry_equiv_pos_as_xyz
  x,y,z
_cell_length_a	12.827892
_cell_length_b	15.298563
_cell_length_c	12.827885
_cell_angle_alpha	80.356255
_cell_angle_beta	89.970214
_cell_angle_gamma	80.291755
loop_
_atom_site_label
_atom_site_type_symbol
_atom_site_fract_x
_atom_site_fract_y
_atom_site_fract_z
Zn1	Zn	-0.139193	-1.379158	-0.314918
Zn2	Zn	0.360807	-0.879158	0.185082
Zn3	Zn	-0.313989	-1.379066	-0.140197
Zn4	Zn	0.186011	-0.879066	0.359803
Zn5	Zn	-0.169520	-1.228301	-0.170374
Zn6	Zn	0.330480	-0.728301	0.329626
Zn7	Zn	-0.344171	-1.228288	-0.345063
Zn8	Zn	0.155829	-0.728288	0.154937
O9	O	-0.241718	-1.303703	-0.242638
O10	O	0.258282	-0.803703	0.257362
O11	O	-0.137056	-1.505381	-0.266496
O12	O	0.362944	-1.005381	0.233504
O13	O	-0.294885	-1.359034	0.002030
O14	O	0.205115	-0.859034	0.502030
O15	O	-0.019252	-1.248356	-0.189562
O16	O	0.480748	-0.748356	0.310438
O17	O	-0.265478	-1.505314	-0.138129
O18	O	0.234522	-1.005314	0.361871
O19	O	0.003029	-1.359190	-0.295758
O20	O	0.503029	-0.859190	0.204242
O21	O	-0.188745	-1.248267	-0.020141
O22	O	0.311255	-0.748267	0.479859
O23	O	-0.218011	-1.102064	-0.218792
O24	O	0.281989	-0.602064	0.281208
O25	O	-0.316920	-1.248334	-0.487294
O26	O	0.183080	-0.748334	0.012706
O27	O	-0.346327	-1.102054	-0.347135
O28	O	0.153673	-0.602054	0.152865
O29	O	-0.166323	-1.359177	-0.465146
O30	O	0.333677	-0.859177	0.034854
O31	O	-0.464237	-1.359022	-0.167359
O32	O	0.035763	-0.859022	0.332641
O33	O	-0.486412	-1.248245	-0.317874
O34	O	0.013588	-0.748245	0.182126
C35	C	-0.288736	-1.069327	-0.289510
C36	C	0.211264	-0.569327	0.210490
C37	C	-0.308876	-0.969060	-0.309587
C38	C	0.191124	-0.469060	0.190413
C39	C	-0.513239	-1.303647	-0.242631
C40	C	-0.013239	-0.803647	0.257369
C41	C	-0.629381	-1.303705	-0.242646
C42	C	-0.129381	-0.803705	0.257354
C43	C	-0.098013	-0.686344	-0.099339
C44	C	0.401987	-0.186344	0.400661
C45	C	-0.079085	-0.780549	-0.080477
C46	C	0.420915	-0.280549	0.419523
C47	C	-0.136531	-0.827682	-0.137752
C48	C	0.363469	-0.327682	0.362248
C49	C	-0.212909	-0.780599	-0.213894
C50	C	0.287091	-0.280599	0.286106
C51	C	-0.231833	-0.686384	-0.232764
C52	C	0.268167	-0.186384	0.267236
C53	C	-0.270351	-0.827722	-0.271177
C54	C	0.229649	-0.327722	0.228823
C55	C	-0.346728	-0.780640	-0.347319
C56	C	0.153272	-0.280640	0.152681
C57	C	-0.365649	-0.686434	-0.366184
C58	C	0.134351	-0.186434	0.133816
C59	C	-0.308203	-0.639301	-0.308909
C60	C	0.191797	-0.139301	0.191091
C61	C	-0.251427	-0.921937	-0.252307
C62	C	0.248573	-0.421937	0.247693
C63	C	-0.385246	-0.921978	-0.385732
C64	C	0.114754	-0.421978	0.114268
C65	C	-0.404174	-0.827772	-0.404594
C66	C	0.095826	-0.327772	0.095406
C67	C	-0.670145	-1.358586	-0.168224
C68	C	-0.170145	-0.858586	0.331776
C69	C	-0.790183	-1.358647	-0.168239
C70	C	-0.290183	-0.858647	0.331761
C71	C	0.030868	-1.303784	-0.242663
C72	C	0.530868	-0.803784	0.257337
C73	C	0.147028	-1.303819	-0.242674
C74	C	0.647028	-0.803819	0.257326
C75	C	-0.241606	-1.303765	-0.515196
C76	C	0.258394	-0.803765	-0.015196
C77	C	-0.241558	-1.303791	-0.631344
C78	C	0.258442	-0.803791	-0.131344
C79	C	-0.194512	-0.538994	-0.195571
C80	C	0.305488	-0.038994	0.304429
C81	C	-0.174384	-0.639261	-0.175484
C82	C	0.325616	-0.139261	0.324516
C83	C	-0.167024	-1.358645	-0.672168
C84	C	0.332976	-0.858645	-0.172168
C85	C	-0.166972	-1.358674	-0.792213
C86	C	0.333028	-0.858674	-0.292213
C87	C	-0.241745	-1.303694	0.028870
C88	C	0.258255	-0.803694	0.528870
C89	C	-0.241463	-1.303842	0.145052
C90	C	0.258537	-0.803842	0.645052
H91	H	-0.189236	-0.960263	-0.190315
H92	H	0.310764	-0.460263	0.309685
Br93	Br	-0.347837	-1.225567	-0.796376
Br94	Br	0.152163	-0.725567	-0.296376
H95	H	-0.305325	-1.256843	-0.685267
H96	H	0.194675	-0.756843	-0.185267
Br97	Br	-0.020045	-0.622376	-0.021632
Br98	Br	0.479955	-0.122376	0.478368
Br99	Br	-0.848676	-1.436957	-0.062028
Br100	Br	-0.348676	-0.936957	0.437972
Br101	Br	-0.060617	-1.436962	-0.850789
Br102	Br	0.439383	-0.936962	-0.350789
Br103	Br	-0.794489	-1.225492	-0.348873
Br104	Br	-0.294489	-0.725492	0.151127
Br105	Br	-0.580203	-1.436835	-0.062012
Br106	Br	-0.080203	-0.936835	0.437988
H107	H	-0.121115	-0.904388	-0.122391
H108	H	0.378885	-0.404388	0.377609
H109	H	-0.103248	-1.405584	-0.618248
H110	H	0.396752	-0.905584	-0.118248
H111	H	-0.016902	-0.818877	-0.018479
H112	H	0.483098	-0.318877	0.481521
H113	H	-0.683348	-1.256769	-0.306375
H114	H	-0.183348	-0.756769	0.193625
H115	H	-0.323615	-0.562591	-0.324257
H116	H	0.176385	-0.062591	0.175743
H117	H	-0.466361	-0.789424	-0.466590
H118	H	0.033639	-0.289424	0.033410
Br119	Br	-0.469289	-0.622537	-0.469535
Br120	Br	0.030711	-0.122537	0.030465
H121	H	-0.432020	-0.960353	-0.432374
H122	H	0.067980	-0.460353	0.067626
