data_functionalizedCrystal
_audit_creation_method	'MofGen! by Chris Wilmer'
_symmetry_space_group_name_H-M	'P1'
_symmetry_Int_Tables_number	1
_symmetry_cell_setting	triclinic
loop_
_symmetry_equiv_pos_as_xyz
  x,y,z
_cell_length_a	17.019311
_cell_length_b	17.038272
_cell_length_c	9.565339
_cell_angle_alpha	89.999972
_cell_angle_beta	86.116730
_cell_angle_gamma	87.245400
loop_
_atom_site_label
_atom_site_type_symbol
_atom_site_fract_x
_atom_site_fract_y
_atom_site_fract_z
O1	O	1.053363	0.099620	-0.243075
O2	O	1.553363	0.599620	0.256925
O3	O	0.824550	0.112315	-0.215531
O4	O	1.324550	0.612315	0.284469
O5	O	0.937597	-0.007847	-0.229128
O6	O	1.437597	0.492153	0.270872
O7	O	0.940316	0.219782	-0.229478
O8	O	1.440316	0.719782	0.270522
O9	O	0.937588	-0.007839	0.003393
O10	O	1.437588	0.492161	0.503393
O11	O	0.824541	0.112323	0.016990
O12	O	1.324541	0.612323	0.516990
O13	O	1.053354	0.099627	-0.010554
O14	O	1.553354	0.599627	0.489446
Zn15	Zn	0.938946	0.105976	0.040136
Zn16	Zn	1.438946	0.605976	0.540136
Zn17	Zn	0.938958	0.105966	-0.266221
Zn18	Zn	1.438958	0.605966	0.233779
O19	O	0.940307	0.219789	0.003043
O20	O	1.440307	0.719789	0.503043
C21	C	0.795124	0.111837	-0.095729
C22	C	1.295124	0.611837	0.404271
C23	C	0.707457	0.110390	-0.085176
C24	C	1.207457	0.610390	0.414824
C25	C	0.211627	0.102236	-0.019133
C26	C	0.711627	0.602236	0.480867
C27	C	0.293999	0.103595	-0.029051
C28	C	0.793999	0.603595	0.470949
C29	C	0.335191	0.104265	-0.160760
C30	C	0.835191	0.604265	0.339240
C31	C	0.294006	0.103583	-0.282558
C32	C	0.794006	0.603583	0.217442
C33	C	0.211634	0.102230	-0.272638
C34	C	0.711634	0.602230	0.227362
C35	C	0.583900	0.108355	-0.197053
C36	C	1.083900	0.608355	0.302947
C37	C	0.666277	0.109707	-0.206964
C38	C	1.166277	0.609707	0.293036
C39	C	0.666265	0.109720	0.046544
C40	C	1.166265	0.609720	0.546544
C41	C	0.583893	0.108362	0.056452
C42	C	1.083893	0.608362	0.556452
C43	C	0.542714	0.107685	-0.065346
C44	C	1.042714	0.607685	0.434654
C45	C	0.419389	0.105651	-0.170902
C46	C	0.919389	0.605651	0.329098
C47	C	0.458517	0.106304	-0.055203
C48	C	0.958517	0.606304	0.444797
C49	C	0.935118	-0.036969	-0.112570
C50	C	1.435118	0.463031	0.387430
C51	C	0.927738	-0.123756	-0.111682
C52	C	1.427738	0.376244	0.388318
C53	C	0.995498	-0.173927	-0.119837
C54	C	1.495498	0.326073	0.380163
C55	C	0.988559	-0.255471	-0.119015
C56	C	1.488559	0.244529	0.380985
C57	C	0.913859	-0.286844	-0.110028
C58	C	1.413859	0.213156	0.389972
C59	C	0.846094	-0.236667	-0.101876
C60	C	1.346094	0.263333	0.398124
C61	C	0.853034	-0.155123	-0.102708
C62	C	1.353034	0.344877	0.397292
C63	C	0.889341	-0.532581	-0.107096
C64	C	1.389341	-0.032581	0.392904
C65	C	0.882406	-0.614131	-0.106260
C66	C	1.382406	-0.114131	0.393740
C67	C	1.024872	-0.632930	-0.123402
C68	C	1.524872	-0.132930	0.376598
C69	C	1.031805	-0.551384	-0.124224
C70	C	1.531805	-0.051384	0.375776
C71	C	0.964040	-0.501214	-0.116080
C72	C	1.464040	-0.001214	0.383920
C73	C	0.906764	-0.370195	-0.109183
C74	C	1.406764	0.129805	0.390817
C75	C	0.971136	-0.417864	-0.116935
C76	C	1.471136	0.082136	0.383065
C77	C	1.082780	0.100106	-0.130359
C78	C	1.582780	0.600106	0.369641
C79	C	1.170447	0.101552	-0.140921
C80	C	1.670447	0.601552	0.359079
C81	C	0.942786	0.248912	-0.113518
C82	C	1.442786	0.748912	0.386482
C83	C	0.950166	0.335698	-0.114415
C84	C	1.450166	0.835698	0.385585
N85	N	0.938944	0.105982	0.249216
N86	N	1.438944	0.605982	0.749216
N87	N	0.938966	0.105954	-0.475301
N88	N	1.438966	0.605954	0.024699
C89	C	0.886645	0.161535	0.346709
C90	C	1.386645	0.661535	0.846709
C91	C	0.958941	0.176627	0.431184
C92	C	1.458941	0.676627	0.931184
C93	C	0.866679	0.090897	0.442293
C94	C	1.366679	0.590897	0.942293
C95	C	1.011278	0.121109	0.331634
C96	C	1.511278	0.621109	0.831634
C97	C	0.918966	0.035349	0.342741
C98	C	1.418966	0.535349	0.842741
C99	C	0.991312	0.050410	0.427167
C100	C	1.491312	0.550410	0.927167
H101	H	0.327524	0.104150	0.070122
H102	H	0.827524	0.604150	0.570122
C103	C	1.077675	-0.139425	-0.129724
C104	C	1.577675	0.360575	0.370276
N105	N	1.139573	-0.113442	-0.137177
N106	N	1.639573	0.386558	0.362823
C107	C	0.826963	0.225058	0.298677
C108	C	1.326963	0.725058	0.798677
N109	N	0.782015	0.272906	0.262494
N110	N	1.282015	0.772906	0.762494
H111	H	0.327550	0.104133	-0.389799
H112	H	0.827550	0.604133	0.110201
C113	C	0.166337	0.101474	-0.406616
C114	C	0.666337	0.601474	0.093384
N115	N	0.132220	0.100907	-0.507533
N116	N	0.632220	0.600907	-0.007533
C117	C	0.800226	-0.648638	-0.096383
C118	C	1.300226	-0.148638	0.403617
N119	N	0.738332	-0.674628	-0.088945
N120	N	1.238332	-0.174628	0.411055
C121	C	1.063101	-0.310656	-0.127964
C122	C	1.563101	0.189344	0.372036
N123	N	1.119250	-0.352222	-0.134698
N124	N	1.619250	0.147778	0.365302
H125	H	0.550382	0.107801	-0.296230
H126	H	1.050382	0.607801	0.203770
C127	C	0.981784	0.257305	0.483787
C128	C	1.481784	0.757305	0.983787
N129	N	0.998983	0.318074	0.523409
N130	N	1.498983	0.818074	1.023409
C131	C	0.711586	0.110455	-0.351861
C132	C	1.211586	0.610455	0.148139
N133	N	0.745712	0.111022	-0.460991
N134	N	1.245712	0.611022	0.039009
C135	C	0.896088	-0.045305	0.290103
C136	C	1.396088	0.454695	0.790103
N137	N	0.878847	-0.106053	0.250454
N138	N	1.378847	0.393947	0.750454
C139	C	0.763922	-0.271179	-0.091978
C140	C	1.263922	0.228821	0.408022
N141	N	0.702029	-0.297173	-0.084512
N142	N	1.202029	0.202827	0.415488
C143	C	0.824595	-0.404713	-0.099268
C144	C	1.324595	0.095287	0.400732
N145	N	0.762706	-0.430715	-0.091794
N146	N	1.262706	0.069285	0.408206
C147	C	1.093876	0.138432	0.266591
C148	C	1.593876	0.638432	0.766591
N149	N	1.156087	0.151482	0.217597
N150	N	1.656087	0.651482	0.717597
C151	C	1.099408	-0.688123	-0.132373
C152	C	1.599408	-0.188123	0.367627
N153	N	1.155552	-0.729695	-0.139137
N154	N	1.655552	-0.229695	0.360863
C155	C	1.051144	-0.013070	0.474842
C156	C	1.551144	0.486930	0.974842
N157	N	1.096212	-0.060877	0.510759
N158	N	1.596212	0.439123	1.010759
C159	C	0.413203	0.105566	0.089673
C160	C	0.913203	0.605566	0.589673
N161	N	0.379066	0.105007	0.198794
N162	N	0.879066	0.605007	0.698794
H163	H	0.452937	0.106194	-0.278140
H164	H	0.952937	0.606194	0.221860
H165	H	1.092634	-0.525848	-0.131543
H166	H	1.592634	-0.025848	0.368457
H167	H	0.834161	-0.491742	-0.100463
H168	H	1.334161	0.008258	0.399537
H169	H	0.797856	-0.114274	-0.096068
H170	H	1.297856	0.385726	0.403932
H171	H	0.178094	0.101694	0.088119
H172	H	0.678094	0.601694	0.588119
H173	H	0.550361	0.107800	0.163703
H174	H	1.050361	0.607800	0.663703
H175	H	1.031956	-0.392317	-0.124284
H176	H	1.531956	0.107683	0.375716
H177	H	0.805556	0.078149	0.490616
H178	H	1.305556	0.578149	0.990616
H179	H	0.699802	0.110273	0.145704
H180	H	1.199802	0.610273	0.645704
