data_functionalizedCrystal
_audit_creation_method	'MofGen! by Chris Wilmer'
_symmetry_space_group_name_H-M	'P1'
_symmetry_Int_Tables_number	1
_symmetry_cell_setting	triclinic
loop_
_symmetry_equiv_pos_as_xyz
  x,y,z
_cell_length_a	18.215407
_cell_length_b	18.050590
_cell_length_c	18.215399
_cell_angle_alpha	89.971265
_cell_angle_beta	89.980167
_cell_angle_gamma	90.019000
loop_
_atom_site_label
_atom_site_type_symbol
_atom_site_fract_x
_atom_site_fract_y
_atom_site_fract_z
Zn1	Zn	1.125104	-0.295658	-0.416112
Zn2	Zn	1.125026	-0.419853	-0.293044
Zn3	Zn	1.002037	-0.295682	-0.293059
Zn4	Zn	1.002016	-0.419812	-0.416069
O5	O	1.063546	-0.357751	-0.354571
O6	O	1.228078	-0.312140	-0.399798
O7	O	1.108687	-0.403409	-0.190062
O8	O	1.018403	-0.191755	-0.309407
O9	O	1.228021	-0.403386	-0.309381
O10	O	1.108820	-0.191737	-0.399813
O11	O	1.018328	-0.312181	-0.190073
O12	O	0.899050	-0.312141	-0.309365
O13	O	1.018368	-0.403315	-0.519059
O14	O	0.899035	-0.403339	-0.399740
O15	O	1.108801	-0.312100	-0.519090
O16	O	1.108668	-0.523772	-0.309339
O17	O	1.018293	-0.523742	-0.399725
C18	C	0.872340	-0.357739	-0.354550
C19	C	0.790541	-0.357751	-0.354558
C20	C	1.063489	-0.550704	-0.354542
C21	C	1.063533	-0.633249	-0.354554
C22	C	0.602358	-0.405312	-0.401557
C23	C	0.525500	-0.405315	-0.401566
C24	C	0.525486	-0.310204	-0.307601
C25	C	0.602343	-0.310199	-0.307596
C26	C	0.640777	-0.357757	-0.354573
C27	C	0.487061	-0.357765	-0.354587
C28	C	0.403728	-0.357767	-0.354597
C29	C	0.724116	-0.357754	-0.354565
C30	C	1.112781	-0.832689	-0.305470
C31	C	1.130758	-0.882022	-0.372637
C32	C	1.063574	-0.784380	-0.354583
C33	C	1.045672	-0.882129	-0.287446
C34	C	1.063616	-0.930365	-0.354605
C35	C	1.081586	-0.832624	-0.421785
C36	C	0.996469	-0.832728	-0.336549
C37	C	1.014421	-0.882038	-0.403762
C38	C	1.063552	-0.700281	-0.354569
C39	C	1.063638	-1.014461	-0.354627
C40	C	1.255499	-0.357765	-0.354593
C41	C	1.337298	-0.357770	-0.354602
C42	C	1.063591	-0.357700	-0.546524
C43	C	1.063610	-0.357678	-0.628323
C44	C	1.063623	-0.164046	-0.354616
C45	C	1.063656	-0.081500	-0.354636
C46	C	1.110715	-0.310138	-0.816535
C47	C	1.110724	-0.310117	-0.893393
C48	C	1.016557	-0.405104	-0.893349
C49	C	1.016545	-0.405121	-0.816492
C50	C	1.063628	-0.357639	-0.778086
C51	C	1.063649	-0.357600	-0.931803
C52	C	1.063658	-0.357577	-1.015136
C53	C	1.063618	-0.357661	-0.694747
C54	C	1.063544	-0.357749	-0.163365
C55	C	1.063667	-0.357561	-0.081566
H56	H	0.494222	-0.444038	-0.439827
N57	N	0.643778	-0.258901	-0.256913
H58	H	0.675646	-0.289034	-0.222754
H59	H	0.675642	-0.224529	-0.286931
H60	H	0.494183	-0.271485	-0.269352
H61	H	0.939718	-0.811057	-0.321261
H62	H	1.154407	-0.811021	-0.263980
H63	H	1.187525	-0.903676	-0.387905
H64	H	1.096688	-0.810972	-0.478620
H65	H	0.972826	-0.903569	-0.445353
H66	H	1.149051	-0.271474	-0.785267
N67	N	1.025588	-0.910936	-0.212231
H68	H	1.062778	-0.892985	-0.175168
H69	H	0.975233	-0.892229	-0.198283
N70	N	1.161501	-0.258875	-0.934863
H71	H	1.191322	-0.228798	-0.898869
H72	H	1.195554	-0.289091	-0.966756
H73	H	0.978225	-0.443763	-0.924628
H74	H	0.633649	-0.444035	-0.439811
H75	H	0.978196	-0.443802	-0.785186
