data_functionalizedCrystal
_audit_creation_method	'MofGen! by Chris Wilmer'
_symmetry_space_group_name_H-M	'P1'
_symmetry_Int_Tables_number	1
_symmetry_cell_setting	triclinic
loop_
_symmetry_equiv_pos_as_xyz
  x,y,z
_cell_length_a	12.594516
_cell_length_b	16.120530
_cell_length_c	16.120256
_cell_angle_alpha	89.871735
_cell_angle_beta	92.879514
_cell_angle_gamma	92.888148
loop_
_atom_site_label
_atom_site_type_symbol
_atom_site_fract_x
_atom_site_fract_y
_atom_site_fract_z
Zn1	Zn	-0.539270	-1.247493	-0.534605
Zn2	Zn	-0.205937	-0.914160	-0.201272
Zn3	Zn	0.127397	-0.580826	0.132062
Zn4	Zn	-0.708708	-1.254460	-0.395559
Zn5	Zn	-0.375374	-0.921127	-0.062225
Zn6	Zn	-0.042041	-0.587794	0.271108
Zn7	Zn	-0.521278	-1.115482	-0.388521
Zn8	Zn	-0.187945	-0.782148	-0.055188
Zn9	Zn	0.145389	-0.448815	0.278146
Zn10	Zn	-0.707733	-1.108417	-0.527528
Zn11	Zn	-0.374399	-0.775083	-0.194195
Zn12	Zn	-0.041066	-0.441750	0.139138
O13	O	-0.619247	-1.181463	-0.461553
O14	O	-0.285914	-0.848130	-0.128220
O15	O	0.047420	-0.514796	0.205113
O16	O	-0.569684	-1.364784	-0.522067
O17	O	-0.236351	-1.031451	-0.188734
O18	O	0.096983	-0.698118	0.144600
O19	O	-0.676723	-1.241897	-0.278259
O20	O	-0.343390	-0.908564	0.055075
O21	O	-0.010056	-0.575231	0.388408
O22	O	-0.374723	-1.133034	-0.407916
O23	O	-0.041389	-0.799701	-0.074582
O24	O	0.291944	-0.466367	0.258751
O25	O	-0.694169	-1.369903	-0.419910
O26	O	-0.360836	-1.036570	-0.086577
O27	O	-0.027502	-0.703237	0.246756
O28	O	-0.387941	-1.230022	-0.515243
O29	O	-0.054608	-0.896689	-0.181909
O30	O	0.278725	-0.563355	0.151424
O31	O	-0.539019	-1.139790	-0.273088
O32	O	-0.205686	-0.806457	0.060245
O33	O	0.127647	-0.473123	0.393579
O34	O	-0.538074	-0.998177	-0.401054
O35	O	-0.204741	-0.664844	-0.067721
O36	O	0.128593	-0.331511	0.265613
O37	O	-0.692507	-1.120993	-0.644834
O38	O	-0.359174	-0.787659	-0.311500
O39	O	-0.025841	-0.454326	0.021833
O40	O	-0.675061	-0.992987	-0.503182
O41	O	-0.341728	-0.659653	-0.169849
O42	O	-0.008394	-0.326320	0.163485
O43	O	-0.568738	-1.223172	-0.650033
O44	O	-0.235405	-0.889838	-0.316699
O45	O	0.097928	-0.556505	0.016634
O46	O	-0.857520	-1.235047	-0.413048
O47	O	-0.524187	-0.901713	-0.079715
O48	O	-0.190854	-0.568380	0.253618
O49	O	-0.856804	-1.127749	-0.510006
O50	O	-0.523471	-0.794416	-0.176673
O51	O	-0.190137	-0.461082	0.156661
C52	C	-0.604510	-0.965409	-0.450587
C53	C	-0.271177	-0.632076	-0.117253
C54	C	0.062157	-0.298743	0.216080
C55	C	-0.598232	-0.872980	-0.445915
C56	C	-0.264899	-0.539646	-0.112582
C57	C	0.068434	-0.206313	0.220752
C58	C	-0.895784	-1.181409	-0.461542
C59	C	-0.562450	-0.848075	-0.128209
C60	C	-0.229117	-0.514742	0.205124
C61	C	-1.014094	-1.181460	-0.461569
C62	C	-0.680761	-0.848127	-0.128236
C63	C	-0.347428	-0.514794	0.205097
C64	C	-0.632521	-1.170517	-0.678449
C65	C	-0.299188	-0.837184	-0.345116
C66	C	0.034146	-0.503850	-0.011783
C67	C	-0.638178	-1.165852	-0.770877
C68	C	-0.304844	-0.832519	-0.437544
C69	C	0.028489	-0.499186	-0.104211
C70	C	-1.082994	-1.123098	-0.514265
C71	C	-0.749660	-0.789764	-0.180932
C72	C	-0.416327	-0.456431	0.152401
C73	C	-1.147804	-1.106685	-0.437361
C74	C	-0.814471	-0.773352	-0.104028
C75	C	-0.481137	-0.440019	0.229306
C76	C	-1.160089	-1.197948	-0.538490
C77	C	-0.826756	-0.864614	-0.205157
C78	C	-0.493422	-0.531281	0.128176
C79	C	-1.077341	-1.165010	-0.384623
C80	C	-0.744008	-0.831677	-0.051290
C81	C	-0.410675	-0.498343	0.282044
C82	C	-1.089625	-1.256305	-0.485805
C83	C	-0.756292	-0.922972	-0.152472
C84	C	-0.422959	-0.589638	0.180862
C85	C	-1.154402	-1.239924	-0.408850
C86	C	-0.821069	-0.906591	-0.075517
C87	C	-0.487736	-0.573258	0.257817
C88	C	-0.341633	-1.181539	-0.461584
C89	C	-0.008300	-0.848206	-0.128250
C90	C	0.325034	-0.514872	0.205083
C91	C	-0.223331	-1.181571	-0.461596
C92	C	0.110003	-0.848238	-0.128263
C93	C	0.443336	-0.514905	0.205070
C94	C	-0.634042	-1.398360	-0.472563
C95	C	-0.300709	-1.065027	-0.139230
C96	C	0.032624	-0.731693	0.194104
C97	C	-0.640347	-1.490789	-0.477255
C98	C	-0.307014	-1.157455	-0.143921
C99	C	0.026320	-0.824122	0.189412
C100	C	-0.586747	-0.703749	-0.437393
C101	C	-0.253413	-0.370416	-0.104060
C102	C	0.079920	-0.037082	0.229274
C103	C	-0.651829	-0.660014	-0.485774
C104	C	-0.318496	-0.326681	-0.152441
C105	C	0.014837	0.006652	0.180892
C106	C	-0.645439	-0.565848	-0.481033
C107	C	-0.312105	-0.232515	-0.147699
C108	C	0.021228	0.100818	0.185634
C109	C	-0.593136	-0.797923	-0.442134
C110	C	-0.259803	-0.464590	-0.108800
C111	C	0.073531	-0.131257	0.224533
C112	C	-0.589721	-1.205786	-0.983858
C113	C	-0.256388	-0.872453	-0.650525
C114	C	0.076945	-0.539120	-0.317191
C115	C	-0.648459	-1.157308	-0.940098
C116	C	-0.315126	-0.823975	-0.606765
C117	C	0.018208	-0.490642	-0.273432
C118	C	-0.642737	-1.162064	-0.845935
C119	C	-0.309403	-0.828730	-0.512602
C120	C	0.023930	-0.495397	-0.179268
C121	C	-0.595442	-1.201032	-1.078030
C122	C	-0.262109	-0.867699	-0.744696
C123	C	0.071224	-0.534365	-0.411363
C124	C	-0.605951	-1.192414	-0.245503
C125	C	-0.272618	-0.859081	0.087830
C126	C	0.060716	-0.525748	0.421163
C127	C	-0.600006	-1.197240	-0.153084
C128	C	-0.266672	-0.863906	0.180249
C129	C	0.066661	-0.530573	0.513583
H130	H	-1.051642	-1.073662	-0.558756
H131	H	-0.718309	-0.740328	-0.225423
H132	H	-0.384975	-0.406995	0.107911
H133	H	-0.535142	-1.250858	-0.950605
H134	H	-0.201808	-0.917525	-0.617272
H135	H	0.131525	-0.584192	-0.283938
C136	C	-1.182613	-1.021243	-0.409678
C137	C	-0.849280	-0.687910	-0.076344
C138	C	-0.515947	-0.354576	0.256989
N139	N	-1.208829	-0.956886	-0.388832
N140	N	-0.875495	-0.623553	-0.055499
N141	N	-0.542162	-0.290219	0.277835
H142	H	-1.041317	-1.151036	-0.319561
H143	H	-0.707984	-0.817703	0.013772
H144	H	-0.374651	-0.484369	0.347105
C145	C	-0.504999	-0.658794	-0.376624
C146	C	-0.171665	-0.325460	-0.043291
C147	C	0.161668	0.007873	0.290043
N148	N	-0.443430	-0.624924	-0.330851
N149	N	-0.110097	-0.291591	0.002482
N150	N	0.223236	0.041743	0.335816
C151	C	-0.733595	-0.704970	-0.546538
C152	C	-0.400262	-0.371637	-0.213204
C153	C	-0.066929	-0.038303	0.120129
N154	N	-0.795183	-0.738835	-0.592299
N155	N	-0.461850	-0.405501	-0.258966
N156	N	-0.128516	-0.072168	0.074367
C157	C	-0.722213	-1.096422	-0.985023
C158	C	-0.388879	-0.763089	-0.651689
C159	C	-0.055546	-0.429755	-0.318356
N160	N	-0.777767	-1.050568	-1.018864
N161	N	-0.444434	-0.717235	-0.685531
N162	N	-0.111100	-0.383902	-0.352197
H163	H	-1.185548	-1.289330	-0.364244
H164	H	-0.852215	-0.955997	-0.030911
H165	H	-0.518881	-0.622663	0.302422
H166	H	-1.196235	-1.211848	-0.603531
H167	H	-0.862902	-0.878515	-0.270197
H168	H	-0.529568	-0.545182	0.063136
C169	C	-1.054767	-1.341715	-0.513526
C170	C	-0.721433	-1.008381	-0.180192
C171	C	-0.388100	-0.675048	0.153141
N172	N	-1.028503	-1.406042	-0.534416
N173	N	-0.695170	-1.072709	-0.201083
N174	N	-0.361837	-0.739376	0.132250
