data_functionalizedCrystal
_audit_creation_method	'MofGen! by Chris Wilmer'
_symmetry_space_group_name_H-M	'P1'
_symmetry_Int_Tables_number	1
_symmetry_cell_setting	triclinic
loop_
_symmetry_equiv_pos_as_xyz
  x,y,z
_cell_length_a	27.732064
_cell_length_b	27.732048
_cell_length_c	22.610064
_cell_angle_alpha	89.999096
_cell_angle_beta	89.999473
_cell_angle_gamma	82.646040
loop_
_atom_site_label
_atom_site_type_symbol
_atom_site_fract_x
_atom_site_fract_y
_atom_site_fract_z
O1	O	0.640925	0.057549	-0.049085
O2	O	1.140925	0.557549	0.450915
O3	O	0.500133	0.066286	-0.049111
O4	O	1.000133	0.566286	0.450889
O5	O	0.574902	-0.008479	-0.049086
O6	O	1.074902	0.491521	0.450914
O7	O	0.566156	0.132314	-0.049110
O8	O	1.066156	0.632314	0.450890
O9	O	0.574889	-0.008468	0.049283
O10	O	1.074889	0.491532	0.549283
O11	O	0.500120	0.066297	0.049259
O12	O	1.000120	0.566297	0.549259
O13	O	0.640912	0.057560	0.049284
O14	O	1.140912	0.557560	0.549284
Zn15	Zn	0.570514	0.061930	0.064889
Zn16	Zn	1.070514	0.561930	0.564889
Zn17	Zn	0.570531	0.061915	-0.064716
Zn18	Zn	1.070531	0.561915	0.435284
O19	O	0.566143	0.132325	0.049259
O20	O	1.066143	0.632325	0.549259
C21	C	0.482120	0.066106	0.000071
C22	C	0.982120	0.566106	0.500071
C23	C	0.428465	0.065551	0.000062
C24	C	0.928465	0.565551	0.500062
C25	C	0.051392	0.017583	0.000104
C26	C	0.551392	0.517583	0.500104
C27	C	0.253053	0.019630	0.000088
C28	C	0.753053	0.519630	0.500088
O29	O	0.284305	-0.017591	0.000116
O30	O	0.784305	0.482409	0.500116
N31	N	0.272180	0.063964	0.000078
N32	N	0.772180	0.563964	0.500078
C33	C	0.240889	0.107790	0.000075
C34	C	0.740889	0.607790	0.500075
O35	O	0.261785	0.145546	0.000072
O36	O	0.761785	0.645546	0.500072
C37	C	0.039230	0.105743	0.000095
C38	C	0.539230	0.605743	0.500095
C39	C	0.020105	0.061406	0.000100
C40	C	0.520105	0.561406	0.500100
C41	C	0.032267	-0.026750	0.000109
C42	C	0.532267	0.473250	0.500109
C43	C	-0.018145	-0.027261	0.000109
C44	C	0.481855	0.472739	0.500109
C45	C	-0.049432	0.016561	0.000105
C46	C	0.450568	0.516561	0.500105
C47	C	-0.030307	0.060895	0.000100
C48	C	0.469693	0.560895	0.500100
C49	C	0.007940	0.149568	0.000097
C50	C	0.507940	0.649568	0.500097
C51	C	-0.042478	0.149053	0.000104
C52	C	0.457522	0.649053	0.500104
C53	C	-0.061602	0.104716	0.000108
C54	C	0.438398	0.604716	0.500108
C55	C	-0.112006	0.104206	0.000097
C56	C	0.387994	0.604206	0.500097
N57	N	-0.131134	0.059872	0.000107
N58	N	0.368866	0.559872	0.500107
C59	C	-0.099846	0.016049	0.000111
C60	C	0.400154	0.516049	0.500111
C61	C	0.346763	0.108861	0.000064
C62	C	0.846763	0.608861	0.500064
C63	C	0.397178	0.109373	0.000058
C64	C	0.897178	0.609373	0.500058
C65	C	0.409338	0.021213	0.000071
C66	C	0.909338	0.521213	0.500071
C67	C	0.358923	0.020701	0.000073
C68	C	0.858923	0.520701	0.500073
C69	C	0.327636	0.064527	0.000074
C70	C	0.827636	0.564527	0.500074
C71	C	-0.205716	0.014979	0.000112
C72	C	0.294284	0.514979	0.500112
C73	C	-0.256133	0.014472	0.000110
C74	C	0.243867	0.514472	0.500110
C75	C	-0.268289	0.102632	0.000100
C76	C	0.231711	0.602632	0.500100
C77	C	-0.217876	0.103140	0.000098
C78	C	0.282124	0.603140	0.500098
C79	C	-0.186590	0.059309	0.000107
C80	C	0.313410	0.559309	0.500107
O81	O	-0.143287	0.141407	0.000075
O82	O	0.356713	0.641407	0.500075
O83	O	-0.120752	-0.021701	0.000127
O84	O	0.379248	0.478299	0.500127
C85	C	0.101804	0.018094	0.000103
C86	C	0.601804	0.518094	0.500103
C87	C	0.120930	0.062428	0.000098
C88	C	0.620930	0.562428	0.500098
C89	C	0.089642	0.106250	0.000094
C90	C	0.589642	0.606250	0.500094
C91	C	0.171344	0.062940	0.000092
C92	C	0.671344	0.562940	0.500092
C93	C	0.202631	0.019117	0.000096
C94	C	0.702631	0.519117	0.500096
C95	C	0.183504	-0.025217	0.000106
C96	C	0.683504	0.474783	0.500106
C97	C	0.133092	-0.025728	0.000107
C98	C	0.633092	0.474272	0.500107
C99	C	0.108770	0.150585	0.000084
C100	C	0.608770	0.650585	0.500084
C101	C	0.159183	0.151092	0.000082
C102	C	0.659183	0.651092	0.500082
C103	C	0.190470	0.107270	0.000087
C104	C	0.690470	0.607270	0.500087
C105	C	0.574712	-0.026481	0.000100
C106	C	1.074712	0.473519	0.500100
C107	C	0.574159	-0.080136	0.000105
C108	C	1.074159	0.419864	0.500105
C109	C	0.614862	-0.418948	0.000082
C110	C	1.114862	0.081052	0.500082
C111	C	0.612811	-0.620608	0.000073
C112	C	1.112811	-0.120608	0.500073
O113	O	0.650032	-0.651862	0.000054
O114	O	1.150032	-0.151862	0.500054
N115	N	0.568476	-0.639735	0.000066
N116	N	1.068476	-0.139735	0.500066
C117	C	0.524651	-0.608442	0.000057
C118	C	1.024651	-0.108442	0.500057
O119	O	0.486895	-0.629338	0.000044
O120	O	0.986895	-0.129338	0.500044
C121	C	0.526703	-0.406784	0.000061
C122	C	1.026703	0.093216	0.500061
C123	C	0.571040	-0.387660	0.000075
C124	C	1.071040	0.112340	0.500075
C125	C	0.659196	-0.399824	0.000095
C126	C	1.159196	0.100176	0.500095
C127	C	0.659709	-0.349412	0.000100
C128	C	1.159709	0.150588	0.500100
C129	C	0.615887	-0.318124	0.000093
C130	C	1.115887	0.181876	0.500093
C131	C	0.571553	-0.337248	0.000080
C132	C	1.071553	0.162752	0.500080
C133	C	0.482878	-0.375493	0.000048
C134	C	0.982878	0.124507	0.500048
C135	C	0.483395	-0.325075	0.000047
C136	C	0.983395	0.174925	0.500047
C137	C	0.527733	-0.305952	0.000061
C138	C	1.027733	0.194048	0.500061
C139	C	0.528243	-0.255548	0.000078
C140	C	1.028243	0.244452	0.500078
N141	N	0.572578	-0.236422	0.000085
N142	N	1.072578	0.263578	0.500085
C143	C	0.616400	-0.267710	0.000093
C144	C	1.116400	0.232290	0.500093
C145	C	0.523577	-0.714317	0.000056
C146	C	1.023577	-0.214317	0.500056
C147	C	0.523064	-0.764731	0.000056
C148	C	1.023064	-0.264731	0.500056
C149	C	0.611225	-0.776893	0.000071
C150	C	1.111225	-0.276893	0.500071
C151	C	0.611737	-0.726478	0.000075
C152	C	1.111737	-0.226478	0.500075
C153	C	0.567912	-0.695190	0.000063
C154	C	1.067912	-0.195190	0.500063
C155	C	0.617472	-0.161841	0.000105
C156	C	1.117472	0.338159	0.500105
C157	C	0.617981	-0.111424	0.000112
C158	C	1.117981	0.388576	0.500112
C159	C	0.529821	-0.099266	0.000094
C160	C	1.029821	0.400734	0.500094
C161	C	0.529312	-0.149679	0.000089
C162	C	1.029312	0.350321	0.500089
C163	C	0.573142	-0.180965	0.000093
C164	C	1.073142	0.319035	0.500093
O165	O	0.491043	-0.224267	0.000091
O166	O	0.991043	0.275733	0.500091
O167	O	0.654151	-0.246805	0.000092
O168	O	1.154151	0.253195	0.500092
C169	C	0.614350	-0.469360	0.000077
C170	C	1.114350	0.030640	0.500077
C171	C	0.570016	-0.488484	0.000064
C172	C	1.070016	0.011516	0.500064
C173	C	0.526194	-0.457196	0.000057
C174	C	1.026194	0.042804	0.500057
C175	C	0.569503	-0.538899	0.000064
C176	C	1.069503	-0.038899	0.500064
C177	C	0.613325	-0.570187	0.000071
C178	C	1.113325	-0.070187	0.500071
C179	C	0.657660	-0.551060	0.000079
C180	C	1.157660	-0.051060	0.500079
C181	C	0.658172	-0.500648	0.000084
C182	C	1.158172	-0.000648	0.500084
C183	C	0.481859	-0.476323	0.000049
C184	C	0.981859	0.023677	0.500049
C185	C	0.481351	-0.526735	0.000044
C186	C	0.981351	-0.026735	0.500044
C187	C	0.525172	-0.558023	0.000052
C188	C	1.025172	-0.058023	0.500052
C189	C	0.658925	0.057739	0.000101
C190	C	1.158925	0.557739	0.500101
C191	C	0.712580	0.058295	0.000106
C192	C	1.212580	0.558295	0.500106
C193	C	0.566333	0.150326	0.000072
C194	C	1.066333	0.650326	0.500072
C195	C	0.566886	0.203981	0.000063
C196	C	1.066886	0.703981	0.500063
N197	N	0.570505	0.061939	0.153342
N198	N	1.070505	0.561939	0.653342
N199	N	0.570543	0.061902	-0.153169
N200	N	1.070543	0.561902	0.346831
C201	C	0.603640	0.028814	0.561994
C202	C	1.103640	0.528814	1.061994
C203	C	0.603643	0.028811	0.623914
C204	C	1.103643	0.528811	1.123914
O205	O	0.631795	0.000654	0.655942
O206	O	1.131795	0.500654	1.155942
N207	N	0.570531	0.061905	0.654879
N208	N	1.070531	0.561905	1.154879
C209	C	0.537411	0.095002	0.623921
C210	C	1.037411	0.595002	1.123921
O211	O	0.509247	0.123151	0.655945
O212	O	1.009247	0.623151	1.155945
C213	C	0.537407	0.095003	0.562002
C214	C	1.037407	0.595003	1.062002
C215	C	0.570524	0.061910	0.531040
C216	C	1.070524	0.561910	1.031040
C217	C	0.636755	-0.004277	0.531032
C218	C	1.136755	0.495723	1.031032
C219	C	0.636753	-0.004272	0.469117
C220	C	1.136753	0.495728	0.969117
C221	C	0.603636	0.028823	0.438163
C222	C	1.103636	0.528823	0.938163
C223	C	0.570522	0.061914	0.469125
C224	C	1.070522	0.561914	0.969125
C225	C	0.504285	0.128097	0.531045
C226	C	1.004285	0.628097	1.031045
C227	C	0.504283	0.128095	0.469122
C228	C	1.004283	0.628095	0.969122
C229	C	0.537400	0.095002	0.438160
C230	C	1.037400	0.595002	0.938160
C231	C	0.537404	0.095013	0.376255
C232	C	1.037404	0.595013	0.876255
N233	N	0.570516	0.061919	0.345290
N234	N	1.070516	0.561919	0.845290
C235	C	0.603632	0.028824	0.376244
C236	C	1.103632	0.528824	0.876244
C237	C	0.537422	0.094997	0.753954
C238	C	1.037422	0.594997	1.253954
C239	C	0.537429	0.094999	0.815872
C240	C	1.037429	0.594999	1.315872
C241	C	0.603660	0.028807	0.815861
C242	C	1.103660	0.528807	1.315861
C243	C	0.603655	0.028808	0.753942
C244	C	1.103655	0.528808	1.253942
C245	C	0.570534	0.061903	0.722990
C246	C	1.070534	0.561903	1.222990
C247	C	0.603625	0.028836	0.246217
C248	C	1.103625	0.528836	0.746217
C249	C	0.603622	0.028844	0.184296
C250	C	1.103622	0.528844	0.684296
C251	C	0.537389	0.095034	0.184312
C252	C	1.037389	0.595034	0.684312
C253	C	0.537394	0.095027	0.246228
C254	C	1.037394	0.595027	0.746228
C255	C	0.570514	0.061924	0.277179
C256	C	1.070514	0.561924	0.777179
O257	O	0.509265	0.123154	0.344188
O258	O	1.009265	0.623154	0.844188
O259	O	0.631787	0.000676	0.344213
O260	O	1.131787	0.500676	0.844213
H261	H	0.083300	0.186271	0.000081
H262	H	0.583300	0.686271	0.500081
Br263	Br	0.648574	-0.016091	0.288211
Br264	Br	1.148574	0.483909	0.788211
Br265	Br	0.681703	-0.049198	0.573031
Br266	Br	1.181703	0.450802	1.073031
Br267	Br	-0.084936	0.208534	0.000109
Br268	Br	0.415064	0.708534	0.500109
Br269	Br	0.719884	-0.323468	0.000102
Br270	Br	1.219884	0.176532	0.500102
H271	H	0.694883	-0.425295	0.000099
H272	H	1.194883	0.074705	0.500099
Br273	Br	-0.191920	0.163312	0.000083
Br274	Br	0.308080	0.663312	0.500083
H275	H	0.117526	-0.061832	0.000111
H276	H	0.617526	0.438168	0.500111
Br277	Br	0.678157	-0.085474	0.000131
Br278	Br	1.178157	0.414526	0.500131
H279	H	0.208987	-0.060899	0.000106
H280	H	0.708987	0.439101	0.500106
Br281	Br	0.459328	0.173010	0.427119
Br282	Br	0.959328	0.673010	0.927119
Br283	Br	0.470351	-0.056794	0.000084
Br284	Br	0.970351	0.443206	0.500084
H285	H	0.694276	-0.485083	0.000095
H286	H	1.194276	0.014917	0.500095
H287	H	-0.033711	-0.063365	0.000115
H288	H	0.466289	0.436635	0.500115
Br289	Br	0.074720	-0.086232	0.000116
Br290	Br	0.574720	0.413768	0.500116
Br291	Br	0.304309	0.168345	0.000061
Br292	Br	0.804309	0.668345	0.500061
H293	H	0.630624	0.001859	0.841075
H294	H	1.130624	0.501859	1.341075
H295	H	0.446173	-0.450852	0.000042
H296	H	0.946173	0.049148	0.500042
Br297	Br	0.676956	-0.204293	0.000108
Br298	Br	1.176956	0.295707	0.500108
Br299	Br	-0.282084	-0.045704	0.000110
Br300	Br	0.217916	0.454296	0.500110
Br301	Br	-0.310759	0.162103	0.000090
Br302	Br	0.189241	0.662103	0.500090
H303	H	0.647841	-0.710911	0.000086
H304	H	1.147841	-0.210911	0.500086
Br305	Br	0.033881	0.209744	0.000090
Br306	Br	0.533881	0.709744	0.500090
Br307	Br	0.462889	-0.790678	0.000052
Br308	Br	0.962889	-0.290678	0.500052
Br309	Br	0.464094	-0.671861	0.000038
Br310	Br	0.964094	-0.171861	0.500038
Br311	Br	0.492490	0.139921	0.857885
Br312	Br	0.992490	0.639921	1.357885
H313	H	0.646906	-0.802377	0.000077
H314	H	1.146906	-0.302377	0.500077
Br315	Br	0.492454	0.139947	0.288246
Br316	Br	0.992454	0.639947	0.788246
Br317	Br	0.332974	-0.039472	0.000080
Br318	Br	0.832974	0.460528	0.500080
Br319	Br	0.422702	-0.401432	0.000027
Br320	Br	0.922702	0.098568	0.500027
H321	H	0.174748	0.187200	0.000075
H322	H	0.674748	0.687200	0.500075
H323	H	-0.180248	-0.020712	0.000119
H324	H	0.319752	0.479288	0.500119
Br325	Br	0.459338	0.173011	0.573052
Br326	Br	0.959338	0.673011	1.073052
H327	H	0.630592	0.001895	0.159089
H328	H	1.130592	0.501895	0.659089
Br329	Br	0.421172	-0.552681	0.000031
Br330	Br	0.921172	-0.052681	0.500031
H331	H	0.412744	0.145477	0.000046
H332	H	0.912744	0.645477	0.500046
Br333	Br	0.423915	-0.282616	0.000028
Br334	Br	0.923915	0.217384	0.500028
H335	H	0.493209	-0.165249	0.000095
H336	H	0.993209	0.334751	0.500095
H337	H	0.663718	-0.031221	0.443911
H338	H	1.163718	0.468779	0.943911
H339	H	0.434821	-0.014469	0.000073
H340	H	0.934821	0.485531	0.500073
Br341	Br	0.717131	-0.593533	0.000093
Br342	Br	1.217131	-0.093533	0.500093
Br343	Br	0.648602	-0.016106	0.711930
Br344	Br	1.148602	0.483894	1.211930
Br345	Br	0.492471	0.139919	0.711953
Br346	Br	0.992471	0.639919	1.211953
Br347	Br	0.492448	0.139949	0.142294
Br348	Br	0.992448	0.639949	0.642294
