data_functionalizedCrystal
_audit_creation_method	'MofGen! by Chris Wilmer'
_symmetry_space_group_name_H-M	'P1'
_symmetry_Int_Tables_number	1
_symmetry_cell_setting	triclinic
loop_
_symmetry_equiv_pos_as_xyz
  x,y,z
_cell_length_a	21.395362
_cell_length_b	15.297327
_cell_length_c	21.395355
_cell_angle_alpha	99.659679
_cell_angle_beta	89.956060
_cell_angle_gamma	99.725883
loop_
_atom_site_label
_atom_site_type_symbol
_atom_site_fract_x
_atom_site_fract_y
_atom_site_fract_z
Zn1	Zn	0.914743	-0.358918	-0.397693
Zn2	Zn	0.896524	-0.509774	-0.311034
Zn3	Zn	0.809953	-0.358960	-0.292899
Zn4	Zn	0.791803	-0.509792	-0.415741
O5	O	0.853256	-0.434361	-0.354342
O6	O	1.000007	-0.378904	-0.386234
O7	O	0.885011	-0.489778	-0.220951
O8	O	0.839075	-0.232697	-0.291658
O9	O	0.986621	-0.489737	-0.322566
O10	O	0.916063	-0.232666	-0.368649
O11	O	0.821408	-0.378975	-0.207628
O12	O	0.719864	-0.378993	-0.309158
O13	O	0.808140	-0.489769	-0.501023
O14	O	0.706530	-0.489810	-0.399409
O15	O	0.898464	-0.378922	-0.487764
O16	O	0.867411	-0.636034	-0.340066
O17	O	0.790473	-0.636048	-0.416993
C18	C	0.690462	-0.434409	-0.354275
C19	C	0.620816	-0.434451	-0.354263
C20	C	0.825013	-0.668778	-0.382470
C21	C	0.812988	-0.769063	-0.394524
C22	C	0.581167	-0.492229	-0.401206
C23	C	0.515734	-0.492207	-0.401232
C24	C	0.489952	-0.434416	-0.354304
C25	C	0.529610	-0.376627	-0.307357
C26	C	0.595042	-0.376644	-0.307337
C27	C	0.387100	-0.427148	-0.297026
C28	C	0.321669	-0.427137	-0.297046
C29	C	0.288138	-0.434357	-0.354366
C30	C	0.320045	-0.441608	-0.411670
C31	C	0.385477	-0.441625	-0.411650
C32	C	0.419003	-0.434390	-0.354321
C33	C	0.177539	-0.492115	-0.401340
C34	C	0.112106	-0.492086	-0.401366
C35	C	0.125983	-0.376510	-0.307486
C36	C	0.191415	-0.376534	-0.307465
C37	C	0.217189	-0.434341	-0.354392
C38	C	0.939459	-1.051594	-0.268402
C39	C	0.950757	-0.957372	-0.257073
C40	C	0.916316	-0.910290	-0.291435
C41	C	0.870575	-0.957440	-0.337127
C42	C	0.859272	-1.051671	-0.348454
C43	C	0.836129	-0.910367	-0.371487
C44	C	0.790387	-0.957517	-0.417179
C45	C	0.779087	-1.051739	-0.428503
C46	C	0.813528	-1.098821	-0.394142
C47	C	0.847431	-0.816135	-0.360160
C48	C	0.767244	-0.816212	-0.440212
C49	C	0.755946	-0.910435	-0.451540
C50	C	1.016685	-0.434314	-0.354409
C51	C	1.086328	-0.434294	-0.354438
C52	C	0.853310	-0.434343	-0.517763
C53	C	0.853333	-0.434335	-0.587403
C54	C	0.881626	-0.199029	-0.326118
C55	C	0.893716	-0.098744	-0.314090
C56	C	0.900363	-0.376615	-0.613213
C57	C	0.900367	-0.376576	-0.678643
C58	C	0.853345	-0.434273	-0.718264
C59	C	0.806307	-0.491998	-0.692447
C60	C	0.806301	-0.492029	-0.627017
C61	C	0.838610	-0.515514	-0.831685
C62	C	0.838620	-0.515485	-0.897115
C63	C	0.853361	-0.434178	-0.920074
C64	C	0.868104	-0.352898	-0.877594
C65	C	0.868098	-0.352928	-0.812164
C66	C	0.853346	-0.434246	-0.789213
C67	C	0.900398	-0.376411	-1.016830
C68	C	0.900397	-0.376370	-1.082262
C69	C	0.806339	-0.491801	-1.096065
C70	C	0.806338	-0.491833	-1.030634
C71	C	0.853370	-0.434139	-0.991020
C72	C	0.853246	-0.434314	-0.191548
C73	C	0.853374	-0.434068	-0.121878
H74	H	0.483445	-0.539257	-0.439461
H75	H	0.411453	-0.447526	-0.458309
N76	N	0.755578	-0.554299	-0.599179
H77	H	0.762712	-0.545566	-0.551718
H78	H	0.712522	-0.540264	-0.608894
N79	N	0.608965	-0.554575	-0.451818
H80	H	0.573915	-0.591174	-0.481561
H81	H	0.640575	-0.517921	-0.476450
N82	N	0.951100	-0.314321	-0.706486
H83	H	0.975713	-0.350975	-0.738057
H84	H	0.930639	-0.272512	-0.728561
N85	N	0.884000	-0.265271	-0.766347
H86	H	0.893341	-0.213755	-0.790814
H87	H	0.846832	-0.256917	-0.738166
H88	H	0.295694	-0.421238	-0.250386
N89	N	0.069337	-0.554414	-0.451997
H90	H	0.046645	-0.517809	-0.476697
H91	H	0.095638	-0.591023	-0.481673
N92	N	0.822720	-0.603150	-0.942925
H93	H	0.784261	-0.601929	-0.969901
H94	H	0.859908	-0.611543	-0.971071
N95	N	0.098188	-0.314179	-0.256866
H96	H	0.117373	-0.249738	-0.258935
H97	H	0.050722	-0.323008	-0.264029
H98	H	0.880108	-0.286690	-0.896285
N99	N	0.283891	-0.449402	-0.473501
H100	H	0.237599	-0.448286	-0.464821
H101	H	0.301659	-0.397290	-0.495315
N102	N	0.951129	-0.314105	-1.110092
H103	H	0.975746	-0.350748	-1.141666
H104	H	0.930667	-0.272291	-1.132160
N105	N	0.822718	-0.603218	-0.806929
H106	H	0.784251	-0.602039	-0.779609
H107	H	0.813420	-0.654651	-0.843801
H108	H	0.508615	-0.329571	-0.269149
H109	H	0.884674	-0.777754	-0.322957
N110	N	0.637813	-0.314317	-0.256707
H111	H	0.611555	-0.277697	-0.226984
H112	H	0.660500	-0.350983	-0.232058
N113	N	0.951120	-0.314186	-0.974098
H114	H	0.980912	-0.277607	-1.000379
H115	H	0.930647	-0.272455	-0.941916
N116	N	0.706608	-0.961300	-0.500815
H117	H	0.663803	-0.944981	-0.489067
H118	H	0.718343	-0.944842	-0.543600
H119	H	0.768044	-0.538841	-1.009621
N120	N	0.730096	-0.765436	-0.477275
H121	H	0.737842	-0.781789	-0.524020
H122	H	0.683373	-0.781927	-0.469416
H123	H	0.967493	-1.089937	-0.240426
H124	H	0.804334	-1.175544	-0.403365
N125	N	0.755617	-0.554026	-1.138789
H126	H	0.762756	-0.545247	-1.184155
H127	H	0.757599	-0.618467	-1.135100
N128	N	0.951087	-0.314389	-0.570487
H129	H	0.980881	-0.277816	-0.596770
H130	H	0.930615	-0.272652	-0.538307
H131	H	0.768020	-0.538973	-0.724710
N132	N	0.729743	-1.102596	-0.477774
H133	H	0.709638	-1.058475	-0.497823
H134	H	0.750547	-1.141636	-0.511494
H135	H	0.223698	-0.329489	-0.269237
N136	N	0.205344	-0.554456	-0.451952
H137	H	0.170295	-0.591052	-0.481698
H138	H	0.236957	-0.517800	-0.476580
N139	N	0.423263	-0.419355	-0.235198
H140	H	0.393122	-0.414768	-0.198901
H141	H	0.443764	-0.474324	-0.235905
H142	H	0.987999	-0.918986	-0.219871
N143	N	0.928498	-0.808665	-0.279218
H144	H	0.962702	-0.785940	-0.245059
H145	H	0.942698	-0.785994	-0.319509
