data_functionalizedCrystal
_audit_creation_method	'MofGen! by Chris Wilmer'
_symmetry_space_group_name_H-M	'P1'
_symmetry_Int_Tables_number	1
_symmetry_cell_setting	triclinic
loop_
_symmetry_equiv_pos_as_xyz
  x,y,z
_cell_length_a	19.288835
_cell_length_b	10.654550
_cell_length_c	9.730223
_cell_angle_alpha	89.995747
_cell_angle_beta	89.988236
_cell_angle_gamma	83.804445
loop_
_atom_site_label
_atom_site_type_symbol
_atom_site_fract_x
_atom_site_fract_y
_atom_site_fract_z
O1	O	-0.922385	-0.156474	0.114559
O2	O	-0.422385	0.343526	0.614559
O3	O	-0.720260	-0.177646	0.114503
O4	O	-0.220260	0.322354	0.614503
O5	O	-0.825970	0.015779	0.114524
O6	O	-0.325970	0.515779	0.614524
O7	O	-0.816675	-0.349900	0.114538
O8	O	-0.316675	0.150100	0.614538
O9	O	-0.825963	0.015784	-0.114056
O10	O	-0.325963	0.515784	0.385944
O11	O	-0.720253	-0.177641	-0.114077
O12	O	-0.220253	0.322359	0.385923
O13	O	-0.922378	-0.156469	-0.114021
O14	O	-0.422378	0.343531	0.385979
Zn15	Zn	-0.821315	-0.167054	-0.150341
Zn16	Zn	-0.321315	0.332946	0.349659
Zn17	Zn	-0.821324	-0.167061	0.150823
Zn18	Zn	-0.321324	0.332939	0.650823
O19	O	-0.816668	-0.349895	-0.114041
O20	O	-0.316668	0.150105	0.385959
C21	C	-0.694375	-0.176969	0.000206
C22	C	-0.194375	0.323031	0.500206
C23	C	-0.617257	-0.174943	0.000184
C24	C	-0.117257	0.325057	0.500184
N25	N	-0.821313	-0.167049	-0.355877
N26	N	-0.321313	0.332951	0.144123
C27	C	-0.581051	-0.173972	0.124785
C28	C	-0.081051	0.326028	0.624785
C29	C	-0.508592	-0.172055	0.124798
C30	C	-0.008592	0.327945	0.624798
C31	C	-0.472343	-0.171082	0.000204
C32	C	0.027657	0.328918	0.500204
C33	C	-0.508557	-0.172060	-0.124413
C34	C	-0.008557	0.327940	0.375587
C35	C	-0.581015	-0.173990	-0.124423
C36	C	-0.081015	0.326010	0.375577
C37	C	-0.362510	-0.094467	-0.095240
C38	C	0.137490	0.405533	0.404760
C39	C	-0.290055	-0.092529	-0.095225
C40	C	0.209945	0.407471	0.404775
C41	C	-0.248859	-0.165134	0.000230
C42	C	0.251141	0.334866	0.500230
C43	C	-0.280130	-0.239661	0.095693
C44	C	0.219870	0.260339	0.595693
C45	C	-0.352587	-0.241592	0.095683
C46	C	0.147413	0.258408	0.595683
C47	C	-0.393775	-0.168990	0.000201
C48	C	0.106225	0.331010	0.500201
C49	C	-0.134084	-0.162086	0.124854
C50	C	0.365916	0.337914	0.624854
C51	C	-0.061623	-0.160176	0.124863
C52	C	0.438377	0.339824	0.624863
C53	C	-0.061590	-0.160168	-0.124353
C54	C	0.438410	0.339832	0.375647
C55	C	-0.134050	-0.162091	-0.124357
C56	C	0.365950	0.337909	0.375643
C57	C	-0.170293	-0.163044	0.000250
C58	C	0.329707	0.336956	0.500250
C59	C	-0.825284	0.062565	0.000234
C60	C	-0.325284	0.562565	0.500234
C61	C	-0.823242	0.201964	0.000236
C62	C	-0.323242	0.701964	0.500236
C63	C	0.051738	-0.157155	0.000269
C64	C	0.551738	0.342845	0.500269
C65	C	-0.025379	-0.159205	0.000267
C66	C	0.474621	0.340795	0.500267
C67	C	-0.817354	-0.396681	0.000251
C68	C	-0.317354	0.103319	0.500251
C69	C	-0.819396	-0.536080	0.000258
C70	C	-0.319396	-0.036080	0.500258
C71	C	-0.885482	0.282794	0.000254
C72	C	-0.385482	0.782794	0.500254
C73	C	-0.883560	0.413774	0.000270
C74	C	-0.383560	0.913774	0.500270
C75	C	-0.757151	0.383080	0.000245
C76	C	-0.257151	0.883080	0.500245
C77	C	-0.759075	0.252103	0.000238
C78	C	-0.259075	0.752103	0.500238
C79	C	-0.868138	-0.081436	-0.427794
C80	C	-0.368138	0.418564	0.072206
C81	C	-0.868145	-0.081436	-0.571677
C82	C	-0.368145	0.418564	-0.071677
C83	C	-0.774501	-0.252674	-0.571714
C84	C	-0.274501	0.247326	-0.071714
C85	C	-0.774491	-0.252667	-0.427833
C86	C	-0.274491	0.247333	0.072167
N87	N	-0.821330	-0.167057	0.356360
N88	N	-0.321330	0.332943	0.856360
H89	H	-0.610556	-0.174748	0.226250
H90	H	-0.110556	0.325252	0.726250
O91	O	-0.687946	0.437168	0.000236
O92	O	-0.187946	0.937168	0.500236
H93	H	-0.644990	0.358953	0.000236
H94	H	-0.144990	0.858953	0.500236
H95	H	-0.937732	0.241976	0.000255
H96	H	-0.437732	0.741976	0.500255
O97	O	-0.173172	-0.163119	0.259254
O98	O	0.326828	0.336881	0.759254
H99	H	-0.211962	-0.078411	0.265213
H100	H	0.288038	0.421589	0.765213
O101	O	-0.724008	-0.345031	-0.649321
O102	O	-0.224008	0.154969	-0.149321
H103	H	-0.731887	-0.330666	-0.761453
H104	H	-0.231887	0.169334	-0.261453
O105	O	-0.691941	0.164906	0.000204
O106	O	-0.191941	0.664906	0.500204
H107	H	-0.646999	0.221773	0.000181
H108	H	-0.146999	0.721773	0.500181
H109	H	-0.906273	-0.011721	-0.630227
H110	H	-0.406273	0.488279	-0.130227
O111	O	-0.918628	0.010917	-0.350177
O112	O	-0.418628	0.510917	0.149823
H113	H	-0.951184	0.070459	-0.424364
H114	H	-0.451184	0.570459	0.075636
H115	H	-0.264601	-0.031838	-0.172950
H116	H	0.235399	0.468162	0.327050
O117	O	-0.723988	-0.345014	-0.350250
O118	O	-0.223988	0.154986	0.149750
H119	H	-0.691439	-0.404565	-0.424455
H120	H	-0.191439	0.095435	0.075545
O121	O	-0.235714	-0.318026	0.198628
O122	O	0.264286	0.181974	0.698628
H123	H	-0.251670	-0.288142	0.304295
H124	H	0.248330	0.211858	0.804295
H125	H	-0.032077	-0.159384	-0.225800
H126	H	0.467923	0.340616	0.274200
O127	O	-0.173107	-0.163156	-0.258749
O128	O	0.326893	0.336844	0.241251
H129	H	-0.135730	-0.162161	-0.345388
H130	H	0.364270	0.337839	0.154612
O131	O	-0.022569	-0.159084	0.259259
O132	O	0.477431	0.340916	0.759259
H133	H	-0.059949	-0.160043	0.345898
H134	H	0.440051	0.339957	0.845898
H135	H	-0.378044	-0.302277	0.173409
H136	H	0.121956	0.197723	0.673409
H137	H	-0.396046	-0.035339	-0.172978
H138	H	0.103954	0.464661	0.327022
O139	O	-0.469528	-0.170983	0.259193
O140	O	0.030472	0.329017	0.759193
H141	H	-0.506904	-0.171956	0.345836
H142	H	-0.006904	0.328044	0.845836
H143	H	-0.479038	-0.171271	-0.225859
H144	H	0.020962	0.328729	0.274141
H145	H	-0.610493	-0.174782	-0.225891
H146	H	-0.110493	0.325218	0.274109
O147	O	-0.950689	0.500959	0.000272
O148	O	-0.450689	1.000959	0.500272
H149	H	-0.995629	0.444085	0.000256
H150	H	-0.495629	0.944085	0.500256
