data_functionalizedCrystal
_audit_creation_method	'MofGen! by Chris Wilmer'
_symmetry_space_group_name_H-M	'P1'
_symmetry_Int_Tables_number	1
_symmetry_cell_setting	triclinic
loop_
_symmetry_equiv_pos_as_xyz
  x,y,z
_cell_length_a	12.759401
_cell_length_b	12.759400
_cell_length_c	12.759393
_cell_angle_alpha	90.031564
_cell_angle_beta	90.018496
_cell_angle_gamma	90.014845
loop_
_atom_site_label
_atom_site_type_symbol
_atom_site_fract_x
_atom_site_fract_y
_atom_site_fract_z
Zn1	Zn	-1.606255	0.418200	-0.593981
Zn2	Zn	-1.606150	0.593919	-0.418301
Zn3	Zn	-1.430557	0.418255	-0.418321
Zn4	Zn	-1.430546	0.593838	-0.593943
O5	O	-1.518377	0.506053	-0.506137
O6	O	-1.753262	0.441520	-0.570685
O7	O	-1.582818	0.570673	-0.271283
O8	O	-1.453913	0.271226	-0.441647
O9	O	-1.753185	0.570620	-0.441614
O10	O	-1.582998	0.271186	-0.570704
O11	O	-1.453811	0.441614	-0.271297
O12	O	-1.283535	0.441535	-0.441609
O13	O	-1.453894	0.570482	-0.740969
O14	O	-1.283527	0.570536	-0.570638
O15	O	-1.582987	0.441442	-0.740997
O16	O	-1.582807	0.740929	-0.441577
O17	O	-1.453791	0.740870	-0.570620
C18	C	-1.245410	0.506033	-0.506122
C19	C	-1.128633	0.506050	-0.506141
C20	C	-1.518315	0.779020	-0.506115
C21	C	-1.518384	0.895797	-0.506140
C22	C	-1.792410	0.506073	-0.506152
C23	C	-1.909187	0.506082	-0.506158
C24	C	-1.518451	0.505947	-0.780170
C25	C	-1.518482	0.505902	-0.896947
C26	C	-1.073794	0.573328	-0.573215
C27	C	-0.964070	0.573342	-0.573227
C28	C	-0.964034	0.438796	-0.439081
C29	C	-1.073756	0.438778	-0.439075
C30	C	-1.128672	0.640600	-0.640281
C31	C	-1.073833	0.707885	-0.707360
C32	C	-0.964109	0.707898	-0.707371
C33	C	-0.909224	0.640627	-0.640304
C34	C	-1.518468	0.232019	-0.506182
C35	C	-1.518507	0.115243	-0.506201
C36	C	-1.585637	0.950655	-0.439022
C37	C	-1.585702	1.060379	-0.439054
C38	C	-1.451252	1.060377	-0.573327
C39	C	-1.451193	0.950655	-0.573299
C40	C	-1.652828	0.895797	-0.371864
C41	C	-1.720086	0.950655	-0.304739
C42	C	-1.720150	1.060379	-0.304771
C43	C	-1.652957	1.115245	-0.371929
C44	C	-1.585710	0.438704	-0.951825
C45	C	-1.585735	0.438666	-1.061549
C46	C	-1.451301	0.573033	-1.061507
C47	C	-1.451272	0.573064	-0.951785
C48	C	-1.652920	0.371541	-0.896987
C49	C	-1.720155	0.304339	-0.951866
C50	C	-1.720180	0.304301	-1.061590
C51	C	-1.652970	0.371465	-1.116436
C52	C	-1.518364	0.506083	-0.233169
C53	C	-1.518537	0.505832	-0.116393
H54	H	-1.218015	0.640599	-0.640277
H55	H	-1.118528	0.762647	-0.761970
H56	H	-1.652780	0.806454	-0.371827
O57	O	-1.385876	0.638167	-1.114735
C58	C	-1.207162	0.689191	-1.148246
C59	C	-1.281132	0.615340	-1.087921
H60	H	-1.122462	0.670777	-1.126572
H61	H	-1.218644	0.677623	-1.236106
H62	H	-1.225634	0.773908	-1.126662
H63	H	-1.262706	0.530596	-1.109416
H64	H	-1.269637	0.626999	-1.000075
H65	H	-0.919462	0.762676	-0.761998
O66	O	-1.653124	1.221831	-0.371801
C67	C	-1.727040	1.379288	-0.298227
C68	C	-1.726943	1.258584	-0.298251
H69	H	-1.786731	1.409040	-0.238785
H70	H	-1.645740	1.409224	-0.276305
H71	H	-1.748768	1.408961	-0.379643
H72	H	-1.705259	1.228822	-0.216860
H73	H	-1.808251	1.228719	-0.320233
O74	O	-0.802637	0.640771	-0.640447
C75	C	-0.645201	0.714495	-0.714185
C76	C	-0.765905	0.714471	-0.714096
H77	H	-0.615467	0.774059	-0.773740
H78	H	-0.615272	0.736252	-0.632834
H79	H	-0.615505	0.633124	-0.736096
H80	H	-0.795691	0.795818	-0.692231
H81	H	-0.795763	0.692655	-0.795457
O82	O	-0.910839	0.373512	-0.373781
C83	C	-0.877163	0.322359	-0.195152
C84	C	-0.937485	0.396339	-0.268991
H85	H	-0.898667	0.340802	-0.110413
H86	H	-0.898769	0.237642	-0.213658
H87	H	-0.789326	0.333911	-0.206728
H88	H	-1.025335	0.384880	-0.257457
H89	H	-0.915792	0.481028	-0.250468
O90	O	-1.386013	1.113833	-0.638454
C91	C	-1.326559	1.282867	-0.698041
C92	C	-1.400481	1.222462	-0.624217
H93	H	-1.338247	1.370704	-0.686572
H94	H	-1.241818	1.261454	-0.679512
H95	H	-1.344939	1.261151	-0.782757
H96	H	-1.382196	1.244145	-0.539476
H97	H	-1.485200	1.243880	-0.642837
O98	O	-1.785302	0.897478	-0.239362
C99	C	-1.836327	0.863966	-0.060678
C100	C	-1.762420	0.924270	-0.134600
H101	H	-1.817838	0.885588	0.024038
H102	H	-1.921065	0.885471	-0.079116
H103	H	-1.824746	0.776127	-0.072235
H104	H	-1.773908	1.012123	-0.123084
H105	H	-1.677709	0.902677	-0.116143
H106	H	-1.652910	0.371567	-0.807644
O107	O	-1.386102	0.638503	-0.898505
C108	C	-1.335041	0.817227	-0.864905
C109	C	-1.408920	0.743236	-0.925298
H110	H	-1.353448	0.901918	-0.886561
H111	H	-1.346585	0.805795	-0.777056
H112	H	-1.250333	0.798731	-0.886445
H113	H	-1.493656	0.761686	-0.903846
H114	H	-1.397285	0.754681	-1.013133
O115	O	-1.127153	0.373578	-0.373866
C116	C	-1.250947	0.359272	-0.232007
C117	C	-1.190556	0.433232	-0.305803
H118	H	-1.302206	0.407474	-0.176945
H119	H	-1.302411	0.304406	-0.280282
H120	H	-1.192864	0.311175	-0.184114
H121	H	-1.248563	0.481398	-0.353713
H122	H	-1.139076	0.488029	-0.257468
H123	H	-1.396431	0.905989	-0.627954
H124	H	-1.774867	0.249649	-0.907203
H125	H	-1.774922	1.105041	-0.250123
H126	H	-1.774917	0.249574	-1.106269
H127	H	-1.652984	0.371417	-1.205780
