data_functionalizedCrystal
_audit_creation_method	'MofGen! by Chris Wilmer'
_symmetry_space_group_name_H-M	'P1'
_symmetry_Int_Tables_number	1
_symmetry_cell_setting	triclinic
loop_
_symmetry_equiv_pos_as_xyz
  x,y,z
_cell_length_a	6.817900
_cell_length_b	19.453103
_cell_length_c	19.453114
_cell_angle_alpha	96.316406
_cell_angle_beta	101.709288
_cell_angle_gamma	101.709178
loop_
_atom_site_label
_atom_site_type_symbol
_atom_site_fract_x
_atom_site_fract_y
_atom_site_fract_z
V1	V	-3.997997	-0.097914	-0.219328
O2	O	-3.995098	0.003953	-0.214817
O3	O	-3.941017	-0.193423	-0.218151
O4	O	-3.941018	-0.096738	-0.314837
O5	O	-3.995097	-0.093402	-0.117462
V6	V	-4.483849	-0.085690	-0.207105
O7	O	-4.254148	-0.124727	-0.246141
O8	O	-4.677895	-0.058877	-0.180292
O9	O	-4.317623	0.009819	-0.208282
O10	O	-4.604145	-0.187557	-0.211616
O11	O	-4.604146	-0.090202	-0.308971
O12	O	-4.317621	-0.086866	-0.111596
C13	C	-3.784208	-0.216695	-0.214774
C14	C	-3.818849	-0.294777	-0.214449
C15	C	-4.016582	-0.335044	-0.217808
C16	C	-4.049135	-0.408411	-0.217509
C17	C	-3.883937	-0.441507	-0.213837
C18	C	-3.686178	-0.401231	-0.210481
C19	C	-3.653634	-0.327867	-0.210787
N20	N	-3.779057	-0.547627	-0.170551
N21	N	-3.809984	-0.617320	-0.170259
C22	C	-3.981979	-0.662551	-0.212916
N23	N	-4.121905	-0.635454	-0.255867
N24	N	-4.090980	-0.565754	-0.256156
C25	C	-3.919205	-0.521058	-0.213505
C26	C	-4.215023	-0.782371	-0.215953
C27	C	-4.247572	-0.855741	-0.215658
C28	C	-3.884605	-0.848558	-0.208622
C29	C	-3.852066	-0.775191	-0.208924
C30	C	-4.017281	-0.742102	-0.212586
C31	C	-3.784208	-0.093363	-0.338106
C32	C	-3.818848	-0.093034	-0.416187
C33	C	-4.016587	-0.096405	-0.456456
C34	C	-4.049136	-0.096095	-0.529822
C35	C	-3.883941	-0.092429	-0.562918
C36	C	-3.686172	-0.089054	-0.522640
C37	C	-3.653625	-0.089356	-0.449274
N38	N	-3.820865	-0.129523	-0.681832
N39	N	-3.851796	-0.129237	-0.751526
C40	C	-3.981989	-0.091516	-0.783963
N41	N	-4.080118	-0.054100	-0.744075
N42	N	-4.049192	-0.054389	-0.674375
C43	C	-3.919211	-0.092100	-0.642470
C44	C	-4.215033	-0.094550	-0.903783
C45	C	-4.247572	-0.094236	-0.977150
C46	C	-3.884605	-0.087202	-0.969967
C47	C	-3.852068	-0.087509	-0.896601
C48	C	-4.017291	-0.091187	-0.863515
C49	C	-4.137773	0.033088	-0.211656
C50	C	-4.082370	0.111169	-0.211986
C51	C	-4.137773	-0.090243	-0.088323
C52	C	-4.082372	-0.090569	-0.010241
H53	H	-4.349551	-0.755428	-0.218933
O54	O	-4.176953	-0.302836	-0.221465
C55	C	-4.200823	-0.270366	-0.283011
H56	H	-4.048986	-0.259505	-0.300389
H57	H	-4.325191	-0.307229	-0.327445
C58	C	-4.450488	-0.213110	-0.245397
C59	C	-4.263995	-0.199766	-0.266738
H60	H	-4.489465	-0.169562	-0.235361
H61	H	-4.434414	-0.234988	-0.203933
H62	H	-4.554106	-0.243831	-0.282429
H63	H	-4.160376	-0.169053	-0.229702
H64	H	-4.280053	-0.177881	-0.308194
O65	O	-4.241080	-0.447597	-0.220673
C66	C	-4.238944	-0.480499	-0.159549
H67	H	-4.075644	-0.485122	-0.136068
H68	H	-4.293685	-0.447181	-0.118582
C69	C	-4.583824	-0.549522	-0.208677
C70	C	-4.383259	-0.555206	-0.179841
H71	H	-4.672850	-0.595604	-0.221192
H72	H	-4.585268	-0.527354	-0.249856
H73	H	-4.629413	-0.521755	-0.174533
H74	H	-4.337664	-0.582965	-0.213987
H75	H	-4.381811	-0.577380	-0.138667
H76	H	-4.408596	-0.888526	-0.218398
H77	H	-3.492597	-0.086606	-0.416487
O78	O	-4.241186	-0.099469	-0.569044
C79	C	-4.302635	-0.160664	-0.621412
H80	H	-4.160520	-0.177940	-0.632515
H81	H	-4.401910	-0.205338	-0.601726
C82	C	-4.602175	-0.122608	-0.676570
C83	C	-4.427626	-0.143823	-0.690212
H84	H	-4.679284	-0.112221	-0.719009
H85	H	-4.560782	-0.081380	-0.641288
H86	H	-4.684881	-0.159840	-0.660164
H87	H	-4.344912	-0.106588	-0.706610
H88	H	-4.469009	-0.185044	-0.725499
O89	O	-3.461396	-0.288847	-0.207483
C90	C	-3.322569	-0.333790	-0.204200
H91	H	-3.387342	-0.383583	-0.182664
H92	H	-3.299688	-0.349501	-0.259728
C93	C	-3.034779	-0.233238	-0.181144
C94	C	-3.114326	-0.294393	-0.154688
H95	H	-2.906321	-0.208936	-0.150606
H96	H	-3.128308	-0.202959	-0.183359
H97	H	-3.015729	-0.246340	-0.227418
H98	H	-3.133399	-0.281290	-0.108419
H99	H	-3.020794	-0.324669	-0.152464
O100	O	-3.723995	-0.083513	-1.002055
C101	C	-3.573819	-0.020309	-0.972197
H102	H	-3.648832	0.020287	-0.947328
H103	H	-3.448965	-0.032117	-0.929573
C104	C	-3.384969	-0.040017	-1.061299
C105	C	-3.477106	0.009846	-1.030760
H106	H	-3.325304	-0.021417	-1.097422
H107	H	-3.486141	-0.082600	-1.081414
H108	H	-3.280937	-0.049853	-1.025773
H109	H	-3.581152	0.019674	-1.066284
H110	H	-3.375949	0.052432	-1.010652
H111	H	-4.349566	-0.097542	-0.876842
O112	O	-3.659832	-0.736171	-0.205617
C113	C	-3.521007	-0.781114	-0.202330
H114	H	-3.585782	-0.830906	-0.180791
H115	H	-3.498124	-0.796829	-0.257857
C116	C	-3.233214	-0.680564	-0.179278
C117	C	-3.312764	-0.741716	-0.152818
H118	H	-3.104756	-0.656261	-0.148740
H119	H	-3.326742	-0.650284	-0.181495
H120	H	-3.214163	-0.693668	-0.225551
H121	H	-3.331838	-0.728611	-0.106550
H122	H	-3.219233	-0.771992	-0.150592
H123	H	-3.551675	-0.428183	-0.207492
O124	O	-3.525570	-0.085366	-0.554734
C125	C	-3.375399	-0.022159	-0.524882
H126	H	-3.450414	0.018437	-0.500013
H127	H	-3.250535	-0.033963	-0.482258
C128	C	-3.186562	-0.041870	-0.613988
C129	C	-3.278701	0.007993	-0.583449
H130	H	-3.126906	-0.023271	-0.650113
H131	H	-3.287730	-0.084455	-0.634099
H132	H	-3.082522	-0.051702	-0.578461
H133	H	-3.382755	0.017818	-0.618973
H134	H	-3.177548	0.050580	-0.563345
H135	H	-4.408596	-0.096976	-1.009935
H136	H	-3.691053	-0.084771	-0.863815
H137	H	-3.750099	-0.875504	-0.205636
H138	H	-4.151127	-0.099397	-0.429521
