data_functionalizedCrystal
_audit_creation_method	'MofGen! by Chris Wilmer'
_symmetry_space_group_name_H-M	'P1'
_symmetry_Int_Tables_number	1
_symmetry_cell_setting	triclinic
loop_
_symmetry_equiv_pos_as_xyz
  x,y,z
_cell_length_a	12.594517
_cell_length_b	25.639239
_cell_length_c	12.594517
_cell_angle_alpha	90.009264
_cell_angle_beta	90.002075
_cell_angle_gamma	90.038486
loop_
_atom_site_label
_atom_site_type_symbol
_atom_site_fract_x
_atom_site_fract_y
_atom_site_fract_z
Zn1	Zn	1.626897	-0.208266	0.601816
Zn2	Zn	1.626778	-0.295670	0.423819
Zn3	Zn	1.448961	-0.208251	0.423845
Zn4	Zn	1.448813	-0.295672	0.601749
O5	O	1.537862	-0.251965	0.512807
O6	O	1.775827	-0.219866	0.578221
O7	O	1.603202	-0.284067	0.274877
O8	O	1.472676	-0.135087	0.447492
O9	O	1.775739	-0.284082	0.447448
O10	O	1.603406	-0.135099	0.578246
O11	O	1.472560	-0.219840	0.274896
O12	O	1.299996	-0.219841	0.447427
O13	O	1.472424	-0.284085	0.750704
O14	O	1.299887	-0.284070	0.578132
O15	O	1.603262	-0.219868	0.750753
O16	O	1.603058	-0.368836	0.447383
O17	O	1.472308	-0.368837	0.578107
C18	C	1.261321	-0.251954	0.512776
C19	C	1.143016	-0.251962	0.512788
C20	C	1.073791	-0.216981	0.441833
C21	C	1.002950	-0.264667	0.415643
C22	C	1.003057	-0.204299	0.538996
C23	C	1.073733	-0.299674	0.486547
C24	C	1.073847	-0.239274	0.609945
C25	C	1.003038	-0.286993	0.583792
C26	C	1.537683	-0.387807	0.512758
C27	C	1.537704	-0.445921	0.512773
C28	C	1.606121	-0.806271	0.444855
C29	C	1.606162	-0.860876	0.444869
O30	O	1.664147	-0.889101	0.387069
N31	N	1.538049	-0.888204	0.512878
C32	C	1.469898	-0.860925	0.580884
O33	O	1.411967	-0.889184	0.638733
C34	C	1.469863	-0.806322	0.580874
C35	C	1.537973	-0.778996	0.512854
C36	C	1.674226	-0.778946	0.376841
C37	C	1.674184	-0.724345	0.376826
C38	C	1.606035	-0.697070	0.444824
C39	C	1.537930	-0.724396	0.512838
C40	C	1.401718	-0.779044	0.648885
C41	C	1.401689	-0.724437	0.648870
C42	C	1.469799	-0.697111	0.580850
C43	C	1.469739	-0.642520	0.580822
N44	N	1.537852	-0.615192	0.512813
C45	C	1.606000	-0.642467	0.444815
C46	C	1.469978	-0.975596	0.580900
C47	C	1.470007	-1.030198	0.580906
C48	C	1.606273	-1.030145	0.444892
C49	C	1.606238	-0.975541	0.444882
C50	C	1.538091	-0.948267	0.512892
C51	C	1.605904	-0.527802	0.444787
C52	C	1.605852	-0.473197	0.444774
C53	C	1.469591	-0.473254	0.580792
C54	C	1.469638	-0.527855	0.580800
C55	C	1.537804	-0.555127	0.512795
O56	O	1.411786	-0.614260	0.638595
O57	O	1.663931	-0.614201	0.386986
C58	C	1.815483	-0.251976	0.512839
C59	C	1.933788	-0.251980	0.512853
C60	C	1.537840	-0.251978	0.790428
C61	C	1.537831	-0.251984	0.908733
C62	C	1.538071	-0.115592	0.512879
C63	C	1.538160	-0.057478	0.512910
C64	C	1.466667	-0.286906	0.977960
C65	C	1.563754	-0.299696	1.048748
C66	C	1.440749	-0.239207	1.048745
C67	C	1.634968	-0.264799	0.977963
C68	C	1.511898	-0.204288	0.977954
C69	C	1.609052	-0.217059	1.048710
C70	C	1.537861	-0.251967	1.236266
C71	C	1.537825	-0.251974	1.117961
H72	H	1.105012	-0.228516	0.692057
O73	O	1.743749	-0.279171	0.936957
H74	H	1.797798	-0.286287	1.005033
O75	O	1.328259	-0.808505	0.722261
H76	H	1.274147	-0.833413	0.674595
O77	O	1.328173	-0.695019	0.722212
H78	H	1.280815	-0.723197	0.769497
H79	H	1.669300	-0.187522	1.079578
H80	H	1.414181	-0.550105	0.636192
H81	H	1.104650	-0.340001	0.464316
O82	O	1.396089	-0.443828	0.654125
H83	H	1.348724	-0.471999	0.701422
O84	O	1.679332	-0.443725	0.371420
H85	H	1.631735	-0.418881	0.317204
O86	O	1.387055	-0.326059	0.936804
H87	H	1.326347	-0.305644	0.888325
O88	O	1.592817	-0.353116	1.089957
H89	H	1.533634	-0.382041	1.061632
H90	H	0.972168	-0.316617	0.643824
H91	H	1.414476	-0.953392	0.636279
O92	O	1.396539	-1.059669	0.654262
H93	H	1.349154	-1.031524	0.701544
O94	O	1.482795	-0.150887	0.936690
H95	H	1.402133	-0.140374	0.964976
H96	H	0.971955	-0.163989	0.561099
O97	O	1.679786	-1.059574	0.371563
H98	H	1.661604	-1.049125	0.288001
O99	O	1.332004	-0.224889	1.089924
H100	H	1.273088	-0.253938	1.061573
H101	H	0.971810	-0.275411	0.333506
O102	O	1.114964	-0.177836	0.362262
H103	H	1.086570	-0.188505	0.281699
H104	H	1.661413	-0.550001	0.389412
O105	O	1.747663	-0.694880	0.303470
H106	H	1.700070	-0.670036	0.249250
H107	H	1.661700	-0.953296	0.389495
O108	O	1.747728	-0.808360	0.303486
H109	H	1.795066	-0.780177	0.256192
