data_functionalizedCrystal
_audit_creation_method	'MofGen! by Chris Wilmer'
_symmetry_space_group_name_H-M	'P1'
_symmetry_Int_Tables_number	1
_symmetry_cell_setting	triclinic
loop_
_symmetry_equiv_pos_as_xyz
  x,y,z
_cell_length_a	12.837943
_cell_length_b	23.532407
_cell_length_c	11.295483
_cell_angle_alpha	94.064566
_cell_angle_beta	85.461227
_cell_angle_gamma	88.838809
loop_
_atom_site_label
_atom_site_type_symbol
_atom_site_fract_x
_atom_site_fract_y
_atom_site_fract_z
O1	O	1.380948	0.144513	-0.099028
O2	O	1.079219	0.137204	-0.099034
O3	O	1.239181	0.058450	-0.099009
O4	O	1.220986	0.223267	-0.099053
O5	O	1.225131	0.065355	0.099039
O6	O	1.065169	0.144109	0.099014
O7	O	1.366899	0.151419	0.099020
Cu8	Cu	1.214751	0.148394	0.117101
Cu9	Cu	1.231366	0.140228	-0.117115
O10	O	1.206937	0.230173	0.098995
C11	C	1.033599	0.138187	-0.000010
C12	C	0.918597	0.130823	-0.000012
C13	C	0.676728	0.219356	-0.000018
C14	C	0.568673	0.212439	-0.000018
C15	C	0.594431	0.110073	-0.000004
C16	C	0.702485	0.116990	-0.000004
C17	C	0.743630	0.171633	-0.000013
C18	C	0.851687	0.178549	-0.000021
C19	C	0.877442	0.076184	0.000002
C20	C	0.769387	0.069267	0.000002
C21	C	1.231692	0.040660	0.000018
C22	C	1.230298	-0.022637	0.000027
C23	C	1.316228	-0.416812	-0.000037
C24	C	1.314934	-0.476287	-0.000046
O25	O	1.394590	-0.508463	-0.000088
N26	N	1.219836	-0.504370	-0.000047
C27	C	1.126025	-0.472975	-0.000051
O28	O	1.045018	-0.502323	-0.000053
C29	C	1.127321	-0.413501	-0.000050
C30	C	1.222424	-0.385421	-0.000037
C31	C	1.411324	-0.388732	-0.000025
C32	C	1.412617	-0.329261	-0.000014
C33	C	1.318814	-0.297871	-0.000014
C34	C	1.223717	-0.325951	-0.000026
C35	C	1.033512	-0.382108	-0.000063
C36	C	1.034816	-0.322631	-0.000063
C37	C	1.129920	-0.294551	-0.000050
C38	C	1.131207	-0.235089	-0.000015
N39	N	1.226306	-0.207006	-0.000014
C40	C	1.320109	-0.238397	-0.000013
C41	C	1.123313	-0.597873	-0.000054
C42	C	1.122016	-0.657345	-0.000046
C43	C	1.310925	-0.660653	-0.000043
C44	C	1.312220	-0.601180	-0.000043
C45	C	1.218411	-0.569790	-0.000053
C46	C	1.322817	-0.113504	0.000011
C47	C	1.324101	-0.054028	0.000027
C48	C	1.135193	-0.050725	0.000019
C49	C	1.133908	-0.110196	0.000009
C50	C	1.227729	-0.141584	0.000001
O51	O	1.051593	-0.202877	0.000023
O52	O	1.401104	-0.209042	-0.000026
C53	C	1.412519	0.150435	-0.000006
C54	C	1.527521	0.157799	-0.000013
C55	C	1.214425	0.247962	-0.000035
C56	C	1.215820	0.311259	-0.000052
N57	N	1.203072	0.154138	0.281835
N58	N	1.243053	0.134480	-0.281849
C59	C	1.327124	0.093101	0.531144
C60	C	1.318306	0.097446	0.655806
C61	C	1.176612	0.167170	0.655824
C62	C	1.185431	0.162825	0.531162
C63	C	1.260690	0.125790	0.468826
C64	C	1.269513	0.121448	0.344162
C65	C	1.127815	0.191169	0.344182
C66	C	1.118997	0.195514	0.468844
H67	H	0.514204	0.251300	-0.000020
H68	H	0.956070	-0.404961	-0.000080
N69	N	1.350673	0.081505	0.276908
H70	H	1.422604	0.092823	0.298578
H71	H	1.337524	0.041228	0.298636
N72	N	0.725006	0.010334	0.000027
H73	H	0.646402	0.013192	0.000031
H74	H	0.754721	-0.013367	-0.073388
N75	N	0.550042	0.051142	0.000040
H76	H	0.471437	0.054005	0.000050
H77	H	0.579747	0.027433	-0.073370
H78	H	1.115331	0.197319	0.706594
N79	N	0.933634	-0.288775	-0.000080
H80	H	0.873198	-0.315592	-0.000089
H81	H	0.924840	-0.261474	0.073342
H82	H	1.056465	-0.133059	0.000031
N83	N	1.512505	-0.422584	-0.000023
H84	H	1.572935	-0.395762	-0.000015
H85	H	1.510876	-0.444773	0.073400
N86	N	1.034021	-0.016861	0.000050
H87	H	1.049280	0.025075	0.000063
H88	H	0.997744	-0.029080	-0.073366
H89	H	1.388410	0.062950	0.480389
H90	H	0.710228	0.263848	-0.000027
H91	H	1.387305	-0.686223	-0.000047
N92	N	1.037833	0.235462	0.536075
H93	H	0.965905	0.224142	0.514398
H94	H	1.042415	0.233239	0.624484
H95	H	1.046916	-0.572319	-0.000052
N96	N	1.019433	-0.687621	-0.000032
H97	H	0.983572	-0.679097	-0.073446
H98	H	1.032912	-0.730052	0.000010
N99	N	1.389967	0.062194	0.723023
H100	H	1.438982	0.038077	0.664613
H101	H	1.431881	0.088292	0.774722
N102	N	1.056162	0.226434	0.276969
H103	H	1.073168	0.218064	0.188537
H104	H	0.981191	0.216611	0.298774
H105	H	1.490060	-0.306404	-0.000008
H106	H	0.931927	0.037324	-0.000001
H107	H	0.885184	0.223042	-0.000026
H108	H	1.399215	-0.139054	0.000000
N109	N	1.426680	-0.023741	0.000048
H110	H	1.485906	-0.052656	0.000044
H111	H	1.436545	-0.001689	-0.073365
N112	N	1.414794	-0.570896	-0.000028
H113	H	1.474016	-0.599811	-0.000024
H114	H	1.424662	-0.548848	-0.073447
