data_functionalizedCrystal
_audit_creation_method	'MofGen! by Chris Wilmer'
_symmetry_space_group_name_H-M	'P1'
_symmetry_Int_Tables_number	1
_symmetry_cell_setting	triclinic
loop_
_symmetry_equiv_pos_as_xyz
  x,y,z
_cell_length_a	19.188930
_cell_length_b	10.654541
_cell_length_c	9.730217
_cell_angle_alpha	90.003041
_cell_angle_beta	89.984715
_cell_angle_gamma	96.185646
loop_
_atom_site_label
_atom_site_type_symbol
_atom_site_fract_x
_atom_site_fract_y
_atom_site_fract_z
O1	O	0.927166	-0.156778	-0.114732
O2	O	0.723993	-0.177883	-0.114637
O3	O	0.830252	0.015508	-0.114678
O4	O	0.820908	-0.350169	-0.114691
O5	O	0.830249	0.015509	0.113902
O6	O	0.723990	-0.177882	0.113943
O7	O	0.927163	-0.156776	0.113848
Zn8	Zn	0.825576	-0.167329	0.150188
Zn9	Zn	0.825580	-0.167331	-0.150977
O10	O	0.820904	-0.350167	0.113889
C11	C	0.697976	-0.177199	-0.000335
C12	C	0.620458	-0.175147	-0.000299
C13	C	0.829565	0.062292	-0.000389
C14	C	0.827513	0.201692	-0.000390
N15	N	0.825578	-0.167326	0.355724
C16	C	0.576276	-0.288623	-0.000325
C17	C	0.503439	-0.286695	-0.000340
C18	C	0.474788	-0.171286	-0.000357
C19	C	0.518981	-0.057795	-0.000324
C20	C	0.591815	-0.059726	-0.000295
N21	N	0.366233	-0.083070	-0.078205
N22	N	0.297042	-0.081244	-0.078235
C23	C	0.255342	-0.165462	-0.000441
N24	N	0.285444	-0.251594	0.077368
N25	N	0.354641	-0.253424	0.077392
C26	C	0.395812	-0.169180	-0.000387
C27	C	0.132181	-0.276855	-0.000480
C28	C	0.059344	-0.274923	-0.000487
C29	C	0.074887	-0.046020	-0.000485
C30	C	0.147723	-0.047955	-0.000465
C31	C	0.176365	-0.163376	-0.000469
C32	C	0.953180	-0.157461	-0.000457
C33	C	1.030698	-0.159512	-0.000502
C34	C	0.821592	-0.396952	-0.000403
C35	C	0.823643	-0.536352	-0.000411
C36	C	0.954574	0.232352	-0.000432
C37	C	1.017138	0.313170	-0.000449
C38	C	1.015206	0.444147	-0.000453
C39	C	0.950703	0.494307	-0.000443
C40	C	0.888139	0.413489	-0.000425
C41	C	0.890078	0.282511	-0.000418
C42	C	0.761079	0.382830	-0.000393
C43	C	0.763010	0.251852	-0.000380
C44	C	0.696577	0.432990	-0.000383
C45	C	0.634011	0.352172	-0.000356
C46	C	0.635946	0.221187	-0.000351
C47	C	0.700446	0.171034	-0.000363
N48	N	0.825584	-0.167323	-0.356513
C49	C	0.919709	0.003873	0.355678
C50	C	0.966779	0.089468	0.427596
C51	C	0.966786	0.089469	0.571475
C52	C	0.919717	0.003867	0.643441
C53	C	0.872647	-0.081728	0.571524
C54	C	0.872646	-0.081722	0.427641
C55	C	0.778513	-0.252919	0.571570
C56	C	0.778508	-0.252928	0.427690
C57	C	0.731444	-0.338521	0.643536
C58	C	0.684376	-0.424125	0.571619
C59	C	0.684371	-0.424123	0.427730
C60	C	0.731438	-0.338524	0.355773
H61	H	0.467459	-0.379104	-0.000356
N62	N	1.082684	0.531319	-0.000454
H63	H	1.071668	0.621902	-0.000452
H64	H	1.110775	0.515123	-0.085196
N65	N	1.017552	0.181788	0.649053
H66	H	1.047369	0.236017	0.581638
H67	H	1.048644	0.133831	0.708722
N68	N	0.195380	0.074440	-0.000469
H69	H	0.245867	0.055705	-0.000450
H70	H	0.186024	0.124760	0.084262
H71	H	0.051560	0.047949	-0.000584
H72	H	0.695008	0.539640	-0.000395
H73	H	1.005102	0.159167	0.368988
H74	H	0.155503	-0.370838	-0.000464
H75	H	0.581498	0.393024	-0.000357
N76	N	0.919716	0.003868	0.798625
H77	H	0.909153	0.089149	0.833292
H78	H	0.967245	-0.014250	0.833146
H79	H	0.599591	-0.382608	-0.000331
N80	N	0.702530	0.029767	-0.000371
H81	H	0.678046	-0.007804	0.084367
H82	H	0.752899	0.010361	-0.000435
H83	H	0.949136	0.600957	-0.000462
N84	N	0.568465	0.134022	-0.000345
H85	H	0.527315	0.185678	-0.000341
H86	H	0.566490	0.079017	0.084396
H87	H	0.919714	0.003870	0.238524
H88	H	0.731449	-0.338511	0.760690
N89	N	0.633608	-0.516434	0.649234
H90	H	0.640751	-0.503437	0.751293
H91	H	0.642095	-0.605492	0.624085
H92	H	0.495648	0.036172	-0.000357
H93	H	0.646038	-0.493821	0.369183
N94	N	0.011709	-0.397347	-0.000493
H95	H	-0.018845	-0.401678	-0.085228
H96	H	-0.018824	-0.401592	0.084297
N97	N	0.956661	0.091085	-0.000431
H98	H	0.907240	0.047499	-0.000420
H99	H	0.982093	0.065668	0.084305
N100	N	1.086707	0.259071	-0.000442
H101	H	1.078441	0.163834	-0.000426
H102	H	1.114096	0.288673	0.084296
N103	N	0.731436	-0.338529	0.200590
H104	H	0.768396	-0.271314	0.165918
H105	H	0.683891	-0.320498	0.166073
H106	H	0.627789	0.032682	-0.000275
