data_functionalizedCrystal
_audit_creation_method	'MofGen! by Chris Wilmer'
_symmetry_space_group_name_H-M	'P1'
_symmetry_Int_Tables_number	1
_symmetry_cell_setting	triclinic
loop_
_symmetry_equiv_pos_as_xyz
  x,y,z
_cell_length_a	21.395361
_cell_length_b	16.120530
_cell_length_c	21.395355
_cell_angle_alpha	87.079043
_cell_angle_beta	89.978489
_cell_angle_gamma	87.125977
loop_
_atom_site_label
_atom_site_type_symbol
_atom_site_fract_x
_atom_site_fract_y
_atom_site_fract_z
Zn1	Zn	-0.298157	1.274542	-0.402756
Zn2	Zn	0.201843	1.774542	0.097244
Zn3	Zn	-0.402911	1.274412	-0.297968
Zn4	Zn	0.097089	1.774412	0.202032
Zn5	Zn	-0.292835	1.135113	-0.292686
Zn6	Zn	0.207165	1.635113	0.207314
Zn7	Zn	-0.397577	1.135072	-0.397405
Zn8	Zn	0.102423	1.635072	0.102595
O9	O	-0.347870	1.204785	-0.347704
O10	O	0.152130	1.704785	0.152296
O11	O	-0.316512	1.391190	-0.393305
O12	O	0.183488	1.891190	0.106695
O13	O	-0.388315	1.255897	-0.209588
O14	O	0.111685	1.755897	0.290412
O15	O	-0.205866	1.153680	-0.307316
O16	O	0.294134	1.653680	0.192684
O17	O	-0.393475	1.391095	-0.316318
O18	O	0.106525	1.891095	0.183682
O19	O	-0.209776	1.256118	-0.388183
O20	O	0.290224	1.756118	0.111817
O21	O	-0.307442	1.153554	-0.205707
O22	O	0.192558	1.653554	0.294293
O23	O	-0.302270	1.018442	-0.302127
O24	O	0.197730	1.518442	0.197873
O25	O	-0.384383	1.153610	-0.485794
O26	O	0.115617	1.653610	0.014206
O27	O	-0.379223	1.018412	-0.379064
O28	O	0.120777	1.518412	0.120936
O29	O	-0.311340	1.256078	-0.489725
O30	O	0.188660	1.756078	0.010275
O31	O	-0.489879	1.255857	-0.311129
O32	O	0.010121	1.755857	0.188871
O33	O	-0.485960	1.153484	-0.384185
O34	O	0.014040	1.653484	0.115815
C35	C	-0.339591	0.988177	-0.339442
C36	C	0.160409	1.488177	0.160558
C37	C	-0.336064	0.895511	-0.335923
C38	C	0.163936	1.395511	0.164077
C39	C	-0.510654	1.204675	-0.347664
C40	C	-0.010654	1.704675	0.152336
C41	C	-0.580296	1.204704	-0.347672
C42	C	-0.080296	1.704704	0.152328
C43	C	-0.615031	1.258056	-0.309674
C44	C	-0.115031	1.758056	0.190326
C45	C	-0.680468	1.258095	-0.309690
C46	C	-0.180468	1.758095	0.190310
C47	C	-0.711167	1.204767	-0.347695
C48	C	-0.211167	1.704767	0.152305
C49	C	-0.676424	1.151410	-0.385701
C50	C	-0.176424	1.651410	0.114299
C51	C	-0.610988	1.151379	-0.385689
C52	C	-0.110988	1.651379	0.114311
C53	C	-0.812017	1.129700	-0.349748
C54	C	-0.312017	1.629700	0.150252
C55	C	-0.877451	1.129730	-0.349756
C56	C	-0.377451	1.629730	0.150244
C57	C	-0.912991	1.204864	-0.347736
C58	C	-0.412991	1.704864	0.152264
C59	C	-0.883089	1.279969	-0.345695
C60	C	-0.383089	1.779969	0.154305
C61	C	-0.817654	1.279938	-0.345683
C62	C	-0.317654	1.779938	0.154317
C63	C	-0.782120	1.204795	-0.347713
C64	C	-0.282120	1.704795	0.152287
C65	C	-1.018680	1.258263	-0.309753
C66	C	-0.518680	1.758263	0.190247
C67	C	-1.084118	1.258303	-0.309773
C68	C	-0.584118	1.758303	0.190227
C69	C	-1.080073	1.151611	-0.385781
C70	C	-0.580073	1.651611	0.114219
C71	C	-1.014636	1.151578	-0.385764
C72	C	-0.514636	1.651578	0.114236
C73	C	-0.983944	1.204903	-0.347747
C74	C	-0.483944	1.704903	0.152253
C75	C	-0.329610	0.725850	-0.329503
C76	C	0.170390	1.225850	0.170497
C77	C	-0.366176	0.684560	-0.365950
C78	C	0.133824	1.184560	0.134050
C79	C	-0.362585	0.590155	-0.362378
C80	C	0.137415	1.090155	0.137622
C81	C	-0.333200	0.820264	-0.333074
C82	C	0.166800	1.320264	0.166926
C83	C	-0.184452	1.204918	-0.347757
C84	C	0.315548	1.704918	0.152243
C85	C	-0.114813	1.204975	-0.347780
C86	C	0.385187	1.704975	0.152220
C87	C	-0.347860	1.204854	-0.511129
C88	C	0.152140	1.704854	-0.011129
C89	C	-0.347856	1.204884	-0.580772
C90	C	0.152144	1.704884	-0.080772
C91	C	-0.356182	1.422238	-0.355998
C92	C	0.143818	1.922238	0.144002
C93	C	-0.359724	1.514904	-0.359532
C94	C	0.140276	2.014904	0.140468
C95	C	-0.309820	1.258236	-0.615533
C96	C	0.190180	1.758236	-0.115533
C97	C	-0.309793	1.258235	-0.680968
C98	C	0.190207	1.758235	-0.180968
C99	C	-0.347813	1.204890	-0.711641
C100	C	0.152187	1.704890	-0.211641
C101	C	-0.385851	1.151527	-0.676871
C102	C	0.114149	1.651527	-0.176871
C103	C	-0.385873	1.151524	-0.611437
C104	C	0.114127	1.651524	-0.111437
C105	C	-0.403976	1.198269	-0.815051
C106	C	0.096024	1.698269	-0.315051
C107	C	-0.403956	1.198278	-0.880484
C108	C	0.096044	1.698278	-0.380484
C109	C	-0.347747	1.204895	-0.913462
C110	C	0.152253	1.704895	-0.413462
C111	C	-0.291558	1.211521	-0.880998
C112	C	0.208442	1.711521	-0.380998
C113	C	-0.291579	1.211517	-0.815564
C114	C	0.208421	1.711517	-0.315564
C115	C	-0.347794	1.204887	-0.782593
C116	C	0.152206	1.704887	-0.282593
C117	C	-0.309679	1.258249	-1.019175
C118	C	0.190321	1.758249	-0.519175
C119	C	-0.309651	1.258242	-1.084612
C120	C	0.190349	1.758242	-0.584612
C121	C	-0.385715	1.151539	-1.080513
C122	C	0.114285	1.651539	-0.580513
C123	C	-0.385737	1.151541	-1.015078
C124	C	0.114263	1.651541	-0.515078
C125	C	-0.347721	1.204901	-0.984413
C126	C	0.152279	1.704901	-0.484413
C127	C	-0.347837	1.204764	-0.184915
C128	C	0.152163	1.704764	0.315085
C129	C	-0.347671	1.204896	-0.115279
C130	C	0.152329	1.704896	0.384721
H131	H	-0.708754	1.301544	-0.278748
H132	H	-0.208754	1.801544	0.221252
H133	H	-1.105067	1.108193	-0.416729
H134	H	-0.605067	1.608193	0.083271
H135	H	-0.912025	1.341150	-0.344051
H136	H	-0.412025	1.841150	0.155949
H137	H	-0.449728	1.192657	-0.788198
H138	H	0.050272	1.692657	-0.288198
C139	C	-0.784764	1.362547	-0.343448
C140	C	-0.284764	1.862547	0.156552
H141	H	-0.815297	1.407303	-0.342252
H142	H	-0.315297	1.907303	0.157748
H143	H	-0.759214	1.361479	-0.307086
H144	H	-0.259214	1.861479	0.192914
H145	H	-0.759495	1.369832	-0.379642
H146	H	-0.259495	1.869832	0.120358
C147	C	-0.412114	0.732577	-0.411725
C148	C	0.087886	1.232577	0.088275
H149	H	-0.434582	0.694254	-0.434125
H150	H	0.065418	1.194254	0.065875
H151	H	-0.440641	0.766509	-0.388963
H152	H	0.059359	1.266509	0.111037
H153	H	-0.389454	0.766584	-0.440335
H154	H	0.110546	1.266584	0.059665
C155	C	-0.772926	1.047050	-0.351970
C156	C	-0.272926	1.547050	0.148030
H157	H	-0.729673	1.057788	-0.351676
H158	H	-0.229673	1.557788	0.148324
H159	H	-0.782354	1.012010	-0.316530
H160	H	-0.282354	1.512010	0.183470
H161	H	-0.782628	1.020372	-0.389085
H162	H	-0.282628	1.520372	0.110915
C163	C	-0.465760	1.191001	-0.916192
C164	C	0.034240	1.691001	-0.416192
H165	H	-0.457700	1.191964	-0.959885
H166	H	0.042300	1.691964	-0.459885
H167	H	-0.483859	1.140230	-0.903524
H168	H	0.016141	1.640230	-0.403524
H169	H	-0.493850	1.236336	-0.907201
H170	H	0.006150	1.736336	-0.407201
H171	H	-0.245787	1.216910	-0.907847
H172	H	0.254213	1.716910	-0.407847
C173	C	-0.283686	0.677830	-0.283722
C174	C	0.216314	1.177830	0.216278
H175	H	-0.287275	0.619760	-0.287294
H176	H	0.212725	1.119760	0.212706
H177	H	-0.242130	0.692078	-0.293490
H178	H	0.257870	1.192078	0.206510
H179	H	-0.293332	0.692011	-0.242133
H180	H	0.206668	1.192011	0.257867
C181	C	-0.267998	1.316923	-0.581804
C182	C	0.232002	1.816923	-0.081804
H183	H	-0.245337	1.348693	-0.611882
H184	H	0.254663	1.848693	-0.111882
H185	H	-0.293360	1.353226	-0.557668
H186	H	0.206640	1.853226	-0.057668
H187	H	-0.239484	1.285047	-0.555060
H188	H	0.260516	1.785047	-0.055060
H189	H	-0.416806	1.108091	-0.701849
H190	H	0.083194	1.608091	-0.201849
H191	H	-0.701423	1.107991	-0.416646
H192	H	-0.201423	1.607991	0.083354
C193	C	-0.572776	1.092688	-0.427484
C194	C	-0.072776	1.592688	0.072516
H195	H	-0.529409	1.100310	-0.422035
H196	H	-0.029409	1.600310	0.077965
H197	H	-0.581405	1.036683	-0.416150
H198	H	-0.081405	1.536683	0.083850
H199	H	-0.583931	1.104875	-0.470058
H200	H	-0.083931	1.604875	0.029942
C201	C	-0.427723	1.092845	-0.573199
C202	C	0.072277	1.592845	-0.073199
H203	H	-0.450367	1.061078	-0.600835
H204	H	0.049633	1.561078	-0.100835
H205	H	-0.402382	1.056539	-0.546275
H206	H	0.097618	1.556539	-0.046275
H207	H	-0.456251	1.124728	-0.548901
H208	H	0.043749	1.624728	-0.048901
C209	C	-0.267954	1.316925	-0.719216
C210	C	0.232046	1.816925	-0.219216
H211	H	-0.273385	1.309279	-0.762578
H212	H	0.226615	1.809279	-0.262578
H213	H	-0.279270	1.372932	-0.710641
H214	H	0.220730	1.872932	-0.210641
H215	H	-0.225391	1.304756	-0.708030
H216	H	0.274609	1.804756	-0.208030
C217	C	-0.581273	1.316721	-0.267865
C218	C	-0.081273	1.816721	0.232135
H219	H	-0.611336	1.348507	-0.245241
H220	H	-0.111336	1.848507	0.254759
H221	H	-0.554563	1.284839	-0.239325
H222	H	-0.054563	1.784839	0.260675
H223	H	-0.557098	1.353023	-0.293240
H224	H	-0.057098	1.853023	0.206760
C225	C	-0.229775	1.218792	-0.779855
C226	C	0.270225	1.718792	-0.279855
H227	H	-0.196293	1.222727	-0.808862
H228	H	0.303707	1.722727	-0.308862
H229	H	-0.232441	1.267113	-0.756180
H230	H	0.267559	1.767113	-0.256180
H231	H	-0.222455	1.171006	-0.752500
H232	H	0.277545	1.671006	-0.252500
H233	H	-0.278720	1.301693	-0.994206
H234	H	0.221280	1.801693	-0.494206
H235	H	-0.278674	1.301687	-1.112913
H236	H	0.221326	1.801687	-0.612913
H237	H	-0.416665	1.108096	-1.105486
H238	H	0.083335	1.608096	-0.605486
C239	C	-0.427582	1.092862	-0.976837
C240	C	0.072418	1.592862	-0.476837
H241	H	-0.422146	1.100495	-0.933474
H242	H	0.077854	1.600495	-0.433474
H243	H	-0.470141	1.105027	-0.988025
H244	H	0.029859	1.605027	-0.488025
H245	H	-0.416263	1.036851	-0.985412
H246	H	0.083737	1.536851	-0.485412
C247	C	-0.984916	1.316925	-0.267944
C248	C	-0.484916	1.816925	0.232056
H249	H	-1.014978	1.348716	-0.245323
H250	H	-0.514978	1.848716	0.254677
H251	H	-0.958210	1.285041	-0.239403
H252	H	-0.458210	1.785041	0.260597
H253	H	-0.960738	1.353223	-0.293319
H254	H	-0.460738	1.853223	0.206681
H255	H	-1.112399	1.301754	-0.278833
H256	H	-0.612399	1.801754	0.221167
H257	H	-0.986353	1.108130	-0.416703
H258	H	-0.486353	1.608130	0.083297
H259	H	-0.901792	1.068574	-0.351411
H260	H	-0.401792	1.568574	0.148589
