data_functionalizedCrystal
_audit_creation_method	'MofGen! by Chris Wilmer'
_symmetry_space_group_name_H-M	'P1'
_symmetry_Int_Tables_number	1
_symmetry_cell_setting	triclinic
loop_
_symmetry_equiv_pos_as_xyz
  x,y,z
_cell_length_a	12.759401
_cell_length_b	29.839131
_cell_length_c	12.759393
_cell_angle_alpha	90.037890
_cell_angle_beta	90.018496
_cell_angle_gamma	90.041581
loop_
_atom_site_label
_atom_site_type_symbol
_atom_site_fract_x
_atom_site_fract_y
_atom_site_fract_z
Zn1	Zn	1.606060	-0.178825	0.593935
Zn2	Zn	1.605873	-0.253963	0.418236
Zn3	Zn	1.430362	-0.178848	0.418275
Zn4	Zn	1.430269	-0.253929	0.593877
O5	O	1.518141	-0.216391	0.506081
O6	O	1.753056	-0.188797	0.570636
O7	O	1.582551	-0.244024	0.271220
O8	O	1.453787	-0.115978	0.441617
O9	O	1.752919	-0.244001	0.441551
O10	O	1.582871	-0.115961	0.570674
O11	O	1.453605	-0.188837	0.271248
O12	O	1.283329	-0.188803	0.441561
O13	O	1.453628	-0.243942	0.740906
O14	O	1.283260	-0.243965	0.570575
O15	O	1.582781	-0.188763	0.740949
O16	O	1.582461	-0.316826	0.441495
O17	O	1.453446	-0.316801	0.570538
C18	C	1.245174	-0.216383	0.506066
C19	C	1.128397	-0.216390	0.506085
C20	C	1.073527	-0.245159	0.573152
C21	C	0.963803	-0.245165	0.573163
C22	C	0.963829	-0.187632	0.439032
C23	C	1.073551	-0.187624	0.439027
C24	C	1.128373	-0.273925	0.640210
C25	C	1.073503	-0.302696	0.707282
C26	C	0.963779	-0.302702	0.707293
C27	C	0.908925	-0.273936	0.640233
C28	C	1.517951	-0.333114	0.506029
C29	C	1.517966	-0.383048	0.506041
C30	C	1.585441	-0.692692	0.438986
C31	C	1.585571	-0.880365	0.439027
O32	O	1.642790	-0.904631	0.381974
N33	N	1.518359	-0.903833	0.506160
C34	C	1.451114	-0.880380	0.573292
O35	O	1.393957	-0.904648	0.630402
C36	C	1.450991	-0.692708	0.573256
C37	C	1.518200	-0.669243	0.506111
C38	C	1.652646	-0.669227	0.371848
C39	C	1.652609	-0.622311	0.371834
C40	C	1.585367	-0.598861	0.438959
C41	C	1.518163	-0.622327	0.506098
C42	C	1.383752	-0.669256	0.640393
C43	C	1.383729	-0.622335	0.640380
C44	C	1.450938	-0.598869	0.573235
C45	C	1.450884	-0.551962	0.573209
N46	N	1.518096	-0.528494	0.506076
C47	C	1.585338	-0.551944	0.438951
C48	C	1.451183	-0.978911	0.573305
C49	C	1.451212	-1.025829	0.573313
C50	C	1.585670	-1.025811	0.439049
C51	C	1.585635	-0.978892	0.439036
C52	C	1.518395	-0.955443	0.506172
C53	C	1.585254	-0.453418	0.438927
C54	C	1.585208	-0.406498	0.438916
C55	C	1.450754	-0.406521	0.573184
C56	C	1.450796	-0.453436	0.573191
C57	C	1.518054	-0.476884	0.506059
O58	O	1.393703	-0.527668	0.630240
O59	O	1.642503	-0.527668	0.381867
C60	C	1.585479	-0.739608	0.439000
C61	C	1.518274	-0.763073	0.506138
C62	C	1.451033	-0.739624	0.573263
C63	C	1.518304	-0.809991	0.506146
C64	C	1.585545	-0.833441	0.439021
C65	C	1.652757	-0.809973	0.371888
C66	C	1.652720	-0.763058	0.371875
C67	C	1.383820	-0.763092	0.640396
C68	C	1.383862	-0.810007	0.640404
C69	C	1.451104	-0.833457	0.573279
C70	C	1.792174	-0.216400	0.506096
C71	C	1.908951	-0.216404	0.506102
C72	C	1.518215	-0.216346	0.780114
C73	C	1.518246	-0.216327	0.896891
C74	C	1.518360	-0.099213	0.506156
C75	C	1.518454	-0.049279	0.506188
C76	C	1.518128	-0.216404	0.233113
C77	C	1.518301	-0.216297	0.116337
C78	C	1.585505	-0.187593	0.951777
C79	C	1.585530	-0.187576	1.061501
C80	C	1.451034	-0.245032	1.061444
C81	C	1.451004	-0.245046	0.951722
C82	C	1.652747	-0.158873	0.896946
C83	C	1.720013	-0.130137	0.951832
C84	C	1.720038	-0.130121	1.061556
C85	C	1.652797	-0.158841	1.116394
H86	H	1.639938	-0.387394	0.384235
C87	C	1.771324	-0.054072	0.918111
C88	C	1.793915	-0.098567	0.891559
H89	H	1.816945	-0.034581	0.880898
H90	H	1.780967	-0.049953	0.991304
H91	H	1.700739	-0.047503	0.900121
H92	H	1.864498	-0.105136	0.909557
H93	H	1.784281	-0.102687	0.818350
H94	H	1.707448	-0.743955	0.317199
H95	H	1.396289	-0.268415	1.106102
C96	C	1.272817	-0.392127	0.624232
C97	C	1.376851	-0.380740	0.646977
H98	H	1.227200	-0.376208	0.669792
H99	H	1.263219	-0.423424	0.633852
H100	H	1.257474	-0.384464	0.553627
H101	H	1.392197	-0.388406	0.717579
H102	H	1.386454	-0.349436	0.637365
H103	H	0.919158	-0.164213	0.384434
H104	H	1.652811	-0.158820	1.205739
H105	H	1.328975	-0.603245	0.695053
H106	H	1.707505	-0.829074	0.317230
C107	C	1.318108	-0.301857	0.962677
C108	C	1.377101	-0.276643	0.891383
H109	H	1.272493	-0.321368	0.925424
H110	H	1.277946	-0.282281	1.005473
H111	H	1.363879	-0.319028	1.005476
H112	H	1.331330	-0.259469	0.848589
H113	H	1.417265	-0.296222	0.848569
C114	C	1.785530	-0.627021	0.239141
C115	C	1.726504	-0.596522	0.298041
H116	H	1.831159	-0.611101	0.193591
H117	H	1.739788	-0.645349	0.198915
H118	H	1.825688	-0.645291	0.284976
H119	H	1.686340	-0.578254	0.252206
H120	H	1.772251	-0.578185	0.338270
C121	C	1.285538	-0.305240	0.713223
C122	C	1.248982	-0.273918	0.640202
H123	H	1.359997	-0.305233	0.713218
H124	H	1.260672	-0.334218	0.694922
H125	H	1.260750	-0.297506	0.781055
H126	H	1.273764	-0.281654	0.572369
H127	H	1.273860	-0.244933	0.658497
C128	C	1.726669	-0.506102	0.424466
C129	C	1.659201	-0.479181	0.365142
H130	H	1.772325	-0.522003	0.378912
H131	H	1.686656	-0.526799	0.464427
H132	H	1.766793	-0.487758	0.470281
H133	H	1.619071	-0.497526	0.319332
H134	H	1.699218	-0.458482	0.325163
H135	H	1.118172	-0.326113	0.761886
C136	C	0.974779	-0.359571	0.839869
C137	C	0.903463	-0.334325	0.781017
H138	H	0.937542	-0.379097	0.885376
H139	H	1.017615	-0.340016	0.880138
H140	H	1.017535	-0.376727	0.794001
H141	H	0.860712	-0.317166	0.826884
H142	H	0.860610	-0.353882	0.740744
H143	H	0.819580	-0.273939	0.640257
H144	H	1.652737	-0.158884	0.807603
C145	C	1.250963	-0.805301	0.773134
C146	C	1.309981	-0.835797	0.714219
H147	H	1.205364	-0.821222	0.818711
H148	H	1.210783	-0.787038	0.727318
H149	H	1.296720	-0.786964	0.813341
H150	H	1.264224	-0.854132	0.674006
H151	H	1.350163	-0.854068	0.760041
C152	C	1.062564	-0.130767	0.306421
C153	C	1.133873	-0.156008	0.365293
H154	H	1.099807	-0.111250	0.260895
H155	H	1.019816	-0.113605	0.352266
H156	H	1.019721	-0.150328	0.266160
H157	H	1.176711	-0.136446	0.405560
H158	H	1.176639	-0.173171	0.319441
C159	C	1.861389	-0.123865	1.184976
C160	C	1.793962	-0.098533	1.121895
H161	H	1.907023	-0.104363	1.222230
H162	H	1.901530	-0.143442	1.142162
H163	H	1.821338	-0.140966	1.233329
H164	H	1.834012	-0.081434	1.073537
H165	H	1.753817	-0.078949	1.164713
C166	C	1.369082	-0.710295	0.781708
C167	C	1.309897	-0.737321	0.714184
H168	H	1.323436	-0.694390	0.827265
H169	H	1.409087	-0.689602	0.741730
H170	H	1.414849	-0.728568	0.821936
H171	H	1.264135	-0.719048	0.673950
H172	H	1.269874	-0.758017	0.754166
C173	C	1.667455	-0.722059	0.230608
C174	C	1.726603	-0.695016	0.298127
H175	H	1.713126	-0.737985	0.185117
H176	H	1.621730	-0.703799	0.190320
H177	H	1.627407	-0.742739	0.270601
H178	H	1.766645	-0.674334	0.258134
H179	H	1.772346	-0.713278	0.338420
C180	C	1.718539	-0.983597	0.306324
C181	C	1.659519	-0.953101	0.365236
H182	H	1.764158	-0.967676	0.260767
H183	H	1.672792	-1.001927	0.266104
H184	H	1.758707	-1.001867	0.352150
H185	H	1.619345	-0.934833	0.319410
H186	H	1.705271	-0.934764	0.405458
H187	H	1.640422	-1.044911	0.384393
H188	H	1.396474	-1.044931	0.627979
C189	C	1.318266	-0.983652	0.706007
C190	C	1.377252	-0.953140	0.647096
H191	H	1.272618	-0.967742	0.751553
H192	H	1.364032	-1.001916	0.746238
H193	H	1.278131	-1.001985	0.660179
H194	H	1.417393	-0.934808	0.692923
H195	H	1.331481	-0.934867	0.606861
H196	H	1.329018	-0.688354	0.695065
C197	C	1.436163	-0.506160	0.714511
C198	C	1.376915	-0.479235	0.646987
H199	H	1.390554	-0.522087	0.760069
H200	H	1.481887	-0.487821	0.754729
H201	H	1.476215	-0.526839	0.674527
H202	H	1.336868	-0.458554	0.686971
H203	H	1.331172	-0.497577	0.606765
