data_functionalizedCrystal
_audit_creation_method	'MofGen! by Chris Wilmer'
_symmetry_space_group_name_H-M	'P1'
_symmetry_Int_Tables_number	1
_symmetry_cell_setting	triclinic
loop_
_symmetry_equiv_pos_as_xyz
  x,y,z
_cell_length_a	12.837943
_cell_length_b	22.010155
_cell_length_c	12.837938
_cell_angle_alpha	90.007958
_cell_angle_beta	85.171210
_cell_angle_gamma	90.008188
loop_
_atom_site_label
_atom_site_type_symbol
_atom_site_fract_x
_atom_site_fract_y
_atom_site_fract_z
O1	O	1.402341	0.050506	-0.272127
O2	O	1.099208	0.050510	-0.258683
O3	O	1.244053	0.050509	-0.113838
O4	O	1.257496	0.050508	-0.416972
O5	O	1.244026	-0.050542	-0.113859
O6	O	1.099181	-0.050540	-0.258705
O7	O	1.402314	-0.050544	-0.272148
Cu8	Cu	1.250745	-0.059769	-0.265428
Cu9	Cu	1.250777	0.059735	-0.265403
O10	O	1.257469	-0.050542	-0.416993
C11	C	1.060125	-0.000014	-0.254153
C12	C	0.943710	-0.000013	-0.240608
N13	N	1.250731	-0.143821	-0.265446
C14	C	0.718836	-0.000022	-0.403437
C15	C	0.609453	-0.000021	-0.390716
C16	C	0.615561	-0.000014	-0.202445
C17	C	0.724943	-0.000015	-0.215166
C18	C	0.776577	-0.000018	-0.315666
C19	C	0.885961	-0.000015	-0.328386
C20	C	0.892067	-0.000012	-0.140116
C21	C	0.782685	-0.000011	-0.127395
C22	C	1.314920	-0.563601	-0.201276
C23	C	1.314924	-0.627209	-0.201269
O24	O	1.369459	-0.660101	-0.146719
N25	N	1.250774	-0.659028	-0.265381
C26	C	1.186608	-0.627237	-0.329496
O27	O	1.132044	-0.660142	-0.384026
C28	C	1.186599	-0.563630	-0.329496
C29	C	1.250761	-0.531814	-0.265388
C30	C	1.379075	-0.531785	-0.137173
C31	C	1.379072	-0.468182	-0.137181
C32	C	1.314914	-0.436395	-0.201293
C33	C	1.250758	-0.468211	-0.265397
C34	C	1.122429	-0.531840	-0.393605
C35	C	1.122425	-0.468229	-0.393599
C36	C	1.186587	-0.436413	-0.329491
C37	C	1.186597	-0.372821	-0.329517
N38	N	1.250746	-0.341001	-0.265405
C39	C	1.314905	-0.372788	-0.201293
C40	C	1.186631	-0.760815	-0.329489
C41	C	1.186644	-0.824420	-0.329494
C42	C	1.314959	-0.824387	-0.201266
C43	C	1.314950	-0.760781	-0.201267
C44	C	1.250780	-0.728995	-0.265377
C45	C	1.314895	-0.239217	-0.201317
C46	C	1.314889	-0.175608	-0.201334
C47	C	1.186571	-0.175646	-0.329557
C48	C	1.186580	-0.239249	-0.329545
C49	C	1.250745	-0.271033	-0.265416
O50	O	1.132086	-0.339888	-0.384036
O51	O	1.369450	-0.339875	-0.146762
C52	C	1.441397	-0.000018	-0.276679
C53	C	1.557812	-0.000016	-0.290223
C54	C	1.239499	-0.000015	-0.074780
C55	C	1.225954	-0.000011	0.041635
N56	N	1.250799	0.143788	-0.265378
C57	C	1.388784	0.000006	0.266510
C58	C	1.376063	0.000010	0.375892
C59	C	1.187792	0.000006	0.369785
C60	C	1.200513	0.000002	0.260402
C61	C	1.301013	0.000001	0.208769
C62	C	1.313733	-0.000007	0.099384
C63	C	1.125462	-0.000007	0.093279
C64	C	1.112741	-0.000003	0.202661
C65	C	1.262024	-0.000010	0.543948
C66	C	1.275570	0.000009	0.427534
H67	H	0.927999	-0.000018	-0.410218
H68	H	1.053992	-0.000016	0.046254
H69	H	1.134380	-0.734937	-0.381704
O70	O	1.079409	0.000010	0.425497
H71	H	1.036722	0.041197	0.403053
H72	H	0.760876	-0.000023	-0.485268
O73	O	1.470735	0.000012	0.438166
H74	H	1.445009	0.000019	0.522902
H75	H	0.562444	-0.000025	-0.462189
H76	H	0.573502	-0.000061	-0.120623
H77	H	1.030917	-0.000000	0.244717
H78	H	1.367195	-0.734880	-0.149064
H79	H	1.395564	-0.000010	0.057346
H80	H	0.740630	-0.000015	-0.045571
H81	H	1.134410	-0.850320	-0.381709
O82	O	0.954342	-0.000011	-0.045437
H83	H	1.039078	-0.000016	-0.071163
H84	H	1.367141	-0.149705	-0.149130
H85	H	1.070167	-0.442352	-0.445804
O86	O	1.117371	-0.141344	-0.398688
H87	H	1.138753	-0.153543	-0.481629
O88	O	1.053267	-0.566147	-0.462791
H89	H	1.008666	-0.533348	-0.507372
H90	H	1.367142	-0.265088	-0.149096
O91	O	1.448259	-0.433869	-0.068020
H92	H	1.492857	-0.466667	-0.023434
O93	O	1.448296	-0.566065	-0.068033
H94	H	1.492908	-0.533245	-0.023475
O95	O	1.117383	-0.273572	-0.398689
H96	H	1.072766	-0.240779	-0.443267
H97	H	1.367199	-0.850280	-0.149061
H98	H	1.470615	-0.000000	0.224469
