data_functionalizedCrystal
_audit_creation_method	'MofGen! by Chris Wilmer'
_symmetry_space_group_name_H-M	'P1'
_symmetry_Int_Tables_number	1
_symmetry_cell_setting	triclinic
loop_
_symmetry_equiv_pos_as_xyz
  x,y,z
_cell_length_a	6.817900
_cell_length_b	12.200722
_cell_length_c	16.305550
_cell_angle_alpha	94.304570
_cell_angle_beta	103.455250
_cell_angle_gamma	107.140920
loop_
_atom_site_label
_atom_site_type_symbol
_atom_site_fract_x
_atom_site_fract_y
_atom_site_fract_z
V1	V	-4.044939	-0.159681	-0.263122
O2	O	-4.013059	0.006677	-0.258021
O3	O	-4.014650	-0.315663	-0.261411
O4	O	-3.996109	-0.157662	-0.377837
O5	O	-4.031729	-0.152418	-0.140788
V6	V	-4.526276	-0.139731	-0.248479
O7	O	-4.310993	-0.203443	-0.295242
O8	O	-4.710419	-0.095969	-0.216358
O9	O	-4.333358	0.016251	-0.250190
O10	O	-4.675552	-0.306090	-0.253580
O11	O	-4.656882	-0.146995	-0.370812
O12	O	-4.351900	-0.141750	-0.133763
C13	C	-3.864071	-0.353675	-0.257283
C14	C	-3.920590	-0.481194	-0.256648
C15	C	-3.966483	-0.584753	-0.256125
C16	C	-4.024079	-0.714673	-0.255474
C17	C	-3.840418	-0.152127	-0.405796
C18	C	-3.881897	-0.151508	-0.499577
C19	C	-4.032703	-0.149111	-0.840321
C20	C	-3.795822	-0.141993	-0.799389
C21	C	-3.752760	-0.143111	-0.701894
C22	C	-3.957885	-0.150300	-0.671274
C23	C	-4.138181	-0.263591	-0.721964
C24	C	-4.179969	-0.262950	-0.819514
C25	C	-4.075136	-0.043843	-0.794418
C26	C	-4.027101	-0.042946	-0.696575
C27	C	-3.915615	-0.150976	-0.575736
C28	C	-4.074984	-0.148443	-0.935860
C29	C	-4.147280	0.054256	-0.254315
C30	C	-4.069999	0.181775	-0.254955
C31	C	-4.170933	-0.147289	-0.105800
C32	C	-4.108691	-0.147902	-0.012018
H33	H	-3.616727	-0.061656	-0.666825
H34	H	-3.973685	0.041997	-0.807738
N35	N	-3.650666	-0.039320	-0.814842
N36	N	-3.720094	0.029807	-0.856207
H37	H	-3.617578	0.102325	-0.867126
N38	N	-3.750377	-0.236871	-0.838980
N39	N	-3.891690	-0.309708	-0.897211
H40	H	-3.859603	-0.376718	-0.925175
N41	N	-3.862981	0.062184	-0.653381
N42	N	-3.901204	0.131778	-0.604008
H43	H	-3.785295	0.206028	-0.573496
H44	H	-4.153154	-0.342641	-0.849940
N45	N	-4.211692	-0.041229	-0.669795
N46	N	-4.381398	-0.124098	-0.697127
H47	H	-4.511789	-0.122911	-0.678217
H48	H	-4.354969	-0.272886	-0.847511
H49	H	-3.695289	-0.219614	-0.685644
N50	N	-4.331682	-0.275319	-0.698244
N51	N	-4.338879	-0.200132	-0.643583
H52	H	-4.475538	-0.208412	-0.626828
H53	H	-4.092079	-0.343303	-0.705197
N54	N	-4.291606	-0.049128	-0.828068
N55	N	-4.414288	-0.129989	-0.885600
H56	H	-4.567171	-0.133730	-0.909372
