data_functionalizedCrystal
_audit_creation_method	'MofGen! by Chris Wilmer'
_symmetry_space_group_name_H-M	'P1'
_symmetry_Int_Tables_number	1
_symmetry_cell_setting	triclinic
loop_
_symmetry_equiv_pos_as_xyz
  x,y,z
_cell_length_a	12.594517
_cell_length_b	12.594516
_cell_length_c	14.908308
_cell_angle_alpha	93.270069
_cell_angle_beta	93.287766
_cell_angle_gamma	90.007702
loop_
_atom_site_label
_atom_site_type_symbol
_atom_site_fract_x
_atom_site_fract_y
_atom_site_fract_z
Zn1	Zn	1.592558	-0.458553	-0.509887
Zn2	Zn	2.092558	0.041447	-0.009887
Zn3	Zn	1.602740	-0.626290	-0.359038
Zn4	Zn	2.102740	-0.126290	0.140962
Zn5	Zn	1.424838	-0.448315	-0.359069
Zn6	Zn	1.924838	0.051685	0.140931
Zn7	Zn	1.414559	-0.636476	-0.509873
Zn8	Zn	1.914559	-0.136476	-0.009873
O9	O	1.508674	-0.542408	-0.434467
O10	O	2.008674	-0.042408	0.065533
O11	O	1.742855	-0.480825	-0.489869
O12	O	2.242855	0.019175	0.010131
O13	O	1.587704	-0.594133	-0.232799
O14	O	2.087704	-0.094133	0.267201
O15	O	1.447127	-0.300728	-0.379094
O16	O	1.947127	0.199272	0.120906
O17	O	1.750336	-0.604061	-0.379041
O18	O	2.250336	-0.104061	0.120959
O19	O	1.570351	-0.308250	-0.489900
O20	O	2.070351	0.191750	0.010100
O21	O	1.457000	-0.463376	-0.232822
O22	O	1.957000	0.036624	0.267178
O23	O	1.274528	-0.473253	-0.379081
O24	O	1.774528	0.026747	0.120919
O25	O	1.429608	-0.621422	-0.636118
O26	O	1.929608	-0.121422	-0.136118
O27	O	1.266976	-0.611494	-0.489875
O28	O	1.766976	-0.111494	0.010125
O29	O	1.560383	-0.490703	-0.636128
O30	O	2.060383	0.009297	-0.136128
O31	O	1.577737	-0.776585	-0.379027
O32	O	2.077737	-0.276585	0.120973
O33	O	1.439480	-0.784069	-0.489845
O34	O	1.939480	-0.284069	0.010155
C35	C	1.232132	-0.542369	-0.434480
C36	C	1.732132	-0.042369	0.065520
C37	C	1.113825	-0.542379	-0.434508
C38	C	1.613825	-0.042379	0.065492
C39	C	1.040503	-0.617700	-0.494653
C40	C	1.540503	-0.117700	0.005347
C41	C	0.968175	-0.522165	-0.516840
C42	C	1.468175	-0.022165	-0.016840
C43	C	0.975354	-0.637993	-0.412300
C44	C	1.475354	-0.137993	0.087700
C45	C	1.043052	-0.446796	-0.456738
C46	C	1.543052	0.053204	0.043262
C47	C	1.050240	-0.562686	-0.352160
C48	C	1.550240	-0.062686	0.147840
C49	C	0.977947	-0.467082	-0.374316
C50	C	1.477947	0.032918	0.125684
C51	C	1.508625	-0.818948	-0.434451
C52	C	2.008625	-0.318948	0.065549
C53	C	1.508700	-0.937255	-0.434474
C54	C	2.008700	-0.437255	0.065526
C55	C	1.583976	-1.002404	-0.374265
C56	C	2.083976	-0.502404	0.125735
C57	C	1.604377	-1.078710	-0.456603
C58	C	2.104377	-0.578710	0.043397
C59	C	1.488429	-1.071752	-0.352189
C60	C	1.988429	-0.571752	0.147811
C61	C	1.529148	-1.012006	-0.516855
C62	C	2.029148	-0.512006	-0.016855
C63	C	1.413159	-1.005038	-0.412386
C64	C	1.913159	-0.505038	0.087614
C65	C	1.433519	-1.081316	-0.494781
C66	C	1.933519	-0.581316	0.005219
C67	C	1.786295	-0.542449	-0.434453
C68	C	2.286295	-0.042449	0.065547
C69	C	1.904601	-0.542466	-0.434448
C70	C	2.404601	-0.042466	0.065552
C71	C	1.492713	-0.558341	-0.669771
C72	C	1.992713	-0.058341	-0.169771
C73	C	1.485912	-0.565130	-0.770044
C74	C	1.985912	-0.065130	-0.270044
C75	C	1.508750	-0.264790	-0.434502
C76	C	2.008750	0.235210	0.065498
C77	C	1.508782	-0.146485	-0.434517
C78	C	2.008782	0.353515	0.065483
C79	C	1.609305	-0.441745	-0.958480
C80	C	2.109305	0.058255	-0.458480
C81	C	1.602917	-0.448121	-1.052696
C82	C	2.102917	0.051879	-0.552696
C83	C	1.466745	-0.584251	-1.052692
C84	C	1.966745	-0.084251	-0.552692
C85	C	1.473132	-0.577875	-0.958477
C86	C	1.973132	-0.077875	-0.458477
C87	C	1.544416	-0.506621	-0.911374
C88	C	2.044416	-0.006621	-0.411374
C89	C	1.550808	-0.500251	-0.817157
C90	C	2.050808	-0.000251	-0.317157
C91	C	1.414631	-0.636375	-0.817155
C92	C	1.914631	-0.136375	-0.317155
C93	C	1.408244	-0.642751	-0.911371
C94	C	1.908244	-0.142751	-0.411371
C95	C	1.524634	-0.526461	-0.200077
C96	C	2.024634	-0.026461	0.299923
C97	C	1.531641	-0.519372	-0.099805
C98	C	2.031641	-0.019372	0.400195
H99	H	1.086124	-0.579863	-0.282566
H100	H	1.586124	-0.079863	0.217434
F101	F	1.667187	-0.957293	-0.307771
F102	F	2.167187	-0.457293	0.192229
H103	H	1.546242	-0.985714	-0.586521
H104	H	2.046242	-0.485714	-0.086521
F105	F	1.390880	-0.660071	-1.102837
F106	F	1.890880	-0.160071	-0.602837
F107	F	1.081808	-0.341129	-0.481360
F108	F	1.581808	0.158871	0.018640
H109	H	1.369892	-1.115639	-0.545775
H110	H	1.869892	-0.615639	-0.045775
F111	F	0.942125	-0.383787	-0.307801
F112	F	1.442125	0.116213	0.192199
H113	H	0.945559	-0.718815	-0.393545
H114	H	1.445559	-0.218815	0.106455
H115	H	1.471249	-1.098180	-0.282584
H116	H	1.971249	-0.598180	0.217416
H117	H	1.361796	-0.689205	-0.778791
H118	H	1.861796	-0.189205	-0.278791
H119	H	1.685209	-1.111024	-0.475309
H120	H	2.185209	-0.611024	0.024691
H121	H	1.608851	-0.442234	-0.778808
H122	H	2.108851	0.057766	-0.278808
H123	H	1.332352	-0.972699	-0.393655
H124	H	1.832352	-0.472699	0.106345
H125	H	1.655754	-0.395289	-1.091046
H126	H	2.155754	0.104711	-0.591046
H127	H	0.932314	-0.505019	-0.586454
H128	H	1.432314	-0.005019	-0.086454
H129	H	1.667351	-0.383733	-0.920129
H130	H	2.167351	0.116267	-0.420129
H131	H	1.068102	-0.681284	-0.545580
H132	H	1.568102	-0.181284	-0.045580
F133	F	1.332381	-0.718578	-0.961510
F134	F	1.832381	-0.218578	-0.461510
