data_functionalizedCrystal
_audit_creation_method	'MofGen! by Chris Wilmer'
_symmetry_space_group_name_H-M	'P1'
_symmetry_Int_Tables_number	1
_symmetry_cell_setting	triclinic
loop_
_symmetry_equiv_pos_as_xyz
  x,y,z
_cell_length_a	19.805407
_cell_length_b	18.215405
_cell_length_c	18.215399
_cell_angle_alpha	90.030551
_cell_angle_beta	89.979366
_cell_angle_gamma	89.975115
loop_
_atom_site_label
_atom_site_type_symbol
_atom_site_fract_x
_atom_site_fract_y
_atom_site_fract_z
Zn1	Zn	1.034750	0.292992	-0.416118
Zn2	Zn	1.284750	0.542992	-0.166118
Zn3	Zn	1.534750	0.792992	0.083882
Zn4	Zn	1.784750	1.042992	0.333882
Zn5	Zn	1.034666	0.416063	-0.293046
Zn6	Zn	1.284666	0.666063	-0.043046
Zn7	Zn	1.534666	0.916063	0.206954
Zn8	Zn	1.784666	1.166063	0.456954
Zn9	Zn	0.921562	0.293015	-0.293064
Zn10	Zn	1.171562	0.543015	-0.043064
Zn11	Zn	1.421562	0.793015	0.206936
Zn12	Zn	1.671562	1.043015	0.456936
Zn13	Zn	0.921531	0.416021	-0.416070
Zn14	Zn	1.171531	0.666021	-0.166070
Zn15	Zn	1.421531	0.916021	0.083930
Zn16	Zn	1.671531	1.166021	0.333930
O17	O	0.978127	0.354523	-0.354575
O18	O	1.228127	0.604523	-0.104575
O19	O	1.478127	0.854523	0.145425
O20	O	1.728127	1.104523	0.395425
O21	O	1.129455	0.309325	-0.399806
O22	O	1.379455	0.559325	-0.149806
O23	O	1.629455	0.809325	0.100194
O24	O	1.879455	1.059325	0.350194
O25	O	1.019640	0.399768	-0.190064
O26	O	1.269640	0.649768	0.059936
O27	O	1.519640	0.899768	0.309936
O28	O	1.769640	1.149768	0.559936
O29	O	0.936625	0.190028	-0.309415
O30	O	1.186625	0.440028	-0.059415
O31	O	1.436625	0.690028	0.190585
O32	O	1.686625	0.940028	0.440585
O33	O	1.129393	0.399745	-0.309385
O34	O	1.379393	0.649745	-0.059385
O35	O	1.629393	0.899745	0.190615
O36	O	1.879393	1.149745	0.440615
O37	O	1.019784	0.190011	-0.399823
O38	O	1.269784	0.440011	-0.149823
O39	O	1.519784	0.690011	0.100177
O40	O	1.769784	0.940011	0.350177
O41	O	0.936544	0.309365	-0.190077
O42	O	1.186544	0.559365	0.059923
O43	O	1.436544	0.809365	0.309923
O44	O	1.686544	1.059365	0.559923
O45	O	0.826842	0.309324	-0.309368
O46	O	1.076842	0.559324	-0.059368
O47	O	1.326842	0.809324	0.190632
O48	O	1.576842	1.059324	0.440632
O49	O	0.936572	0.399674	-0.519060
O50	O	1.186572	0.649674	-0.269060
O51	O	1.436572	0.899674	-0.019060
O52	O	1.686572	1.149674	0.230940
O53	O	0.826819	0.399696	-0.399740
O54	O	1.076819	0.649696	-0.149740
O55	O	1.326819	0.899696	0.100260
O56	O	1.576819	1.149696	0.350260
O57	O	1.019753	0.309285	-0.519096
O58	O	1.269753	0.559285	-0.269096
O59	O	1.519753	0.809285	-0.019096
O60	O	1.769753	1.059285	0.230904
O61	O	1.019610	0.519042	-0.309338
O62	O	1.269610	0.769042	-0.059338
O63	O	1.519610	1.019042	0.190662
O64	O	1.769610	1.269042	0.440662
O65	O	0.936490	0.519011	-0.399723
O66	O	1.186490	0.769011	-0.149723
O67	O	1.436490	1.019011	0.100277
O68	O	1.686490	1.269011	0.350277
C69	C	0.978056	0.545729	-0.354539
C70	C	1.228056	0.795729	-0.104539
C71	C	1.478056	1.045729	0.145461
C72	C	1.728056	1.295729	0.395461
C73	C	0.978087	0.627528	-0.354549
C74	C	1.228087	0.877528	-0.104549
C75	C	1.478087	1.127528	0.145451
C76	C	1.728087	1.377528	0.395451
C77	C	0.802271	0.354509	-0.354551
C78	C	1.052271	0.604509	-0.104551
C79	C	1.302271	0.854509	0.145449
C80	C	1.552271	1.104509	0.395449
C81	C	0.727039	0.354520	-0.354558
C82	C	0.977039	0.604520	-0.104558
C83	C	1.227039	0.854520	0.145442
C84	C	1.477039	1.104520	0.395442
C85	C	0.978169	0.354472	-0.546528
C86	C	1.228169	0.604472	-0.296528
C87	C	1.478169	0.854472	-0.046528
C88	C	1.728169	1.104472	0.203472
C89	C	0.978186	0.354450	-0.628327
C90	C	1.228186	0.604450	-0.378327
C91	C	1.478186	0.854450	-0.128327
C92	C	1.728186	1.104450	0.121673
C93	C	0.691701	0.401648	-0.401538
C94	C	0.941701	0.651648	-0.151538
C95	C	1.191701	0.901648	0.098462
C96	C	1.441701	1.151648	0.348462
C97	C	0.621012	0.401649	-0.401549
C98	C	0.871012	0.651649	-0.151549
C99	C	1.121012	0.901649	0.098451
C100	C	1.371012	1.151649	0.348451
C101	C	0.585664	0.354526	-0.354575
C102	C	0.835664	0.604526	-0.104575
C103	C	1.085664	0.854526	0.145425
C104	C	1.335664	1.104526	0.395425
C105	C	0.621007	0.307393	-0.307592
C106	C	0.871007	0.557393	-0.057592
C107	C	1.121007	0.807393	0.192408
C108	C	1.371007	1.057393	0.442408
C109	C	0.691694	0.307389	-0.307586
C110	C	0.941694	0.557389	-0.057586
C111	C	1.191694	0.807389	0.192414
C112	C	1.441694	1.057389	0.442414
C113	C	0.335934	0.307410	-0.307616
C114	C	0.585934	0.557410	-0.057616
C115	C	0.835934	0.807410	0.192384
C116	C	1.085934	1.057410	0.442384
C117	C	0.265242	0.307419	-0.307625
C118	C	0.515242	0.557419	-0.057625
C119	C	0.765242	0.807419	0.192375
C120	C	1.015242	1.057419	0.442375
C121	C	0.265252	0.401670	-0.401579
C122	C	0.515252	0.651670	-0.151579
C123	C	0.765252	0.901670	0.098421
C124	C	1.015252	1.151670	0.348421
C125	C	0.335939	0.401666	-0.401573
C126	C	0.585939	0.651666	-0.151573
C127	C	0.835939	0.901666	0.098427
C128	C	1.085939	1.151666	0.348427
C129	C	0.371276	0.354530	-0.354594
C130	C	0.621276	0.604530	-0.104594
C131	C	0.871276	0.854530	0.145406
C132	C	1.121276	1.104530	0.395406
C133	C	0.447925	0.354529	-0.354584
C134	C	0.697925	0.604529	-0.104584
C135	C	0.947925	0.854529	0.145416
C136	C	1.197925	1.104529	0.395416
C137	C	0.509017	0.354531	-0.354580
C138	C	0.759017	0.604531	-0.104580
C139	C	1.009017	0.854531	0.145420
C140	C	1.259017	1.104531	0.395420
C141	C	1.154670	0.354537	-0.354599
C142	C	1.404670	0.604537	-0.104599
C143	C	1.654670	0.854537	0.145401
C144	C	1.904670	1.104537	0.395401
C145	C	1.229902	0.354544	-0.354609
C146	C	1.479902	0.604544	-0.104609
C147	C	1.729902	0.854544	0.145391
C148	C	1.979902	1.104544	0.395391
C149	C	0.978217	0.162570	-0.354626
C150	C	1.228217	0.412570	-0.104626
C151	C	1.478217	0.662570	0.145374
C152	C	1.728217	0.912570	0.395374
C153	C	0.978256	0.080771	-0.354648
C154	C	1.228256	0.330771	-0.104648
C155	C	1.478256	0.580771	0.145352
C156	C	1.728256	0.830771	0.395352
C157	C	1.021469	0.815713	-0.307572
C158	C	1.271469	1.065713	-0.057572
C159	C	1.521469	1.315713	0.192428
C160	C	1.771469	1.565713	0.442428
C161	C	1.021499	0.892572	-0.307590
C162	C	1.271499	1.142572	-0.057590
C163	C	1.521499	1.392572	0.192410
C164	C	1.771499	1.642572	0.442410
C165	C	0.934872	0.892580	-0.401630
C166	C	1.184872	1.142580	-0.151630
C167	C	1.434872	1.392580	0.098370
C168	C	1.684872	1.642580	0.348370
C169	C	0.934846	0.815723	-0.401615
C170	C	1.184846	1.065723	-0.151615
C171	C	1.434846	1.315723	0.098385
C172	C	1.684846	1.565723	0.348385
C173	C	0.978143	0.777291	-0.354582
C174	C	1.228143	1.027291	-0.104582
C175	C	1.478143	1.277291	0.145418
C176	C	1.728143	1.527291	0.395418
C177	C	0.978200	0.931007	-0.354615
C178	C	1.228200	1.181007	-0.104615
C179	C	1.478200	1.431007	0.145385
C180	C	1.728200	1.681007	0.395385
C181	C	0.978232	1.014341	-0.354634
C182	C	1.228232	1.264341	-0.104634
C183	C	1.478232	1.514341	0.145366
C184	C	1.728232	1.764341	0.395366
C185	C	0.978112	0.693952	-0.354563
C186	C	1.228112	0.943952	-0.104563
C187	C	1.478112	1.193952	0.145437
C188	C	1.728112	1.443952	0.395437
C189	C	1.021514	0.307341	-0.816540
C190	C	1.271514	0.557341	-0.566540
C191	C	1.521514	0.807341	-0.316540
C192	C	1.771514	1.057341	-0.066540
C193	C	1.021522	0.307319	-0.893399
C194	C	1.271522	0.557319	-0.643399
C195	C	1.521522	0.807319	-0.393399
C196	C	1.771522	1.057319	-0.143399
C197	C	0.934906	0.401446	-0.893351
C198	C	1.184906	0.651446	-0.643351
C199	C	1.434906	0.901446	-0.393351
C200	C	1.684906	1.151446	-0.143351
C201	C	0.934895	0.401463	-0.816493
C202	C	1.184895	0.651463	-0.566493
C203	C	1.434895	0.901463	-0.316493
C204	C	1.684895	1.151463	-0.066493
C205	C	0.978203	0.354412	-0.778090
C206	C	1.228203	0.604412	-0.528090
C207	C	1.478203	0.854412	-0.278090
C208	C	1.728203	1.104412	-0.028090
C209	C	0.978222	0.354373	-0.931806
C210	C	1.228222	0.604373	-0.681806
C211	C	1.478222	0.854373	-0.431806
C212	C	1.728222	1.104373	-0.181806
C213	C	0.978230	0.354350	-1.015140
C214	C	1.228230	0.604350	-0.765140
C215	C	1.478230	0.854350	-0.515140
C216	C	1.728230	1.104350	-0.265140
C217	C	0.978194	0.354433	-0.694751
C218	C	1.228194	0.604433	-0.444751
C219	C	1.478194	0.854433	-0.194751
C220	C	1.728194	1.104433	0.055249
C221	C	0.978125	0.354520	-0.163368
C222	C	1.228125	0.604520	0.086632
C223	C	1.478125	0.854520	0.336632
C224	C	1.728125	1.104520	0.586632
C225	C	0.978239	0.354334	-0.081570
C226	C	1.228239	0.604334	0.168430
C227	C	1.478239	0.854334	0.418430
C228	C	1.728239	1.104334	0.668430
H229	H	0.720477	0.440024	-0.439788
H230	H	0.970477	0.690024	-0.189788
H231	H	1.220477	0.940024	0.060212
H232	H	1.470477	1.190024	0.310212
O233	O	0.888102	0.774281	-0.452315
O234	O	1.138102	1.024281	-0.202315
O235	O	1.388102	1.274281	0.047685
O236	O	1.638102	1.524281	0.297685
H237	H	0.899672	0.788983	-0.510090
H238	H	1.149672	1.038983	-0.260090
H239	H	1.399672	1.288983	-0.010090
H240	H	1.649672	1.538983	0.239910
H241	H	0.899621	0.439794	-0.785186
H242	H	1.149621	0.689794	-0.535186
H243	H	1.399621	0.939794	-0.285186
H244	H	1.649621	1.189794	-0.035186
H245	H	1.056726	0.784424	-0.269276
H246	H	1.306726	1.034424	-0.019276
H247	H	1.556726	1.284424	0.230724
H248	H	1.806726	1.534424	0.480724
H249	H	0.899620	0.923880	-0.439922
H250	H	1.149620	1.173880	-0.189922
H251	H	1.399620	1.423880	0.060078
H252	H	1.649620	1.673880	0.310078
H253	H	0.364697	0.269035	-0.269357
H254	H	0.614697	0.519035	-0.019357
H255	H	0.864697	0.769035	0.230643
H256	H	1.114697	1.019035	0.480643
H257	H	1.056790	0.268988	-0.924702
H258	H	1.306790	0.518988	-0.674702
H259	H	1.556790	0.768988	-0.424702
H260	H	1.806790	1.018988	-0.174702
O261	O	1.068217	0.256590	-0.775116
O262	O	1.318217	0.506590	-0.525116
O263	O	1.568217	0.756590	-0.275116
O264	O	1.818217	1.006590	-0.025116
H265	H	1.098331	0.223850	-0.814769
H266	H	1.348331	0.473850	-0.564769
H267	H	1.598331	0.723850	-0.314769
H268	H	1.848331	0.973850	-0.064769
O269	O	1.068238	0.934010	-0.256891
O270	O	1.318238	1.184010	-0.006891
O271	O	1.568238	1.434010	0.243109
O272	O	1.818238	1.684010	0.493109
H273	H	1.060993	0.993911	-0.264810
H274	H	1.310993	1.243911	-0.014810
H275	H	1.560993	1.493911	0.235190
H276	H	1.810993	1.743911	0.485190
O277	O	0.888197	0.452195	-0.934770
O278	O	1.138197	0.702195	-0.684770
O279	O	1.388197	0.952195	-0.434770
O280	O	1.638197	1.202195	-0.184770
H281	H	0.895484	0.444280	-0.994674
H282	H	1.145484	0.694280	-0.744674
H283	H	1.395484	0.944280	-0.494674
H284	H	1.645484	1.194280	-0.244674
H285	H	0.364717	0.440041	-0.439822
H286	H	0.614717	0.690041	-0.189822
H287	H	0.864717	0.940041	0.060178
H288	H	1.114717	1.190041	0.310178
O289	O	0.582895	0.452620	-0.452079
O290	O	0.832895	0.702620	-0.202079
O291	O	1.082895	0.952620	0.047921
O292	O	1.332895	1.202620	0.297921
H293	H	0.619350	0.485444	-0.484683
H294	H	0.869350	0.735444	-0.234683
H295	H	1.119350	0.985444	0.015317
H296	H	1.369350	1.235444	0.265317
O297	O	0.227164	0.452530	-0.452257
O298	O	0.477164	0.702530	-0.202257
O299	O	0.727164	0.952530	0.047743
O300	O	0.977164	1.202530	0.297743
H301	H	0.194987	0.419671	-0.489789
H302	H	0.444987	0.669671	-0.239789
H303	H	0.694987	0.919671	0.010211
H304	H	0.944987	1.169671	0.260211
O305	O	0.227111	0.256585	-0.256964
O306	O	0.477111	0.506585	-0.006964
O307	O	0.727111	0.756585	0.243036
O308	O	0.977111	1.006585	0.493036
H309	H	0.263558	0.223802	-0.224301
H310	H	0.513558	0.473802	0.025699
H311	H	0.763558	0.723802	0.275699
H312	H	1.013558	0.973802	0.525699
H313	H	0.720466	0.269009	-0.269334
H314	H	0.970466	0.519009	-0.019334
H315	H	1.220466	0.769009	0.230666
H316	H	1.470466	1.019009	0.480666
H317	H	0.592221	0.269022	-0.269348
H318	H	0.842221	0.519022	-0.019348
H319	H	1.092221	0.769022	0.230652
H320	H	1.342221	1.019022	0.480652
