data_functionalizedCrystal
_audit_creation_method	'MofGen! by Chris Wilmer'
_symmetry_space_group_name_H-M	'P1'
_symmetry_Int_Tables_number	1
_symmetry_cell_setting	triclinic
loop_
_symmetry_equiv_pos_as_xyz
  x,y,z
_cell_length_a	17.038272
_cell_length_b	16.098538
_cell_length_c	17.038272
_cell_angle_alpha	92.920305
_cell_angle_beta	91.111556
_cell_angle_gamma	87.069734
loop_
_atom_site_label
_atom_site_type_symbol
_atom_site_fract_x
_atom_site_fract_y
_atom_site_fract_z
O1	O	1.052033	-0.069152	0.167266
O2	O	0.824222	-0.069177	0.164557
O3	O	0.936773	-0.069158	0.052006
O4	O	0.939482	-0.069171	0.279817
O5	O	0.930197	0.069354	0.058553
O6	O	0.817646	0.069335	0.171104
O7	O	1.045456	0.069359	0.173813
Zn8	Zn	0.930507	0.091339	0.173498
Zn9	Zn	0.939172	-0.091156	0.164872
O10	O	0.932905	0.069341	0.286364
C11	C	0.791641	0.000076	0.165367
C12	C	0.704358	0.000067	0.158019
N13	N	0.924599	0.215887	0.179385
N14	N	0.945085	-0.215705	0.158979
C15	C	0.658749	0.000064	0.225482
C16	C	0.576737	0.000075	0.218574
C17	C	0.540335	0.000085	0.144201
C18	C	0.585950	0.000090	0.076733
C19	C	0.667961	0.000084	0.083642
C20	C	0.292946	0.000108	0.119792
C21	C	0.210929	0.000112	0.112887
C22	C	0.201722	0.000098	0.254729
C23	C	0.283734	0.000088	0.261632
C24	C	0.329342	0.000098	0.194164
C25	C	0.456505	0.000094	0.137138
C26	C	0.413170	0.000094	0.201228
C27	C	1.078037	0.000105	0.173002
C28	C	1.165320	0.000108	0.180351
C29	C	0.931022	0.000097	0.025987
C30	C	0.923674	0.000096	-0.061297
C31	C	0.972390	0.259480	0.131633
C32	C	0.968265	0.346668	0.135759
C33	C	0.916352	0.390262	0.187642
C34	C	0.868556	0.346663	0.235395
C35	C	0.872678	0.259476	0.231265
C36	C	0.901410	0.653510	0.202602
C37	C	0.897294	0.740702	0.206731
C38	C	0.997003	0.740702	0.107093
C39	C	1.001123	0.653513	0.102971
C40	C	0.953324	0.609922	0.150721
C41	C	0.912136	0.479383	0.191862
C42	C	0.957536	0.520803	0.146496
C43	C	0.991137	0.000104	-0.106906
C44	C	0.984229	0.000096	-0.188918
C45	C	0.909856	0.000085	-0.225320
C46	C	0.842388	0.000074	-0.179705
C47	C	0.849297	0.000077	-0.097694
C48	C	0.885446	0.000071	-0.472708
C49	C	0.878541	0.000071	-0.554725
C50	C	1.020383	0.000091	-0.563932
C51	C	1.027286	0.000098	-0.481920
C52	C	0.959818	0.000083	-0.436312
C53	C	0.902792	0.000079	-0.309149
C54	C	0.966882	0.000084	-0.352485
C55	C	0.938656	0.000083	0.312383
C56	C	0.946005	0.000079	0.399666
H57	H	0.539605	0.000072	0.273510
H58	H	0.705095	0.000086	0.028706
H59	H	1.075312	0.000101	-0.601075
H60	H	0.442811	0.000091	0.261782
H61	H	0.688381	0.000056	0.286045
H62	H	1.014666	0.223992	0.089389
O63	O	0.171669	0.000132	0.032665
H64	H	0.106980	0.000127	0.039198
O65	O	0.417243	0.000104	0.056922
H66	H	0.382772	-0.056349	0.047713
O67	O	1.048556	0.787717	0.055593
H68	H	1.035277	0.770989	-0.007092
O69	O	0.798322	0.000050	-0.593992
H70	H	0.752568	0.000030	-0.548502
O71	O	0.812566	0.393676	0.291360
H72	H	0.817735	0.461626	0.286218
H73	H	0.999800	0.485307	0.104250
H74	H	0.862492	0.618024	0.241484
H75	H	1.039165	0.000104	-0.226050
O76	O	0.812680	0.000076	-0.423520
H77	H	0.759805	0.000083	-0.462613
O78	O	0.856149	0.526404	0.247824
H79	H	0.871016	0.509656	0.308924
H80	H	0.842238	0.000072	-0.338796
O81	O	1.107507	0.000092	-0.442668
H82	H	1.137516	0.056543	-0.457958
H83	H	1.051699	0.000118	-0.077274
H84	H	0.855019	0.776192	0.248983
O85	O	0.821136	0.212451	0.282771
H86	H	0.784351	0.257410	0.319549
H87	H	0.781832	0.000060	-0.209350
O88	O	0.776534	0.000077	-0.048495
H89	H	0.723656	0.000079	-0.087583
O90	O	1.047099	0.000092	-0.313231
H91	H	1.050956	0.056551	-0.273426
H92	H	0.164579	0.000092	0.309658
O93	O	0.322986	0.000097	0.341854
H94	H	0.307703	-0.056352	0.371874
O95	O	0.342130	0.000121	0.047024
H96	H	0.331275	-0.056333	0.009022
O97	O	0.546695	0.000103	-0.003487
H98	H	0.482005	0.000099	0.003041
O99	O	1.019825	0.393690	0.084271
H100	H	1.056628	0.348729	0.047513
O101	O	1.057107	0.606494	0.047005
H102	H	1.089641	0.651455	0.014486
