data_functionalizedCrystal
_audit_creation_method	'MofGen! by Chris Wilmer'
_symmetry_space_group_name_H-M	'P1'
_symmetry_Int_Tables_number	1
_symmetry_cell_setting	triclinic
loop_
_symmetry_equiv_pos_as_xyz
  x,y,z
_cell_length_a	21.295419
_cell_length_b	21.295417
_cell_length_c	19.805399
_cell_angle_alpha	89.970204
_cell_angle_beta	89.981377
_cell_angle_gamma	90.044503
loop_
_atom_site_label
_atom_site_type_symbol
_atom_site_fract_x
_atom_site_fract_y
_atom_site_fract_z
Zn1	Zn	0.962322	-0.250375	-0.382692
Zn2	Zn	1.462322	0.249625	0.117308
Zn3	Zn	0.962237	-0.355644	-0.269500
Zn4	Zn	1.462237	0.144356	0.230500
Zn5	Zn	0.857056	-0.250420	-0.269519
Zn6	Zn	1.357056	0.249580	0.230481
Zn7	Zn	0.857016	-0.355638	-0.382648
Zn8	Zn	1.357016	0.144362	0.117352
O9	O	0.909658	-0.303019	-0.326090
O10	O	1.409658	0.196981	0.173910
O11	O	1.050400	-0.264323	-0.367687
O12	O	1.550400	0.235677	0.132313
O13	O	0.948266	-0.341707	-0.174785
O14	O	1.448266	0.158293	0.325215
O15	O	0.871073	-0.162324	-0.284558
O16	O	1.371073	0.337676	0.215442
O17	O	1.050338	-0.341664	-0.284525
O18	O	1.550338	0.158336	0.215475
O19	O	0.948411	-0.162292	-0.367706
O20	O	1.448411	0.337708	0.132294
O21	O	0.870990	-0.264399	-0.174800
O22	O	1.370990	0.235601	0.325200
O23	O	0.768962	-0.264393	-0.284515
O24	O	1.268962	0.235607	0.215485
O25	O	0.871004	-0.341653	-0.477371
O26	O	1.371004	0.158347	0.022629
O27	O	0.768932	-0.341696	-0.367631
O28	O	1.268932	0.158304	0.132369
O29	O	0.948372	-0.264317	-0.477403
O30	O	1.448372	0.235683	0.022597
O31	O	0.948227	-0.443733	-0.284483
O32	O	1.448227	0.056267	0.215517
O33	O	0.870922	-0.443728	-0.367612
O34	O	1.370922	0.056272	0.132388
C35	C	0.746106	-0.303049	-0.326071
C36	C	1.246106	0.196951	0.173929
C37	C	0.676138	-0.303077	-0.326079
C38	C	1.176138	0.196923	0.173921
C39	C	0.643327	-0.262872	-0.369448
C40	C	1.143327	0.237128	0.130552
C41	C	0.577584	-0.262855	-0.369451
C42	C	1.077584	0.237145	0.130549
C43	C	0.544656	-0.303055	-0.326091
C44	C	1.044656	0.196945	0.173909
C45	C	0.577475	-0.343263	-0.282713
C46	C	1.077475	0.156737	0.217287
C47	C	0.643217	-0.343274	-0.282707
C48	C	1.143217	0.156726	0.217293
N49	N	0.441382	-0.358133	-0.320802
N50	N	0.941382	0.141867	0.179198
N51	N	0.378930	-0.358120	-0.320812
N52	N	0.878930	0.141880	0.179188
C53	C	0.346581	-0.303022	-0.326106
C54	C	0.846581	0.196978	0.173894
N55	N	0.379043	-0.247936	-0.331403
N56	N	0.879043	0.252064	0.168597
N57	N	0.441500	-0.247949	-0.331397
N58	N	0.941500	0.252051	0.168603
C59	C	0.473370	-0.303047	-0.326092
C60	C	0.973370	0.196953	0.173908
C61	C	0.242484	-0.262795	-0.369480
C62	C	0.742484	0.237205	0.130520
C63	C	0.176740	-0.262777	-0.369478
C64	C	0.676740	0.237223	0.130522
C65	C	0.176633	-0.343191	-0.282744
C66	C	0.676633	0.156809	0.217256
C67	C	0.242375	-0.343203	-0.282743
C68	C	0.742375	0.156797	0.217257
C69	C	0.275297	-0.303006	-0.326115
C70	C	0.775297	0.196994	0.173885
C71	C	0.909578	-0.466571	-0.326055
C72	C	1.409578	0.033429	0.173945
C73	C	0.909601	-0.536539	-0.326063
C74	C	1.409601	-0.036539	0.173937
C75	C	0.949848	-0.569331	-0.369390
C76	C	1.449848	-0.069331	0.130610
C77	C	0.949870	-0.635074	-0.369406
C78	C	1.449870	-0.135074	0.130594
C79	C	0.909652	-0.668021	-0.326085
C80	C	1.409652	-0.168021	0.173915
C81	C	0.869397	-0.635221	-0.282755
C82	C	1.369397	-0.135221	0.217245
C83	C	0.869372	-0.569480	-0.282745
C84	C	1.369372	-0.069480	0.217255
N85	N	0.904898	-0.771284	-0.266849
N86	N	1.404898	-0.271284	0.233151
N87	N	0.904926	-0.833735	-0.266861
N88	N	1.404926	-0.333735	0.233139
C89	C	0.909726	-0.866096	-0.326115
C90	C	1.409726	-0.366096	0.173885
N91	N	0.914508	-0.833646	-0.385358
N92	N	1.414508	-0.333646	0.114642
N93	N	0.914484	-0.771189	-0.385345
N94	N	1.414484	-0.271189	0.114655
C95	C	0.909675	-0.739307	-0.326092
C96	C	1.409675	-0.239307	0.173908
C97	C	0.949999	-0.970174	-0.369463
C98	C	1.449999	-0.470174	0.130537
C99	C	0.950017	-1.035918	-0.369481
C100	C	1.450017	-0.535918	0.130519
C101	C	0.869547	-1.036064	-0.282824
C102	C	1.369547	-0.536064	0.217176
C103	C	0.869526	-0.970321	-0.282812
C104	C	1.369526	-0.470321	0.217188
C105	C	0.909755	-0.937380	-0.326131
C106	C	1.409755	-0.437380	0.173869
C107	C	1.073848	-0.302989	-0.326109
C108	C	1.573848	0.197011	0.173891
C109	C	1.143816	-0.302977	-0.326117
C110	C	1.643816	0.197023	0.173883
C111	C	0.909693	-0.302979	-0.502632
C112	C	1.409693	0.197021	-0.002632
C113	C	0.909708	-0.302963	-0.577864
C114	C	1.409708	0.197037	-0.077864
C115	C	0.909756	-0.138829	-0.326139
C116	C	1.409756	0.361171	0.173861
C117	C	0.909797	-0.068861	-0.326160
C118	C	1.409797	0.431139	0.173840
C119	C	0.949995	-0.262692	-0.613227
C120	C	1.449995	0.237308	-0.113227
C121	C	0.950001	-0.262674	-0.683915
C122	C	1.450001	0.237326	-0.183915
C123	C	0.909724	-0.302930	-0.719240
C124	C	1.409724	0.197070	-0.219240
C125	C	0.869433	-0.343202	-0.683873
C126	C	1.369433	0.156798	-0.183873
C127	C	0.869424	-0.343217	-0.613186
C128	C	1.369424	0.156783	-0.113186
C129	C	0.869469	-0.343144	-0.968947
C130	C	1.369469	0.156856	-0.468947
C131	C	0.869482	-0.343127	-1.039639
C132	C	1.369482	0.156873	-0.539639
C133	C	0.950046	-0.262600	-1.039676
C134	C	1.450046	0.237400	-0.539676
C135	C	0.950037	-0.262615	-0.968988
C136	C	1.450037	0.237385	-0.468988
C137	C	0.909744	-0.302885	-0.933628
C138	C	1.409744	0.197115	-0.433628
C139	C	0.909737	-0.302903	-0.856979
C140	C	1.409737	0.197097	-0.356979
C141	C	0.909734	-0.302915	-0.795887
C142	C	1.409734	0.197085	-0.295887
C143	C	0.909659	-0.303013	-0.150234
C144	C	1.409659	0.196987	0.349766
C145	C	0.909766	-0.302853	-0.075002
C146	C	1.409766	0.197147	0.424998
H147	H	0.269091	-0.375945	-0.247429
H148	H	0.769091	0.124055	0.252571
H149	H	0.269290	-0.230060	-0.404792
H150	H	0.769290	0.269940	0.095208
C151	C	0.994362	-0.218294	-1.078579
C152	C	1.494362	0.281706	-0.578579
N153	N	1.027739	-0.184924	-1.107880
N154	N	1.527739	0.315076	-0.607880
C155	C	0.679537	-0.218646	-0.417150
C156	C	1.179537	0.281354	0.082850
N157	N	0.706811	-0.185332	-0.453076
N158	N	1.206811	0.314668	0.046924
C159	C	0.140648	-0.218545	-0.417190
C160	C	0.640648	0.281455	0.082810
N161	N	0.113462	-0.185229	-0.453128
N162	N	0.613462	0.314771	0.046872
C163	C	0.994303	-0.218405	-0.574375
C164	C	1.494303	0.281595	-0.074375
N165	N	1.027675	-0.185045	-0.545115
N166	N	1.527675	0.314955	-0.045115
C167	C	0.994105	-0.533100	-0.417038
C168	C	1.494105	-0.033100	0.082962
N169	N	1.027442	-0.505810	-0.452925
N170	N	1.527442	-0.005810	0.047075
C171	C	0.994150	-0.671153	-0.417067
C172	C	1.494150	-0.171153	0.082933
N173	N	1.027502	-0.698326	-0.452965
N174	N	1.527502	-0.198326	0.047035
C175	C	0.825297	-1.072302	-0.235179
C176	C	1.325297	-0.572302	0.264821
N177	N	0.791964	-1.099600	-0.199295
N178	N	1.291964	-0.599600	0.300705
H179	H	0.982837	-0.229836	-0.940230
H180	H	1.482837	0.270164	-0.440230
C181	C	0.541484	-0.218628	-0.417166
C182	C	1.041484	0.281372	0.082834
N183	N	0.514296	-0.185318	-0.453108
N184	N	1.014296	0.314682	0.046892
C185	C	0.541253	-0.387483	-0.235018
C186	C	1.041253	0.112517	0.264982
N187	N	0.513970	-0.420790	-0.199091
N188	N	1.013970	0.079210	0.300909
H189	H	0.836650	-0.662051	-0.247484
H190	H	1.336650	-0.162051	0.252516
C191	C	0.140415	-0.387411	-0.235047
C192	C	0.640415	0.112589	0.264953
N193	N	0.113133	-0.420717	-0.199120
N194	N	0.613133	0.079283	0.300880
C195	C	0.825247	-0.934248	-0.235153
C196	C	1.325247	-0.434248	0.264847
N197	N	0.791889	-0.907078	-0.199259
N198	N	1.291889	-0.407078	0.300741
C199	C	0.994321	-0.218373	-0.722810
C200	C	1.494321	0.281627	-0.222810
N201	N	1.027704	-0.185005	-0.752105
N202	N	1.527704	0.314995	-0.252105
H203	H	0.836597	-0.542780	-0.247463
H204	H	1.336597	-0.042780	0.252537
H205	H	0.982791	-1.062616	-0.404765
H206	H	1.482791	-0.562616	0.095235
C207	C	0.994243	-0.933937	-0.417123
C208	C	1.494243	-0.433937	0.082877
N209	N	1.027566	-0.906645	-0.453023
N210	N	1.527566	-0.406645	0.046977
H211	H	0.836681	-0.375910	-1.068398
H212	H	1.336681	0.124090	-0.568398
H213	H	0.836669	-0.375943	-0.940164
H214	H	1.336669	0.124057	-0.440164
H215	H	0.836612	-0.376003	-0.584395
H216	H	1.336612	0.123997	-0.084395
C217	C	0.679310	-0.387508	-0.234998
C218	C	1.179310	0.112492	0.265002
N219	N	0.706497	-0.420828	-0.199065
N220	N	1.206497	0.079172	0.300935
C221	C	0.825122	-0.387478	-0.722733
C222	C	1.325122	0.112522	-0.222733
N223	N	0.791745	-0.420828	-0.752002
N224	N	1.291745	0.079172	-0.252002
