data_functionalizedCrystal
_audit_creation_method	'MofGen! by Chris Wilmer'
_symmetry_space_group_name_H-M	'P1'
_symmetry_Int_Tables_number	1
_symmetry_cell_setting	triclinic
loop_
_symmetry_equiv_pos_as_xyz
  x,y,z
_cell_length_a	14.044191
_cell_length_b	14.044220
_cell_length_c	13.101018
_cell_angle_alpha	86.333450
_cell_angle_beta	93.666878
_cell_angle_gamma	93.190327
loop_
_atom_site_label
_atom_site_type_symbol
_atom_site_fract_x
_atom_site_fract_y
_atom_site_fract_z
O1	O	1.281982	0.225382	0.085160
O2	O	1.005311	0.217069	0.085174
O3	O	1.139493	0.082890	0.085163
O4	O	1.147800	0.359561	0.085171
O5	O	1.129855	0.092526	-0.085267
O6	O	0.995672	0.226704	-0.085256
O7	O	1.272343	0.235018	-0.085269
Zn8	Zn	1.132477	0.232391	-0.112322
Zn9	Zn	1.145177	0.219696	0.112226
O10	O	1.138161	0.369197	-0.085258
C11	C	0.964869	0.218250	-0.000040
C12	C	0.858726	0.207402	-0.000035
C13	C	0.613268	0.264503	-0.000043
C14	C	0.664393	0.187587	-0.000044
C15	C	0.772530	0.198615	-0.000039
C16	C	0.505121	0.253477	-0.000048
C17	C	1.131038	0.052086	-0.000051
C18	C	1.120194	-0.054057	-0.000047
C19	C	1.312785	0.233837	-0.000054
C20	C	1.418928	0.244684	-0.000052
N21	N	1.123817	0.241055	-0.265570
C22	C	1.146616	0.400001	-0.000042
C23	C	1.157461	0.506144	-0.000039
C24	C	1.177287	0.700482	-0.000045
C25	C	1.100372	0.751610	-0.000042
C26	C	1.111404	0.859747	-0.000045
C27	C	1.166257	0.592336	-0.000042
C28	C	1.165621	0.199233	-0.525483
C29	C	1.112043	0.252844	-0.474606
C30	C	1.118596	0.246283	-0.358288
C31	C	1.159069	0.205793	-0.641812
N32	N	1.153844	0.211025	0.265475
H33	H	0.650709	0.338630	-0.000038
H34	H	1.026239	0.714169	-0.000039
O35	O	1.265680	0.745243	0.000079
C36	C	1.281636	0.797702	0.088353
H37	H	1.210115	0.814348	0.117793
H38	H	1.323967	0.867318	0.068490
H39	H	1.323729	0.753860	0.150157
H40	H	1.061252	0.303670	-0.518407
H41	H	1.216410	0.148412	-0.481687
H42	H	0.626953	0.113451	0.000026
