data_functionalizedCrystal
_audit_creation_method	'MofGen! by Chris Wilmer'
_symmetry_space_group_name_H-M	'P1'
_symmetry_Int_Tables_number	1
_symmetry_cell_setting	triclinic
loop_
_symmetry_equiv_pos_as_xyz
  x,y,z
_cell_length_a	10.540514
_cell_length_b	22.610064
_cell_length_c	10.540539
_cell_angle_alpha	89.993336
_cell_angle_beta	95.479674
_cell_angle_gamma	89.991153
loop_
_atom_site_label
_atom_site_type_symbol
_atom_site_fract_x
_atom_site_fract_y
_atom_site_fract_z
O1	O	1.685915	-0.049189	-0.178730
O2	O	1.316498	-0.049188	-0.195619
O3	O	1.509634	-0.049188	-0.002467
O4	O	1.492778	-0.049189	-0.371882
O5	O	1.509600	0.049181	-0.002497
O6	O	1.316463	0.049181	-0.195649
O7	O	1.685880	0.049180	-0.178759
Zn8	Zn	1.501166	0.064799	-0.187209
Zn9	Zn	1.501212	-0.064807	-0.187170
O10	O	1.492744	0.049180	-0.371911
C11	C	1.269177	-0.000004	-0.194374
C12	C	1.128227	-0.000003	-0.190605
N13	N	1.501145	0.153251	-0.187235
C14	C	1.057522	-0.000005	-0.328745
C15	C	0.910908	-0.000231	-0.324871
C16	C	0.935909	-0.056071	-0.115461
C17	C	1.082449	-0.056115	-0.120315
C18	C	1.082812	0.055753	-0.118304
C19	C	0.935833	0.056487	-0.116972
C20	C	1.586735	0.561893	-0.101665
C21	C	1.586741	0.623813	-0.101657
O22	O	1.659460	0.655832	-0.028916
N23	N	1.501209	0.654788	-0.187155
C24	C	1.415655	0.623841	-0.272657
O25	O	1.342903	0.655874	-0.345378
C26	C	1.415644	0.561922	-0.272658
C27	C	1.501191	0.530950	-0.187164
C28	C	1.672274	0.530920	-0.016177
C29	C	1.672269	0.469005	-0.016187
C30	C	1.586725	0.438062	-0.101685
C31	C	1.501186	0.469034	-0.187174
C32	C	1.330086	0.530976	-0.358154
C33	C	1.330081	0.469053	-0.358147
C34	C	1.415628	0.438080	-0.272652
C35	C	1.415637	0.376175	-0.272683
N36	N	1.501170	0.345200	-0.187185
C37	C	1.586714	0.376143	-0.101686
C38	C	1.415684	0.753875	-0.272647
C39	C	1.415701	0.815792	-0.272653
C40	C	1.586785	0.815760	-0.101651
C41	C	1.586774	0.753841	-0.101652
C42	C	1.501217	0.722899	-0.187149
C43	C	1.586698	0.246115	-0.101715
C44	C	1.586688	0.184194	-0.101736
C45	C	1.415600	0.184232	-0.272733
C46	C	1.415613	0.246148	-0.272717
C47	C	1.501166	0.277088	-0.187197
O48	O	1.342952	0.344117	-0.345383
O49	O	1.659443	0.344102	-0.028966
C50	C	1.733201	-0.000006	-0.180004
C51	C	1.874151	-0.000010	-0.183774
C52	C	1.508353	-0.000004	0.044821
C53	C	1.504571	-0.000008	0.185769
N54	N	1.501241	0.846741	-0.187149
C55	C	1.494025	-0.000005	-0.419199
C56	C	1.497807	-0.000006	-0.560147
C57	C	1.359652	-0.000228	0.369182
C58	C	1.363486	-0.000007	0.222564
C59	C	1.572448	0.056166	0.247415
C60	C	1.567633	0.056213	0.393959
C61	C	1.570541	-0.055651	0.394512
C62	C	1.571841	-0.056394	0.247530
H63	H	0.868230	0.039946	-0.378600
F64	F	1.144598	0.056468	0.014869
H65	H	0.911647	0.060039	-0.014127
F66	F	1.507435	-0.110718	0.193541
F67	F	1.123957	0.111312	-0.178424
F68	F	1.095433	0.052330	-0.402286
H69	H	0.869191	-0.040655	-0.378346
H70	H	1.669098	0.058762	0.441936
F71	F	1.097044	-0.052476	-0.400906
F72	F	1.677745	0.151234	-0.010740
H73	H	1.656433	0.728627	-0.032034
H74	H	1.110688	-0.098182	-0.170183
F75	F	1.145201	-0.059239	0.012316
H76	H	1.525268	0.097969	0.204799
H77	H	1.741925	0.443790	0.053434
F78	F	1.293145	0.052713	0.167958
F79	F	1.324667	0.848749	-0.363664
F80	F	1.286894	0.051986	0.409071
H81	H	0.913595	-0.057997	-0.011829
H82	H	0.893317	-0.097951	-0.162263
H83	H	1.656438	0.840965	-0.032031
H84	H	0.894823	0.097962	-0.166895
H85	H	1.656361	0.271300	-0.032075
F86	F	1.324577	0.279110	-0.363725
H87	H	1.741934	0.556109	0.053453
H88	H	1.346017	0.728685	-0.342280
H89	H	1.260425	0.556185	-0.427771
H90	H	1.260406	0.443863	-0.427768
F91	F	1.707872	0.058898	0.218211
F92	F	1.324564	0.151291	-0.363726
F93	F	1.293675	-0.052639	0.166885
H94	H	1.303934	-0.040511	0.397789
H95	H	1.517439	0.098204	0.422142
F96	F	1.510868	-0.111301	0.435751
F97	F	1.706289	-0.060831	0.215879
H98	H	1.672446	-0.056029	0.441747
