data_functionalizedCrystal
_audit_creation_method	'MofGen! by Chris Wilmer'
_symmetry_space_group_name_H-M	'P1'
_symmetry_Int_Tables_number	1
_symmetry_cell_setting	triclinic
loop_
_symmetry_equiv_pos_as_xyz
  x,y,z
_cell_length_a	14.048226
_cell_length_b	14.971486
_cell_length_c	14.971486
_cell_angle_alpha	83.614129
_cell_angle_beta	89.993360
_cell_angle_gamma	89.995336
loop_
_atom_site_label
_atom_site_type_symbol
_atom_site_fract_x
_atom_site_fract_y
_atom_site_fract_z
O1	O	-0.079121	1.186947	0.116565
O2	O	0.420879	1.686947	0.616565
O3	O	-0.079132	0.926547	0.130523
O4	O	0.420868	1.426547	0.630523
O5	O	-0.079120	1.063726	-0.006656
O6	O	0.420880	1.563726	0.493344
O7	O	-0.079134	1.049768	0.253744
O8	O	0.420866	1.549768	0.753744
O9	O	0.079202	1.063710	-0.006664
O10	O	0.579202	1.563710	0.493336
O11	O	0.079189	0.926530	0.130515
O12	O	0.579189	1.426530	0.630515
O13	O	0.079200	1.186930	0.116557
O14	O	0.579200	1.686930	0.616557
Zn15	Zn	0.104331	1.056728	0.123535
Zn16	Zn	0.604331	1.556728	0.623535
Zn17	Zn	-0.104264	1.056750	0.123545
Zn18	Zn	0.395736	1.556750	0.623545
O19	O	0.079188	1.049751	0.253736
O20	O	0.579188	1.549751	0.753736
C21	C	0.000027	0.893214	0.129895
C22	C	0.500027	1.393214	0.629895
C23	C	0.000023	0.793917	0.128024
C24	C	0.500023	1.293917	0.628024
C25	C	0.000041	1.063094	-0.039985
C26	C	0.500041	1.563094	0.460015
C27	C	0.000040	1.061223	-0.139282
C28	C	0.500040	1.561223	0.360718
N29	N	0.246692	1.056719	0.123527
N30	N	0.746692	1.556719	0.623527
N31	N	-0.246624	1.056765	0.123546
N32	N	0.253376	1.556765	0.623546
C33	C	0.296516	1.117482	0.062809
C34	C	0.796516	1.617482	0.562809
C35	C	0.396173	1.117488	0.062808
C36	C	0.896173	1.617488	0.562808
C37	C	0.446006	1.056735	0.123531
C38	C	0.946006	1.556735	0.623531
C39	C	0.396175	0.995966	0.184252
C40	C	0.896175	1.495966	0.684252
C41	C	0.296519	0.995957	0.184247
C42	C	0.796519	1.495957	0.684247
C43	C	0.603889	0.995992	0.184258
C44	C	1.103889	1.495992	0.684258
C45	C	0.703552	0.996003	0.184264
C46	C	1.203552	1.496003	0.684264
C47	C	0.703543	1.117523	0.062819
C48	C	1.203543	1.617523	0.562819
C49	C	0.603888	1.117514	0.062815
C50	C	1.103888	1.617514	0.562815
C51	C	0.554064	1.056746	0.123537
C52	C	1.054064	1.556746	0.623537
C53	C	0.000038	1.220263	0.117185
C54	C	0.500038	1.720263	0.617185
C55	C	0.000036	1.319561	0.119056
C56	C	0.500036	1.819561	0.619056
C57	C	0.000037	1.376786	0.038466
C58	C	0.500037	1.876786	0.538466
C59	C	0.000040	1.470085	0.040229
C60	C	0.500040	1.970085	0.540229
C61	C	0.000036	1.506158	0.122583
C62	C	0.500036	2.006158	0.622583
C63	C	0.000037	1.448925	0.203178
C64	C	0.500037	1.948925	0.703178
C65	C	0.000041	1.355627	0.201414
C66	C	0.500041	1.855627	0.701414
C67	C	0.000028	1.643387	0.206849
C68	C	0.500028	2.143387	0.706849
C69	C	0.000022	1.736692	0.208614
C70	C	0.500022	2.236692	0.708614
C71	C	0.000027	1.757845	0.045664
C72	C	0.500027	2.257845	0.545664
C73	C	0.000031	1.664548	0.043900
C74	C	0.500031	2.164548	0.543900
C75	C	0.000031	1.607322	0.124496
C76	C	0.500031	2.107322	0.624496
C77	C	0.000044	1.141812	-0.196507
C78	C	0.500044	1.641812	0.303493
C79	C	0.000034	1.140049	-0.289807
C80	C	0.500034	1.640049	0.210193
C81	C	0.000027	1.057696	-0.325879
C82	C	0.500027	1.557696	0.174121
C83	C	0.000020	0.977101	-0.268646
C84	C	0.500020	1.477101	0.231354
C85	C	0.000023	0.978865	-0.175349
C86	C	0.500023	1.478865	0.324651
C87	C	0.000017	0.973430	-0.463109
C88	C	0.500017	1.473430	0.036891
C89	C	0.000016	0.971665	-0.556413
C90	C	0.500016	1.471665	-0.056413
C91	C	0.000028	1.134614	-0.577567
C92	C	0.500028	1.634614	-0.077567
C93	C	0.000030	1.136378	-0.484269
C94	C	0.500030	1.636378	0.015731
C95	C	0.000025	1.055782	-0.427043
C96	C	0.500025	1.555782	0.072957
C97	C	0.000025	1.050384	0.287065
C98	C	0.500025	1.550384	0.787065
C99	C	0.000020	1.052254	0.386362
C100	C	0.500020	1.552254	0.886362
H101	H	0.255949	1.166957	0.013365
H102	H	0.755949	1.666957	0.513365
Br103	Br	0.000037	1.327840	-0.073305
Br104	Br	0.500037	1.827840	0.426695
Br105	Br	0.000011	0.859899	-0.605368
Br106	Br	0.500011	1.359899	-0.105368
H107	H	0.000029	1.200238	-0.624165
H108	H	0.500029	1.700238	-0.124165
Br109	Br	0.000052	1.547746	-0.069147
Br110	Br	0.500052	2.047746	0.430853
Br111	Br	0.463794	1.199949	-0.019599
Br112	Br	0.963794	1.699949	0.480401
Br113	Br	0.000037	1.248144	-0.435314
Br114	Br	0.500037	1.748144	0.064686
Br115	Br	0.000010	1.615593	-0.067866
Br116	Br	0.500010	2.115593	0.432134
H117	H	0.000025	1.804444	-0.019960
H118	H	0.500025	2.304444	0.480040
Br119	Br	0.228901	0.913484	0.266648
Br120	Br	0.728901	1.413484	0.766648
H121	H	0.000010	0.907800	-0.416517
H122	H	0.500010	1.407800	0.083483
H123	H	0.563326	0.946506	0.233702
H124	H	1.063326	1.446506	0.733702
Br125	Br	0.000021	1.785647	0.320380
Br126	Br	0.500021	2.285647	0.820380
H127	H	0.563314	1.166987	0.013375
H128	H	1.063314	1.666987	0.513375
Br129	Br	0.000038	1.565723	0.316230
Br130	Br	0.500038	2.065723	0.816230
Br131	Br	0.463801	0.913508	0.266657
Br132	Br	0.963801	1.413508	0.766657
H133	H	0.000039	1.478302	0.270232
H134	H	0.500039	1.978302	0.770232
H135	H	0.000043	1.309035	0.267038
H136	H	0.500043	1.809035	0.767038
H137	H	0.000055	1.208874	-0.167145
H138	H	0.500055	1.708874	0.332855
Br139	Br	0.771164	1.199996	-0.019584
Br140	Br	1.271164	1.699996	0.480416
H141	H	0.000039	1.205673	-0.336396
H142	H	0.500039	1.705673	0.163604
H143	H	0.000009	0.910047	-0.298024
H144	H	0.500009	1.410047	0.201976
Br145	Br	0.000010	0.869489	-0.097684
Br146	Br	0.500010	1.369489	0.402316
Br147	Br	0.771175	0.913549	0.266677
Br148	Br	1.271175	1.413549	0.766677
