data_functionalizedCrystal
_audit_creation_method	'MofGen! by Chris Wilmer'
_symmetry_space_group_name_H-M	'P1'
_symmetry_Int_Tables_number	1
_symmetry_cell_setting	triclinic
loop_
_symmetry_equiv_pos_as_xyz
  x,y,z
_cell_length_a	29.839131
_cell_length_b	12.759401
_cell_length_c	12.759393
_cell_angle_alpha	90.019987
_cell_angle_beta	89.963065
_cell_angle_gamma	89.962610
loop_
_atom_site_label
_atom_site_type_symbol
_atom_site_fract_x
_atom_site_fract_y
_atom_site_fract_z
Zn1	Zn	-0.178879	-1.606059	-0.593981
Zn2	Zn	-0.254017	-1.605872	-0.418281
Zn3	Zn	-0.178896	-1.430361	-0.418315
Zn4	Zn	-0.253978	-1.430268	-0.593918
O5	O	-0.216442	-1.518140	-0.506124
O6	O	-0.188856	-1.753055	-0.570686
O7	O	-0.244075	-1.582551	-0.271265
O8	O	-0.116027	-1.453785	-0.441658
O9	O	-0.244059	-1.752918	-0.441600
O10	O	-0.116014	-1.582870	-0.570719
O11	O	-0.188884	-1.453604	-0.271289
O12	O	-0.188847	-1.283328	-0.441597
O13	O	-0.243993	-1.453626	-0.740947
O14	O	-0.244009	-1.283259	-0.570611
O15	O	-0.188818	-1.582779	-0.740993
O16	O	-0.316879	-1.582460	-0.441539
O17	O	-0.316850	-1.453444	-0.570579
C18	C	-0.216426	-1.245173	-0.506102
C19	C	-0.216429	-1.128396	-0.506117
C20	C	-0.187738	-1.073598	-0.573435
C21	C	-0.187744	-0.963874	-0.573438
C22	C	-0.245137	-0.963755	-0.438804
C23	C	-0.245128	-1.073477	-0.438796
C24	C	-0.154604	-1.073667	-0.651168
C25	C	-0.154610	-0.963943	-0.651172
C26	C	-0.333165	-1.517950	-0.506072
C27	C	-0.383100	-1.517965	-0.506084
C28	C	-0.692745	-1.585440	-0.439031
C29	C	-0.880418	-1.585570	-0.439072
O30	O	-0.904685	-1.642790	-0.382021
N31	N	-0.903885	-1.518358	-0.506203
C32	C	-0.880430	-1.451113	-0.573333
O33	O	-0.904696	-1.393955	-0.630441
C34	C	-0.692758	-1.450989	-0.573297
C35	C	-0.669294	-1.518199	-0.506154
C36	C	-0.669281	-1.652645	-0.371894
C37	C	-0.622366	-1.652608	-0.371881
C38	C	-0.598914	-1.585366	-0.439004
C39	C	-0.622378	-1.518162	-0.506141
C40	C	-0.669304	-1.383751	-0.640432
C41	C	-0.622383	-1.383728	-0.640419
C42	C	-0.598919	-1.450937	-0.573276
C43	C	-0.552011	-1.450883	-0.573250
N44	N	-0.528545	-1.518095	-0.506119
C45	C	-0.551996	-1.585337	-0.438996
C46	C	-0.978960	-1.451181	-0.573346
C47	C	-1.025878	-1.451211	-0.573354
C48	C	-1.025863	-1.585669	-0.439094
C49	C	-0.978945	-1.585634	-0.439081
C50	C	-0.955494	-1.518394	-0.506215
C51	C	-0.453471	-1.585253	-0.438972
C52	C	-0.406551	-1.585207	-0.438961
C53	C	-0.406570	-1.450752	-0.573225
C54	C	-0.453485	-1.450794	-0.573232
C55	C	-0.476935	-1.518053	-0.506102
O56	O	-0.527716	-1.393701	-0.630280
O57	O	-0.527722	-1.642502	-0.381913
C58	C	-0.739661	-1.585478	-0.439045
C59	C	-0.763125	-1.518273	-0.506181
C60	C	-0.739673	-1.451031	-0.573304
C61	C	-0.810042	-1.518302	-0.506189
C62	C	-0.833494	-1.585544	-0.439066
C63	C	-0.810027	-1.652756	-0.371935
C64	C	-0.763112	-1.652719	-0.371921
C65	C	-0.763140	-1.383819	-0.640435
C66	C	-0.810055	-1.383861	-0.640443
C67	C	-0.833506	-1.451102	-0.573320
C68	C	-0.099264	-1.518359	-0.506199
C69	C	-0.049330	-1.518452	-0.506231
C70	C	-0.216399	-1.518213	-0.780157
C71	C	-0.216381	-1.518244	-0.896934
C72	C	-0.216454	-0.792173	-0.506139
C73	C	-0.216444	-0.908950	-0.506129
C74	C	-0.187627	-1.585526	-1.061547
C75	C	-0.187646	-1.585501	-0.951822
C76	C	-0.245102	-1.451015	-0.951775
C77	C	-0.245085	-1.451046	-1.061497
C78	C	-0.154454	-1.663168	-1.061573
C79	C	-0.154472	-1.663143	-0.951849
C80	C	-0.216453	-1.518128	-0.233156
C81	C	-0.216345	-1.518300	-0.116380
H82	H	-0.119796	-1.103471	-0.629524
C83	C	-0.550469	-1.323969	-0.700036
C84	C	-0.596606	-1.309812	-0.714215
H85	H	-0.534557	-1.278340	-0.745599
H86	H	-0.542810	-1.308618	-0.629440
H87	H	-0.542749	-1.394548	-0.715472
H88	H	-0.604327	-1.239234	-0.698772
H89	H	-0.604268	-1.325156	-0.784828
H90	H	-0.744011	-1.707448	-0.317248
H91	H	-0.268475	-1.396314	-1.106139
H92	H	-0.603264	-1.707338	-0.317210
C93	C	-0.075079	-0.952059	-0.677195
C94	C	-0.109964	-0.918061	-0.612052
H95	H	-0.047516	-0.923737	-0.653050
H96	H	-0.073571	-1.026406	-0.675858
H97	H	-0.080489	-0.929073	-0.746856
H98	H	-0.104556	-0.941053	-0.542392
H99	H	-0.111471	-0.843698	-0.613379
H100	H	-0.167106	-1.107718	-0.728404
C101	C	-0.301903	-1.318107	-0.962750
C102	C	-0.276696	-1.377101	-0.891445
H103	H	-0.321411	-1.272483	-0.925504
H104	H	-0.282322	-1.277955	-1.005543
H105	H	-0.319076	-1.363878	-1.005550
H106	H	-0.259521	-1.331331	-0.848651
H107	H	-0.296280	-1.417256	-0.848634
H108	H	-0.119681	-1.641405	-0.922091
H109	H	-0.472557	-1.640024	-0.384310
C110	C	-0.167254	-0.814020	-0.760948
C111	C	-0.167253	-0.923761	-0.760959
H112	H	-0.175057	-0.789216	-0.828726
H113	H	-0.188451	-0.789169	-0.711227
H114	H	-0.138252	-0.789250	-0.742901
H115	H	-0.196256	-0.948531	-0.778999
H116	H	-0.146055	-0.948622	-0.810696
C117	C	-0.334651	-1.391024	-0.632818
C118	C	-0.380786	-1.376848	-0.647010
H119	H	-0.318733	-1.345406	-0.678380
H120	H	-0.326994	-1.375672	-0.562221
H121	H	-0.326936	-1.461608	-0.648246
H122	H	-0.388501	-1.306265	-0.631574
H123	H	-0.388445	-1.392193	-0.717623
H124	H	-0.268487	-1.118089	-0.383970
H125	H	-0.268502	-0.919026	-0.383994
C126	C	-0.881947	-1.712549	-0.312403
C127	C	-0.835812	-1.726705	-0.298186
H128	H	-0.897865	-1.758216	-0.266892
H129	H	-0.889672	-1.641991	-0.296931
H130	H	-0.889591	-1.727857	-0.383027
H131	H	-0.828166	-1.711389	-0.227564
H132	H	-0.828083	-1.797279	-0.313651
C133	C	-0.167027	-1.773003	-1.211522
C134	C	-0.167044	-1.772990	-1.101781
H135	H	-0.174800	-1.840801	-1.236342
H136	H	-0.188238	-1.723329	-1.236304
H137	H	-0.138027	-1.754903	-1.236344
H138	H	-0.196045	-1.791083	-1.076958
H139	H	-0.145832	-1.822680	-1.076989
H140	H	-0.387448	-1.639937	-0.384282
H141	H	-0.688370	-1.707407	-0.317234
H142	H	-0.959843	-1.640362	-0.384408
C143	C	-1.097782	-1.645522	-0.379620
C144	C	-1.051647	-1.659663	-0.365390
H145	H	-1.113700	-1.691232	-0.334150
H146	H	-1.105516	-1.574980	-0.364101
H147	H	-1.105419	-1.660784	-0.450259
H148	H	-1.044010	-1.644394	-0.294752
H149	H	-1.043910	-1.730222	-0.380901
C150	C	-1.021169	-1.318310	-0.706068
C151	C	-1.051667	-1.377326	-0.647154
H152	H	-1.037089	-1.272703	-0.751637
H153	H	-1.002901	-1.278137	-0.660251
H154	H	-1.002837	-1.364067	-0.746284
H155	H	-1.069996	-1.331569	-0.606931
H156	H	-1.069942	-1.417501	-0.692976
H157	H	-0.959870	-1.396423	-0.628016
C158	C	-0.080536	-1.598121	-1.025841
C159	C	-0.109827	-1.623926	-1.107554
H160	H	-0.052985	-1.573899	-1.054232
H161	H	-0.093541	-1.544588	-0.983937
H162	H	-0.075211	-1.658382	-0.983950
H163	H	-0.115155	-1.563662	-1.149442
H164	H	-0.096819	-1.677463	-1.149476
H165	H	-0.688400	-1.329017	-0.695102
H166	H	-0.472591	-1.396070	-0.627909
C167	C	-0.805345	-1.250961	-0.773169
C168	C	-0.835843	-1.309979	-0.714256
H169	H	-0.821266	-1.205362	-0.818745
H170	H	-0.787081	-1.210782	-0.727352
H171	H	-0.787010	-1.296718	-0.813378
H172	H	-0.854176	-1.264222	-0.674041
H173	H	-0.854115	-1.350161	-0.760079
H174	H	-0.744049	-1.329064	-0.695097
H175	H	-0.166947	-1.740406	-0.917816
