data_functionalizedCrystal
_audit_creation_method	'MofGen! by Chris Wilmer'
_symmetry_space_group_name_H-M	'P1'
_symmetry_Int_Tables_number	1
_symmetry_cell_setting	triclinic
loop_
_symmetry_equiv_pos_as_xyz
  x,y,z
_cell_length_a	12.759394
_cell_length_b	21.395362
_cell_length_c	21.395356
_cell_angle_alpha	90.035878
_cell_angle_beta	89.975754
_cell_angle_gamma	89.969284
loop_
_atom_site_label
_atom_site_type_symbol
_atom_site_fract_x
_atom_site_fract_y
_atom_site_fract_z
Zn1	Zn	-0.417843	-0.957879	-0.354603
Zn2	Zn	0.082157	-0.457879	0.145397
Zn3	Zn	-0.593537	-0.957825	-0.249832
Zn4	Zn	-0.093537	-0.457825	0.250168
Zn5	Zn	-0.417921	-0.853108	-0.249804
Zn6	Zn	0.082079	-0.353108	0.250196
Zn7	Zn	-0.593529	-0.853092	-0.354537
Zn8	Zn	-0.093529	-0.353092	0.145463
O9	O	-0.505707	-0.905476	-0.302194
O10	O	-0.005707	-0.405476	0.197806
O11	O	-0.441119	-1.045549	-0.340744
O12	O	0.058881	-0.545549	0.159256
O13	O	-0.570277	-0.943918	-0.162151
O14	O	-0.070277	-0.443918	0.337849
O15	O	-0.270890	-0.867036	-0.263721
O16	O	0.229110	-0.367036	0.236279
O17	O	-0.570201	-1.045510	-0.263770
O18	O	-0.070201	-0.545510	0.236230
O19	O	-0.270832	-0.944010	-0.340717
O20	O	0.229168	-0.444010	0.159283
O21	O	-0.441253	-0.866984	-0.162130
O22	O	0.058747	-0.366984	0.337870
O23	O	-0.441245	-0.765428	-0.263658
O24	O	0.058755	-0.265428	0.236342
O25	O	-0.570187	-0.867008	-0.442224
O26	O	-0.070187	-0.367008	0.057776
O27	O	-0.570264	-0.765416	-0.340605
O28	O	-0.070264	-0.265416	0.159395
O29	O	-0.441112	-0.943994	-0.442272
O30	O	0.058888	-0.443994	0.057728
O31	O	-0.740557	-0.943902	-0.263706
O32	O	-0.240557	-0.443902	0.236294
O33	O	-0.740551	-0.866955	-0.340632
O34	O	-0.240551	-0.366955	0.159368
C35	C	-0.505763	-0.742688	-0.302121
C36	C	-0.005763	-0.242688	0.197879
C37	C	-0.505812	-0.673047	-0.302105
C38	C	-0.005812	-0.173047	0.197895
C39	C	-0.778675	-0.905438	-0.302179
C40	C	-0.278675	-0.405438	0.197821
C41	C	-0.895452	-0.905480	-0.302193
C42	C	-0.395452	-0.405480	0.197807
C43	C	-0.505640	-0.905505	-0.465617
C44	C	-0.005640	-0.405505	0.034383
C45	C	-0.505611	-0.905517	-0.535259
C46	C	-0.005611	-0.405517	-0.035259
C47	C	-0.895404	-0.985665	-0.222150
C48	C	-0.395404	-0.485665	0.277850
C49	C	-0.950241	-1.025773	-0.182136
C50	C	-0.450241	-0.525773	0.317864
C51	C	-1.059963	-1.025810	-0.182153
C52	C	-0.559963	-0.525810	0.317847
C53	C	-1.114850	-0.985735	-0.222190
C54	C	-0.614850	-0.485735	0.277810
C55	C	-1.060013	-0.945626	-0.262204
C56	C	-0.560013	-0.445626	0.237796
C57	C	-0.950289	-0.945593	-0.262182
C58	C	-0.450289	-0.445593	0.237818
C59	C	-1.060060	-0.865445	-0.342250
C60	C	-0.560060	-0.365445	0.157750
C61	C	-0.950338	-0.865404	-0.342230
C62	C	-0.450338	-0.365404	0.157770
C63	C	-1.114947	-0.825370	-0.382286
C64	C	-0.614947	-0.325370	0.117714
C65	C	-1.060110	-0.785257	-0.422298
C66	C	-0.560110	-0.285257	0.077702
C67	C	-0.950382	-0.785222	-0.422279
C68	C	-0.450382	-0.285222	0.077721
C69	C	-0.895501	-0.825296	-0.382244
C70	C	-0.395501	-0.325296	0.117756
C71	C	-0.231674	-0.905531	-0.302223
C72	C	0.268326	-0.405531	0.197777
C73	C	-0.114897	-0.905554	-0.302235
C74	C	0.385103	-0.405554	0.197765
C75	C	-0.505652	-1.068899	-0.302267
C76	C	-0.005652	-0.568899	0.197733
C77	C	-0.505629	-1.138541	-0.302299
C78	C	-0.005629	-0.638541	0.197701
C79	C	-0.573081	-0.640344	-0.342112
C80	C	-0.073081	-0.140344	0.157888
C81	C	-0.573055	-0.574909	-0.342139
C82	C	-0.073055	-0.074909	0.157861
C83	C	-0.505772	-0.542179	-0.302150
C84	C	-0.005772	-0.042179	0.197850
C85	C	-0.438490	-0.574890	-0.262141
C86	C	0.061510	-0.074890	0.237859
C87	C	-0.438510	-0.640324	-0.262118
C88	C	0.061490	-0.140324	0.237882
C89	C	-0.497324	-0.438461	-0.245744
C90	C	0.002676	0.061539	0.254256
C91	C	-0.497311	-0.373028	-0.245766
C92	C	0.002689	0.126972	0.254234
C93	C	-0.505703	-0.340358	-0.302219
C94	C	-0.005703	0.159642	0.197781
C95	C	-0.514130	-0.373129	-0.358653
C96	C	-0.014130	0.126871	0.141347
C97	C	-0.514150	-0.438564	-0.358631
C98	C	-0.014150	0.061436	0.141369
C99	C	-0.505742	-0.471226	-0.302170
C100	C	-0.005742	0.028774	0.197830
C101	C	-0.572947	-0.236702	-0.342259
C102	C	-0.072947	0.263298	0.157741
C103	C	-0.572914	-0.171266	-0.342288
C104	C	-0.072914	0.328734	0.157712
C105	C	-0.438354	-0.171248	-0.262284
C106	C	0.061646	0.328752	0.237716
C107	C	-0.438382	-0.236684	-0.262260
C108	C	0.061618	0.263316	0.237740
C109	C	-0.505684	-0.269407	-0.302247
C110	C	-0.005684	0.230593	0.197753
C111	C	-0.438234	-0.945663	-1.037081
C112	C	0.061766	-0.445663	-0.537081
C113	C	-0.438259	-0.945658	-0.971646
C114	C	0.061741	-0.445658	-0.471646
C115	C	-0.505471	-0.905571	-0.938897
C116	C	-0.005471	-0.405571	-0.438897
C117	C	-0.572682	-0.865497	-0.971590
C118	C	-0.072682	-0.365497	-0.471590
C119	C	-0.572662	-0.865508	-1.037024
C120	C	-0.072662	-0.365508	-0.537024
C121	C	-0.513818	-0.849103	-0.835203
C122	C	-0.013818	-0.349103	-0.335203
C123	C	-0.513830	-0.849092	-0.769770
C124	C	-0.013830	-0.349092	-0.269770
C125	C	-0.505538	-0.905539	-0.737076
C126	C	-0.005538	-0.405539	-0.237076
C127	C	-0.497212	-0.961999	-0.769824
C128	C	0.002788	-0.461999	-0.269824
C129	C	-0.497192	-0.962010	-0.835259
C130	C	0.002808	-0.462010	-0.335259
C131	C	-0.505501	-0.905555	-0.867945
C132	C	-0.005501	-0.405555	-0.367945
C133	C	-0.438364	-0.945608	-0.633439
C134	C	0.061636	-0.445608	-0.133439
C135	C	-0.438397	-0.945604	-0.568003
C136	C	0.061603	-0.445604	-0.068003
C137	C	-0.572814	-0.865438	-0.567948
C138	C	-0.072814	-0.365438	-0.067948
C139	C	-0.572787	-0.865447	-0.633383
C140	C	-0.072787	-0.365447	-0.133383
C141	C	-0.505557	-0.905531	-0.666125
C142	C	-0.005557	-0.405531	-0.166125
C143	C	-0.505699	-0.905483	-0.139407
C144	C	-0.005699	-0.405483	0.360593
C145	C	-0.505432	-0.905592	-0.069766
C146	C	-0.005432	-0.405592	0.430234
H147	H	-0.806063	-0.985631	-0.222124
H148	H	-0.306063	-0.485631	0.277876
H149	H	-0.627691	-0.144640	-0.374870
H150	H	-0.127691	0.355360	0.125130
H151	H	-0.905543	-1.058404	-0.149540
H152	H	-0.405543	-0.558404	0.350460
H153	H	-0.627882	-0.666983	-0.374673
H154	H	-0.127882	-0.166983	0.125327
H155	H	-0.905739	-0.752563	-0.454866
H156	H	-0.405739	-0.252563	0.045134
H157	H	-0.806160	-0.825267	-0.382221
H158	H	-0.306160	-0.325267	0.117779
H159	H	-0.627833	-0.548277	-0.374720
H160	H	-0.127833	-0.048277	0.125280
H161	H	-0.383610	-0.263311	-0.229680
H162	H	0.116390	0.236689	0.270320
H163	H	-0.383535	-0.978289	-0.945029
H164	H	0.116465	-0.478289	-0.445029
Br165	Br	-0.485877	-0.328559	-0.169178
Br166	Br	0.014123	0.171441	0.330822
Br167	Br	-0.485935	-0.482791	-0.169122
Br168	Br	0.014065	0.017209	0.330878
Br169	Br	-0.347029	-0.126836	-0.208017
Br170	Br	0.152971	0.373164	0.291983
Br171	Br	-0.347201	-0.999997	-0.523644
Br172	Br	0.152799	-0.499997	-0.023644
Br173	Br	-0.347167	-0.530473	-0.207874
Br174	Br	0.152833	-0.030473	0.292126
H175	H	-0.383728	-0.666950	-0.229540
H176	H	0.116272	-0.166950	0.270460
H177	H	-0.383494	-0.978306	-1.063736
H178	H	0.116506	-0.478306	-0.563736
H179	H	-0.521009	-0.465243	-0.404581
H180	H	-0.021009	0.034757	0.095419
H181	H	-0.627544	-0.832800	-0.541285
H182	H	-0.127544	-0.332800	-0.041285
H183	H	-0.490415	-1.007982	-0.861919
H184	H	0.009585	-0.507982	-0.361919
Br185	Br	-0.663906	-0.811097	-0.927147
Br186	Br	-0.163906	-0.311097	-0.427147
Br187	Br	-0.525517	-0.328801	-0.435275
Br188	Br	-0.025517	0.171199	0.064725
H189	H	-0.490457	-1.007964	-0.743207
H190	H	0.009543	-0.507964	-0.243207
Br191	Br	-0.347103	-0.999993	-0.677879
Br192	Br	0.152897	-0.499993	-0.177879
H193	H	-0.627503	-0.832814	-0.659995
H194	H	-0.127503	-0.332814	-0.159995
H195	H	-0.520609	-0.803119	-0.743111
H196	H	-0.020609	-0.303119	-0.243111
H197	H	-1.104611	-1.058473	-0.149573
H198	H	-0.604611	-0.558473	0.350427
H199	H	-0.520571	-0.803134	-0.861816
H200	H	-0.020571	-0.303134	-0.361816
Br201	Br	-0.664279	-0.281116	-0.396528
Br202	Br	-0.164279	0.218884	0.103472
H203	H	-1.204288	-0.825406	-0.382300
H204	H	-0.704288	-0.325406	0.117700
Br205	Br	-1.263758	-0.985492	-0.221919
Br206	Br	-0.763758	-0.485492	0.278081
Br207	Br	-1.134603	-0.730882	-0.476634
Br208	Br	-0.634603	-0.230882	0.023366
Br209	Br	-0.663869	-0.811123	-1.081385
Br210	Br	-0.163869	-0.311123	-0.581385
