data_functionalizedCrystal
_audit_creation_method	'MofGen! by Chris Wilmer'
_symmetry_space_group_name_H-M	'P1'
_symmetry_Int_Tables_number	1
_symmetry_cell_setting	triclinic
loop_
_symmetry_equiv_pos_as_xyz
  x,y,z
_cell_length_a	14.044220
_cell_length_b	19.288865
_cell_length_c	17.766277
_cell_angle_alpha	90.011603
_cell_angle_beta	90.004280
_cell_angle_gamma	88.162563
loop_
_atom_site_label
_atom_site_type_symbol
_atom_site_fract_x
_atom_site_fract_y
_atom_site_fract_z
O1	O	-1.256998	-0.167413	-0.062531
O2	O	-0.756998	0.332587	0.437469
O3	O	-0.981055	-0.161372	-0.062549
O4	O	-0.481055	0.338628	0.437451
O5	O	-1.127000	-0.063774	-0.062525
O6	O	-0.627000	0.436226	0.437475
O7	O	-1.111053	-0.265010	-0.062556
O8	O	-0.611053	0.234990	0.437444
O9	O	-1.126975	-0.063767	0.062664
O10	O	-0.626975	0.436233	0.562664
O11	O	-0.981029	-0.161365	0.062639
O12	O	-0.481029	0.338635	0.562639
O13	O	-1.256973	-0.167406	0.062658
O14	O	-0.756973	0.332594	0.562658
Cu15	Cu	-1.118999	-0.164385	0.074079
Cu16	Cu	-0.618999	0.335615	0.574079
Cu17	Cu	-1.119029	-0.164393	-0.073971
Cu18	Cu	-0.619029	0.335607	0.426029
O19	O	-1.111028	-0.265003	0.062633
O20	O	-0.611028	0.234997	0.562633
C21	C	-1.126474	-0.037862	0.000072
C22	C	-0.626474	0.462138	0.500072
C23	C	-1.124934	0.039341	0.000078
C24	C	-0.624934	0.539341	0.500078
C25	C	-0.945739	-0.158724	0.000043
C26	C	-0.445739	0.341276	0.500043
C27	C	-0.840547	-0.150836	0.000036
C28	C	-0.340547	0.349164	0.500036
C29	C	-1.292289	-0.170054	0.000064
C30	C	-0.792289	0.329946	0.500064
C31	C	-1.397481	-0.177942	0.000065
C32	C	-0.897481	0.322058	0.500065
C33	C	-0.647947	-0.136416	0.000053
C34	C	-0.147947	0.363584	0.500053
C35	C	-0.590075	-0.192359	0.000048
C36	C	-0.090075	0.307641	0.500048
C37	C	-0.482906	-0.184335	0.000058
C38	C	0.017094	0.315665	0.500058
C39	C	-0.755126	-0.144438	0.000044
C40	C	-0.255126	0.355562	0.500044
C41	C	-1.111554	-0.290916	0.000035
C42	C	-0.611554	0.209084	0.500035
C43	C	-1.113094	-0.368119	0.000023
C44	C	-0.613094	0.131881	0.500023
N45	N	-1.118984	-0.164379	0.178209
N46	N	-0.618984	0.335621	0.678209
C47	C	-1.210568	0.078535	0.000088
C48	C	-0.710568	0.578535	0.500088
C49	C	-1.209121	0.151075	0.000076
C50	C	-0.709121	0.651075	0.500076
C51	C	-1.122035	0.184418	0.000069
C52	C	-0.622035	0.684418	0.500069
C53	C	-1.036390	0.145215	0.000056
C54	C	-0.536390	0.645215	0.500056
C55	C	-1.037839	0.072676	0.000060
C56	C	-0.537839	0.572676	0.500060
C57	C	-1.053566	0.297107	0.043916
C58	C	-0.553566	0.797107	0.543916
C59	C	-1.052120	0.369644	0.043916
C60	C	-0.552120	0.869644	0.543916
C61	C	-1.117560	0.408151	0.000052
C62	C	-0.617560	0.908151	0.500052
C63	C	-1.184463	0.374113	-0.043802
C64	C	-0.684463	0.874113	0.456198
C65	C	-1.185912	0.301574	-0.043797
C66	C	-0.685912	0.801574	0.456203
C67	C	-1.120453	0.263074	0.000064
C68	C	-0.620453	0.763074	0.500064
C69	C	-1.201631	0.526002	0.000048
C70	C	-0.701631	1.026002	0.500048
C71	C	-1.200181	0.598543	0.000031
C72	C	-0.700181	1.098543	0.500031
C73	C	-1.027447	0.592681	0.000019
C74	C	-0.527447	1.092681	0.500019
C75	C	-1.028900	0.520142	0.000028
C76	C	-0.528900	1.020142	0.500028
C77	C	-1.115995	0.486806	0.000046
C78	C	-0.615995	0.986806	0.500046
N79	N	-1.119051	-0.164394	-0.178101
N80	N	-0.619051	0.335606	0.321899
C81	C	-1.183630	-0.121187	0.217607
C82	C	-0.683630	0.378813	0.717607
C83	C	-1.183635	-0.121184	0.296409
C84	C	-0.683635	0.378816	0.796409
C85	C	-1.119004	-0.164386	0.335810
C86	C	-0.619004	0.335614	0.835810
C87	C	-1.054347	-0.207580	0.296403
C88	C	-0.554347	0.292420	0.796403
C89	C	-1.054337	-0.207577	0.217602
C90	C	-0.554337	0.292423	0.717602
C91	C	-1.106318	-0.226858	0.460638
C92	C	-0.606318	0.273142	0.960638
C93	C	-1.106335	-0.226863	0.539437
C94	C	-0.606335	0.273137	1.039437
C95	C	-1.119030	-0.164396	0.578856
C96	C	-0.619030	0.335604	1.078856
C97	C	-1.131728	-0.101922	0.539467
C98	C	-0.631728	0.398078	1.039467
C99	C	-1.131718	-0.101919	0.460667
C100	C	-0.631718	0.398081	0.960667
C101	C	-1.119008	-0.164394	0.421256
C102	C	-0.619008	0.335606	0.921256
C103	C	-1.183684	-0.121197	0.703700
C104	C	-0.683684	0.378803	1.203700
C105	C	-1.183683	-0.121193	0.782503
C106	C	-0.683683	0.378807	1.282503
C107	C	-1.054400	-0.207595	0.782495
C108	C	-0.554400	0.292405	1.282495
C109	C	-1.054396	-0.207593	0.703694
C110	C	-0.554396	0.292407	1.203694
C111	C	-1.119044	-0.164395	0.664301
C112	C	-0.619044	0.335605	1.164301
H113	H	-0.617008	-0.082499	0.000066
H114	H	-0.117008	0.417501	0.500066
H115	H	-0.621016	-0.246280	0.000036
H116	H	-0.121016	0.253720	0.500036
N117	N	-1.145427	-0.034540	0.581971
N118	N	-0.645427	0.465460	1.081971
H119	H	-1.143503	-0.044019	0.637867
H120	H	-0.643503	0.455981	1.137867
H121	H	-1.092870	-0.002334	0.568209
H122	H	-0.592870	0.497666	1.068209
H123	H	-1.001760	-0.242767	0.671614
H124	H	-0.501760	0.257233	1.171614
N125	N	-0.979960	0.406345	0.091215
N126	N	-0.479960	0.906345	0.591215
H127	H	-0.938670	0.435055	0.057613
H128	H	-0.438670	0.935055	0.557613
H129	H	-1.014211	0.437591	0.128724
H130	H	-0.514211	0.937591	0.628724
H131	H	-1.142055	-0.051051	0.428600
H132	H	-0.642055	0.448949	0.928600
H133	H	-1.236322	-0.086020	0.671625
H134	H	-0.736322	0.413980	1.171625
N135	N	-1.301482	0.193366	0.000090
N136	N	-0.801482	0.693366	0.500090
H137	H	-1.339511	0.182018	-0.046310
H138	H	-0.839511	0.682018	0.453690
H139	H	-1.339399	0.182018	0.046536
H140	H	-0.839399	0.682018	0.546536
N141	N	-1.304501	0.042581	0.000106
N142	N	-0.804501	0.542581	0.500106
H143	H	-1.358531	0.078422	0.000109
H144	H	-0.858531	0.578422	0.500109
H145	H	-1.308879	0.012601	-0.046301
H146	H	-0.808879	0.512601	0.453699
H147	H	-1.240385	0.273863	-0.079506
H148	H	-0.740385	0.773863	0.420494
N149	N	-1.255055	0.415634	-0.091114
N150	N	-0.755055	0.915634	0.408886
H151	H	-1.243985	0.466751	-0.084467
H152	H	-0.743985	0.966751	0.415533
H153	H	-1.246461	0.402637	-0.145820
H154	H	-0.746461	0.902637	0.354180
H155	H	-1.001772	-0.242768	0.814575
H156	H	-0.501772	0.257232	1.314575
H157	H	-1.096001	-0.277733	0.571501
H158	H	-0.596001	0.222267	1.071501
N159	N	-1.295563	0.490041	0.000064
N160	N	-0.795563	0.990041	0.500064
H161	H	-1.349594	0.525880	0.000062
H162	H	-0.849594	1.025880	0.500062
H163	H	-1.299935	0.460057	-0.046341
H164	H	-0.799935	0.960057	0.453659
H165	H	-1.001722	-0.242754	0.328487
H166	H	-0.501722	0.257246	0.828487
N167	N	-1.292547	0.640821	0.000038
N168	N	-0.792547	1.140821	0.500038
H169	H	-1.347937	0.608693	0.000053
H170	H	-0.847937	1.108693	0.500053
H171	H	-1.295690	0.671057	0.046444
H172	H	-0.795690	1.171057	0.546444
H173	H	-0.956540	0.619828	0.000010
H174	H	-0.456540	1.119828	0.500010
H175	H	-1.236267	-0.086011	0.185536
H176	H	-0.736267	0.413989	0.685536
N177	N	-1.092626	-0.294238	0.418124
N178	N	-0.592626	0.205762	0.918124
H179	H	-1.084595	-0.333814	0.455032
H180	H	-0.584595	0.166186	0.955032
H181	H	-1.150174	-0.301879	0.385422
H182	H	-0.650174	0.198121	0.885422
N183	N	-1.253418	-0.074608	0.824998
N184	N	-0.753418	0.425392	1.324998
H185	H	-1.243614	-0.081162	0.880896
H186	H	-0.743614	0.418838	1.380896
H187	H	-1.242694	-0.024662	0.811237
H188	H	-0.742694	0.475338	1.311237
N189	N	-0.984605	-0.254165	0.175110
N190	N	-0.484605	0.245835	0.675110
H191	H	-0.995302	-0.304132	0.188810
H192	H	-0.495302	0.195868	0.688810
H193	H	-0.994440	-0.247552	0.119225
H194	H	-0.494440	0.252448	0.619225
N195	N	-0.936539	0.477860	0.000033
N196	N	-0.436539	0.977860	0.500033
H197	H	-0.933298	0.447621	-0.046372
H198	H	-0.433298	0.947621	0.453628
H199	H	-0.881201	0.510031	0.000057
H200	H	-0.381201	1.010031	0.500057
N201	N	-0.982975	0.255577	0.091224
N202	N	-0.482975	0.755577	0.591224
H203	H	-0.940380	0.288145	0.119008
H204	H	-0.440380	0.788145	0.619008
H205	H	-1.018438	0.226671	0.128690
H206	H	-0.518438	0.726671	0.628690
H207	H	-0.968103	0.040764	0.000053
H208	H	-0.468103	0.540764	0.500053
N209	N	-0.942460	0.181172	0.000045
N210	N	-0.442460	0.681172	0.500045
H211	H	-0.954535	0.233073	0.000046
H212	H	-0.454535	0.733073	0.500046
H213	H	-0.904988	0.167223	0.046450
H214	H	-0.404988	0.667223	0.546450
N215	N	-1.253360	-0.074596	0.338915
N216	N	-0.753360	0.425404	0.838915
H217	H	-1.294310	-0.047229	0.302003
H218	H	-0.794310	0.452771	0.802003
H219	H	-1.295134	-0.103800	0.371596
H220	H	-0.795134	0.396200	0.871596
