data_functionalizedCrystal
_audit_creation_method	'MofGen! by Chris Wilmer'
_symmetry_space_group_name_H-M	'P1'
_symmetry_Int_Tables_number	1
_symmetry_cell_setting	triclinic
loop_
_symmetry_equiv_pos_as_xyz
  x,y,z
_cell_length_a	14.044220
_cell_length_b	26.210047
_cell_length_c	14.044220
_cell_angle_alpha	90.004027
_cell_angle_beta	86.811122
_cell_angle_gamma	90.004879
loop_
_atom_site_label
_atom_site_type_symbol
_atom_site_fract_x
_atom_site_fract_y
_atom_site_fract_z
O1	O	1.277175	0.042377	-0.230154
O2	O	1.000503	0.042390	-0.221849
O3	O	1.134686	0.042378	-0.087666
O4	O	1.142992	0.042388	-0.364337
O5	O	1.134660	-0.042480	-0.087686
O6	O	1.000477	-0.042468	-0.221869
O7	O	1.277148	-0.042481	-0.230175
Cu8	Cu	1.138810	-0.050223	-0.226024
Cu9	Cu	1.138841	0.050131	-0.226000
O10	O	1.142965	-0.042470	-0.364358
C11	C	0.964868	-0.000038	-0.218223
C12	C	0.858725	-0.000033	-0.207379
N13	N	1.138795	-0.120807	-0.226041
C14	C	0.664388	-0.000044	-0.187553
C15	C	0.613258	-0.000043	-0.264467
C16	C	0.505122	-0.000049	-0.253435
C17	C	0.772534	-0.000038	-0.198583
C18	C	1.198252	-0.473326	-0.166598
C19	C	1.198272	-0.686985	-0.166586
O20	O	1.248788	-0.714611	-0.116046
N21	N	1.138845	-0.713701	-0.225979
C22	C	1.079403	-0.686999	-0.285375
O23	O	1.028850	-0.714626	-0.335885
C24	C	1.079379	-0.473342	-0.285381
C25	C	1.138818	-0.446628	-0.225991
C26	C	1.257685	-0.446612	-0.107212
C27	C	1.257683	-0.393201	-0.107219
C28	C	1.198249	-0.366503	-0.166612
C29	C	1.138816	-0.393217	-0.225998
C30	C	1.019934	-0.446641	-0.344771
C31	C	1.019931	-0.393223	-0.344765
C32	C	1.079370	-0.366510	-0.285375
C33	C	1.079380	-0.313107	-0.285398
N34	N	1.138807	-0.286391	-0.226005
C35	C	1.198241	-0.313089	-0.166612
C36	C	1.079422	-0.799173	-0.285369
C37	C	1.079429	-0.852587	-0.285369
C38	C	1.198296	-0.852568	-0.166579
C39	C	1.198293	-0.799153	-0.166584
C40	C	1.138849	-0.772456	-0.225976
C41	C	1.198234	-0.200921	-0.166633
C42	C	1.198230	-0.147505	-0.166648
C43	C	1.079359	-0.147528	-0.285434
C44	C	1.079366	-0.200939	-0.285423
C45	C	1.138807	-0.227635	-0.226014
O46	O	1.028882	-0.285448	-0.335904
O47	O	1.248772	-0.285453	-0.116094
C48	C	1.198254	-0.526737	-0.166590
C49	C	1.138821	-0.553451	-0.225976
C50	C	1.079387	-0.526753	-0.285369
C51	C	1.138828	-0.606865	-0.225976
C52	C	1.198263	-0.633563	-0.166583
C53	C	1.257690	-0.606847	-0.107190
C54	C	1.257688	-0.553435	-0.107197
C55	C	1.019959	-0.553469	-0.344762
C56	C	1.019967	-0.606881	-0.344751
C57	C	1.079401	-0.633579	-0.285358
C58	C	1.312783	-0.000053	-0.233800
C59	C	1.418926	-0.000054	-0.244645
C60	C	1.131037	-0.000051	-0.052054
C61	C	1.120193	-0.000051	0.054088
N62	N	1.138863	0.120715	-0.225976
C63	C	1.146614	-0.000040	-0.399969
C64	C	1.157459	-0.000036	-0.506112
C65	C	1.100366	-0.000043	0.248426
C66	C	1.177281	-0.000045	0.299556
C67	C	1.166249	-0.000040	0.407692
C68	C	1.111397	-0.000047	0.140280
H69	H	0.626951	-0.000049	-0.113425
C70	C	1.262797	-0.118595	-0.102058
C71	C	1.314824	-0.153412	-0.050024
C72	C	1.374300	-0.126801	0.009494
H73	H	1.305524	-0.097756	-0.139680
H74	H	1.225115	-0.097768	-0.059342
H75	H	1.352503	-0.174230	-0.092734
H76	H	1.272122	-0.174252	-0.012382
H77	H	1.336618	-0.105975	0.052210
H78	H	1.417021	-0.105964	-0.028136
H79	H	1.409601	-0.150421	0.044813
C80	C	1.001463	-0.000119	0.298212
C81	C	0.951986	-0.043770	0.271587
C82	C	0.860871	-0.043856	0.317432
H83	H	1.006956	-0.000143	0.365319
H84	H	0.967716	0.029458	0.280248
H85	H	0.985725	-0.073339	0.289557
H86	H	0.946467	-0.043755	0.204487
H87	H	0.827124	-0.014280	0.299468
H88	H	0.866373	-0.043879	0.384537
H89	H	0.827287	-0.073470	0.299367
C90	C	1.276051	-0.000081	0.249466
C91	C	1.267502	-0.000098	0.150614
C92	C	1.358464	-0.000141	0.104437
H93	H	1.309851	0.029500	0.267296
H94	H	1.309750	-0.029688	0.267358
H95	H	1.233818	0.029505	0.132730
H96	H	1.233719	-0.029677	0.132757
H97	H	1.392163	-0.029747	0.122329
H98	H	1.392257	0.029441	0.122275
H99	H	1.352676	-0.000157	0.037362
C100	C	1.262833	-0.229963	-0.102291
C101	C	1.325563	-0.260637	-0.158114
C102	C	1.385081	-0.287402	-0.098880
H103	H	1.298314	-0.206455	-0.066912
H104	H	1.225167	-0.250829	-0.059631
H105	H	1.363225	-0.239773	-0.200758
H106	H	1.290108	-0.284155	-0.193492
H107	H	1.347415	-0.308267	-0.056220
H108	H	1.420556	-0.263890	-0.063504
H109	H	1.427645	-0.308221	-0.136747
C110	C	0.663347	0.000005	-0.363237
C111	C	0.762200	0.000029	-0.354688
C112	C	0.808377	0.000087	-0.445650
H113	H	0.645526	-0.029573	-0.397050
H114	H	0.645447	0.029614	-0.396922
H115	H	0.780092	-0.029578	-0.321017
H116	H	0.780049	0.029605	-0.320892
H117	H	0.790477	0.029697	-0.479336
H118	H	0.790548	-0.029491	-0.479456
H119	H	0.875452	0.000108	-0.439862
H120	H	1.306083	-0.468345	-0.058843
C121	C	1.322241	-0.364294	-0.042624
C122	C	1.374264	-0.399117	0.009405
C123	C	1.433735	-0.372511	0.068935
H124	H	1.364971	-0.343453	-0.080238
H125	H	1.284556	-0.343471	0.000095
H126	H	1.411946	-0.419932	-0.033309
H127	H	1.331559	-0.419959	0.047037
H128	H	1.396050	-0.351687	0.111654
H129	H	1.476459	-0.351671	0.031314
H130	H	1.469033	-0.396134	0.104250
C131	C	1.322115	-0.635932	-0.042737
C132	C	1.309368	-0.688426	-0.055434
C133	C	1.368683	-0.715237	0.003934
H134	H	1.386748	-0.627241	-0.058464
H135	H	1.306350	-0.627207	0.021885
H136	H	1.325140	-0.697147	-0.120041
H137	H	1.244748	-0.697132	-0.039700
H138	H	1.352917	-0.706512	0.068555
H139	H	1.433312	-0.706542	-0.011799
H140	H	1.360036	-0.750857	-0.004667
H141	H	1.246692	-0.874315	-0.118220
C142	C	1.014799	-0.881494	-0.349891
C143	C	0.962732	-0.846674	-0.401880
C144	C	0.903169	-0.873283	-0.461315
H145	H	1.052393	-0.902333	-0.392642
H146	H	0.972104	-0.902321	-0.312183
H147	H	1.005421	-0.825856	-0.439585
H148	H	0.925119	-0.825835	-0.359153
H149	H	0.860475	-0.894109	-0.423608
H150	H	0.940771	-0.894120	-0.504061
H151	H	0.867829	-0.849662	-0.496591
H152	H	1.246693	-0.777406	-0.118224
H153	H	1.031014	-0.777440	-0.333735
H154	H	0.971533	-0.468384	-0.393130
H155	H	0.971521	-0.371489	-0.393128
C156	C	1.014729	-0.229854	-0.349933
C157	C	0.962662	-0.195037	-0.401931
C158	C	0.903088	-0.221650	-0.461348
H159	H	1.052315	-0.250699	-0.392680
H160	H	0.972035	-0.250674	-0.312213
H161	H	1.005351	-0.174226	-0.439649
H162	H	0.925058	-0.174191	-0.359209
H163	H	0.860394	-0.242470	-0.423628
H164	H	0.940682	-0.242494	-0.504089
H165	H	0.867748	-0.198031	-0.496629
H166	H	1.030971	-0.125782	-0.333794
H167	H	1.306088	-0.531689	-0.058836
C168	C	0.955324	-0.635788	-0.409270
C169	C	0.903259	-0.600968	-0.461261
C170	C	0.843687	-0.627577	-0.520687
H171	H	0.992912	-0.656630	-0.452021
H172	H	0.912629	-0.656611	-0.371556
H173	H	0.945948	-0.580154	-0.498973
H174	H	0.865653	-0.580125	-0.418535
H175	H	0.800992	-0.648400	-0.482973
H176	H	0.881282	-0.648418	-0.563432
H177	H	0.808347	-0.603956	-0.555963
C178	C	0.955590	-0.524424	-0.409321
C179	C	1.011386	-0.493755	-0.472085
C180	C	0.952123	-0.466990	-0.531573
H181	H	0.920186	-0.547932	-0.444778
H182	H	0.912952	-0.503556	-0.371637
H183	H	1.054006	-0.514622	-0.509765
H184	H	1.046789	-0.470238	-0.436654
H185	H	0.909486	-0.446121	-0.493888
H186	H	0.916722	-0.490501	-0.567023
H187	H	0.989971	-0.446174	-0.574159
