data_functionalizedCrystal
_audit_creation_method	'MofGen! by Chris Wilmer'
_symmetry_space_group_name_H-M	'P1'
_symmetry_Int_Tables_number	1
_symmetry_cell_setting	triclinic
loop_
_symmetry_equiv_pos_as_xyz
  x,y,z
_cell_length_a	10.723024
_cell_length_b	14.519709
_cell_length_c	9.198806
_cell_angle_alpha	89.995869
_cell_angle_beta	89.996352
_cell_angle_gamma	84.074007
loop_
_atom_site_label
_atom_site_type_symbol
_atom_site_fract_x
_atom_site_fract_y
_atom_site_fract_z
O1	O	1.655978	0.129347	-0.120886
O2	O	1.292710	0.141728	-0.120892
O3	O	1.483976	0.001349	-0.120876
O4	O	1.464713	0.269727	-0.120902
O5	O	1.483960	0.001348	0.120909
O6	O	1.292695	0.141728	0.120893
O7	O	1.655963	0.129347	0.120899
Cu8	Cu	1.474328	0.135538	0.142973
Cu9	Cu	1.474345	0.135538	-0.142966
O10	O	1.464697	0.269727	0.120883
C11	C	1.246211	0.140827	0.000000
C12	C	1.107682	0.138132	-0.000001
C13	C	1.031965	0.216681	-0.000010
C14	C	0.888788	0.213896	-0.000012
C15	C	1.483070	-0.033016	0.000017
C16	C	1.480380	-0.135411	0.000018
C17	C	1.470476	-0.510357	-0.000020
C18	C	1.473227	-0.406035	-0.000009
C19	C	1.475428	-0.322887	0.000000
C20	C	1.478179	-0.218559	0.000008
C21	C	1.702462	0.130248	0.000003
C22	C	1.840991	0.132944	-0.000005
C23	C	1.465603	0.304091	-0.000013
C24	C	1.468293	0.406486	-0.000024
N25	N	1.474324	0.135537	0.344087
N26	N	1.474359	0.135532	-0.344080
C27	C	1.554633	0.076335	0.416290
C28	C	1.554653	0.076332	0.583703
H29	H	1.623371	0.025649	0.354170
H30	H	1.405604	0.186222	0.593837
C31	C	1.149502	-0.027539	0.000019
C32	C	1.052115	0.044559	0.000009
H33	H	1.115196	-0.085307	0.000034
H34	H	1.199673	-0.023109	-0.084293
H35	H	1.199670	-0.023102	0.084340
H36	H	1.001951	0.040127	-0.084318
H37	H	1.001922	0.040127	0.084329
C38	C	1.161506	0.316764	-0.124308
C39	C	1.087534	0.310253	-0.000017
H40	H	1.195802	0.374536	-0.124312
H41	H	1.227555	0.267850	-0.124290
H42	H	1.111319	0.312337	-0.208615
H43	H	1.137724	0.314673	0.084292
H44	H	1.021476	0.359181	-0.000021
C45	C	1.626959	-0.082906	0.630838
C46	C	1.647474	0.007903	0.667513
H47	H	1.684271	-0.125152	0.682576
H48	H	1.543589	-0.093285	0.655737
H49	H	1.639127	-0.091870	0.529327
H50	H	1.635298	0.016868	0.769022
H51	H	1.730864	0.018285	0.642623
C52	C	1.304742	0.154638	0.515481
C53	C	1.381520	0.203959	0.427940
H54	H	1.247453	0.196882	0.567251
H55	H	1.259562	0.116098	0.456112
H56	H	1.355143	0.117498	0.582465
H57	H	1.331119	0.241094	0.360948
H58	H	1.426704	0.242515	0.487314
C59	C	0.872550	0.380064	-0.000038
C60	C	0.800968	0.304681	-0.000028
H61	H	0.818329	0.436111	-0.000057
H62	H	0.923913	0.377610	0.084276
H63	H	0.923938	0.377601	-0.084356
H64	H	0.749587	0.307140	0.084296
H65	H	0.749583	0.307136	-0.084350
H66	H	0.906045	0.065696	-0.000006
