data_functionalizedCrystal
_audit_creation_method	'MofGen! by Chris Wilmer'
_symmetry_space_group_name_H-M	'P1'
_symmetry_Int_Tables_number	1
_symmetry_cell_setting	triclinic
loop_
_symmetry_equiv_pos_as_xyz
  x,y,z
_cell_length_a	12.759401
_cell_length_b	12.594516
_cell_length_c	12.594509
_cell_angle_alpha	89.973801
_cell_angle_beta	89.980791
_cell_angle_gamma	90.017577
loop_
_atom_site_label
_atom_site_type_symbol
_atom_site_fract_x
_atom_site_fract_y
_atom_site_fract_z
Zn1	Zn	1.606239	-0.423667	-0.601815
Zn2	Zn	1.606131	-0.601677	-0.423843
Zn3	Zn	1.430543	-0.423718	-0.423850
Zn4	Zn	1.430525	-0.601608	-0.601779
O5	O	1.518359	-0.512667	-0.512822
O6	O	1.753245	-0.447288	-0.578218
O7	O	1.582801	-0.578120	-0.274898
O8	O	1.453901	-0.274765	-0.447476
O9	O	1.753166	-0.578071	-0.447463
O10	O	1.582985	-0.274728	-0.578226
O11	O	1.453797	-0.447374	-0.274903
O12	O	1.283519	-0.447308	-0.447441
O13	O	1.453872	-0.577954	-0.750730
O14	O	1.283506	-0.578003	-0.578165
O15	O	1.582968	-0.447221	-0.750756
O16	O	1.582784	-0.750614	-0.447428
O17	O	1.453767	-0.750563	-0.578158
C18	C	1.245392	-0.512654	-0.512801
C19	C	1.128615	-0.512674	-0.512817
C20	C	1.073774	-0.580831	-0.580778
C21	C	0.964050	-0.580835	-0.580799
C22	C	0.964018	-0.444523	-0.444889
C23	C	1.073740	-0.444514	-0.444874
C24	C	1.518290	-0.789208	-0.512811
C25	C	1.518357	-0.907514	-0.512843
C26	C	1.448178	-0.976778	-0.583896
C27	C	1.422580	-1.047644	-0.486774
C28	C	1.544051	-1.047447	-0.609981
C29	C	1.492708	-0.976822	-0.415669
C30	C	1.614224	-0.976618	-0.538942
C31	C	1.588662	-1.047452	-0.441753
C32	C	1.792392	-0.512681	-0.512844
C33	C	1.909169	-0.512687	-0.512853
C34	C	1.518430	-0.512574	-0.790443
C35	C	1.518460	-0.512534	-0.908748
C36	C	1.518457	-0.235047	-0.512856
C37	C	1.518499	-0.116741	-0.512870
C38	C	1.448266	-0.583600	-0.977987
C39	C	1.544132	-0.609603	-1.048775
C40	C	1.422669	-0.486467	-1.048760
C41	C	1.614375	-0.538589	-0.977978
C42	C	1.492848	-0.415407	-0.977956
C43	C	1.588779	-0.441374	-1.048712
C44	C	1.518350	-0.512683	-0.236281
C45	C	1.518523	-0.512423	-0.117976
H46	H	1.388724	-0.945745	-0.643897
H47	H	1.470940	-0.945927	-0.333508
H48	H	0.919403	-0.636334	-0.636141
O49	O	1.659652	-1.084304	-0.370152
C50	C	1.816098	-1.187586	-0.341722
C51	C	1.735801	-1.145896	-0.422928
H52	H	1.877672	-1.237409	-0.384357
H53	H	1.855763	-1.117688	-0.300600
H54	H	1.774254	-1.238588	-0.280070
H55	H	1.777565	-1.094910	-0.484643
H56	H	1.696139	-1.215842	-0.463969
O57	O	1.325873	-1.084818	-0.460617
C58	C	1.142487	-1.090930	-0.505863
C59	C	1.251954	-1.048788	-0.535612
H60	H	1.082691	-1.061799	-0.566467
H61	H	1.143611	-1.181441	-0.505417
H62	H	1.120111	-1.060688	-0.423622
H63	H	1.274398	-1.078951	-0.617858
H64	H	1.250771	-0.958279	-0.535985
O65	O	1.711152	-0.564929	-0.941230
C66	C	1.888471	-0.613241	-0.985946
C67	C	1.778934	-0.583396	-1.027709
H68	H	1.943297	-0.628202	-1.055843
H69	H	1.920607	-0.545492	-0.935539
H70	H	1.882577	-0.688204	-0.935526
H71	H	1.784739	-0.508461	-1.078174
H72	H	1.746838	-0.651207	-1.078058
H73	H	0.919325	-0.389031	-0.389571
O74	O	1.126857	-0.378270	-0.378752
C75	C	1.115256	-0.243022	-0.243995
C76	C	1.054970	-0.318005	-0.318798
H77	H	1.057162	-0.194262	-0.195519
H78	H	1.166561	-0.291765	-0.188181
H79	H	1.166688	-0.187472	-0.292970
H80	H	1.003482	-0.373570	-0.269908
H81	H	1.003732	-0.269195	-0.374614
O82	O	1.710810	-0.939414	-0.565488
C83	C	1.847050	-0.933175	-0.697889
C84	C	1.737649	-0.975361	-0.667956
H85	H	1.868793	-0.962240	-0.780726
H86	H	1.846265	-0.842666	-0.696927
H87	H	1.907121	-0.963451	-0.638129
H88	H	1.677517	-0.945164	-0.727686
H89	H	1.738521	-1.065869	-0.668885
O90	O	1.377387	-0.655254	-0.940880
C91	C	1.221110	-0.683767	-0.837230
C92	C	1.301283	-0.602503	-0.879205
H93	H	1.159572	-0.641152	-0.787339
H94	H	1.181381	-0.725049	-0.906986
H95	H	1.263076	-0.745284	-0.786227
H96	H	1.259397	-0.540922	-0.930191
H97	H	1.341010	-0.561302	-0.809400
H98	H	1.565726	-1.078470	-0.692120
O99	O	1.569845	-0.707598	-1.085845
C100	C	1.524956	-0.893357	-1.091815
C101	C	1.495711	-0.782433	-1.049789
H102	H	1.465047	-0.953895	-1.062663
H103	H	1.525436	-0.892231	-1.182326
H104	H	1.606092	-0.916072	-1.061507
H105	H	1.414569	-0.759649	-1.080019
H106	H	1.495303	-0.783618	-0.959279
O107	O	1.659786	-0.369611	-1.085352
C108	C	1.790267	-0.238784	-1.040434
C109	C	1.709903	-0.320028	-0.998797
H110	H	1.830793	-0.198658	-0.970476
H111	H	1.851149	-0.281141	-1.091362
H112	H	1.748292	-0.176348	-1.090300
H113	H	1.751786	-0.382485	-0.948886
H114	H	1.649025	-0.277596	-0.947927
O115	O	1.466812	-0.317587	-0.940677
C116	C	1.346423	-0.214396	-0.835447
C117	C	1.375819	-0.325239	-0.877576
H118	H	1.272842	-0.220542	-0.784440
H119	H	1.413636	-0.181716	-0.785581
H120	H	1.330994	-0.158852	-0.905205
H121	H	1.391232	-0.380863	-0.807883
H122	H	1.308590	-0.357832	-0.927474
O123	O	1.127127	-0.647144	-0.646630
C124	C	1.251026	-0.790814	-0.660704
C125	C	1.190655	-0.715799	-0.585999
H126	H	1.302419	-0.846325	-0.611715
H127	H	1.193024	-0.839603	-0.709264
H128	H	1.302385	-0.741986	-0.716454
H129	H	1.139295	-0.764544	-0.530185
H130	H	1.248714	-0.667007	-0.537514
O131	O	1.325969	-0.460395	-1.085907
C132	C	1.177517	-0.514235	-1.191157
C133	C	1.287010	-0.543893	-1.149145
H134	H	1.145995	-0.581716	-1.242312
H135	H	1.122259	-0.500171	-1.121421
H136	H	1.183271	-0.438812	-1.240904
H137	H	1.281357	-0.619329	-1.099414
H138	H	1.342225	-0.557887	-1.218929
