data_functionalizedCrystal
_audit_creation_method	'MofGen! by Chris Wilmer'
_symmetry_space_group_name_H-M	'P1'
_symmetry_Int_Tables_number	1
_symmetry_cell_setting	triclinic
loop_
_symmetry_equiv_pos_as_xyz
  x,y,z
_cell_length_a	12.759401
_cell_length_b	12.759400
_cell_length_c	19.805399
_cell_angle_alpha	89.976763
_cell_angle_beta	89.983934
_cell_angle_gamma	90.014328
loop_
_atom_site_label
_atom_site_type_symbol
_atom_site_fract_x
_atom_site_fract_y
_atom_site_fract_z
Zn1	Zn	1.606224	-0.418301	-0.382677
Zn2	Zn	1.606128	-0.593994	-0.269497
Zn3	Zn	1.430535	-0.418329	-0.269508
Zn4	Zn	1.430514	-0.593937	-0.382651
O5	O	1.518350	-0.506140	-0.326083
O6	O	1.753232	-0.441619	-0.367669
O7	O	1.582803	-0.570727	-0.174782
O8	O	1.453890	-0.271304	-0.284536
O9	O	1.753161	-0.570700	-0.284517
O10	O	1.582967	-0.271283	-0.367680
O11	O	1.453796	-0.441666	-0.174790
O12	O	1.283511	-0.441611	-0.284511
O13	O	1.453854	-0.570603	-0.477371
O14	O	1.283496	-0.570630	-0.367636
O15	O	1.582947	-0.441564	-0.477390
O16	O	1.582783	-0.741007	-0.284492
O17	O	1.453761	-0.740966	-0.367625
C18	C	1.245383	-0.506118	-0.326072
C19	C	1.128606	-0.506134	-0.326083
C20	C	0.963996	-0.438889	-0.282883
C21	C	1.073720	-0.438866	-0.282876
C22	C	1.073762	-0.573421	-0.369305
C23	C	0.964040	-0.573437	-0.369315
C24	C	0.909116	-0.371624	-0.239668
C25	C	0.963953	-0.304335	-0.196447
C26	C	1.073677	-0.304313	-0.196441
C27	C	1.128564	-0.371580	-0.239655
C28	C	1.518288	-0.779107	-0.326069
C29	C	1.518357	-0.895884	-0.326086
C30	C	1.585614	-0.950733	-0.282846
C31	C	1.585678	-1.060457	-0.282867
C32	C	1.451221	-1.060474	-0.369369
C33	C	1.451163	-0.950751	-0.369351
C34	C	1.652808	-0.895866	-0.239580
C35	C	1.720070	-0.950715	-0.196337
C36	C	1.720134	-1.060439	-0.196358
C37	C	1.652938	-1.115314	-0.239622
C38	C	1.792383	-0.506163	-0.326095
C39	C	1.909160	-0.506172	-0.326100
C40	C	1.518409	-0.506074	-0.502626
C41	C	1.518434	-0.506046	-0.577858
C42	C	1.518441	-0.232107	-0.326112
C43	C	1.518480	-0.115330	-0.326125
C44	C	1.585654	-0.438852	-0.613213
C45	C	1.585665	-0.438821	-0.683902
C46	C	1.518460	-0.505991	-0.719234
C47	C	1.451233	-0.573188	-0.683874
C48	C	1.451217	-0.573212	-0.613186
C49	C	1.451292	-0.573090	-0.968947
C50	C	1.451315	-0.573063	-1.039639
C51	C	1.585740	-0.438699	-1.039662
C52	C	1.585724	-0.438723	-0.968975
C53	C	1.518493	-0.505916	-0.933621
C54	C	1.518481	-0.505947	-0.856973
C55	C	1.518477	-0.505966	-0.795881
C56	C	1.518352	-0.506130	-0.150227
C57	C	1.518530	-0.505862	-0.074996
H58	H	1.118460	-0.628187	-0.404487
H59	H	1.217909	-0.371546	-0.239652
H60	H	1.396584	-0.627762	-1.068404
Br61	Br	1.360048	-0.664278	-0.920975
H62	H	0.919391	-0.628222	-0.404507
H63	H	1.652761	-0.806523	-0.239557
H64	H	1.640384	-0.384157	-0.584451
Br65	Br	1.811273	-0.876245	-0.137632
H66	H	1.653004	-1.204658	-0.239641
H67	H	1.396510	-0.627875	-0.712646
Br68	Br	1.359980	-0.664401	-0.565203
Br69	Br	1.360031	-1.134946	-0.428081
H70	H	0.819774	-0.371636	-0.239668
H71	H	1.774908	-1.105094	-0.161151
H72	H	0.919256	-0.249564	-0.161268
H73	H	1.118322	-0.249516	-0.161253
H74	H	1.396397	-0.906093	-0.404562
H75	H	1.640405	-0.384107	-0.712685
Br76	Br	1.676940	-0.347567	-0.921028
Br77	Br	1.676983	-0.347505	-1.087646
