data_functionalizedCrystal
_audit_creation_method	'MofGen! by Chris Wilmer'
_symmetry_space_group_name_H-M	'P1'
_symmetry_Int_Tables_number	1
_symmetry_cell_setting	triclinic
loop_
_symmetry_equiv_pos_as_xyz
  x,y,z
_cell_length_a	17.699083
_cell_length_b	10.654541
_cell_length_c	16.776229
_cell_angle_alpha	89.993604
_cell_angle_beta	89.998886
_cell_angle_gamma	83.883472
loop_
_atom_site_label
_atom_site_type_symbol
_atom_site_fract_x
_atom_site_fract_y
_atom_site_fract_z
O1	O	1.005087	0.158809	-0.066176
O2	O	1.505087	0.658809	0.433824
O3	O	0.784840	0.179470	-0.066202
O4	O	1.284840	0.679470	0.433798
O5	O	0.900029	-0.013689	-0.066184
O6	O	1.400029	0.486311	0.433816
O7	O	0.889899	0.351968	-0.066194
O8	O	1.389899	0.851968	0.433806
O9	O	0.900013	-0.013700	0.066393
O10	O	1.400013	0.486300	0.566393
O11	O	0.784825	0.179458	0.066374
O12	O	1.284825	0.679458	0.566374
O13	O	1.005072	0.158797	0.066400
O14	O	1.505072	0.658797	0.566400
Zn15	Zn	0.894946	0.169126	0.087437
Zn16	Zn	1.394946	0.669126	0.587437
Zn17	Zn	0.894966	0.169142	-0.087238
Zn18	Zn	1.394966	0.669142	0.412762
O19	O	0.889883	0.351956	0.066382
O20	O	1.389883	0.851956	0.566382
C21	C	0.756631	0.178724	0.000083
C22	C	1.256631	0.678724	0.500083
C23	C	0.672599	0.176503	0.000073
C24	C	1.172599	0.676503	0.500073
C25	C	0.624698	0.289883	0.000070
C26	C	1.124698	0.789883	0.500070
C27	C	0.545741	0.287789	0.000080
C28	C	1.045741	0.787789	0.500080
C29	C	0.514687	0.172313	0.000088
C30	C	1.014687	0.672313	0.500088
C31	C	0.562594	0.058924	0.000094
C32	C	1.062594	0.558924	0.500094
C33	C	0.641549	0.061020	0.000089
C34	C	1.141549	0.561020	0.500089
C35	C	0.244177	0.050470	0.000114
C36	C	0.744177	0.550470	0.500114
C37	C	0.165216	0.048383	0.000116
C38	C	0.665216	0.548383	0.500116
C39	C	0.148369	0.277239	0.000105
C40	C	0.648369	0.777239	0.500105
C41	C	0.227324	0.279335	0.000100
C42	C	0.727324	0.779335	0.500100
C43	C	0.275224	0.165946	0.000110
C44	C	0.775224	0.665946	0.500110
C45	C	0.360838	0.168219	0.000100
C46	C	0.860838	0.668219	0.500100
C47	C	0.429075	0.170039	0.000092
C48	C	0.929075	0.670039	0.500092
C49	C	0.899277	-0.060480	0.000104
C50	C	1.399277	0.439520	0.500104
C51	C	0.897053	-0.199884	0.000103
C52	C	1.397053	0.300116	0.500103
C53	C	1.034792	-0.230266	0.000129
C54	C	1.534792	0.269734	0.500129
C55	C	1.102614	-0.310947	0.000144
C56	C	1.602614	0.189053	0.500144
C57	C	1.100519	-0.441929	0.000141
C58	C	1.600519	0.058071	0.500141
C59	C	1.030596	-0.492230	0.000121
C60	C	1.530596	0.007770	0.500121
C61	C	0.962775	-0.411549	0.000106
C62	C	1.462775	0.088451	0.500106
C63	C	0.964876	-0.280566	0.000111
C64	C	1.464876	0.219434	0.500111
C65	C	0.825037	-0.381167	0.000074
C66	C	1.325037	0.118833	0.500074
C67	C	0.827130	-0.250185	0.000083
C68	C	1.327130	0.249815	0.500083
C69	C	0.755114	-0.431468	0.000054
C70	C	1.255114	0.068532	0.500054
C71	C	0.687291	-0.350786	0.000045
C72	C	1.187291	0.149214	0.500045
C73	C	0.689388	-0.219798	0.000049
C74	C	1.189388	0.280202	0.500049
C75	C	0.759308	-0.169504	0.000068
C76	C	1.259308	0.330496	0.500068
C77	C	1.033281	0.159543	0.000114
C78	C	1.533281	0.659543	0.500114
C79	C	1.117313	0.161764	0.000118
C80	C	1.617313	0.661764	0.500118
C81	C	0.890634	0.398747	0.000093
C82	C	1.390634	0.898747	0.500093
C83	C	0.892859	0.538151	0.000089
C84	C	1.392859	1.038151	0.500089
N85	N	0.894937	0.169115	0.206648
N86	N	1.394937	0.669115	0.706648
N87	N	0.894981	0.169143	-0.206450
N88	N	1.394981	0.669143	0.293550
C89	C	0.945959	0.083619	0.248373
C90	C	1.445959	0.583619	0.748373
C91	C	0.945963	0.083618	0.331826
C92	C	1.445963	0.583618	0.831826
C93	C	0.894949	0.169119	0.373551
C94	C	1.394949	0.669119	0.873551
C95	C	0.843922	0.254619	0.331820
C96	C	1.343922	0.754619	0.831820
C97	C	0.843915	0.254613	0.248369
C98	C	1.343915	0.754613	0.748369
C99	C	0.843950	0.254644	0.668367
C100	C	1.343950	0.754644	1.168367
C101	C	0.843962	0.254646	0.751824
C102	C	1.343962	0.754646	1.251824
C103	C	0.945998	0.083648	0.751823
C104	C	1.445998	0.583648	1.251823
C105	C	0.945990	0.083642	0.668373
C106	C	1.445990	0.583642	1.168373
C107	C	0.894961	0.169137	0.626649
C108	C	1.394961	0.669137	1.126649
C109	C	0.894956	0.169136	0.536161
C110	C	1.394956	0.669136	1.036161
C111	C	0.894957	0.169128	0.464038
C112	C	1.394957	0.669128	0.964038
H113	H	0.283168	-0.041858	0.000122
H114	H	0.783168	0.458142	0.500122
H115	H	0.634159	-0.154113	0.000034
H116	H	1.134159	0.345887	0.500034
H117	H	0.987533	0.014023	0.634402
H118	H	1.487533	0.514023	1.134402
H119	H	0.252604	0.373367	0.000090
H120	H	0.752604	0.873367	0.500090
H121	H	1.155746	-0.507621	0.000147
H122	H	1.655746	-0.007621	0.500147
H123	H	0.802382	0.324232	0.365797
H124	H	1.302382	0.824232	0.865797
H125	H	0.987503	0.013999	0.214406
H126	H	1.487503	0.513999	0.714406
H127	H	0.680549	-0.031306	0.000091
H128	H	1.180549	0.468694	0.500091
H129	H	0.761023	-0.062854	0.000076
H130	H	1.261023	0.437146	0.500076
H131	H	1.036505	-0.123616	0.000142
H132	H	1.536505	0.376384	0.500142
H133	H	1.159544	-0.269977	0.000167
H134	H	1.659544	0.230023	0.500167
H135	H	0.506743	0.380115	0.000077
H136	H	1.006743	0.880115	0.500077
H137	H	0.139935	-0.045657	0.000123
H138	H	0.639935	0.454343	0.500123
H139	H	0.753413	-0.538121	0.000047
H140	H	1.253413	-0.038121	0.500047
H141	H	0.987546	0.014030	0.785804
H142	H	1.487546	0.514030	1.285804
H143	H	0.109359	0.369565	0.000101
H144	H	0.609359	0.869565	0.500101
H145	H	0.987508	0.014000	0.365798
H146	H	1.487508	0.514000	0.865798
H147	H	0.802418	0.324274	0.785795
H148	H	1.302418	0.824274	1.285795
H149	H	0.537303	-0.035099	0.000111
H150	H	1.037303	0.464901	0.500111
H151	H	0.802367	0.324231	0.214397
H152	H	1.302367	0.824231	0.714397
H153	H	0.802401	0.324259	0.634402
H154	H	1.302401	0.824259	1.134402
H155	H	1.028897	-0.598883	0.000109
H156	H	1.528897	-0.098883	0.500109
H157	H	0.630364	-0.391753	0.000024
H158	H	1.130364	0.108247	0.500024
H159	H	0.649976	0.383917	0.000063
H160	H	1.149976	0.883917	0.500063
