data_functionalizedCrystal
_audit_creation_method	'MofGen! by Chris Wilmer'
_symmetry_space_group_name_H-M	'P1'
_symmetry_Int_Tables_number	1
_symmetry_cell_setting	triclinic
loop_
_symmetry_equiv_pos_as_xyz
  x,y,z
_cell_length_a	17.038272
_cell_length_b	17.038272
_cell_length_c	16.098538
_cell_angle_alpha	92.920305
_cell_angle_beta	87.069734
_cell_angle_gamma	91.111556
loop_
_atom_site_label
_atom_site_type_symbol
_atom_site_fract_x
_atom_site_fract_y
_atom_site_fract_z
O1	O	1.052033	0.167266	-0.069152
O2	O	0.824222	0.164557	-0.069177
O3	O	0.936773	0.052006	-0.069158
O4	O	0.939482	0.279817	-0.069171
O5	O	0.930197	0.058553	0.069354
O6	O	0.817646	0.171104	0.069335
O7	O	1.045456	0.173813	0.069359
Zn8	Zn	0.930507	0.173498	0.091339
Zn9	Zn	0.939172	0.164872	-0.091156
O10	O	0.932905	0.286364	0.069341
C11	C	0.791641	0.165367	0.000076
C12	C	0.704358	0.158019	0.000067
C13	C	0.931022	0.025987	0.000097
C14	C	0.923674	-0.061297	0.000096
C15	C	0.658749	0.225482	0.000064
C16	C	0.576737	0.218574	0.000075
C17	C	0.540335	0.144201	0.000085
C18	C	0.585950	0.076733	0.000090
C19	C	0.667961	0.083642	0.000084
C20	C	0.292946	0.119792	0.000108
C21	C	0.210929	0.112887	0.000112
C22	C	0.201722	0.254729	0.000098
C23	C	0.283734	0.261632	0.000088
C24	C	0.329342	0.194164	0.000098
C25	C	0.456505	0.137138	0.000094
C26	C	0.413170	0.201228	0.000094
C27	C	0.991137	-0.106906	0.000104
C28	C	0.984229	-0.188918	0.000096
C29	C	0.909856	-0.225320	0.000085
C30	C	0.842388	-0.179705	0.000074
C31	C	0.849297	-0.097694	0.000077
C32	C	0.885446	-0.472708	0.000071
C33	C	0.878541	-0.554725	0.000071
C34	C	1.020383	-0.563932	0.000091
C35	C	1.027286	-0.481920	0.000098
C36	C	0.959818	-0.436312	0.000083
C37	C	0.902792	-0.309149	0.000079
C38	C	0.966882	-0.352485	0.000084
C39	C	1.078037	0.173002	0.000105
C40	C	1.165320	0.180351	0.000108
C41	C	0.938656	0.312383	0.000083
C42	C	0.946005	0.399666	0.000079
N43	N	0.924599	0.179385	0.215887
N44	N	0.945085	0.158979	-0.215705
C45	C	0.972390	0.131633	0.259480
C46	C	0.968265	0.135759	0.346668
C47	C	0.916352	0.187642	0.390262
C48	C	0.868556	0.235395	0.346663
C49	C	0.872678	0.231265	0.259476
C50	C	0.901410	0.202602	0.653510
C51	C	0.897294	0.206731	0.740702
C52	C	0.997003	0.107093	0.740702
C53	C	1.001123	0.102971	0.653513
C54	C	0.953324	0.150721	0.609922
C55	C	0.912136	0.191862	0.479383
C56	C	0.957536	0.146496	0.520803
H57	H	0.539605	0.273510	0.000072
H58	H	1.027437	-0.322844	0.000074
N59	N	1.017058	0.086976	0.391219
N60	N	1.065150	0.117443	0.439888
H61	H	1.099598	0.082980	0.471360
N62	N	0.155145	0.323651	0.000107
N63	N	0.187656	0.390050	0.000105
H64	H	0.154762	0.438731	0.000114
H65	H	1.043394	0.060724	0.618021
H66	H	1.087848	-0.452287	0.000107
N67	N	1.053142	-0.235501	0.000130
N68	N	1.062334	-0.279531	0.058522
H69	H	1.111009	-0.312430	0.058548
N70	N	0.695915	0.301460	0.000064
N71	N	0.680904	0.350931	0.058450
H72	H	0.707150	0.404594	0.058454
N73	N	1.089297	-0.610521	0.000081
N74	N	1.140323	-0.607199	-0.058303
H75	H	1.188997	-0.640103	-0.058314
N76	N	0.419323	0.061168	0.000079
N77	N	0.434323	0.011697	-0.058310
H78	H	0.408061	-0.041958	-0.058321
N79	N	0.450336	0.277202	0.000093
N80	N	0.435331	0.326681	0.058474
H81	H	0.461585	0.380339	0.058472
N82	N	0.320932	0.337594	0.000077
N83	N	0.368434	0.354508	-0.058312
H84	H	0.394709	0.408156	-0.058322
H85	H	0.862492	0.241484	0.618024
H86	H	1.051699	-0.077274	0.000118
H87	H	0.817975	-0.584359	0.000075
N88	N	0.816523	-0.426140	0.000062
N89	N	0.750125	-0.458654	0.000059
H90	H	0.701444	-0.425763	0.000055
N91	N	0.766424	-0.216898	0.000053
N92	N	0.760263	-0.290122	0.000051
H93	H	0.706611	-0.316390	0.000037
N94	N	0.173758	0.036907	0.000119
N95	N	0.214486	-0.023326	0.000128
H96	H	0.188234	-0.076985	0.000131
H97	H	0.855019	0.248983	0.776192
N98	N	0.815526	0.288382	0.391203
N99	N	0.811852	0.292064	0.469047
H100	H	0.774400	0.329488	0.500504
N101	N	0.823874	0.280056	0.214944
N102	N	0.854332	0.328171	0.166282
H103	H	0.819862	0.362631	0.134832
N104	N	0.780378	-0.051116	0.000058
N105	N	0.713978	-0.083624	0.000044
H106	H	0.665300	-0.050730	0.000025
N107	N	0.826816	-0.346318	0.000073
N108	N	0.782865	-0.336830	-0.058311
H109	H	0.729205	-0.363080	-0.058315
N110	N	1.025378	0.078587	0.214967
N111	N	1.068009	0.035921	0.253904
H112	H	1.105414	-0.001565	0.222470
H113	H	1.035918	0.068216	0.776202
N114	N	0.859121	0.244871	0.523911
N115	N	0.865482	0.317072	0.514168
H116	H	0.828037	0.354508	0.545617
H117	H	0.999800	0.104250	0.485307
H118	H	0.556305	0.016177	0.000110
N119	N	0.339523	0.050876	0.000125
N120	N	0.330679	0.005379	0.058515
H121	H	0.363576	-0.043298	0.058527
N122	N	0.714553	0.014732	0.000104
N123	N	0.705714	-0.030759	0.058500
H124	H	0.738619	-0.079429	0.058520
