data_functionalizedCrystal
_audit_creation_method	'MofGen! by Chris Wilmer'
_symmetry_space_group_name_H-M	'P1'
_symmetry_Int_Tables_number	1
_symmetry_cell_setting	triclinic
loop_
_symmetry_equiv_pos_as_xyz
  x,y,z
_cell_length_a	12.759394
_cell_length_b	18.050591
_cell_length_c	18.050582
_cell_angle_alpha	90.022741
_cell_angle_beta	90.020233
_cell_angle_gamma	90.015921
loop_
_atom_site_label
_atom_site_type_symbol
_atom_site_fract_x
_atom_site_fract_y
_atom_site_fract_z
Zn1	Zn	0.418517	-1.135322	-0.420080
Zn2	Zn	0.918517	-0.635322	0.079920
Zn3	Zn	0.594198	-1.135245	-0.295895
Zn4	Zn	1.094198	-0.635245	0.204105
Zn5	Zn	0.418514	-1.011141	-0.295887
Zn6	Zn	0.918514	-0.511141	0.204113
Zn7	Zn	0.594135	-1.011102	-0.420026
Zn8	Zn	1.094135	-0.511102	0.079974
O9	O	0.506341	-1.073203	-0.357972
O10	O	1.006341	-0.573203	0.142028
O11	O	0.441850	-1.239236	-0.403632
O12	O	0.941850	-0.739236	0.096368
O13	O	0.570918	-1.118767	-0.191969
O14	O	1.070918	-0.618767	0.308031
O15	O	0.271493	-1.027663	-0.312380
O16	O	0.771493	-0.527663	0.187620
O17	O	0.570922	-1.239180	-0.312394
O18	O	1.070922	-0.739180	0.187606
O19	O	0.271496	-1.118898	-0.403624
O20	O	0.771496	-0.618898	0.096376
O21	O	0.441844	-1.027588	-0.191963
O22	O	0.941844	-0.527588	0.308037
O23	O	0.441782	-0.907211	-0.312328
O24	O	0.941782	-0.407211	0.187672
O25	O	0.570814	-1.027595	-0.523958
O26	O	1.070814	-0.527595	-0.023958
O27	O	0.570810	-0.907182	-0.403533
O28	O	1.070810	-0.407182	0.096467
O29	O	0.441788	-1.118860	-0.523997
O30	O	0.941788	-0.618860	-0.023997
O31	O	0.741211	-1.118729	-0.312342
O32	O	1.241211	-0.618729	0.187658
O33	O	0.741164	-1.027521	-0.403541
O34	O	1.241164	-0.527521	0.096459
C35	C	0.506290	-0.880250	-0.357925
C36	C	1.006290	-0.380250	0.142075
C37	C	0.506293	-0.797705	-0.357922
C38	C	1.006293	-0.297705	0.142078
C39	C	0.779308	-1.073132	-0.357953
C40	C	1.279308	-0.573132	0.142047
C41	C	0.896085	-1.073170	-0.357969
C42	C	1.396085	-0.573170	0.142031
C43	C	0.436036	-0.548873	-0.308429
C44	C	0.936036	-0.048873	0.191571
C45	C	0.410461	-0.598304	-0.376207
C46	C	0.910461	-0.098304	0.123793
C47	C	0.506324	-0.500584	-0.357967
C48	C	1.006324	-0.000584	0.142033
C49	C	0.531835	-0.598236	-0.290171
C50	C	1.031835	-0.098236	0.209829
C51	C	0.506306	-0.646569	-0.357941
C52	C	1.006306	-0.146569	0.142059
C53	C	0.480700	-0.548927	-0.425781
C54	C	0.980700	-0.048927	0.074219
C55	C	0.602118	-0.548855	-0.339699
C56	C	1.102118	-0.048855	0.160301
C57	C	0.576579	-0.598263	-0.407524
C58	C	1.076579	-0.098263	0.092476
C59	C	0.506332	-0.416486	-0.357981
C60	C	1.006332	0.083514	0.142019
C61	C	0.506299	-0.730666	-0.357935
C62	C	1.006299	-0.230666	0.142065
C63	C	0.895930	-1.168102	-0.453053
C64	C	1.395930	-0.668102	0.046947
C65	C	0.950713	-1.215586	-0.500599
C66	C	1.450713	-0.715586	-0.000599
C67	C	1.060434	-1.215618	-0.500612
C68	C	1.560434	-0.715618	-0.000612
C69	C	1.115375	-1.168160	-0.453076
C70	C	1.615375	-0.668160	0.046924
C71	C	1.060592	-1.120677	-0.405530
C72	C	1.560592	-0.620677	0.094470
C73	C	0.950868	-1.120651	-0.405520
C74	C	1.450868	-0.620651	0.094480
C75	C	1.060748	-1.025742	-0.310451
C76	C	1.560748	-0.525742	0.189549
C77	C	0.951026	-1.025712	-0.310433
C78	C	1.451026	-0.525712	0.189567
C79	C	1.115689	-0.978284	-0.262915
C80	C	1.615689	-0.478284	0.237085
C81	C	1.060906	-0.930803	-0.215364
C82	C	1.560906	-0.430803	0.284636
C83	C	0.951177	-0.930774	-0.215352
C84	C	1.451177	-0.430774	0.284648
C85	C	0.896243	-0.978229	-0.262887
C86	C	1.396243	-0.478229	0.237113
C87	C	1.232308	-1.073267	-0.358001
C88	C	1.732308	-0.573267	0.141999
C89	C	1.115531	-1.073226	-0.357997
C90	C	1.615531	-0.573226	0.142003
C91	C	0.506294	-1.073232	-0.551677
C92	C	1.006294	-0.573232	-0.051677
C93	C	0.506274	-1.073244	-0.634223
C94	C	1.006274	-0.573244	-0.134223
C95	C	0.506375	-0.266908	-0.358006
C96	C	1.006375	0.233092	0.141994
C97	C	0.506341	-0.349454	-0.357988
C98	C	1.006341	0.150546	0.142012
C99	C	0.576343	-1.023653	-0.833653
C100	C	1.076343	-0.523653	-0.333653
C101	C	0.602035	-1.091410	-0.883054
C102	C	1.102035	-0.591410	-0.383054
C103	C	0.506194	-1.073281	-0.785354
C104	C	1.006194	-0.573281	-0.285354
C105	C	0.480473	-1.005561	-0.883034
C106	C	0.980473	-0.505561	-0.383034
C107	C	0.506119	-1.073310	-0.931339
C108	C	1.006119	-0.573310	-0.431339
C109	C	0.531937	-1.141073	-0.833668
C110	C	1.031937	-0.641073	-0.333668
C111	C	0.410330	-1.055179	-0.833644
C112	C	0.910330	-0.555179	-0.333644
C113	C	0.435986	-1.122983	-0.883023
C114	C	0.935986	-0.622983	-0.383023
C115	C	0.506240	-1.073263	-0.701255
C116	C	1.006240	-0.573263	-0.201255
C117	C	0.506073	-1.073336	-1.015435
C118	C	1.006073	-0.573336	-0.515435
C119	C	0.506312	-1.073216	-0.165020
C120	C	1.006312	-0.573216	0.334980
C121	C	0.506035	-1.073348	-0.082474
C122	C	1.006035	-0.573348	0.417526
H123	H	0.376559	-0.527189	-0.266599
H124	H	0.876559	-0.027189	0.233401
H125	H	0.905970	-1.254224	-0.539304
H126	H	1.405970	-0.754224	-0.039304
O127	O	1.119531	-1.266824	-0.551898
O128	O	1.619531	-0.766824	-0.051898
H129	H	1.169518	-1.304636	-0.518701
H130	H	1.669518	-0.804636	-0.018701
O131	O	0.709401	-0.520055	-0.319212
O132	O	1.209401	-0.020055	0.180788
H133	H	0.740849	-0.486261	-0.365509
H134	H	1.240849	0.013739	0.134491
H135	H	1.204717	-1.168185	-0.453097
H136	H	1.704717	-0.668185	0.046903
H137	H	0.329439	-0.620010	-0.391661
H138	H	0.829439	-0.120010	0.108339
O139	O	0.709373	-1.111710	-0.911816
O140	O	1.209373	-0.611710	-0.411816
H141	H	0.731198	-1.167536	-0.891189
H142	H	1.231198	-0.667536	-0.391189
O143	O	0.892092	-0.879556	-0.164071
O144	O	1.392092	-0.379556	0.335929
H145	H	0.842095	-0.912803	-0.126315
H146	H	1.342095	-0.412803	0.373685
O147	O	0.655311	-0.626815	-0.463056
O148	O	1.155311	-0.126815	0.036944
H149	H	0.614556	-0.661467	-0.504924
H150	H	1.114556	-0.161467	-0.004924
H151	H	1.205030	-0.978311	-0.262932
H152	H	1.705030	-0.478311	0.237068
H153	H	1.105647	-0.892164	-0.176667
H154	H	1.605647	-0.392164	0.323333
O155	O	0.451966	-0.520365	-0.501734
O156	O	0.951966	-0.020365	-0.001734
H157	H	0.517185	-0.486101	-0.523674
H158	H	1.017185	0.013899	-0.023674
O159	O	0.560440	-0.626928	-0.214243
O160	O	1.060440	-0.126928	0.285757
H161	H	0.501987	-0.607138	-0.173240
H162	H	1.001987	-0.107138	0.326760
H163	H	0.806589	-1.168087	-0.453040
H164	H	1.306589	-0.668087	0.046960
H165	H	0.806902	-0.978212	-0.262879
H166	H	1.306902	-0.478212	0.237121
O167	O	0.655016	-0.968119	-0.804918
O168	O	1.155016	-0.468119	-0.304918
H169	H	0.734502	-0.983341	-0.824704
H170	H	1.234502	-0.483341	-0.324704
H171	H	0.553753	-1.198372	-0.812074
H172	H	1.053753	-0.698372	-0.312074
H173	H	0.376632	-1.165013	-0.904563
H174	H	0.876632	-0.665013	-0.404563
H175	H	0.329315	-1.039831	-0.811924
H176	H	0.829315	-0.539831	-0.311924
O177	O	0.451678	-0.929687	-0.911755
O178	O	0.951678	-0.429687	-0.411755
H179	H	0.510052	-0.888586	-0.891971
H180	H	1.010052	-0.388586	-0.391971
