data_functionalizedCrystal
_audit_creation_method	'MofGen! by Chris Wilmer'
_symmetry_space_group_name_H-M	'P1'
_symmetry_Int_Tables_number	1
_symmetry_cell_setting	triclinic
loop_
_symmetry_equiv_pos_as_xyz
  x,y,z
_cell_length_a	19.188905
_cell_length_b	19.188930
_cell_length_c	8.140239
_cell_angle_alpha	89.991371
_cell_angle_beta	89.990158
_cell_angle_gamma	83.139668
loop_
_atom_site_label
_atom_site_type_symbol
_atom_site_fract_x
_atom_site_fract_y
_atom_site_fract_z
O1	O	0.926154	0.087083	-0.136902
O2	O	0.722841	0.098836	-0.136849
O3	O	0.830365	-0.008697	-0.136845
O4	O	0.818630	0.194616	-0.136906
O5	O	0.830359	-0.008698	0.136382
O6	O	0.722835	0.098835	0.136378
O7	O	0.926148	0.087082	0.136325
Zn8	Zn	0.824491	0.092958	0.179732
Zn9	Zn	0.824498	0.092960	-0.180256
O10	O	0.818624	0.194615	0.136321
C11	C	0.696826	0.098458	-0.000228
C12	C	0.619321	0.097324	-0.000206
C13	C	0.582932	0.096780	-0.149146
C14	C	0.510109	0.095707	-0.149166
C15	C	0.473678	0.095164	-0.000238
C16	C	0.510075	0.095712	0.148722
C17	C	0.582896	0.096792	0.148738
N18	N	0.364656	0.053735	0.110608
N19	N	0.295479	0.052707	0.110583
C20	C	0.254272	0.091911	-0.000276
N21	N	0.284856	0.132173	-0.111134
N22	N	0.354040	0.133197	-0.111114
C23	C	0.394716	0.093993	-0.000238
C24	C	0.138919	0.090205	-0.149249
C25	C	0.066094	0.089136	-0.149263
C26	C	0.066062	0.089134	0.148630
C27	C	0.138886	0.090210	0.148640
C28	C	0.175310	0.090742	-0.000304
C29	C	0.829982	-0.034708	-0.000227
C30	C	0.828841	-0.112213	-0.000212
C31	C	0.891933	-0.157142	-0.000221
C32	C	0.890861	-0.229966	-0.000247
C33	C	0.826694	-0.257857	-0.000231
C34	C	0.763594	-0.212917	-0.000232
C35	C	0.764668	-0.140095	-0.000222
N36	N	0.777644	-0.365858	0.092766
N37	N	0.776629	-0.435036	0.092760
C38	C	0.823456	-0.477265	-0.000264
N39	N	0.871347	-0.447703	-0.093262
N40	N	0.872365	-0.378519	-0.093249
C41	C	0.825523	-0.336819	-0.000243
C42	C	0.885390	-0.601159	-0.000303
C43	C	0.884315	-0.673984	-0.000339
C44	C	0.757047	-0.656933	-0.000307
C45	C	0.758123	-0.584110	-0.000288
C46	C	0.822296	-0.556228	-0.000278
C47	C	0.952163	0.087460	-0.000300
C48	C	1.029668	0.088594	-0.000333
C49	C	0.819007	0.220626	-0.000301
C50	C	0.820148	0.298131	-0.000326
N51	N	0.824490	0.092957	0.425415
N52	N	0.824504	0.092956	-0.425939
H53	H	0.036467	0.088697	-0.270553
N54	N	0.687833	-0.686999	-0.000272
H55	H	0.660202	-0.670589	-0.101545
H56	H	0.696779	-0.739945	-0.000216
H57	H	0.706747	-0.547527	-0.000271
N58	N	0.958916	-0.278431	-0.000235
H59	H	0.961296	-0.309029	0.101052
H60	H	0.961278	-0.308974	-0.101586
H61	H	0.713289	-0.103513	-0.000215
N62	N	0.622219	0.097351	-0.309785
H63	H	0.588112	0.096842	-0.404143
H64	H	0.646634	0.141071	-0.316294
H65	H	0.944187	-0.134445	-0.000219
N66	N	0.026781	0.088544	0.309265
H67	H	-0.024873	0.087775	0.286658
H68	H	0.045307	0.045455	0.374304
N69	N	0.694389	-0.243002	-0.000202
H70	H	0.666754	-0.226608	0.101090
H71	H	0.666813	-0.226590	-0.101548
N72	N	0.178139	0.090796	0.309284
H73	H	0.144012	0.090290	0.403630
H74	H	0.214154	0.047971	0.315795
H75	H	0.168577	0.090645	-0.270528
N76	N	0.622144	0.097379	0.309394
H77	H	0.615262	0.053920	0.374523
H78	H	0.673787	0.098171	0.286675
N79	N	0.954601	-0.571078	-0.000299
H80	H	0.994408	-0.610595	-0.000322
H81	H	0.957820	-0.541223	-0.101579
N82	N	0.470853	0.095106	-0.309818
H83	H	0.419195	0.094338	-0.287223
H84	H	0.477784	0.138564	-0.374891
N85	N	0.470849	0.094678	0.309351
H86	H	0.419215	0.093759	0.286741
H87	H	0.489575	0.051449	0.373661
H88	H	0.935694	-0.710565	-0.000356
