data_functionalizedCrystal
_audit_creation_method	'MofGen! by Chris Wilmer'
_symmetry_space_group_name_H-M	'P1'
_symmetry_Int_Tables_number	1
_symmetry_cell_setting	triclinic
loop_
_symmetry_equiv_pos_as_xyz
  x,y,z
_cell_length_a	14.908783
_cell_length_b	12.594516
_cell_length_c	14.908803
_cell_angle_alpha	86.710476
_cell_angle_beta	90.199445
_cell_angle_gamma	93.302904
loop_
_atom_site_label
_atom_site_type_symbol
_atom_site_fract_x
_atom_site_fract_y
_atom_site_fract_z
Zn1	Zn	1.345228	-0.372521	0.587842
Zn2	Zn	1.353863	-0.539644	0.437493
Zn3	Zn	1.203577	-0.371303	0.428815
Zn4	Zn	1.194859	-0.560084	0.579114
O5	O	1.274382	-0.460888	0.508316
O6	O	1.472198	-0.386646	0.575182
O7	O	1.341190	-0.508249	0.310520
O8	O	1.222402	-0.222518	0.449931
O9	O	1.478543	-0.509430	0.464721
O10	O	1.326472	-0.223413	0.566767
O11	O	1.230775	-0.384570	0.304144
O12	O	1.076595	-0.404390	0.441468
O13	O	1.207543	-0.544268	0.706093
O14	O	1.070190	-0.543086	0.551892
O15	O	1.318018	-0.406466	0.712506
O16	O	1.332736	-0.691302	0.456258
O17	O	1.215917	-0.706319	0.560306
C18	C	1.040768	-0.475825	0.494792
C19	C	0.940825	-0.482242	0.489027
C20	C	0.746405	-0.366645	0.593394
C21	C	0.652500	-0.372671	0.587981
C22	C	0.659109	-0.500314	0.472784
C23	C	0.753014	-0.494288	0.478197
C24	C	0.796658	-0.427452	0.538505
C25	C	0.890565	-0.421432	0.543922
C26	C	0.897173	-0.549069	0.428722
C27	C	0.803268	-0.555095	0.423308
C28	C	1.274341	-0.737431	0.508298
C29	C	1.274404	-0.855734	0.508325
C30	C	1.338008	-0.916780	0.451801
C31	C	1.355223	-0.992016	0.535136
C32	C	1.257298	-0.991293	0.425048
C33	C	1.291659	-0.929411	0.591706
C34	C	1.193698	-0.928681	0.481560
C35	C	1.210879	-1.003891	0.564950
C36	C	1.508908	-0.445894	0.521893
C37	C	1.608849	-0.439504	0.527679
C38	C	1.260845	-0.477783	0.742836
C39	C	1.255077	-0.484983	0.842775
C40	C	1.274446	-0.183266	0.508355
C41	C	1.274473	-0.064959	0.508372
C42	C	1.359273	-0.354994	1.037249
C43	C	1.353855	-0.361755	1.131150
C44	C	1.238821	-0.505259	1.124480
C45	C	1.244239	-0.498499	1.030579
C46	C	1.304467	-0.423364	0.986966
C47	C	1.309888	-0.416609	0.893064
C48	C	1.194850	-0.560108	0.886395
C49	C	1.189433	-0.566869	0.980297
C50	C	1.287860	-0.444084	1.274707
C51	C	1.293633	-0.436886	1.174769
H52	H	0.623558	-0.554715	0.423675
Br53	Br	1.107696	-0.668828	1.039493
H54	H	1.150226	-0.615783	0.845446
H55	H	0.767720	-0.609507	0.374205
Br56	Br	0.584300	-0.290137	0.662472
Br57	Br	0.965379	-0.631610	0.354234
H58	H	1.391802	-0.878800	0.404047
H59	H	1.398481	-0.306078	1.172086
Br60	Br	0.949796	-0.330734	0.625771
H61	H	1.306084	-0.902222	0.662207
Br62	Br	1.233135	-1.036850	0.307637
H63	H	1.408317	-0.293822	1.001739
Br64	Br	0.805640	-0.275957	0.675249
Br65	Br	1.121271	-1.066882	0.644746
H66	H	1.125440	-0.900710	0.458873
Br67	Br	1.391630	-0.314649	0.833876
H68	H	1.423503	-1.019961	0.557800
Br69	Br	1.157081	-0.607208	1.183683
