data_functionalizedCrystal
_audit_creation_method	'MofGen! by Chris Wilmer'
_symmetry_space_group_name_H-M	'P1'
_symmetry_Int_Tables_number	1
_symmetry_cell_setting	triclinic
loop_
_symmetry_equiv_pos_as_xyz
  x,y,z
_cell_length_a	6.817900
_cell_length_b	11.102233
_cell_length_c	19.453114
_cell_angle_alpha	94.507721
_cell_angle_beta	101.709288
_cell_angle_gamma	108.604751
loop_
_atom_site_label
_atom_site_type_symbol
_atom_site_fract_x
_atom_site_fract_y
_atom_site_fract_z
V1	V	-4.033152	-0.177163	-0.219003
O2	O	-3.993679	0.007152	-0.214830
O3	O	-4.010463	-0.349975	-0.217508
O4	O	-3.975750	-0.175036	-0.314516
O5	O	-4.028631	-0.168999	-0.117151
V6	V	-4.514615	-0.155046	-0.206820
O7	O	-4.298929	-0.225678	-0.245726
O8	O	-4.699034	-0.106531	-0.180096
O9	O	-4.314097	0.017766	-0.208314
O10	O	-4.671484	-0.339361	-0.210993
O11	O	-4.636532	-0.163211	-0.308671
O12	O	-4.348810	-0.157174	-0.111307
C13	C	-3.862009	-0.392085	-0.214054
C14	C	-3.924685	-0.533365	-0.213469
C15	C	-4.195776	-0.738979	-0.216142
C16	C	-4.136890	-0.606233	-0.216696
C17	C	-3.771354	-0.593247	-0.209681
C18	C	-3.830238	-0.725989	-0.209122
C19	C	-4.406817	-0.746477	-0.220195
C20	C	-4.347931	-0.613731	-0.220749
C21	C	-3.817729	-0.168930	-0.337796
C22	C	-3.852251	-0.168334	-0.415878
C23	C	-4.051200	-0.174433	-0.456136
C24	C	-4.083638	-0.173873	-0.529502
C25	C	-3.917126	-0.167239	-0.562611
C26	C	-3.718145	-0.161132	-0.522344
C27	C	-3.685707	-0.161679	-0.448977
N28	N	-3.867369	-0.234357	-0.681402
N29	N	-3.898197	-0.233840	-0.751097
C30	C	-4.014847	-0.165587	-0.783659
N31	N	-4.099542	-0.097888	-0.743895
N32	N	-4.068720	-0.098411	-0.674194
C33	C	-3.952279	-0.166644	-0.642164
C34	C	-4.248980	-0.171078	-0.903469
C35	C	-4.281406	-0.170510	-0.976837
C36	C	-3.915914	-0.157781	-0.969678
C37	C	-3.883487	-0.158337	-0.896311
C38	C	-4.050031	-0.164991	-0.863212
C39	C	-4.125894	0.059868	-0.211766
C40	C	-4.042456	0.201147	-0.212356
C41	C	-4.170174	-0.163284	-0.088023
C42	C	-4.114890	-0.163874	-0.009940
H43	H	-4.365737	-0.560193	-0.171228
O44	O	-3.664857	-0.790560	-0.205028
H45	H	-3.741445	-0.895104	-0.205175
H46	H	-4.441521	-0.594824	-0.271834
H47	H	-4.186814	-0.179846	-0.429191
O48	O	-3.542477	-0.514656	-0.206205
H49	H	-3.479123	-0.439989	-0.158200
O50	O	-4.497514	-0.779159	-0.156640
H51	H	-4.495199	-0.689883	-0.125964
H52	H	-4.519992	-0.804671	-0.272228
O53	O	-3.736748	-0.151505	-1.005456
H54	H	-3.593106	-0.147674	-0.965160
O55	O	-3.668903	-0.151760	-0.852883
H56	H	-3.687682	-0.238767	-0.826777
O57	O	-4.298235	-0.180461	-0.572938
H58	H	-4.408594	-0.185187	-0.537596
H59	H	-3.582570	-0.155727	-0.549305
O60	O	-3.471124	-0.155115	-0.405551
H61	H	-3.360782	-0.150415	-0.440896
O62	O	-4.428577	-0.178229	-0.867758
H63	H	-4.572364	-0.182351	-0.908079
H64	H	-4.443414	-0.175467	-1.009612
