data_functionalizedCrystal
_audit_creation_method	'MofGen! by Chris Wilmer'
_symmetry_space_group_name_H-M	'P1'
_symmetry_Int_Tables_number	1
_symmetry_cell_setting	triclinic
loop_
_symmetry_equiv_pos_as_xyz
  x,y,z
_cell_length_a	13.897448
_cell_length_b	13.033652
_cell_length_c	13.033109
_cell_angle_alpha	90.925262
_cell_angle_beta	97.153140
_cell_angle_gamma	82.789431
loop_
_atom_site_label
_atom_site_type_symbol
_atom_site_fract_x
_atom_site_fract_y
_atom_site_fract_z
Zn1	Zn	-0.235584	-1.646106	-0.382128
Zn2	Zn	-0.379321	-1.624158	-0.210166
Zn3	Zn	-0.240771	-1.452289	-0.231976
Zn4	Zn	-0.419578	-1.474096	-0.403888
O5	O	-0.318813	-1.549163	-0.307039
O6	O	-0.235632	-1.787109	-0.341082
O7	O	-0.346266	-1.583048	-0.069147
O8	O	-0.105097	-1.478059	-0.251915
O9	O	-0.341236	-1.770984	-0.214743
O10	O	-0.101286	-1.620455	-0.362231
O11	O	-0.244473	-1.456776	-0.085171
O12	O	-0.283508	-1.311268	-0.273015
O13	O	-0.409847	-1.515226	-0.544913
O14	O	-0.414877	-1.327289	-0.399317
O15	O	-0.274667	-1.641600	-0.528926
O16	O	-0.519648	-1.604193	-0.235843
O17	O	-0.549224	-1.493943	-0.378169
C18	C	-0.354124	-1.281963	-0.340895
C19	C	-0.369256	-1.167657	-0.355403
C20	C	-0.310927	-1.108754	-0.299479
C21	C	-0.326565	-0.990613	-0.314473
C22	C	-0.569435	-1.549084	-0.307019
C23	C	-0.676643	-1.549148	-0.307033
C24	C	-0.872930	-1.549265	-0.307084
C25	C	-0.763702	-1.549198	-0.307059
C26	C	-0.067212	-1.549273	-0.307079
C27	C	0.040005	-1.549319	-0.307095
C28	C	-0.346169	-1.583294	-0.575278
C29	C	-0.357826	-1.597838	-0.689585
C30	C	-0.283357	-0.817405	-0.273045
C31	C	-0.268227	-0.931711	-0.258541
C32	C	-0.312658	-1.541846	-0.748475
C33	C	-0.324706	-1.556878	-0.866617
C34	C	-0.291487	-1.515223	-0.039837
C35	C	-0.279532	-1.500878	0.074494
H36	H	-0.430774	-1.130622	-0.414378
H37	H	-0.372299	-1.615946	-0.903659
O38	O	-0.237635	-1.152864	-0.228971
C39	C	-0.168366	-1.163615	-0.049967
C40	C	-0.251435	-1.113603	-0.129709
H41	H	-0.179483	-1.131877	0.030301
H42	H	-0.168828	-1.251026	-0.050322
H43	H	-0.095240	-1.144915	-0.070868
H44	H	-0.324603	-1.132222	-0.108865
H45	H	-0.250886	-1.026205	-0.129340
O46	O	-0.255885	-1.471457	-0.704118
C47	C	-0.192194	-1.392221	-0.545935
C48	C	-0.256501	-1.471992	-0.596027
H49	H	-0.192687	-1.392612	-0.458538
H50	H	-0.114128	-1.412968	-0.564640
H51	H	-0.222217	-1.311967	-0.577560
H52	H	-0.226566	-1.552274	-0.564430
H53	H	-0.334558	-1.451156	-0.577328
O54	O	-0.222883	-1.430341	-0.881221
C55	C	-0.215977	-1.276120	-0.777464
C56	C	-0.280235	-1.355942	-0.827538
H57	H	-0.262325	-1.215936	-0.734068
H58	H	-0.154223	-1.316936	-0.721131
H59	H	-0.183819	-1.236352	-0.840195
H60	H	-0.312462	-1.395734	-0.764880
H61	H	-0.341936	-1.315068	-0.883894
O62	O	-0.399886	-0.946283	-0.384827
C63	C	-0.482383	-0.788102	-0.463838
C64	C	-0.399298	-0.838174	-0.384147
H65	H	-0.481948	-0.700687	-0.463300
H66	H	-0.471264	-0.819663	-0.544171
H67	H	-0.555496	-0.806893	-0.442988
H68	H	-0.326149	-0.819403	-0.404901
H69	H	-0.410503	-0.806611	-0.303836
O70	O	-0.194925	-0.975810	-0.188033
C71	C	-0.125636	-0.986549	-0.009034
C72	C	-0.208718	-0.936548	-0.088770
H73	H	-0.136748	-0.954809	0.071234
H74	H	-0.126089	-1.073961	-0.009384
H75	H	-0.052517	-0.967840	-0.029945
H76	H	-0.281879	-0.955176	-0.067915
H77	H	-0.208178	-0.849148	-0.088405
O78	O	-0.414527	-1.668296	-0.733933
C79	C	-0.478306	-1.747449	-0.892127
C80	C	-0.414047	-1.667633	-0.842040
H81	H	-0.477956	-1.746924	-0.979540
H82	H	-0.448273	-1.827753	-0.860635
H83	H	-0.556325	-1.726706	-0.873280
H84	H	-0.336015	-1.688280	-0.860866
H85	H	-0.444160	-1.587351	-0.873533
