data_functionalizedCrystal
_audit_creation_method	'MofGen! by Chris Wilmer'
_symmetry_space_group_name_H-M	'P1'
_symmetry_Int_Tables_number	1
_symmetry_cell_setting	triclinic
loop_
_symmetry_equiv_pos_as_xyz
  x,y,z
_cell_length_a	21.295420
_cell_length_b	21.295417
_cell_length_c	16.120297
_cell_angle_alpha	92.867002
_cell_angle_beta	92.878424
_cell_angle_gamma	90.026289
loop_
_atom_site_label
_atom_site_type_symbol
_atom_site_fract_x
_atom_site_fract_y
_atom_site_fract_z
Zn1	Zn	0.944276	-0.268741	-0.471357
Zn2	Zn	0.949526	-0.368672	-0.331935
Zn3	Zn	0.844346	-0.263414	-0.331961
Zn4	Zn	0.838971	-0.373967	-0.471300
O5	O	0.894280	-0.318699	-0.401638
O6	O	1.033062	-0.282011	-0.452875
O7	O	0.940021	-0.350264	-0.215276
O8	O	0.857654	-0.176033	-0.350486
O9	O	1.036919	-0.355430	-0.350442
O10	O	0.931073	-0.179947	-0.452900
O11	O	0.862745	-0.272931	-0.215295
O12	O	0.755544	-0.278065	-0.350431
O13	O	0.848494	-0.364454	-0.587970
O14	O	0.751595	-0.359288	-0.452803
O15	O	0.925861	-0.287145	-0.588011
O16	O	0.934809	-0.457462	-0.350387
O17	O	0.853584	-0.461352	-0.452778
C18	C	0.730729	-0.318674	-0.401614
C19	C	0.660761	-0.318679	-0.401624
C20	C	0.159290	-0.280568	-0.455074
C21	C	0.225032	-0.280563	-0.455074
C22	C	0.259920	-0.318718	-0.401657
C23	C	0.229060	-0.356893	-0.348252
C24	C	0.163318	-0.356901	-0.348260
N25	N	0.365910	-0.320668	-0.328659
N26	N	0.428362	-0.320657	-0.328654
C27	C	0.457996	-0.318697	-0.401633
N28	N	0.422819	-0.316737	-0.474618
N29	N	0.360362	-0.316745	-0.474622
C30	C	0.331206	-0.318714	-0.401644
C31	C	0.560134	-0.280523	-0.455039
C32	C	0.625877	-0.280523	-0.455040
C33	C	0.629904	-0.356848	-0.348211
C34	C	0.564162	-0.356852	-0.348217
C35	C	0.529280	-0.318686	-0.401630
C36	C	0.894199	-0.482248	-0.401592
C37	C	0.894221	-0.552217	-0.401600
C38	C	0.936548	-0.583039	-0.348340
C39	C	0.936577	-0.648782	-0.348358
C40	C	0.894268	-0.683700	-0.401629
C41	C	0.851938	-0.652870	-0.454899
C42	C	0.851914	-0.587129	-0.454885
N43	N	0.838957	-0.787205	-0.407976
N44	N	0.838982	-0.849657	-0.407985
C45	C	0.894337	-0.881777	-0.401676
N46	N	0.949668	-0.849085	-0.395342
N47	N	0.949644	-0.786627	-0.395329
C48	C	0.894289	-0.754987	-0.401650
C49	C	0.936699	-0.983885	-0.348434
C50	C	0.936728	-1.049630	-0.348458
C51	C	0.852083	-1.053717	-0.454995
C52	C	0.852059	-0.987974	-0.454975
C53	C	0.894366	-0.953062	-0.401690
C54	C	1.058469	-0.318724	-0.401662
C55	C	1.128437	-0.318735	-0.401672
C56	C	0.885992	-0.326984	-0.619085
C57	C	0.882460	-0.330515	-0.711749
C58	C	0.894378	-0.154511	-0.401702
C59	C	0.894419	-0.084544	-0.401730
C60	C	0.875989	-0.336948	-0.881405
C61	C	0.912695	-0.300261	-0.922722
C62	C	0.909095	-0.303840	-1.017125
C63	C	0.879589	-0.333369	-0.786994
C64	C	0.902572	-0.310400	-0.185036
C65	C	0.906226	-0.306691	-0.092374
H66	H	0.257470	-0.387961	-0.304762
C67	C	0.530778	-0.398305	-0.290137
C68	C	0.575400	-0.431708	-0.243340
C69	C	0.544671	-0.469897	-0.189820
H70	H	0.503914	-0.427037	-0.321870
H71	H	0.506533	-0.372816	-0.253829
H72	H	0.599634	-0.457196	-0.279644
H73	H	0.602265	-0.402992	-0.211590
H74	H	0.520426	-0.444407	-0.153512
H75	H	0.517808	-0.498625	-0.221560
H76	H	0.574942	-0.492561	-0.158057
C77	C	0.121529	-0.239116	-0.513160
C78	C	0.162625	-0.205702	-0.559942
C79	C	0.127861	-0.167517	-0.613468
H80	H	0.097094	-0.210391	-0.481431
H81	H	0.094511	-0.264610	-0.549477
H82	H	0.189632	-0.180210	-0.523630
H83	H	0.187061	-0.234411	-0.591688
H84	H	0.100843	-0.193011	-0.649785
H85	H	0.103427	-0.138796	-0.581733
H86	H	0.155739	-0.144845	-0.645222
C87	C	0.258570	-0.239230	-0.513154
C88	C	0.294265	-0.276959	-0.566514
C89	C	0.325161	-0.238905	-0.620033
H90	H	0.285481	-0.210545	-0.481415
H91	H	0.228400	-0.216514	-0.545016
H92	H	0.324432	-0.299665	-0.534655
H93	H	0.267369	-0.305643	-0.598271
H94	H	0.294990	-0.216189	-0.651895
H95	H	0.352068	-0.210223	-0.588287
H96	H	0.349378	-0.264500	-0.656249
C97	C	0.982625	-0.682186	-0.290573
C98	C	1.044204	-0.666833	-0.308762
C99	C	1.086635	-0.697588	-0.255539
H100	H	0.976657	-0.726346	-0.298166
H101	H	0.975608	-0.669292	-0.234532
H102	H	1.051218	-0.679730	-0.364789
H103	H	1.050191	-0.622679	-0.301164
H104	H	1.079618	-0.684694	-0.199498
H105	H	1.080662	-0.741746	-0.263136
H106	H	1.128421	-0.687170	-0.267868
C107	C	0.830528	-0.382512	-0.928663
C108	C	0.844982	-0.444010	-0.907533
C109	C	0.803115	-0.486001	-0.951052
H110	H	0.834089	-0.378990	-0.986748
H111	H	0.788758	-0.372807	-0.914418
H112	H	0.886742	-0.453712	-0.921784
H113	H	0.841417	-0.447552	-0.849455
H114	H	0.761345	-0.476296	-0.936807
H115	H	0.806679	-0.482473	-1.009135
H116	H	0.812913	-0.527731	-0.936716
H117	H	0.138199	-0.387982	-0.304773
H118	H	0.531732	-0.249446	-0.498530
C119	C	0.958178	-0.254850	-0.875209
C120	C	0.952762	-0.260292	-0.789664
C121	C	0.994651	-0.218474	-0.745865
H122	H	0.948496	-0.213056	-0.889340
H123	H	0.999954	-0.264595	-0.889386
H124	H	0.910996	-0.250543	-0.775492
H125	H	0.962450	-0.302077	-0.775507
H126	H	1.036427	-0.228219	-0.760043
H127	H	0.984965	-0.176683	-0.760003
H128	H	0.990986	-0.222165	-0.687819
H129	H	0.650996	-0.249445	-0.498532
H130	H	0.817637	-1.082147	-0.498372
C131	C	0.806025	-0.954619	-0.512824
C132	C	0.768966	-0.999267	-0.559465
C133	C	0.726547	-0.968565	-0.612760
H134	H	0.828613	-0.930325	-0.549246
H135	H	0.779791	-0.927806	-0.480909
H136	H	0.795197	-1.026069	-0.591378
H137	H	0.746365	-1.023563	-0.523065
H138	H	0.700312	-0.941752	-0.580845
H139	H	0.749140	-0.944272	-0.649177
H140	H	0.701393	-0.998853	-0.644407
H141	H	0.658309	-0.387920	-0.304725
C142	C	0.982457	-0.545213	-0.290362
C143	C	0.971962	-0.558113	-0.207864
C144	C	1.014248	-0.523286	-0.154435
H145	H	0.976429	-0.501630	-0.297865
H146	H	1.024293	-0.556431	-0.302569
H147	H	0.930137	-0.546891	-0.195661
H148	H	0.977994	-0.601690	-0.200335
H149	H	1.056084	-0.534503	-0.166643
H150	H	1.008217	-0.479704	-0.161945
H151	H	1.007137	-0.532038	-0.098455
C152	C	0.806028	-0.690888	-0.512645
C153	C	0.815095	-0.755060	-0.501242
C154	C	0.772810	-0.790099	-0.554419
H155	H	0.813027	-0.682301	-0.568702
H156	H	0.764190	-0.679721	-0.500383
H157	H	0.856923	-0.766223	-0.513509
H158	H	0.808091	-0.763666	-0.445195
H159	H	0.730972	-0.778932	-0.542157
H160	H	0.779812	-0.781506	-0.610473
H161	H	0.778952	-0.833643	-0.546684
H162	H	0.817446	-0.562033	-0.498257
H163	H	0.971150	-0.955459	-0.305048
H164	H	0.971200	-1.074724	-0.305089
