data_functionalizedCrystal
_audit_creation_method	'MofGen! by Chris Wilmer'
_symmetry_space_group_name_H-M	'P1'
_symmetry_Int_Tables_number	1
_symmetry_cell_setting	triclinic
loop_
_symmetry_equiv_pos_as_xyz
  x,y,z
_cell_length_a	15.944493
_cell_length_b	15.944493
_cell_length_c	18.366186
_cell_angle_alpha	89.999635
_cell_angle_beta	89.991519
_cell_angle_gamma	83.475044
loop_
_atom_site_label
_atom_site_type_symbol
_atom_site_fract_x
_atom_site_fract_y
_atom_site_fract_z
O1	O	1.114537	0.108104	-0.060530
O2	O	0.869978	0.121512	-0.060533
O3	O	0.998962	-0.007472	-0.060538
O4	O	0.985554	0.237088	-0.060526
O5	O	0.998940	-0.007478	0.060562
O6	O	0.869956	0.121505	0.060567
O7	O	1.114515	0.108098	0.060569
Zn8	Zn	0.992232	0.114801	0.079795
Zn9	Zn	0.992261	0.114809	-0.079759
O10	O	0.985532	0.237081	0.060574
C11	C	0.838673	0.120961	0.000016
C12	C	0.745424	0.119318	0.000015
C13	C	0.998403	-0.038769	0.000009
C14	C	0.996760	-0.132018	-0.000000
C15	C	1.072682	-0.367793	0.000014
C16	C	1.031751	-0.418350	-0.059694
C17	C	0.993716	-0.302738	0.000009
C18	C	1.031711	-0.418332	0.059700
C19	C	0.990781	-0.467647	0.000020
C20	C	0.952806	-0.352066	-0.059749
C21	C	0.952777	-0.352045	0.059699
C22	C	0.911788	-0.402569	-0.000024
C23	C	0.995408	-0.207739	0.000001
C24	C	0.989082	-0.562644	0.000023
C25	C	0.509649	0.195240	0.000018
C26	C	0.459088	0.154295	0.059728
C27	C	0.574704	0.116273	0.000016
C28	C	0.459114	0.154283	-0.059667
C29	C	0.409795	0.113339	0.000014
C30	C	0.525372	0.075350	0.059775
C31	C	0.525401	0.075349	-0.059673
C32	C	0.474873	0.034346	0.000051
C33	C	0.669704	0.117966	0.000018
C34	C	0.314798	0.111640	0.000018
C35	C	1.145821	0.108649	0.000018
C36	C	1.239069	0.110292	0.000015
C37	C	0.986091	0.268379	0.000026
C38	C	0.987734	0.361627	0.000030
N39	N	0.992219	0.114794	0.188686
N40	N	0.992282	0.114809	-0.188650
C41	C	1.049351	0.057709	0.226784
C42	C	1.049357	0.057705	0.303012
C43	C	0.992237	0.114801	0.341139
C44	C	0.935094	0.171891	0.303031
C45	C	0.935085	0.171888	0.226805
C46	C	0.981221	0.191304	0.461903
C47	C	0.981236	0.191309	0.538128
C48	C	0.992261	0.114812	0.576246
C49	C	1.003290	0.038307	0.538131
C50	C	1.003280	0.038304	0.461904
C51	C	0.992241	0.114811	0.423794
C52	C	1.049403	0.057717	0.697000
C53	C	1.049402	0.057713	0.773229
C54	C	0.935144	0.171906	0.773246
C55	C	0.935140	0.171904	0.697019
C56	C	0.992274	0.114810	0.658900
H57	H	1.140702	-0.352179	-0.000045
Cl58	Cl	0.414440	0.205797	-0.137593
H59	H	0.888633	0.218392	0.804289
Cl60	Cl	0.901337	-0.307302	0.137639
Cl61	Cl	1.083207	-0.463012	0.137632
Cl62	Cl	0.570133	0.023913	-0.137618
H63	H	0.888621	0.218392	0.665997
Cl64	Cl	1.083251	-0.463050	-0.137629
H65	H	0.430134	0.187641	0.110210
H66	H	0.919485	-0.323237	-0.110282
H67	H	0.843715	-0.418021	-0.000057
Cl68	Cl	1.121171	-0.014069	0.178864
Cl69	Cl	0.533759	0.300255	0.000110
Cl70	Cl	0.569870	0.023890	0.137792
H71	H	1.095882	0.011217	0.334038
Cl72	Cl	1.017134	-0.057869	0.413990
Cl73	Cl	0.451007	-0.070750	0.000099
H74	H	1.012267	-0.023984	0.569165
Cl75	Cl	1.121223	-0.014061	0.649077
H76	H	1.095924	0.011222	0.804249
Cl77	Cl	0.967378	0.287485	0.586037
Cl78	Cl	0.967437	0.287484	0.413990
Cl79	Cl	0.863283	0.243667	0.350960
H80	H	0.888560	0.218375	0.195785
