data_functionalizedCrystal
_audit_creation_method	'MofGen! by Chris Wilmer'
_symmetry_space_group_name_H-M	'P1'
_symmetry_Int_Tables_number	1
_symmetry_cell_setting	triclinic
loop_
_symmetry_equiv_pos_as_xyz
  x,y,z
_cell_length_a	17.077404
_cell_length_b	12.645330
_cell_length_c	17.077396
_cell_angle_alpha	89.975931
_cell_angle_beta	89.980499
_cell_angle_gamma	90.017917
loop_
_atom_site_label
_atom_site_type_symbol
_atom_site_fract_x
_atom_site_fract_y
_atom_site_fract_z
Zn1	Zn	1.200083	-0.422033	-0.443867
Zn2	Zn	1.700083	0.077967	0.056133
Zn3	Zn	1.200002	-0.599318	-0.312611
Zn4	Zn	1.700002	-0.099318	0.187389
Zn5	Zn	1.068815	-0.422070	-0.312615
Zn6	Zn	1.568815	0.077930	0.187385
Zn7	Zn	1.068795	-0.599256	-0.443834
Zn8	Zn	1.568795	-0.099256	0.056166
O9	O	1.134424	-0.510669	-0.378232
O10	O	1.634424	-0.010669	0.121768
O11	O	1.309919	-0.445561	-0.426467
O12	O	1.809919	0.054439	0.073533
O13	O	1.182574	-0.575848	-0.202764
O14	O	1.682574	-0.075848	0.297236
O15	O	1.086270	-0.273718	-0.330041
O16	O	1.586270	0.226282	0.169959
O17	O	1.309860	-0.575812	-0.330034
O18	O	1.809860	-0.075812	0.169966
O19	O	1.182712	-0.273691	-0.426471
O20	O	1.682712	0.226309	0.073529
O21	O	1.086192	-0.445624	-0.202767
O22	O	1.586192	0.054376	0.297233
O23	O	0.958965	-0.445563	-0.330009
O24	O	1.458965	0.054437	0.169991
O25	O	1.086236	-0.575705	-0.553686
O26	O	1.586236	-0.075705	-0.053686
O27	O	0.958950	-0.575741	-0.426416
O28	O	1.458950	-0.075741	0.073584
O29	O	1.182693	-0.445500	-0.553709
O30	O	1.682693	0.054500	-0.053709
O31	O	1.182555	-0.747657	-0.330003
O32	O	1.682555	-0.247657	0.169997
O33	O	1.086157	-0.747611	-0.426412
O34	O	1.586157	-0.247611	0.073588
C35	C	0.930476	-0.510650	-0.378210
C36	C	1.430476	-0.010650	0.121790
C37	C	0.843226	-0.510667	-0.378219
C38	C	1.343226	-0.010667	0.121781
C39	C	0.802249	-0.578553	-0.428338
C40	C	1.302249	-0.078553	0.071662
C41	C	0.720268	-0.578555	-0.428350
C42	C	1.220268	-0.078555	0.071650
C43	C	0.679267	-0.510677	-0.378240
C44	C	1.179267	-0.010677	0.121760
C45	C	0.720250	-0.442783	-0.328119
C46	C	1.220250	0.057217	0.171881
C47	C	0.802229	-0.442777	-0.328111
C48	C	1.302229	0.057223	0.171889
C49	C	0.549380	-0.442804	-0.328138
C50	C	1.049380	0.057196	0.171862
C51	C	0.467395	-0.442812	-0.328145
C52	C	0.967395	0.057188	0.171855
C53	C	0.467419	-0.578583	-0.428377
C54	C	0.967419	-0.078583	0.071623
C55	C	0.549398	-0.578576	-0.428369
C56	C	1.049398	-0.078576	0.071631
C57	C	0.590376	-0.510684	-0.378247
C58	C	1.090376	-0.010684	0.121753
C59	C	1.134366	-0.786099	-0.378221
C60	C	1.634366	-0.286099	0.121779
C61	C	1.134414	-0.903929	-0.378242
C62	C	1.634414	-0.403929	0.121758
C63	C	1.074020	-1.071508	-0.439080
C64	C	1.574020	-0.571508	0.060920
C65	C	1.073711	-0.948949	-0.438885
C66	C	1.573711	-0.448949	0.061115
C67	C	1.112022	-0.948522	-0.295515
C68	C	1.612022	-0.448522	0.204485
C69	C	1.111653	-1.071120	-0.295885
C70	C	1.611653	-0.571120	0.204115
C71	C	1.217568	-1.071018	-0.399460
C72	C	1.717568	-0.571018	0.100540
C73	C	1.217059	-0.948411	-0.401269
C74	C	1.717059	-0.448411	0.098731
C75	C	1.339168	-0.510689	-0.378254
C76	C	1.839168	-0.010689	0.121746
C77	C	1.426418	-0.510698	-0.378263
C78	C	1.926418	-0.010698	0.121737
C79	C	1.134471	-0.510591	-0.582976
C80	C	1.634471	-0.010591	-0.082976
C81	C	1.134491	-0.510558	-0.670226
C82	C	1.634491	-0.010558	-0.170226
C83	C	1.134502	-0.234164	-0.378260
C84	C	1.634502	0.265836	0.121740
C85	C	1.134536	-0.116334	-0.378272
C86	C	1.634536	0.383666	0.121728
C87	C	1.184718	-0.442755	-0.711230
C88	C	1.684718	0.057245	-0.211230
C89	C	1.184728	-0.442719	-0.793210
C90	C	1.684728	0.057281	-0.293210
C91	C	1.134514	-0.510493	-0.834185
C92	C	1.634514	-0.010493	-0.334185
C93	C	1.084281	-0.578300	-0.793176
C94	C	1.584281	-0.078300	-0.293176
C95	C	1.084268	-0.578329	-0.711197
C96	C	1.584268	-0.078329	-0.211197
C97	C	1.084313	-0.578236	-0.964046
C98	C	1.584313	-0.078236	-0.464046
C99	C	1.084326	-0.578208	-1.046031
C100	C	1.584326	-0.078208	-0.546031
C101	C	1.184772	-0.442627	-1.046059
C102	C	1.684772	0.057373	-0.546059
C103	C	1.184759	-0.442656	-0.964080
C104	C	1.684759	0.057344	-0.464080
C105	C	1.134528	-0.510464	-0.923076
C106	C	1.634528	-0.010464	-0.423076
C107	C	1.134421	-0.510671	-0.174284
C108	C	1.634421	-0.010671	0.325716
C109	C	1.134553	-0.510405	-0.087034
C110	C	1.634553	-0.010405	0.412966
H111	H	0.434014	-0.387527	-0.287350
H112	H	0.934014	0.112473	0.212650
F113	F	1.279098	-0.908342	-0.347600
F114	F	1.779098	-0.408342	0.152400
H115	H	1.225653	-0.387474	-0.930721
H116	H	1.725653	0.112526	-0.430721
F117	F	1.238233	-0.370461	-1.089699
F118	F	1.738233	0.129539	-0.589699
H119	H	0.835626	-0.633831	-0.469141
H120	H	1.335626	-0.133831	0.030859
F121	F	0.593034	-0.650827	-0.481697
F122	F	1.093034	-0.150827	0.018303
F123	F	1.033512	-0.908517	-0.271630
F124	F	1.533512	-0.408517	0.228370
F125	F	0.845839	-0.370521	-0.274770
F126	F	1.345839	0.129479	0.225230
H127	H	1.087720	-0.918796	-0.500226
H128	H	1.587720	-0.418796	-0.000226
F129	F	1.030848	-0.650403	-0.920409
F130	F	1.530848	-0.150403	-0.420409
F131	F	0.676661	-0.650808	-0.481694
F132	F	1.176661	-0.150808	0.018306
H133	H	0.582741	-0.387510	-0.287331
H134	H	1.082741	0.112490	0.212669
F135	F	0.423807	-0.650827	-0.481730
F136	F	0.923807	-0.150827	0.018270
F137	F	1.276502	-1.108923	-0.341581
F138	F	1.776502	-0.608923	0.158419
H139	H	0.686860	-0.387511	-0.287322
H140	H	1.186860	0.112489	0.212678
H141	H	1.087901	-1.100921	-0.500623
H142	H	1.587901	-0.600921	-0.000623
H143	H	1.043360	-0.633530	-0.677813
H144	H	1.543360	-0.133530	-0.177813
F145	F	0.994066	-1.111916	-0.420981
F146	F	1.494066	-0.611916	0.079019
F147	F	0.993252	-0.910732	-0.420541
F148	F	1.493252	-0.410732	0.079459
H149	H	1.050956	-1.099811	-0.277936
H150	H	1.550956	-0.599811	0.222064
F151	F	1.238168	-0.370624	-0.667628
F152	F	1.738168	0.129376	-0.167628
H153	H	1.154702	-0.919362	-0.248970
H154	H	1.654702	-0.419362	0.251030
H155	H	1.153818	-1.100776	-0.249033
H156	H	1.653818	-0.600776	0.250967
H157	H	1.043436	-0.633394	-1.079391
H158	H	1.543436	-0.133394	-0.579391
H159	H	1.043393	-0.633479	-0.826544
H160	H	1.543393	-0.133479	-0.326544
H161	H	1.237995	-1.101863	-0.458759
H162	H	1.737995	-0.601863	0.041241
H163	H	1.233945	-0.919262	-0.462152
H164	H	1.733945	-0.419262	0.037848
H165	H	1.225629	-0.387510	-0.826592
H166	H	1.725629	0.112490	-0.326592
