data_functionalizedCrystal
_audit_creation_method	'MofGen! by Chris Wilmer'
_symmetry_space_group_name_H-M	'P1'
_symmetry_Int_Tables_number	1
_symmetry_cell_setting	triclinic
loop_
_symmetry_equiv_pos_as_xyz
  x,y,z
_cell_length_a	14.519709
_cell_length_b	14.519709
_cell_length_c	10.868271
_cell_angle_alpha	89.993918
_cell_angle_beta	90.001299
_cell_angle_gamma	83.680145
loop_
_atom_site_label
_atom_site_type_symbol
_atom_site_fract_x
_atom_site_fract_y
_atom_site_fract_z
O1	O	1.223867	0.120892	-0.102165
O2	O	1.473867	0.370892	0.147835
O3	O	1.723867	0.620892	0.397835
O4	O	1.973867	0.870892	0.647835
O5	O	0.955390	0.135128	-0.102203
O6	O	1.205390	0.385128	0.147797
O7	O	1.455390	0.635128	0.397797
O8	O	1.705390	0.885128	0.647797
O9	O	1.096747	-0.006228	-0.102172
O10	O	1.346747	0.243772	0.147828
O11	O	1.596747	0.493772	0.397828
O12	O	1.846747	0.743772	0.647828
O13	O	1.082510	0.262248	-0.102196
O14	O	1.332510	0.512248	0.147804
O15	O	1.582510	0.762248	0.397804
O16	O	1.832510	1.012248	0.647804
O17	O	1.096735	-0.006234	0.102473
O18	O	1.346735	0.243766	0.352473
O19	O	1.596735	0.493766	0.602473
O20	O	1.846735	0.743766	0.852473
O21	O	0.955379	0.135123	0.102442
O22	O	1.205379	0.385123	0.352442
O23	O	1.455379	0.635123	0.602442
O24	O	1.705379	0.885123	0.852442
O25	O	1.223856	0.120886	0.102480
O26	O	1.473856	0.370886	0.352480
O27	O	1.723856	0.620886	0.602480
O28	O	1.973856	0.870886	0.852480
Zn29	Zn	1.089615	0.128004	0.134953
Zn30	Zn	1.339615	0.378004	0.384953
Zn31	Zn	1.589615	0.628004	0.634953
Zn32	Zn	1.839615	0.878004	0.884953
Zn33	Zn	1.089631	0.128011	-0.134675
Zn34	Zn	1.339631	0.378011	0.115325
Zn35	Zn	1.589631	0.628011	0.365325
Zn36	Zn	1.839631	0.878011	0.615325
O37	O	1.082499	0.262243	0.102449
O38	O	1.332499	0.512243	0.352449
O39	O	1.582499	0.762243	0.602449
O40	O	1.832499	1.012243	0.852449
C41	C	0.921025	0.134462	0.000115
C42	C	1.171025	0.384462	0.250115
C43	C	1.421025	0.634462	0.500115
C44	C	1.671025	0.884462	0.750115
C45	C	0.818643	0.132474	0.000101
C46	C	1.068643	0.382474	0.250101
C47	C	1.318643	0.632474	0.500101
C48	C	1.568643	0.882474	0.750101
C49	C	0.443748	0.125154	0.000157
C50	C	0.693748	0.375154	0.250157
C51	C	0.943748	0.625154	0.500157
C52	C	1.193748	0.875154	0.750157
C53	C	0.548056	0.127187	0.000141
C54	C	0.798056	0.377187	0.250141
C55	C	1.048056	0.627187	0.500141
C56	C	1.298056	0.877187	0.750141
C57	C	0.631192	0.128814	0.000128
C58	C	0.881192	0.378814	0.250128
C59	C	1.131192	0.628814	0.500128
C60	C	1.381192	0.878814	0.750128
C61	C	0.735507	0.130847	0.000114
C62	C	0.985507	0.380847	0.250114
C63	C	1.235507	0.630847	0.500114
C64	C	1.485507	0.880847	0.750114
C65	C	1.096078	-0.040591	0.000151
C66	C	1.346078	0.209409	0.250151
C67	C	1.596078	0.459409	0.500151
C68	C	1.846078	0.709409	0.750151
C69	C	1.094090	-0.142972	0.000151
C70	C	1.344090	0.107028	0.250151
C71	C	1.594090	0.357028	0.500151
C72	C	1.844090	0.607028	0.750151
C73	C	1.086770	-0.517868	0.000118
C74	C	1.336770	-0.267868	0.250118
C75	C	1.586770	-0.017868	0.500118
C76	C	1.836770	0.232132	0.750118
C77	C	1.088803	-0.413560	0.000128
C78	C	1.338803	-0.163560	0.250128
C79	C	1.588803	0.086440	0.500128
C80	C	1.838803	0.336440	0.750128
C81	C	1.090430	-0.330423	0.000136
C82	C	1.340430	-0.080423	0.250136
C83	C	1.590430	0.169577	0.500136
C84	C	1.840430	0.419577	0.750136
C85	C	1.092463	-0.226109	0.000143
C86	C	1.342463	0.023891	0.250143
C87	C	1.592463	0.273891	0.500143
C88	C	1.842463	0.523891	0.750143
C89	C	1.258221	0.121553	0.000160
C90	C	1.508221	0.371553	0.250160
C91	C	1.758221	0.621553	0.500160
C92	C	2.008221	0.871553	0.750160
C93	C	1.360602	0.123541	0.000166
C94	C	1.610602	0.373541	0.250166
C95	C	1.860602	0.623541	0.500166
C96	C	2.110602	0.873541	0.750166
C97	C	1.083168	0.296605	0.000124
C98	C	1.333168	0.546605	0.250124
C99	C	1.583168	0.796605	0.500124
C100	C	1.833168	1.046605	0.750124
C101	C	1.085156	0.398987	0.000115
C102	C	1.335156	0.648987	0.250115
C103	C	1.585156	0.898987	0.500115
C104	C	1.835156	1.148987	0.750115
N105	N	1.089612	0.127998	0.318967
N106	N	1.339612	0.377998	0.568967
N107	N	1.589612	0.627998	0.818967
N108	N	1.839612	0.877998	1.068967
N109	N	1.089642	0.128009	-0.318690
N110	N	1.339642	0.378009	-0.068690
N111	N	1.589642	0.628009	0.181310
N112	N	1.839642	0.878009	0.431310
C113	C	1.089626	0.128009	0.569973
C114	C	1.339626	0.378009	0.819973
C115	C	1.589626	0.628009	1.069973
C116	C	1.839626	0.878009	1.319973
C117	C	1.089615	0.128006	0.430295
C118	C	1.339615	0.378006	0.680295
C119	C	1.589615	0.628006	0.930295
C120	C	1.839615	0.878006	1.180295
