data_functionalizedCrystal
_audit_creation_method	'MofGen! by Chris Wilmer'
_symmetry_space_group_name_H-M	'P1'
_symmetry_Int_Tables_number	1
_symmetry_cell_setting	triclinic
loop_
_symmetry_equiv_pos_as_xyz
  x,y,z
_cell_length_a	10.654550
_cell_length_b	9.565339
_cell_length_c	10.654551
_cell_angle_alpha	89.998000
_cell_angle_beta	84.485180
_cell_angle_gamma	90.000347
loop_
_atom_site_label
_atom_site_type_symbol
_atom_site_fract_x
_atom_site_fract_y
_atom_site_fract_z
O1	O	1.667841	0.116150	0.176390
O2	O	1.302363	0.116175	0.193196
O3	O	1.493504	0.116159	0.002054
O4	O	1.476700	0.116166	0.367532
O5	O	1.493489	-0.116361	0.002066
O6	O	1.302348	-0.116345	0.193208
O7	O	1.667826	-0.116370	0.176402
Zn8	Zn	1.485084	-0.153275	0.184807
Zn9	Zn	1.485104	0.153080	0.184791
O10	O	1.476685	-0.116354	0.367544
C11	C	1.255557	-0.000082	0.191968
C12	C	1.116114	-0.000072	0.188276
N13	N	1.485080	-0.362355	0.184817
C14	C	1.036629	-0.000074	0.300818
C15	C	0.905608	-0.000098	0.297341
C16	C	0.933570	-0.000113	0.068772
C17	C	1.064589	-0.000099	0.072249
C18	C	1.396656	-0.453550	0.273184
C19	C	1.510360	-0.546737	0.298542
C20	C	1.371426	-0.546724	0.159468
C21	C	1.598841	-0.453489	0.210232
C22	C	1.459832	-0.453468	0.071109
C23	C	1.573617	-0.546613	0.096419
C24	C	1.714632	-0.000111	0.177630
C25	C	1.854075	-0.000111	0.181322
C26	C	1.492262	-0.000099	-0.044738
C27	C	1.488570	-0.000092	-0.184181
N28	N	1.485119	0.362159	0.184771
C29	C	1.486845	0.126656	-0.249692
C30	C	1.483365	0.126657	-0.380712
C31	C	1.483340	-0.126849	-0.380701
C32	C	1.486811	-0.126849	-0.249682
C33	C	1.477926	-0.000093	0.414336
C34	C	1.481619	-0.000091	0.553779
H35	H	1.078576	-0.000063	0.395294
O36	O	1.536046	-0.595465	0.413230
C37	C	1.655040	-0.545958	0.440619
H38	H	1.679571	-0.447100	0.383715
H39	H	1.652287	-0.521366	0.545541
H40	H	1.729483	-0.629373	0.414750
H41	H	0.891602	-0.000144	-0.025693
O42	O	1.141629	-0.000034	-0.037198
C43	C	1.068060	-0.000083	-0.140352
H44	H	0.970563	0.043932	-0.109338
H45	H	1.115695	0.067421	-0.219280
H46	H	1.058433	-0.111639	-0.175851
H47	H	1.488274	0.229869	-0.196365
O48	O	0.828577	-0.000033	0.406782
C49	C	0.902156	-0.000044	0.509928
H50	H	0.999644	0.043988	0.478896
H51	H	0.854517	0.067464	0.588845
H52	H	0.911805	-0.111591	0.545450
O53	O	1.713644	-0.405085	0.235891
C54	C	1.793959	-0.519017	0.253836
H55	H	1.759157	-0.615290	0.204480
H56	H	1.893853	-0.492709	0.212550
H57	H	1.793814	-0.541180	0.358985
H58	H	1.481958	0.229868	-0.434044
H59	H	1.321948	-0.412689	0.347983
O60	O	1.663101	-0.595002	0.007375
C61	C	1.782719	-0.547208	0.034537
H62	H	1.780036	-0.521211	0.139178
H63	H	1.855933	-0.632235	0.009880
H64	H	1.808914	-0.449535	-0.023483
O65	O	1.256641	-0.595411	0.134052
C66	C	1.163697	-0.548021	0.227497
H67	H	1.198762	-0.449899	0.273820
H68	H	1.073543	-0.522904	0.182428
H69	H	1.143627	-0.632938	0.301804
O70	O	1.434064	-0.404608	-0.043501
C71	C	1.314084	-0.452058	-0.069848
H72	H	1.255280	-0.478268	0.022224
H73	H	1.264915	-0.366741	-0.121572
H74	H	1.325035	-0.549531	-0.131499
O75	O	1.488659	-0.249891	-0.185920
C76	C	1.599258	-0.257502	-0.123432
H77	H	1.635989	-0.147456	-0.108240
H78	H	1.577269	-0.311138	-0.028308
H79	H	1.673945	-0.320065	-0.183215
O80	O	1.481476	-0.249883	-0.444452
C81	C	1.370880	-0.257480	-0.506944
H82	H	1.334164	-0.147429	-0.522148
H83	H	1.392864	-0.311122	-0.602062
H84	H	1.296182	-0.320030	-0.447156
