data_functionalizedCrystal
_audit_creation_method	'MofGen! by Chris Wilmer'
_symmetry_space_group_name_H-M	'P1'
_symmetry_Int_Tables_number	1
_symmetry_cell_setting	triclinic
loop_
_symmetry_equiv_pos_as_xyz
  x,y,z
_cell_length_a	27.732048
_cell_length_b	19.188930
_cell_length_c	18.266242
_cell_angle_alpha	89.977082
_cell_angle_beta	89.998607
_cell_angle_gamma	97.106281
loop_
_atom_site_label
_atom_site_type_symbol
_atom_site_fract_x
_atom_site_fract_y
_atom_site_fract_z
O1	O	-0.060348	0.925764	-0.061104
O2	O	0.439652	1.425764	0.438896
O3	O	-0.068472	0.722401	-0.061052
O4	O	0.431528	1.222401	0.438948
O5	O	0.005968	0.830399	-0.061089
O6	O	0.505968	1.330399	0.438911
O7	O	-0.134787	0.817767	-0.061066
O8	O	0.365213	1.317767	0.438934
O9	O	0.005971	0.830381	0.060673
O10	O	0.505971	1.330381	0.560673
O11	O	-0.068468	0.722383	0.060710
O12	O	0.431532	1.222383	0.560710
O13	O	-0.060344	0.925746	0.060658
O14	O	0.439656	1.425746	0.560658
Zn15	Zn	-0.064405	0.824062	0.080017
Zn16	Zn	0.435595	1.324062	0.580017
Zn17	Zn	-0.064410	0.824086	-0.080410
Zn18	Zn	0.435590	1.324086	0.419590
O19	O	-0.134783	0.817749	0.060695
O20	O	0.365217	1.317749	0.560695
C21	C	-0.068207	0.696383	-0.000164
C22	C	0.431793	1.196383	0.499836
C23	C	-0.067417	0.618883	-0.000145
C24	C	0.432583	1.118883	0.499855
C25	C	-0.111096	0.573681	-0.000150
C26	C	0.388904	1.073681	0.499850
C27	C	-0.110354	0.500862	-0.000158
C28	C	0.389646	1.000862	0.499842
C29	C	-0.065931	0.473249	-0.000176
C30	C	0.434069	0.973249	0.499824
C31	C	-0.022246	0.518461	-0.000168
C32	C	0.477754	1.018461	0.499832
C33	C	-0.022990	0.591278	-0.000152
C34	C	0.477010	1.091278	0.499848
N35	N	-0.031976	0.365491	-0.041652
N36	N	0.468024	0.865491	0.458348
N37	N	-0.031273	0.296317	-0.041669
N38	N	0.468727	0.796317	0.458331
C39	C	-0.063689	0.253854	-0.000222
C40	C	0.436311	0.753854	0.499778
N41	N	-0.096842	0.283177	0.041233
N42	N	0.403158	0.783177	0.541233
N43	N	-0.097546	0.352357	0.041246
N44	N	0.402454	0.852357	0.541246
C45	C	-0.065120	0.394291	-0.000193
C46	C	0.434880	0.894291	0.499807
C47	C	-0.106566	0.129692	-0.000234
C48	C	0.393434	0.629692	0.499766
C49	C	-0.105822	0.056872	-0.000237
C50	C	0.394178	0.556872	0.499763
C51	C	-0.017714	0.074473	-0.000255
C52	C	0.482286	0.574473	0.499745
C53	C	-0.018459	0.147292	-0.000244
C54	C	0.481541	0.647292	0.499756
C55	C	-0.062886	0.174897	-0.000237
C56	C	0.437114	0.674897	0.499763
C57	C	-0.152793	0.818023	-0.000183
C58	C	0.347207	1.318023	0.499817
C59	C	-0.206450	0.818821	-0.000176
C60	C	0.293550	1.318821	0.499824
C61	C	-0.545086	0.760029	-0.000196
C62	C	-0.045086	1.260029	0.499804
C63	C	-0.746754	0.762991	-0.000206
C64	C	-0.246754	1.262991	0.499794
O65	O	-0.777846	0.709229	-0.000224
O66	O	-0.277846	1.209229	0.499776
N67	N	-0.766074	0.827029	-0.000221
N68	N	-0.266074	1.327029	0.499779
C69	C	-0.734973	0.890331	-0.000239
C70	C	-0.234973	1.390331	0.499761
O71	O	-0.756033	0.944867	-0.000260
O72	O	-0.256033	1.444867	0.499740
C73	C	-0.533305	0.887368	-0.000235
C74	C	-0.033305	1.387368	0.499765
C75	C	-0.513989	0.823326	-0.000212
C76	C	-0.013989	1.323326	0.499788
C77	C	-0.525769	0.695991	-0.000175
C78	C	-0.025769	1.195991	0.499825
C79	C	-0.475354	0.695252	-0.000168
C80	C	0.024646	1.195252	0.499832
C81	C	-0.444257	0.758549	-0.000184
C82	C	0.055743	1.258549	0.499816
C83	C	-0.463574	0.822586	-0.000206
C84	C	0.036426	1.322586	0.499794
C85	C	-0.502205	0.950669	-0.000258
C86	C	-0.002205	1.450669	0.499742
C87	C	-0.451785	0.949923	-0.000258
C88	C	0.048215	1.449923	0.499742
C89	C	-0.432469	0.885880	-0.000236
C90	C	0.067531	1.385880	0.499764
C91	C	-0.382063	0.885143	-0.000215
C92	C	0.117937	1.385143	0.499785
N93	N	-0.362743	0.821105	-0.000199
N94	N	0.137257	1.321105	0.499801
C95	C	-0.393841	0.757808	-0.000184
C96	C	0.106159	1.257808	0.499816
C97	C	-0.840852	0.891882	-0.000240
C98	C	-0.340852	1.391882	0.499760
C99	C	-0.891268	0.892623	-0.000239
C100	C	-0.391268	1.392623	0.499761
C101	C	-0.903046	0.765283	-0.000208
C102	C	-0.403046	1.265283	0.499792
C103	C	-0.852629	0.764543	-0.000203
C104	C	-0.352629	1.264543	0.499797
C105	C	-0.821532	0.827844	-0.000224
C106	C	-0.321532	1.327844	0.499776
C107	C	-0.287967	0.756259	-0.000170
C108	C	0.212033	1.256259	0.499830
C109	C	-0.237548	0.755524	-0.000161
C110	C	0.262452	1.255524	0.499839
C111	C	-0.225774	0.882864	-0.000196
C112	C	0.274226	1.382864	0.499804
C113	C	-0.276189	0.883599	-0.000202
C114	C	0.223811	1.383599	0.499798
C115	C	-0.307284	0.820290	-0.000191
C116	C	0.192716	1.320290	0.499809
O117	O	-0.350943	0.938876	-0.000205
O118	O	0.149057	1.438876	0.499795
O119	O	-0.372771	0.703279	-0.000179
O120	O	0.127229	1.203279	0.499821
C121	C	-0.595500	0.760768	-0.000203
C122	C	-0.095500	1.260768	0.499797
C123	C	-0.614817	0.824805	-0.000225
C124	C	-0.114817	1.324805	0.499775
C125	C	-0.583720	0.888103	-0.000240
C126	C	-0.083720	1.388103	0.499760
C127	C	-0.665234	0.825546	-0.000224
C128	C	-0.165234	1.325546	0.499776
C129	C	-0.696331	0.762249	-0.000209
C130	C	-0.196331	1.262249	0.499791
C131	C	-0.677011	0.698211	-0.000194
C132	C	-0.177011	1.198211	0.499806
C133	C	-0.626597	0.697471	-0.000187
C134	C	-0.126597	1.197471	0.499813
C135	C	-0.603039	0.952141	-0.000255
C136	C	-0.103039	1.452141	0.499745
C137	C	-0.653454	0.952875	-0.000261
C138	C	-0.153454	1.452875	0.499739
C139	C	-0.684551	0.889578	-0.000245
C140	C	-0.184551	1.389578	0.499755
C141	C	0.023977	0.830125	-0.000212
C142	C	0.523977	1.330125	0.499788
C143	C	0.077635	0.829326	-0.000224
C144	C	0.577635	1.329326	0.499776
C145	C	-0.060609	0.951765	-0.000231
C146	C	0.439391	1.451765	0.499769
C147	C	-0.061399	1.029264	-0.000255
C148	C	0.438601	1.529264	0.499745
N149	N	-0.064402	0.824051	0.189503
N150	N	0.435598	1.324051	0.689503
N151	N	-0.064410	0.824102	-0.189897
N152	N	0.435590	1.324102	0.310103
C153	C	-0.031456	0.871887	0.227796
C154	C	0.468544	1.371887	0.727796
C155	C	-0.031454	0.871892	0.304441
C156	C	0.468546	1.371892	0.804441
C157	C	-0.064406	0.824066	0.342790
C158	C	0.435594	1.324066	0.842790
C159	C	-0.097354	0.776220	0.304489
C160	C	0.402646	1.276220	0.804489
C161	C	-0.097352	0.776213	0.227845
C162	C	0.402648	1.276213	0.727845
N163	N	-0.107196	0.814718	0.463131
N164	N	0.392804	1.314718	0.963131
N165	N	-0.107196	0.814729	0.535939
N166	N	0.392804	1.314729	1.035939
C167	C	-0.064413	0.824086	0.573713
C168	C	0.435587	1.324086	1.073713
N169	N	-0.021627	0.833444	0.535928
N170	N	0.478373	1.333444	1.035928
N171	N	-0.021628	0.833436	0.463113
N172	N	0.478372	1.333436	0.963113
C173	C	-0.064411	0.824069	0.425897
C174	C	0.435589	1.324069	0.925897
C175	C	-0.031462	0.871930	0.695112
C176	C	0.468538	1.371930	1.195112
C177	C	-0.031459	0.871929	0.771759
C178	C	0.468541	1.371929	1.271759
C179	C	-0.097363	0.776261	0.771805
C180	C	0.402637	1.276261	1.271805
C181	C	-0.097362	0.776258	0.695160
C182	C	0.402638	1.276258	1.195160
C183	C	-0.064412	0.824096	0.656818
C184	C	0.435588	1.324096	1.156818
H185	H	0.017109	0.184097	-0.000244
H186	H	0.517109	0.684097	0.499756
H187	H	-0.517923	1.002819	-0.000277
H188	H	-0.017923	1.502819	0.499723
H189	H	-0.004625	0.910847	0.335624
H190	H	0.495375	1.410847	0.835624
H191	H	-0.221823	0.703371	-0.000139
H192	H	0.278177	1.203371	0.499861
H193	H	-0.313279	0.704707	-0.000162
H194	H	0.186721	1.204707	0.499838
H195	H	-0.124191	0.737308	0.663981
H196	H	0.375809	1.237308	1.163981
H197	H	-0.124181	0.737257	0.196667
H198	H	0.375819	1.237257	0.696667
H199	H	-0.004625	0.910838	0.196580
H200	H	0.495375	1.410838	0.696580
H201	H	-0.124183	0.737279	0.335717
H202	H	0.375817	1.237279	0.835717
H203	H	-0.147272	0.596152	-0.000146
H204	H	0.352728	1.096152	0.499854
H205	H	-0.141392	0.020068	-0.000237
H206	H	0.358608	0.520068	0.499763
H207	H	-0.426468	1.001472	-0.000280
H208	H	0.073532	1.501472	0.499720
H209	H	-0.004630	0.910880	0.663893
H210	H	0.495370	1.410880	1.163893
H211	H	-0.142741	0.152169	-0.000217
H212	H	0.357259	0.652169	0.499783
H213	H	-0.291917	0.935747	-0.000210
H214	H	0.208083	1.435747	0.499790
H215	H	-0.145923	0.464051	-0.000160
H216	H	0.354077	0.964051	0.499840
H217	H	-0.004628	0.910882	0.802937
H218	H	0.495372	1.410882	1.302937
H219	H	0.018456	0.051991	-0.000315
H220	H	0.518456	0.551991	0.499685
H221	H	0.013923	0.495974	-0.000193
H222	H	0.513923	0.995974	0.499807
H223	H	0.012580	0.628083	-0.000149
H224	H	0.512580	1.128083	0.499851
H225	H	-0.459632	0.643102	-0.000156
H226	H	0.040368	1.143102	0.499844
H227	H	-0.702340	0.646673	-0.000176
H228	H	-0.202340	1.146673	0.499824
H229	H	-0.610875	0.645322	-0.000168
H230	H	-0.110875	1.145322	0.499832
H231	H	-0.836905	0.712394	-0.000181
H232	H	-0.336905	1.212394	0.499819
H233	H	-0.551084	0.644444	-0.000164
H234	H	-0.051084	1.144444	0.499836
H235	H	-0.928375	0.713744	-0.000192
H236	H	-0.428375	1.213744	0.499808
H237	H	-0.669176	1.005030	-0.000274
H238	H	-0.169176	1.505030	0.499726
H239	H	-0.124191	0.737318	0.803029
H240	H	0.375809	1.237318	1.303029
H241	H	-0.906991	0.944773	-0.000246
H242	H	-0.406991	1.444773	0.499754
H243	H	-0.815536	0.943433	-0.000256
H244	H	-0.315536	1.443433	0.499744
H245	H	-0.200446	0.934399	-0.000205
H246	H	0.299554	1.434399	0.499795
H247	H	-0.577724	1.003686	-0.000269
H248	H	-0.077724	1.503686	0.499731
