data_functionalizedCrystal
_audit_creation_method	'MofGen! by Chris Wilmer'
_symmetry_space_group_name_H-M	'P1'
_symmetry_Int_Tables_number	1
_symmetry_cell_setting	triclinic
loop_
_symmetry_equiv_pos_as_xyz
  x,y,z
_cell_length_a	14.519709
_cell_length_b	14.519731
_cell_length_c	13.596369
_cell_angle_alpha	90.005365
_cell_angle_beta	89.999340
_cell_angle_gamma	96.315500
loop_
_atom_site_label
_atom_site_type_symbol
_atom_site_fract_x
_atom_site_fract_y
_atom_site_fract_z
O1	O	1.223880	-0.120883	-0.081675
O2	O	1.557213	0.212450	0.251658
O3	O	1.890547	0.545783	0.584991
O4	O	0.955404	-0.135120	-0.081707
O5	O	1.288737	0.198214	0.251626
O6	O	1.622071	0.531547	0.584960
O7	O	1.096750	0.006236	-0.081670
O8	O	1.430083	0.339569	0.251663
O9	O	1.763417	0.672902	0.584996
O10	O	1.082534	-0.262239	-0.081712
O11	O	1.415867	0.071095	0.251621
O12	O	1.749201	0.404428	0.584955
O13	O	1.096731	0.006227	0.081912
O14	O	1.430065	0.339560	0.415246
O15	O	1.763398	0.672893	0.748579
O16	O	0.955386	-0.135129	0.081876
O17	O	1.288719	0.198205	0.415209
O18	O	1.622052	0.531538	0.748543
O19	O	1.223861	-0.120892	0.081908
O20	O	1.557195	0.212441	0.415241
O21	O	1.890528	0.545774	0.748574
Zn22	Zn	1.089621	-0.128012	0.107864
Zn23	Zn	1.422954	0.205321	0.441197
Zn24	Zn	1.756287	0.538655	0.774531
Zn25	Zn	1.089645	-0.128000	-0.107663
Zn26	Zn	1.422978	0.205333	0.225670
Zn27	Zn	1.756312	0.538667	0.559003
O28	O	1.082515	-0.262248	0.081871
O29	O	1.415849	0.071086	0.415204
O30	O	1.749182	0.404419	0.748538
C31	C	0.921035	-0.134461	0.000081
C32	C	1.254368	0.198873	0.333414
C33	C	1.587702	0.532206	0.666747
C34	C	0.818654	-0.132473	0.000070
C35	C	1.151987	0.200861	0.333403
C36	C	1.485320	0.534194	0.666736
C37	C	1.096075	0.040591	0.000124
C38	C	1.429408	0.373924	0.333457
C39	C	1.762741	0.707257	0.666791
C40	C	1.094079	0.142971	0.000133
C41	C	1.427412	0.476304	0.333466
C42	C	1.760745	0.809637	0.666799
C43	C	0.443757	-0.125153	0.000116
C44	C	0.777091	0.208180	0.333449
C45	C	1.110424	0.541513	0.666782
C46	C	0.548065	-0.127186	0.000102
C47	C	0.881399	0.206148	0.333436
C48	C	1.214732	0.539481	0.666769
C49	C	0.631202	-0.128813	0.000092
C50	C	0.964535	0.204521	0.333425
C51	C	1.297869	0.537854	0.666758
C52	C	0.735517	-0.130846	0.000080
C53	C	1.068850	0.202488	0.333414
C54	C	1.402183	0.535821	0.666747
C55	C	1.258230	-0.121551	0.000118
C56	C	1.591564	0.211782	0.333451
C57	C	1.924897	0.545115	0.666784
C58	C	1.360612	-0.123539	0.000122
C59	C	1.693945	0.209794	0.333456
C60	C	2.027279	0.543127	0.666789
C61	C	1.092457	0.226115	0.000137
C62	C	1.425790	0.559448	0.333470
C63	C	1.759123	0.892782	0.666804
C64	C	1.090430	0.330424	0.000138
C65	C	1.423763	0.663757	0.333471
C66	C	1.757097	0.997090	0.666804
C67	C	1.088822	0.413563	0.000138
C68	C	1.422155	0.746896	0.333471
C69	C	1.755488	1.080229	0.666805
C70	C	1.086795	0.517878	0.000141
C71	C	1.420129	0.851211	0.333474
C72	C	1.753462	1.184545	0.666807
C73	C	1.083191	0.703397	0.000095
C74	C	1.416524	1.036731	0.333428
C75	C	1.749858	1.370064	0.666762
C76	C	1.085187	0.601017	0.000141
C77	C	1.418520	0.934351	0.333474
C78	C	1.751854	1.267684	0.666808
N79	N	1.089611	-0.128019	0.254956
N80	N	1.422944	0.205314	0.588289
N81	N	1.756277	0.538647	0.921623
C82	C	1.089615	-0.128022	0.343954
C83	C	1.422948	0.205311	0.677287
C84	C	1.756281	0.538645	1.010620
C85	C	1.089623	-0.128017	0.455605
C86	C	1.422956	0.205317	0.788938
C87	C	1.756290	0.538650	1.122272
C88	C	1.089634	-0.128007	0.544596
C89	C	1.422968	0.205327	0.877929
C90	C	1.756301	0.538660	1.211262
C91	C	1.089644	-0.128002	0.656254
C92	C	1.422978	0.205331	0.989587
C93	C	1.756311	0.538665	1.322921
N94	N	1.089656	-0.127992	0.745245
N95	N	1.422989	0.205341	1.078578
N96	N	1.756322	0.538674	1.411911
