data_functionalizedCrystal
_audit_creation_method	'MofGen! by Chris Wilmer'
_symmetry_space_group_name_H-M	'P1'
_symmetry_Int_Tables_number	1
_symmetry_cell_setting	triclinic
loop_
_symmetry_equiv_pos_as_xyz
  x,y,z
_cell_length_a	12.837942
_cell_length_b	14.971486
_cell_length_c	14.048226
_cell_angle_alpha	90.001501
_cell_angle_beta	89.994377
_cell_angle_gamma	90.778465
loop_
_atom_site_label
_atom_site_type_symbol
_atom_site_fract_x
_atom_site_fract_y
_atom_site_fract_z
O1	O	0.135106	-1.198338	-0.079050
O2	O	0.151285	-0.939302	-0.079075
O3	O	-0.007715	-1.063076	-0.079057
O4	O	0.294105	-1.074564	-0.079068
O5	O	-0.007724	-1.063059	0.079264
O6	O	0.151275	-0.939284	0.079246
O7	O	0.135096	-1.198320	0.079272
Zn8	Zn	0.143184	-1.068800	0.104396
Zn9	Zn	0.143197	-1.068822	-0.104199
O10	O	0.294096	-1.074546	0.079254
C11	C	0.150556	-0.905907	0.000082
C12	C	0.148388	-0.806427	0.000072
C13	C	-0.046345	-1.059187	0.000103
C14	C	-0.161436	-1.047612	0.000100
C15	C	0.135824	-1.231715	0.000112
C16	C	0.137993	-1.331195	0.000116
C17	C	-0.402222	-1.186755	0.000094
C18	C	-0.510362	-1.175884	0.000091
C19	C	-0.485856	-1.015001	0.000085
C20	C	-0.377717	-1.025872	0.000088
C21	C	-0.335904	-1.111751	0.000093
C22	C	-0.227763	-1.122621	0.000103
C23	C	-0.203260	-0.961739	0.000090
C24	C	-0.311399	-0.950868	0.000087
C25	C	0.332726	-1.078436	0.000092
C26	C	0.447817	-1.090010	0.000088
N27	N	0.143175	-1.068791	0.246756
C28	C	0.241796	-0.757077	0.000070
C29	C	0.239752	-0.663606	0.000085
C30	C	0.144300	-0.619486	0.000094
C31	C	0.050885	-0.668842	0.000099
C32	C	0.052930	-0.762313	0.000091
C33	C	0.046630	-0.474021	0.000112
C34	C	0.044585	-0.380545	0.000118
C35	C	0.233453	-0.375314	0.000105
C36	C	0.235498	-0.468784	0.000098
C37	C	0.142082	-0.518135	0.000101
N38	N	0.143197	-1.068838	-0.246560
C39	C	0.072799	-1.123619	0.296583
C40	C	0.072799	-1.123625	0.396240
C41	C	0.143180	-1.068807	0.446070
C42	C	0.213559	-1.013972	0.396237
C43	C	0.213554	-1.013962	0.296581
C44	C	0.213567	-1.013998	0.603951
C45	C	0.213573	-1.014009	0.703614
C46	C	0.072811	-1.123662	0.703610
C47	C	0.072806	-1.123652	0.603954
C48	C	0.143187	-1.068818	0.554128
H49	H	-0.368178	-1.256681	0.000108
H50	H	0.270875	-0.969343	0.563386
H51	H	-0.345458	-0.880947	0.000079
O52	O	-0.581895	-1.256778	0.000103
H53	H	-0.534648	-1.318318	0.000116
O54	O	-0.530960	-0.922378	0.000067
H55	H	-0.504337	-0.885881	0.064590
H56	H	0.015502	-1.168294	0.563383
H57	H	-0.149251	-0.900666	0.000097
H58	H	0.270861	-0.969332	0.436814
O59	O	0.344749	-0.804663	0.000069
H60	H	0.409357	-0.754640	0.000083
O61	O	0.289451	-0.954826	0.242823
H62	H	0.370300	-0.973109	0.261920
H63	H	-0.193721	-1.192549	0.000111
H64	H	0.315815	-0.623429	0.000082
O65	O	-0.003110	-1.182800	0.757342
H66	H	0.008704	-1.173591	0.835011
H67	H	0.313223	-0.504704	0.000081
H68	H	0.270884	-0.969369	0.744180
H69	H	-0.026834	-0.632913	0.000120
O70	O	-0.054129	-0.527245	0.000115
H71	H	-0.057725	-0.569952	0.064646
H72	H	-0.023133	-0.802492	0.000092
O73	O	0.334213	-0.322095	0.000113
H74	H	0.316760	-0.249687	0.000133
H75	H	-0.033141	-0.344625	0.000127
O76	O	-0.003116	-1.182742	0.242838
H77	H	-0.052060	-1.220861	0.294232
O78	O	-0.003087	-1.182779	0.449985
H79	H	-0.052013	-1.220910	0.398593
