data_functionalizedCrystal
_audit_creation_method	'MofGen! by Chris Wilmer'
_symmetry_space_group_name_H-M	'P1'
_symmetry_Int_Tables_number	1
_symmetry_cell_setting	triclinic
loop_
_symmetry_equiv_pos_as_xyz
  x,y,z
_cell_length_a	13.339070
_cell_length_b	13.262402
_cell_length_c	17.766277
_cell_angle_alpha	105.908980
_cell_angle_beta	89.997794
_cell_angle_gamma	99.431904
loop_
_atom_site_label
_atom_site_type_symbol
_atom_site_fract_x
_atom_site_fract_y
_atom_site_fract_z
O1	O	0.136451	1.432352	0.230666
O2	O	0.151280	1.131101	0.168987
O3	O	-0.003544	1.247153	0.192750
O4	O	0.291275	1.316300	0.206903
O5	O	-0.003552	1.247122	0.317932
O6	O	0.151272	1.131070	0.294169
O7	O	0.136443	1.432322	0.355848
Cu8	Cu	0.143856	1.281693	0.336439
Cu9	Cu	0.143866	1.281729	0.188396
O10	O	0.291267	1.316270	0.332085
C11	C	0.150444	1.091741	0.223522
C12	C	0.147953	0.974503	0.199519
C13	C	0.146785	0.919440	0.120003
C14	C	0.144454	0.809291	0.097452
C15	C	0.143283	0.754192	0.154414
C16	C	0.144443	0.809254	0.233932
C17	C	0.146782	0.919416	0.256485
C18	C	0.143280	0.754168	0.290897
C19	C	0.144440	0.809230	0.370414
C20	C	0.146778	0.919380	0.392964
C21	C	0.147949	0.974479	0.336001
C22	C	0.140940	0.644007	0.268343
C23	C	0.140937	0.643982	0.404825
C24	C	0.143268	0.754132	0.427376
C25	C	-0.041287	1.235457	0.252948
C26	C	-0.153736	1.200640	0.245817
C27	C	-0.517385	1.471356	0.301244
C28	C	-0.411734	1.504071	0.307949
C29	C	-0.347229	1.428216	0.292417
C30	C	-0.388386	1.319640	0.270178
C31	C	-0.494047	1.286922	0.263478
C32	C	-0.323892	1.243782	0.254650
C33	C	-0.365048	1.135206	0.232412
C34	C	-0.470700	1.102493	0.225712
C35	C	-0.535204	1.178348	0.241245
C36	C	-0.218230	1.276501	0.261350
C37	C	-0.194893	1.092067	0.223584
C38	C	-0.300544	1.059352	0.216879
C39	C	0.329009	1.327966	0.271885
C40	C	0.441458	1.362782	0.279011
C41	C	0.137279	1.471682	0.301311
C42	C	0.139770	1.588919	0.325309
N43	N	0.143849	1.281675	0.440565
N44	N	0.143865	1.281753	0.084271
C45	C	0.075327	1.333096	0.490481
C46	C	0.075322	1.333100	0.569284
C47	C	0.143857	1.281700	0.598171
C48	C	0.212385	1.230267	0.548243
C49	C	0.212381	1.230255	0.469440
C50	C	0.236045	1.294794	0.725688
C51	C	0.236050	1.294814	0.804491
C52	C	0.143870	1.281731	0.841224
C53	C	0.051680	1.268650	0.799148
C54	C	0.051676	1.268638	0.720345
C55	C	0.143869	1.281707	0.683618
C56	C	0.075337	1.333159	0.976587
C57	C	0.075331	1.333156	1.055390
C58	C	0.212402	1.230330	1.034349
C59	C	0.212399	1.230326	0.955546
C60	C	0.143868	1.281746	0.926671
H61	H	0.143511	0.764467	0.032709
H62	H	0.147747	0.964312	0.073633
H63	H	-0.023383	1.257996	0.829053
H64	H	0.019522	1.374962	0.466973
C65	C	-0.588345	1.554783	0.318333
N66	N	-0.641794	1.617625	0.331206
C67	C	-0.000050	1.389683	0.624204
N68	N	-0.056817	1.432306	0.665569
C69	C	0.139655	0.583450	0.180876
N70	N	0.138682	0.537839	0.114990
H71	H	0.019531	1.375025	0.953076
C72	C	-0.231010	1.464207	0.299788
N73	N	-0.143470	1.491321	0.305337
H74	H	-0.504205	1.014084	0.207610
C75	C	0.287854	1.173855	0.900656
N76	N	0.344712	1.131349	0.859318
H77	H	0.311117	1.305472	0.838745
C78	C	0.337458	1.309187	0.685291
N79	N	0.413839	1.320027	0.654865
C80	C	0.139646	0.583379	0.467489
N81	N	0.138674	0.537725	0.514682
H82	H	-0.184731	1.364903	0.279457
H83	H	-0.378232	1.592473	0.326057
H84	H	-0.621235	1.151717	0.235784
C85	C	0.287769	1.173720	0.580019
N86	N	0.344548	1.131122	0.603951
H87	H	-0.023389	1.257984	0.686089
H88	H	0.019526	1.375025	1.096032
C89	C	0.148062	0.979947	0.480435
N90	N	0.149028	1.025563	0.546319
H91	H	0.141385	0.664504	0.136048
C92	C	-0.123942	1.008620	0.206494
N93	N	-0.070495	0.945774	0.193624
H94	H	-0.334069	0.970947	0.198772
C95	C	0.150463	1.095643	0.360802
N96	N	0.152338	1.186902	0.379479
C97	C	0.144584	0.814720	0.514845
N98	N	0.145589	0.860359	0.580728
H99	H	0.268201	1.188474	1.057867
C100	C	0.287808	1.173744	0.414542
N101	N	0.344638	1.131201	0.373196
