data_functionalizedCrystal
_audit_creation_method	'MofGen! by Chris Wilmer'
_symmetry_space_group_name_H-M	'P1'
_symmetry_Int_Tables_number	1
_symmetry_cell_setting	triclinic
loop_
_symmetry_equiv_pos_as_xyz
  x,y,z
_cell_length_a	17.640112
_cell_length_b	17.637651
_cell_length_c	17.640968
_cell_angle_alpha	109.665189
_cell_angle_beta	87.860920
_cell_angle_gamma	114.329102
loop_
_atom_site_label
_atom_site_type_symbol
_atom_site_fract_x
_atom_site_fract_y
_atom_site_fract_z
Zn1	Zn	1.242024	-0.024656	0.191252
Zn2	Zn	1.742024	0.475344	0.691252
Zn3	Zn	1.174933	-0.201700	0.036779
Zn4	Zn	1.674933	0.298300	0.536779
Zn5	Zn	1.076328	-0.080477	0.081230
Zn6	Zn	1.576328	0.419523	0.581230
Zn7	Zn	1.076310	-0.190404	0.191115
Zn8	Zn	1.576310	0.309596	0.691115
O9	O	1.142399	-0.124309	0.125094
O10	O	1.642399	0.375691	0.625094
O11	O	1.343742	-0.029508	0.152215
O12	O	1.843742	0.470492	0.652215
O13	O	1.133782	-0.213708	-0.067959
O14	O	1.633782	0.286292	0.432041
O15	O	1.126393	0.047027	0.114485
O16	O	1.626393	0.547027	0.614485
O17	O	1.294451	-0.159581	0.038724
O18	O	1.794451	0.340419	0.538724
O19	O	1.248129	0.088038	0.195317
O20	O	1.748129	0.588038	0.695317
O21	O	1.061337	-0.124646	-0.035301
O22	O	1.561337	0.375354	0.464699
O23	O	0.965707	-0.113693	0.114352
O24	O	1.465707	0.386307	0.614352
O25	O	1.126363	-0.140329	0.301768
O26	O	1.626363	0.359671	0.801768
O27	O	0.965694	-0.194456	0.195084
O28	O	1.465694	0.305544	0.695084
O29	O	1.248112	-0.018555	0.301868
O30	O	1.748112	0.481445	0.801868
O31	O	1.133765	-0.320300	0.038592
O32	O	1.633765	0.179700	0.538592
O33	O	1.061308	-0.312001	0.151982
O34	O	1.561308	0.187999	0.651982
C35	C	0.937018	-0.158906	0.159527
C36	C	1.437018	0.341094	0.659527
C37	C	0.849156	-0.173723	0.174274
C38	C	1.349156	0.326277	0.674274
C39	C	0.560301	-0.011732	0.013076
C40	C	1.060301	0.488268	0.513076
C41	C	0.477739	-0.025669	0.026941
C42	C	0.977739	0.474331	0.526941
C43	C	0.477701	-0.109964	0.110809
C44	C	0.977701	0.390036	0.610809
C45	C	0.560265	-0.096030	0.096955
C46	C	1.060265	0.403970	0.596955
C47	C	0.601559	-0.046914	0.048087
C48	C	1.101559	0.453086	0.548087
C49	C	0.601523	-0.131212	0.131966
C50	C	1.101523	0.368788	0.631966
C51	C	0.684079	-0.117283	0.118109
C52	C	1.184079	0.382717	0.618109
C53	C	0.725377	-0.068172	0.069241
C54	C	1.225377	0.431828	0.569241
C55	C	0.684115	-0.032985	0.034230
C56	C	1.184115	0.467015	0.534230
C57	C	0.560226	-0.180333	0.180828
C58	C	1.060226	0.319667	0.680828
C59	C	0.601484	-0.215515	0.215839
C60	C	1.101484	0.284485	0.715839
C61	C	0.684044	-0.201581	0.201987
C62	C	1.184044	0.298419	0.701987
C63	C	0.725342	-0.152470	0.153120
C64	C	1.225342	0.347530	0.653120
C65	C	0.725307	-0.236767	0.236998
C66	C	1.225307	0.263233	0.736998
C67	C	0.807862	-0.222838	0.223142
C68	C	1.307862	0.277162	0.723142
C69	C	0.807898	-0.138541	0.139263
C70	C	1.307898	0.361459	0.639263
C71	C	1.090280	-0.347283	0.090462
C72	C	1.590280	0.152717	0.590462
C73	C	1.068063	-0.442653	0.075661
C74	C	1.568063	0.057347	0.575661
C75	C	1.311759	-0.649227	0.237701
C76	C	1.811759	-0.149227	0.737701
C77	C	1.290854	-0.738850	0.223783
C78	C	1.790854	-0.238850	0.723783
C79	C	1.164132	-0.781675	0.139504
C80	C	1.664132	-0.281675	0.639504
C81	C	1.185029	-0.692055	0.153411
C82	C	1.685029	-0.192055	0.653411
C83	C	1.258843	-0.625837	0.202511
C84	C	1.758843	-0.125837	0.702511
C85	C	1.132113	-0.668665	0.118221
C86	C	1.632113	-0.168665	0.618221
C87	C	1.153006	-0.579052	0.132131
C88	C	1.653006	-0.079052	0.632131
C89	C	1.226815	-0.512829	0.181231
C90	C	1.726815	-0.012829	0.681231
C91	C	1.279736	-0.536224	0.216421
C92	C	1.779736	-0.036224	0.716421
C93	C	1.058296	-0.734884	0.069126
C94	C	1.558296	-0.234884	0.569126
C95	C	1.005380	-0.711494	0.033936
C96	C	1.505380	-0.211494	0.533936
C97	C	1.026276	-0.621879	0.047841
C98	C	1.526276	-0.121879	0.547841
C99	C	1.100085	-0.555657	0.096941
C100	C	1.600085	-0.055657	0.596941
C101	C	0.973355	-0.598484	0.012651
C102	C	1.473355	-0.098484	0.512651
C103	C	0.994249	-0.508871	0.026561
C104	C	1.494249	-0.008871	0.526561
C105	C	1.120979	-0.466044	0.110851
C106	C	1.620979	0.033956	0.610851
C107	C	1.348581	-0.089578	0.090526
C108	C	1.848581	0.410422	0.590526
C109	C	1.436443	-0.074777	0.075796
C110	C	1.936443	0.425223	0.575796
C111	C	1.194719	-0.071955	0.331306
C112	C	1.694719	0.428045	0.831306
C113	C	1.217015	-0.049645	0.419181
C114	C	1.717015	0.450355	0.919181
C115	C	1.194746	0.099543	0.159875
C116	C	1.694746	0.599543	0.659875
C117	C	1.217054	0.194936	0.174696
C118	C	1.717054	0.694936	0.674696
C119	C	1.090341	-0.176390	-0.080314
C120	C	1.590341	0.323610	0.419686
C121	C	1.068255	-0.198433	-0.168177
C122	C	1.568255	0.301567	0.331823
C123	C	0.973431	-0.293279	0.707925
C124	C	1.473431	0.206721	1.207925
C125	C	0.994401	-0.272302	0.790496
C126	C	1.494401	0.227698	1.290496
C127	C	1.121167	-0.145509	0.790590
C128	C	1.621167	0.354491	1.290590
C129	C	1.100206	-0.166473	0.708018
C130	C	1.600206	0.333527	1.208018
C131	C	1.026337	-0.240360	0.666692
C132	C	1.526337	0.259640	1.166692
C133	C	1.153113	-0.113554	0.666785
C134	C	1.653113	0.386446	1.166785
C135	C	1.132155	-0.134520	0.584219
C136	C	1.632155	0.365480	1.084219
C137	C	1.058291	-0.208405	0.542887
C138	C	1.558291	0.291595	1.042887
C139	C	1.005380	-0.261326	0.584126
C140	C	1.505380	0.238674	1.084126
C141	C	1.226984	-0.039671	0.708111
C142	C	1.726984	0.460329	1.208111
C143	C	1.279890	0.013248	0.666878
C144	C	1.779890	0.513248	1.166878
C145	C	1.258930	-0.007714	0.584313
C146	C	1.758930	0.492286	1.084313
C147	C	1.185066	-0.081599	0.542980
C148	C	1.685066	0.418401	1.042980
C149	C	1.311841	0.045208	0.543073
C150	C	1.811841	0.545208	1.043073
C151	C	1.290884	0.024242	0.460508
C152	C	1.790884	0.524242	0.960508
C153	C	1.164109	-0.102564	0.460414
C154	C	1.664109	0.397436	0.960414
H155	H	0.567851	-0.255508	0.255625
H156	H	1.067851	0.244492	0.755625
H157	H	0.913266	-0.353428	0.674281
H158	H	1.413266	0.146572	1.174281
H159	H	1.181313	-0.085352	0.824248
H160	H	1.681313	0.414648	1.324248
F161	F	1.390327	-0.578748	0.289949
F162	F	1.890327	-0.078748	0.789949
F163	F	0.681343	-0.289055	0.288990
F164	F	1.181343	0.210945	0.788990
H165	H	0.951312	-0.315401	0.824065
H166	H	1.451312	0.184599	1.324065
H167	H	0.841456	-0.251486	0.251652
H168	H	1.341456	0.248514	0.751652
F169	F	1.248905	-0.417438	0.196264
F170	F	1.748905	0.082562	0.696264
F171	F	1.199547	-0.395565	0.163099
F172	F	1.699547	0.104435	0.663099
H173	H	1.339847	-0.482306	0.256396
H174	H	1.839847	0.017694	0.756396
H175	H	1.041231	-0.225476	0.475655
H176	H	1.541231	0.274524	0.975655
H177	H	0.913252	-0.652411	-0.027320
H178	H	1.413252	-0.152411	0.472680
F179	F	1.347183	-0.763738	0.261237
F180	F	1.847183	-0.263738	0.761237
H181	H	1.103943	-0.162713	0.426770
H182	H	1.603943	0.337287	0.926770
F183	F	1.085573	-0.852157	0.087256
F184	F	1.585573	-0.352157	0.587256
H185	H	1.244046	-0.022605	0.775341
H186	H	1.744046	0.477395	1.275341
F187	F	0.926755	-0.339959	0.540141
F188	F	1.426755	0.160041	1.040141
F189	F	0.433830	0.011774	-0.010332
F190	F	0.933830	0.511774	0.489668
F191	F	0.937931	-0.483976	-0.010894
F192	F	1.437931	0.016024	0.489106
F193	F	1.358506	0.091879	0.710869
F194	F	1.858506	0.591879	1.210869
H195	H	1.041282	-0.807851	0.057811
H196	H	1.541282	-0.307851	0.557811
H197	H	1.371989	0.105361	0.576732
H198	H	1.871989	0.605361	1.076732
F199	F	1.347194	0.080562	0.416621
F200	F	1.847194	0.580562	0.916621
H201	H	0.841527	-0.098530	0.099484
H202	H	1.341527	0.401470	0.599484
F203	F	0.926821	-0.781975	-0.018312
F204	F	1.426821	-0.281975	0.481688
H205	H	0.717744	0.007025	-0.005549
H206	H	1.217744	0.507025	0.494451
F207	F	0.604255	0.040549	-0.038929
F208	F	1.104255	0.540549	0.461071
F209	F	0.433741	-0.162245	0.162807
F210	F	0.933741	0.337755	0.662807
F211	F	0.813240	-0.053352	0.054489
F212	F	1.313240	0.446648	0.554489
H213	H	0.493004	-0.191672	0.192109
H214	H	0.993004	0.308328	0.692109
