data_functionalizedCrystal
_audit_creation_method	'MofGen! by Chris Wilmer'
_symmetry_space_group_name_H-M	'P1'
_symmetry_Int_Tables_number	1
_symmetry_cell_setting	triclinic
loop_
_symmetry_equiv_pos_as_xyz
  x,y,z
_cell_length_a	16.959455
_cell_length_b	16.959453
_cell_length_c	18.215399
_cell_angle_alpha	89.971557
_cell_angle_beta	89.975868
_cell_angle_gamma	90.017008
loop_
_atom_site_label
_atom_site_type_symbol
_atom_site_fract_x
_atom_site_fract_y
_atom_site_fract_z
Zn1	Zn	1.208414	-0.314749	-0.416209
Zn2	Zn	1.708414	0.185251	0.083791
Zn3	Zn	1.208328	-0.446936	-0.293143
Zn4	Zn	1.708328	0.053064	0.206857
Zn5	Zn	1.076233	-0.314768	-0.293146
Zn6	Zn	1.576233	0.185232	0.206854
Zn7	Zn	1.076207	-0.446883	-0.416158
Zn8	Zn	1.576207	0.053117	0.083842
O9	O	1.142295	-0.380834	-0.354664
O10	O	1.642295	0.119166	0.145336
O11	O	1.319013	-0.332298	-0.399905
O12	O	1.819013	0.167702	0.100095
O13	O	1.190780	-0.429433	-0.190159
O14	O	1.690780	0.070567	0.309841
O15	O	1.093814	-0.204155	-0.309494
O16	O	1.593814	0.295845	0.190506
O17	O	1.318950	-0.429415	-0.309488
O18	O	1.818950	0.070585	0.190512
O19	O	1.190927	-0.204141	-0.399908
O20	O	1.690927	0.295859	0.100092
O21	O	1.093731	-0.332330	-0.190162
O22	O	1.593731	0.167670	0.309838
O23	O	0.965619	-0.332279	-0.309444
O24	O	1.465619	0.167721	0.190556
O25	O	1.093769	-0.429325	-0.519149
O26	O	1.593769	0.070675	-0.019149
O27	O	0.965600	-0.429343	-0.399820
O28	O	1.465600	0.070657	0.100180
O29	O	1.190901	-0.332247	-0.519187
O30	O	1.690901	0.167753	-0.019187
O31	O	1.190754	-0.557539	-0.309438
O32	O	1.690754	-0.057539	0.190562
O33	O	1.093686	-0.557501	-0.399816
O34	O	1.593686	-0.057501	0.100184
C35	C	0.936929	-0.380808	-0.354627
C36	C	1.436929	0.119192	0.145373
C37	C	0.849073	-0.380816	-0.354629
C38	C	1.349073	0.119184	0.145371
C39	C	0.477553	-0.431353	-0.307560
C40	C	0.977553	0.068647	0.192440
C41	C	0.477641	-0.330381	-0.401857
C42	C	0.977641	0.169619	0.098143
C43	C	0.560186	-0.330368	-0.401840
C44	C	1.060186	0.169632	0.098160
C45	C	0.601420	-0.380849	-0.354682
C46	C	1.101420	0.119151	0.145318
C47	C	0.560107	-0.431343	-0.307542
C48	C	1.060107	0.068657	0.192458
C49	C	0.601505	-0.279881	-0.448984
C50	C	1.101505	0.220119	0.051016
C51	C	0.684056	-0.279866	-0.448968
C52	C	1.184056	0.220134	0.051032
C53	C	0.725291	-0.330344	-0.401806
C54	C	1.225291	0.169656	0.098194
C55	C	0.683973	-0.380839	-0.354664
C56	C	1.183973	0.119161	0.145336
C57	C	0.725206	-0.431320	-0.307507
C58	C	1.225206	0.068680	0.192493
C59	C	0.683890	-0.481812	-0.260360
C60	C	1.183890	0.018188	0.239640
C61	C	0.601342	-0.481820	-0.260381
C62	C	1.101342	0.018180	0.239619
C63	C	0.807839	-0.330335	-0.401786
C64	C	1.307839	0.169665	0.098214
C65	C	0.807760	-0.431310	-0.307489
C66	C	1.307760	0.068690	0.192511
C67	C	1.142229	-0.586200	-0.354637
C68	C	1.642229	-0.086200	0.145363
C69	C	1.142274	-0.674057	-0.354650
C70	C	1.642274	-0.174057	0.145350
C71	C	1.192926	-1.045467	-0.401831
C72	C	1.692926	-0.545467	0.098169
C73	C	1.091885	-1.045598	-0.307606
C74	C	1.591885	-0.545598	0.192394
C75	C	1.091856	-0.963052	-0.307589
C76	C	1.591856	-0.463052	0.192411
C77	C	1.142362	-0.921710	-0.354695
C78	C	1.642362	-0.421710	0.145305
C79	C	1.192897	-0.962913	-0.401817
C80	C	1.692897	-0.462913	0.098183
C81	C	1.041316	-0.921843	-0.260473
C82	C	1.541316	-0.421843	0.239527
C83	C	1.041284	-0.839292	-0.260454
C84	C	1.541284	-0.339292	0.239546
C85	C	1.091794	-0.797948	-0.307557
C86	C	1.591794	-0.297948	0.192443
C87	C	1.142332	-0.839156	-0.354681
C88	C	1.642332	-0.339156	0.145319
C89	C	1.192838	-0.797814	-0.401787
C90	C	1.692838	-0.297814	0.098213
C91	C	1.243381	-0.839021	-0.448907
C92	C	1.743381	-0.339021	0.051093
C93	C	1.243408	-0.921569	-0.448920
C94	C	1.743408	-0.421569	0.051080
C95	C	1.091768	-0.715399	-0.307544
C96	C	1.591768	-0.215399	0.192456
C97	C	1.192809	-0.715260	-0.401773
C98	C	1.692809	-0.215260	0.098227
C99	C	1.348464	-0.380860	-0.354702
C100	C	1.848464	0.119140	0.145298
C101	C	1.436320	-0.380872	-0.354718
C102	C	1.936320	0.119128	0.145282
C103	C	1.142342	-0.380778	-0.546617
C104	C	1.642342	0.119222	-0.046617
C105	C	1.142362	-0.380754	-0.628416
C106	C	1.642362	0.119246	-0.128416
C107	C	1.142383	-0.174666	-0.354707
C108	C	1.642383	0.325334	0.145293
C109	C	1.142420	-0.086809	-0.354726
C110	C	1.642420	0.413191	0.145274
C111	C	1.192967	-0.330137	-0.893495
C112	C	1.692967	0.169863	-0.393495
C113	C	1.192958	-0.330159	-0.816636
C114	C	1.692958	0.169841	-0.316636
C115	C	1.091820	-0.431256	-0.816586
C116	C	1.591820	0.068744	-0.316586
C117	C	1.091834	-0.431238	-0.893443
C118	C	1.591834	0.068762	-0.393443
C119	C	1.142406	-0.380674	-0.931896
C120	C	1.642406	0.119326	-0.431896
C121	C	1.142383	-0.380714	-0.778180
C122	C	1.642383	0.119286	-0.278180
C123	C	1.142373	-0.380737	-0.694846
C124	C	1.642373	0.119263	-0.194846
C125	C	1.142418	-0.380652	-1.015235
C126	C	1.642418	0.119348	-0.515235
C127	C	1.142295	-0.380833	-0.163458
C128	C	1.642295	0.119167	0.336542
C129	C	1.142428	-0.380634	-0.081659
C130	C	1.642428	0.119366	0.418341
H131	H	0.717689	-0.238752	-0.487357
H132	H	1.217689	0.261248	0.012643
O133	O	1.037263	-0.485779	-0.775114
O134	O	1.537263	0.014221	-0.275114
H135	H	1.072611	-0.526004	-0.740087
H136	H	1.572611	-0.026004	-0.240087
O137	O	1.037291	-0.485746	-0.934864
O138	O	1.537291	0.014254	-0.434864
H139	H	1.072660	-0.525960	-0.969874
H140	H	1.572660	-0.025960	-0.469874
H141	H	1.284556	-0.955127	-0.487284
H142	H	1.784556	-0.455127	0.012716
O143	O	1.247518	-0.275612	-0.934972
O144	O	1.747518	0.224388	-0.434972
H145	H	1.282681	-0.240481	-0.895354
H146	H	1.782681	0.259519	-0.395354
O147	O	0.852229	-0.485754	-0.256619
O148	O	1.352229	0.014246	0.243381
H149	H	0.889859	-0.526010	-0.289478
H150	H	1.389859	-0.026010	0.210522
H151	H	0.717473	-0.522917	-0.221969
H152	H	1.217473	-0.022917	0.278031
H153	H	0.841475	-0.289227	-0.440173
H154	H	1.341475	0.210773	0.059827
H155	H	1.234130	-0.289007	-0.785373
H156	H	1.734130	0.210993	-0.285373
H157	H	0.567695	-0.522928	-0.221996
H158	H	1.067695	-0.022928	0.278004
H159	H	0.443910	-0.472460	-0.269173
H160	H	0.943910	0.027540	0.230827
H161	H	0.444063	-0.289286	-0.440255
H162	H	0.944063	0.210714	0.059745
H163	H	0.567927	-0.238787	-0.487381
H164	H	1.067927	0.261213	0.012619
H165	H	1.284500	-0.805350	-0.487265
H166	H	1.784500	-0.305350	0.012735
O167	O	1.247296	-0.670674	-0.452573
O168	O	1.747296	-0.170674	0.047427
H169	H	1.233715	-0.686480	-0.510324
H170	H	1.733715	-0.186480	-0.010324
O171	O	1.247432	-1.089902	-0.452661
O172	O	1.747432	-0.589902	0.047339
H173	H	1.238966	-1.154250	-0.444765
H174	H	1.738966	-0.654250	0.055235
H175	H	1.050762	-1.079264	-0.269258
H176	H	1.550762	-0.579264	0.230742
O177	O	0.986857	-0.966429	-0.209655
O178	O	1.486857	-0.466429	0.290345
H179	H	0.995382	-1.030753	-0.217571
H180	H	1.495382	-0.530753	0.282429
H181	H	1.050613	-0.681852	-0.269183
H182	H	1.550613	-0.181852	0.230817
O183	O	0.986787	-0.794848	-0.209623
O184	O	1.486787	-0.294848	0.290377
H185	H	0.951679	-0.837465	-0.176865
H186	H	1.451679	-0.337465	0.323135
