data_functionalizedCrystal
_audit_creation_method	'MofGen! by Chris Wilmer'
_symmetry_space_group_name_H-M	'P1'
_symmetry_Int_Tables_number	1
_symmetry_cell_setting	triclinic
loop_
_symmetry_equiv_pos_as_xyz
  x,y,z
_cell_length_a	14.908571
_cell_length_b	12.759400
_cell_length_c	14.908858
_cell_angle_alpha	86.673995
_cell_angle_beta	89.795097
_cell_angle_gamma	86.710990
loop_
_atom_site_label
_atom_site_type_symbol
_atom_site_fract_x
_atom_site_fract_y
_atom_site_fract_z
Zn1	Zn	1.345360	-0.469297	-0.587610
Zn2	Zn	1.845360	0.030703	-0.087610
Zn3	Zn	1.353950	-0.655687	-0.437252
Zn4	Zn	1.853950	-0.155687	0.062748
Zn5	Zn	1.203669	-0.470490	-0.428604
Zn6	Zn	1.703669	0.029510	0.071396
Zn7	Zn	1.194982	-0.635398	-0.578907
Zn8	Zn	1.694982	-0.135398	-0.078907
O9	O	1.274490	-0.557718	-0.508093
O10	O	1.774490	-0.057718	-0.008093
O11	O	1.472327	-0.502013	-0.574927
O12	O	1.972327	-0.002013	-0.074927
O13	O	1.341245	-0.640111	-0.310278
O14	O	1.841245	-0.140111	0.189722
O15	O	1.222505	-0.323312	-0.449720
O16	O	1.722505	0.176688	0.050280
O17	O	1.478637	-0.638954	-0.464459
O18	O	1.978637	-0.138954	0.035541
O19	O	1.326605	-0.322435	-0.566541
O20	O	1.826605	0.177565	-0.066541
O21	O	1.230834	-0.504047	-0.303924
O22	O	1.730834	-0.004047	0.196076
O23	O	1.076689	-0.484374	-0.441280
O24	O	1.576689	0.015626	0.058720
O25	O	1.207700	-0.604374	-0.705889
O26	O	1.707700	-0.104374	-0.205889
O27	O	1.070307	-0.605531	-0.551707
O28	O	1.570307	-0.105531	-0.051707
O29	O	1.318182	-0.482340	-0.712283
O30	O	1.818182	0.017660	-0.212283
O31	O	1.332822	-0.800016	-0.456020
O32	O	1.832822	-0.300016	0.043980
O33	O	1.216029	-0.785109	-0.560093
O34	O	1.716029	-0.285109	-0.060093
C35	C	1.040873	-0.542881	-0.494611
C36	C	1.540873	-0.042881	0.005389
C37	C	0.940929	-0.536558	-0.488865
C38	C	1.440929	-0.036558	0.011135
C39	C	1.274438	-0.830683	-0.508072
C40	C	1.774438	-0.330683	-0.008072
C41	C	1.274496	-0.947462	-0.508097
C42	C	1.774496	-0.447462	-0.008097
C43	C	0.746536	-0.651056	-0.592900
C44	C	1.246536	-0.151056	-0.092900
C45	C	0.652629	-0.645117	-0.587504
C46	C	1.152629	-0.145117	-0.087504
C47	C	0.659208	-0.518737	-0.472682
C48	C	1.159208	-0.018737	0.027318
C49	C	0.753114	-0.524676	-0.478078
C50	C	1.253114	-0.024676	0.021922
C51	C	0.796775	-0.590838	-0.538188
C52	C	1.296775	-0.090838	-0.038188
C53	C	0.890683	-0.596782	-0.543579
C54	C	1.390683	-0.096782	-0.043579
C55	C	0.897260	-0.470397	-0.428762
C56	C	1.397260	0.029603	0.071238
C57	C	0.803354	-0.464458	-0.423366
C58	C	1.303354	0.035542	0.076634
C59	C	1.335370	-1.010051	-0.453973
C60	C	1.835370	-0.510051	0.046027
C61	C	1.335424	-1.119776	-0.454004
C62	C	1.835424	-0.619776	0.045996
C63	C	1.213721	-1.104315	-0.562284
C64	C	1.713721	-0.604315	-0.062284
C65	C	1.213672	-0.994591	-0.562258
C66	C	1.713672	-0.494591	-0.062258
C67	C	1.396194	-0.962922	-0.399813
C68	C	1.896194	-0.462922	0.100187
C69	C	1.457072	-1.025511	-0.345684
C70	C	1.957072	-0.525511	0.154316
C71	C	1.457126	-1.135236	-0.345715
C72	C	1.957126	-0.635236	0.154285
C73	C	1.396301	-1.182373	-0.399875
C74	C	1.896301	-0.682373	0.100125
C75	C	1.509020	-0.572614	-0.521628
C76	C	2.009020	-0.072614	-0.021628
C77	C	1.608962	-0.578961	-0.527396
C78	C	2.108962	-0.078961	-0.027396
C79	C	1.261014	-0.540961	-0.742624
C80	C	1.761014	-0.040961	-0.242624
C81	C	1.255271	-0.533820	-0.842567
C82	C	1.755271	-0.033820	-0.342567
C83	C	1.274566	-0.283687	-0.508136
C84	C	1.774566	0.216313	-0.008136
C85	C	1.274598	-0.166911	-0.508155
C86	C	1.774598	0.333089	-0.008155
C87	C	1.189698	-0.452917	-0.980123
C88	C	1.689698	0.047083	-0.480123
C89	C	1.195090	-0.459624	-0.886218
C90	C	1.695090	0.040376	-0.386218
C91	C	1.310064	-0.601311	-0.892828
C92	C	1.810064	-0.101311	-0.392828
C93	C	1.304672	-0.594603	-0.986734
C94	C	1.804672	-0.094603	-0.486734
C95	C	1.244486	-0.520405	-1.030378
C96	C	1.744486	-0.020405	-0.530378
C97	C	1.239089	-0.513703	-1.124285
C98	C	1.739089	-0.013703	-0.624285
C99	C	1.354067	-0.655384	-1.130893
C100	C	1.854067	-0.155384	-0.630893
C101	C	1.359460	-0.662091	-1.036988
C102	C	1.859460	-0.162091	-0.536988
C103	C	1.287966	-0.574338	-0.274478
C104	C	1.787966	-0.074338	0.225522
C105	C	1.293883	-0.581194	-0.174546
C106	C	1.793883	-0.081194	0.325454
H107	H	0.926230	-0.650657	-0.592522
H108	H	1.426230	-0.150657	-0.092522
H109	H	1.396155	-0.873579	-0.399779
H110	H	1.896155	-0.373579	0.100221
C111	C	0.597369	-0.711369	-0.647686
C112	C	1.097369	-0.211369	-0.147686
N113	N	0.555748	-0.761274	-0.693015
N114	N	1.055748	-0.261274	-0.193015
H115	H	1.140688	-0.392505	-1.015659
H116	H	1.640688	0.107495	-0.515659
C117	C	0.952531	-0.404157	-0.368572
C118	C	1.452531	0.095843	0.131428
N119	N	0.994162	-0.354270	-0.323236
N120	N	1.494162	0.145730	0.176764
H121	H	1.506702	-1.186194	-0.301648
H122	H	2.006702	-0.686194	0.198352
H123	H	1.150478	-0.404666	-0.845304
H124	H	1.650478	0.095334	-0.345304
H125	H	1.398684	-0.710333	-1.171821
H126	H	1.898684	-0.210333	-0.671821
H127	H	1.359071	-0.661712	-0.857277
H128	H	1.859071	-0.161712	-0.357277
C129	C	0.794564	-0.723838	-0.659017
C130	C	1.294564	-0.223838	-0.159017
N131	N	0.830738	-0.778658	-0.708819
N132	N	1.330738	-0.278658	-0.208819
H133	H	0.623643	-0.464864	-0.423749
H134	H	1.123643	0.035136	0.076251
C135	C	1.523978	-0.973658	-0.286114
C136	C	2.023978	-0.473658	0.213886
N137	N	1.574372	-0.934604	-0.241244
N138	N	2.074372	-0.434604	0.258756
H139	H	1.408464	-0.722498	-1.001440
H140	H	1.908464	-0.222498	-0.501440
C141	C	0.755316	-0.391683	-0.357249
C142	C	1.255316	0.108317	0.142751
N143	N	0.719136	-0.336870	-0.307446
N144	N	1.219136	0.163130	0.192554
H145	H	1.396356	-1.271719	-0.399903
H146	H	1.896356	-0.771719	0.100097
C147	C	1.146810	-1.156170	-0.621847
C148	C	1.646810	-0.656170	-0.121847
N149	N	1.096408	-1.195227	-0.666706
N150	N	1.596408	-0.695227	-0.166706
C151	C	1.146695	-0.925740	-0.621782
C152	C	1.646695	-0.425740	-0.121782
N153	N	1.096243	-0.873881	-0.666615
N154	N	1.596243	-0.373881	-0.166615
H155	H	1.190082	-0.453287	-1.159818
H156	H	1.690082	0.046713	-0.659818
