data_functionalizedCrystal
_audit_creation_method	'MofGen! by Chris Wilmer'
_symmetry_space_group_name_H-M	'P1'
_symmetry_Int_Tables_number	1
_symmetry_cell_setting	triclinic
loop_
_symmetry_equiv_pos_as_xyz
  x,y,z
_cell_length_a	12.837943
_cell_length_b	19.188930
_cell_length_c	11.892095
_cell_angle_alpha	93.870839
_cell_angle_beta	85.689438
_cell_angle_gamma	88.986861
loop_
_atom_site_label
_atom_site_type_symbol
_atom_site_fract_x
_atom_site_fract_y
_atom_site_fract_z
O1	O	1.381278	0.177430	-0.094009
O2	O	1.079513	0.168466	-0.094014
O3	O	1.239102	0.071891	-0.093990
O4	O	1.221689	0.274006	-0.094034
O5	O	1.225796	0.079929	0.094016
O6	O	1.066207	0.176505	0.093991
O7	O	1.367972	0.185469	0.093996
Zn8	Zn	1.214977	0.182263	0.123844
Zn9	Zn	1.232508	0.171672	-0.123862
O10	O	1.208383	0.282044	0.093971
C11	C	1.034253	0.169458	-0.000012
C12	C	0.919217	0.160427	-0.000013
C13	C	0.677767	0.268994	-0.000021
C14	C	0.569680	0.260512	-0.000021
C15	C	0.594952	0.134982	-0.000005
C16	C	0.703040	0.143464	-0.000005
C17	C	0.744443	0.210472	-0.000015
C18	C	0.852533	0.218953	-0.000023
C19	C	0.877803	0.093423	0.000001
C20	C	0.769716	0.084941	0.000001
C21	C	1.231885	0.049861	0.000016
C22	C	1.230191	-0.027760	0.000026
C23	C	1.323833	-0.066260	0.000033
C24	C	1.322244	-0.139194	0.000015
C25	C	1.227006	-0.173623	0.000012
C26	C	1.133352	-0.135114	-0.000001
C27	C	1.134944	-0.062182	0.000006
N28	N	1.149679	-0.283886	0.063993
N29	N	1.148172	-0.353168	0.063989
C30	C	1.222201	-0.393362	-0.000010
N31	N	1.297809	-0.361657	-0.063992
N32	N	1.299318	-0.292369	-0.063982
C33	C	1.225268	-0.252705	0.000004
C34	C	1.314126	-0.510946	-0.000025
C35	C	1.312534	-0.583882	-0.000050
C36	C	1.123638	-0.579799	-0.000054
C37	C	1.125234	-0.506866	-0.000041
C38	C	1.220481	-0.472444	-0.000020
C39	C	1.413232	0.184477	-0.000009
C40	C	1.528268	0.193508	-0.000015
C41	C	1.215600	0.304074	-0.000037
C42	C	1.217294	0.381694	-0.000054
N43	N	1.203020	0.189491	0.292896
N44	N	1.244474	0.164439	-0.292914
C45	C	1.327677	0.114101	0.529563
C46	C	1.319327	0.119160	0.647904
C47	C	1.177964	0.204661	0.647920
C48	C	1.186314	0.199603	0.529579
C49	C	1.261175	0.154323	0.470405
C50	C	1.269529	0.149269	0.352062
C51	C	1.128162	0.234767	0.352080
C52	C	1.119812	0.239825	0.470421
H53	H	0.561216	0.080430	0.000095
N54	N	0.897199	0.291221	-0.000024
H55	H	0.946411	0.294563	-0.069719
H56	H	0.838497	0.326966	0.000019
H57	H	1.330487	0.112401	0.303884
H58	H	0.735989	0.030385	0.000021
N59	N	0.722434	0.341261	-0.000049
H60	H	0.663793	0.377049	-0.000060
H61	H	0.761799	0.350497	0.069645
N62	N	1.024236	-0.465330	-0.000035
H63	H	0.987599	-0.480101	-0.069729
H64	H	0.977816	-0.474173	0.069704
N65	N	0.949720	0.030300	0.000024
H66	H	0.907085	-0.013434	0.000032
H67	H	1.000049	0.028104	-0.069671
H68	H	1.401391	-0.038239	0.000046
N69	N	1.408424	0.065275	0.465730
H70	H	1.449291	0.040564	0.521165
H71	H	1.372361	0.029663	0.416643
H72	H	1.398501	-0.170548	0.000016
H73	H	1.055808	-0.163150	-0.000005
N74	N	0.497760	0.323633	0.000016
H75	H	0.540393	0.367368	0.000024
H76	H	0.457276	0.319888	-0.069667
N77	N	1.391062	0.075785	0.711713
H78	H	1.439753	0.046336	0.656265
H79	H	1.433285	0.107676	0.760790
H80	H	1.058687	-0.030834	0.000001
N81	N	1.413540	-0.625409	-0.000033
H82	H	1.398081	-0.676835	-0.000046
H83	H	1.460002	-0.616521	-0.069720
N84	N	1.056429	0.278144	0.288261
H85	H	0.981464	0.266067	0.308872
H86	H	1.066772	0.329347	0.308867
N87	N	1.097215	0.253487	0.711752
H88	H	1.102016	0.250583	0.795697
H89	H	1.110415	0.302923	0.691067
N90	N	1.416850	-0.473813	-0.000008
H91	H	1.475934	-0.509274	-0.000015
H92	H	1.426557	-0.446610	-0.069697
H93	H	1.046093	-0.607831	-0.000062
N94	N	1.039068	0.288657	0.534247
H95	H	1.043866	0.285758	0.618193
H96	H	1.052278	0.338090	0.513552
