data_functionalizedCrystal
_audit_creation_method	'MofGen! by Chris Wilmer'
_symmetry_space_group_name_H-M	'P1'
_symmetry_Int_Tables_number	1
_symmetry_cell_setting	triclinic
loop_
_symmetry_equiv_pos_as_xyz
  x,y,z
_cell_length_a	13.339070
_cell_length_b	9.482900
_cell_length_c	11.026607
_cell_angle_alpha	101.400185
_cell_angle_beta	112.107656
_cell_angle_gamma	78.145528
loop_
_atom_site_label
_atom_site_type_symbol
_atom_site_fract_x
_atom_site_fract_y
_atom_site_fract_z
O1	O	1.473423	-0.120937	0.633515
O2	O	1.163403	-0.120930	0.548448
O3	O	1.292718	-0.120927	0.405678
O4	O	1.344108	-0.120939	0.776285
O5	O	1.266481	0.120865	0.434839
O6	O	1.137166	0.120862	0.577609
O7	O	1.447185	0.120855	0.662676
Cu8	Cu	1.289780	0.142936	0.622806
Cu9	Cu	1.320809	-0.143011	0.588319
O10	O	1.317870	0.120853	0.805447
C11	C	1.109978	-0.000033	0.548659
C12	C	0.989876	-0.000030	0.505827
N13	N	1.267964	0.344056	0.647064
N14	N	1.342631	-0.344130	0.564053
C15	C	0.685736	-0.000064	0.838865
C16	C	0.798579	-0.000071	0.879111
C17	C	0.846409	-0.000060	0.785794
C18	C	0.781385	-0.000043	0.652223
C19	C	0.668532	-0.000047	0.611971
C20	C	0.829205	-0.000044	0.558900
C21	C	0.764181	-0.000027	0.425329
C22	C	0.651339	-0.000030	0.385084
C23	C	0.603510	-0.000041	0.478402
C24	C	0.942058	-0.000040	0.599152
C25	C	0.924854	-0.000024	0.372258
C26	C	0.812011	-0.000016	0.332011
C27	C	1.500610	-0.000045	0.662465
C28	C	1.620714	-0.000057	0.705296
C29	C	1.270120	-0.000033	0.371856
C30	C	1.241859	-0.000037	0.227625
C31	C	1.314365	0.416256	0.595464
C32	C	1.296223	0.583673	0.615660
C33	C	1.319892	-0.000041	0.180093
C34	C	1.290686	-0.000046	0.031024
C35	C	1.340469	-0.000045	0.839268
C36	C	1.368731	-0.000050	0.983497
H37	H	0.994989	-0.000047	0.707906
Br38	Br	1.402635	0.312717	0.496495
Br39	Br	0.450358	-0.000023	0.423786
Br40	Br	0.999555	-0.000068	0.840416
Br41	Br	0.886819	-0.000105	1.060376
H42	H	1.395787	0.593746	0.504915
Br43	Br	0.620823	-0.000109	0.965491
Br44	Br	1.207608	0.687207	0.714204
Br45	Br	0.563100	-0.000066	0.203802
H46	H	1.214802	0.406185	0.706186
Br47	Br	1.467288	-0.000060	0.296193
H48	H	1.153431	-0.000045	0.157959
Br49	Br	1.143288	-0.000064	-0.085076
H50	H	1.457178	-0.000161	0.053144
H51	H	0.759054	-0.000015	0.223254
H52	H	0.963796	-0.000021	0.296269
