data_functionalizedCrystal
_audit_creation_method	'MofGen! by Chris Wilmer'
_symmetry_space_group_name_H-M	'P1'
_symmetry_Int_Tables_number	1
_symmetry_cell_setting	triclinic
loop_
_symmetry_equiv_pos_as_xyz
  x,y,z
_cell_length_a	10.968023
_cell_length_b	7.540329
_cell_length_c	9.065218
_cell_angle_alpha	89.999725
_cell_angle_beta	95.142072
_cell_angle_gamma	77.876279
loop_
_atom_site_label
_atom_site_type_symbol
_atom_site_fract_x
_atom_site_fract_y
_atom_site_fract_z
O1	O	-1.657972	0.359114	0.206880
O2	O	-1.294912	0.248179	0.226701
O3	O	-1.483946	0.305943	0.002105
O4	O	-1.468937	0.301350	0.431476
O5	O	-1.483937	0.600905	0.002109
O6	O	-1.294903	0.543141	0.226704
O7	O	-1.657963	0.654076	0.206884
Cu8	Cu	-1.476432	0.625541	0.216794
Cu9	Cu	-1.476443	0.276714	0.216790
O10	O	-1.468929	0.596312	0.431479
C11	C	-1.248403	0.381450	0.225263
C12	C	-1.109836	0.339110	0.220954
C13	C	-0.904831	0.429261	0.214568
C14	C	-1.048046	0.473040	0.219031
C15	C	-0.704471	0.520811	0.208325
C16	C	-0.843038	0.563172	0.212644
N17	N	-1.476434	0.870890	0.216796
C18	C	-1.482499	0.452980	-0.052871
C19	C	-1.478186	0.451654	-0.216690
N20	N	-1.476443	1.031366	0.216794
C21	C	-1.470375	0.449270	0.486456
C22	C	-1.474688	0.450585	0.650274
H23	H	-1.056719	0.192044	0.219299
H24	H	-0.896161	0.710227	0.214294
H25	H	-1.101165	0.620105	0.220681
O26	O	-0.841382	0.253842	0.212853
C27	C	-0.753345	0.217474	0.338046
H28	H	-0.783783	0.317949	0.428430
H29	H	-0.657580	0.231584	0.306131
C30	C	-0.708042	-0.100448	0.284810
C31	C	-0.745432	0.022949	0.395826
H32	H	-0.703155	-0.220442	0.320449
H33	H	-0.767351	-0.075946	0.200461
H34	H	-0.628241	-0.088666	0.258224
H35	H	-0.825238	0.011182	0.422397
H36	H	-0.686136	-0.001559	0.480181
