data_functionalizedCrystal
_audit_creation_method	'MofGen! by Chris Wilmer'
_symmetry_space_group_name_H-M	'P1'
_symmetry_Int_Tables_number	1
_symmetry_cell_setting	triclinic
loop_
_symmetry_equiv_pos_as_xyz
  x,y,z
_cell_length_a	19.121102
_cell_length_b	25.639239
_cell_length_c	25.639233
_cell_angle_alpha	89.981253
_cell_angle_beta	87.548369
_cell_angle_gamma	87.592882
loop_
_atom_site_label
_atom_site_type_symbol
_atom_site_fract_x
_atom_site_fract_y
_atom_site_fract_z
Zn1	Zn	1.073601	-0.242371	-0.329671
Zn2	Zn	1.406934	0.090963	0.003662
Zn3	Zn	1.740267	0.424296	0.336996
Zn4	Zn	1.073498	-0.329786	-0.242232
Zn5	Zn	1.406831	0.003547	0.091101
Zn6	Zn	1.740165	0.336881	0.424434
Zn7	Zn	0.956164	-0.238634	-0.238524
Zn8	Zn	1.289498	0.094700	0.094809
Zn9	Zn	1.622831	0.428033	0.428143
Zn10	Zn	0.956091	-0.326038	-0.325912
Zn11	Zn	1.289424	0.007295	0.007422
Zn12	Zn	1.622757	0.340628	0.340755
O13	O	1.014838	-0.284207	-0.284085
O14	O	1.348172	0.049126	0.049249
O15	O	1.681505	0.382459	0.382582
O16	O	1.171870	-0.257099	-0.321197
O17	O	1.505203	0.076234	0.012136
O18	O	1.838537	0.409568	0.345469
O19	O	1.057921	-0.317699	-0.168575
O20	O	1.391254	0.015634	0.164759
O21	O	1.724588	0.348968	0.498092
O22	O	0.971816	-0.165966	-0.250636
O23	O	1.305150	0.167367	0.082697
O24	O	1.638483	0.500700	0.416031
O25	O	1.171794	-0.321323	-0.256956
O26	O	1.505128	0.012011	0.076377
O27	O	1.838461	0.345344	0.409710
O28	O	1.058096	-0.168712	-0.317602
O29	O	1.391430	0.164621	0.015732
O30	O	1.724763	0.497955	0.349065
O31	O	0.971717	-0.250730	-0.165850
O32	O	1.305050	0.082604	0.167483
O33	O	1.638383	0.415937	0.500817
O34	O	0.857872	-0.247096	-0.246991
O35	O	1.191205	0.086238	0.086343
O36	O	1.524538	0.419571	0.419676
O37	O	0.971691	-0.314935	-0.399576
O38	O	1.305024	0.018398	-0.066243
O39	O	1.638357	0.351732	0.267091
O40	O	0.857817	-0.311311	-0.311194
O41	O	1.191151	0.022022	0.022139
O42	O	1.524484	0.355355	0.355472
O43	O	1.058025	-0.253465	-0.402338
O44	O	1.391358	0.079869	-0.069005
O45	O	1.724692	0.413202	0.264329
O46	O	1.057850	-0.402452	-0.253311
O47	O	1.391183	-0.069119	0.080022
O48	O	1.724516	0.264215	0.413356
O49	O	0.971591	-0.399698	-0.314790
O50	O	1.304924	-0.066365	0.018543
O51	O	1.638258	0.266968	0.351877
C52	C	0.832361	-0.278392	-0.278282
C53	C	1.165694	0.054942	0.055051
C54	C	1.499027	0.388275	0.388384
C55	C	0.754296	-0.275916	-0.275813
C56	C	1.087629	0.057417	0.057521
C57	C	1.420963	0.390750	0.390854
C58	C	1.014720	-0.420046	-0.284057
C59	C	1.348054	-0.086713	0.049276
C60	C	1.681387	0.246621	0.382610
C61	C	1.014734	-0.478160	-0.284065
C62	C	1.348067	-0.144827	0.049269
C63	C	1.681401	0.188506	0.382602
C64	C	0.717611	-0.308238	-0.308027
C65	C	1.050945	0.025096	0.025306
C66	C	1.384278	0.358429	0.358640
C67	C	0.644261	-0.305905	-0.305709
C68	C	0.977594	0.027428	0.027624
C69	C	1.310928	0.360762	0.360958
C70	C	0.607597	-0.271253	-0.271173
C71	C	0.940931	0.062080	0.062160
C72	C	1.274264	0.395413	0.395493
C73	C	0.644287	-0.238929	-0.238958
C74	C	0.977620	0.094405	0.094376
C75	C	1.310954	0.427738	0.427709
C76	C	0.717636	-0.241259	-0.241279
C77	C	1.050969	0.092074	0.092055
C78	C	1.384303	0.425408	0.425388
C79	C	0.386132	-0.262539	-0.262498
C80	C	0.719465	0.070794	0.070836
C81	C	1.052799	0.404127	0.404169
C82	C	0.312778	-0.260212	-0.260178
C83	C	0.646111	0.073121	0.073156
C84	C	0.979445	0.406454	0.406489
C85	C	0.312757	-0.327189	-0.326930
C86	C	0.646090	0.006145	0.006403
C87	C	0.979424	0.339478	0.339737
C88	C	0.386107	-0.329518	-0.329246
C89	C	0.719440	0.003815	0.004087
C90	C	1.052774	0.337148	0.337421
C91	C	0.422791	-0.297191	-0.297032
C92	C	0.756124	0.036142	0.036301
C93	C	1.089457	0.369475	0.369634
C94	C	0.532622	-0.268869	-0.268802
C95	C	0.865955	0.064464	0.064532
C96	C	1.199288	0.397797	0.397865
C97	C	0.497765	-0.299573	-0.299407
C98	C	0.831098	0.033760	0.033927
C99	C	1.164432	0.367093	0.367260
C100	C	1.059870	-0.839952	-0.252133
C101	C	1.393204	-0.506618	0.081200
C102	C	1.726537	-0.173285	0.414533
C103	C	1.059898	-0.894557	-0.252141
C104	C	1.393231	-0.561224	0.081192
C105	C	1.726564	-0.227890	0.414526
O106	O	1.098152	-0.924004	-0.224962
O107	O	1.431485	-0.590671	0.108372
O108	O	1.764818	-0.257337	0.441705
N109	N	1.014962	-0.920450	-0.284123
N110	N	1.348295	-0.587117	0.049210
N111	N	1.681628	-0.253783	0.382543
C112	C	0.970001	-0.891735	-0.316104
C113	C	1.303334	-0.558402	0.017230
C114	C	1.636667	-0.225069	0.350563
O115	O	0.931782	-0.918774	-0.343308
O116	O	1.265116	-0.585440	-0.009975
O117	O	1.598449	-0.252107	0.323359
C118	C	0.969978	-0.837131	-0.316098
C119	C	1.303311	-0.503798	0.017235
C120	C	1.636644	-0.170465	0.350569
C121	C	1.014911	-0.811241	-0.284110
C122	C	1.348245	-0.477908	0.049223
C123	C	1.681578	-0.144574	0.382557
C124	C	1.104801	-0.814061	-0.220148
C125	C	1.438134	-0.480728	0.113185
C126	C	1.771468	-0.147394	0.446518
C127	C	1.104773	-0.759460	-0.220140
C128	C	1.438106	-0.426126	0.113194
C129	C	1.771439	-0.092793	0.446527
C130	C	1.059814	-0.730749	-0.252116
C131	C	1.393147	-0.397416	0.081217
C132	C	1.726480	-0.064082	0.414550
C133	C	1.014883	-0.756639	-0.284101
C134	C	1.348216	-0.423306	0.049232
C135	C	1.681550	-0.089973	0.382565
C136	C	0.925021	-0.808418	-0.348081
C137	C	1.258354	-0.475084	-0.014747
C138	C	1.591687	-0.141751	0.318586
C139	C	0.925002	-0.753810	-0.348073
C140	C	1.258335	-0.420477	-0.014739
C141	C	1.591668	-0.087144	0.318594
C142	C	0.969936	-0.727920	-0.316085
C143	C	1.303269	-0.394586	0.017249
C144	C	1.636602	-0.061253	0.350582
C145	C	0.969896	-0.673327	-0.316070
C146	C	1.303229	-0.339994	0.017264
C147	C	1.636562	-0.006661	0.350597
N148	N	1.014832	-0.647434	-0.284088
N149	N	1.348165	-0.314101	0.049246
N150	N	1.681498	0.019233	0.382579
C151	C	1.059791	-0.676145	-0.252111
C152	C	1.393124	-0.342811	0.081222
C153	C	1.726457	-0.009478	0.414556
C154	C	0.970054	-1.006408	-0.316113
C155	C	1.303387	-0.673074	0.017220
C156	C	1.636720	-0.339741	0.350553
C157	C	0.970073	-1.061011	-0.316116
C158	C	1.303406	-0.727677	0.017217
C159	C	1.636739	-0.394344	0.350550
C160	C	1.059971	-1.063828	-0.252155
C161	C	1.393304	-0.730495	0.081179
C162	C	1.726637	-0.397162	0.414512
C163	C	1.059948	-1.009224	-0.252149
C164	C	1.393281	-0.675891	0.081184
C165	C	1.726614	-0.342558	0.414518
C166	C	1.014990	-0.980515	-0.284131
C167	C	1.348323	-0.647181	0.049202
C168	C	1.681656	-0.313848	0.382536
C169	C	1.059727	-0.561478	-0.252095
C170	C	1.393061	-0.228144	0.081238
C171	C	1.726394	0.105189	0.414571
C172	C	1.059693	-0.506871	-0.252088
C173	C	1.393026	-0.173538	0.081245
C174	C	1.726360	0.159795	0.414579
C175	C	0.969798	-0.504058	-0.316052
C176	C	1.303131	-0.170725	0.017282
C177	C	1.636465	0.162608	0.350615
C178	C	0.969829	-0.558660	-0.316057
C179	C	1.303163	-0.225327	0.017276
C180	C	1.636496	0.108007	0.350610
C181	C	1.014800	-0.587369	-0.284077
C182	C	1.348133	-0.254035	0.049256
C183	C	1.681466	0.079298	0.382589
O184	O	0.931663	-0.643846	-0.343237
O185	O	1.264996	-0.310513	-0.009903
O186	O	1.598330	0.022821	0.323430
O187	O	1.098009	-0.649100	-0.224916
O188	O	1.431343	-0.315767	0.108417
O189	O	1.764676	0.017567	0.441750
C190	C	1.198028	-0.290046	-0.289910
C191	C	1.531362	0.043288	0.043423
C192	C	1.864695	0.376621	0.376757
C193	C	1.276093	-0.292534	-0.292392
C194	C	1.609426	0.040800	0.040941
C195	C	1.942760	0.374133	0.374274
C196	C	1.014861	-0.284199	-0.420458
C197	C	1.348194	0.049135	-0.087125
C198	C	1.681528	0.382468	0.246208
C199	C	1.014871	-0.284195	-0.478573
C200	C	1.348204	0.049138	-0.145239
C201	C	1.681537	0.382472	0.188094
C202	C	1.014976	-0.147839	-0.284125
C203	C	1.348309	0.185495	0.049209
C204	C	1.681643	0.518828	0.382542
C205	C	1.015035	-0.089726	-0.284142
C206	C	1.348368	0.243607	0.049192
C207	C	1.681701	0.576940	0.382525
C208	C	1.059882	-0.252090	-0.840382
C209	C	1.393215	0.081243	-0.507048
C210	C	1.726549	0.414577	-0.173715
C211	C	1.059891	-0.252076	-0.894986
C212	C	1.393224	0.081257	-0.561653
C213	C	1.726557	0.414591	-0.228320
O214	O	1.098104	-0.224839	-0.924450
O215	O	1.431437	0.108495	-0.591117
O216	O	1.764771	0.441828	-0.257784
N217	N	1.014948	-0.284075	-0.920858
N218	N	1.348281	0.049258	-0.587525
N219	N	1.681615	0.382592	-0.254191
C220	C	0.969989	-0.316087	-0.892122
C221	C	1.303322	0.017247	-0.558789
C222	C	1.636656	0.350580	-0.225455
O223	O	0.931762	-0.343303	-0.919142
O224	O	1.265096	-0.009969	-0.585808
O225	O	1.598429	0.323364	-0.252475
C226	C	0.969977	-0.316098	-0.837518
C227	C	1.303311	0.017236	-0.504185
C228	C	1.636644	0.350569	-0.170852
C229	C	1.014928	-0.284100	-0.811650
C230	C	1.348261	0.049233	-0.478316
C231	C	1.681594	0.382566	-0.144983
C232	C	1.104828	-0.220095	-0.814513
C233	C	1.438161	0.113239	-0.481180
C234	C	1.771495	0.446572	-0.147846
C235	C	1.104820	-0.220110	-0.759912
C236	C	1.438153	0.113223	-0.426579
C237	C	1.771487	0.446557	-0.093245
C238	C	1.059866	-0.252120	-0.731180
C239	C	1.393199	0.081213	-0.397847
C240	C	1.726533	0.414547	-0.064513
C241	C	1.014920	-0.284115	-0.757049
C242	C	1.348253	0.049218	-0.423715
C243	C	1.681586	0.382551	-0.090382
C244	C	0.925015	-0.348106	-0.808783
C245	C	1.258348	-0.014773	-0.475450
C246	C	1.591682	0.318561	-0.142116
C247	C	0.925007	-0.348114	-0.754176
C248	C	1.258340	-0.014781	-0.420842
C249	C	1.591674	0.318553	-0.087509
C250	C	0.969957	-0.316117	-0.728307
C251	C	1.303291	0.017217	-0.394974
C252	C	1.636624	0.350550	-0.061641
C253	C	0.969958	-0.316141	-0.673716
C254	C	1.303291	0.017193	-0.340383
C255	C	1.636624	0.350526	-0.007049
N256	N	1.014900	-0.284141	-0.647844
N257	N	1.348233	0.049192	-0.314511
N258	N	1.681567	0.382525	0.018822
C259	C	1.059854	-0.252131	-0.676576
C260	C	1.393188	0.081202	-0.343243
C261	C	1.726521	0.414536	-0.009910
C262	C	0.970016	-0.316060	-1.006793
C263	C	1.303349	0.017273	-0.673460
C264	C	1.636683	0.350606	-0.340127
C265	C	0.970031	-0.316052	-1.061396
C266	C	1.303364	0.017281	-0.728063
C267	C	1.636697	0.350614	-0.394730
C268	C	1.059932	-0.252041	-1.064257
C269	C	1.393265	0.081293	-0.730924
C270	C	1.726598	0.414626	-0.397590
C271	C	1.059920	-0.252052	-1.009653
C272	C	1.393253	0.081282	-0.676320
C273	C	1.726587	0.414615	-0.342986
C274	C	1.014959	-0.284061	-0.980922
C275	C	1.348292	0.049272	-0.647588
C276	C	1.681625	0.382606	-0.314255
C277	C	1.059835	-0.252165	-0.561911
C278	C	1.393168	0.081168	-0.228577
C279	C	1.726501	0.414501	0.104756
C280	C	1.059825	-0.252185	-0.507305
C281	C	1.393158	0.081148	-0.173972
C282	C	1.726491	0.414482	0.159362
C283	C	0.969922	-0.316194	-0.504449
C284	C	1.303255	0.017139	-0.171116
C285	C	1.636588	0.350472	0.162218
C286	C	0.969934	-0.316177	-0.559050
C287	C	1.303267	0.017156	-0.225717
C288	C	1.636601	0.350490	0.107617
C289	C	1.014893	-0.284158	-0.587780
C290	C	1.348226	0.049175	-0.254446
C291	C	1.681559	0.382508	0.078887
O292	O	0.931762	-0.343362	-0.644218
O293	O	1.265095	-0.010029	-0.310884
O294	O	1.598428	0.323305	0.022449
O295	O	1.098068	-0.224915	-0.649549
O296	O	1.431401	0.108419	-0.316216
O297	O	1.764735	0.441752	0.017117
C298	C	1.014856	-0.284179	-0.148243
C299	C	1.348190	0.049154	0.185091
C300	C	1.681523	0.382488	0.518424
C301	C	1.014983	-0.284040	-0.090133
C302	C	1.348316	0.049294	0.243200
C303	C	1.681649	0.382627	0.576534
H304	H	0.747458	-0.336457	-0.336148
H305	H	1.080791	-0.003123	-0.002815
H306	H	1.414124	0.330210	0.330519
F307	F	0.877151	-0.723258	-0.382115
F308	F	1.210485	-0.389925	-0.048781
F309	F	1.543818	-0.056592	0.284552
H310	H	0.282928	-0.231989	-0.232058
H311	H	0.616262	0.101344	0.101275
H312	H	0.949595	0.434678	0.434609
F313	F	0.922080	-0.350260	-0.473861
F314	F	1.255413	-0.016926	-0.140527
F315	F	1.588747	0.316407	0.192806
H316	H	0.933243	-0.579741	-0.342106
H317	H	1.266576	-0.246408	-0.008773
H318	H	1.599909	0.086926	0.324561
F319	F	1.107590	-0.592024	-0.218059
F320	F	1.440923	-0.258691	0.115275
F321	F	1.774256	0.074643	0.448608
F322	F	1.107772	-0.981675	-0.218104
F323	F	1.441105	-0.648341	0.115230
F324	F	1.774439	-0.315008	0.448563
H325	H	0.933402	-0.342129	-0.983404
H326	H	1.266736	-0.008795	-0.650070
H327	H	1.600069	0.324538	-0.316737
F328	F	0.605222	-0.340306	-0.339996
F329	F	0.938555	-0.006973	-0.006663
F330	F	1.271888	0.326361	0.326670
F331	F	0.425164	-0.228133	-0.228214
F332	F	0.758497	0.105201	0.105119
F333	F	1.091831	0.438534	0.438453
H334	H	0.502762	-0.240657	-0.240682
H335	H	0.836095	0.092676	0.092652
H336	H	1.169428	0.426010	0.425985
F337	F	0.756678	-0.206857	-0.206993
F338	F	1.090012	0.126476	0.126341
F339	F	1.423345	0.459810	0.459674
H340	H	0.933435	-0.342114	-1.082454
H341	H	1.266769	-0.008780	-0.749121
H342	H	1.600102	0.324553	-0.415787
F343	F	0.605265	-0.202046	-0.202205
F344	F	0.938598	0.131287	0.131128
F345	F	1.271931	0.464621	0.464461
H346	H	0.527620	-0.327784	-0.327528
H347	H	0.860953	0.005549	0.005806
H348	H	1.194287	0.338882	0.339139
H349	H	1.096283	-0.485793	-0.226038
H350	H	1.429617	-0.152460	0.107296
H351	H	1.762950	0.180874	0.440629
H352	H	1.096581	-1.087215	-0.226119
H353	H	1.429915	-0.753881	0.107214
H354	H	1.763248	-0.420548	0.440547
H355	H	0.933477	-1.082086	-0.342159
H356	H	1.266810	-0.748752	-0.008826
H357	H	1.600143	-0.415419	0.324507
F358	F	1.152606	-0.731912	-0.186100
F359	F	1.485939	-0.398579	0.147234
F360	F	1.819273	-0.065246	0.480567
H361	H	0.415954	-0.357736	-0.357367
H362	H	0.749287	-0.024403	-0.024034
H363	H	1.082621	0.308930	0.309299
H364	H	0.933438	-0.983034	-0.342155
H365	H	1.266771	-0.649701	-0.008822
H366	H	1.600104	-0.316368	0.324512
F367	F	0.273711	-0.361591	-0.361211
F368	F	0.607044	-0.028258	-0.027878
F369	F	0.940377	0.305075	0.305456
H370	H	1.096431	-0.226128	-0.486245
H371	H	1.429765	0.107205	-0.152912
H372	H	1.763098	0.440538	0.180421
H373	H	0.933191	-0.480674	-0.342085
H374	H	1.266524	-0.147340	-0.008752
H375	H	1.599857	0.185993	0.324582
F376	F	1.107761	-0.217996	-0.982127
F377	F	1.441094	0.115338	-0.648793
F378	F	1.774428	0.448671	-0.315460
F379	F	1.107775	-0.217971	-1.094845
F380	F	1.441108	0.115362	-0.761512
F381	F	1.774442	0.448695	-0.428179
H382	H	1.141435	-0.194025	-0.837901
H383	H	1.474769	0.139308	-0.504568
H384	H	1.808102	0.472641	-0.171234
F385	F	1.152658	-0.844609	-0.186112
F386	F	1.485991	-0.511276	0.147221
F387	F	1.819325	-0.177943	0.480555
H388	H	0.888427	-0.829488	-0.374126
H389	H	1.221761	-0.496155	-0.040793
H390	H	1.555094	-0.162822	0.292540
F391	F	0.877174	-0.382164	-0.836303
F392	F	1.210507	-0.048831	-0.502969
F393	F	1.543841	0.284502	-0.169636
H394	H	1.096442	-0.226091	-0.585296
H395	H	1.429775	0.107242	-0.251962
H396	H	1.763109	0.440576	0.081371
H397	H	1.141422	-0.194053	-0.738855
H398	H	1.474755	0.139280	-0.405521
H399	H	1.808089	0.472613	-0.072188
F400	F	0.877150	-0.382183	-0.723601
F401	F	1.210483	-0.048849	-0.390268
F402	F	1.543817	0.284484	-0.056934
F403	F	0.922097	-0.350235	-0.586582
F404	F	1.255431	-0.016902	-0.253249
F405	F	1.588764	0.316431	0.080084
