data_functionalizedCrystal
_audit_creation_method	'MofGen! by Chris Wilmer'
_symmetry_space_group_name_H-M	'P1'
_symmetry_Int_Tables_number	1
_symmetry_cell_setting	triclinic
loop_
_symmetry_equiv_pos_as_xyz
  x,y,z
_cell_length_a	17.077404
_cell_length_b	29.839131
_cell_length_c	17.077404
_cell_angle_alpha	90.014381
_cell_angle_beta	90.008318
_cell_angle_gamma	90.041645
loop_
_atom_site_label
_atom_site_type_symbol
_atom_site_fract_x
_atom_site_fract_y
_atom_site_fract_z
Zn1	Zn	1.199867	-0.178928	0.443824
Zn2	Zn	1.533200	0.154405	0.777157
Zn3	Zn	1.866533	0.487738	1.110490
Zn4	Zn	1.199757	-0.254036	0.312550
Zn5	Zn	1.533090	0.079297	0.645883
Zn6	Zn	1.866424	0.412631	0.979217
Zn7	Zn	1.068624	-0.178921	0.312572
Zn8	Zn	1.401958	0.154412	0.645905
Zn9	Zn	1.735291	0.487745	0.979238
Zn10	Zn	1.068524	-0.254032	0.443773
Zn11	Zn	1.401857	0.079301	0.777107
Zn12	Zn	1.735191	0.412634	1.110440
O13	O	1.134193	-0.216480	0.378180
O14	O	1.467526	0.116854	0.711513
O15	O	1.800860	0.450187	1.044846
O16	O	1.309699	-0.188896	0.426422
O17	O	1.643032	0.144437	0.759755
O18	O	1.976366	0.477771	1.093089
O19	O	1.182358	-0.244070	0.202706
O20	O	1.515691	0.089263	0.536039
O21	O	1.849025	0.422596	0.869373
O22	O	1.086122	-0.116055	0.330013
O23	O	1.419455	0.217278	0.663346
O24	O	1.752788	0.550612	0.996679
O25	O	1.309619	-0.244077	0.329976
O26	O	1.642952	0.089256	0.663309
O27	O	1.976285	0.422589	0.996642
O28	O	1.182545	-0.116060	0.426443
O29	O	1.515878	0.217273	0.759776
O30	O	1.849212	0.550606	1.093110
O31	O	1.086015	-0.188884	0.202722
O32	O	1.419349	0.144449	0.536055
O33	O	1.752682	0.477783	0.869389
O34	O	0.958764	-0.188880	0.329964
O35	O	1.292097	0.144453	0.663297
O36	O	1.625431	0.477786	0.996631
O37	O	1.085951	-0.244071	0.553627
O38	O	1.419284	0.089262	0.886960
O39	O	1.752618	0.422595	1.220294
O40	O	0.958691	-0.244064	0.426357
O41	O	1.292024	0.089269	0.759691
O42	O	1.625357	0.422602	1.093024
O43	O	1.182448	-0.188893	0.553664
O44	O	1.515781	0.144441	0.886997
O45	O	1.849115	0.477774	1.220331
O46	O	1.182261	-0.316903	0.329927
O47	O	1.515594	0.016431	0.663260
O48	O	1.848928	0.349764	0.996593
O49	O	1.085845	-0.316900	0.426336
O50	O	1.419178	0.016433	0.759669
O51	O	1.752511	0.349767	1.093003
C52	C	0.930245	-0.216471	0.378158
C53	C	1.263579	0.116862	0.711491
C54	C	1.596912	0.450195	1.044825
C55	C	0.842995	-0.216479	0.378167
C56	C	1.176329	0.116855	0.711501
C57	C	1.509662	0.450188	1.044834
C58	C	0.801987	-0.245256	0.428279
C59	C	1.135321	0.088077	0.761612
C60	C	1.468654	0.421410	1.094945
C61	C	0.720007	-0.245257	0.428291
C62	C	1.053340	0.088076	0.761625
C63	C	1.386674	0.421409	1.094958
C64	C	0.679036	-0.216483	0.378188
C65	C	1.012369	0.116851	0.711521
C66	C	1.345703	0.450184	1.044855
C67	C	0.720050	-0.187702	0.328074
C68	C	1.053383	0.145631	0.661408
C69	C	1.386716	0.478965	0.994741
C70	C	0.802029	-0.187699	0.328066
C71	C	1.135362	0.145634	0.661400
C72	C	1.468695	0.478968	0.994733
C73	C	0.549180	-0.187711	0.328093
C74	C	0.882513	0.145623	0.661426
C75	C	1.215846	0.478956	0.994760
C76	C	0.467195	-0.187714	0.328100
C77	C	0.800528	0.145619	0.661433
C78	C	1.133862	0.478953	0.994767
C79	C	0.467158	-0.245269	0.428318
C80	C	0.800491	0.088064	0.761652
C81	C	1.133825	0.421398	1.094985
C82	C	0.549137	-0.245266	0.428310
C83	C	0.882470	0.088067	0.761644
C84	C	1.215804	0.421401	1.094977
C85	C	0.590145	-0.216486	0.378195
C86	C	0.923478	0.116848	0.711529
C87	C	1.256812	0.450181	1.044862
C88	C	1.134051	-0.333202	0.378141
C89	C	1.467385	0.000131	0.711474
C90	C	1.800718	0.333465	1.044807
C91	C	1.134062	-0.383137	0.378150
C92	C	1.467396	-0.049803	0.711484
C93	C	1.800729	0.283530	1.044817
C94	C	1.184488	-0.692769	0.328053
C95	C	1.517822	-0.359435	0.661386
C96	C	1.851155	-0.026102	0.994719
C97	C	1.184585	-0.880442	0.328083
C98	C	1.517918	-0.547108	0.661416
C99	C	1.851252	-0.213775	0.994750
O100	O	1.227347	-0.904697	0.285458
O101	O	1.560680	-0.571364	0.618792
O102	O	1.894013	-0.238030	0.952125
N103	N	1.134356	-0.903922	0.378239
N104	N	1.467689	-0.570588	0.711572
N105	N	1.801022	-0.237255	1.044906
C106	C	1.084102	-0.880480	0.428394
C107	C	1.417436	-0.547147	0.761728
C108	C	1.750769	-0.213814	1.095061
O109	O	1.041387	-0.904758	0.471061
O110	O	1.374720	-0.571424	0.804394
O111	O	1.708054	-0.238091	1.137728
C112	C	1.084010	-0.692808	0.428367
C113	C	1.417343	-0.359475	0.761700
C114	C	1.750677	-0.026141	1.095034
C115	C	1.134237	-0.669331	0.378202
C116	C	1.467570	-0.335997	0.711536
C117	C	1.800904	-0.002664	1.044869
C118	C	1.234712	-0.669291	0.277893
C119	C	1.568045	-0.335958	0.611226
C120	C	1.901378	-0.002625	0.944559
C121	C	1.234684	-0.622376	0.277883
C122	C	1.568017	-0.289042	0.611216
C123	C	1.901351	0.044291	0.944549
C124	C	1.184433	-0.598938	0.328032
C125	C	1.517766	-0.265604	0.661366
C126	C	1.851099	0.067729	0.994699
C127	C	1.134209	-0.622415	0.378192
C128	C	1.467543	-0.289082	0.711526
C129	C	1.800876	0.044251	1.044859
C130	C	1.033761	-0.669368	0.478526
C131	C	1.367094	-0.336034	0.811859
C132	C	1.700428	-0.002701	1.145192
C133	C	1.033744	-0.622447	0.478516
C134	C	1.367077	-0.289113	0.811849
C135	C	1.700410	0.044220	1.145183
C136	C	1.083971	-0.598969	0.428351
C137	C	1.417304	-0.265636	0.761685
C138	C	1.750637	0.067697	1.095018
C139	C	1.083930	-0.552062	0.428332
C140	C	1.417264	-0.218728	0.761665
C141	C	1.750597	0.114605	1.094999
N142	N	1.134160	-0.528582	0.378176
N143	N	1.467493	-0.195249	0.711510
N144	N	1.800826	0.138085	1.044843
C145	C	1.184411	-0.552020	0.328026
C146	C	1.517744	-0.218687	0.661360
C147	C	1.851077	0.114647	0.994693
C148	C	1.084153	-0.979011	0.428404
C149	C	1.417487	-0.645678	0.761737
C150	C	1.750820	-0.312344	1.095070
C151	C	1.084175	-1.025929	0.428410
C152	C	1.417509	-0.692595	0.761743
C153	C	1.750842	-0.359262	1.095076
C154	C	1.184659	-1.025887	0.328099
C155	C	1.517993	-0.692554	0.661433
C156	C	1.851326	-0.359220	0.994766
C157	C	1.184633	-0.978968	0.328090
C158	C	1.517966	-0.645635	0.661423
C159	C	1.851299	-0.312302	0.994757
C160	C	1.134383	-0.955531	0.378248
C161	C	1.467716	-0.622198	0.711581
C162	C	1.801049	-0.288864	1.044915
C163	C	1.184348	-0.453494	0.328009
C164	C	1.517682	-0.120161	0.661342
C165	C	1.851015	0.213173	0.994675
C166	C	1.184314	-0.406575	0.328001
C167	C	1.517647	-0.073241	0.661334
C168	C	1.850980	0.260092	0.994667
C169	C	1.083833	-0.406620	0.428313
C170	C	1.417166	-0.073287	0.761647
C171	C	1.750500	0.260046	1.094980
C172	C	1.083864	-0.453536	0.428319
C173	C	1.417198	-0.120203	0.761652
C174	C	1.750531	0.213131	1.094985
C175	C	1.134128	-0.476972	0.378164
C176	C	1.467462	-0.143638	0.711497
C177	C	1.800795	0.189695	1.044830
O178	O	1.041197	-0.527778	0.470941
O179	O	1.374531	-0.194444	0.804274
O180	O	1.707864	0.138889	1.137607
O181	O	1.227132	-0.527735	0.285378
O182	O	1.560465	-0.194401	0.618712
O183	O	1.893799	0.138932	0.952045
C184	C	1.184516	-0.739684	0.328063
C185	C	1.517849	-0.406351	0.661396
C186	C	1.851183	-0.073017	0.994729
C187	C	1.134292	-0.763162	0.378223
C188	C	1.467626	-0.429828	0.711556
C189	C	1.800959	-0.096495	1.044889
C190	C	1.084041	-0.739724	0.428373
C191	C	1.417375	-0.406390	0.761706
C192	C	1.750708	-0.073057	1.095039
C193	C	1.134314	-0.810079	0.378229
C194	C	1.467648	-0.476746	0.711562
C195	C	1.800981	-0.143413	1.044895
C196	C	1.184566	-0.833517	0.328079
C197	C	1.517899	-0.500184	0.661412
C198	C	1.851232	-0.166851	0.994746
C199	C	1.234795	-0.810038	0.277923
C200	C	1.568128	-0.476704	0.611256
C201	C	1.901462	-0.143371	0.944590
C202	C	1.234767	-0.763122	0.277913
C203	C	1.568101	-0.429789	0.611246
C204	C	1.901434	-0.096455	0.944580
C205	C	1.033812	-0.763203	0.478528
C206	C	1.367145	-0.429870	0.811862
C207	C	1.700479	-0.096537	1.145195
C208	C	1.033843	-0.810119	0.478534
C209	C	1.367176	-0.476786	0.811867
C210	C	1.700510	-0.143452	1.145200
C211	C	1.084094	-0.833557	0.428384
C212	C	1.417428	-0.500224	0.761717
C213	C	1.750761	-0.166890	1.095051
C214	C	1.338937	-0.216488	0.378202
C215	C	1.672271	0.116845	0.711535
C216	C	2.005604	0.450179	1.044869
C217	C	1.426187	-0.216492	0.378211
C218	C	1.759520	0.116842	0.711545
C219	C	2.092854	0.450175	1.044878
C220	C	1.134201	-0.216482	0.582924
C221	C	1.467534	0.116851	0.916257
C222	C	1.800867	0.450184	1.249591
C223	C	1.134204	-0.216483	0.670174
C224	C	1.467537	0.116850	1.003507
C225	C	1.800870	0.450183	1.336840
C226	C	1.134357	-0.099301	0.378236
C227	C	1.467690	0.234032	0.711569
C228	C	1.801023	0.567366	1.044903
C229	C	1.134427	-0.049367	0.378260
C230	C	1.467760	0.283967	0.711593
C231	C	1.801093	0.617300	1.044927
C232	C	1.184444	-0.187757	0.711184
C233	C	1.517777	0.145577	1.044518
C234	C	1.851110	0.478910	1.377851
C235	C	1.184437	-0.187756	0.793165
C236	C	1.517770	0.145577	1.126498
C237	C	1.851104	0.478910	1.459831
C238	C	1.134194	-0.216485	0.834133
C239	C	1.467527	0.116848	1.167466
C240	C	1.800861	0.450182	1.500800
C241	C	1.083949	-0.245213	0.793117
C242	C	1.417282	0.088120	1.126450
C243	C	1.750615	0.421454	1.459783
C244	C	1.083952	-0.245211	0.711138
C245	C	1.417285	0.088122	1.044471
C246	C	1.750619	0.421456	1.377804
C247	C	1.083947	-0.245216	0.963987
C248	C	1.417280	0.088118	1.297320
C249	C	1.750614	0.421451	1.630653
C250	C	1.083945	-0.245218	1.045971
C251	C	1.417278	0.088115	1.379305
C252	C	1.750611	0.421448	1.712638
C253	C	1.184432	-0.187761	1.046014
C254	C	1.517765	0.145572	1.379347
C255	C	1.851099	0.478906	1.712680
C256	C	1.184435	-0.187759	0.964035
C257	C	1.517769	0.145574	1.297368
C258	C	1.851102	0.478908	1.630701
C259	C	1.134191	-0.216488	0.923024
C260	C	1.467524	0.116846	1.256357
C261	C	1.800857	0.450179	1.589691
C262	C	1.134182	-0.216488	1.174232
C263	C	1.467515	0.116845	1.507565
C264	C	1.800848	0.450178	1.840898
C265	C	1.134184	-0.216492	1.086982
C266	C	1.467518	0.116842	1.420315
C267	C	1.800851	0.450175	1.753649
H268	H	0.835340	-0.268690	0.469076
H269	H	1.168674	0.064644	0.802410
H270	H	1.502007	0.397977	1.135743
F271	F	1.030357	-0.381668	0.481686
F272	F	1.363690	-0.048334	0.815019
F273	F	1.697023	0.284999	1.148352
H274	H	0.686622	-0.268691	0.469096
H275	H	1.019955	0.064642	0.802430
H276	H	1.353289	0.397975	1.135763
F277	F	1.288152	-0.597395	0.224499
F278	F	1.621485	-0.264062	0.557832
F279	F	1.954819	0.069272	0.891166
H280	H	1.225280	-0.472570	0.287169
H281	H	1.558613	-0.139237	0.620503
H282	H	1.891946	0.194097	0.953836
F283	F	1.288229	-0.738141	0.224523
F284	F	1.621562	-0.404808	0.557856
F285	F	1.954895	-0.071475	0.891189
F286	F	1.288274	-0.834990	0.224548
F287	F	1.621607	-0.501657	0.557881
F288	F	1.954941	-0.168324	0.891214
F289	F	0.845672	-0.157069	0.274732
F290	F	1.179005	0.176264	0.608066
F291	F	1.512339	0.509598	0.941399
F292	F	0.980379	-0.835100	0.531928
F293	F	1.313712	-0.501767	0.865261
F294	F	1.647045	-0.168434	1.198594
H295	H	0.582493	-0.268699	0.469105
H296	H	0.915827	0.064634	0.802438
H297	H	1.249160	0.397967	1.135771
F298	F	1.030469	-0.275791	0.920342
F299	F	1.363802	0.057542	1.253675
F300	F	1.697136	0.390875	1.587009
F301	F	0.423592	-0.157091	0.274771
F302	F	0.756925	0.176243	0.608104
F303	F	1.090259	0.509576	0.941438
H304	H	1.275637	-0.688369	0.237055
H305	H	1.608970	-0.355036	0.570388
H306	H	1.942303	-0.021703	0.903721
F307	F	1.237774	-0.381591	0.274606
F308	F	1.571107	-0.048257	0.607939
F309	F	1.904441	0.285076	0.941272
H310	H	0.582566	-0.164271	0.287291
H311	H	0.915899	0.169063	0.620625
H312	H	1.249232	0.502396	0.953958
H313	H	0.433765	-0.268702	0.469126
H314	H	0.767099	0.064632	0.802459
H315	H	1.100432	0.397965	1.135793
H316	H	1.225532	-0.959856	0.287242
H317	H	1.558866	-0.626522	0.620576
H318	H	1.892199	-0.293189	0.953909
H319	H	1.043034	-0.268599	0.677748
H320	H	1.376367	0.064735	1.011081
H321	H	1.709700	0.398068	1.344415
F322	F	1.238139	-1.050839	0.274724
F323	F	1.571472	-0.717506	0.608058
F324	F	1.904806	-0.384173	0.941391
F325	F	0.980261	-0.597506	0.531904
F326	F	1.313594	-0.264173	0.865237
F327	F	1.646927	0.069161	1.198571
F328	F	1.237914	-0.157185	0.920435
F329	F	1.571247	0.176148	1.253768
F330	F	1.904580	0.509481	1.587101
H331	H	0.992892	-0.744124	0.519367
H332	H	1.326225	-0.410791	0.852701
H333	H	1.659559	-0.077457	1.186034
F334	F	1.030708	-1.050910	0.481793
F335	F	1.364041	-0.717577	0.815126
F336	F	1.697375	-0.384243	1.148459
F337	F	1.237924	-0.157181	0.667590
F338	F	1.571257	0.176152	1.000923
F339	F	1.904591	0.509485	1.334257
H340	H	0.686685	-0.164271	0.287282
H341	H	1.020018	0.169062	0.620616
H342	H	1.353351	0.502396	0.953949
F343	F	1.237936	-0.157197	0.836808
F344	F	1.571269	0.176137	1.170141
F345	F	1.904603	0.509470	1.503474
F346	F	1.030666	-0.954073	0.481791
F347	F	1.363999	-0.620740	0.815125
F348	F	1.697332	-0.287406	1.148458
F349	F	0.980308	-0.694344	0.531926
F350	F	1.313642	-0.361011	0.865259
F351	F	1.646975	-0.027677	1.198592
F352	F	1.030393	-0.478523	0.481695
F353	F	1.363726	-0.145190	0.815028
F354	F	1.697060	0.188143	1.148361
F355	F	1.237907	-0.157186	1.089661
F356	F	1.571240	0.176147	1.422994
F357	F	1.904574	0.509481	1.756328
H358	H	1.043031	-0.268611	1.079326
H359	H	1.376364	0.064722	1.412659
H360	H	1.709697	0.398056	1.745992
F361	F	1.030473	-0.275786	0.836720
F362	F	1.363806	0.057547	1.170054
F363	F	1.697140	0.390880	1.503387
