data_functionalizedCrystal
_audit_creation_method	'MofGen! by Chris Wilmer'
_symmetry_space_group_name_H-M	'P1'
_symmetry_Int_Tables_number	1
_symmetry_cell_setting	triclinic
loop_
_symmetry_equiv_pos_as_xyz
  x,y,z
_cell_length_a	10.723023
_cell_length_b	16.109301
_cell_length_c	9.198806
_cell_angle_alpha	90.004857
_cell_angle_beta	89.996764
_cell_angle_gamma	96.035486
loop_
_atom_site_label
_atom_site_type_symbol
_atom_site_fract_x
_atom_site_fract_y
_atom_site_fract_z
O1	O	1.655642	-0.116605	-0.120883
O2	O	1.292342	-0.127767	-0.120889
O3	O	1.483972	-0.001213	-0.120871
O4	O	1.464012	-0.243158	-0.120901
O5	O	1.483958	-0.001212	0.120914
O6	O	1.292328	-0.127766	0.120896
O7	O	1.655628	-0.116603	0.120902
Cu8	Cu	1.473977	-0.122185	0.142976
Cu9	Cu	1.473993	-0.122186	-0.142963
O10	O	1.463998	-0.243157	0.120884
C11	C	1.245846	-0.126954	0.000002
C12	C	1.107324	-0.124524	0.000000
C13	C	1.045559	-0.123440	0.125251
C14	C	0.902389	-0.120929	0.125252
C15	C	1.483157	0.029767	0.000022
C16	C	1.480733	0.122076	0.000024
C17	C	1.702124	-0.117416	0.000007
C18	C	1.840646	-0.119846	-0.000000
C19	C	1.464813	-0.274137	-0.000012
C20	C	1.467237	-0.366447	-0.000024
N21	N	1.473974	-0.122183	0.344090
C22	C	1.588806	0.343713	0.000003
C23	C	1.586518	0.430447	-0.000009
C24	C	1.359155	0.411910	-0.000007
C25	C	1.361444	0.325178	-0.000006
C26	C	1.476273	0.291082	0.000007
C27	C	1.471697	0.464548	-0.000007
C28	C	1.469216	0.558588	-0.000020
C29	C	1.478755	0.197035	0.000017
N30	N	1.474006	-0.122181	-0.344077
C31	C	1.393526	-0.175552	0.416314
C32	C	1.393543	-0.175551	0.583727
H33	H	1.098673	-0.124367	0.232482
H34	H	0.849272	-0.120001	0.232484
H35	H	0.893754	-0.120783	-0.107238
H36	H	1.054211	-0.123591	-0.107231
O37	O	1.700454	0.310729	-0.000067
C38	C	1.925725	0.338273	-0.000006
C39	C	1.799368	0.375735	0.000049
H40	H	2.005730	0.390812	0.000119
H41	H	1.932563	0.298156	-0.101217
H42	H	1.932418	0.298107	0.101156
H43	H	1.792590	0.415938	-0.101044
H44	H	1.792584	0.415804	0.101327
H45	H	1.542880	-0.076484	0.593822
H46	H	1.678154	0.473296	-0.000015
H47	H	1.324643	-0.221247	0.354212
H48	H	1.269801	0.282323	-0.000007
H49	H	1.265666	0.439682	-0.000015
O50	O	1.311198	-0.229979	0.657748
C51	C	1.094393	-0.277772	0.704571
C52	C	1.187513	-0.216071	0.620673
H53	H	0.994374	-0.266561	0.674604
H54	H	1.108936	-0.268058	0.826405
H55	H	1.110942	-0.344423	0.674738
H56	H	1.171021	-0.149396	0.650384
H57	H	1.172947	-0.225858	0.498860
O58	O	1.555985	-0.067587	0.418235
C59	C	1.582002	0.045685	0.590345
C60	C	1.488985	-0.016086	0.506445
H61	H	1.527869	0.087327	0.661706
H62	H	1.642554	0.085930	0.509997
H63	H	1.644460	0.009481	0.661523
H64	H	1.426446	0.020051	0.435265
H65	H	1.428521	-0.056331	0.586872
