data_functionalizedCrystal
_audit_creation_method	'MofGen! by Chris Wilmer'
_symmetry_space_group_name_H-M	'P1'
_symmetry_Int_Tables_number	1
_symmetry_cell_setting	triclinic
loop_
_symmetry_equiv_pos_as_xyz
  x,y,z
_cell_length_a	14.519709
_cell_length_b	15.944551
_cell_length_c	13.596369
_cell_angle_alpha	89.993059
_cell_angle_beta	90.000291
_cell_angle_gamma	83.589442
loop_
_atom_site_label
_atom_site_type_symbol
_atom_site_fract_x
_atom_site_fract_y
_atom_site_fract_z
O1	O	1.223676	0.110109	-0.081665
O2	O	1.723676	0.610109	0.418335
O3	O	0.955176	0.123076	-0.081696
O4	O	1.455176	0.623076	0.418304
O5	O	1.096758	-0.005672	-0.081671
O6	O	1.596758	0.494328	0.418329
O7	O	1.082094	0.238856	-0.081690
O8	O	1.582094	0.738856	0.418310
O9	O	1.096744	-0.005679	0.081912
O10	O	1.596744	0.494321	0.581912
O11	O	0.955162	0.123069	0.081887
O12	O	1.455162	0.623069	0.581887
O13	O	1.223662	0.110102	0.081917
O14	O	1.723662	0.610102	0.581917
Zn15	Zn	1.089410	0.116584	0.107875
Zn16	Zn	1.589410	0.616584	0.607875
Zn17	Zn	1.089428	0.116593	-0.107653
Zn18	Zn	1.589428	0.616593	0.392347
O19	O	1.082080	0.238850	0.081893
O20	O	1.582080	0.738850	0.581893
C21	C	0.920810	0.122468	0.000092
C22	C	1.420810	0.622468	0.500092
C23	C	0.818432	0.120657	0.000081
C24	C	1.318432	0.620657	0.500081
C25	C	1.096142	-0.036970	0.000121
C26	C	1.596142	0.463030	0.500121
C27	C	1.094317	-0.130219	0.000121
C28	C	1.594317	0.369781	0.500121
C29	C	0.443548	0.113990	0.000126
C30	C	0.943548	0.613990	0.500126
C31	C	0.547853	0.115842	0.000113
C32	C	1.047853	0.615842	0.500113
C33	C	0.630987	0.117323	0.000102
C34	C	1.130987	0.617323	0.500102
C35	C	0.735298	0.119175	0.000091
C36	C	1.235298	0.619175	0.500091
C37	C	1.002196	-0.345209	0.000097
C38	C	1.502196	0.154791	0.500097
C39	C	1.044967	-0.406168	0.080758
C40	C	1.544967	0.093832	0.580758
C41	C	1.091015	-0.300950	0.000113
C42	C	1.591015	0.199050	0.500113
C43	C	1.045002	-0.406144	-0.080522
C44	C	1.545002	0.093856	0.419478
C45	C	1.087820	-0.465867	0.000101
C46	C	1.587820	0.034133	0.500101
C47	C	1.133811	-0.360680	0.080841
C48	C	1.633811	0.139320	0.580841
C49	C	1.133833	-0.360650	-0.080512
C50	C	1.633833	0.139350	0.419488
C51	C	1.176669	-0.421591	0.000169
C52	C	1.676669	0.078409	0.500169
C53	C	1.092854	-0.205945	0.000121
C54	C	1.592854	0.294055	0.500121
C55	C	1.085988	-0.560871	0.000100
C56	C	1.585988	-0.060871	0.500100
C57	C	1.258028	0.110710	0.000128
C58	C	1.758028	0.610710	0.500128
C59	C	1.360406	0.112521	0.000132
C60	C	1.860406	0.612521	0.500132
C61	C	1.082696	0.270148	0.000099
C62	C	1.582696	0.770148	0.500099
C63	C	1.084521	0.363397	0.000092
C64	C	1.584521	0.863397	0.500092
N65	N	1.089404	0.116578	0.254966
N66	N	1.589404	0.616578	0.754966
N67	N	1.089442	0.116593	-0.254745
N68	N	1.589442	0.616593	0.245255
C69	C	1.089427	0.116594	0.656257
C70	C	1.589427	0.616594	1.156257
C71	C	1.089418	0.116592	0.544606
C72	C	1.589418	0.616592	1.044606
C73	C	1.089416	0.116587	0.455615
C74	C	1.589416	0.616587	0.955615
C75	C	1.089406	0.116584	0.343957
C76	C	1.589406	0.616584	0.843957
H77	H	0.928471	-0.312009	0.000169
H78	H	1.428471	0.187991	0.500169
C79	C	0.994699	-0.432997	0.171589
C80	C	1.494699	0.067003	0.671589
C81	C	0.903396	-0.393978	0.171199
C82	C	1.403396	0.106022	0.671199
C83	C	0.857053	-0.418677	0.254846
C84	C	1.357053	0.081323	0.754846
H85	H	1.025539	-0.416677	0.228939
H86	H	1.525539	0.083323	0.728939
H87	H	0.994343	-0.492544	0.171235
H88	H	1.494343	0.007456	0.671235
H89	H	0.903757	-0.334444	0.171562
H90	H	1.403757	0.165556	0.671562
H91	H	0.872531	-0.410293	0.113868
H92	H	1.372531	0.089707	0.613868
H93	H	0.856697	-0.478224	0.254492
H94	H	1.356697	0.021776	0.754492
H95	H	0.887900	-0.402357	0.312189
H96	H	1.387900	0.097643	0.812189
H97	H	0.795097	-0.392213	0.254587
H98	H	1.295097	0.107787	0.754587
H99	H	1.250458	-0.454643	0.000223
H100	H	1.750458	0.045357	0.500223
C101	C	1.184025	-0.334032	0.171789
C102	C	1.684025	0.165968	0.671789
C103	C	1.275061	-0.373687	0.171886
C104	C	1.775061	0.126313	0.671886
C105	C	1.321345	-0.349149	0.255644
C106	C	1.821345	0.150851	0.755644
H107	H	1.152795	-0.349970	0.229063
H108	H	1.652795	0.150030	0.729063
H109	H	1.184912	-0.274545	0.171254
H110	H	1.684912	0.225455	0.671254
H111	H	1.274170	-0.433162	0.172430
H112	H	1.774170	0.066838	0.672430
H113	H	1.306316	-0.357754	0.114631
H114	H	1.806316	0.142246	0.614631
H115	H	1.322232	-0.289661	0.255110
H116	H	1.822232	0.210339	0.755110
H117	H	1.290108	-0.365088	0.312912
H118	H	1.790108	0.134912	0.812912
H119	H	1.383120	-0.376044	0.255717
H120	H	1.883120	0.123956	0.755717
C121	C	1.184047	-0.333693	-0.171310
C122	C	1.684047	0.166307	0.328690
C123	C	1.261362	-0.294524	-0.142497
C124	C	1.761362	0.205476	0.357503
C125	C	1.307639	-0.269687	-0.226122
C126	C	1.807639	0.230313	0.273878
H127	H	1.143377	-0.295224	-0.208690
H128	H	1.643377	0.204776	0.291310
H129	H	1.203680	-0.381894	-0.210196
H130	H	1.703680	0.118106	0.289804
H131	H	1.241729	-0.246329	-0.103628
H132	H	1.741729	0.253671	0.396372
H133	H	1.302054	-0.332978	-0.105129
H134	H	1.802054	0.167022	0.394871
H135	H	1.327272	-0.317887	-0.265007
H136	H	1.827272	0.182113	0.234993
H137	H	1.266962	-0.231220	-0.263497
H138	H	1.766962	0.268780	0.236503
H139	H	1.360107	-0.243114	-0.206584
H140	H	1.860107	0.256886	0.293416
C141	C	0.994758	-0.432864	-0.171416
C142	C	1.494758	0.067136	0.328584
C143	C	0.903473	-0.393804	-0.171046
C144	C	1.403473	0.106196	0.328954
C145	C	0.857159	-0.418384	-0.254763
C146	C	1.357159	0.081616	0.245237
H147	H	0.994350	-0.492396	-0.171165
H148	H	1.494350	0.007604	0.328835
H149	H	1.025667	-0.416486	-0.228713
H150	H	1.525667	0.083514	0.271287
H151	H	0.872572	-0.410187	-0.113764
H152	H	1.372572	0.089813	0.386236
H153	H	0.903854	-0.334273	-0.171311
H154	H	1.403854	0.165727	0.328689
H155	H	0.888067	-0.402007	-0.312060
H156	H	1.388067	0.097993	0.187940
H157	H	0.856757	-0.477916	-0.254505
H158	H	1.356757	0.022084	0.245495
H159	H	0.795220	-0.391880	-0.254527
H160	H	1.295220	0.108120	0.245473
