data_functionalizedCrystal
_audit_creation_method	'MofGen! by Chris Wilmer'
_symmetry_space_group_name_H-M	'P1'
_symmetry_Int_Tables_number	1
_symmetry_cell_setting	triclinic
loop_
_symmetry_equiv_pos_as_xyz
  x,y,z
_cell_length_a	10.540539
_cell_length_b	13.596369
_cell_length_c	14.519731
_cell_angle_alpha	90.011346
_cell_angle_beta	95.892827
_cell_angle_gamma	89.996748
loop_
_atom_site_label
_atom_site_type_symbol
_atom_site_fract_x
_atom_site_fract_y
_atom_site_fract_z
O1	O	1.684575	-0.081758	-0.129968
O2	O	2.184575	0.418242	0.370032
O3	O	1.315039	-0.081771	-0.142213
O4	O	1.815039	0.418229	0.357787
O5	O	1.509591	-0.081745	-0.001906
O6	O	2.009591	0.418255	0.498094
O7	O	1.490023	-0.081785	-0.270275
O8	O	1.990023	0.418215	0.229725
O9	O	1.509571	0.081838	-0.001899
O10	O	2.009571	0.581838	0.498101
O11	O	1.315019	0.081811	-0.142206
O12	O	1.815019	0.581811	0.357794
O13	O	1.684556	0.081825	-0.129960
O14	O	2.184556	0.581825	0.370040
Zn15	Zn	1.499785	0.107790	-0.136082
Zn16	Zn	1.999785	0.607790	0.363918
Zn17	Zn	1.499810	-0.107737	-0.136092
Zn18	Zn	1.999810	0.392263	0.363908
O19	O	1.490004	0.081798	-0.270268
O20	O	1.990004	0.581798	0.229732
C21	C	1.267735	0.000019	-0.141291
C22	C	1.767735	0.500019	0.358709
C23	C	1.126815	0.000014	-0.138544
C24	C	1.626815	0.500014	0.361456
N25	N	1.499776	0.254882	-0.136075
N26	N	1.999776	0.754882	0.363925
N27	N	1.499828	-0.254829	-0.136092
N28	N	1.999828	0.245171	0.363908
C29	C	0.944452	0.000412	-0.033265
C30	C	1.444452	0.500412	0.466735
C31	C	1.091042	0.000033	-0.036050
C32	C	1.591042	0.500033	0.463950
C33	C	1.064655	-0.093403	-0.187872
C34	C	1.564655	0.406597	0.312128
C35	C	0.918146	-0.093471	-0.184374
C36	C	1.418146	0.406529	0.315626
C37	C	0.917614	0.092553	-0.186451
C38	C	1.417614	0.592553	0.313549
C39	C	1.064587	0.093778	-0.187395
C40	C	1.564587	0.593778	0.312605
C41	C	1.731859	0.000033	-0.130883
C42	C	2.231859	0.500033	0.369117
C43	C	1.872780	0.000030	-0.133630
C44	C	2.372780	0.500030	0.366370
C45	C	1.508664	0.000050	0.032462
C46	C	2.008664	0.500050	0.532462
C47	C	1.505917	0.000059	0.134857
C48	C	2.005917	0.500059	0.634857
C49	C	1.499808	0.656173	-0.136093
C50	C	1.999808	1.156173	0.363907
C51	C	1.499796	0.544522	-0.136091
C52	C	1.999796	1.044522	0.363909
C53	C	1.499793	0.455531	-0.136084
C54	C	1.999793	0.955531	0.363916
C55	C	1.499779	0.343873	-0.136081
C56	C	1.999779	0.843873	0.363919
C57	C	1.503684	0.000063	0.218013
C58	C	2.003684	0.500063	0.718013
C59	C	1.500895	0.000064	0.322337
C60	C	2.000895	0.500064	0.822337
C61	C	1.498681	0.000064	0.405488
C62	C	1.998681	0.500064	0.905488
C63	C	1.495892	0.000067	0.509818
C64	C	1.995892	0.500067	1.009818
C65	C	1.490931	0.000022	0.695364
C66	C	1.990931	0.500022	1.195364
C67	C	1.493678	0.000068	0.592969
C68	C	1.993678	0.500068	1.092969
H69	H	1.134040	0.066999	0.002763
H70	H	1.634040	0.566999	0.502763
H71	H	1.107598	-0.162916	-0.153612
H72	H	1.607598	0.337084	0.346388
N73	N	0.878440	0.181377	-0.144832
N74	N	1.378440	0.681377	0.355168
N75	N	0.816992	0.177565	-0.075727
N76	N	1.316992	0.677565	0.424273
H77	H	0.789323	0.240292	-0.046325
H78	H	1.289323	0.740292	0.453675
N79	N	0.907060	-0.083127	0.017334
N80	N	1.407060	0.416873	0.517334
N81	N	0.855595	-0.071273	0.090356
N82	N	1.355595	0.428727	0.590356
H83	H	0.829177	-0.130271	0.126091
H84	H	1.329177	0.369729	0.626091
H85	H	0.916268	0.067408	0.007228
H86	H	1.416268	0.567408	0.507228
N87	N	1.143908	-0.084110	0.012976
N88	N	1.643908	0.415890	0.512976
N89	N	1.072523	-0.142741	0.049352
N90	N	1.572523	0.357259	0.549352
H91	H	1.109858	-0.202173	0.083979
H92	H	1.609858	0.297827	0.583979
H93	H	1.088057	0.099406	-0.262119
H94	H	1.588057	0.599406	0.237881
N95	N	1.116404	0.180470	-0.142169
N96	N	1.616404	0.680470	0.357831
N97	N	1.198860	0.173303	-0.074212
N98	N	1.698860	0.673303	0.425788
H99	H	1.235464	0.234528	-0.042268
H100	H	1.735464	0.734528	0.457732
H101	H	0.869433	-0.097722	-0.258086
H102	H	1.369433	0.402278	0.241914
N103	N	0.883239	-0.181062	-0.138648
N104	N	1.383239	0.318938	0.361352
N105	N	0.967042	-0.241717	-0.109534
N106	N	1.467042	0.258283	0.390466
H107	H	0.942396	-0.303581	-0.077237
H108	H	1.442396	0.196419	0.422763
N109	N	1.091744	-0.097769	-0.282296
N110	N	1.591744	0.402231	0.217704
N111	N	1.157323	-0.031923	-0.314363
N112	N	1.657323	0.468077	0.185637
H113	H	1.176457	-0.035002	-0.381050
H114	H	1.676457	0.464998	0.118950
N115	N	0.857428	0.093321	-0.279319
N116	N	1.357428	0.593321	0.220681
N117	N	0.781826	0.026095	-0.306593
N118	N	1.281826	0.526095	0.193407
H119	H	0.739313	0.026629	-0.372178
H120	H	1.239313	0.526629	0.127822
