data_functionalizedCrystal
_audit_creation_method	'MofGen! by Chris Wilmer'
_symmetry_space_group_name_H-M	'P1'
_symmetry_Int_Tables_number	1
_symmetry_cell_setting	triclinic
loop_
_symmetry_equiv_pos_as_xyz
  x,y,z
_cell_length_a	11.792241
_cell_length_b	8.597340
_cell_length_c	7.681481
_cell_angle_alpha	103.474906
_cell_angle_beta	84.218353
_cell_angle_gamma	84.766049
loop_
_atom_site_label
_atom_site_type_symbol
_atom_site_fract_x
_atom_site_fract_y
_atom_site_fract_z
O1	O	0.156959	2.101203	0.172360
O2	O	0.656959	2.601203	0.672360
O3	O	0.175043	1.637298	0.101974
O4	O	0.675043	2.137298	0.601974
O5	O	0.000779	1.880509	0.138888
O6	O	0.500779	2.380509	0.638888
O7	O	0.331222	1.857991	0.135447
O8	O	0.831222	2.357991	0.635447
O9	O	-0.020718	1.910444	0.436289
O10	O	0.479282	2.410444	0.936289
O11	O	0.153545	1.667233	0.399375
O12	O	0.653545	2.167233	0.899375
O13	O	0.135461	2.131137	0.469762
O14	O	0.635461	2.631137	0.969762
Zn15	Zn	0.141090	1.903938	0.481787
Zn16	Zn	0.641090	2.403938	0.981787
Zn17	Zn	0.169414	1.864497	0.089948
Zn18	Zn	0.669414	2.364497	0.589948
O19	O	0.309724	1.887926	0.432848
O20	O	0.809724	2.387926	0.932848
C21	C	0.163549	1.592875	0.241664
C22	C	0.663549	2.092875	0.741664
C23	C	0.161317	1.415912	0.214814
C24	C	0.661317	1.915912	0.714814
C25	C	-0.052254	1.894062	0.287373
C26	C	0.447746	2.394062	0.787373
C27	C	-0.178249	1.889829	0.286729
C28	C	0.321751	2.389829	0.786729
C29	C	-0.408924	1.882042	0.285518
C30	C	0.091076	2.382042	0.785518
C31	C	-0.280560	1.886368	0.286191
C32	C	0.219440	2.386368	0.786191
C33	C	0.362758	1.874373	0.284358
C34	C	0.862758	2.374373	0.784358
C35	C	0.488754	1.878605	0.284991
C36	C	0.988754	2.378605	0.784991
C37	C	0.146955	2.175560	0.330068
C38	C	0.646955	2.675560	0.830068
C39	C	0.149187	2.352522	0.356906
C40	C	0.649187	2.852522	0.856906
N41	N	0.121759	1.930867	0.749209
N42	N	0.621759	2.430867	1.249209
N43	N	0.188736	1.837581	-0.177471
N44	N	0.688736	2.337581	0.322529
H45	H	0.169995	1.334791	0.072606
H46	H	0.669995	1.834791	0.572606
N47	N	0.137695	1.459963	0.545265
N48	N	0.637695	1.959963	1.045265
H49	H	0.202520	1.425931	0.609926
H50	H	0.702520	1.925931	1.109926
H51	H	0.061856	1.450514	0.613536
H52	H	0.561856	1.950514	1.113536
N53	N	0.031210	2.057031	0.867963
N54	N	0.531210	2.557031	1.367963
H55	H	-0.046995	2.034589	0.832581
H56	H	0.453005	2.534589	1.332581
H57	H	0.046652	2.166993	0.852578
H58	H	0.546652	2.666993	1.352578
H59	H	0.257099	1.742356	0.732879
H60	H	0.757099	2.242356	1.232879
