data_functionalizedCrystal
_audit_creation_method	'MofGen! by Chris Wilmer'
_symmetry_space_group_name_H-M	'P1'
_symmetry_Int_Tables_number	1
_symmetry_cell_setting	triclinic
loop_
_symmetry_equiv_pos_as_xyz
  x,y,z
_cell_length_a	16.625547
_cell_length_b	16.625545
_cell_length_c	19.076919
_cell_angle_alpha	92.272080
_cell_angle_beta	92.276735
_cell_angle_gamma	90.025495
loop_
_atom_site_label
_atom_site_type_symbol
_atom_site_fract_x
_atom_site_fract_y
_atom_site_fract_z
Zn1	Zn	1.214314	-0.339340	-0.398033
Zn2	Zn	1.714314	0.160660	0.101967
Zn3	Zn	1.219635	-0.468761	-0.280341
Zn4	Zn	1.719635	0.031239	0.219659
Zn5	Zn	1.084901	-0.333946	-0.280344
Zn6	Zn	1.584901	0.166054	0.219656
Zn7	Zn	1.079441	-0.474132	-0.397988
Zn8	Zn	1.579441	0.025868	0.102012
O9	O	1.149573	-0.404045	-0.339177
O10	O	1.649573	0.095955	0.160823
O11	O	1.327851	-0.356518	-0.382439
O12	O	1.827851	0.143482	0.117561
O13	O	1.206275	-0.446372	-0.181853
O14	O	1.706275	0.053628	0.318147
O15	O	1.102126	-0.221830	-0.295976
O16	O	1.602126	0.278170	0.204024
O17	O	1.331761	-0.451602	-0.295972
O18	O	1.831761	0.048398	0.204028
O19	O	1.197205	-0.225793	-0.382442
O20	O	1.697205	0.274207	0.117558
O21	O	1.107286	-0.347324	-0.181855
O22	O	1.607286	0.152676	0.318145
O23	O	0.971345	-0.352532	-0.295931
O24	O	1.471345	0.147468	0.204069
O25	O	1.092820	-0.460757	-0.496482
O26	O	1.592820	0.039243	0.003518
O27	O	0.967334	-0.455527	-0.382364
O28	O	1.467334	0.044473	0.117636
O29	O	1.191910	-0.361726	-0.496516
O30	O	1.691910	0.138274	0.003484
O31	O	1.200980	-0.582305	-0.295927
O32	O	1.700980	-0.082305	0.204073
O33	O	1.097980	-0.586251	-0.382361
O34	O	1.597980	-0.086251	0.117639
C35	C	0.940083	-0.404027	-0.339143
C36	C	1.440083	0.095973	0.160857
C37	C	0.850462	-0.404040	-0.339146
C38	C	1.350462	0.095960	0.160854
C39	C	1.149486	-0.613535	-0.339154
C40	C	1.649486	-0.113535	0.160846
C41	C	1.149522	-0.703156	-0.339168
C42	C	1.649522	-0.203156	0.160832
C43	C	0.777679	-0.404042	-0.339155
C44	C	1.277679	0.095958	0.160845
C45	C	0.686370	-0.404047	-0.339172
C46	C	1.186370	0.095953	0.160828
C47	C	0.613593	-0.404056	-0.339190
C48	C	1.113593	0.095944	0.160810
C49	C	0.522278	-0.404062	-0.339207
C50	C	1.022278	0.095938	0.160793
C51	C	1.149552	-0.775939	-0.339182
C52	C	1.649552	-0.275939	0.160818
C53	C	1.149599	-0.867248	-0.339198
C54	C	1.649599	-0.367248	0.160802
C55	C	1.149640	-0.940025	-0.339207
C56	C	1.649640	-0.440025	0.160793
C57	C	1.149686	-1.031340	-0.339221
C58	C	1.649686	-0.531340	0.160779
C59	C	1.359880	-0.404063	-0.339210
C60	C	1.859880	0.095937	0.160790
C61	C	1.449500	-0.404070	-0.339225
C62	C	1.949500	0.095930	0.160775
C63	C	1.141162	-0.412442	-0.522750
C64	C	1.641162	0.087558	-0.022750
C65	C	1.137578	-0.416021	-0.600979
C66	C	1.637578	0.083979	-0.100979
C67	C	1.149681	-0.193737	-0.339214
C68	C	1.649681	0.306263	0.160786
C69	C	1.149727	-0.104117	-0.339230
C70	C	1.649727	0.395883	0.160770
C71	C	1.187483	-0.366144	-0.637749
C72	C	1.687483	0.133856	-0.137749
C73	C	1.184106	-0.369504	-0.711253
C74	C	1.684106	0.130496	-0.211253
C75	C	1.130827	-0.422744	-0.747985
C76	C	1.630827	0.077256	-0.247985
C77	C	1.080917	-0.472623	-0.711209
C78	C	1.580917	0.027377	-0.211209
C79	C	1.084291	-0.469259	-0.637707
C80	C	1.584291	0.030741	-0.137707
C81	C	1.115201	-0.438330	-0.967811
C82	C	1.615201	0.061670	-0.467811
C83	C	1.111832	-0.441692	-1.041319
C84	C	1.611832	0.058308	-0.541319
C85	C	1.215020	-0.338572	-1.041357
C86	C	1.715020	0.161428	-0.541357
C87	C	1.218393	-0.335216	-0.967854
C88	C	1.718393	0.164784	-0.467854
C89	C	1.168480	-0.385091	-0.931084
C90	C	1.668480	0.114909	-0.431084
N91	N	1.127375	-0.426181	-0.823117
N92	N	1.627375	0.073819	-0.323117
N93	N	1.171928	-0.381650	-0.855953
N94	N	1.671928	0.118350	-0.355953
C95	C	1.157997	-0.395621	-0.156317
C96	C	1.657997	0.104379	0.343683
C97	C	1.161737	-0.391816	-0.078089
C98	C	1.661737	0.108184	0.421911
H99	H	1.224745	-0.328891	-0.741188
H100	H	1.724745	0.171109	-0.241188
O101	O	1.023445	-0.530044	-0.750822
O102	O	1.523445	-0.030044	-0.250822
H103	H	1.029486	-0.524010	-0.808111
H104	H	1.529486	-0.024010	-0.308111
O105	O	1.061346	-0.492125	-0.928182
O106	O	1.561346	0.007875	-0.428182
H107	H	1.098920	-0.531632	-0.894683
H108	H	1.598920	-0.031632	-0.394683
H109	H	1.043645	-0.509866	-0.607769
H110	H	1.543645	-0.009866	-0.107769
O111	O	1.054352	-0.499107	-1.080940
O112	O	1.554352	0.000893	-0.580940
H113	H	1.088876	-0.541673	-1.114425
H114	H	1.588876	-0.041673	-0.614425
H115	H	1.261780	-0.291864	-0.937951
H116	H	1.761780	0.208136	-0.437951
O117	O	1.268827	-0.284763	-1.081024
O118	O	1.768827	0.215237	-0.581024
H119	H	1.308291	-0.322375	-1.114526
H120	H	1.808291	0.177625	-0.614526
O121	O	1.244948	-0.308720	-0.598131
O122	O	1.744948	0.191280	-0.098131
H123	H	1.279077	-0.274598	-0.636052
H124	H	1.779077	0.225402	-0.136052
