data_functionalizedCrystal
_audit_creation_method	'MofGen! by Chris Wilmer'
_symmetry_space_group_name_H-M	'P1'
_symmetry_Int_Tables_number	1
_symmetry_cell_setting	triclinic
loop_
_symmetry_equiv_pos_as_xyz
  x,y,z
_cell_length_a	11.792254
_cell_length_b	11.792241
_cell_length_c	11.295483
_cell_angle_alpha	94.123059
_cell_angle_beta	85.866389
_cell_angle_gamma	84.196007
loop_
_atom_site_label
_atom_site_type_symbol
_atom_site_fract_x
_atom_site_fract_y
_atom_site_fract_z
O1	O	1.514498	0.148040	-0.099024
O2	O	1.184159	0.164058	-0.099027
O3	O	1.357345	-0.009121	-0.099017
O4	O	1.341313	0.321218	-0.099034
O5	O	1.342133	0.006066	0.099033
O6	O	1.168948	0.179245	0.099023
O7	O	1.499287	0.163227	0.099026
Cu8	Cu	1.332729	0.172623	0.117108
Cu9	Cu	1.350718	0.154662	-0.117109
O10	O	1.326102	0.336406	0.099016
C11	C	1.134263	0.170642	-0.000002
C12	C	1.008250	0.167622	-0.000003
C13	C	1.348732	-0.043818	0.000007
C14	C	1.345717	-0.169832	0.000006
C15	C	0.905914	0.165168	-0.000008
C16	C	0.777527	0.162099	-0.000009
C17	C	1.340176	-0.400546	-0.000014
C18	C	1.343255	-0.272160	-0.000003
C19	C	1.549183	0.156642	-0.000002
C20	C	1.675197	0.159662	-0.000009
C21	C	1.334715	0.371103	-0.000011
C22	C	1.337730	0.497116	-0.000018
N23	N	1.320084	0.185254	0.281843
N24	N	1.363371	0.142022	-0.281845
C25	C	1.454392	0.051028	0.531140
C26	C	1.444845	0.060582	0.655804
C27	C	1.291437	0.213910	0.655835
C28	C	1.300985	0.204356	0.531172
C29	C	1.382466	0.122913	0.468829
C30	C	1.392018	0.113366	0.344164
C31	C	1.238606	0.266688	0.344197
C32	C	1.229059	0.276242	0.468860
H33	H	1.458367	0.047054	0.293405
H34	H	1.225090	0.280212	0.706611
H35	H	1.520745	-0.015279	0.480380
H36	H	1.503413	0.002044	0.706534
C37	C	1.139426	0.365817	0.537452
N38	N	1.071912	0.433286	0.589114
C39	C	1.159482	0.345768	0.275645
N40	N	1.099889	0.405330	0.224009
