data_functionalizedCrystal
_audit_creation_method	'MofGen! by Chris Wilmer'
_symmetry_space_group_name_H-M	'P1'
_symmetry_Int_Tables_number	1
_symmetry_cell_setting	triclinic
loop_
_symmetry_equiv_pos_as_xyz
  x,y,z
_cell_length_a	21.295418
_cell_length_b	16.120484
_cell_length_c	16.120297
_cell_angle_alpha	95.614431
_cell_angle_beta	87.141709
_cell_angle_gamma	87.057675
loop_
_atom_site_label
_atom_site_type_symbol
_atom_site_fract_x
_atom_site_fract_y
_atom_site_fract_z
Zn1	Zn	0.929946	0.356428	0.489852
Zn2	Zn	1.429946	0.856428	0.989852
Zn3	Zn	0.929866	0.489118	0.357163
Zn4	Zn	1.429866	0.989118	0.857163
Zn5	Zn	0.830299	0.349398	0.350056
Zn6	Zn	1.330299	0.849398	0.850056
Zn7	Zn	0.819029	0.496197	0.496838
Zn8	Zn	1.319029	0.996197	0.996838
O9	O	0.877285	0.422785	0.423477
O10	O	1.377285	0.922785	0.923477
O11	O	1.018023	0.374009	0.472302
O12	O	1.518023	0.874009	0.972302
O13	O	0.921342	0.464679	0.239260
O14	O	1.421342	0.964679	0.739260
O15	O	0.848268	0.233364	0.362702
O16	O	1.348268	0.733364	0.862702
O17	O	1.017965	0.471496	0.374815
O18	O	1.517965	0.971496	0.874815
O19	O	0.921478	0.238529	0.465410
O20	O	1.421478	0.738529	0.965410
O21	O	0.848191	0.362028	0.234039
O22	O	1.348191	0.862028	0.734039
O23	O	0.740716	0.368892	0.369476
O24	O	1.240716	0.868892	0.869476
O25	O	0.829059	0.483561	0.612871
O26	O	1.329059	0.983561	1.112871
O27	O	0.732436	0.476745	0.477316
O28	O	1.232436	0.976745	0.977316
O29	O	0.910549	0.380873	0.607739
O30	O	1.410549	0.880873	1.107739
O31	O	0.910414	0.607024	0.381589
O32	O	1.410414	1.107024	0.881589
O33	O	0.828982	0.612225	0.484207
O34	O	1.328982	1.112225	0.984207
C35	C	0.713736	0.422824	0.423383
C36	C	1.213736	0.922824	0.923383
C37	C	0.643767	0.422862	0.423364
C38	C	1.143767	0.922862	0.923364
C39	C	0.868482	0.639953	0.434445
C40	C	1.368482	1.139953	0.934445
C41	C	0.864773	0.732860	0.439166
C42	C	1.364773	1.232860	0.939166
C43	C	0.868555	0.433791	0.641479
C44	C	1.368555	0.933791	1.141479
C45	C	0.864835	0.438481	0.734379
C46	C	1.364835	0.938481	1.234379
C47	C	0.606605	0.479088	0.479440
C48	C	1.106605	0.979088	0.979440
C49	C	0.540862	0.479069	0.479476
C50	C	1.040862	0.979069	0.979476
C51	C	0.512283	0.422833	0.423422
C52	C	1.012283	0.922833	0.923422
C53	C	0.549453	0.366597	0.367342
C54	C	1.049453	0.866597	0.867342
C55	C	0.615195	0.366612	0.367313
C56	C	1.115195	0.866612	0.867313
N57	N	0.412215	0.412594	0.349988
N58	N	0.912215	0.912594	0.849988
N59	N	0.349763	0.412585	0.350018
N60	N	0.849763	0.912585	0.850018
C61	C	0.314207	0.422784	0.423508
C62	C	0.814207	0.922784	0.923508
N63	N	0.343462	0.433009	0.496969
N64	N	0.843462	0.933009	0.996969
N65	N	0.405920	0.433022	0.496938
N66	N	0.905920	0.933022	0.996938
C67	C	0.440998	0.422810	0.423448
C68	C	0.940998	0.922810	0.923448
C69	C	0.205759	0.478992	0.479628
C70	C	0.705759	0.978992	0.979628
C71	C	0.140015	0.478968	0.479666
C72	C	0.640015	0.978968	0.979666
C73	C	0.148607	0.366500	0.367524
C74	C	0.648607	0.866500	0.867524
C75	C	0.214350	0.366520	0.367494
C76	C	0.714350	0.866520	0.867494
C77	C	0.242922	0.422771	0.423545
C78	C	0.742922	0.922771	0.923545
C79	C	1.041473	0.422747	0.423572
C80	C	1.541473	0.922747	0.923572
C81	C	1.111440	0.422730	0.423612
C82	C	1.611440	0.922730	0.923612
C83	C	0.886139	0.204770	0.412484
C84	C	1.386139	0.704770	0.912484
C85	C	0.889912	0.111865	0.407800
C86	C	1.389912	0.611865	0.907800
C87	C	0.858003	0.902963	0.447801
C88	C	1.358003	1.402963	0.947801
C89	C	0.896679	0.941768	0.399167
C90	C	1.396679	1.441768	0.899167
C91	C	0.892912	1.036419	0.403972
C92	C	1.392912	1.536419	0.903972
C93	C	0.861769	0.808303	0.442997
C94	C	1.361769	1.308303	0.942997
C95	C	0.886020	0.411762	0.206320
C96	C	1.386020	0.911762	0.706320
C97	C	0.889871	0.406837	0.113409
C98	C	1.389871	0.906837	0.613409
C99	C	0.858021	0.447025	0.904466
C100	C	1.358021	0.947025	1.404466
C101	C	0.896684	0.398295	0.943327
C102	C	1.396684	0.898295	1.443327
C103	C	0.892892	0.403049	1.037970
C104	C	1.392892	0.903049	1.537970
C105	C	0.861811	0.442272	0.809815
C106	C	1.361811	0.942272	1.309815
H107	H	0.510599	0.524854	0.525143
H108	H	1.010599	1.024854	1.025143
C109	C	0.810059	0.953294	0.508208
C110	C	1.310059	1.453294	1.008208
C111	C	0.775122	0.898894	0.552150
C112	C	1.275122	1.398894	1.052150
C113	C	0.730955	0.945240	0.607809
C114	C	1.230955	1.445240	1.107809
H115	H	0.782546	0.985799	0.477975
H116	H	1.282546	1.485799	0.977975
H117	H	0.831314	0.989123	0.546401
H118	H	1.331314	1.489123	1.046401
H119	H	0.753867	0.863080	0.513962
H120	H	1.253867	1.363080	1.013962
H121	H	0.802617	0.866388	0.582400
H122	H	1.302617	1.366388	1.082400
H123	H	0.752210	0.981069	0.646003
H124	H	1.252210	1.481069	1.146003
H125	H	0.703447	0.977743	0.577569
H126	H	1.203447	1.477743	1.077569
H127	H	0.707248	0.908337	0.637636
H128	H	1.207248	1.408337	1.137636
C129	C	0.944520	0.337841	0.892821
C130	C	1.444520	0.837841	1.392821
C131	C	0.913020	0.281817	0.839960
C132	C	1.413020	0.781817	1.339960
C133	C	0.957063	0.226120	0.793414
C134	C	1.457063	0.726120	1.293414
H135	H	0.968296	0.307810	0.929558
H136	H	1.468296	0.807810	1.429558
H137	H	0.971983	0.368097	0.860351
H138	H	1.471983	0.868097	1.360351
H139	H	0.885567	0.251564	0.872427
H140	H	1.385567	0.751564	1.372427
H141	H	0.889247	0.311824	0.803206
H142	H	1.389247	0.811824	1.303206
H143	H	0.984526	0.256376	0.760944
H144	H	1.484526	0.756376	1.260944
H145	H	0.980836	0.196095	0.830158
H146	H	1.480836	0.696095	1.330158
H147	H	0.935697	0.188107	0.757537
H148	H	1.435697	0.688107	1.257537
C149	C	0.637507	0.540189	0.540393
C150	C	1.137507	1.040189	1.040393
C151	C	0.590885	0.589411	0.589525
C152	C	1.090885	1.089411	1.089525
C153	C	0.619330	0.645697	0.645691
C154	C	1.119330	1.145697	1.145691
H155	H	0.662926	0.575026	0.510284
H156	H	1.162926	1.075026	1.010284
H157	H	0.663002	0.510140	0.575287
H158	H	1.163002	1.010140	1.075287
H159	H	0.565401	0.619458	0.554635
H160	H	1.065401	1.119458	1.054635
H161	H	0.565464	0.554597	0.619651
H162	H	1.065464	1.054597	1.119651
H163	H	0.644825	0.615648	0.680585
H164	H	1.144825	1.115648	1.180585
H165	H	0.644748	0.680528	0.615576
H166	H	1.144748	1.180528	1.115576
H167	H	0.587702	0.679096	0.679039
H168	H	1.087702	1.179096	1.179039
C169	C	0.518309	0.305638	0.306513
C170	C	1.018309	0.805638	0.806513
C171	C	0.452781	0.317677	0.318522
C172	C	0.952781	0.817677	0.818522
C173	C	0.424072	0.261542	0.262493
C174	C	0.924072	0.761542	0.762493
H175	H	0.530818	0.250082	0.315938
H176	H	1.030818	0.750082	0.815938
H177	H	0.530770	0.314961	0.250929
H178	H	1.030770	0.814961	0.750929
H179	H	0.440325	0.308347	0.374093
H180	H	0.940325	0.808347	0.874093
H181	H	0.440254	0.373222	0.309090
H182	H	0.940254	0.873222	0.809090
H183	H	0.436532	0.270865	0.206908
H184	H	0.936532	0.770865	0.706908
H185	H	0.436585	0.205989	0.271922
H186	H	0.936585	0.705989	0.771922
H187	H	0.379608	0.269708	0.270627
H188	H	0.879608	0.769708	0.770627
C189	C	0.236667	0.540089	0.540583
C190	C	0.736667	1.040089	1.040583
C191	C	0.190047	0.589305	0.589724
C192	C	0.690047	1.089305	1.089724
C193	C	0.218493	0.645587	0.645893
C194	C	0.718493	1.145587	1.145893
H195	H	0.262083	0.574929	0.510477
H196	H	0.762083	1.074929	1.010477
H197	H	0.262165	0.510036	0.575471
H198	H	0.762165	1.010036	1.075471
H199	H	0.164560	0.619356	0.554840
H200	H	0.664560	1.119356	1.054840
H201	H	0.164628	0.554488	0.619849
H202	H	0.664628	1.054488	1.119849
H203	H	0.243991	0.615534	0.680781
H204	H	0.743991	1.115534	1.180781
H205	H	0.243909	0.680421	0.615780
H206	H	0.743909	1.180421	1.115780
H207	H	0.186867	0.678982	0.679247
H208	H	0.686867	1.178982	1.179247
H209	H	0.822076	0.492312	0.942272
H210	H	1.322076	0.992312	1.442272
H211	H	0.645452	0.320823	0.321648
H212	H	1.145452	0.820823	0.821648
H213	H	0.109758	0.524752	0.525335
H214	H	0.609758	1.024752	1.025335
C215	C	0.944564	0.891391	0.338699
C216	C	1.444564	1.391391	0.838699
C217	C	0.933395	0.908455	0.257042
C218	C	1.433395	1.408455	0.757042
C219	C	0.977495	0.862069	0.201318
C220	C	1.477495	1.362069	0.701318
H221	H	0.940804	0.833543	0.343330
H222	H	1.440804	1.333543	0.843330
H223	H	0.985819	0.906210	0.351653
H224	H	1.485819	1.406210	0.851653
H225	H	0.892150	0.893631	0.244092
H226	H	1.392150	1.393631	0.744092
H227	H	0.937160	0.966294	0.252385
H228	H	1.437160	1.466294	0.752385
H229	H	1.018750	0.876888	0.214272
H230	H	1.518750	1.376888	0.714272
H231	H	0.973731	0.804224	0.205957
H232	H	1.473731	1.304224	0.705957
H233	H	0.969927	0.873647	0.145909
H234	H	1.469927	1.373647	0.645909
H235	H	0.125339	0.320707	0.321888
H236	H	0.625339	0.820707	0.821888
H237	H	0.244608	0.320739	0.321827
H238	H	0.744608	0.820739	0.821827
