data_functionalizedCrystal
_audit_creation_method	'MofGen! by Chris Wilmer'
_symmetry_space_group_name_H-M	'P1'
_symmetry_Int_Tables_number	1
_symmetry_cell_setting	triclinic
loop_
_symmetry_equiv_pos_as_xyz
  x,y,z
_cell_length_a	19.288864
_cell_length_b	14.421503
_cell_length_c	19.288859
_cell_angle_alpha	89.997270
_cell_angle_beta	83.134986
_cell_angle_gamma	90.021309
loop_
_atom_site_label
_atom_site_type_symbol
_atom_site_fract_x
_atom_site_fract_y
_atom_site_fract_z
O1	O	0.921350	0.077408	0.086640
O2	O	1.421350	0.577408	0.586640
O3	O	0.719089	0.077345	0.098329
O4	O	1.219089	0.577345	0.598329
O5	O	0.826066	0.077373	-0.008646
O6	O	1.326066	0.577373	0.491354
O7	O	0.814373	0.077380	0.193615
O8	O	1.314373	0.577380	0.693615
O9	O	0.826049	-0.076850	-0.008634
O10	O	1.326049	0.423150	0.491366
O11	O	0.719072	-0.076878	0.098341
O12	O	1.219072	0.423122	0.598341
O13	O	0.921333	-0.076815	0.086652
O14	O	1.421333	0.423185	0.586652
Cu15	Cu	0.820201	-0.090929	0.092498
Cu16	Cu	1.320201	0.409071	0.592498
Cu17	Cu	0.820221	0.091459	0.092483
Cu18	Cu	1.320221	0.591459	0.592483
O19	O	0.814356	-0.076843	0.193627
O20	O	1.314356	0.423157	0.693627
C21	C	0.693204	0.000225	0.097959
C22	C	1.193204	0.500225	0.597959
C23	C	0.616101	0.000201	0.096830
C24	C	1.116101	0.500201	0.596830
N25	N	0.820192	-0.219210	0.092508
N26	N	1.320192	0.280790	0.592508
C27	C	0.571403	0.000218	0.159598
C28	C	1.071403	0.500218	0.659598
C29	C	0.498956	0.000228	0.158537
C30	C	0.998956	0.500228	0.658537
C31	C	0.471210	0.000240	0.094705
C32	C	0.971210	0.500240	0.594705
C33	C	0.515918	0.000218	0.031929
C34	C	1.015918	0.500218	0.531929
C35	C	0.588363	0.000198	0.032991
C36	C	1.088363	0.500198	0.532991
C37	C	0.362955	0.054301	0.044521
C38	C	0.862955	0.554301	0.544521
C39	C	0.290511	0.054326	0.043462
C40	C	0.790511	0.554326	0.543462
C41	C	0.247765	0.000296	0.091425
C42	C	0.747765	0.500296	0.591425
C43	C	0.277470	-0.053747	0.140461
C44	C	0.777470	0.446253	0.640461
C45	C	0.349916	-0.053767	0.141523
C46	C	0.849916	0.446233	0.641523
C47	C	0.392656	0.000260	0.093546
C48	C	0.892656	0.500260	0.593546
C49	C	0.124511	0.000322	0.153048
C50	C	0.624511	0.500322	0.653048
C51	C	0.052063	0.000327	0.151984
C52	C	0.552063	0.500327	0.651984
C53	C	0.069026	0.000326	0.025374
C54	C	0.569026	0.500326	0.525374
C55	C	0.141472	0.000312	0.026439
C56	C	0.641472	0.500312	0.526439
C57	C	0.169210	0.000315	0.090278
C58	C	0.669210	0.500315	0.590278
C59	C	0.771132	-0.530676	0.142358
C60	C	1.271132	-0.030676	0.642358
C61	C	0.757278	-0.468856	0.079829
C62	C	1.257278	0.031144	0.579829
C63	C	0.820221	-0.591099	0.092480
C64	C	1.320221	-0.091099	0.592480
C65	C	0.834028	-0.468825	0.155020
C66	C	1.334028	0.031175	0.655020
C67	C	0.820205	-0.408377	0.092497
C68	C	1.320205	0.091623	0.592497
C69	C	0.806336	-0.530639	0.029920
C70	C	1.306336	-0.030639	0.529920
C71	C	0.883113	-0.530614	0.105152
C72	C	1.383113	-0.030614	0.605152
C73	C	0.869286	-0.468822	0.042578
C74	C	1.369286	0.031178	0.542578
C75	C	0.820228	-0.696360	0.092471
C76	C	1.320228	-0.196360	0.592471
C77	C	0.820198	-0.303118	0.092499
C78	C	1.320198	0.196882	0.592499
C79	C	0.947218	0.000307	0.087022
C80	C	1.447218	0.500307	0.587022
C81	C	1.024322	0.000337	0.088151
C82	C	1.524322	0.500337	0.588151
C83	C	0.825682	0.000262	-0.034516
C84	C	1.325682	0.500262	0.465484
C85	C	0.824555	0.000263	-0.111620
C86	C	1.324555	0.500263	0.388380
N87	N	0.820236	0.219740	0.092468
N88	N	1.320236	0.719740	0.592468
C89	C	0.879698	0.000305	-0.675661
C90	C	1.379698	0.500305	-0.175661
C91	C	0.880764	0.000297	-0.603215
C92	C	1.380764	0.500297	-0.103215
C93	C	0.817994	0.000278	-0.558508
C94	C	1.317994	0.500278	-0.058508
C95	C	0.754155	0.000242	-0.586253
C96	C	1.254155	0.500242	-0.086253
C97	C	0.753092	0.000241	-0.658698
C98	C	1.253092	0.500241	-0.158698
C99	C	0.771187	0.054293	-0.437238
C100	C	1.271187	0.554293	0.062762
C101	C	0.772254	0.054300	-0.364795
C102	C	1.272254	0.554300	0.135205
C103	C	0.821272	0.000278	-0.335062
C104	C	1.321272	0.500278	0.164938
C105	C	0.869236	-0.053739	-0.377783
C106	C	1.369236	0.446261	0.122217
C107	C	0.868173	-0.053741	-0.450229
C108	C	1.368173	0.446259	0.049771
C109	C	0.819141	0.000279	-0.479952
C110	C	1.319141	0.500279	0.020048
C111	C	0.886262	0.000298	-0.228770
C112	C	1.386262	0.500298	0.271230
C113	C	0.887325	0.000284	-0.156322
C114	C	1.387325	0.500284	0.343678
C115	C	0.760715	0.000239	-0.139362
C116	C	1.260715	0.500239	0.360638
C117	C	0.759654	0.000243	-0.211809
C118	C	1.259654	0.500243	0.288191
C119	C	0.822430	0.000277	-0.256509
C120	C	1.322430	0.500277	0.243491
C121	C	0.814740	0.000270	0.219498
C122	C	1.314740	0.500270	0.719498
C123	C	0.815868	0.000275	0.296602
C124	C	1.315868	0.500275	0.796602
H125	H	0.462556	0.000239	0.209652
H126	H	0.962556	0.500239	0.709652
O127	O	0.691065	0.000383	-0.685612
O128	O	1.191065	0.500383	-0.185612
C129	C	0.652813	0.080230	-0.662736
C130	C	1.152813	0.580230	-0.162736
H131	H	0.690149	0.136069	-0.647782
H132	H	1.190149	0.636069	-0.147782
H133	H	0.623403	0.107034	-0.706533
H134	H	1.123403	0.607034	-0.206533
H135	H	0.613957	0.062154	-0.615397
H136	H	1.113957	0.562154	-0.115397
H137	H	0.937378	0.000325	-0.265167
H138	H	1.437378	0.500325	0.234833
O139	O	0.721536	-0.562926	0.192627
O140	O	1.221536	-0.062926	0.692627
C141	C	0.686378	-0.487463	0.227481
C142	C	1.186378	0.012537	0.727481
H143	H	0.691740	-0.423785	0.192225
H144	H	1.191740	0.076215	0.692225
H145	H	0.628757	-0.505372	0.240819
H146	H	1.128757	-0.005372	0.740819
H147	H	0.710205	-0.472210	0.277584
H148	H	1.210205	0.027790	0.777584
H149	H	0.794589	-0.557678	-0.022973
H150	H	1.294589	-0.057678	0.477027
H151	H	0.845722	-0.441691	0.207905
H152	H	1.345722	0.058309	0.707905
H153	H	0.374099	-0.097774	0.181447
H154	H	0.874099	0.402226	0.681447
O155	O	0.693872	-0.436435	0.066925
O156	O	1.193872	0.063565	0.566925
C157	C	0.701822	-0.382639	0.005448
C158	C	1.201822	0.117361	0.505448
H159	H	0.751903	-0.403705	-0.028320
H160	H	1.251903	0.096295	0.471680
H161	H	0.655273	-0.394586	-0.024732
H162	H	1.155273	0.105414	0.475268
H163	H	0.704716	-0.306128	0.019685
H164	H	1.204716	0.193872	0.519685
O165	O	0.697629	0.000390	-0.238722
O166	O	1.197629	0.500390	0.261278
C167	C	0.659379	0.080239	-0.215849
C168	C	1.159379	0.580239	0.284151
H169	H	0.696716	0.136079	-0.200899
H170	H	1.196716	0.636079	0.299101
H171	H	0.629967	0.107040	-0.259645
H172	H	1.129967	0.607040	0.240355
H173	H	0.620524	0.062167	-0.168508
H174	H	1.120524	0.562167	0.331492
H175	H	0.930816	0.000327	-0.712052
H176	H	1.430816	0.500327	-0.212052
H177	H	0.910795	-0.441836	0.000360
H178	H	1.410795	0.058164	0.500360
H179	H	0.593982	0.000221	0.211580
H180	H	1.093982	0.500221	0.711580
H181	H	0.932744	0.000321	-0.580626
H182	H	1.432744	0.500321	-0.080626
O183	O	0.949395	0.000351	-0.129492
O184	O	1.449395	0.500351	0.370508
C185	C	1.004570	0.000358	-0.184484
C186	C	1.504570	0.500358	0.315516
H187	H	0.985255	0.029551	-0.233639
H188	H	1.485255	0.529551	0.266361
H189	H	1.049152	0.045152	-0.169483
H190	H	1.549152	0.545152	0.330517
H191	H	1.023919	-0.073622	-0.194797
H192	H	1.523919	0.426378	0.305203
O193	O	0.946525	-0.562969	0.118081
O194	O	1.446525	-0.062969	0.618081
C195	C	0.960894	-0.531511	0.184087
C196	C	1.460894	-0.031511	0.684087
H197	H	0.909816	-0.514187	0.217630
H198	H	1.409816	-0.014187	0.717630
H199	H	0.989457	-0.588083	0.210656
H200	H	1.489457	-0.088083	0.710656
H201	H	0.995029	-0.466826	0.177348
H202	H	1.495029	0.033174	0.677348
H203	H	0.242667	-0.097744	0.179517
H204	H	0.742667	0.402256	0.679517
O205	O	0.151345	0.000274	0.215118
O206	O	0.651345	0.500274	0.715118
C207	C	0.096354	0.000305	0.270294
C208	C	0.596354	0.500305	0.770294
H209	H	0.047187	-0.028883	0.250980
H210	H	0.547187	0.471117	0.750980
H211	H	0.111338	-0.044475	0.314877
H212	H	0.611338	0.455525	0.814877
H213	H	0.086071	0.074295	0.289641
H214	H	0.586071	0.574295	0.789641
O215	O	0.914786	-0.106300	-0.491624
O216	O	1.414786	0.393700	0.008376
C217	C	0.958294	-0.153965	-0.449856
C218	C	1.458294	0.346035	0.050144
H219	H	0.930708	-0.160500	-0.394414
H220	H	1.430708	0.339500	0.105586
H221	H	0.970221	-0.226055	-0.472426
H222	H	1.470221	0.273945	0.027574
H223	H	1.009133	-0.113886	-0.448952
H224	H	1.509133	0.386114	0.051048
H225	H	0.909147	-0.097736	-0.353577
H226	H	1.409147	0.402264	0.146423
H227	H	0.709607	0.000215	-0.102962
H228	H	1.209607	0.500215	0.397038
O229	O	0.725595	0.106791	-0.323397
O230	O	1.225595	0.606791	0.176603
C231	C	0.682106	0.154478	-0.365173
C232	C	1.182106	0.654478	0.134827
H233	H	0.681432	0.116266	-0.416823
H234	H	1.181432	0.616266	0.083177
H235	H	0.626826	0.157943	-0.336793
H236	H	1.126826	0.657943	0.163207
H237	H	0.702891	0.227783	-0.375682
H238	H	1.202891	0.727783	0.124318
H239	H	0.731262	0.098277	-0.461439
H240	H	1.231262	0.598277	0.038561
H241	H	0.177866	0.000304	-0.024674
H242	H	0.677866	0.500304	0.475326
O243	O	0.693162	0.000064	-0.542857
O244	O	1.193162	0.500064	-0.042857
C245	C	0.654377	-0.079813	-0.555405
C246	C	1.154377	0.420187	-0.055405
H247	H	0.691119	-0.135630	-0.580277
H248	H	1.191119	0.364370	-0.080277
H249	H	0.626359	-0.106629	-0.503912
H250	H	1.126359	0.393371	-0.003912
H251	H	0.614290	-0.061773	-0.592170
H252	H	1.114290	0.438227	-0.092170
H253	H	0.397754	0.098304	0.005462
H254	H	0.897754	0.598304	0.505462
O255	O	0.489050	0.000357	-0.030121
O256	O	0.989050	0.500357	0.469879
C257	C	0.511935	0.080235	-0.068371
C258	C	1.011935	0.580235	0.431629
H259	H	0.562137	0.106847	-0.049603
H260	H	1.062137	0.606847	0.450397
H261	H	0.522163	0.062269	-0.126245
H262	H	1.022163	0.562269	0.373755
H263	H	0.470013	0.136180	-0.060198
H264	H	0.970013	0.636180	0.439802
H265	H	0.015670	0.000335	0.203100
H266	H	0.515670	0.500335	0.703100
O267	O	0.041967	0.000381	-0.036573
O268	O	0.541967	0.500381	0.463427
C269	C	-0.031561	0.000375	-0.024053
C270	C	0.468439	0.500375	0.475947
H271	H	-0.048732	0.029574	0.030204
H272	H	0.451268	0.529574	0.530204
H273	H	-0.053659	0.045159	-0.064888
H274	H	0.446341	0.545159	0.435112
H275	H	-0.051749	-0.073608	-0.027351
H276	H	0.448251	0.426392	0.472649
H277	H	0.624757	0.000185	-0.018124
H278	H	1.124757	0.500185	0.481876
O279	O	0.261774	0.106841	-0.004236
O280	O	0.761774	0.606841	0.495764
C281	C	0.315035	0.154531	-0.046338
C282	C	0.815035	0.654531	0.453662
H283	H	0.366647	0.116307	-0.045489
H284	H	0.866647	0.616307	0.454511
H285	H	0.301550	0.158019	-0.102233
H286	H	0.801550	0.658019	0.397767
H287	H	0.319974	0.227828	-0.025339
H288	H	0.819974	0.727828	0.474661
