data_functionalizedCrystal
_audit_creation_method	'MofGen! by Chris Wilmer'
_symmetry_space_group_name_H-M	'P1'
_symmetry_Int_Tables_number	1
_symmetry_cell_setting	triclinic
loop_
_symmetry_equiv_pos_as_xyz
  x,y,z
_cell_length_a	19.288864
_cell_length_b	19.288859
_cell_length_c	18.366186
_cell_angle_alpha	89.995122
_cell_angle_beta	90.022929
_cell_angle_gamma	96.865014
loop_
_atom_site_label
_atom_site_type_symbol
_atom_site_fract_x
_atom_site_fract_y
_atom_site_fract_z
O1	O	0.921351	-0.086648	0.060783
O2	O	1.254684	0.246686	0.394116
O3	O	1.588018	0.580019	0.727449
O4	O	0.719090	-0.098337	0.060733
O5	O	1.052423	0.234997	0.394066
O6	O	1.385757	0.568330	0.727400
O7	O	0.826067	0.008638	0.060755
O8	O	1.159401	0.341972	0.394088
O9	O	1.492734	0.675305	0.727422
O10	O	0.814374	-0.193623	0.060761
O11	O	1.147707	0.139711	0.394094
O12	O	1.481041	0.473044	0.727427
O13	O	0.826049	0.008641	-0.060344
O14	O	1.159382	0.341975	0.272989
O15	O	1.492715	0.675308	0.606322
O16	O	0.719072	-0.098334	-0.060367
O17	O	1.052405	0.235000	0.272967
O18	O	1.385738	0.568333	0.606300
O19	O	0.921333	-0.086645	-0.060317
O20	O	1.254666	0.246689	0.273017
O21	O	1.587999	0.580022	0.606350
Zn22	Zn	0.820199	-0.092489	-0.079569
Zn23	Zn	1.153533	0.240845	0.253765
Zn24	Zn	1.486866	0.574178	0.587098
Zn25	Zn	0.820224	-0.092493	0.079985
Zn26	Zn	1.153557	0.240841	0.413318
Zn27	Zn	1.486890	0.574174	0.746652
O28	O	0.814355	-0.193620	-0.060339
O29	O	1.147689	0.139714	0.272995
O30	O	1.481022	0.473047	0.606328
C31	C	0.693204	-0.097959	0.000177
C32	C	1.026538	0.235374	0.333510
C33	C	1.359871	0.568708	0.666843
C34	C	0.616101	-0.096830	0.000158
C35	C	0.949434	0.236503	0.333491
C36	C	1.282768	0.569837	0.666824
C37	C	0.571403	-0.159598	0.000171
C38	C	0.904737	0.173735	0.333504
C39	C	1.238070	0.507069	0.666838
C40	C	0.498956	-0.158537	0.000179
C41	C	0.832289	0.174796	0.333512
C42	C	1.165623	0.508129	0.666846
C43	C	0.471210	-0.094705	0.000188
C44	C	0.804543	0.238628	0.333522
C45	C	1.137877	0.571962	0.666855
C46	C	0.515918	-0.031929	0.000171
C47	C	0.849251	0.301405	0.333504
C48	C	1.182584	0.634738	0.666838
C49	C	0.588363	-0.032991	0.000156
C50	C	0.921696	0.300342	0.333489
C51	C	1.255030	0.633676	0.666822
C52	C	0.362956	-0.044527	0.042638
C53	C	0.696289	0.288807	0.375971
C54	C	1.029622	0.622140	0.709305
C55	C	0.290511	-0.043467	0.042658
C56	C	0.623844	0.289866	0.375991
C57	C	0.957178	0.623200	0.709324
C58	C	0.247765	-0.091425	0.000232
C59	C	0.581098	0.241908	0.333566
C60	C	0.914431	0.575241	0.666899
C61	C	0.277470	-0.140455	-0.042203
C62	C	0.610803	0.192878	0.291130
C63	C	0.944136	0.526211	0.624463
C64	C	0.349915	-0.141518	-0.042219
C65	C	0.683248	0.191815	0.291115
C66	C	1.016582	0.525149	0.624448
C67	C	0.392656	-0.093546	0.000204
C68	C	0.725989	0.239787	0.333538
C69	C	1.059323	0.573121	0.666871
C70	C	0.124511	-0.153048	0.000253
C71	C	0.457844	0.180286	0.333586
C72	C	0.791178	0.513619	0.666920
C73	C	0.052063	-0.151984	0.000257
C74	C	0.385396	0.181349	0.333590
C75	C	0.718730	0.514682	0.666923
C76	C	0.069026	-0.025374	0.000256
C77	C	0.402359	0.307959	0.333589
C78	C	0.735693	0.641293	0.666923
C79	C	0.141472	-0.026439	0.000245
C80	C	0.474806	0.306894	0.333579
C81	C	0.808139	0.640228	0.666912
C82	C	0.169210	-0.090278	0.000247
C83	C	0.502544	0.243056	0.333581
C84	C	0.835877	0.576389	0.666914
C85	C	0.825682	0.034516	0.000206
C86	C	1.159016	0.367850	0.333539
C87	C	1.492349	0.701183	0.666872
C88	C	0.824555	0.111620	0.000207
C89	C	1.157888	0.444954	0.333540
C90	C	1.491222	0.778287	0.666873
C91	C	0.947218	-0.087022	0.000241
C92	C	1.280552	0.246311	0.333574
C93	C	1.613885	0.579644	0.666908
C94	C	1.024322	-0.088151	0.000265
C95	C	1.357655	0.245182	0.333598
C96	C	1.690988	0.578515	0.666932
N97	N	0.820188	-0.092486	-0.188460
N98	N	1.153521	0.240848	0.144873
N99	N	1.486854	0.574181	0.478207
C100	C	0.814740	-0.219498	0.000212
C101	C	1.148074	0.113836	0.333546
C102	C	1.481407	0.447169	0.666879
C103	C	0.815868	-0.296602	0.000216
C104	C	1.149201	0.036732	0.333549
C105	C	1.482534	0.370065	0.666883
C106	C	0.879698	0.675661	0.000239
C107	C	1.213032	1.008994	0.333573
C108	C	1.546365	1.342328	0.666906
C109	C	0.880764	0.603214	0.000233
C110	C	1.214097	0.936548	0.333567
C111	C	1.547430	1.269881	0.666900
C112	C	0.817994	0.558508	0.000218
C113	C	1.151328	0.891841	0.333551
C114	C	1.484661	1.225174	0.666885
C115	C	0.754155	0.586253	0.000190
C116	C	1.087488	0.919586	0.333524
C117	C	1.420822	1.252919	0.666857
C118	C	0.753092	0.658698	0.000189
C119	C	1.086425	0.992031	0.333523
C120	C	1.419758	1.325365	0.666856
C121	C	0.771188	0.437233	0.042632
C122	C	1.104521	0.770566	0.375965
C123	C	1.437855	1.103900	0.709298
C124	C	0.772254	0.364789	0.042637
C125	C	1.105587	0.698123	0.375971
C126	C	1.438921	1.031456	0.709304
C127	C	0.821272	0.335062	0.000218
C128	C	1.154605	0.668395	0.333551
C129	C	1.487939	1.001729	0.666885
C130	C	0.869235	0.377789	-0.042197
C131	C	1.202569	0.711122	0.291136
C132	C	1.535902	1.044455	0.624469
C133	C	0.868172	0.450234	-0.042198
C134	C	1.201505	0.783567	0.291135
C135	C	1.534839	1.116901	0.624468
C136	C	0.819141	0.479952	0.000219
C137	C	1.152474	0.813285	0.333552
C138	C	1.485807	1.146619	0.666885
C139	C	0.886262	0.228770	0.000234
C140	C	1.219596	0.562104	0.333567
C141	C	1.552929	0.895437	0.666900
C142	C	0.887325	0.156322	0.000223
C143	C	1.220658	0.489655	0.333556
C144	C	1.553992	0.822989	0.666890
C145	C	0.760715	0.139362	0.000188
C146	C	1.094048	0.472695	0.333521
C147	C	1.427381	0.806028	0.666854
C148	C	0.759654	0.211809	0.000191
C149	C	1.092987	0.545142	0.333524
C150	C	1.426320	0.878475	0.666858
C151	C	0.822430	0.256509	0.000218
C152	C	1.155763	0.589842	0.333551
C153	C	1.489096	0.923176	0.666884
C154	C	0.862174	-0.134510	-0.226542
C155	C	1.195508	0.198824	0.106791
C156	C	1.528841	0.532157	0.440125
C157	C	0.862186	-0.134508	-0.302770
C158	C	1.195519	0.198826	0.030564
C159	C	1.528852	0.532159	0.363897
C160	C	0.820197	-0.092490	-0.340913
C161	C	1.153531	0.240844	-0.007579
C162	C	1.486864	0.574177	0.325754
C163	C	0.778208	-0.050457	-0.302821
C164	C	1.111541	0.282876	0.030512
C165	C	1.444875	0.616209	0.363845
C166	C	0.778203	-0.050455	-0.226595
C167	C	1.111537	0.282878	0.106738
C168	C	1.444870	0.616211	0.440072
C169	C	0.757586	-0.090733	-0.461709
C170	C	1.090919	0.242600	-0.128376
C171	C	1.424252	0.575934	0.204958
C172	C	0.757589	-0.090740	-0.537934
C173	C	1.090922	0.242593	-0.204601
C174	C	1.424256	0.575927	0.128733
C175	C	0.820213	-0.092492	-0.576020
C176	C	1.153546	0.240841	-0.242687
C177	C	1.486880	0.574174	0.090647
C178	C	0.882835	-0.094252	-0.537872
C179	C	1.216168	0.239082	-0.204538
C180	C	1.549501	0.572415	0.128795
C181	C	0.882830	-0.094250	-0.461645
C182	C	1.216163	0.239084	-0.128312
C183	C	1.549496	0.572417	0.205021
C184	C	0.820198	-0.092487	-0.423567
C185	C	1.153532	0.240846	-0.090234
C186	C	1.486865	0.574180	0.243099
C187	C	0.862216	-0.134516	-0.696757
C188	C	1.195549	0.198817	-0.363424
C189	C	1.528882	0.532150	-0.030090
C190	C	0.862228	-0.134509	-0.772986
C191	C	1.195562	0.198824	-0.439653
C192	C	1.528895	0.532157	-0.106320
C193	C	0.778244	-0.050463	-0.773036
C194	C	1.111578	0.282870	-0.439703
C195	C	1.444911	0.616204	-0.106370
C196	C	0.778238	-0.050466	-0.696809
C197	C	1.111571	0.282867	-0.363475
C198	C	1.444905	0.616201	-0.030142
C199	C	0.820222	-0.092496	-0.658674
C200	C	1.153556	0.240837	-0.325340
C201	C	1.486889	0.574170	0.007993
N202	N	0.820241	-0.092490	0.188876
N203	N	1.153574	0.240843	0.522209
N204	N	1.486907	0.574176	0.855543
H205	H	0.015670	-0.203100	0.000263
H206	H	0.349003	0.130233	0.333597
H207	H	0.682337	0.463567	0.666930
H208	H	0.733203	0.330007	0.077178
H209	H	1.066536	0.663340	0.410511
H210	H	1.399869	0.996674	0.743845
Br211	Br	0.649029	0.052201	0.000136
Br212	Br	0.982362	0.385534	0.333469
Br213	Br	1.315695	0.718868	0.666803
Br214	Br	0.971456	0.289439	0.000268
Br215	Br	1.304789	0.622772	0.333601
Br216	Br	1.638122	0.956106	0.666935
Br217	Br	0.704652	0.477568	0.100198
Br218	Br	1.037985	0.810902	0.433532
Br219	Br	1.371318	1.144235	0.766865
Br220	Br	0.031379	0.061258	0.000257
Br221	Br	0.364712	0.394591	0.333590
Br222	Br	0.698045	0.727924	0.666923
H223	H	0.707676	0.234392	0.000177
H224	H	1.041009	0.567725	0.333510
H225	H	1.374342	0.901058	0.666844
H226	H	0.703048	0.549848	0.000176
H227	H	1.036381	0.883181	0.333509
H228	H	1.369715	1.216514	0.666842
H229	H	0.896402	-0.168739	-0.665706
H230	H	1.229736	0.164594	-0.332373
H231	H	1.563069	0.497927	0.000961
H232	H	0.896364	-0.168731	-0.195497
H233	H	1.229698	0.164602	0.137836
H234	H	1.563031	0.497935	0.471170
Br235	Br	0.202138	0.058751	0.000229
Br236	Br	0.535471	0.392085	0.333563
Br237	Br	0.868804	0.725418	0.666896
Br238	Br	0.666457	0.696344	0.000157
Br239	Br	0.999790	1.029678	0.333490
Br240	Br	1.333124	1.363011	0.666823
H241	H	0.744011	-0.016233	-0.195589
H242	H	1.077345	0.317100	0.137744
H243	H	1.410678	0.650433	0.471078
Br244	Br	0.967398	0.565561	0.000253
Br245	Br	1.300731	0.898894	0.333587
Br246	Br	1.634064	1.232227	0.666920
Br247	Br	0.162160	-0.239684	0.000251
Br248	Br	0.495493	0.093650	0.333584
Br249	Br	0.828826	0.426983	0.666917
H250	H	0.709607	0.102962	0.000169
H251	H	1.042940	0.436295	0.333502
H252	H	1.376273	0.769629	0.666836
Br253	Br	0.672598	-0.088289	-0.410029
Br254	Br	1.005931	0.245045	-0.076695
Br255	Br	1.339265	0.578378	0.256638
H256	H	0.939306	0.133741	0.000238
H257	H	1.272639	0.467074	0.333571
H258	H	1.605973	0.800408	0.666904
H259	H	0.896377	-0.168731	-0.333782
H260	H	1.229710	0.164603	-0.000449
H261	H	1.563043	0.497936	0.332884
H262	H	0.933818	-0.095681	-0.430588
H263	H	1.267152	0.237653	-0.097255
H264	H	1.600485	0.570986	0.236078
H265	H	0.266331	-0.003546	0.077214
H266	H	0.599664	0.329787	0.410548
H267	H	0.932997	0.663120	0.743881
Br268	Br	0.721239	0.006557	-0.645122
Br269	Br	1.054573	0.339890	-0.311789
Br270	Br	1.387906	0.673223	0.021545
H271	H	0.909146	0.353586	-0.076744
H272	H	1.242480	0.686919	0.256589
H273	H	1.575813	1.020253	0.589922
H274	H	0.744022	-0.016245	-0.333882
H275	H	1.077355	0.317088	-0.000549
H276	H	1.410688	0.650421	0.332785
Br277	Br	0.967830	-0.096632	-0.589550
Br278	Br	1.301164	0.236701	-0.256216
Br279	Br	1.634497	0.570034	0.077117
H280	H	0.397755	-0.005472	0.077190
H281	H	0.731088	0.327862	0.410523
H282	H	1.064422	0.661195	0.743857
Br283	Br	0.919221	-0.191542	-0.824671
Br284	Br	1.252555	0.141792	-0.491338
Br285	Br	1.585888	0.475125	-0.158004
Br286	Br	0.721270	0.006573	-0.824793
Br287	Br	1.054603	0.339907	-0.491460
Br288	Br	1.387937	0.673240	-0.158127
H289	H	0.907224	0.485019	-0.076736
H290	H	1.240558	0.818352	0.256598
H291	H	1.573891	1.151686	0.589931
Br292	Br	0.478264	0.054702	0.000176
Br293	Br	0.811598	0.388035	0.333510
Br294	Br	1.144931	0.721368	0.666843
H295	H	0.593982	-0.211581	0.000174
H296	H	0.927316	0.121753	0.333507
H297	H	1.260649	0.455086	0.666841
Br298	Br	0.438283	-0.243729	0.000192
Br299	Br	0.771616	0.089605	0.333526
Br300	Br	1.104950	0.422938	0.666859
H301	H	0.374098	-0.181438	-0.076774
H302	H	0.707431	0.151895	0.256560
H303	H	1.040765	0.485229	0.589893
Br304	Br	0.219465	-0.205549	-0.099783
Br305	Br	0.552799	0.127784	0.233551
Br306	Br	0.886132	0.461118	0.566884
H307	H	0.706599	-0.089311	-0.568989
H308	H	1.039932	0.244022	-0.235655
H309	H	1.373265	0.577355	0.097678
H310	H	0.930816	0.712052	0.000257
H311	H	1.264149	1.045385	0.333590
H312	H	1.597482	1.378719	0.666924
