data_functionalizedCrystal
_audit_creation_method	'MofGen! by Chris Wilmer'
_symmetry_space_group_name_H-M	'P1'
_symmetry_Int_Tables_number	1
_symmetry_cell_setting	triclinic
loop_
_symmetry_equiv_pos_as_xyz
  x,y,z
_cell_length_a	16.959455
_cell_length_b	18.050589
_cell_length_c	16.959447
_cell_angle_alpha	89.973357
_cell_angle_beta	89.985678
_cell_angle_gamma	90.025168
loop_
_atom_site_label
_atom_site_type_symbol
_atom_site_fract_x
_atom_site_fract_y
_atom_site_fract_z
Zn1	Zn	1.208339	-0.295705	-0.446929
Zn2	Zn	1.708339	0.204295	0.053071
Zn3	Zn	1.208243	-0.419907	-0.314759
Zn4	Zn	1.708243	0.080093	0.185241
Zn5	Zn	1.076167	-0.295729	-0.314766
Zn6	Zn	1.576167	0.204271	0.185234
Zn7	Zn	1.076113	-0.419851	-0.446897
Zn8	Zn	1.576113	0.080149	0.053103
O9	O	1.142216	-0.357798	-0.380838
O10	O	1.642216	0.142202	0.119162
O11	O	1.318937	-0.312194	-0.429406
O12	O	1.818937	0.187806	0.070594
O13	O	1.190705	-0.403467	-0.204149
O14	O	1.690705	0.096533	0.295851
O15	O	1.093763	-0.191801	-0.332314
O16	O	1.593763	0.308199	0.167686
O17	O	1.318866	-0.403445	-0.332301
O18	O	1.818866	0.096555	0.167699
O19	O	1.190869	-0.191784	-0.429414
O20	O	1.690869	0.308216	0.070586
O21	O	1.093670	-0.312234	-0.204154
O22	O	1.593670	0.187766	0.295846
O23	O	0.965549	-0.312180	-0.332284
O24	O	1.465549	0.187820	0.167716
O25	O	1.093671	-0.403350	-0.557512
O26	O	1.593671	0.096650	-0.057512
O27	O	0.965510	-0.403373	-0.429360
O28	O	1.465510	0.096627	0.070640
O29	O	1.190817	-0.312141	-0.557536
O30	O	1.690817	0.187859	-0.057536
O31	O	1.190653	-0.523824	-0.332271
O32	O	1.690653	-0.023824	0.167729
O33	O	1.093578	-0.523783	-0.429353
O34	O	1.593578	-0.023783	0.070647
C35	C	0.936849	-0.357774	-0.380820
C36	C	1.436849	0.142226	0.119180
C37	C	0.848993	-0.357781	-0.380831
C38	C	1.348993	0.142219	0.119169
C39	C	1.142120	-0.550750	-0.380825
C40	C	1.642120	-0.050750	0.119175
C41	C	1.142152	-0.633296	-0.380846
C42	C	1.642152	-0.133296	0.119154
C43	C	0.477513	-0.310275	-0.330396
C44	C	0.977513	0.189725	0.169604
C45	C	0.477521	-0.405382	-0.431325
C46	C	0.977521	0.094618	0.068675
C47	C	0.560067	-0.405371	-0.431320
C48	C	1.060067	0.094629	0.068680
C49	C	0.601340	-0.357813	-0.380852
C50	C	1.101340	0.142187	0.119148
C51	C	0.560067	-0.310265	-0.330388
C52	C	1.060067	0.189735	0.169612
C53	C	0.601346	-0.452924	-0.481777
C54	C	1.101346	0.047076	0.018223
C55	C	0.683897	-0.452916	-0.481774
C56	C	1.183897	0.047084	0.018226
C57	C	0.725171	-0.405353	-0.431309
C58	C	1.225171	0.094647	0.068691
C59	C	0.683893	-0.357802	-0.380844
C60	C	1.183893	0.142198	0.119156
C61	C	0.725166	-0.310243	-0.330375
C62	C	1.225166	0.189757	0.169625
C63	C	0.683890	-0.262689	-0.279913
C64	C	1.183890	0.237311	0.220087
C65	C	0.601342	-0.262702	-0.279923
C66	C	1.101342	0.237298	0.220077
C67	C	0.807720	-0.405340	-0.431299
C68	C	1.307720	0.094660	0.068701
C69	C	0.807720	-0.310233	-0.330367
C70	C	1.307720	0.189767	0.169633
C71	C	1.089414	-0.832751	-0.433620
C72	C	1.589414	-0.332751	0.066380
C73	C	1.070151	-0.882194	-0.361493
C74	C	1.570151	-0.382194	0.138507
C75	C	1.142229	-0.784426	-0.380856
C76	C	1.642229	-0.284426	0.119144
C77	C	1.161531	-0.882065	-0.452991
C78	C	1.661531	-0.382065	0.047009
C79	C	1.142303	-0.930411	-0.380872
C80	C	1.642303	-0.430411	0.119128
C81	C	1.122929	-0.832782	-0.308691
C82	C	1.622929	-0.332782	0.191309
C83	C	1.214342	-0.832648	-0.400237
C84	C	1.714342	-0.332648	0.099763
C85	C	1.195106	-0.882069	-0.328061
C86	C	1.695106	-0.382069	0.171939
C87	C	1.142185	-0.700328	-0.380848
C88	C	1.642185	-0.200328	0.119152
C89	C	1.142347	-1.014508	-0.380872
C90	C	1.642347	-0.514508	0.119128
C91	C	1.348384	-0.357823	-0.380857
C92	C	1.848384	0.142177	0.119143
C93	C	1.436240	-0.357834	-0.380864
C94	C	1.936240	0.142166	0.119136
C95	C	1.142249	-0.357737	-0.587006
C96	C	1.642249	0.142263	-0.087006
C97	C	1.142263	-0.357710	-0.674863
C98	C	1.642263	0.142290	-0.174863
C99	C	1.142333	-0.164092	-0.380868
C100	C	1.642333	0.335908	0.119132
C101	C	1.142383	-0.081547	-0.380881
C102	C	1.642383	0.418453	0.119119
C103	C	1.091778	-0.405121	-1.046329
C104	C	1.591778	0.094879	-0.546329
C105	C	1.192936	-0.310143	-1.046348
C106	C	1.692936	0.189857	-0.546348
C107	C	1.192915	-0.310159	-0.963802
C108	C	1.692915	0.189841	-0.463802
C109	C	1.142326	-0.357657	-0.922516
C110	C	1.642326	0.142343	-0.422516
C111	C	1.091757	-0.405139	-0.963775
C112	C	1.591757	0.094861	-0.463775
C113	C	1.243489	-0.262683	-0.922537
C114	C	1.743489	0.237317	-0.422537
C115	C	1.243470	-0.262698	-0.839986
C116	C	1.743470	0.237302	-0.339986
C117	C	1.192876	-0.310192	-0.798698
C118	C	1.692876	0.189808	-0.298698
C119	C	1.142305	-0.357676	-0.839962
C120	C	1.642305	0.142324	-0.339962
C121	C	1.091715	-0.405174	-0.798676
C122	C	1.591715	0.094826	-0.298676
C123	C	1.041139	-0.452654	-0.839939
C124	C	1.541139	0.047346	-0.339939
C125	C	1.041162	-0.452634	-0.922488
C126	C	1.541162	0.047366	-0.422488
C127	C	1.192852	-0.310212	-0.716149
C128	C	1.692852	0.189788	-0.216149
C129	C	1.091694	-0.405193	-0.716122
C130	C	1.591694	0.094807	-0.216122
C131	C	1.142228	-0.357806	-0.175472
C132	C	1.642228	0.142194	0.324528
C133	C	1.142368	-0.357623	-0.087615
C134	C	1.642368	0.142377	0.412385
H135	H	0.841319	-0.271500	-0.289274
H136	H	1.341319	0.228500	0.210726
C137	C	0.907301	-0.488790	-0.947902
C138	C	1.407301	0.011210	-0.447902
C139	C	0.985577	-0.504826	-0.967844
C140	C	1.485577	-0.004826	-0.467844
H141	H	0.872988	-0.521010	-0.975909
H142	H	1.372988	-0.021010	-0.475909
H143	H	0.900050	-0.495601	-0.892838
H144	H	1.400050	0.004399	-0.392838
H145	H	0.895776	-0.438887	-0.961450
H146	H	1.395776	0.061113	-0.461450
H147	H	0.997104	-0.554728	-0.954291
H148	H	1.497104	-0.054728	-0.454291
H149	H	0.992831	-0.498022	-1.022921
H150	H	1.492831	0.001978	-0.522921
H151	H	1.234033	-0.271557	-0.682556
H152	H	1.734033	0.228443	-0.182556
C153	C	0.810434	-0.220453	-0.235091
C154	C	1.310434	0.279547	0.264909
C155	C	0.729263	-0.210412	-0.224439
C156	C	1.229263	0.289588	0.275561
H157	H	0.838446	-0.188177	-0.200848
H158	H	1.338446	0.311823	0.299152
H159	H	0.823930	-0.270331	-0.223428
H160	H	1.323930	0.229669	0.276572
H161	H	0.823976	-0.209646	-0.288222
H162	H	1.323976	0.290354	0.211778
H163	H	0.715721	-0.221224	-0.171310
H164	H	1.215721	0.278776	0.328690
H165	H	0.715762	-0.160522	-0.236097
H166	H	1.215762	0.339478	0.263903
C167	C	1.053198	-0.530865	-1.071708
C168	C	1.553198	-0.030865	-0.571708
C169	C	1.036186	-0.457311	-1.091679
C170	C	1.536186	0.042689	-0.591679
H171	H	1.018874	-0.563084	-1.099702
H172	H	1.518874	-0.063084	-0.599702
H173	H	1.106295	-0.541732	-1.085242
H174	H	1.606295	-0.041732	-0.585242
H175	H	1.045948	-0.537664	-1.016634
H176	H	1.545948	-0.037664	-0.516634
H177	H	1.043442	-0.450511	-1.146752
H178	H	1.543442	0.049489	-0.646752
H179	H	0.983076	-0.446441	-1.078150
H180	H	1.483076	0.053559	-0.578150
C181	C	0.609626	-0.168687	-0.180155
C182	C	1.109626	0.331313	0.319845
C183	C	0.555970	-0.210437	-0.224454
C184	C	1.055970	0.289563	0.275546
H185	H	0.581612	-0.136420	-0.145914
H186	H	1.081612	0.363580	0.354086
H187	H	0.641803	-0.201003	-0.149862
H188	H	1.141803	0.298997	0.350138
H189	H	0.641843	-0.140313	-0.214650
H190	H	1.141843	0.359687	0.285350
H191	H	0.523757	-0.238815	-0.189959
H192	H	1.023757	0.261185	0.310041
H193	H	0.523780	-0.178117	-0.254750
H194	H	1.023780	0.321883	0.245250
C195	C	0.953595	-0.828524	-0.473286
C196	C	1.453595	-0.328524	0.026714
C197	C	1.029036	-0.803508	-0.493770
C198	C	1.529036	-0.303508	0.006230
H199	H	0.916320	-0.810465	-0.510415
H200	H	1.416320	-0.310465	-0.010415
H201	H	0.952878	-0.881140	-0.473375
H202	H	1.452878	-0.381140	0.026625
H203	H	0.940420	-0.810920	-0.422178
H204	H	1.440420	-0.310920	0.077822
H205	H	1.042213	-0.821116	-0.544876
H206	H	1.542213	-0.321116	-0.044876
H207	H	1.029755	-0.750881	-0.493689
H208	H	1.529755	-0.250881	0.006311
H209	H	1.177827	-0.903713	-0.513989
H210	H	1.677827	-0.403713	-0.013989
H211	H	0.443903	-0.271555	-0.289313
H212	H	0.943903	0.228445	0.210687
H213	H	1.284652	-0.224036	-0.806396
H214	H	1.784652	0.275964	-0.306396
C215	C	1.282082	-0.136932	-0.947986
C216	C	1.782082	0.363068	-0.447986
C217	C	1.299095	-0.210479	-0.967921
C218	C	1.799095	0.289521	-0.467921
H219	H	1.316416	-0.104704	-0.976006
H220	H	1.816416	0.395296	-0.476006
H221	H	1.228989	-0.126058	-0.961516
H222	H	1.728989	0.373942	-0.461516
H223	H	1.289316	-0.130155	-0.892918
H224	H	1.789316	0.369845	-0.392918
H225	H	1.291855	-0.217257	-1.022989
H226	H	1.791855	0.282743	-0.522989
H227	H	1.352201	-0.221357	-0.954397
H228	H	1.852201	0.278643	-0.454397
C229	C	1.235080	-0.886115	-0.192324
C230	C	1.735080	-0.386115	0.307676
C231	C	1.255442	-0.911128	-0.267768
C232	C	1.755442	-0.411128	0.232232
H233	H	1.272325	-0.904061	-0.155102
H234	H	1.772325	-0.404061	0.344898
H235	H	1.235077	-0.833499	-0.191694
H236	H	1.735077	-0.333499	0.308306
H237	H	1.184033	-0.903835	-0.179006
H238	H	1.684033	-0.403835	0.320994
H239	H	1.306487	-0.893404	-0.281088
H240	H	1.806487	-0.393404	0.218912
H241	H	1.255454	-0.963755	-0.268400
H242	H	1.755454	-0.463755	0.231600
C243	C	0.350983	-0.447625	-0.476148
C244	C	0.850983	0.052375	0.023852
C245	C	0.432155	-0.457656	-0.486798
C246	C	0.932155	0.042344	0.013202
H247	H	0.322976	-0.479895	-0.510401
H248	H	0.822976	0.020105	-0.010401
H249	H	0.337441	-0.458438	-0.423027
H250	H	0.837441	0.041562	0.076973
H251	H	0.337482	-0.397739	-0.487806
H252	H	0.837482	0.102261	0.012194
H253	H	0.445658	-0.507541	-0.475134
H254	H	0.945658	-0.007541	0.024866
H255	H	0.445704	-0.446849	-0.539931
H256	H	0.945704	0.053151	-0.039931
H257	H	0.567735	-0.491649	-0.522861
H258	H	1.067735	0.008351	-0.022861
H259	H	1.275277	-0.810871	-0.416650
H260	H	1.775277	-0.310871	0.083350
C261	C	0.675603	-0.546923	-0.581546
C262	C	1.175603	-0.046923	-0.081546
C263	C	0.729264	-0.505180	-0.537247
C264	C	1.229264	-0.005180	-0.037247
H265	H	0.703614	-0.579184	-0.615797
H266	H	1.203614	-0.079184	-0.115797
H267	H	0.643391	-0.575297	-0.547059
H268	H	1.143391	-0.075297	-0.047059
H269	H	0.643421	-0.514597	-0.611837
H270	H	1.143421	-0.014597	-0.111837
H271	H	0.761442	-0.537505	-0.506952
H272	H	1.261442	-0.037505	-0.006952
H273	H	0.761489	-0.476804	-0.571739
H274	H	1.261489	0.023196	-0.071739
C275	C	0.900589	-0.415772	-0.537589
C276	C	1.400589	0.084228	-0.037589
C277	C	0.853094	-0.457606	-0.486759
C278	C	1.353094	0.042394	0.013241
H279	H	0.928604	-0.448042	-0.571826
H280	H	1.428604	0.051958	-0.071826
H281	H	0.868404	-0.383466	-0.567887
H282	H	1.368404	0.116534	-0.067887
H283	H	0.936978	-0.387446	-0.507525
H284	H	1.436978	0.112554	-0.007525
H285	H	0.816700	-0.485928	-0.516823
H286	H	1.316700	0.014072	-0.016823
H287	H	0.885282	-0.489925	-0.456458
H288	H	1.385282	0.010075	0.043542
H289	H	1.009203	-0.903974	-0.345115
H290	H	1.509203	-0.403974	0.154885
C291	C	0.991711	-0.499082	-0.724396
C292	C	1.491711	0.000918	-0.224396
C293	C	1.036090	-0.457412	-0.670743
C294	C	1.536090	0.042588	-0.170743
H295	H	0.957390	-0.531325	-0.696379
H296	H	1.457390	-0.031325	-0.196379
H297	H	0.961499	-0.466714	-0.756592
H298	H	1.461499	0.033286	-0.256592
H299	H	1.026149	-0.527479	-0.756594
H300	H	1.526149	-0.027479	-0.256594
H301	H	1.001651	-0.429012	-0.638549
H302	H	1.501651	0.070988	-0.138549
H303	H	1.066304	-0.489784	-0.638533
H304	H	1.566304	0.010216	-0.138533
C305	C	1.100953	-0.726115	-0.227071
C306	C	1.600953	-0.226115	0.272929
C307	C	1.100827	-0.803686	-0.226324
C308	C	1.600827	-0.303686	0.273676
H309	H	1.087301	-0.708153	-0.176224
H310	H	1.587301	-0.208153	0.323776
H311	H	1.151989	-0.708744	-0.240911
H312	H	1.651989	-0.208744	0.259089
H313	H	1.063644	-0.708843	-0.264579
H314	H	1.563644	-0.208843	0.235421
H315	H	1.138141	-0.820958	-0.188820
H316	H	1.638141	-0.320958	0.311180
H317	H	1.049784	-0.821065	-0.212474
H318	H	1.549784	-0.321065	0.287526
C319	C	1.231522	-0.184391	-1.071797
C320	C	1.731522	0.315609	-0.571797
C321	C	1.248544	-0.257937	-1.091728
C322	C	1.748544	0.242063	-0.591728
H323	H	1.265857	-0.152161	-1.099813
H324	H	1.765857	0.347839	-0.599813
H325	H	1.178430	-0.173521	-1.085333
H326	H	1.678430	0.326479	-0.585333
H327	H	1.238749	-0.177613	-1.016728
H328	H	1.738749	0.322387	-0.516728
H329	H	1.241312	-0.264717	-1.146797
H330	H	1.741312	0.235283	-0.646797
H331	H	1.301649	-0.268811	-1.078197
H332	H	1.801649	0.231189	-0.578197
H333	H	0.999952	-0.491330	-0.806313
H334	H	1.499952	0.008670	-0.306313
