data_functionalizedCrystal
_audit_creation_method	'MofGen! by Chris Wilmer'
_symmetry_space_group_name_H-M	'P1'
_symmetry_Int_Tables_number	1
_symmetry_cell_setting	triclinic
loop_
_symmetry_equiv_pos_as_xyz
  x,y,z
_cell_length_a	13.262390
_cell_length_b	13.262508
_cell_length_c	11.804365
_cell_angle_alpha	117.325227
_cell_angle_beta	62.657606
_cell_angle_gamma	88.760843
loop_
_atom_site_label
_atom_site_type_symbol
_atom_site_fract_x
_atom_site_fract_y
_atom_site_fract_z
O1	O	1.518111	0.016662	-0.585322
O2	O	1.186880	0.057724	-0.464743
O3	O	1.373037	-0.128406	-0.585316
O4	O	1.331953	0.202792	-0.464749
O5	O	1.324032	-0.079451	-0.355534
O6	O	1.137875	0.106679	-0.234961
O7	O	1.469106	0.065616	-0.355540
Cu8	Cu	1.299016	0.090618	-0.274269
Cu9	Cu	1.356970	0.032723	-0.546013
O10	O	1.282948	0.251747	-0.234966
C11	C	1.120204	0.084402	-0.335480
C12	C	0.994544	0.090946	-0.292662
C13	C	0.747192	0.002629	-0.673009
C14	C	0.865258	-0.003524	-0.713243
C15	C	0.897586	0.020093	-0.608101
C16	C	0.811835	0.049865	-0.462719
C17	C	0.693760	0.056010	-0.422484
C18	C	0.844153	0.073474	-0.357576
C19	C	0.758403	0.103245	-0.212194
C20	C	0.640339	0.109390	-0.171966
C21	C	0.608012	0.085773	-0.277108
C22	C	0.962229	0.067328	-0.397811
C23	C	0.908796	0.120709	-0.147286
C24	C	0.790730	0.126863	-0.107052
C25	C	1.350738	-0.146098	-0.484799
C26	C	1.357291	-0.271748	-0.527621
C27	C	1.268902	-0.519203	-0.147297
C28	C	1.262736	-0.401146	-0.107058
C29	C	1.286375	-0.368791	-0.212195
C30	C	1.316179	-0.454504	-0.357578
C31	C	1.322336	-0.572570	-0.397818
C32	C	1.339809	-0.422158	-0.462717
C33	C	1.369614	-0.507871	-0.608100
C34	C	1.375771	-0.625925	-0.648333
C35	C	1.352132	-0.658281	-0.543195
C36	C	1.333652	-0.304092	-0.422477
C37	C	1.387087	-0.357459	-0.672998
C38	C	1.393252	-0.475515	-0.713237
C39	C	1.535782	0.038938	-0.484805
C40	C	1.661444	0.032392	-0.527633
C41	C	1.305248	0.269438	-0.335487
C42	C	1.298697	0.395086	-0.292674
N43	N	1.258262	0.131337	-0.083142
N44	N	1.397733	-0.008005	-0.737147
C45	C	1.495598	-0.105808	0.137136
C46	C	1.526427	-0.136616	-0.007488
C47	C	1.459388	-0.069631	-0.026410
C48	C	1.361516	0.028168	0.099309
C49	C	1.330689	0.058986	0.243947
C50	C	1.294479	0.095163	0.080402
C51	C	1.196607	0.192962	0.206120
C52	C	1.165785	0.223774	0.350743
C53	C	1.232824	0.156788	0.369665
C54	C	1.325306	0.064345	-0.064237
C55	C	1.160397	0.229139	0.042575
C56	C	1.129568	0.259948	0.187199
H57	H	0.993722	0.015082	-0.640868
H58	H	1.484494	-0.094720	-0.144171
O59	O	1.070853	0.318893	0.472916
C60	C	1.108824	0.402418	0.559789
H61	H	1.207354	0.388863	0.485897
H62	H	1.055934	0.496045	0.608668
H63	H	1.093887	0.389888	0.655050
O64	O	1.304871	-0.220769	-0.281368
C65	C	1.398710	-0.170577	-0.289012
H66	H	1.453988	-0.182604	-0.404543
H67	H	1.360806	-0.071842	-0.199051
H68	H	1.457216	-0.216696	-0.269623
H69	H	1.207721	0.181869	0.487428
O70	O	1.034433	0.354832	0.309443
C71	C	0.950923	0.316790	0.396274
H72	H	0.997648	0.229599	0.371562
H73	H	0.908016	0.386994	0.520581
H74	H	0.879577	0.303017	0.366897
O75	O	1.095451	0.294223	0.024027
C76	C	1.169084	0.342134	-0.056409
H77	H	1.265538	0.286240	-0.124442
H78	H	1.142204	0.341669	-0.135511
H79	H	1.159052	0.437233	0.025681
H80	H	0.720860	-0.016608	-0.758604
O81	O	1.045591	0.038584	-0.538916
C82	C	1.095775	0.132426	-0.531257
H83	H	1.083710	0.187676	-0.415720
H84	H	1.194534	0.094549	-0.621209
H85	H	1.049664	0.190935	-0.550651
H86	H	0.935070	-0.027771	-0.831616
O87	O	1.422029	-0.558649	-0.854428
C88	C	1.337752	-0.526364	-0.882324
H89	H	1.292706	-0.426494	-0.804702
H90	H	1.384223	-0.551184	-1.004188
H91	H	1.268181	-0.575308	-0.860643
H92	H	0.570526	0.133611	-0.053594
O93	O	0.493343	0.091810	-0.238191
C94	C	0.448825	0.178203	-0.255003
H95	H	0.525889	0.192128	-0.338465
H96	H	0.387446	0.146878	-0.298377
H97	H	0.397143	0.265461	-0.141764
H98	H	1.281351	-0.272662	-0.179423
O99	O	0.707427	0.155565	0.034068
C100	C	0.657198	0.061748	0.026398
H101	H	0.721702	-0.024431	-0.083666
H102	H	0.638832	0.052199	0.124742
H103	H	0.570446	0.081613	0.031915
O104	O	0.940356	0.143475	-0.045328
C105	C	1.026721	0.042526	-0.099521
H106	H	1.074164	-0.014563	-0.227115
H107	H	1.094015	0.071761	-0.066158
H108	H	0.981824	-0.011247	-0.049115
H109	H	1.238481	-0.331369	0.011309
H110	H	1.249650	-0.545559	-0.061706
O111	O	1.358169	-0.773016	-0.582530
C112	C	1.389473	-0.841721	-0.733364
H113	H	1.437286	-0.796022	-0.795185
H114	H	1.450654	-0.933381	-0.789427
H115	H	1.305797	-0.851315	-0.737448
O116	O	1.404590	-0.709047	-0.789547
C117	C	1.320346	-0.676776	-0.817497
H118	H	1.275260	-0.576913	-0.739847
H119	H	1.366856	-0.701561	-0.939349
H120	H	1.250800	-0.725759	-0.795898
H121	H	1.404994	-0.015283	-0.166586
O122	O	1.409825	-0.325891	-0.774959
C123	C	1.308825	-0.239563	-0.720723
H124	H	1.251753	-0.192134	-0.593124
H125	H	1.338020	-0.172271	-0.754123
H126	H	1.255034	-0.284474	-0.771062
O127	O	1.621494	-0.231681	-0.129440
C128	C	1.674071	-0.284181	-0.081732
H129	H	1.605722	-0.260281	0.037020
H130	H	1.706596	-0.384784	-0.160870
H131	H	1.752408	-0.249932	-0.082770
H132	H	1.550178	-0.160334	0.152555
