data_functionalizedCrystal
_audit_creation_method	'MofGen! by Chris Wilmer'
_symmetry_space_group_name_H-M	'P1'
_symmetry_Int_Tables_number	1
_symmetry_cell_setting	triclinic
loop_
_symmetry_equiv_pos_as_xyz
  x,y,z
_cell_length_a	14.044220
_cell_length_b	14.044220
_cell_length_c	12.503572
_cell_angle_alpha	93.847060
_cell_angle_beta	86.157348
_cell_angle_gamma	93.188877
loop_
_atom_site_label
_atom_site_type_symbol
_atom_site_fract_x
_atom_site_fract_y
_atom_site_fract_z
O1	O	1.272114	0.235217	0.089315
O2	O	1.522114	0.485217	0.339315
O3	O	1.772114	0.735217	0.589315
O4	O	2.022114	0.985217	0.839315
O5	O	0.995443	0.226911	0.089318
O6	O	1.245443	0.476911	0.339318
O7	O	1.495443	0.726911	0.589318
O8	O	1.745443	0.976911	0.839318
O9	O	1.129626	0.092728	0.089311
O10	O	1.379626	0.342728	0.339311
O11	O	1.629626	0.592728	0.589311
O12	O	1.879626	0.842728	0.839311
O13	O	1.137931	0.369400	0.089321
O14	O	1.387931	0.619400	0.339321
O15	O	1.637931	0.869400	0.589321
O16	O	1.887931	1.119400	0.839321
O17	O	1.139721	0.082623	-0.089331
O18	O	1.389721	0.332623	0.160669
O19	O	1.639721	0.582623	0.410669
O20	O	1.889721	0.832623	0.660669
O21	O	1.005538	0.216807	-0.089325
O22	O	1.255538	0.466807	0.160675
O23	O	1.505538	0.716807	0.410675
O24	O	1.755538	0.966807	0.660675
O25	O	1.282209	0.225112	-0.089328
O26	O	1.532209	0.475112	0.160672
O27	O	1.782209	0.725112	0.410672
O28	O	2.032209	0.975112	0.660672
Cu29	Cu	1.144795	0.220037	-0.105638
Cu30	Cu	1.394795	0.470037	0.144362
Cu31	Cu	1.644795	0.720037	0.394362
Cu32	Cu	1.894795	0.970037	0.644362
Cu33	Cu	1.132857	0.231986	0.105628
Cu34	Cu	1.382857	0.481986	0.355628
Cu35	Cu	1.632857	0.731986	0.605628
Cu36	Cu	1.882857	0.981986	0.855628
O37	O	1.148026	0.359295	-0.089322
O38	O	1.398026	0.609295	0.160678
O39	O	1.648026	0.859295	0.410678
O40	O	1.898026	1.109295	0.660678
C41	C	0.964868	0.218223	-0.000003
C42	C	1.214868	0.468223	0.249997
C43	C	1.464868	0.718223	0.499997
C44	C	1.714868	0.968223	0.749997
C45	C	0.858726	0.207379	-0.000002
C46	C	1.108726	0.457379	0.249998
C47	C	1.358726	0.707379	0.499998
C48	C	1.608726	0.957379	0.749998
C49	C	1.131038	0.052054	-0.000009
C50	C	1.381038	0.302054	0.249991
C51	C	1.631038	0.552054	0.499991
C52	C	1.881038	0.802054	0.749991
C53	C	1.120193	-0.054089	-0.000005
C54	C	1.370193	0.195911	0.249995
C55	C	1.620193	0.445911	0.499995
C56	C	1.870193	0.695911	0.749995
N57	N	1.153199	0.211632	-0.254230
N58	N	1.403199	0.461632	-0.004230
N59	N	1.653199	0.711632	0.245770
N60	N	1.903199	0.961632	0.495770
C61	C	1.312784	0.233800	-0.000005
C62	C	1.562784	0.483800	0.249995
C63	C	1.812784	0.733800	0.499995
C64	C	2.062784	0.983800	0.749995
C65	C	1.418926	0.244645	0.000001
C66	C	1.668926	0.494645	0.250001
C67	C	1.918926	0.744645	0.500001
C68	C	2.168926	0.994645	0.750001
C69	C	1.613264	0.264471	0.000001
C70	C	1.863264	0.514471	0.250001
C71	C	2.113264	0.764471	0.500001
C72	C	2.363264	1.014471	0.750001
C73	C	1.664394	0.187557	-0.000002
C74	C	1.914394	0.437557	0.249998
C75	C	2.164394	0.687557	0.499998
C76	C	2.414394	0.937557	0.749998
C77	C	1.772530	0.198588	-0.000002
C78	C	2.022530	0.448588	0.249998
C79	C	2.272530	0.698588	0.499998
C80	C	2.522530	0.948588	0.749998
C81	C	1.505118	0.253441	0.000001
C82	C	1.755118	0.503441	0.250001
C83	C	2.005118	0.753441	0.500001
C84	C	2.255118	1.003441	0.750001
C85	C	1.146614	0.399969	0.000001
C86	C	1.396614	0.649969	0.250001
C87	C	1.646614	0.899969	0.500001
C88	C	1.896614	1.149969	0.750001
C89	C	1.157459	0.506112	0.000005
C90	C	1.407459	0.756112	0.250005
C91	C	1.657459	1.006112	0.500005
C92	C	1.907459	1.256112	0.750005
C93	C	1.177285	0.700450	-0.000000
C94	C	1.427285	0.950450	0.250000
C95	C	1.677285	1.200450	0.500000
C96	C	1.927285	1.450450	0.750000
C97	C	1.100371	0.751580	-0.000000
C98	C	1.350371	1.001580	0.250000
C99	C	1.600371	1.251580	0.500000
C100	C	1.850371	1.501580	0.750000
C101	C	1.111402	0.859716	-0.000003
C102	C	1.361402	1.109716	0.249997
C103	C	1.611402	1.359716	0.499997
C104	C	1.861402	1.609716	0.749997
C105	C	1.166255	0.592304	0.000002
C106	C	1.416255	0.842304	0.250002
C107	C	1.666255	1.092304	0.500002
C108	C	1.916255	1.342304	0.750002
N109	N	1.124460	0.240384	0.254220
N110	N	1.374460	0.490384	0.504220
N111	N	1.624460	0.740384	0.754220
N112	N	1.874460	0.990384	1.004220
C113	C	1.112100	0.252737	0.473336
C114	C	1.362100	0.502737	0.723336
C115	C	1.612100	0.752737	0.973336
C116	C	1.862100	1.002737	1.223336
C117	C	1.165556	0.199282	0.526661
C118	C	1.415556	0.449282	0.776661
C119	C	1.665556	0.699282	1.026661
C120	C	1.915556	0.949282	1.276661
C121	C	1.158679	0.206155	0.648584
C122	C	1.408679	0.456155	0.898584
C123	C	1.658679	0.706155	1.148584
C124	C	1.908679	0.956155	1.398584
C125	C	1.118976	0.245865	0.351401
C126	C	1.368976	0.495865	0.601401
C127	C	1.618976	0.745865	0.851401
C128	C	1.868976	0.995865	1.101401
H129	H	1.626950	0.113428	0.000074
H130	H	1.876950	0.363428	0.250074
H131	H	2.126950	0.613428	0.500074
H132	H	2.376950	0.863428	0.750074
H133	H	1.650700	0.338599	0.000005
H134	H	1.900700	0.588599	0.250005
H135	H	2.150700	0.838599	0.500005
H136	H	2.400700	1.088599	0.750005
F137	F	1.003472	0.702647	-0.000006
F138	F	1.253472	0.952647	0.249994
F139	F	1.503472	1.202647	0.499994
F140	F	1.753472	1.452647	0.749994
F141	F	1.274177	0.749382	-0.000005
F142	F	1.524177	0.999382	0.249995
F143	F	1.774177	1.249382	0.499995
F144	F	2.024177	1.499382	0.749995
H145	H	1.216486	0.148354	0.480745
H146	H	1.466486	0.398354	0.730745
H147	H	1.716486	0.648354	0.980745
H148	H	1.966486	0.898354	1.230745
F149	F	1.045531	0.319297	0.533345
F150	F	1.295531	0.569297	0.783345
F151	F	1.545531	0.819297	1.033345
F152	F	1.795531	1.069297	1.283345
