data_functionalizedCrystal
_audit_creation_method	'MofGen! by Chris Wilmer'
_symmetry_space_group_name_H-M	'P1'
_symmetry_Int_Tables_number	1
_symmetry_cell_setting	triclinic
loop_
_symmetry_equiv_pos_as_xyz
  x,y,z
_cell_length_a	16.992694
_cell_length_b	14.519709
_cell_length_c	16.053802
_cell_angle_alpha	92.569364
_cell_angle_beta	87.249047
_cell_angle_gamma	87.174184
loop_
_atom_site_label
_atom_site_type_symbol
_atom_site_fract_x
_atom_site_fract_y
_atom_site_fract_z
O1	O	1.043963	0.191936	-0.069327
O2	O	0.815676	0.189789	-0.069352
O3	O	0.935872	0.057059	-0.069332
O4	O	0.923768	0.324666	-0.069348
O5	O	0.929256	0.064333	0.069526
O6	O	0.809060	0.197063	0.069506
O7	O	1.037348	0.199210	0.069530
Zn8	Zn	0.922154	0.199291	0.091565
Zn9	Zn	0.930870	0.189708	-0.091386
O10	O	0.917152	0.331940	0.069510
C11	C	0.783152	0.190666	0.000074
C12	C	0.696097	0.182430	0.000065
C13	C	0.645968	0.261890	0.000061
C14	C	0.564170	0.254147	0.000073
C15	C	0.532503	0.166943	0.000083
C16	C	0.582638	0.087478	0.000089
C17	C	0.664434	0.095222	0.000083
C18	C	0.288859	0.134847	0.000107
C19	C	0.207056	0.127109	0.000111
C20	C	0.188594	0.293779	0.000095
C21	C	0.270393	0.301515	0.000084
C22	C	0.320520	0.222050	0.000095
N23	N	0.448892	0.159027	0.000092
N24	N	0.404129	0.229968	0.000092
C25	C	0.932000	0.026296	0.000097
C26	C	0.930309	-0.076207	0.000098
C27	C	0.924087	-0.451551	0.000075
C28	C	0.925815	-0.347118	0.000082
C29	C	0.927198	-0.263882	0.000087
C30	C	0.928926	-0.159443	0.000092
C31	C	1.069872	0.198333	0.000103
C32	C	1.156927	0.206569	0.000106
C33	C	0.921024	0.362703	0.000079
C34	C	0.922715	0.465206	0.000073
N35	N	0.916210	0.205832	0.216424
N36	N	0.936820	0.183161	-0.216246
C37	C	0.967373	0.149377	0.260127
C38	C	0.963222	0.153962	0.347533
C39	C	0.907913	0.215006	0.391235
C40	C	0.856746	0.271462	0.347526
C41	C	0.860893	0.266872	0.260121
C42	C	0.889799	0.235027	0.652641
C43	C	0.885658	0.239615	0.740052
C44	C	0.992134	0.122113	0.740053
C45	C	0.996279	0.117533	0.652646
C46	C	0.945109	0.173985	0.608945
N47	N	0.903672	0.219695	0.480578
N48	N	0.949347	0.169291	0.519604
H49	H	0.147771	0.358475	0.000088
O50	O	0.811272	0.321849	0.217703
C51	C	0.766774	0.477399	0.190974
C52	C	0.823028	0.415249	0.239049
H53	H	0.776248	0.552925	0.208228
H54	H	0.779236	0.463712	0.120988
H55	H	0.703145	0.461562	0.208162
H56	H	0.886677	0.431050	0.221931
H57	H	0.810498	0.428947	0.309023
H58	H	0.840616	0.289328	0.775630
O59	O	1.012951	0.099262	0.390082
C60	C	1.115362	0.092794	0.488721
C61	C	1.059072	0.154850	0.440600
H62	H	1.152676	0.137711	0.529563
H63	H	1.079544	0.046364	0.529709
H64	H	1.155576	0.048357	0.442462
H65	H	1.018845	0.199344	0.486799
H66	H	1.094938	0.201219	0.399599
O67	O	0.551911	0.002754	0.000246
C68	C	0.539292	-0.138323	0.072164
C69	C	0.574118	-0.042386	0.072106
H70	H	0.557247	-0.174855	0.130248
H71	H	0.472213	-0.130265	0.072218
H72	H	0.562679	-0.180901	0.014028
H73	H	0.550792	0.000243	0.130233
H74	H	0.641195	-0.050512	0.072009
O75	O	1.050027	0.058151	0.610327
C76	C	1.155229	-0.057873	0.619554
C77	C	1.094382	0.009317	0.667585
H78	H	1.191118	-0.097359	0.665827
H79	H	1.123293	-0.108675	0.578669
H80	H	1.196363	-0.017271	0.578599
H81	H	1.053233	-0.031208	0.708586
H82	H	1.126370	0.060119	0.708418
O83	O	0.337574	0.057694	0.000255
C84	C	0.437260	-0.026502	0.072160
C85	C	0.382111	0.060909	0.072110
H86	H	0.473295	-0.023924	0.130240
H87	H	0.400614	-0.090190	0.072217
H88	H	0.478741	-0.030076	0.014019
H89	H	0.340619	0.064572	0.130241
H90	H	0.418806	0.124554	0.072010
H91	H	0.671745	0.332900	0.000052
O92	O	0.840062	0.289962	0.610327
C93	C	0.733987	0.406956	0.619558
C94	C	0.790280	0.344807	0.667587
H95	H	0.693712	0.451300	0.665832
H96	H	0.769801	0.453465	0.578646
H97	H	0.696734	0.362058	0.578629
H98	H	0.827545	0.389633	0.708561
H99	H	0.754420	0.298292	0.708446
H100	H	0.296170	0.372525	0.000066
H101	H	0.181277	0.056094	0.000118
O102	O	0.802910	0.330655	0.389940
C103	C	0.665368	0.375988	0.416660
C104	C	0.726252	0.308876	0.368590
H105	H	0.603378	0.358416	0.399403
H106	H	0.671126	0.369568	0.486647
H107	H	0.676538	0.449716	0.399471
H108	H	0.715121	0.235120	0.385709
H109	H	0.720480	0.315377	0.298615
H110	H	1.033794	0.076151	0.775642
H111	H	1.012414	0.099673	0.224550
O112	O	0.515517	0.331356	-0.000083
C113	C	0.478164	0.467694	-0.072012
C114	C	0.533298	0.380271	-0.071951
H115	H	0.492531	0.507278	-0.130102
H116	H	0.414248	0.447240	-0.072056
H117	H	0.486933	0.513322	-0.013881
H118	H	0.524599	0.334605	-0.130072
H119	H	0.597194	0.400792	-0.071864
O120	O	0.713107	0.018000	-0.000065
C121	C	0.757305	-0.125877	-0.071969
C122	C	0.702157	-0.038455	-0.071919
H123	H	0.748458	-0.171554	-0.130047
H124	H	0.821223	-0.105418	-0.072026
H125	H	0.743020	-0.165408	-0.013826
H126	H	0.716371	0.001117	-0.130051
H127	H	0.638254	-0.058975	-0.071817
