data_functionalizedCrystal
_audit_creation_method	'MofGen! by Chris Wilmer'
_symmetry_space_group_name_H-M	'P1'
_symmetry_Int_Tables_number	1
_symmetry_cell_setting	triclinic
loop_
_symmetry_equiv_pos_as_xyz
  x,y,z
_cell_length_a	18.050591
_cell_length_b	12.645330
_cell_length_c	12.645323
_cell_angle_alpha	90.024870
_cell_angle_beta	89.971504
_cell_angle_gamma	89.986302
loop_
_atom_site_label
_atom_site_type_symbol
_atom_site_fract_x
_atom_site_fract_y
_atom_site_fract_z
Zn1	Zn	1.135402	0.422144	-0.599611
Zn2	Zn	1.135320	0.599432	-0.422351
Zn3	Zn	1.011205	0.422171	-0.422337
Zn4	Zn	1.011192	0.599353	-0.599548
O5	O	1.073280	0.510775	-0.510962
O6	O	1.239316	0.445683	-0.576129
O7	O	1.118826	0.575962	-0.274002
O8	O	1.027720	0.273820	-0.445873
O9	O	1.239255	0.575936	-0.445897
O10	O	1.118967	0.273800	-0.576116
O11	O	1.027640	0.445729	-0.273992
O12	O	0.907279	0.445653	-0.445813
O13	O	1.027698	0.575802	-0.747904
O14	O	0.907270	0.575828	-0.576009
O15	O	1.118955	0.445607	-0.747950
O16	O	1.118814	0.747769	-0.445836
O17	O	1.027618	0.747711	-0.576022
C18	C	0.880328	0.510735	-0.510903
C19	C	0.797782	0.510744	-0.510903
C20	C	1.073226	0.786205	-0.510947
C21	C	1.073270	0.904035	-0.510976
C22	C	1.073335	0.510693	-0.787467
C23	C	1.073358	0.510658	-0.905297
C24	C	0.598315	0.439873	-0.440266
C25	C	0.548905	0.536565	-0.414186
C26	C	0.646652	0.510776	-0.510951
C27	C	0.548980	0.414117	-0.537028
C28	C	0.500667	0.510799	-0.510995
C29	C	0.598329	0.607520	-0.484821
C30	C	0.598408	0.485006	-0.607708
C31	C	0.549021	0.581766	-0.581665
C32	C	0.730750	0.510762	-0.510923
C33	C	0.416570	0.510824	-0.511024
C34	C	1.266985	0.510815	-0.511021
C35	C	1.349531	0.510832	-0.511047
C36	C	1.073355	0.234270	-0.511000
C37	C	1.073386	0.116440	-0.511016
C38	C	1.016136	1.071607	-0.593129
C39	C	1.015844	0.949047	-0.592865
C40	C	1.052082	0.948627	-0.399251
C41	C	1.051733	1.071225	-0.399750
C42	C	1.151943	1.071132	-0.539642
C43	C	1.151461	0.948525	-0.542085
C44	C	1.015771	0.592178	-1.072833
C45	C	1.015922	0.592581	-0.950273
C46	C	1.151609	0.540984	-0.949829
C47	C	1.151293	0.541496	-1.072427
C48	C	1.053433	0.398356	-1.072492
C49	C	1.051687	0.399029	-0.949886
C50	C	1.073268	0.510780	-0.235532
C51	C	1.073389	0.510516	-0.117703
H52	H	0.619959	0.379976	-0.380424
Cl53	Cl	1.113309	1.117025	-0.302062
H54	H	0.620168	0.463163	-0.689491
Cl55	Cl	0.515334	0.570245	-0.287885
H56	H	1.168813	0.622116	-0.919142
Cl57	Cl	0.515505	0.287900	-0.571051
H58	H	0.994102	0.376159	-0.920778
Cl59	Cl	1.114418	0.903618	-0.302206
H60	H	0.958262	1.102502	-0.574405
Cl61	Cl	1.176135	0.903523	-0.669033
H62	H	1.028816	0.674807	-1.103653
Cl63	Cl	0.515809	0.674458	-0.673986
Cl64	Cl	1.220789	0.901204	-0.456481
Cl65	Cl	0.964344	0.901366	-0.361135
H66	H	1.194596	1.100124	-0.479837
Cl67	Cl	1.118224	0.304422	-1.117295
H68	H	0.957573	0.573382	-1.102298
Cl69	Cl	1.036307	0.902489	-0.720769
Cl70	Cl	1.036410	1.117022	-0.721456
H71	H	1.029096	0.675730	-0.920960
Cl72	Cl	1.111754	0.300124	-0.902636
Cl73	Cl	0.925927	0.903894	-0.563587
Cl74	Cl	0.963073	1.115518	-0.362313
H75	H	1.171271	1.101978	-0.619728
Cl76	Cl	0.631653	0.733778	-0.450648
Cl77	Cl	0.966868	0.355681	-1.120187
Cl78	Cl	0.926335	0.563276	-0.903780
Cl79	Cl	1.177406	0.668084	-1.116608
Cl80	Cl	1.219780	0.453595	-1.118263
Cl81	Cl	1.219669	0.452062	-0.904860
