data_functionalizedCrystal
_audit_creation_method	'MofGen! by Chris Wilmer'
_symmetry_space_group_name_H-M	'P1'
_symmetry_Int_Tables_number	1
_symmetry_cell_setting	triclinic
loop_
_symmetry_equiv_pos_as_xyz
  x,y,z
_cell_length_a	13.635800
_cell_length_b	19.453103
_cell_length_c	11.102207
_cell_angle_alpha	77.990966
_cell_angle_beta	71.395642
_cell_angle_gamma	78.290822
loop_
_atom_site_label
_atom_site_type_symbol
_atom_site_fract_x
_atom_site_fract_y
_atom_site_fract_z
V1	V	1.832202	-0.097180	0.396847
O2	O	1.834183	0.004671	0.388684
O3	O	1.804607	-0.192693	0.394717
O4	O	1.731079	-0.095685	0.569658
O5	O	1.908220	-0.093009	0.212532
V6	V	2.084424	-0.084997	0.374730
O7	O	1.939887	-0.123903	0.445361
O8	O	2.201838	-0.058274	0.326216
O9	O	2.000416	0.010515	0.376860
O10	O	2.141141	-0.186849	0.382892
O11	O	2.067104	-0.089169	0.559045
O12	O	2.073944	-0.086493	0.201918
V13	V	2.332202	-0.097180	0.396847
O14	O	2.334183	0.004671	0.388684
O15	O	2.304607	-0.192693	0.394717
O16	O	2.231079	-0.095685	0.569658
O17	O	2.408220	-0.093009	0.212532
V18	V	2.584424	-0.084997	0.374730
O19	O	2.439887	-0.123903	0.445361
O20	O	2.701838	-0.058274	0.326216
O21	O	2.500416	0.010515	0.376860
O22	O	2.641141	-0.186849	0.382892
O23	O	2.567104	-0.089169	0.559045
O24	O	2.573944	-0.086493	0.201918
C25	C	1.728770	-0.215977	0.388608
C26	C	1.746339	-0.294060	0.388018
C27	C	1.842650	-0.334315	0.394097
C28	C	1.859154	-0.407684	0.393556
C29	C	1.779348	-0.440791	0.386911
C30	C	1.683021	-0.400527	0.380839
C31	C	1.666516	-0.327162	0.381393
N32	N	1.759827	-0.547056	0.308591
N33	N	1.775512	-0.616751	0.308063
C34	C	1.829070	-0.661839	0.385245
N35	N	1.866368	-0.634598	0.462961
N36	N	1.850686	-0.564897	0.463483
C37	C	1.797235	-0.520344	0.386311
C38	C	1.943282	-0.781649	0.390739
C39	C	1.959781	-0.855019	0.390206
C40	C	1.783648	-0.847860	0.377476
C41	C	1.767149	-0.774493	0.378022
C42	C	1.846971	-0.741391	0.384648
C43	C	1.634979	-0.092232	0.611761
C44	C	1.592919	-0.091642	0.753039
C45	C	1.907925	0.033796	0.382966
C46	C	1.879972	0.111878	0.383563
C47	C	2.001718	-0.089947	0.159809
C48	C	2.033398	-0.090535	0.018529
C49	C	2.137628	-0.087305	-0.054335
C50	C	2.167389	-0.087861	-0.187081
C51	C	1.988681	-0.094873	-0.174086
C52	C	1.958922	-0.094322	-0.041341
C53	C	2.240803	-0.083254	-0.061840
C54	C	2.270565	-0.083810	-0.194585
C55	C	1.582097	-0.155683	0.837964
C56	C	1.542588	-0.155119	0.970708
C57	C	1.524720	-0.026467	0.933590
C58	C	1.564236	-0.027032	0.800849
C59	C	1.592409	-0.229959	0.859395
C60	C	1.552900	-0.229395	0.992139
C61	C	2.134979	-0.092232	0.611761
C62	C	2.092919	-0.091642	0.753039
C63	C	2.228770	-0.215977	0.388608
C64	C	2.246339	-0.294060	0.388018
C65	C	2.407925	0.033796	0.382966
C66	C	2.379972	0.111878	0.383563
C67	C	2.501718	-0.089947	0.159809
C68	C	2.533398	-0.090535	0.018529
C69	C	2.342655	-0.334310	0.394113
C70	C	2.359171	-0.407679	0.393579
C71	C	2.279372	-0.440796	0.386941
C72	C	2.183046	-0.400541	0.380849
C73	C	2.166529	-0.327174	0.381393
C74	C	2.456147	0.152128	0.377472
C75	C	2.429901	0.225496	0.378012
C76	C	2.327476	0.258614	0.384653
C77	C	2.251296	0.218359	0.390741
C78	C	2.277545	0.144992	0.390192
H79	H	1.907648	-0.307369	0.399500
C80	C	1.493193	0.044599	0.986181
H81	H	1.505314	0.082658	0.916589
H82	H	1.421109	0.049752	1.033057
H83	H	1.533736	0.045234	1.041327
H84	H	1.618042	-0.427489	0.375432
C85	C	1.703521	-0.272325	0.828564
H86	H	1.722407	-0.289360	0.905961
H87	H	1.705150	-0.311388	0.788568
H88	H	1.751559	-0.242355	0.772153
C89	C	2.298608	0.339315	0.385263
H90	H	2.226699	0.353280	0.390083
H91	H	2.311276	0.350810	0.457532
H92	H	2.340036	0.363644	0.308532
C93	C	2.193739	0.100723	0.396914
H94	H	2.128981	0.130958	0.400962
H95	H	2.214632	0.078365	0.322476
H96	H	2.185883	0.065543	0.471476
H97	H	2.118079	-0.427517	0.375445
C98	C	1.452501	-0.264087	1.045209
H99	H	1.438014	-0.278728	0.976952
H100	H	1.461895	-0.304220	1.108044
H101	H	1.395652	-0.230709	1.083354
C102	C	2.251601	-0.012502	-0.029180
H103	H	2.230632	-0.014532	0.061567
H104	H	2.322412	-0.004579	-0.063371
H105	H	2.208397	0.025254	-0.065570
C106	C	1.576146	0.043413	0.707436
H107	H	1.553394	0.081971	0.754924
H108	H	1.647491	0.043621	0.659032
H109	H	1.534878	0.048114	0.650734
C110	C	2.138631	0.254793	0.398063
H111	H	2.133917	0.304250	0.397534
H112	H	2.120603	0.247727	0.326101
H113	H	2.091866	0.234887	0.475100
H114	H	2.038209	-0.887795	0.395165
H115	H	1.588086	-0.294386	0.376444
H116	H	2.088098	-0.294407	0.376423
H117	H	1.937586	-0.440466	0.398505
C118	C	2.465135	-0.451945	0.400263
H119	H	2.510295	-0.421708	0.404270
H120	H	2.454651	-0.487129	0.474810
H121	H	2.495841	-0.474298	0.325808
H122	H	1.874054	-0.096962	0.017984
H123	H	2.539552	0.125174	0.372065
C124	C	1.906765	-0.099036	-0.239949
H125	H	1.939414	-0.098899	-0.329444
H126	H	1.877118	-0.141535	-0.203662
H127	H	1.853230	-0.059230	-0.227389
H128	H	1.538157	-0.250404	0.819733
H129	H	2.303921	-0.033023	-0.247725
H130	H	2.491943	0.258262	0.373056
H131	H	2.292835	-0.500537	0.386499
C132	C	1.695864	-0.884269	0.370153
H133	H	1.719489	-0.933728	0.370683
H134	H	1.636365	-0.877192	0.442117
H135	H	1.677594	-0.864355	0.293118
H136	H	1.613560	-0.255047	1.045097
H137	H	1.688724	-0.741715	0.373064
C138	C	2.302762	-0.147662	0.002169
H139	H	2.348431	-0.174530	-0.061585
H140	H	2.342568	-0.131583	0.044257
H141	H	2.255501	-0.176619	0.063314
H142	H	2.008279	-0.754696	0.396132
C143	C	2.430446	-0.297894	0.401413
H144	H	2.490165	-0.332383	0.404977
H145	H	2.448278	-0.263009	0.327395
H146	H	2.407059	-0.275838	0.476395
H147	H	2.326605	-0.133676	-0.223400
