data_functionalizedCrystal
_audit_creation_method	'MofGen! by Chris Wilmer'
_symmetry_space_group_name_H-M	'P1'
_symmetry_Int_Tables_number	1
_symmetry_cell_setting	triclinic
loop_
_symmetry_equiv_pos_as_xyz
  x,y,z
_cell_length_a	10.654550
_cell_length_b	10.540539
_cell_length_c	9.130313
_cell_angle_alpha	90.000859
_cell_angle_beta	89.996220
_cell_angle_gamma	84.505197
loop_
_atom_site_label
_atom_site_type_symbol
_atom_site_fract_x
_atom_site_fract_y
_atom_site_fract_z
O1	O	1.667897	0.178295	-0.121912
O2	O	1.302424	0.195282	-0.121888
O3	O	1.493499	0.002079	-0.121899
O4	O	1.476823	0.371498	-0.121902
O5	O	1.493496	0.002084	0.121700
O6	O	1.302422	0.195287	0.121711
O7	O	1.667894	0.178300	0.121686
Cu8	Cu	1.485158	0.186794	0.143941
Cu9	Cu	1.485161	0.186788	-0.144143
O10	O	1.476820	0.371503	0.121697
C11	C	1.255625	0.194038	-0.000086
C12	C	1.116180	0.190306	-0.000077
C13	C	1.036734	0.304061	-0.000099
C14	C	0.905712	0.300547	-0.000124
C15	C	0.933595	0.069513	-0.000111
C16	C	1.064614	0.073028	-0.000075
C17	C	1.020636	0.437446	-0.000113
C18	C	0.889614	0.433932	-0.000138
C19	C	1.492247	-0.045221	-0.000102
C20	C	1.488505	-0.186168	-0.000110
C21	C	1.345134	-0.369543	-0.000647
C22	C	1.348927	-0.222926	-0.000099
C23	C	1.555675	-0.247846	0.138993
C24	C	1.550912	-0.394389	0.139110
C25	C	1.553753	-0.394914	-0.137907
C26	C	1.555039	-0.247933	-0.139747
C27	C	1.714694	0.179545	-0.000119
C28	C	1.854139	0.183276	-0.000138
C29	C	1.478072	0.418803	-0.000103
C30	C	1.481813	0.559750	-0.000105
N31	N	1.485165	0.186798	0.346564
N32	N	1.485163	0.186774	-0.346765
C33	C	1.569795	0.101277	0.423211
C34	C	1.569791	0.101262	0.576548
C35	C	1.400525	0.272300	0.576577
C36	C	1.400523	0.272308	0.423243
C37	C	1.667523	0.002533	0.423195
C38	C	1.667520	0.002518	0.576532
H39	H	0.847900	0.484188	-0.102092
H40	H	1.049984	0.489616	0.101838
H41	H	1.636975	-0.089688	0.624082
H42	H	1.758718	0.033451	0.375631
N43	N	1.065452	0.490779	-0.131983
N44	N	1.142693	0.425891	-0.211361
H45	H	1.174361	0.463577	-0.304477
N46	N	1.788589	0.029814	0.628756
N47	N	1.798332	0.125390	0.707489
H48	H	1.883833	0.144665	0.744376
N49	N	1.314073	0.359628	0.654928
N50	N	1.314077	0.359604	0.791832
H51	H	1.253019	0.421281	0.847168
N52	N	0.832354	0.484526	0.131792
N53	N	0.843379	0.597359	0.167685
H54	H	0.802943	0.633092	0.260862
N55	N	1.145748	-0.043181	-0.000025
N56	N	1.099687	-0.147879	-0.000023
H57	H	1.156988	-0.229958	0.000014
N58	N	1.314048	0.359653	0.344971
N59	N	1.238482	0.435987	0.413457
H60	H	1.177402	0.497677	0.358179
N61	N	1.282632	-0.169433	-0.125181
N62	N	1.338778	-0.107951	-0.217496
H63	H	1.291951	-0.070175	-0.305838
H64	H	0.891593	-0.025971	-0.000133
N65	N	1.488637	-0.429774	0.269549
N66	N	1.545296	-0.504750	0.358847
H67	H	1.501311	-0.529737	0.450972
N68	N	1.275979	-0.405395	-0.125798
N69	N	1.326612	-0.483482	-0.216053
H70	H	1.277773	-0.508807	-0.304450
H71	H	1.646046	-0.095040	0.381578
N72	N	1.276253	-0.407419	0.123800
N73	N	1.327387	-0.486261	0.212888
H74	H	1.278744	-0.513015	0.300781
H75	H	1.651295	-0.442394	0.145414
H76	H	1.295701	-0.181149	0.099788
N77	N	1.684264	-0.219850	0.145459
N78	N	1.727938	-0.153968	0.047386
H79	H	1.818755	-0.134193	0.051947
H80	H	1.508580	-0.426453	-0.243339
N81	N	1.497131	-0.194378	0.268852
N82	N	1.405953	-0.110864	0.259316
H83	H	1.364597	-0.073103	0.351026
H84	H	1.505891	-0.207059	-0.242651
N85	N	1.682699	-0.217586	-0.150269
N86	N	1.759325	-0.250092	-0.050368
H87	H	1.849489	-0.228655	-0.057787
H88	H	1.654570	-0.442177	-0.138850
