data_functionalizedCrystal
_audit_creation_method	'MofGen! by Chris Wilmer'
_symmetry_space_group_name_H-M	'P1'
_symmetry_Int_Tables_number	1
_symmetry_cell_setting	triclinic
loop_
_symmetry_equiv_pos_as_xyz
  x,y,z
_cell_length_a	16.704494
_cell_length_b	12.970454
_cell_length_c	12.970454
_cell_angle_alpha	59.999644
_cell_angle_beta	90.000580
_cell_angle_gamma	56.632329
loop_
_atom_site_label
_atom_site_type_symbol
_atom_site_fract_x
_atom_site_fract_y
_atom_site_fract_z
Zr1	Zr	0.815198	1.020730	-0.081401
O2	O	0.680080	1.253688	-0.254961
O3	O	0.856619	0.800162	-0.028194
O4	O	0.856619	1.015254	-0.243286
O5	O	0.680081	1.038595	0.129798
O6	O	0.995875	0.996840	-0.234078
O7	O	0.680081	1.038596	-0.039869
O8	O	0.995877	0.612080	0.150682
O9	O	0.680080	1.423355	-0.254962
O10	O	0.978211	0.872554	0.001369
O11	O	0.874285	0.886295	0.121118
O12	O	0.874284	1.139538	-0.132126
O13	O	0.770359	1.153280	-0.012377
Zr14	Zr	1.037298	0.991361	0.203886
Zr15	Zr	1.037297	0.991363	-0.066714
Zr16	Zr	0.815199	1.020729	0.189199
Zr17	Zr	0.815198	1.291330	-0.081402
Zr18	Zr	1.037298	0.720761	0.203887
O19	O	0.995877	1.211929	0.150679
O20	O	0.995875	1.211931	-0.234079
O21	O	0.680081	1.253686	0.129797
O22	O	1.172416	0.758403	0.377446
O23	O	1.172414	0.758405	-0.007312
O24	O	0.856621	0.800160	0.356564
O25	O	1.172415	0.973496	-0.007313
O26	O	0.995877	0.996837	0.365771
O27	O	0.856621	1.015251	0.356563
O28	O	1.172415	0.973495	0.162354
O29	O	0.856619	1.400012	-0.243288
O30	O	0.995877	0.612079	0.365773
O31	O	1.172416	0.588736	0.377447
O32	O	1.172415	0.588737	0.162356
O33	O	0.680081	1.423354	-0.039871
O34	O	0.856619	1.400011	-0.028197
O35	O	0.978211	0.872553	0.254611
O36	O	1.082137	0.858812	0.134862
O37	O	0.978211	1.125796	0.001367
O38	O	0.874285	1.139537	0.121116
C39	C	0.926248	0.667566	0.061244
C40	C	0.926248	0.552690	0.061245
C41	C	0.648437	1.042780	0.042872
C42	C	0.554150	1.055247	0.036637
C43	C	0.485483	0.799918	0.164321
C44	C	0.396895	0.811625	0.158466
C45	C	0.288386	1.090366	0.019082
C46	C	0.376974	1.078659	0.024936
C47	C	0.475521	0.933430	0.097557
C48	C	0.564110	0.921725	0.103403
C49	C	0.455600	1.200465	-0.035973
C50	C	0.367012	1.212172	-0.041828
C51	C	1.204059	0.969311	0.079613
C52	C	1.298346	0.956844	0.085847
C53	C	0.926247	1.006047	-0.277237
C54	C	0.926246	1.006048	-0.392114
C55	C	0.926248	1.344525	0.061241
C56	C	0.926248	1.459402	0.061240
C57	C	0.926249	1.006044	0.399722
C58	C	0.926250	1.006043	0.514599
C59	C	1.204059	0.630832	0.079614
C60	C	1.298346	0.503488	0.085850
C61	C	0.926249	0.667564	0.399724
C62	C	0.926250	0.552687	0.514601
C63	C	1.204060	0.630830	0.418094
C64	C	1.298347	0.503486	0.539206
C65	C	0.648436	1.381261	-0.295609
C66	C	0.554149	1.508606	-0.416721
C67	C	0.648437	1.381259	0.042870
C68	C	0.554150	1.508603	0.036635
C69	C	0.926247	1.344527	-0.277239
C70	C	0.926246	1.459404	-0.392116
C71	C	1.288375	0.450859	0.019085
C72	C	1.376959	0.331222	0.024917
C73	C	1.475512	0.264208	0.097524
C74	C	1.485480	0.316848	0.164291
C75	C	1.396898	0.436491	0.158450
C76	C	1.396883	0.436509	0.533574
C77	C	1.485484	0.316869	0.647362
C78	C	1.475547	0.264201	0.766780
C79	C	1.377001	0.331189	0.772409
C80	C	1.288403	0.450834	0.658622
C81	C	0.455613	1.575595	-0.411089
C82	C	0.367012	1.695268	-0.524877
C83	C	0.376949	1.747943	-0.644295
C84	C	0.475495	1.680947	-0.649924
C85	C	0.564093	1.561284	-0.536137
C86	C	0.564121	1.561243	0.103389
C87	C	0.475537	1.680910	0.097526
C88	C	0.376984	1.747928	0.024916
C89	C	0.367016	1.695283	-0.041845
C90	C	0.455598	1.575625	-0.035989
H91	H	0.644349	0.803472	0.162542
H92	H	0.565723	0.681667	0.223459
H93	H	1.368926	0.288288	0.869654
O94	O	0.659731	1.496328	-0.541848
C95	C	0.757954	1.494828	-0.677916
C96	C	0.649586	1.568494	-0.671621
H97	H	0.749789	1.553165	-0.782829
H98	H	0.802153	1.366703	-0.627860
H99	H	0.802155	1.510148	-0.627701
H100	H	0.605299	1.553290	-0.721849
H101	H	0.605466	1.696590	-0.721637
O102	O	0.406756	0.681777	0.223350
C103	C	0.523734	0.404068	0.362283
C104	C	0.512713	0.551001	0.288835
H105	H	0.609395	0.298299	0.415269
H106	H	0.485040	0.402462	0.291306
H107	H	0.484913	0.402675	0.434726
H108	H	0.551539	0.552491	0.216393
H109	H	0.551378	0.552550	0.359888
O110	O	1.561632	0.147830	0.103436
C111	C	1.718477	-0.116696	0.238886
C112	C	1.621009	0.014982	0.232378
H113	H	1.766499	-0.224145	0.343124
H114	H	1.766661	-0.080737	0.199687
H115	H	1.694384	-0.142714	0.178637
H116	H	1.645010	0.041064	0.292633
H117	H	1.572849	-0.021044	0.271531
H118	H	0.208137	1.208604	-0.040024
O119	O	1.581280	0.251699	0.642108
C120	C	1.765853	0.061021	0.761956
C121	C	1.657432	0.134696	0.768096
H122	H	1.827452	-0.033612	0.863804
H123	H	1.775226	0.152737	0.708806
H124	H	1.775143	0.009326	0.708695
H125	H	1.648068	0.186384	0.821378
H126	H	1.648109	0.042920	0.821199
O127	O	0.290911	1.864351	0.019014
C128	C	0.134003	2.128823	-0.116451
C129	C	0.231440	1.997121	-0.109954
H130	H	0.085883	2.236189	-0.220716
H131	H	0.158016	2.155049	-0.056345
H132	H	0.085938	2.092684	-0.077097
H133	H	0.279549	2.033153	-0.149328
H134	H	0.207356	1.970920	-0.170028
H135	H	1.405030	0.479325	0.212826
H136	H	0.447466	1.532771	-0.090346
H137	H	1.404993	0.479374	0.436349
H138	H	0.286765	1.330413	-0.100948
H139	H	1.547698	0.166777	0.859423
O140	O	0.271356	1.760253	-0.112467
C141	C	0.173039	1.761814	-0.249988
C142	C	0.281437	1.688133	-0.170096
H143	H	0.181152	1.703513	-0.296580
H144	H	0.128827	1.889947	-0.328043
H145	H	0.128881	1.746461	-0.184399
H146	H	0.325680	1.703370	-0.235581
H147	H	0.325570	1.560028	-0.092029
H148	H	0.483573	1.723851	-0.747167
H149	H	0.447494	1.309181	-0.090341
O150	O	0.271272	1.760555	-0.519458
C151	C	0.108265	1.992786	-0.575376
C152	C	0.216662	1.919046	-0.581583
H153	H	0.064074	2.120944	-0.625620
H154	H	0.116330	1.934683	-0.470497
H155	H	0.064113	1.977330	-0.625493
H156	H	0.260873	1.934481	-0.531532
H157	H	0.208523	1.977162	-0.686488
O158	O	1.192725	0.515820	-0.051556
C159	C	1.094464	0.517365	-0.189128
C160	C	1.202845	0.443691	-0.109191
H161	H	1.102609	0.459058	-0.235726
H162	H	1.050256	0.645497	-0.267182
H163	H	1.050285	0.502015	-0.123572
H164	H	1.247110	0.458926	-0.174645
H165	H	1.246974	0.315587	-0.031126
H166	H	1.368822	0.288379	-0.029453
H167	H	1.208174	0.505352	0.663225
O168	O	1.581165	0.251707	0.235011
C169	C	1.701055	0.113815	0.444794
C170	C	1.592650	0.187580	0.364839
H171	H	1.710383	0.061921	0.549779
H172	H	1.710447	0.205498	0.406374
H173	H	1.762621	0.019317	0.437425
H174	H	1.531018	0.282064	0.372173
H175	H	1.583346	0.095806	0.403281
H176	H	0.447503	1.532716	-0.313864
O177	O	0.659926	1.495947	0.173906
C178	C	0.844493	1.305334	0.244635
C179	C	0.736062	1.379101	0.164756
H180	H	0.906078	1.210872	0.237243
H181	H	0.853902	1.253466	0.349641
H182	H	0.853769	1.397146	0.206080
H183	H	0.726712	1.287379	0.203199
H184	H	0.726703	1.431005	0.059761
H185	H	0.304797	1.845381	-0.736938
H186	H	0.483674	1.723752	0.151898
