data_functionalizedCrystal
_audit_creation_method	'MofGen! by Chris Wilmer'
_symmetry_space_group_name_H-M	'P1'
_symmetry_Int_Tables_number	1
_symmetry_cell_setting	triclinic
loop_
_symmetry_equiv_pos_as_xyz
  x,y,z
_cell_length_a	13.033304
_cell_length_b	13.032721
_cell_length_c	13.032268
_cell_angle_alpha	103.289627
_cell_angle_beta	89.077769
_cell_angle_gamma	105.183092
loop_
_atom_site_label
_atom_site_type_symbol
_atom_site_fract_x
_atom_site_fract_y
_atom_site_fract_z
Zn1	Zn	-1.451133	0.335813	0.818131
Zn2	Zn	-1.451019	0.490910	0.663066
Zn3	Zn	-1.301797	0.330110	0.623681
Zn4	Zn	-1.250931	0.535896	0.818005
O5	O	-1.363720	0.423183	0.730721
O6	O	-1.597353	0.339947	0.814097
O7	O	-1.452464	0.448366	0.511621
O8	O	-1.342943	0.179836	0.633046
O9	O	-1.597269	0.453897	0.700172
O10	O	-1.452659	0.184026	0.775907
O11	O	-1.342832	0.330227	0.482685
O12	O	-1.148815	0.373848	0.632923
O13	O	-1.256248	0.530569	0.964242
O14	O	-1.111443	0.525038	0.775692
O15	O	-1.403335	0.383568	0.964335
O16	O	-1.403141	0.647909	0.700049
O17	O	-1.256137	0.680960	0.813882
C18	C	-1.092212	0.453707	0.700021
C19	C	-0.976052	0.466795	0.686914
C20	C	-0.924277	0.416366	0.737549
C21	C	-0.804220	0.429892	0.724004
C22	C	-1.324132	0.703595	0.761252
C23	C	-1.307287	0.823551	0.774359
C24	C	-1.324130	0.462723	1.003262
C25	C	-1.307259	0.479572	1.119403
C26	C	-0.636290	0.392534	0.761534
C27	C	-0.752448	0.379456	0.774646
C28	C	-1.403488	0.141675	0.700097
C29	C	-1.420434	0.021713	0.687047
C30	C	-1.372560	0.860644	0.723934
C31	C	-1.355151	0.984625	0.737479
C32	C	-1.403227	0.383712	0.459238
C33	C	-1.420343	0.366535	0.343088
C34	C	-1.372514	0.414352	1.171228
C35	C	-1.355079	0.431765	1.291266
H36	H	-0.931497	0.519979	0.633535
N37	N	-1.220965	0.565778	1.175213
N38	N	-1.150956	0.544055	1.224467
H39	H	-1.090007	0.604938	1.263882
H40	H	-1.489117	0.297795	1.298594
N41	N	-1.268856	1.059918	0.804204
N42	N	-1.175184	1.057337	0.784939
H43	H	-1.114237	1.110514	0.832061
N44	N	-1.458782	0.328126	1.115399
N45	N	-1.472820	0.314100	1.017966
H46	H	-1.533749	0.253200	0.978537
N47	N	-1.268789	0.517999	1.347057
N48	N	-1.207429	0.579324	1.298394
H49	H	-1.146485	0.640225	1.337795
H50	H	-1.441336	0.800617	0.670739
H51	H	-1.489214	0.961688	0.633849
N52	N	-0.748347	0.496602	0.657018
N53	N	-0.702445	0.455682	0.579518
H54	H	-0.662984	0.502793	0.532207
N55	N	-0.808306	0.312734	0.841629
N56	N	-0.759686	0.265322	0.889244
H57	H	-0.799135	0.218202	0.936553
H58	H	-0.968833	0.363174	0.790922
N59	N	-1.221022	0.898863	0.841102
N60	N	-1.207004	0.999470	0.852014
H61	H	-1.146078	1.052659	0.899154
