data_functionalizedCrystal
_audit_creation_method	'MofGen! by Chris Wilmer'
_symmetry_space_group_name_H-M	'P1'
_symmetry_Int_Tables_number	1
_symmetry_cell_setting	triclinic
loop_
_symmetry_equiv_pos_as_xyz
  x,y,z
_cell_length_a	10.654562
_cell_length_b	10.489763
_cell_length_c	9.130313
_cell_angle_alpha	90.008417
_cell_angle_beta	89.994824
_cell_angle_gamma	95.480768
loop_
_atom_site_label
_atom_site_type_symbol
_atom_site_fract_x
_atom_site_fract_y
_atom_site_fract_z
O1	O	1.667926	-0.179236	-0.121913
O2	O	1.302459	-0.196288	-0.121896
O3	O	1.493494	-0.002162	-0.121878
O4	O	1.476891	-0.373362	-0.121932
O5	O	1.493485	-0.002159	0.121721
O6	O	1.302450	-0.196285	0.121702
O7	O	1.667917	-0.179233	0.121686
Cu8	Cu	1.485183	-0.187759	0.143937
Cu9	Cu	1.485194	-0.187762	-0.144147
O10	O	1.476882	-0.373359	0.121667
C11	C	1.255656	-0.195031	-0.000094
C12	C	1.116212	-0.191275	-0.000087
C13	C	1.050675	-0.189521	0.132688
C14	C	0.919651	-0.186002	0.132664
C15	C	0.919711	-0.185996	-0.132921
C16	C	1.050734	-0.189506	-0.132896
C17	C	1.116153	-0.191291	0.265496
C18	C	1.050616	-0.189538	0.398282
C19	C	0.919592	-0.186019	0.398258
C20	C	0.854105	-0.184252	0.265448
C21	C	1.492230	0.045370	-0.000074
C22	C	1.488460	0.186996	-0.000062
C23	C	1.366895	0.255083	-0.000060
C24	C	1.424307	0.347231	0.120053
C25	C	1.424345	0.347202	-0.120116
C26	C	1.545922	0.277279	0.120150
C27	C	1.545943	0.277241	-0.120127
C28	C	1.603443	0.369362	0.000015
C29	C	1.714720	-0.180490	-0.000119
C30	C	1.854165	-0.184246	-0.000136
C31	C	1.478127	0.579107	-0.000114
C32	C	1.481837	0.437473	-0.000060
N33	N	1.485184	-0.187756	0.346559
C34	C	1.408322	-0.109666	0.423250
C35	C	1.408324	-0.109673	0.576587
C36	C	1.562060	-0.265863	0.576528
C37	C	1.562051	-0.265862	0.423194
C38	C	1.331456	-0.031559	0.346615
C39	C	1.254589	0.046538	0.423307
C40	C	1.254591	0.046531	0.576643
C41	C	1.331459	-0.031574	0.653289
N42	N	1.485195	-0.187765	0.653230
H43	H	1.103945	-0.190967	0.506410
F44	F	1.613095	0.237016	0.253011
H45	H	1.331448	-0.031542	0.221761
H46	H	1.266953	0.205388	0.000061
H47	H	1.104094	-0.190940	-0.241012
F48	F	1.172773	0.129635	0.658260
F49	F	1.643864	-0.348981	0.658105
H50	H	1.331447	-0.031581	0.778146
F51	F	1.357073	0.387738	0.252784
H52	H	1.624634	-0.329454	0.360751
H53	H	0.866236	-0.184583	0.506378
F54	F	0.714659	-0.180476	0.265430
H55	H	1.597340	0.246218	-0.221680
H56	H	1.372896	0.378142	-0.221661
F57	F	1.734190	0.434023	0.000098
H58	H	1.222839	-0.194160	0.265531
F59	F	0.850012	-0.184107	-0.274256
H60	H	1.191997	0.110120	0.360892
