data_functionalizedCrystal
_audit_creation_method	'MofGen! by Chris Wilmer'
_symmetry_space_group_name_H-M	'P1'
_symmetry_Int_Tables_number	1
_symmetry_cell_setting	triclinic
loop_
_symmetry_equiv_pos_as_xyz
  x,y,z
_cell_length_a	6.817900
_cell_length_b	7.076105
_cell_length_c	14.858329
_cell_angle_alpha	90.603658
_cell_angle_beta	104.519616
_cell_angle_gamma	117.701832
loop_
_atom_site_label
_atom_site_type_symbol
_atom_site_fract_x
_atom_site_fract_y
_atom_site_fract_z
V1	V	-4.204948	-0.665613	-0.127216
V2	V	-3.704948	-0.165613	0.372784
O3	O	-4.183566	-0.652317	0.007609
O4	O	-3.683566	-0.152317	0.507609
O5	O	-4.160539	-0.661662	-0.253686
O6	O	-3.660539	-0.161662	0.246314
O7	O	-4.231845	-0.955635	-0.124603
O8	O	-3.731845	-0.455635	0.375397
O9	O	-4.111766	-0.356309	-0.122368
O10	O	-3.611766	0.143691	0.377632
V11	V	-4.678301	-0.628545	-0.111167
V12	V	-4.178301	-0.128545	0.388833
O13	O	-4.488513	-0.746925	-0.162420
O14	O	-3.988513	-0.246925	0.337580
O15	O	-4.844934	-0.547232	-0.075962
O16	O	-4.344934	-0.047232	0.424038
O17	O	-4.499504	-0.632495	0.015303
O18	O	-3.999504	-0.132495	0.515303
O19	O	-4.817080	-0.641841	-0.245991
O20	O	-4.317080	-0.141841	0.254009
O21	O	-4.888880	-0.937849	-0.116014
O22	O	-4.388880	-0.437849	0.383986
O23	O	-4.428197	-0.338522	-0.113780
O24	O	-3.928197	0.161478	0.386220
C25	C	-4.004074	-0.651317	-0.284537
C26	C	-3.504074	-0.151317	0.215463
C27	C	-4.049553	-0.650020	-0.387923
C28	C	-3.549553	-0.150020	0.112077
C29	C	-4.086476	-0.648947	-0.471884
C30	C	-3.586476	-0.148947	0.028116
C31	C	-4.132820	-0.647611	-0.577216
C32	C	-3.632820	-0.147611	-0.077216
C33	C	-4.169773	-0.646548	-0.661171
C34	C	-3.669773	-0.146548	-0.161171
C35	C	-4.216119	-0.645208	-0.766510
C36	C	-3.716119	-0.145208	-0.266510
C37	C	-4.101984	-0.026305	-0.119873
C38	C	-3.601984	0.473695	0.380127
C39	C	-4.228370	-0.267851	-0.118524
C40	C	-3.728370	0.232149	0.381476
C41	C	-4.319309	-0.642834	0.046150
C42	C	-3.819309	-0.142834	0.546150
C43	C	-4.253072	-0.644145	0.149535
C44	C	-3.753072	-0.144145	0.649535
