data_functionalizedCrystal
_audit_creation_method	'MofGen! by Chris Wilmer'
_symmetry_space_group_name_H-M	'P1'
_symmetry_Int_Tables_number	1
_symmetry_cell_setting	triclinic
loop_
_symmetry_equiv_pos_as_xyz
  x,y,z
_cell_length_a	16.625539
_cell_length_b	13.032951
_cell_length_c	13.031981
_cell_angle_alpha	90.900548
_cell_angle_beta	82.787859
_cell_angle_gamma	97.193383
loop_
_atom_site_label
_atom_site_type_symbol
_atom_site_fract_x
_atom_site_fract_y
_atom_site_fract_z
Zn1	Zn	-0.544874	-1.520332	-0.609588
Zn2	Zn	-0.391027	-1.498390	-0.781592
Zn3	Zn	-0.395370	-1.348343	-0.587737
Zn4	Zn	-0.511151	-1.326499	-0.759654
O5	O	-0.460606	-1.423391	-0.684643
O6	O	-0.536761	-1.661337	-0.650731
O7	O	-0.278763	-1.478445	-0.755913
O8	O	-0.431133	-1.389482	-0.446704
O9	O	-0.423730	-1.645216	-0.777101
O10	O	-0.540972	-1.515842	-0.462758
O11	O	-0.281954	-1.368206	-0.613489
O12	O	-0.398434	-1.201530	-0.592216
O13	O	-0.628465	-1.352253	-0.739711
O14	O	-0.483498	-1.185482	-0.718523
O15	O	-0.653240	-1.494661	-0.629458
O16	O	-0.391031	-1.457264	-0.922614
O17	O	-0.479286	-1.330977	-0.906496
C18	C	-0.437778	-1.156190	-0.650619
C19	C	-0.428029	-1.041877	-0.636088
C20	C	-0.465686	-0.982987	-0.692204
C21	C	-0.455610	-0.864839	-0.677187
C22	C	-0.670929	-1.423468	-0.684575
C23	C	-0.760556	-1.423500	-0.684546
C24	C	-1.088749	-1.423562	-0.684436
C25	C	-0.997435	-1.423542	-0.684470
C26	C	-0.924655	-1.423532	-0.684492
C27	C	-0.833336	-1.423510	-0.684523
C28	C	-0.251114	-1.423383	-0.684644
C29	C	-0.161536	-1.423587	-0.684409
C30	C	-0.431048	-1.389397	-0.951878
C31	C	-0.418438	-1.374949	-1.066215
C32	C	-0.483519	-0.691637	-0.718789
C33	C	-0.493272	-0.805951	-0.733310
C34	C	-0.467208	-1.430987	-1.125044
C35	C	-0.454176	-1.416055	-1.243217
C36	C	-0.490299	-1.457546	-0.416367
C37	C	-0.502952	-1.472100	-0.302044
H38	H	-0.415912	-0.827793	-0.618018
H39	H	-0.532979	-0.842997	-0.792469
Cl40	Cl	-0.366740	-0.984683	-0.544740
H41	H	-0.402775	-1.357015	-1.280332
Cl42	Cl	-0.546577	-1.522118	-1.067740
Cl43	Cl	-0.339081	-1.283801	-1.123516
H44	H	-0.554359	-1.531132	-1.264929
Cl45	Cl	-0.526975	-1.040181	-0.783551
