data_functionalizedCrystal
_audit_creation_method	'MofGen! by Chris Wilmer'
_symmetry_space_group_name_H-M	'P1'
_symmetry_Int_Tables_number	1
_symmetry_cell_setting	triclinic
loop_
_symmetry_equiv_pos_as_xyz
  x,y,z
_cell_length_a	13.635800
_cell_length_b	23.752963
_cell_length_c	19.453114
_cell_angle_alpha	83.258122
_cell_angle_beta	101.709288
_cell_angle_gamma	79.933268
loop_
_atom_site_label
_atom_site_type_symbol
_atom_site_fract_x
_atom_site_fract_y
_atom_site_fract_z
V1	V	1.994961	-0.079759	0.219414
O2	O	1.997712	0.003220	0.214813
O3	O	1.962532	-0.157559	0.218322
O4	O	1.966519	-0.078801	0.314922
O5	O	1.993696	-0.076084	0.117544
V6	V	2.238390	-0.069802	0.207180
O7	O	2.121930	-0.101601	0.246251
O8	O	2.336519	-0.047961	0.180344
O9	O	2.159216	0.007998	0.208273
O10	O	2.294338	-0.152781	0.211781
O11	O	2.298353	-0.073478	0.309051
O12	O	2.155228	-0.070760	0.111672
V13	V	2.494961	-0.079759	0.219414
O14	O	2.497712	0.003220	0.214813
O15	O	2.462532	-0.157559	0.218322
O16	O	2.466519	-0.078801	0.314922
O17	O	2.493696	-0.076084	0.117544
V18	V	2.738390	-0.069802	0.207180
O19	O	2.621930	-0.101601	0.246251
O20	O	2.836519	-0.047961	0.180344
O21	O	2.659216	0.007998	0.208273
O22	O	2.794338	-0.152781	0.211781
O23	O	2.798353	-0.073478	0.309051
O24	O	2.655228	-0.070760	0.111672
C25	C	1.883167	-0.176517	0.214965
C26	C	1.897268	-0.240121	0.214709
C27	C	1.968477	-0.626183	0.148674
C28	C	1.981738	-0.685945	0.148423
O29	O	1.974757	-0.709758	0.093555
N30	N	2.004678	-0.724180	0.212665
C31	C	2.014368	-0.702651	0.277162
O32	O	2.035099	-0.740660	0.331782
C33	C	2.001114	-0.642890	0.277413
C34	C	1.978163	-0.604657	0.213166
C35	C	1.945528	-0.587951	0.084433
C36	C	1.932266	-0.528193	0.084684
C37	C	1.941953	-0.506667	0.149176
C38	C	1.964901	-0.544899	0.213418
C39	C	2.010811	-0.621361	0.341910
C40	C	1.997555	-0.561596	0.342155
C41	C	1.974604	-0.523363	0.277908
C42	C	1.961325	-0.463615	0.278161
N43	N	1.938385	-0.425380	0.213919
C44	C	1.928699	-0.446906	0.149427
C45	C	2.042203	-0.828152	0.276631
C46	C	2.055449	-0.887912	0.276381
C47	C	2.022820	-0.871203	0.147642
C48	C	2.009566	-0.811442	0.147892
C49	C	2.019262	-0.789917	0.212389
C50	C	1.900848	-0.321410	0.149959
C51	C	1.887582	-0.261647	0.150216
C52	C	1.920217	-0.278362	0.278955
C53	C	1.933477	-0.338120	0.278699
C54	C	1.923794	-0.359642	0.214195
O55	O	1.968295	-0.439760	0.333001
O56	O	1.907981	-0.408891	0.094817
C57	C	1.888254	-0.076052	0.338188
C58	C	1.905587	-0.075784	0.416269
C59	C	2.070251	0.026953	0.211627
C60	C	2.045769	0.090557	0.211888
C61	C	2.065165	-0.073511	0.088402
C62	C	2.037451	-0.073776	0.010321
C63	C	2.383167	-0.176517	0.214965
C64	C	2.397268	-0.240121	0.214709
C65	C	2.388254	-0.076052	0.338188
C66	C	2.405587	-0.075784	0.416269
C67	C	2.004318	-0.078530	0.456541
C68	C	2.020605	-0.078278	0.529906
C69	C	1.938159	-0.075291	0.563000
C70	C	1.839413	-0.072542	0.522718
C71	C	1.823128	-0.072788	0.449353
N72	N	1.905091	-0.105508	0.681946
N73	N	1.920568	-0.105275	0.751640
C74	C	1.987220	-0.074547	0.784044
N75	N	2.037828	-0.044069	0.744123
N76	N	2.022353	-0.044305	0.674422
C77	C	1.955807	-0.075023	0.642551
C78	C	2.103617	-0.077019	0.903867
C79	C	2.119900	-0.076764	0.977233
C80	C	1.938707	-0.071033	0.970044
C81	C	1.922425	-0.071283	0.896679
C82	C	2.004885	-0.074279	0.863595
C83	C	2.570251	0.026953	0.211627
C84	C	2.545769	0.090557	0.211888
C85	C	2.565165	-0.073511	0.088402
C86	C	2.537451	-0.073776	0.010321
C87	C	2.494486	-0.272918	0.218113
C88	C	2.507752	-0.332682	0.217882
C89	C	2.423797	-0.359649	0.214243
C90	C	2.326572	-0.326849	0.210840
C91	C	2.313308	-0.267086	0.211076
C92	C	2.504325	-0.078520	0.456532
C93	C	2.520624	-0.078261	0.529896
C94	C	2.438185	-0.075269	0.562998
C95	C	2.339439	-0.072530	0.522729
C96	C	2.323140	-0.072786	0.449365
C97	C	2.621045	0.123352	0.208486
C98	C	2.598051	0.183117	0.208720
C99	C	2.499783	0.210084	0.212361
C100	C	2.424501	0.177284	0.215762
C101	C	2.447494	0.117521	0.215523
C102	C	2.437659	-0.076762	-0.022762
C103	C	2.411602	-0.077004	-0.096129
C104	C	2.485340	-0.074265	-0.136411
C105	C	2.585139	-0.071278	-0.103323
C106	C	2.611193	-0.071031	-0.029959
H107	H	1.868889	-0.230520	0.097897
H108	H	2.242736	-0.070559	0.416589
C109	C	2.680872	0.219185	0.204987
H110	H	2.742691	0.194561	0.202797
H111	H	2.658865	0.247958	0.163756
H112	H	2.692167	0.237280	0.246118
H113	H	2.701066	0.101404	0.205522
H114	H	2.005464	-0.544075	0.394678
C115	C	2.356536	-0.079772	0.021535
H116	H	2.386332	-0.079202	0.069971
H117	H	2.301392	-0.047448	0.004394
H118	H	2.331843	-0.114529	0.017574
C119	C	2.456678	-0.074544	-0.217109
H120	H	2.514881	-0.072483	-0.236367
H121	H	2.433966	-0.109196	-0.225780
H122	H	2.403507	-0.042116	-0.238968
H123	H	2.481074	0.258747	0.212555
H124	H	2.344490	0.199249	0.218726
C125	C	1.907036	-0.486143	0.014015
H126	H	1.900518	-0.447465	0.023391
H127	H	1.960460	-0.494377	-0.010217
H128	H	1.844549	-0.490640	-0.014726
C129	C	2.364687	0.081450	0.219277
H130	H	2.302877	0.106073	0.221488
H131	H	2.353377	0.063349	0.178157
H132	H	2.386713	0.052680	0.260517
H133	H	1.952148	-0.369250	0.331013
C134	C	2.301828	-0.080299	-0.132510
H135	H	2.261656	-0.081905	-0.098007
H136	H	2.272813	-0.046977	-0.167569
H137	H	2.303296	-0.114057	-0.154389
C138	C	2.666243	-0.068272	-0.147638
H139	H	2.636427	-0.068854	-0.196067
H140	H	2.690947	-0.033520	-0.143690
H141	H	2.721387	-0.100601	-0.130503
H142	H	2.692456	-0.068603	-0.003028
H143	H	2.029499	-0.652481	0.394226
H144	H	2.272322	-0.070095	0.549691
H145	H	1.892961	-0.338926	0.097435
H146	H	1.990877	-0.780316	0.095577
C147	C	1.934861	-0.611620	0.013485
H148	H	1.919288	-0.580284	-0.024733
H149	H	1.997298	-0.636454	0.012950
H150	H	1.881390	-0.632713	0.008458
H151	H	2.562857	-0.250969	0.221072
H152	H	2.071464	-0.080967	0.429608
C153	C	2.012189	-0.894890	0.076701
H154	H	2.023385	-0.935957	0.085759
H155	H	1.945366	-0.879803	0.048031
H156	H	2.061279	-0.883531	0.052556
H157	H	2.050096	-0.810632	0.329156
C158	C	2.080684	-0.929961	0.347052
H159	H	2.084559	-0.908576	0.385493
H160	H	2.028589	-0.951758	0.347383
H161	H	2.144496	-0.955485	0.351884
H162	H	2.234141	-0.240387	0.208300
C163	C	1.930892	-0.254676	0.349892
H164	H	1.919723	-0.213609	0.340835
H165	H	1.881831	-0.266030	0.374064
H166	H	1.997735	-0.269769	0.378538
C167	C	2.129218	-0.081313	0.574216
H168	H	2.175996	-0.083139	0.544006
H169	H	2.130350	-0.047803	0.596406
H170	H	2.148322	-0.114882	0.609567
H171	H	1.772285	-0.070108	0.549667
H172	H	2.434611	-0.408313	0.214051
H173	H	1.742727	-0.070548	0.416563
H174	H	2.200299	-0.078995	1.010020
H175	H	2.586923	-0.359380	0.220651
C176	C	1.848007	-0.067732	1.006431
H177	H	1.786870	-0.066126	0.971935
H178	H	1.859584	-0.101048	1.041498
H179	H	1.841600	-0.033969	1.028302
C180	C	1.813823	-0.068272	0.852380
H181	H	1.767052	-0.066462	0.882595
H182	H	1.794692	-0.034712	0.817020
H183	H	1.812718	-0.101793	0.830203
H184	H	2.170760	-0.079457	0.876928
C185	C	2.456120	-0.074989	0.643697
H186	H	2.392884	-0.072811	0.657649
H187	H	2.502279	-0.109527	0.668208
H188	H	2.484254	-0.042447	0.655017
C189	C	2.595017	-0.081809	0.420134
H190	H	2.656148	-0.083395	0.454627
H191	H	2.601449	-0.115565	0.398258
H192	H	2.583414	-0.048484	0.385071
H193	H	2.601034	-0.080493	0.562674
C194	C	2.234230	-0.356517	0.206830
H195	H	2.256062	-0.396805	0.207169
H196	H	2.205258	-0.350867	0.246596
H197	H	2.184406	-0.340188	0.164236
