data_functionalizedCrystal
_audit_creation_method	'MofGen! by Chris Wilmer'
_symmetry_space_group_name_H-M	'P1'
_symmetry_Int_Tables_number	1
_symmetry_cell_setting	triclinic
loop_
_symmetry_equiv_pos_as_xyz
  x,y,z
_cell_length_a	21.295417
_cell_length_b	17.639617
_cell_length_c	21.295411
_cell_angle_alpha	78.751768
_cell_angle_beta	89.978356
_cell_angle_gamma	101.214475
loop_
_atom_site_label
_atom_site_type_symbol
_atom_site_fract_x
_atom_site_fract_y
_atom_site_fract_z
Zn1	Zn	-0.056424	1.208573	-0.550846
Zn2	Zn	-0.161696	1.208451	-0.445552
Zn3	Zn	-0.077675	1.076362	-0.424266
Zn4	Zn	-0.182916	1.076323	-0.529472
O5	O	-0.119678	1.142427	-0.487534
O6	O	-0.052614	1.319184	-0.554732
O7	O	-0.150563	1.190894	-0.354633
O8	O	0.013244	1.093967	-0.441095
O9	O	-0.129957	1.319094	-0.477373
O10	O	0.028857	1.191103	-0.534092
O11	O	-0.088834	1.093848	-0.338995
O12	O	-0.109410	0.965729	-0.420369
O13	O	-0.166124	1.093902	-0.620403
O14	O	-0.186731	0.965701	-0.497663
O15	O	-0.073191	1.191065	-0.636106
O16	O	-0.252611	1.190856	-0.456647
O17	O	-0.268202	1.093783	-0.518303
C18	C	-0.152680	0.937031	-0.454388
C19	C	-0.166813	0.849162	-0.440222
C20	C	-0.012294	0.560376	-0.595303
C21	C	-0.025591	0.477809	-0.581980
C22	C	-0.105994	0.477737	-0.501310
C23	C	-0.092706	0.560306	-0.514628
C24	C	-0.045855	0.601619	-0.561625
C25	C	-0.126268	0.601548	-0.480950
C26	C	-0.112979	0.684110	-0.494266
C27	C	-0.066129	0.725428	-0.541259
C28	C	-0.032567	0.684180	-0.574941
C29	C	-0.173115	0.560234	-0.433951
C30	C	-0.206676	0.601477	-0.400273
C31	C	-0.193391	0.684039	-0.413591
C32	C	-0.146541	0.725358	-0.460585
C33	C	-0.226953	0.725288	-0.379910
C34	C	-0.213664	0.807849	-0.393225
C35	C	-0.133252	0.807919	-0.473900
C36	C	-0.283246	1.142324	-0.487483
C37	C	-0.353210	1.142352	-0.487493
C38	C	-0.377930	1.192943	-0.455438
C39	C	-0.443667	1.192980	-0.455458
C40	C	-0.484683	1.142412	-0.487525
C41	C	-0.459955	1.091817	-0.519588
C42	C	-0.394218	1.091787	-0.519572
N43	N	-0.599065	1.073256	-0.481163
N44	N	-0.661511	1.073286	-0.481175
C45	C	-0.682743	1.142500	-0.487575
N46	N	-0.639169	1.211683	-0.493951
N47	N	-0.576717	1.211652	-0.493936
C48	C	-0.555964	1.142439	-0.487546
C49	C	-0.778742	1.193136	-0.455540
C50	C	-0.844480	1.193174	-0.455564
C51	C	-0.860767	1.092004	-0.519690
C52	C	-0.795030	1.091973	-0.519670
C53	C	-0.754021	1.142538	-0.487591
C54	C	0.044533	1.142553	-0.487603
C55	C	0.114509	1.142606	-0.487633
C56	C	-0.119654	1.142493	-0.651735
C57	C	-0.119644	1.142521	-0.721708
C58	C	-0.086548	1.348625	-0.520811
C59	C	-0.072430	1.436495	-0.534991
C60	C	-0.071252	1.193112	-0.762752
C61	C	-0.071225	1.193111	-0.828494
C62	C	-0.119600	1.142527	-0.853191
C63	C	-0.167996	1.091926	-0.812138
C64	C	-0.168018	1.091923	-0.746396
N65	N	-0.175648	1.136428	-0.955423
N66	N	-0.175624	1.136435	-1.017876
C67	C	-0.119535	1.142532	-1.051267
N68	N	-0.063467	1.148636	-1.019849
N69	N	-0.063490	1.148633	-0.957391
C70	C	-0.119581	1.142524	-0.924476
C71	C	-0.071110	1.193124	-1.163597
C72	C	-0.071083	1.193118	-1.229340
C73	C	-0.167858	1.091937	-1.212983
C74	C	-0.167881	1.091940	-1.147240
C75	C	-0.119507	1.142538	-1.122552
C76	C	-0.119649	1.142407	-0.323979
C77	C	-0.119457	1.142533	-0.254032
H78	H	0.001746	0.444233	-0.609405
O79	O	-0.019078	1.247679	-0.736121
H80	H	0.014579	1.282855	-0.775711
O81	O	-0.734497	1.247683	-0.420961
H82	H	-0.749320	1.234178	-0.369366
H83	H	-0.031673	1.234314	-1.262757
O84	O	-0.905001	1.037461	-0.554275
H85	H	-0.890177	1.050986	-0.605870
H86	H	-0.207290	1.050748	-1.113822
H87	H	-0.031815	1.234306	-0.861918
H88	H	-0.240993	0.841429	-0.365801
O89	O	-0.082720	0.852483	-0.524592
H90	H	-0.079122	0.916821	-0.528193
O91	O	-0.768364	1.037386	-0.554225
H92	H	-0.807928	1.002219	-0.576518
H93	H	-0.244820	0.567829	-0.362006
H94	H	0.005582	0.717819	-0.613213
H95	H	-0.374092	1.050589	-0.545676
O96	O	-0.871139	1.247749	-0.420989
H97	H	-0.894572	1.287977	-0.455686
O98	O	-0.220172	1.037364	-0.838769
H99	H	-0.212030	1.045870	-0.891380
H100	H	-0.344542	1.234117	-0.429319
H101	H	-0.207241	1.050743	-1.233089
O102	O	-0.220217	1.037354	-0.702125
H103	H	-0.212104	1.045848	-0.652262
O104	O	-0.470343	1.247541	-0.420876
H105	H	-0.430784	1.282691	-0.398563
H106	H	-0.055308	0.792655	-0.552098
O107	O	-0.187447	0.471185	-0.419580
H108	H	-0.238453	0.449406	-0.428692
H109	H	-0.144138	0.444089	-0.463043
O110	O	0.038238	0.604946	-0.645993
H111	H	0.059346	0.562399	-0.667176
O112	O	-0.277479	0.680727	-0.329217
H113	H	-0.281080	0.616388	-0.325616
O114	O	-0.504189	1.037265	-0.554167
H115	H	-0.554055	1.045776	-0.548785
H116	H	-0.031718	1.234320	-1.143494
