data_functionalizedCrystal
_audit_creation_method	'MofGen! by Chris Wilmer'
_symmetry_space_group_name_H-M	'P1'
_symmetry_Int_Tables_number	1
_symmetry_cell_setting	triclinic
loop_
_symmetry_equiv_pos_as_xyz
  x,y,z
_cell_length_a	10.654551
_cell_length_b	9.730223
_cell_length_c	10.654550
_cell_angle_alpha	90.000193
_cell_angle_beta	84.485087
_cell_angle_gamma	89.999649
loop_
_atom_site_label
_atom_site_type_symbol
_atom_site_fract_x
_atom_site_fract_y
_atom_site_fract_z
O1	O	1.667833	0.114269	0.176399
O2	O	1.302355	0.114275	0.193204
O3	O	1.493497	0.114266	0.002062
O4	O	1.476691	0.114277	0.367540
O5	O	1.493495	-0.114314	0.002067
O6	O	1.302353	-0.114305	0.193208
O7	O	1.667831	-0.114311	0.176403
Zn8	Zn	1.485092	-0.150600	0.184807
Zn9	Zn	1.485094	0.150564	0.184800
O10	O	1.476689	-0.114303	0.367545
C11	C	1.255556	-0.000014	0.191972
C12	C	1.116113	-0.000012	0.188279
C13	C	0.919580	-0.124612	0.183064
C14	C	1.050600	-0.124613	0.186545
C15	C	1.050597	0.124598	0.186546
C16	C	0.919578	0.124596	0.183075
C17	C	0.854075	-0.249222	0.181317
C18	C	0.919582	-0.373832	0.183052
C19	C	1.050602	-0.373832	0.186533
C20	C	1.116116	-0.249222	0.188278
N21	N	1.485099	-0.356137	0.184810
C22	C	1.569758	-0.428066	0.100202
C23	C	1.569755	-0.571949	0.100186
C24	C	1.400428	-0.571960	0.269399
C25	C	1.400427	-0.428080	0.269408
C26	C	1.654431	-0.356123	0.015604
C27	C	1.739098	-0.428053	-0.069010
C28	C	1.739095	-0.571936	-0.069026
C29	C	1.654424	-0.643889	0.015574
C30	C	1.714630	-0.000019	0.177635
C31	C	1.854073	-0.000013	0.181327
N32	N	1.485097	0.356100	0.184787
C33	C	1.492262	-0.000022	-0.044734
C34	C	1.488570	-0.000017	-0.184177
C35	C	1.601112	-0.000023	-0.263662
C36	C	1.597635	-0.000013	-0.394683
C37	C	1.369066	0.000003	-0.366720
C38	C	1.372544	0.000003	-0.235702
C39	C	1.717138	-0.000043	-0.212137
C40	C	1.829689	-0.000051	-0.291624
C41	C	1.826212	-0.000041	-0.422645
C42	C	1.710185	-0.000024	-0.474179
C43	C	1.477924	-0.000012	0.414341
C44	C	1.481616	-0.000008	0.553784
H45	H	1.103948	0.226049	0.187966
C46	C	1.654439	-0.197849	0.015611
N47	N	1.654445	-0.078637	0.015617
C48	C	1.706368	-0.000005	-0.618307
N49	N	1.703494	0.000002	-0.726864
H50	H	1.222800	-0.249233	0.191127
H51	H	1.808028	-0.369462	-0.137895
C52	C	1.307269	-0.348953	0.362454
N53	N	1.237087	-0.289354	0.432526
C54	C	0.847517	0.261663	0.181161
N55	N	0.793240	0.364905	0.179724
H56	H	0.866231	-0.475284	0.181642
C57	C	1.832212	-0.651055	-0.162119
N58	N	1.902352	-0.710644	-0.232241
C59	C	1.654426	-0.802166	0.015552
N60	N	1.654434	-0.921378	0.015540
C61	C	1.307299	-0.651114	0.362453
N62	N	1.237153	-0.710733	0.432545
H63	H	1.103933	-0.475295	0.187959
C64	C	1.950019	-0.000050	-0.510076
N65	N	2.043274	-0.000067	-0.575928
C66	C	1.720973	-0.000054	-0.068013
N67	N	1.723860	-0.000063	0.040541
C68	C	1.957312	-0.000068	-0.234933
N69	N	2.053440	-0.000084	-0.192235
C70	C	1.241445	-0.000000	-0.423414
N71	N	1.145318	-0.000012	-0.466116
C72	C	1.248742	-0.000001	-0.148263
N73	N	1.155491	-0.000003	-0.082404
H74	H	0.747392	-0.249235	0.178481
