data_functionalizedCrystal
_audit_creation_method	'MofGen! by Chris Wilmer'
_symmetry_space_group_name_H-M	'P1'
_symmetry_Int_Tables_number	1
_symmetry_cell_setting	triclinic
loop_
_symmetry_equiv_pos_as_xyz
  x,y,z
_cell_length_a	14.519709
_cell_length_b	10.654550
_cell_length_c	9.130313
_cell_angle_alpha	90.000276
_cell_angle_beta	89.994534
_cell_angle_gamma	95.917462
loop_
_atom_site_label
_atom_site_type_symbol
_atom_site_fract_x
_atom_site_fract_y
_atom_site_fract_z
O1	O	0.129532	-1.666594	-0.121694
O2	O	0.141873	-1.300997	-0.121721
O3	O	0.001515	-1.493489	-0.121693
O4	O	0.269891	-1.474102	-0.121721
O5	O	0.001510	-1.493476	0.121906
O6	O	0.141869	-1.300984	0.121878
O7	O	0.129528	-1.666581	0.121905
Cu8	Cu	0.135698	-1.483781	0.144134
Cu9	Cu	0.135703	-1.483797	-0.143950
O10	O	0.269887	-1.474089	0.121878
C11	C	0.140965	-1.254201	0.000075
C12	C	0.138254	-1.114784	0.000065
C13	C	-0.032852	-1.492579	0.000106
C14	C	-0.135247	-1.489871	0.000107
C15	C	0.130436	-1.713377	0.000106
C16	C	0.133147	-1.852794	0.000106
C17	C	-0.510195	-1.479904	0.000068
C18	C	-0.405872	-1.482672	0.000079
C19	C	-0.322724	-1.484887	0.000089
C20	C	-0.218395	-1.487656	0.000097
C21	C	0.304253	-1.474999	0.000075
C22	C	0.406649	-1.477706	0.000065
N23	N	0.135694	-1.483779	0.346757
C24	C	0.220895	-1.034504	0.000061
C25	C	0.218342	-0.903507	0.000087
C26	C	0.050500	-0.933084	0.000115
C27	C	0.053054	-1.064078	0.000100
N28	N	0.135700	-1.483808	-0.346572
C29	C	0.073570	-1.569043	0.423421
C30	C	0.073570	-1.569055	0.576758
C31	C	0.197827	-1.398535	0.576753
C32	C	0.197822	-1.398518	0.423419
H33	H	0.290270	-1.075783	0.000044
N34	N	0.302767	-0.821521	0.000093
N35	N	0.378827	-0.866817	0.000071
H36	H	0.438457	-0.808915	0.000079
H37	H	-0.018867	-0.891783	0.000152
H38	H	-0.014247	-1.129446	0.000108
H39	H	0.248411	-1.329080	0.360995
H40	H	0.022981	-1.638466	0.361006
H41	H	0.022982	-1.638483	0.639173
N42	N	0.261279	-1.311455	0.655087
N43	N	0.261277	-1.311481	0.791991
H44	H	0.306092	-1.249980	0.847315
