data_functionalizedCrystal
_audit_creation_method	'MofGen! by Chris Wilmer'
_symmetry_space_group_name_H-M	'P1'
_symmetry_Int_Tables_number	1
_symmetry_cell_setting	triclinic
loop_
_symmetry_equiv_pos_as_xyz
  x,y,z
_cell_length_a	27.732048
_cell_length_b	27.732048
_cell_length_c	7.681481
_cell_angle_alpha	84.300807
_cell_angle_beta	95.681056
_cell_angle_gamma	82.642655
loop_
_atom_site_label
_atom_site_type_symbol
_atom_site_fract_x
_atom_site_fract_y
_atom_site_fract_z
O1	O	0.636329	0.062121	-0.146225
O2	O	0.495534	0.070868	-0.146280
O3	O	0.570305	-0.003903	-0.146217
O4	O	0.561557	0.136893	-0.146288
O5	O	0.579508	-0.013127	0.146648
O6	O	0.504737	0.061645	0.146585
O7	O	0.645532	0.052897	0.146641
Zn8	Zn	0.576596	0.055807	0.193112
Zn9	Zn	0.564470	0.067959	-0.192751
O10	O	0.570761	0.127669	0.146578
C11	C	0.482128	0.066073	0.000146
C12	C	0.428473	0.065521	0.000126
C13	C	0.089659	0.106223	0.000182
C14	C	-0.112000	0.104171	0.000198
O15	O	-0.143254	0.141390	0.000256
N16	N	-0.131123	0.059836	0.000217
C17	C	-0.099827	0.016009	0.000244
O18	O	-0.120719	-0.021749	0.000279
C19	C	0.101831	0.018061	0.000240
C20	C	0.120951	0.062400	0.000203
C21	C	0.108779	0.150559	0.000147
C22	C	0.159191	0.151071	0.000133
C23	C	0.190482	0.107248	0.000154
C24	C	0.171362	0.062913	0.000189
C25	C	0.133126	-0.025765	0.000279
C26	C	0.183543	-0.025249	0.000282
C27	C	0.202663	0.019091	0.000245
C28	C	0.253065	0.019603	0.000196
N29	N	0.272188	0.063939	0.000177
C30	C	0.240897	0.107761	0.000156
C31	C	-0.205702	0.014935	0.000243
C32	C	-0.256116	0.014422	0.000241
C33	C	-0.268285	0.102585	0.000198
C34	C	-0.217870	0.103098	0.000188
C35	C	-0.186578	0.059271	0.000224
C36	C	0.346765	0.108835	0.000126
C37	C	0.397181	0.109344	0.000105
C38	C	0.409346	0.021182	0.000156
C39	C	0.358934	0.020673	0.000168
C40	C	0.327644	0.064503	0.000159
O41	O	0.284348	-0.017597	0.000159
O42	O	0.261800	0.145513	0.000160
C43	C	0.039248	0.105710	0.000195
C44	C	0.020128	0.061375	0.000230
C45	C	0.051419	0.017552	0.000252
C46	C	-0.030287	0.060862	0.000228
C47	C	-0.061578	0.104685	0.000207
C48	C	-0.042455	0.149020	0.000188
C49	C	0.007956	0.149533	0.000174
C50	C	0.032296	-0.026784	0.000271
C51	C	-0.018116	-0.027293	0.000282
C52	C	-0.049408	0.016530	0.000261
C53	C	0.574723	-0.026522	0.000220
C54	C	0.574171	-0.080177	0.000235
C55	C	0.614872	-0.418990	0.000160
C56	C	0.612821	-0.620649	0.000135
O57	O	0.650039	-0.651903	0.000073
N58	N	0.568485	-0.639772	0.000119
C59	C	0.524659	-0.608477	0.000098
O60	O	0.486901	-0.629369	0.000066
C61	C	0.526711	-0.406819	0.000111
C62	C	0.571050	-0.387699	0.000144
C63	C	0.659208	-0.399870	0.000192
C64	C	0.659721	-0.349458	0.000208
C65	C	0.615898	-0.318167	0.000192
C66	C	0.571562	-0.337287	0.000160
C67	C	0.482884	-0.375524	0.000077
C68	C	0.483401	-0.325106	0.000076
C69	C	0.527740	-0.305987	0.000109
C70	C	0.528253	-0.255585	0.000160
N71	N	0.572588	-0.236462	0.000176
C72	C	0.616411	-0.267753	0.000192
C73	C	0.523585	-0.714351	0.000095
C74	C	0.523072	-0.764765	0.000095
C75	C	0.611234	-0.776934	0.000128
C76	C	0.611747	-0.726519	0.000141
C77	C	0.567920	-0.695228	0.000111
C78	C	0.617485	-0.161885	0.000227
C79	C	0.617994	-0.111468	0.000251
C80	C	0.529832	-0.099304	0.000207
C81	C	0.529322	-0.149716	0.000193
C82	C	0.573153	-0.181006	0.000197
O83	O	0.491053	-0.224302	0.000203
O84	O	0.654162	-0.246850	0.000186
C85	C	0.614360	-0.469402	0.000144
C86	C	0.570024	-0.488522	0.000113
C87	C	0.526201	-0.457231	0.000097
C88	C	0.569511	-0.538936	0.000113
C89	C	0.613334	-0.570227	0.000128
C90	C	0.657670	-0.551104	0.000144
C91	C	0.658182	-0.500693	0.000160
C92	C	0.481866	-0.476354	0.000081
C93	C	0.481357	-0.526766	0.000067
C94	C	0.525179	-0.558057	0.000083
C95	C	0.658937	0.057693	0.000211
C96	C	0.712593	0.058245	0.000219
C97	C	0.566342	0.150288	0.000136
C98	C	0.566894	0.203944	0.000111
N99	N	0.584875	0.047512	0.456453
N100	N	0.556195	0.076250	-0.456092
H101	H	0.057769	-0.062471	0.000292
O102	O	0.619779	0.012457	0.545997
C103	C	0.610803	-0.033920	0.501136
H104	H	0.587988	-0.029523	0.367237
H105	H	0.647096	-0.057834	0.495019
H106	H	0.590066	-0.051905	0.604875
H107	H	0.117568	-0.061871	0.000310
H108	H	0.446778	-0.391081	0.000039
H109	H	0.209019	-0.060938	0.000313
H110	H	0.023519	0.185639	0.000147
H111	H	-0.180228	-0.020755	0.000272
O112	O	0.340309	-0.022375	0.000425
C113	C	0.316300	-0.030094	0.152144
H114	H	0.305054	0.006508	0.202693
H115	H	0.282353	-0.048040	0.118065
H116	H	0.342080	-0.054992	0.258356
H117	H	0.412745	0.145452	0.000073
O118	O	0.177683	0.194182	0.000196
C119	C	0.139245	0.232747	0.000143
H120	H	0.106838	0.217705	0.055587
H121	H	0.152223	0.261047	0.085165
H122	H	0.127591	0.250674	-0.140363
H123	H	0.321295	0.144526	0.000124
O124	O	0.078331	0.193109	-0.000120
C125	C	0.044046	0.200235	-0.151831
H126	H	0.040179	0.163478	-0.202363
H127	H	0.007093	0.217467	-0.117747
H128	H	0.057140	0.225522	-0.258058
H129	H	-0.202306	0.139202	0.000168
H130	H	0.434832	-0.014498	0.000167
H131	H	0.693352	-0.576591	0.000165
O132	O	-0.298752	0.145108	0.000259
C133	C	-0.347348	0.135143	0.000218
H134	H	-0.347254	0.095441	0.055669
H135	H	-0.367724	0.160416	0.085242
H136	H	-0.366364	0.141514	-0.140284
O137	O	-0.274603	-0.028693	0.000333
C138	C	-0.236170	-0.067257	0.000311
H139	H	-0.200275	-0.055711	0.055748
H140	H	-0.243801	-0.100915	0.085357
H141	H	-0.233355	-0.076332	-0.140183
O142	O	-0.072913	0.191567	-0.000066
C143	C	-0.107204	0.198688	-0.151760
H144	H	-0.111058	0.161931	-0.202313
H145	H	-0.144160	0.215902	-0.117644
H146	H	-0.094125	0.223989	-0.257982
H147	H	-0.033679	-0.063402	0.000299
H148	H	0.654102	-0.095905	0.000283
H149	H	0.694288	-0.485131	0.000187
O150	O	0.660107	-0.192209	0.000316
C151	C	0.699343	-0.164512	0.000304
H152	H	0.688520	-0.128541	0.055749
H153	H	0.732697	-0.186011	0.085348
H154	H	0.708537	-0.156587	-0.140188
H155	H	0.695826	-0.333896	0.000228
O156	O	0.701806	-0.430205	-0.000021
C157	C	0.723976	-0.416809	-0.151702
H158	H	0.710218	-0.376883	-0.202287
H159	H	0.765391	-0.421717	-0.117557
H160	H	0.714249	-0.440995	-0.257912
O161	O	0.654857	-0.708025	0.000078
C162	C	0.693424	-0.746462	0.000142
H163	H	0.678389	-0.778866	-0.055299
H164	H	0.721730	-0.733476	-0.084879
H165	H	0.711339	-0.758124	0.140650
O166	O	0.438237	-0.545252	-0.000041
C167	C	0.399673	-0.506819	-0.000012
H168	H	0.411226	-0.470918	-0.055427
H169	H	0.366024	-0.514440	-0.085072
H170	H	0.390585	-0.504019	0.140482
H171	H	0.646916	-0.802420	0.000142
H172	H	0.526919	0.105582	0.468686
H173	H	0.487894	-0.688877	0.000070
O174	O	0.479979	-0.783302	-0.000232
C175	C	0.448520	-0.762485	-0.151901
H176	H	0.471124	-0.748847	-0.257899
H177	H	0.426584	-0.791270	-0.202828
H178	H	0.422413	-0.730505	-0.117621
O179	O	0.440785	-0.294782	0.000125
C180	C	0.401544	-0.322472	0.000045
H181	H	0.415845	-0.361941	0.055493
H182	H	0.373531	-0.306333	0.085052
H183	H	0.383524	-0.321531	-0.140468
H184	H	0.493220	-0.165285	0.000215
O185	O	0.487306	-0.068832	0.000111
C186	C	0.497273	-0.020238	0.000167
H187	H	0.533487	-0.016840	-0.055247
H188	H	0.466649	0.005493	-0.084880
H189	H	0.499742	-0.010074	0.140670
H190	H	0.446179	-0.450881	0.000064
