data_functionalizedCrystal
_audit_creation_method	'MofGen! by Chris Wilmer'
_symmetry_space_group_name_H-M	'P1'
_symmetry_Int_Tables_number	1
_symmetry_cell_setting	triclinic
loop_
_symmetry_equiv_pos_as_xyz
  x,y,z
_cell_length_a	15.538191
_cell_length_b	14.971486
_cell_length_c	13.448316
_cell_angle_alpha	89.996136
_cell_angle_beta	89.993784
_cell_angle_gamma	65.443111
loop_
_atom_site_label
_atom_site_type_symbol
_atom_site_fract_x
_atom_site_fract_y
_atom_site_fract_z
O1	O	-1.249586	0.290403	0.082701
O2	O	-0.975443	0.187162	0.082701
O3	O	-1.119862	0.371376	0.082694
O4	O	-1.105167	0.106190	0.082708
O5	O	-1.119848	0.371372	-0.082690
O6	O	-0.975429	0.187158	-0.082682
O7	O	-1.249571	0.290400	-0.082683
Cu8	Cu	-1.112499	0.238779	-0.097783
Cu9	Cu	-1.112516	0.238783	0.097802
O10	O	-1.105152	0.106186	-0.082675
C11	C	-0.940353	0.176358	0.000009
C12	C	-0.835815	0.144183	0.000009
C13	C	-1.119198	0.404485	0.000003
C14	C	-1.117228	0.503140	0.000004
C15	C	-1.284662	0.301203	0.000012
C16	C	-1.389199	0.333378	0.000018
C17	C	-0.547665	0.463833	0.000008
C18	C	-0.449433	0.433577	0.000010
C19	C	-0.427182	0.263395	0.000019
C20	C	-0.525413	0.293637	0.000012
C21	C	-0.585648	0.393857	0.000007
C22	C	-0.563397	0.223661	0.000011
C23	C	-0.661620	0.253900	0.000009
C24	C	-0.721860	0.354116	0.000008
C25	C	-0.683871	0.424096	0.000005
C26	C	-0.503161	0.123441	0.000023
C27	C	-0.541144	0.053465	0.000022
C28	C	-0.639369	0.083705	0.000013
C29	C	-0.699609	0.183920	0.000012
C30	C	-0.677358	0.013724	0.000016
C31	C	-0.775581	0.043964	0.000014
C32	C	-0.797832	0.214159	0.000010
C33	C	-1.105817	0.073077	0.000018
C34	C	-1.107786	-0.025579	0.000024
N35	N	-1.112494	0.238779	-0.235348
C36	C	-1.202071	0.587997	0.000003
C37	C	-1.200215	0.680692	0.000013
C38	C	-1.113515	0.688528	0.000016
C39	C	-1.028666	0.603662	0.000020
C40	C	-1.030524	0.510969	0.000017
C41	C	-1.024802	0.796866	0.000024
C42	C	-1.022944	0.889565	0.000025
C43	C	-1.194493	0.966589	0.000019
C44	C	-1.196350	0.873896	0.000016
C45	C	-1.111500	0.789036	0.000018
C46	C	-1.169662	0.203056	-0.287381
C47	C	-1.169673	0.203064	-0.391484
C48	C	-1.112511	0.238788	-0.443552
C49	C	-1.055341	0.274516	-0.391512
C50	C	-1.055335	0.274515	-0.287411
C51	C	-1.055356	0.274515	-0.608492
C52	C	-1.055360	0.274515	-0.712601
C53	C	-1.169694	0.203064	-0.712565
C54	C	-1.169688	0.203063	-0.608464
C55	C	-1.112516	0.238789	-0.556431
N56	N	-1.112528	0.238793	0.235366
H57	H	-0.846879	0.295768	0.000000
H58	H	-0.955708	0.727771	0.000028
H59	H	-1.263580	1.035687	0.000021
H60	H	-0.492088	-0.028134	0.000030
H61	H	-1.269302	0.749782	0.000010
C62	C	-0.928719	0.897871	0.000097
C63	C	-0.854808	0.803717	0.000139
C64	C	-0.767995	0.811330	0.000224
H65	H	-0.924278	0.932373	-0.057556
H66	H	-0.924400	0.932390	0.057797
H67	H	-0.859125	0.769213	-0.057556
H68	H	-0.859217	0.769199	0.057788
H69	H	-0.763676	0.845850	0.057924
H70	H	-0.763564	0.845835	-0.057431
H71	H	-0.717836	0.747450	0.000261
H72	H	-1.216204	0.173958	-0.244994
C73	C	-0.993098	0.313123	-0.230967
C74	C	-0.898239	0.257690	-0.256282
C75	C	-0.840880	0.293225	-0.204297
H76	H	-1.010407	0.379959	-0.247989
H77	H	-1.001218	0.307977	-0.161502
H78	H	-0.890124	0.262846	-0.325732
H79	H	-0.880902	0.190854	-0.239258
H80	H	-0.849000	0.288078	-0.134832
H81	H	-0.858197	0.360060	-0.221323
H82	H	-0.776512	0.255613	-0.221459
C83	C	-0.993221	0.313134	-0.551868
C84	C	-0.929527	0.238257	-0.492089
C85	C	-0.872282	0.273795	-0.439902
H86	H	-0.959086	0.334396	-0.597669
H87	H	-1.031736	0.366767	-0.511197
H88	H	-0.891017	0.184642	-0.532756
H89	H	-0.963636	0.216987	-0.446269
H90	H	-0.910797	0.327428	-0.399232
H91	H	-0.838153	0.295056	-0.485711
H92	H	-0.829065	0.222999	-0.399329
C93	C	-0.611798	-0.095036	-0.000024
C94	C	-0.517648	-0.106541	-0.000039
C95	C	-0.457230	-0.206717	-0.000088
H96	H	-0.623212	-0.125148	0.057633
H97	H	-0.623257	-0.125073	-0.057720
H98	H	-0.506195	-0.076517	0.057651
H99	H	-0.506205	-0.076452	-0.057692
H100	H	-0.468689	-0.236754	-0.057785
H101	H	-0.468652	-0.236820	0.057570
H102	H	-0.393344	-0.214536	-0.000108
H103	H	-1.216227	0.173977	-0.433844
C104	C	-1.231850	0.164280	-0.552110
C105	C	-1.281940	0.133018	-0.619956
C106	C	-1.339225	0.097300	-0.568079
H107	H	-1.193404	0.110582	-0.511497
H108	H	-1.275192	0.214968	-0.511517
H109	H	-1.238604	0.082335	-0.660531
H110	H	-1.320404	0.186698	-0.660570
H111	H	-1.382566	0.147988	-0.527487
H112	H	-1.300772	0.043606	-0.527469
H113	H	-1.373224	0.076093	-0.614105
H114	H	-0.596711	0.545442	-0.000002
H115	H	-0.806507	-0.013018	0.000004
C116	C	-0.993429	0.313507	-0.769078
C117	C	-1.019334	0.412038	-0.743781
C118	C	-0.962312	0.447994	-0.795796
H119	H	-0.928992	0.276128	-0.752068
H120	H	-1.001629	0.308453	-0.838538
H121	H	-1.011126	0.417085	-0.674336
H122	H	-1.083763	0.449441	-0.760793
H123	H	-0.970512	0.442941	-0.865257
H124	H	-0.897878	0.410609	-0.778782
H125	H	-0.979886	0.514853	-0.778646
C126	C	-0.749235	0.532921	0.000203
C127	C	-0.732085	0.576907	0.085299
C128	C	-0.792290	0.677145	0.085525
H129	H	-0.737765	0.563057	-0.057404
H130	H	-0.813185	0.540942	0.000259
H131	H	-0.668150	0.568892	0.085235
H132	H	-0.743561	0.546799	0.142920
H133	H	-0.856240	0.685167	0.085580
H134	H	-0.780815	0.707272	0.027914
H135	H	-0.780668	0.707001	0.143265
C136	C	-0.408376	0.509709	-0.000039
C137	C	-0.482154	0.603945	-0.000064
C138	C	-0.444369	0.674099	-0.000117
H139	H	-0.370543	0.501580	0.057620
H140	H	-0.370542	0.501510	-0.057733
H141	H	-0.519972	0.612140	0.057624
H142	H	-0.519994	0.612106	-0.057719
H143	H	-0.406535	0.665900	-0.057812
H144	H	-0.406536	0.665960	0.057543
H145	H	-0.494421	0.738046	-0.000144
H146	H	-1.008803	0.303610	-0.433914
H147	H	-0.961436	0.441876	0.000018
C148	C	-0.361825	0.154576	0.000227
C149	C	-0.378999	0.110594	0.085324
C150	C	-0.318803	0.010352	0.085554
H151	H	-0.373288	0.124443	-0.057380
H152	H	-0.297873	0.146546	0.000284
H153	H	-0.442936	0.118616	0.085258
H154	H	-0.367530	0.140697	0.142945
H155	H	-0.254851	0.002322	0.085611
H156	H	-0.330271	-0.019771	0.027943
H157	H	-0.330441	-0.019500	0.143295
H158	H	-0.423182	0.098824	0.000028
H159	H	-0.801839	0.378735	0.000019
H160	H	-1.272671	0.581628	-0.000006
H161	H	-0.958074	0.610049	0.000029
H162	H	-1.266948	0.867521	0.000006
H163	H	-1.216242	0.173969	-0.754936
