data_functionalizedCrystal
_audit_creation_method	'MofGen! by Chris Wilmer'
_symmetry_space_group_name_H-M	'P1'
_symmetry_Int_Tables_number	1
_symmetry_cell_setting	triclinic
loop_
_symmetry_equiv_pos_as_xyz
  x,y,z
_cell_length_a	21.395361
_cell_length_b	10.685972
_cell_length_c	21.395356
_cell_angle_alpha	94.399367
_cell_angle_beta	89.969319
_cell_angle_gamma	85.605086
loop_
_atom_site_label
_atom_site_type_symbol
_atom_site_fract_x
_atom_site_fract_y
_atom_site_fract_z
Zn1	Zn	-0.176092	-1.929185	-0.427804
Zn2	Zn	-0.280876	-1.928992	-0.323014
Zn3	Zn	-0.184134	-1.718144	-0.314994
Zn4	Zn	-0.288864	-1.718078	-0.419712
O5	O	-0.232492	-1.823600	-0.371381
O6	O	-0.183283	-2.105749	-0.420646
O7	O	-0.268066	-1.900969	-0.234270
O8	O	-0.095385	-1.746247	-0.329989
O9	O	-0.260268	-2.105607	-0.343657
O10	O	-0.089477	-1.901298	-0.412870
O11	O	-0.196990	-1.746060	-0.228378
O12	O	-0.204735	-1.541546	-0.322143
O13	O	-0.273881	-1.746135	-0.508466
O14	O	-0.281680	-1.541497	-0.399079
O15	O	-0.191029	-1.901234	-0.514411
O16	O	-0.369618	-1.900906	-0.335811
O17	O	-0.375486	-1.745948	-0.406855
C18	C	-0.244947	-1.495734	-0.358863
C19	C	-0.250291	-1.355471	-0.353522
C20	C	-0.395285	-1.823433	-0.371340
C21	C	-0.464925	-1.823477	-0.371348
C22	C	-0.494559	-1.904235	-0.334399
C23	C	-0.559992	-1.904294	-0.334415
C24	C	-0.595790	-1.823572	-0.371373
C25	C	-0.566148	-1.742809	-0.408329
C26	C	-0.500716	-1.742761	-0.408317
C27	C	-0.703825	-1.709949	-0.371951
C28	C	-0.769256	-1.709994	-0.371959
C29	C	-0.797605	-1.823719	-0.371415
C30	C	-0.760514	-1.937402	-0.370851
C31	C	-0.695082	-1.937355	-0.370838
C32	C	-0.666740	-1.823615	-0.371391
C33	C	-0.898189	-1.904547	-0.334482
C34	C	-0.963623	-1.904608	-0.334503
C35	C	-0.969778	-1.743112	-0.408413
C36	C	-0.904345	-1.743062	-0.408396
C37	C	-0.868554	-1.823778	-0.371427
C38	C	-0.069061	-1.823801	-0.371438
C39	C	0.000584	-1.823887	-0.371462
C40	C	-0.232449	-1.823699	-0.534808
C41	C	-0.232431	-1.823741	-0.604451
C42	C	-0.219983	-1.152746	-0.383946
C43	C	-0.214642	-1.293008	-0.389293
C44	C	-0.195416	-1.743102	-0.634087
C45	C	-0.195405	-1.743097	-0.699523
C46	C	-0.232400	-1.823755	-0.735320
C47	C	-0.269422	-1.904401	-0.705676
C48	C	-0.269438	-1.904394	-0.640242
C49	C	-0.233003	-1.937454	-0.843341
C50	C	-0.232983	-1.937463	-0.908775
C51	C	-0.232357	-1.823776	-0.937142
C52	C	-0.231738	-1.710077	-0.900068
C53	C	-0.231753	-1.710070	-0.834633
C54	C	-0.232388	-1.823771	-0.806273
C55	C	-0.195329	-1.743125	-1.037730
C56	C	-0.195322	-1.743118	-1.103167
C57	C	-0.269335	-1.904433	-1.109319
C58	C	-0.269346	-1.904428	-1.043884
C59	C	-0.232339	-1.823776	-1.008093
C60	C	-0.232486	-1.823573	-0.208593
C61	C	-0.232318	-1.823776	-0.138960
H62	H	-0.465420	-1.969962	-0.304298
H63	H	-0.299486	-1.970097	-1.019754
H64	H	-0.299457	-1.970109	-1.138465
C65	C	-0.654282	-2.062393	-0.370227
H66	H	-0.611254	-2.046070	-0.370295
H67	H	-0.662940	-2.115443	-0.406360
H68	H	-0.663474	-2.102796	-0.333641
C69	C	-0.167885	-1.365711	-0.436188
H70	H	-0.146233	-1.307719	-0.457910
H71	H	-0.189950	-1.417140	-0.465378
H72	H	-0.138614	-1.417121	-0.414202
C73	C	-0.297050	-1.282763	-0.306624
H74	H	-0.318695	-1.340758	-0.284897
H75	H	-0.326318	-1.231346	-0.328604
H76	H	-0.274980	-1.231342	-0.277429
H77	H	-0.783594	-2.030008	-0.370408
H78	H	-0.998924	-1.677392	-0.438508
C79	C	-0.310152	-1.993102	-0.607638
H80	H	-0.304864	-1.981542	-0.563541
H81	H	-0.297762	-2.077903	-0.621613
H82	H	-0.352954	-1.974570	-0.617637
C83	C	-0.858813	-1.993343	-0.293829
H84	H	-0.815599	-1.981738	-0.299107
H85	H	-0.866267	-2.078127	-0.306274
H86	H	-0.870276	-1.974925	-0.251019
C87	C	-0.154714	-1.654382	-0.594721
H88	H	-0.132671	-1.606349	-0.621747
H89	H	-0.125586	-1.702686	-0.571053
H90	H	-0.180779	-1.599356	-0.567081
H91	H	-0.584125	-1.970061	-0.304327
C92	C	-0.996220	-1.993446	-0.293856
H93	H	-0.965531	-2.041498	-0.271835
H94	H	-1.019613	-2.048430	-0.319946
H95	H	-1.023621	-1.945206	-0.264701
H96	H	-0.880216	-1.677296	-0.438481
H97	H	-0.299545	-1.970072	-0.734827
C98	C	-0.231068	-1.585012	-0.931262
H99	H	-0.231160	-1.601292	-0.975541
H100	H	-0.194464	-1.544683	-0.919013
H101	H	-0.267182	-1.531910	-0.918484
H102	H	-0.799451	-1.617426	-0.372412
H103	H	-0.680751	-1.617333	-0.372395
H104	H	-0.595299	-1.677087	-0.438422
C105	C	-0.468118	-1.653917	-0.448958
H106	H	-0.498806	-1.605844	-0.470971
H107	H	-0.440714	-1.702140	-0.478112
H108	H	-0.444727	-1.598933	-0.422859
H109	H	-0.165260	-1.677433	-0.723657
H110	H	-0.165196	-1.677452	-1.008588
C111	C	-0.231083	-1.585011	-0.793854
H112	H	-0.230713	-1.517298	-0.820115
H113	H	-0.194709	-1.586686	-0.768400
H114	H	-0.267427	-1.573885	-0.767894
C115	C	-0.154603	-1.654411	-1.135766
H116	H	-0.132562	-1.606390	-1.105077
H117	H	-0.180651	-1.599394	-1.159177
H118	H	-0.125463	-1.702734	-1.163152
H119	H	-0.233484	-2.030043	-0.938956
C120	C	-0.233687	-2.062518	-0.812144
H121	H	-0.234043	-2.130232	-0.843594
H122	H	-0.270073	-2.060840	-0.786540
H123	H	-0.197356	-2.073643	-0.787058
