data_functionalizedCrystal
_audit_creation_method	'MofGen! by Chris Wilmer'
_symmetry_space_group_name_H-M	'P1'
_symmetry_Int_Tables_number	1
_symmetry_cell_setting	triclinic
loop_
_symmetry_equiv_pos_as_xyz
  x,y,z
_cell_length_a	12.759401
_cell_length_b	25.639239
_cell_length_c	12.759393
_cell_angle_alpha	90.035978
_cell_angle_beta	90.020938
_cell_angle_gamma	90.040211
loop_
_atom_site_label
_atom_site_type_symbol
_atom_site_fract_x
_atom_site_fract_y
_atom_site_fract_z
Zn1	Zn	1.606091	-0.208104	0.593980
Zn2	Zn	1.605909	-0.295549	0.418283
Zn3	Zn	1.430390	-0.208132	0.418315
Zn4	Zn	1.430308	-0.295513	0.593921
O5	O	1.518175	-0.251825	0.506125
O6	O	1.753088	-0.219708	0.570685
O7	O	1.582584	-0.283980	0.271266
O8	O	1.453808	-0.134963	0.441656
O9	O	1.752954	-0.283953	0.441601
O10	O	1.582895	-0.134943	0.570716
O11	O	1.453631	-0.219755	0.271290
O12	O	1.283358	-0.219720	0.441598
O13	O	1.453669	-0.283891	0.740950
O14	O	1.283298	-0.283918	0.570615
O15	O	1.582816	-0.219672	0.740993
O16	O	1.582505	-0.368710	0.441544
O17	O	1.453492	-0.368683	0.570584
C18	C	1.245207	-0.251818	0.506104
C19	C	1.128431	-0.251828	0.506120
C20	C	1.073565	-0.285307	0.573193
C21	C	0.963841	-0.285309	0.573214
C22	C	0.963858	-0.218352	0.439079
C23	C	1.073580	-0.218347	0.439065
C24	C	1.517998	-0.387667	0.506077
C25	C	1.518018	-0.445781	0.506091
C26	C	1.585527	-0.806146	0.439048
C27	C	1.585568	-0.860750	0.439062
O28	O	1.642783	-0.888988	0.382007
N29	N	1.518359	-0.888064	0.506194
C30	C	1.451113	-0.860770	0.573324
O31	O	1.393952	-0.889017	0.630428
C32	C	1.451079	-0.806167	0.573315
C33	C	1.518284	-0.778856	0.506171
C34	C	1.652728	-0.778835	0.371910
C35	C	1.652685	-0.724234	0.371895
C36	C	1.585442	-0.696945	0.439018
C37	C	1.518242	-0.724255	0.506156
C38	C	1.383839	-0.778874	0.640449
C39	C	1.383810	-0.724267	0.640435
C40	C	1.451016	-0.696957	0.573291
C41	C	1.450956	-0.642365	0.573263
N42	N	1.518165	-0.615052	0.506131
C43	C	1.585408	-0.642341	0.439008
C44	C	1.451192	-0.975441	0.573341
C45	C	1.451221	-1.030043	0.573346
C46	C	1.585677	-1.030019	0.439085
C47	C	1.585642	-0.975416	0.439075
C48	C	1.518401	-0.948127	0.506208
C49	C	1.585313	-0.527676	0.438981
C50	C	1.585261	-0.473071	0.438969
C51	C	1.450810	-0.473100	0.573233
C52	C	1.450857	-0.527700	0.573242
C53	C	1.518117	-0.554987	0.506112
O54	O	1.393774	-0.614093	0.630292
O55	O	1.642569	-0.614088	0.381925
C56	C	1.792208	-0.251831	0.506146
C57	C	1.908984	-0.251834	0.506156
C58	C	1.518253	-0.251774	0.780158
C59	C	1.518287	-0.251753	0.896935
C60	C	1.518381	-0.115452	0.506196
C61	C	1.518468	-0.057337	0.506226
C62	C	1.518157	-0.251837	0.233157
C63	C	1.518327	-0.251711	0.116381
C64	C	1.585539	-0.218309	0.951821
C65	C	1.585556	-0.218286	1.061546
C66	C	1.451068	-0.285156	1.061487
C67	C	1.451045	-0.285176	0.951765
H68	H	0.919185	-0.191094	0.384484
H69	H	1.707491	-0.801048	0.317251
N70	N	1.378296	-0.443655	0.645627
H71	H	1.394586	-0.453119	0.720710
H72	H	1.303268	-0.453208	0.629167
N73	N	0.904663	-0.321423	0.645546
H74	H	0.859192	-0.300209	0.694325
H75	H	0.956130	-0.342624	0.687948
N76	N	1.311346	-0.808316	0.712873
H77	H	1.327628	-0.798772	0.787946
H78	H	1.321587	-0.847041	0.702623
N79	N	1.658060	-0.182263	0.892679
H80	H	1.641808	-0.144901	0.911783
H81	H	1.647809	-0.187398	0.814861
H82	H	1.396324	-0.312369	1.106143
H83	H	1.640434	-1.052248	0.384433
N84	N	1.132754	-0.182229	0.366723
H85	H	1.113617	-0.190301	0.291626
H86	H	1.210567	-0.187319	0.376980
N87	N	1.378485	-0.321239	0.892556
H88	H	1.335891	-0.342409	0.943938
H89	H	1.421186	-0.345447	0.847014
N90	N	1.658089	-0.182208	1.120733
H91	H	1.733140	-0.190334	1.101649
H92	H	1.647814	-0.187277	1.198545
N93	N	1.132722	-0.321417	0.645517
H94	H	1.113676	-0.313341	0.720616
H95	H	1.210538	-0.316320	0.635241
N96	N	1.657752	-0.443614	0.366549
H97	H	1.700359	-0.469191	0.324036
H98	H	1.706332	-0.420918	0.409356
H99	H	1.640085	-0.549887	0.384320
N100	N	1.725187	-0.694781	0.299491
H101	H	1.767791	-0.720361	0.256984
H102	H	1.773768	-0.672090	0.342307
H103	H	1.396486	-1.052275	0.628011
N104	N	1.658130	-0.945961	0.366660
H105	H	1.700729	-0.971539	0.324143
H106	H	1.706718	-0.923268	0.409466
H107	H	1.396428	-0.953225	0.628006
N108	N	1.311287	-0.694835	0.712847
H109	H	1.268723	-0.720425	0.755379
H110	H	1.262667	-0.672222	0.670037
H111	H	1.396136	-0.549938	0.627919
