data_functionalizedCrystal
_audit_creation_method	'MofGen! by Chris Wilmer'
_symmetry_space_group_name_H-M	'P1'
_symmetry_Int_Tables_number	1
_symmetry_cell_setting	triclinic
loop_
_symmetry_equiv_pos_as_xyz
  x,y,z
_cell_length_a	30.711242
_cell_length_b	30.706025
_cell_length_c	30.703058
_cell_angle_alpha	90.019004
_cell_angle_beta	59.986614
_cell_angle_gamma	120.016814
loop_
_atom_site_label
_atom_site_type_symbol
_atom_site_fract_x
_atom_site_fract_y
_atom_site_fract_z
O1	O	0.311547	-0.371247	-0.012985
O2	O	0.222395	-0.307909	0.012875
O3	O	0.311582	-0.307901	-0.076324
O4	O	0.222359	-0.371255	0.076215
O5	O	0.384022	-0.235459	-0.076316
O6	O	0.294835	-0.235466	0.012884
O7	O	0.383987	-0.298805	-0.012976
Cu8	Cu	0.346026	-0.260521	-0.000046
Cu9	Cu	0.260356	-0.346193	-0.000055
O10	O	0.294800	-0.298812	0.076223
C11	C	0.071058	-0.031748	0.039173
C12	C	0.097005	-0.058203	0.039544
C13	C	-0.007821	-0.110625	0.039177
C14	C	0.018247	-0.136961	0.039547
C15	C	0.071028	-0.110625	0.039178
C16	C	0.018276	-0.058203	0.039543
C17	C	0.133555	0.158463	0.024883
C18	C	0.162430	0.212329	0.020843
C19	C	0.216395	0.239350	0.018815
C20	C	0.247713	0.297758	0.014424
C21	C	0.241481	0.212501	0.020832
C22	C	0.212602	0.158638	0.024879
C23	C	0.158636	0.131618	0.026905
C24	C	0.213009	-0.158792	0.024901
C25	C	0.242029	-0.183620	0.020865
C26	C	0.217098	-0.235565	0.018838
C27	C	0.248563	-0.262486	0.014454
C28	C	0.163137	-0.262686	0.020855
C29	C	0.134112	-0.237863	0.024900
C30	C	0.159057	-0.185911	0.026920
C31	C	-0.183704	-0.158793	0.024898
C32	C	-0.233519	-0.183617	0.020855
C33	C	-0.258524	-0.235565	0.018830
C34	C	-0.312534	-0.262484	0.014444
C35	C	-0.233710	-0.262684	0.020845
C36	C	-0.183895	-0.237856	0.024886
C37	C	-0.158899	-0.185911	0.026918
C38	C	0.127328	0.073213	0.031289
C39	C	0.102370	0.026657	0.034785
C40	C	-0.061831	-0.137542	0.034793
C41	C	-0.104885	-0.158997	0.031300
C42	C	0.102498	-0.137542	0.034794
C43	C	0.127583	-0.158997	0.031301
O44	O	-0.330206	-0.235464	0.012873
O45	O	-0.456854	-0.298804	-0.012988
O46	O	-0.456886	-0.298803	0.076212
O47	O	-0.330174	-0.235466	-0.076326
O48	O	-0.456913	-0.371249	0.076216
O49	O	-0.456881	-0.371251	-0.012984
O50	O	-0.330233	-0.307911	0.012878
Cu51	Cu	-0.393560	-0.346196	-0.000053
Cu52	Cu	-0.393527	-0.260519	-0.000058
O53	O	-0.330201	-0.307913	-0.076322
C54	C	0.071227	-0.110295	-0.503957
C55	C	0.097214	-0.057873	-0.530294
C56	C	-0.007650	-0.110293	-0.425085
C57	C	0.018456	-0.057872	-0.451541
C58	C	0.071257	-0.031417	-0.503962
C59	C	0.018427	-0.136629	-0.451537
C60	C	0.133618	-0.238064	-0.552109
C61	C	0.162471	-0.263066	-0.576932
C62	C	0.216454	-0.236115	-0.628877
C63	C	0.247748	-0.263218	-0.655791
C64	C	0.241581	-0.184161	-0.655999
C65	C	0.212723	-0.159165	-0.631179
C66	C	0.158739	-0.186119	-0.579231
C67	C	0.213369	0.158792	-0.631727
C68	C	0.242427	0.212657	-0.656729
C69	C	0.217514	0.239682	-0.629782
C70	C	0.249020	0.298087	-0.656882
C71	C	0.163535	0.212834	-0.577829
C72	C	0.134473	0.158968	-0.552832
C73	C	0.159399	0.131951	-0.579786
C74	C	-0.183639	-0.238057	-0.234875
C75	C	-0.233475	-0.263056	-0.181007
C76	C	-0.258461	-0.236103	-0.153988
C77	C	-0.312494	-0.263205	-0.095581
C78	C	-0.233606	-0.184151	-0.180837
C79	C	-0.183770	-0.159154	-0.234702
C80	C	-0.158794	-0.186114	-0.261718
C81	C	0.127455	-0.159008	-0.552320
C82	C	0.102516	-0.137401	-0.530868
C83	C	-0.061684	-0.137397	-0.366680
C84	C	-0.104756	-0.159004	-0.320125
C85	C	0.102767	0.026988	-0.531067
C86	C	0.127884	0.073543	-0.552674
C87	C	0.390497	-0.450788	-0.018881
C88	C	0.359914	-0.508242	-0.015189
C89	C	0.443277	-0.424335	-0.019247
C90	C	0.390518	-0.371915	-0.018870
C91	C	0.359957	-0.345038	-0.015166
C92	C	0.443297	-0.345582	-0.019236
C93	C	0.469368	-0.371916	-0.018872
C94	C	0.523113	-0.345039	-0.015170
C95	C	0.364546	-0.424334	-0.019245
O96	O	0.383926	0.469551	-0.013007
O97	O	0.294703	0.317018	0.012848
O98	O	0.383915	0.406201	-0.076349
O99	O	0.294714	0.380368	0.076190
O100	O	0.311495	0.406201	-0.076350
O101	O	0.222283	0.317018	0.012847
O102	O	0.311505	0.469551	-0.013008
Cu103	Cu	0.260282	0.393285	-0.000080
Cu104	Cu	0.345927	0.393284	-0.000080
O105	O	0.222293	0.380368	0.076189
O106	O	0.312117	0.469886	-0.692478
O107	O	0.222868	0.317350	-0.629140
O108	O	0.312066	0.406528	-0.629135
O109	O	0.222919	0.380708	-0.692483
O110	O	0.384498	0.406521	-0.701586
O111	O	0.295301	0.317343	-0.701591
O112	O	0.384549	0.469878	-0.764929
Cu113	Cu	0.346539	0.393610	-0.739875
Cu114	Cu	0.260879	0.393619	-0.654194
O115	O	0.295352	0.380701	-0.764934
O116	O	0.383907	-0.298834	-0.764539
O117	O	0.294759	-0.235480	-0.701215
O118	O	0.383902	-0.235490	-0.701191
O119	O	0.294765	-0.298824	-0.764563
O120	O	0.311425	-0.307933	-0.628743
O121	O	0.222283	-0.307923	-0.628767
O122	O	0.311431	-0.371277	-0.692091
Cu123	Cu	0.260239	-0.346215	-0.653814
Cu124	Cu	0.345951	-0.260542	-0.739492
O125	O	0.222288	-0.371267	-0.692115
C126	C	0.215767	-0.371933	0.234765
C127	C	0.246335	-0.345057	0.261648
C128	C	0.162973	-0.424354	0.261098
C129	C	0.215789	-0.371928	0.155884
C130	C	0.246379	-0.345047	0.098427
C131	C	0.162995	-0.424349	0.182336
C132	C	0.136896	-0.450806	0.234759
C133	C	0.083133	-0.508262	0.261634
C134	C	0.241747	-0.345595	0.182343
C135	C	-0.609607	-0.450792	0.234754
C136	C	-0.640205	-0.508248	0.261633
C137	C	-0.635564	-0.424336	0.261086
C138	C	-0.530700	-0.371916	0.155877
C139	C	-0.476929	-0.345038	0.098421
C140	C	-0.556777	-0.345580	0.182329
C141	C	-0.609578	-0.371915	0.234749
C142	C	-0.640144	-0.345035	0.261624
C143	C	-0.556806	-0.424338	0.182334
C144	C	0.136863	0.374500	0.234735
C145	C	0.083120	0.378202	0.261615
C146	C	0.162935	0.374134	0.261070
C147	C	0.215727	0.374493	0.155856
C148	C	0.246307	0.378186	0.098398
C149	C	0.241680	0.374126	0.182311
C150	C	0.215712	0.374500	0.234734
C151	C	0.246276	0.378201	0.261612
C152	C	0.162950	0.374127	0.182312
C153	C	0.614141	-0.031725	-0.503965
C154	C	0.588063	-0.058177	-0.530305
C155	C	0.535247	-0.110604	-0.425091
C156	C	0.509290	-0.136936	-0.451551
C157	C	0.535270	-0.110598	-0.503973
C158	C	0.588041	-0.058183	-0.451543
C159	C	0.790076	0.158480	-0.552115
C160	C	0.839909	0.212345	-0.576938
C161	C	0.864918	0.239369	-0.628885
C162	C	0.918943	0.297776	-0.655799
C163	C	0.840093	0.212524	-0.656010
C164	C	0.790269	0.158661	-0.631190
C165	C	0.765261	0.131639	-0.579240
C166	C	0.472868	-0.158753	-0.631750
C167	C	0.444014	-0.183576	-0.656755
C168	C	0.390037	-0.235521	-0.629808
C169	C	0.358742	-0.262438	-0.656912
C170	C	0.364918	-0.262644	-0.577854
C171	C	0.393777	-0.237825	-0.552853
C172	C	0.447754	-0.185873	-0.579807
C173	C	0.472756	-0.158781	-0.234874
C174	C	0.443875	-0.183608	-0.181004
C175	C	0.389898	-0.235555	-0.153986
C176	C	0.358579	-0.262475	-0.095577
C177	C	0.364801	-0.262670	-0.180837
C178	C	0.393682	-0.237840	-0.234704
C179	C	0.447664	-0.185896	-0.261720
C180	C	0.711231	0.073234	-0.552328
C181	C	0.668166	0.026680	-0.530877
C182	C	0.503933	-0.137523	-0.366685
C183	C	0.478974	-0.158980	-0.320129
C184	C	0.503980	-0.137511	-0.531081
C185	C	0.479040	-0.158963	-0.552691
O186	O	-0.063587	-0.683000	0.298755
O187	O	0.063116	-0.530468	0.235420
O188	O	0.063093	-0.619654	0.235409
O189	O	-0.063564	-0.593814	0.298765
O190	O	0.063074	-0.619658	0.307859
O191	O	0.063097	-0.530471	0.307869
O192	O	-0.063606	-0.683003	0.371204
Cu193	Cu	-0.000256	-0.606737	0.346152
Cu194	Cu	-0.000234	-0.606734	0.260472
O195	O	-0.063583	-0.593817	0.371215
C196	C	0.535443	0.432470	-0.504002
C197	C	0.588220	0.432836	-0.530339
C198	C	0.535427	0.432477	-0.425124
C199	C	0.588204	0.432843	-0.451580
C200	C	0.614292	0.432469	-0.504003
C201	C	0.509475	0.432843	-0.451580
C202	C	0.393451	0.418186	-0.552167
C203	C	0.364425	0.414146	-0.576993
C204	C	0.389351	0.412114	-0.628942
C205	C	0.357876	0.407724	-0.655860
C206	C	0.443308	0.414127	-0.656063
C207	C	0.472334	0.418174	-0.631239
C208	C	0.447403	0.420203	-0.579288
C209	C	0.790182	0.418177	-0.631772
C210	C	0.839996	0.414137	-0.656774
C211	C	0.864976	0.412110	-0.629823
C212	C	0.918982	0.407722	-0.656924
C213	C	0.840142	0.414130	-0.577868
C214	C	0.790337	0.418179	-0.552870
C215	C	0.765357	0.420199	-0.579828
C216	C	0.393387	0.418214	-0.234908
C217	C	0.364341	0.414175	-0.181039
C218	C	0.389252	0.412150	-0.154017
C219	C	0.357760	0.407768	-0.095607
C220	C	0.443204	0.414160	-0.180864
C221	C	0.472246	0.418198	-0.234732
C222	C	0.447335	0.420229	-0.261751
C223	C	0.478878	0.424586	-0.552373
C224	C	0.503967	0.428082	-0.530918
C225	C	0.503935	0.428097	-0.366717
C226	C	0.478832	0.424607	-0.320161
C227	C	0.668297	0.428081	-0.531108
C228	C	0.711347	0.424585	-0.552716
H229	H	0.090176	-0.259949	0.026544
H230	H	0.284149	0.373531	0.161068
O231	O	0.616952	-0.030054	-0.423406
H232	H	0.589915	-0.057277	-0.382434
O233	O	-0.156967	-0.103124	-0.263662
H234	H	-0.182716	-0.088583	-0.235828
O235	O	0.298021	-0.288544	0.154202
H236	H	0.287235	-0.262984	0.176647
H237	H	-0.534927	-0.302509	0.161086
H238	H	0.860461	0.234530	-0.698307
O239	O	0.134014	0.373350	0.318126
H240	H	0.167884	0.409315	0.320462
O241	O	0.135366	-0.319098	-0.547674
H242	H	0.123814	-0.345631	-0.570351
O243	O	0.134047	0.373334	0.154176
H244	H	0.092890	0.373145	0.181392
O245	O	0.134051	-0.452483	0.154223
H246	H	0.133788	-0.488693	0.152115
O247	O	0.366649	-0.267160	-0.496839
H248	H	0.355050	-0.244556	-0.470228
H249	H	0.320495	0.412508	-0.554908
H250	H	0.466802	-0.180005	-0.430309
O251	O	0.472179	-0.452467	-0.020035
H252	H	0.520179	-0.430022	-0.056392
H253	H	0.141126	-0.445590	0.304173
H254	H	-0.678049	-0.445576	0.304158
O255	O	-0.527892	-0.452467	0.154199
H256	H	-0.554932	-0.493441	0.181415
H257	H	0.609910	-0.036934	-0.573378
H258	H	0.464307	-0.161522	-0.159143
H259	H	0.516708	-0.116483	-0.256867
H260	H	-0.003367	-0.036632	-0.430301
O261	O	0.763110	0.129333	-0.496088
H262	H	0.788747	0.157046	-0.481401
H263	H	-0.003418	-0.179700	-0.430298
O264	O	0.866678	0.241301	-0.547683
H265	H	0.840913	0.213464	-0.507389
O266	O	0.763491	0.129707	-0.660439
H267	H	0.789246	0.157547	-0.700729
H268	H	0.516819	-0.116455	-0.653701
O269	O	0.471097	-0.154323	-0.712783
H270	H	0.513473	-0.114029	-0.727320
H271	H	0.320972	-0.304942	-0.555915
O272	O	0.366614	-0.267082	-0.263664
H273	H	0.324231	-0.307375	-0.235830
O274	O	0.306584	-0.318701	-0.151702
H275	H	0.290719	-0.331415	-0.109736
O276	O	0.470196	0.411940	-0.712091
H277	H	0.440947	0.408785	-0.724797
H278	H	0.322074	-0.445576	-0.019836
O279	O	0.299680	0.241638	0.018650
H280	H	0.290261	0.221784	0.055500
H281	H	-0.253951	-0.162203	-0.158834
O282	O	0.076260	0.130016	-0.496801
H283	H	0.083938	0.115033	-0.470266
O284	O	0.306151	0.412005	-0.152082
H285	H	0.313856	0.446233	-0.137099
H286	H	0.610028	0.433445	-0.430341
H287	H	0.465130	-0.302513	-0.019821
H288	H	0.610047	0.433417	-0.573409
O289	O	0.453223	0.433633	-0.423441
H290	H	0.439474	0.433822	-0.450656
H291	H	0.139472	-0.036964	0.040143
H292	H	0.089661	-0.260016	-0.509812
H293	H	0.373109	0.419882	-0.256909
H294	H	0.373146	0.419839	-0.509867
O295	O	0.530511	0.420322	-0.660478
H296	H	0.542962	0.418218	-0.700767
H297	H	0.769849	0.419825	-0.653725
H298	H	0.285532	-0.162222	-0.698294
O299	O	0.866777	0.411952	-0.712804
H300	H	0.841036	0.414033	-0.727345
H301	H	-0.003598	-0.180034	0.040145
H302	H	0.860487	0.412487	-0.555927
H303	H	0.770123	0.419827	-0.510571
H304	H	0.516176	0.419835	-0.256588
H305	H	0.463490	0.412516	-0.158861
H306	H	0.233028	0.136781	0.026524
H307	H	-0.003542	-0.036963	0.040139
H308	H	-0.163696	-0.259942	0.026529
O309	O	-0.260285	-0.154372	0.018684
H310	H	-0.234537	-0.114083	0.020780
H311	H	0.286376	0.234512	-0.699027
H312	H	-0.163354	-0.116495	0.026550
H313	H	0.142002	0.234185	0.019199
O314	O	0.075349	0.129317	0.027071
H315	H	0.039119	0.130053	0.062372
O316	O	0.239902	-0.102766	0.027090
H317	H	0.282128	-0.088177	0.025275
H318	H	0.285964	-0.161534	0.019222
H319	H	0.142832	-0.304985	0.019212
H320	H	-0.254072	-0.304984	0.019198
H321	H	0.139698	-0.036638	-0.573366
H322	H	-0.163308	-0.260014	-0.256870
O323	O	-0.260284	-0.319091	-0.152055
H324	H	-0.224190	-0.319965	-0.152876
O325	O	0.239822	-0.103131	-0.660426
H326	H	0.282211	-0.088586	-0.700713
H327	H	0.233665	0.136796	-0.653678
H328	H	0.143246	0.234837	-0.555890
