data_functionalizedCrystal
_audit_creation_method	'MofGen! by Chris Wilmer'
_symmetry_space_group_name_H-M	'P1'
_symmetry_Int_Tables_number	1
_symmetry_cell_setting	triclinic
loop_
_symmetry_equiv_pos_as_xyz
  x,y,z
_cell_length_a	21.395364
_cell_length_b	21.395362
_cell_length_c	17.077396
_cell_angle_alpha	89.967711
_cell_angle_beta	89.980400
_cell_angle_gamma	90.044742
loop_
_atom_site_label
_atom_site_type_symbol
_atom_site_fract_x
_atom_site_fract_y
_atom_site_fract_z
Zn1	Zn	0.957833	-0.249189	-0.443824
Zn2	Zn	1.291166	0.084145	-0.110491
Zn3	Zn	1.624499	0.417478	0.222842
Zn4	Zn	0.957746	-0.353970	-0.312549
Zn5	Zn	1.291079	-0.020637	0.020784
Zn6	Zn	1.624413	0.312697	0.354117
Zn7	Zn	0.853057	-0.249238	-0.312572
Zn8	Zn	1.186390	0.084096	0.020761
Zn9	Zn	1.519723	0.417429	0.354095
Zn10	Zn	0.853018	-0.353960	-0.443773
Zn11	Zn	1.186352	-0.020626	-0.110439
Zn12	Zn	1.519685	0.312707	0.222894
O13	O	0.905413	-0.301589	-0.378180
O14	O	1.238747	0.031744	-0.044846
O15	O	1.572080	0.365078	0.288487
O16	O	1.045499	-0.263072	-0.426422
O17	O	1.378832	0.070261	-0.093089
O18	O	1.712166	0.403595	0.240244
O19	O	0.943838	-0.340102	-0.202705
O20	O	1.277172	-0.006768	0.130628
O21	O	1.610505	0.326565	0.463961
O22	O	0.867008	-0.161553	-0.330014
O23	O	1.200341	0.171780	0.003320
O24	O	1.533674	0.505114	0.336653
O25	O	1.045435	-0.340054	-0.329975
O26	O	1.378769	-0.006721	0.003358
O27	O	1.712102	0.326612	0.336691
O28	O	0.943986	-0.161517	-0.426444
O29	O	1.277320	0.171816	-0.093111
O30	O	1.610653	0.505150	0.240222
O31	O	0.866924	-0.263155	-0.202722
O32	O	1.200257	0.070178	0.130611
O33	O	1.533590	0.403511	0.463945
O34	O	0.765374	-0.263145	-0.329964
O35	O	1.098707	0.070188	0.003369
O36	O	1.432040	0.403521	0.336703
O37	O	0.866943	-0.340037	-0.553627
O38	O	1.200276	-0.006703	-0.220293
O39	O	1.533609	0.326630	0.113040
O40	O	0.765346	-0.340084	-0.426357
O41	O	1.098679	-0.006751	-0.093023
O42	O	1.432012	0.326582	0.240310
O43	O	0.943949	-0.263062	-0.553664
O44	O	1.277282	0.070271	-0.220331
O45	O	1.610616	0.403605	0.113002
O46	O	0.943801	-0.441646	-0.329926
O47	O	1.277135	-0.108313	0.003408
O48	O	1.610468	0.225020	0.336741
O49	O	0.866858	-0.441639	-0.426335
O50	O	1.200192	-0.108306	-0.093002
O51	O	1.533525	0.225028	0.240332
C52	C	0.742626	-0.301619	-0.378158
C53	C	1.075959	0.031714	-0.044824
C54	C	1.409292	0.365047	0.288509
C55	C	0.672985	-0.301648	-0.378167
C56	C	1.006318	0.031686	-0.044833
C57	C	1.339651	0.365019	0.288500
C58	C	0.640327	-0.261628	-0.428464
C59	C	0.973660	0.071705	-0.095131
C60	C	1.306994	0.405038	0.238202
C61	C	0.574892	-0.261612	-0.428467
C62	C	0.908225	0.071722	-0.095134
C63	C	1.241558	0.405055	0.238199
C64	C	0.542116	-0.301625	-0.378181
C65	C	0.875450	0.031708	-0.044848
C66	C	1.208783	0.365041	0.288486
C67	C	0.574782	-0.341647	-0.327874
C68	C	0.908115	-0.008314	0.005460
C69	C	1.241448	0.325019	0.338793
C70	C	0.640216	-0.341658	-0.327867
C71	C	0.973549	-0.008325	0.005467
C72	C	1.306882	0.325008	0.338800
C73	C	0.438393	-0.358051	-0.371867
C74	C	0.771727	-0.024718	-0.038534
C75	C	1.105060	0.308616	0.294799
C76	C	0.372960	-0.358041	-0.371880
C77	C	0.706294	-0.024708	-0.038547
C78	C	1.039627	0.308626	0.294787
C79	C	0.340295	-0.301591	-0.378198
C80	C	0.673629	0.031742	-0.044865
C81	C	1.006962	0.365076	0.288468
C82	C	0.373072	-0.245149	-0.384521
C83	C	0.706405	0.088184	-0.051188
C84	C	1.039738	0.421518	0.282146
C85	C	0.438506	-0.245160	-0.384514
C86	C	0.771839	0.088173	-0.051180
C87	C	1.105173	0.421507	0.282153
C88	C	0.471164	-0.301618	-0.378183
C89	C	0.804497	0.031716	-0.044849
C90	C	1.137831	0.365049	0.288484
C91	C	0.236685	-0.261550	-0.428502
C92	C	0.570019	0.071783	-0.095169
C93	C	0.903352	0.405116	0.238165
C94	C	0.171249	-0.261533	-0.428500
C95	C	0.504582	0.071801	-0.095166
C96	C	0.837915	0.405134	0.238167
C97	C	0.171140	-0.341574	-0.327910
C98	C	0.504473	-0.008240	0.005423
C99	C	0.837807	0.325093	0.338757
C100	C	0.236575	-0.341586	-0.327908
C101	C	0.569909	-0.008253	0.005425
C102	C	0.903242	0.325081	0.338758
C103	C	0.269344	-0.301575	-0.378209
C104	C	0.602678	0.031758	-0.044875
C105	C	0.936011	0.365092	0.288458
C106	C	0.905333	-0.464377	-0.378139
C107	C	1.238667	-0.131043	-0.044806
C108	C	1.572000	0.202290	0.288527
C109	C	0.905356	-0.534018	-0.378148
C110	C	1.238690	-0.200684	-0.044815
C111	C	1.572023	0.132649	0.288518
C112	C	0.945416	-0.566655	-0.428395
C113	C	1.278749	-0.233322	-0.095062
C114	C	1.612083	0.100011	0.238271
C115	C	0.945438	-0.632091	-0.428415
C116	C	1.278771	-0.298757	-0.095081
C117	C	1.612105	0.034576	0.238252
C118	C	0.905407	-0.664886	-0.378173
C119	C	1.238740	-0.331553	-0.044839
C120	C	1.572074	0.001781	0.288494
C121	C	0.865339	-0.632241	-0.327922
C122	C	1.198673	-0.298907	0.005411
C123	C	1.532006	0.034426	0.338745
C124	C	0.865314	-0.566807	-0.327910
C125	C	1.198647	-0.233473	0.005423
C126	C	1.531981	0.099860	0.338757
C127	C	0.900535	-0.768599	-0.307464
C128	C	1.233868	-0.435266	0.025870
C129	C	1.567201	-0.101933	0.359203
C130	C	0.900564	-0.834032	-0.307474
C131	C	1.233898	-0.500699	0.025859
C132	C	1.567231	-0.167365	0.359192
C133	C	0.905481	-0.866707	-0.378211
C134	C	1.238815	-0.533373	-0.044877
C135	C	1.572148	-0.200040	0.288456
C136	C	0.910382	-0.833940	-0.448938
C137	C	1.243715	-0.500607	-0.115605
C138	C	1.577048	-0.167274	0.217729
C139	C	0.910356	-0.768506	-0.448926
C140	C	1.243690	-0.435173	-0.115593
C141	C	1.577023	-0.101840	0.217741
C142	C	0.905430	-0.735838	-0.378181
C143	C	1.238763	-0.402505	-0.044847
C144	C	1.572096	-0.069172	0.288486
C145	C	0.945567	-0.970297	-0.428483
C146	C	1.278900	-0.636963	-0.095149
C147	C	1.612234	-0.303630	0.238184
C148	C	0.945585	-1.035733	-0.428503
C149	C	1.278918	-0.702400	-0.095170
C150	C	1.612251	-0.369067	0.238163
C151	C	0.865489	-1.035882	-0.328004
C152	C	1.198823	-0.702549	0.005330
C153	C	1.532156	-0.369215	0.338663
C154	C	0.865468	-0.970447	-0.327990
C155	C	1.198802	-0.637113	0.005343
C156	C	1.532135	-0.303780	0.338677
C157	C	0.905511	-0.937658	-0.378229
C158	C	1.238844	-0.604325	-0.044895
C159	C	1.572177	-0.270991	0.288438
C160	C	1.068837	-0.301559	-0.378202
C161	C	1.402170	0.031775	-0.044869
C162	C	1.735503	0.365108	0.288464
C163	C	1.138478	-0.301546	-0.378212
C164	C	1.471811	0.031787	-0.044878
C165	C	1.805145	0.365121	0.288455
C166	C	0.905451	-0.301543	-0.582924
C167	C	1.238785	0.031791	-0.249591
C168	C	1.572118	0.365124	0.083743
C169	C	0.905467	-0.301523	-0.670174
C170	C	1.238801	0.031810	-0.336840
C171	C	1.572134	0.365144	-0.003507
C172	C	0.905511	-0.138166	-0.378237
C173	C	1.238844	0.195168	-0.044904
C174	C	1.572178	0.528501	0.288429
C175	C	0.905552	-0.068524	-0.378262
C176	C	1.238886	0.264809	-0.044928
C177	C	1.572219	0.598142	0.288405
C178	C	0.945566	-0.261439	-0.711185
C179	C	1.278900	0.071894	-0.377852
C180	C	1.612233	0.405228	-0.044518
C181	C	0.945574	-0.261418	-0.793165
C182	C	1.278907	0.071915	-0.459832
C183	C	1.612240	0.405249	-0.126499
C184	C	0.905485	-0.301485	-0.834133
C185	C	1.238819	0.031848	-0.500800
C186	C	1.572152	0.365182	-0.167467
C187	C	0.865382	-0.341571	-0.793116
C188	C	1.198715	-0.008238	-0.459783
C189	C	1.532049	0.325096	-0.126450
C190	C	0.865372	-0.341588	-0.711137
C191	C	1.198705	-0.008255	-0.377804
C192	C	1.532039	0.325079	-0.044471
C193	C	0.865407	-0.341533	-0.963987
C194	C	1.198741	-0.008200	-0.630653
C195	C	1.532074	0.325133	-0.297320
C196	C	0.865418	-0.341517	-1.045971
C197	C	1.198752	-0.008184	-0.712638
C198	C	1.532085	0.325150	-0.379305
C199	C	0.945609	-0.261363	-1.046015
C200	C	1.278943	0.071970	-0.712681
C201	C	1.612276	0.405304	-0.379348
C202	C	0.945599	-0.261380	-0.964036
C203	C	1.278932	0.071953	-0.630702
C204	C	1.612266	0.405286	-0.297369
C205	C	0.905496	-0.301467	-0.923024
C206	C	1.238830	0.031866	-0.589691
C207	C	1.572163	0.365199	-0.256358
C208	C	0.905412	-0.301590	-0.174232
C209	C	1.238745	0.031744	0.159102
C210	C	1.572078	0.365077	0.492435
C211	C	0.905517	-0.301433	-0.086982
C212	C	1.238850	0.031901	0.246351
C213	C	1.572184	0.365234	0.579684
H214	H	0.548297	-0.229020	-0.469424
H215	H	0.881630	0.104313	-0.136091
H216	H	1.214963	0.437646	0.197242
F217	F	0.271562	-0.218964	-0.482030
F218	F	0.604896	0.114369	-0.148697
F219	F	0.938229	0.447702	0.184636
H220	H	0.832744	-0.658947	-0.287016
H221	H	1.166078	-0.325614	0.046317
H222	H	1.499411	0.007720	0.379650
H223	H	0.978228	-0.228779	-0.826553
H224	H	1.311561	0.104554	-0.493220
H225	H	1.644894	0.437888	-0.159886
H226	H	0.144660	-0.228940	-0.469457
H227	H	0.477993	0.104393	-0.136123
H228	H	0.811327	0.437726	0.197210
F229	F	0.895354	-0.868898	-0.232201
F230	F	1.228687	-0.535565	0.101133
F231	F	1.562021	-0.202232	0.434466
H232	H	0.832742	-0.374166	-0.930598
H233	H	1.166075	-0.040833	-0.597265
H234	H	1.499408	0.292500	-0.263931
F235	F	0.473151	-0.418137	-0.365133
F236	F	0.806484	-0.084803	-0.031799
F237	F	1.139818	0.248530	0.301534
H238	H	0.832739	-0.374192	-0.826479
H239	H	1.166072	-0.040858	-0.493146
H240	H	1.499406	0.292475	-0.159812
H241	H	0.346279	-0.403999	-0.366735
H242	H	0.679612	-0.070666	-0.033402
H243	H	1.012945	0.262667	0.299931
H244	H	0.978261	-0.228722	-1.079410
H245	H	1.311594	0.104611	-0.746076
H246	H	1.644928	0.437945	-0.412743
H247	H	0.667003	-0.229048	-0.469422
H248	H	1.000337	0.104285	-0.136089
H249	H	1.333670	0.437619	0.197245
H250	H	0.832713	-0.374222	-0.677747
H251	H	1.166046	-0.040889	-0.344414
H252	H	1.499380	0.292444	-0.011081
F253	F	0.473386	-0.185092	-0.391240
F254	F	0.806720	0.148241	-0.057906
F255	F	1.140053	0.481574	0.275427
H256	H	0.978246	-0.228758	-0.930682
H257	H	1.311579	0.104575	-0.597348
H258	H	1.644913	0.437909	-0.264015
F259	F	0.822746	-0.384155	-1.089571
F260	F	1.156080	-0.050822	-0.756238
F261	F	1.489413	0.282511	-0.422904
F262	F	0.822831	-0.935710	-0.274509
F263	F	1.156165	-0.602377	0.058824
F264	F	1.489498	-0.269044	0.392158
F265	F	0.988181	-0.935398	-0.481953
F266	F	1.321514	-0.602065	-0.148619
F267	F	1.654847	-0.268732	0.184714
H268	H	0.346478	-0.199182	-0.389666
H269	H	0.679811	0.134152	-0.056333
H270	H	1.013144	0.467485	0.277000
F271	F	0.988238	-0.218797	-0.667591
F272	F	1.321571	0.114537	-0.334258
F273	F	1.654905	0.447870	-0.000924
H274	H	0.548092	-0.374226	-0.286930
H275	H	0.881425	-0.040893	0.046404
H276	H	1.214758	0.292440	0.379737
F277	F	0.674973	-0.384253	-0.274329
F278	F	1.008307	-0.050919	0.059005
F279	F	1.341640	0.282414	0.392338
F280	F	0.988218	-1.070469	-0.481994
F281	F	1.321551	-0.737135	-0.148661
F282	F	1.654884	-0.403802	0.184672
F283	F	0.988030	-0.531763	-0.481868
F284	F	1.321363	-0.198429	-0.148535
F285	F	1.654696	0.134904	0.184799
H286	H	0.978054	-0.658669	-0.469341
H287	H	1.311388	-0.325336	-0.136008
H288	H	1.644721	0.007997	0.197326
H289	H	0.144455	-0.374154	-0.286966
H290	H	0.477788	-0.040820	0.046368
H291	H	0.811122	0.292513	0.379701
H292	H	0.832891	-1.062583	-0.287101
H293	H	1.166225	-0.729250	0.046233
H294	H	1.499558	-0.395917	0.379566
H295	H	0.914345	-0.741829	-0.506514
H296	H	1.247678	-0.408496	-0.173181
H297	H	1.581011	-0.075163	0.160153
F298	F	0.915617	-0.868710	-0.524227
F299	F	1.248951	-0.535376	-0.190893
F300	F	1.582284	-0.202043	0.142440
F301	F	0.822674	-0.532070	-0.274428
F302	F	1.156008	-0.198737	0.058905
F303	F	1.489341	0.134596	0.392238
H304	H	0.896528	-0.742001	-0.249858
H305	H	1.229862	-0.408668	0.083476
H306	H	1.563195	-0.075334	0.416809
F307	F	0.271333	-0.384178	-0.274372
F308	F	0.604667	-0.050845	0.058962
F309	F	0.938000	0.282488	0.392295
