data_functionalizedCrystal
_audit_creation_method	'MofGen! by Chris Wilmer'
_symmetry_space_group_name_H-M	'P1'
_symmetry_Int_Tables_number	1
_symmetry_cell_setting	triclinic
loop_
_symmetry_equiv_pos_as_xyz
  x,y,z
_cell_length_a	19.188931
_cell_length_b	10.654550
_cell_length_c	9.730223
_cell_angle_alpha	90.000193
_cell_angle_beta	90.001336
_cell_angle_gamma	96.185158
loop_
_atom_site_label
_atom_site_type_symbol
_atom_site_fract_x
_atom_site_fract_y
_atom_site_fract_z
O1	O	0.927166	-0.156774	-0.114237
O2	O	0.723993	-0.177880	-0.114250
O3	O	0.830251	0.015511	-0.114238
O4	O	0.820908	-0.350165	-0.114249
O5	O	0.830250	0.015506	0.114342
O6	O	0.723992	-0.177885	0.114330
O7	O	0.927165	-0.156779	0.114343
Zn8	Zn	0.825578	-0.167333	0.150628
Zn9	Zn	0.825580	-0.167326	-0.150536
O10	O	0.820907	-0.350170	0.114331
C11	C	0.697977	-0.177199	0.000038
C12	C	0.620459	-0.175147	0.000033
C13	C	0.829564	0.062292	0.000050
C14	C	0.827512	0.201692	0.000045
C15	C	0.953181	-0.157460	0.000052
C16	C	1.030699	-0.159512	0.000048
C17	C	1.074881	-0.046037	0.000039
C18	C	1.147717	-0.047964	0.000047
C19	C	1.176368	-0.163374	0.000036
C20	C	1.132177	-0.276864	0.000053
C21	C	1.059342	-0.274933	0.000058
N22	N	1.284941	-0.251588	-0.077779
N23	N	1.354131	-0.253415	-0.077787
C24	C	1.395815	-0.169198	0.000023
N25	N	1.365696	-0.083066	0.077824
N26	N	1.296500	-0.081236	0.077826
C27	C	1.255345	-0.165480	0.000031
C28	C	1.518975	-0.057804	0.000025
C29	C	1.591813	-0.059737	0.000042
C30	C	1.576271	-0.288640	0.000033
C31	C	1.503435	-0.286704	0.000030
C32	C	1.474792	-0.171283	0.000020
C33	C	0.821593	-0.396951	0.000040
C34	C	0.823646	-0.536351	0.000036
N35	N	0.825582	-0.167336	0.356165
C36	C	0.890075	0.282501	0.000053
C37	C	0.888142	0.413481	0.000044
C38	C	0.761078	0.382829	0.000023
C39	C	0.763011	0.251852	0.000023
C40	C	0.963434	0.300199	0.000071
C41	C	0.961502	0.431179	0.000061
N42	N	0.825581	-0.167313	-0.356072
C43	C	0.872645	-0.081732	0.428096
C44	C	0.872643	-0.081716	0.571979
C45	C	0.778513	-0.252922	0.571987
C46	C	0.778512	-0.252930	0.428106
C47	C	0.926993	0.017109	0.428093
C48	C	0.926991	0.017124	0.571976
H49	H	1.051564	0.047948	0.000035
H50	H	1.599598	-0.382608	0.000033
Br51	Br	0.907127	0.177577	0.362989
H52	H	1.183697	0.044444	0.000036
H53	H	0.977683	-0.012407	0.383469
Br54	Br	1.011259	0.252270	-0.159347
H55	H	0.910029	0.107988	0.616593
Br56	Br	0.673546	0.450912	-0.000015
H57	H	1.155509	-0.370831	0.000047
H58	H	1.023369	-0.367341	0.000066
Br59	Br	1.480098	0.098834	0.000038
Br60	Br	1.016413	-0.016832	0.637081
H61	H	0.986794	0.265065	0.098769
Br62	Br	1.651776	0.094280	0.000051
H63	H	1.467461	-0.379108	0.000029
H64	H	0.983672	0.477293	-0.098632
Br65	Br	1.007568	0.501765	0.159494
Br66	Br	0.714633	-0.369076	0.669629
Br67	Br	0.714627	-0.369089	0.330482
H68	H	0.712066	0.186060	-0.000003
