data_functionalizedCrystal
_audit_creation_method	'MofGen! by Chris Wilmer'
_symmetry_space_group_name_H-M	'P1'
_symmetry_Int_Tables_number	1
_symmetry_cell_setting	triclinic
loop_
_symmetry_equiv_pos_as_xyz
  x,y,z
_cell_length_a	18.215407
_cell_length_b	19.121063
_cell_length_c	18.215399
_cell_angle_alpha	87.592693
_cell_angle_beta	90.016824
_cell_angle_gamma	92.469446
loop_
_atom_site_label
_atom_site_type_symbol
_atom_site_fract_x
_atom_site_fract_y
_atom_site_fract_z
Zn1	Zn	1.112538	-0.279596	0.428595
Zn2	Zn	1.445871	0.053738	0.761929
Zn3	Zn	1.779204	0.387071	1.095262
Zn4	Zn	1.107196	-0.397056	0.310772
Zn5	Zn	1.440529	-0.063722	0.644105
Zn6	Zn	1.773862	0.269611	0.977438
Zn7	Zn	0.989475	-0.279624	0.305544
Zn8	Zn	1.322809	0.053710	0.638877
Zn9	Zn	1.656142	0.387043	0.972210
Zn10	Zn	0.984181	-0.397012	0.433795
Zn11	Zn	1.317515	-0.063678	0.767128
Zn12	Zn	1.650848	0.269655	1.100461
O13	O	1.048347	-0.338322	0.369676
O14	O	1.381681	-0.004988	0.703010
O15	O	1.715014	0.328345	1.036343
O16	O	1.214813	-0.295184	0.412978
O17	O	1.548146	0.038149	0.746311
O18	O	1.881480	0.371483	1.079644
O19	O	1.091560	-0.381508	0.207095
O20	O	1.424893	-0.048175	0.540428
O21	O	1.758227	0.285159	0.873762
O22	O	1.010251	-0.181336	0.317503
O23	O	1.343584	0.151998	0.650836
O24	O	1.676918	0.485331	0.984170
O25	O	1.210888	-0.381481	0.326413
O26	O	1.544222	-0.048148	0.659746
O27	O	1.877555	0.285186	0.993080
O28	O	1.100664	-0.181315	0.407908
O29	O	1.433997	0.152018	0.741242
O30	O	1.767331	0.485352	1.074575
O31	O	1.005071	-0.295231	0.203254
O32	O	1.338404	0.038102	0.536588
O33	O	1.671738	0.371435	0.869921
O34	O	0.885789	-0.295189	0.322545
O35	O	1.219122	0.038145	0.655878
O36	O	1.552456	0.371478	0.989211
O37	O	1.001228	-0.381406	0.536088
O38	O	1.334561	-0.048073	0.869421
O39	O	1.667895	0.285261	1.202754
O40	O	0.881900	-0.381433	0.416770
O41	O	1.215233	-0.048100	0.750103
O42	O	1.548566	0.285234	1.083437
O43	O	1.095531	-0.295141	0.532268
O44	O	1.428864	0.038192	0.865601
O45	O	1.762197	0.371526	1.198935
O46	O	1.086427	-0.495334	0.331455
O47	O	1.419760	-0.162001	0.664788
O48	O	1.753093	0.171332	0.998121
O49	O	0.996048	-0.495302	0.421839
O50	O	1.329382	-0.161969	0.755172
O51	O	1.662715	0.171365	1.088506
C52	C	0.857142	-0.338310	0.369655
C53	C	1.190475	-0.004976	0.702988
C54	C	1.523808	0.328357	1.036321
C55	C	0.775342	-0.338321	0.369664
C56	C	1.108676	-0.004988	0.702997
C57	C	1.442009	0.328345	1.036330
C58	C	0.585139	-0.383299	0.418671
C59	C	0.918473	-0.049966	0.752004
C60	C	1.251806	0.283367	1.085337
C61	C	0.508280	-0.383302	0.418680
C62	C	0.841614	-0.049968	0.752013
C63	C	1.174947	0.283365	1.085347
C64	C	0.512307	-0.293357	0.320698
C65	C	0.845640	0.039977	0.654032
C66	C	1.178974	0.373310	0.987365
C67	C	0.589165	-0.293351	0.320693
C68	C	0.922498	0.039982	0.654027
C69	C	1.255831	0.373315	0.987360
C70	C	0.625579	-0.338327	0.369679
C71	C	0.958912	-0.004993	0.703012
C72	C	1.292245	0.328340	1.036345
C73	C	0.471862	-0.338334	0.369693
C74	C	0.805196	-0.005001	0.703026
C75	C	1.138529	0.328332	1.036360
C76	C	0.388528	-0.338336	0.369703
C77	C	0.721862	-0.005003	0.703036
C78	C	1.055195	0.328330	1.036369
C79	C	0.708918	-0.338324	0.369670
C80	C	1.042251	-0.004991	0.703003
C81	C	1.375584	0.328343	1.036337
C82	C	1.040103	-0.520802	0.377794
C83	C	1.373437	-0.187469	0.711128
C84	C	1.706770	0.145865	1.044461
C85	C	1.036644	-0.598868	0.381292
C86	C	1.369977	-0.265535	0.714625
C87	C	1.703310	0.067799	1.047958
C88	C	1.082110	-0.635537	0.335916
C89	C	1.415443	-0.302204	0.669249
C90	C	1.748777	0.031130	1.002582
C91	C	1.078861	-0.708888	0.339209
C92	C	1.412194	-0.375555	0.672543
C93	C	1.745527	-0.042222	1.005876
C94	C	1.030141	-0.745569	0.387876
C95	C	1.363474	-0.412236	0.721209
C96	C	1.696808	-0.078902	1.054543
C97	C	0.984673	-0.708895	0.433257
C98	C	1.318006	-0.375562	0.766591
C99	C	1.651339	-0.042228	1.099924
C100	C	0.987926	-0.635545	0.429967
C101	C	1.321260	-0.302212	0.763300
C102	C	1.654593	0.031122	1.096633
C103	C	1.017965	-0.967039	0.400167
C104	C	1.351298	-0.633705	0.733501
C105	C	1.684631	-0.300372	1.066834
C106	C	1.014713	-1.040394	0.403453
C107	C	1.348046	-0.707060	0.736786
C108	C	1.681380	-0.373727	1.070119
C109	C	1.108902	-1.040382	0.309405
C110	C	1.442236	-0.707049	0.642739
C111	C	1.775569	-0.373715	0.976072
C112	C	1.112149	-0.967031	0.306116
C113	C	1.445482	-0.633697	0.639449
C114	C	1.778815	-0.300364	0.972783
C115	C	1.066683	-0.930363	0.351500
C116	C	1.400016	-0.597030	0.684833
C117	C	1.733350	-0.263696	1.018167
C118	C	1.026817	-0.820546	0.391242
C119	C	1.360150	-0.487212	0.724576
C120	C	1.693483	-0.153879	1.057909
C121	C	1.070012	-0.855387	0.348137
C122	C	1.403345	-0.522054	0.681470
C123	C	1.736678	-0.188721	1.014804
C124	C	1.240300	-0.338334	0.369698
C125	C	1.573633	-0.005001	0.703032
C126	C	1.906966	0.328332	1.036365
C127	C	1.322098	-0.338340	0.369708
C128	C	1.655432	-0.005006	0.703041
C129	C	1.988765	0.328327	1.036375
C130	C	1.048385	-0.338266	0.561627
C131	C	1.381718	-0.004932	0.894960
C132	C	1.715051	0.328401	1.228293
C133	C	1.048401	-0.338242	0.643425
C134	C	1.381734	-0.004908	0.976758
C135	C	1.715067	0.328425	1.310091
C136	C	1.056644	-0.155129	0.361543
C137	C	1.389977	0.178205	0.694876
C138	C	1.723311	0.511538	1.028209
C139	C	1.060179	-0.077063	0.358077
C140	C	1.393513	0.256271	0.691410
C141	C	1.726846	0.589604	1.024743
C142	C	1.048355	-0.338327	0.178470
C143	C	1.381688	-0.004994	0.511804
C144	C	1.715022	0.328340	0.845137
C145	C	1.048491	-0.338153	0.096664
C146	C	1.381824	-0.004820	0.429997
C147	C	1.715157	0.328514	0.763331
C148	C	1.003407	-0.293287	0.829618
C149	C	1.336740	0.040046	1.162952
C150	C	1.670074	0.373380	1.496285
C151	C	1.003420	-0.293273	0.906476
C152	C	1.336754	0.040060	1.239810
C153	C	1.670087	0.373394	1.573143
C154	C	1.093486	-0.383112	0.910465
C155	C	1.426819	-0.049779	1.243799
C156	C	1.760153	0.283554	1.577132
C157	C	1.093468	-0.383130	0.833609
C158	C	1.426801	-0.049796	1.166942
C159	C	1.760135	0.283537	1.500275
C160	C	1.048430	-0.338213	0.793187
C161	C	1.381763	-0.004880	1.126520
C162	C	1.715097	0.328454	1.459854
C163	C	1.048461	-0.338182	0.946902
C164	C	1.381795	-0.004848	1.280235
C165	C	1.715128	0.328485	1.613568
C166	C	1.048476	-0.338167	1.030235
C167	C	1.381809	-0.004833	1.363568
C168	C	1.715143	0.328500	1.696901
C169	C	1.048414	-0.338229	0.709849
C170	C	1.381747	-0.004895	1.043182
C171	C	1.715081	0.328438	1.376515
H172	H	1.121780	-0.605676	0.296283
H173	H	1.455113	-0.272343	0.629616
H174	H	1.788446	0.060990	0.962949
H175	H	0.966734	-0.256713	0.796709
H176	H	1.300067	0.076620	1.130043
H177	H	1.633401	0.409954	1.463376
Br178	Br	0.453401	-0.444335	0.485176
Br179	Br	0.786734	-0.111002	0.818509
Br180	Br	1.120068	0.222331	1.151842
H181	H	0.482649	-0.256740	0.280815
H182	H	0.815983	0.076593	0.614149
H183	H	1.149316	0.409926	0.947482
H184	H	0.622092	-0.256725	0.280798
H185	H	0.955425	0.076608	0.614131
H186	H	1.288758	0.409942	0.947464
H187	H	0.614785	-0.419920	0.458559
H188	H	0.948118	-0.086586	0.791893
H189	H	1.281452	0.246747	1.125226
Br190	Br	1.140573	-0.758651	0.277629
Br191	Br	1.473906	-0.425318	0.610962
Br192	Br	1.807239	-0.091984	0.944296
H193	H	1.151820	-0.937167	0.266488
H194	H	1.485153	-0.603833	0.599821
H195	H	1.818487	-0.270500	0.933154
Br196	Br	1.170606	-1.090149	0.247820
Br197	Br	1.503939	-0.756815	0.581154
Br198	Br	1.837272	-0.423482	0.914487
Br199	Br	0.948576	-1.090175	0.469492
Br200	Br	1.281909	-0.756841	0.802826
Br201	Br	1.615243	-0.423508	1.136159
Br202	Br	0.956261	-0.917284	0.461760
Br203	Br	1.289595	-0.583951	0.795094
Br204	Br	1.622928	-0.250618	1.128427
H205	H	0.966758	-0.256690	0.936135
H206	H	1.300091	0.076643	1.269469
H207	H	1.633424	0.409976	1.602802
Br208	Br	1.154607	-0.444067	0.965327
Br209	Br	1.487940	-0.110734	1.298661
Br210	Br	1.821273	0.222599	1.631994
Br211	Br	0.926224	-0.585779	0.491556
Br212	Br	1.259557	-0.252445	0.824889
Br213	Br	1.592891	0.080888	1.158223
Br214	Br	1.154570	-0.444110	0.784161
Br215	Br	1.487903	-0.110777	1.117495
Br216	Br	1.821236	0.222557	1.450828
H217	H	1.109682	-0.825520	0.308515
H218	H	1.443015	-0.492187	0.641848
H219	H	1.776349	-0.158853	0.975182
Br220	Br	0.918558	-0.758675	0.499312
Br221	Br	1.251891	-0.425342	0.832646
Br222	Br	1.585225	-0.092008	1.165979
H223	H	0.987147	-0.850419	0.430866
H224	H	1.320481	-0.517086	0.764199
H225	H	1.653814	-0.183753	1.097532
