data_functionalizedCrystal
_audit_creation_method	'MofGen! by Chris Wilmer'
_symmetry_space_group_name_H-M	'P1'
_symmetry_Int_Tables_number	1
_symmetry_cell_setting	triclinic
loop_
_symmetry_equiv_pos_as_xyz
  x,y,z
_cell_length_a	10.489716
_cell_length_b	14.044220
_cell_length_c	12.503572
_cell_angle_alpha	86.156832
_cell_angle_beta	86.446389
_cell_angle_gamma	91.140993
loop_
_atom_site_label
_atom_site_type_symbol
_atom_site_fract_x
_atom_site_fract_y
_atom_site_fract_z
O1	O	1.714371	-0.128286	-0.089315
O2	O	1.344448	-0.140873	-0.089319
O3	O	1.523856	0.003442	-0.089307
O4	O	1.534963	-0.272601	-0.089328
O5	O	1.510366	-0.007430	0.089334
O6	O	1.330958	-0.151744	0.089322
O7	O	1.700881	-0.139158	0.089326
Cu8	Cu	1.514687	-0.146444	0.105635
Cu9	Cu	1.530642	-0.133587	-0.105629
O10	O	1.521473	-0.283473	0.089313
C11	C	1.290075	-0.145363	0.000001
C12	C	1.148157	-0.142533	-0.000001
C13	C	1.059460	-0.231032	-0.000010
C14	C	0.970719	-0.189628	0.088078
C15	C	0.984024	-0.178888	-0.088048
C16	C	1.061280	-0.101171	0.088160
C17	C	1.074597	-0.090440	-0.088045
C18	C	0.985897	-0.048972	0.000064
C19	C	1.512250	0.033353	0.000014
C20	C	1.497750	0.138677	0.000015
C21	C	1.755254	-0.134668	0.000003
C22	C	1.897172	-0.137497	-0.000002
C23	C	1.533079	-0.313384	-0.000010
C24	C	1.547579	-0.418707	-0.000018
N25	N	1.503475	-0.155486	0.254226
C26	C	1.471243	0.331519	-0.000000
C27	C	1.574081	0.388457	-0.000003
C28	C	1.559332	0.495761	-0.000011
C29	C	1.485990	0.224205	0.000008
N30	N	1.541863	-0.124537	-0.254220
C31	C	1.486983	-0.168795	0.473341
C32	C	1.558351	-0.111231	0.526673
C33	C	1.549175	-0.118636	0.648595
C34	C	1.496158	-0.161391	0.351407
H35	H	1.091931	-0.308017	0.000066
H36	H	1.673206	0.356620	-0.000073
H37	H	1.626344	-0.056387	0.480765
H38	H	1.372131	0.363358	-0.000004
H39	H	1.418996	-0.223637	0.519243
H40	H	0.925402	-0.231518	0.162542
H41	H	0.953649	0.028061	0.000121
H42	H	1.119930	-0.048577	-0.162514
H43	H	0.949954	-0.211734	-0.162509
H44	H	1.095179	-0.068370	0.162704
