data_functionalizedCrystal
_audit_creation_method	'MofGen! by Chris Wilmer'
_symmetry_space_group_name_H-M	'P1'
_symmetry_Int_Tables_number	1
_symmetry_cell_setting	triclinic
loop_
_symmetry_equiv_pos_as_xyz
  x,y,z
_cell_length_a	10.686220
_cell_length_b	12.594516
_cell_length_c	10.686551
_cell_angle_alpha	94.403300
_cell_angle_beta	89.691918
_cell_angle_gamma	94.397503
loop_
_atom_site_label
_atom_site_type_symbol
_atom_site_fract_x
_atom_site_fract_y
_atom_site_fract_z
Zn1	Zn	1.972283	-0.259491	0.562399
Zn2	Zn	1.956050	-0.452140	0.352650
Zn3	Zn	1.746401	-0.286719	0.368718
Zn4	Zn	1.762480	-0.449983	0.578427
O5	O	1.859303	-0.362083	0.465548
O6	O	2.145671	-0.274554	0.521143
O7	O	1.914717	-0.442494	0.179236
O8	O	1.776429	-0.134156	0.394426
O9	O	2.133745	-0.416093	0.367041
O10	O	1.942383	-0.114152	0.536723
O11	O	1.760688	-0.320960	0.191041
O12	O	1.572992	-0.318868	0.409968
O13	O	1.803834	-0.412416	0.751846
O14	O	1.584805	-0.438818	0.564041
O15	O	1.957975	-0.272463	0.740070
O16	O	1.930308	-0.600805	0.382583
O17	O	1.788093	-0.599220	0.548461
C18	C	1.533382	-0.381564	0.490488
C19	C	1.393954	-0.389922	0.501188
C20	C	1.859220	-0.638630	0.465542
C21	C	1.859303	-0.756928	0.465573
C22	C	1.781939	-0.825363	0.555736
C23	C	1.742587	-0.906041	0.443608
C24	C	1.898771	-0.887040	0.577711
C25	C	1.819885	-0.836056	0.353389
C26	C	1.976128	-0.817041	0.487566
C27	C	1.936813	-0.897690	0.375356
C28	C	2.186497	-0.342527	0.440512
C29	C	2.325928	-0.334193	0.429842
C30	C	1.884508	-0.339162	0.792747
C31	C	1.895249	-0.329394	0.932180
C32	C	1.859423	-0.084453	0.465579
C33	C	1.859474	0.033857	0.465592
C34	C	1.834268	-0.384834	0.139617
C35	C	1.823770	-0.394288	0.000166
H36	H	1.716381	-0.793643	0.631890
H37	H	1.345521	-0.444038	0.570452
H38	H	1.754361	-0.457322	0.951701
H39	H	1.786459	-0.813470	0.258545
O40	O	1.383893	-0.269654	0.347310
C41	C	1.580376	-0.202280	0.260950
C42	C	1.514884	-0.275391	0.354490
H43	H	1.686290	-0.206911	0.266704
H44	H	1.556508	-0.116420	0.285089
H45	H	1.546795	-0.229442	0.161730
H46	H	1.548428	-0.248326	0.453742
H47	H	1.538749	-0.361236	0.330243
O48	O	1.624753	-0.952271	0.421624
C49	C	1.409888	-0.967759	0.491723
C50	C	1.543281	-0.915354	0.516774
H51	H	1.343976	-0.937915	0.568620
H52	H	1.411190	-1.058226	0.491094
H53	H	1.375729	-0.945876	0.396840
H54	H	1.577521	-0.937153	0.611656
H55	H	1.541903	-0.824899	0.517321
O56	O	1.938380	-0.914026	0.690940
C57	C	1.901418	-0.907946	0.913920
C58	C	1.856452	-0.877302	0.785772
H59	H	1.835185	-0.878288	0.990622
H60	H	2.000278	-0.869810	0.933502
H61	H	1.902036	-0.998507	0.912487
H62	H	1.855754	-0.786756	0.787110
H63	H	1.757618	-0.915515	0.766240
H64	H	1.964673	-0.266362	0.980651
O65	O	2.014933	-0.935500	0.284406
C66	C	2.103409	-1.090032	0.182846
C67	C	2.014934	-1.047347	0.285916
H68	H	2.103418	-1.180467	0.184015
H69	H	2.202616	-1.052055	0.200759
H70	H	2.069621	-1.069171	0.087390
H71	H	2.048608	-1.068196	0.381414
H72	H	1.915744	-1.085321	0.267893
O73	O	2.093852	-0.770757	0.510019
C74	C	2.268502	-0.743905	0.653608
C75	C	2.135169	-0.796364	0.628334
H76	H	2.301958	-0.764607	0.749252
H77	H	2.267477	-0.653531	0.652546
H78	H	2.334818	-0.774804	0.577681
H79	H	2.068778	-0.765551	0.704232
H80	H	2.136295	-0.886733	0.629349
