data_functionalizedCrystal
_audit_creation_method	'MofGen! by Chris Wilmer'
_symmetry_space_group_name_H-M	'P1'
_symmetry_Int_Tables_number	1
_symmetry_cell_setting	triclinic
loop_
_symmetry_equiv_pos_as_xyz
  x,y,z
_cell_length_a	16.109301
_cell_length_b	19.288864
_cell_length_c	17.766277
_cell_angle_alpha	89.976791
_cell_angle_beta	90.007786
_cell_angle_gamma	96.701137
loop_
_atom_site_label
_atom_site_type_symbol
_atom_site_fract_x
_atom_site_fract_y
_atom_site_fract_z
O1	O	0.103716	-0.921601	0.062838
O2	O	0.117707	-0.719373	0.062787
O3	O	-0.010338	-0.826042	0.062806
O4	O	0.231761	-0.814932	0.062819
O5	O	-0.010345	-0.826024	-0.062382
O6	O	0.117701	-0.719355	-0.062402
O7	O	0.103710	-0.921582	-0.062351
Cu8	Cu	0.110704	-0.820467	-0.073807
Cu9	Cu	0.110712	-0.820489	0.074243
O10	O	0.231755	-0.814913	-0.062370
C11	C	-0.041315	-0.825583	0.000211
C12	C	-0.133606	-0.824234	0.000210
C13	C	0.117254	-0.693487	0.000186
C14	C	0.115902	-0.616380	0.000166
C15	C	0.104163	-0.947469	0.000252
C16	C	0.105514	-1.024576	0.000277
C17	C	-0.356084	-0.884391	0.000237
C18	C	-0.442800	-0.883118	0.000243
C19	C	-0.422493	-0.756559	0.000208
C20	C	-0.335778	-0.757833	0.000208
C21	C	-0.302577	-0.821751	0.000218
C22	C	-0.476007	-0.819204	0.000225
C23	C	-0.570028	-0.817823	0.000231
C24	C	-0.208549	-0.823133	0.000213
C25	C	0.262732	-0.815372	0.000227
C26	C	0.355022	-0.816722	0.000233
N27	N	0.110699	-0.820456	-0.177937
C28	C	0.191034	-0.571863	0.000182
C29	C	0.189764	-0.499413	0.000190
C30	C	0.113359	-0.471483	0.000198
C31	C	0.038218	-0.516009	0.000178
C32	C	0.039489	-0.588458	0.000162
C33	C	0.053298	-0.363084	0.044079
C34	C	0.052029	-0.290636	0.044100
C35	C	0.109433	-0.248028	0.000243
C36	C	0.168120	-0.277874	-0.043624
C37	C	0.169391	-0.350323	-0.043640
C38	C	0.111971	-0.392925	0.000214
C39	C	0.183193	-0.124952	0.000267
C40	C	0.181920	-0.052501	0.000270
C41	C	0.030372	-0.069099	0.000266
C42	C	0.031647	-0.141548	0.000254
C43	C	0.108060	-0.169470	0.000259
C44	C	0.054028	-0.867704	-0.217315
C45	C	0.054024	-0.867708	-0.296117
C46	C	0.110705	-0.820471	-0.335538
C47	C	0.167380	-0.773214	-0.296150
C48	C	0.167377	-0.773206	-0.217350
C49	C	0.186459	-0.811353	-0.460373
C50	C	0.186463	-0.811365	-0.539172
C51	C	0.110715	-0.820489	-0.578584
C52	C	0.034960	-0.829616	-0.539188
C53	C	0.034956	-0.829609	-0.460387
C54	C	0.110715	-0.820473	-0.420983
C55	C	0.054035	-0.867745	-0.703408
C56	C	0.054030	-0.867744	-0.782212
C57	C	0.167394	-0.773252	-0.782243
C58	C	0.167392	-0.773250	-0.703441
C59	C	0.110713	-0.820500	-0.664028
N60	N	0.110711	-0.820505	0.178373
H61	H	-0.329054	-0.936438	0.000247
H62	H	0.007878	-0.906217	-0.814274
H63	H	-0.029534	-0.177795	0.000246
C64	C	-0.048366	-0.839637	-0.417051
H65	H	-0.093480	-0.845168	-0.451802
H66	H	-0.050123	-0.880018	-0.386204
H67	H	-0.052904	-0.799898	-0.386419
C68	C	-0.501655	-0.952022	0.000259
H69	H	-0.469458	-0.990269	0.000260
H70	H	-0.535898	-0.954165	0.043916
H71	H	-0.535910	-0.954148	-0.043402
C72	C	0.264569	-0.003531	0.000288
H73	H	0.310256	-0.030540	0.000295
H74	H	0.267227	0.025100	-0.043362
H75	H	0.267219	0.025052	0.043955
H76	H	0.250947	-0.463160	0.000201
C77	C	0.229744	-0.721290	-0.825592
H78	H	0.263495	-0.693147	-0.790850
H79	H	0.264278	-0.746267	-0.856314
H80	H	0.199920	-0.692385	-0.856350
C81	C	-0.043159	-0.637429	0.000154
H82	H	-0.088847	-0.610421	0.000163
H83	H	-0.045817	-0.666016	-0.043505
H84	H	-0.045806	-0.666054	0.043812
C85	C	-0.459018	-0.686255	0.000186
H86	H	-0.518326	-0.694466	0.000180
H87	H	-0.440631	-0.660466	0.043833
H88	H	-0.440639	-0.660463	-0.043485
H89	H	0.253255	-0.594592	0.000187
C90	C	0.229740	-0.721283	-0.660122
H91	H	0.263502	-0.693154	-0.694884
H92	H	0.199921	-0.692377	-0.629401
H93	H	0.264274	-0.746263	-0.629366
C94	C	0.269787	-0.801327	-0.582505
H95	H	0.258942	-0.802647	-0.635079
H96	H	0.299563	-0.757511	-0.569611
H97	H	0.302257	-0.837642	-0.569563
C98	C	0.231272	-0.231014	-0.091864
H99	H	0.222107	-0.183592	-0.085579
H100	H	0.286485	-0.236872	-0.076439
H101	H	0.224171	-0.243660	-0.143337
C102	C	0.269787	-0.801321	-0.417027
H103	H	0.314902	-0.795898	-0.451774
H104	H	0.271597	-0.760876	-0.386307
H105	H	0.274272	-0.841010	-0.386268
H106	H	0.213530	-0.734751	-0.328250
C107	C	-0.276916	-0.688926	0.000185
H108	H	-0.309108	-0.650676	0.000167
H109	H	-0.242660	-0.686798	0.043839
H110	H	-0.242675	-0.686790	-0.043478
C111	C	0.233933	-0.383153	-0.091896
H112	H	0.267938	-0.347405	-0.118019
H113	H	0.268000	-0.407759	-0.060284
H114	H	0.205673	-0.414541	-0.127172
H115	H	0.245413	-0.147687	0.000259
H116	H	0.007882	-0.906216	-0.671317
C117	C	-0.053673	-0.038385	0.000278
H118	H	-0.043671	0.011139	0.000295
H119	H	-0.084605	-0.053643	-0.043379
H120	H	-0.084589	-0.053692	0.043939
C121	C	0.229723	-0.721236	-0.174032
H122	H	0.263485	-0.693104	-0.208792
H123	H	0.199905	-0.692331	-0.143308
H124	H	0.264260	-0.746216	-0.143277
H125	H	0.004247	-0.266341	0.079822
C126	C	-0.008325	-0.919670	-0.173966
H127	H	-0.042082	-0.947806	-0.208709
H128	H	0.021490	-0.948571	-0.143201
H129	H	-0.042864	-0.894686	-0.143250
C130	C	-0.009844	-0.409946	0.092331
H131	H	-0.044966	-0.381795	0.118468
H132	H	-0.042923	-0.441872	0.060712
H133	H	0.019411	-0.435074	0.127594
H134	H	-0.023992	-0.493264	0.000194
H135	H	0.007874	-0.906185	-0.328185
H136	H	-0.026722	-0.837046	-0.571275
