data_functionalizedCrystal
_audit_creation_method	'MofGen! by Chris Wilmer'
_symmetry_space_group_name_H-M	'P1'
_symmetry_Int_Tables_number	1
_symmetry_cell_setting	triclinic
loop_
_symmetry_equiv_pos_as_xyz
  x,y,z
_cell_length_a	14.519709
_cell_length_b	14.519709
_cell_length_c	13.596369
_cell_angle_alpha	90.006934
_cell_angle_beta	89.999709
_cell_angle_gamma	83.680145
loop_
_atom_site_label
_atom_site_type_symbol
_atom_site_fract_x
_atom_site_fract_y
_atom_site_fract_z
O1	O	-1.223868	-0.120893	-0.081665
O2	O	-0.890535	0.212441	0.251668
O3	O	-0.557202	0.545774	0.585001
O4	O	-0.955392	-0.135129	-0.081696
O5	O	-0.622058	0.198204	0.251638
O6	O	-0.288725	0.531537	0.584971
O7	O	-1.096748	0.006227	-0.081671
O8	O	-0.763415	0.339561	0.251662
O9	O	-0.430082	0.672894	0.584996
O10	O	-1.082512	-0.262249	-0.081690
O11	O	-0.749178	0.071084	0.251643
O12	O	-0.415845	0.404417	0.584976
O13	O	-1.096734	0.006235	0.081912
O14	O	-0.763401	0.339568	0.415245
O15	O	-0.430067	0.672902	0.748579
O16	O	-0.955377	-0.135122	0.081887
O17	O	-0.622044	0.198212	0.415220
O18	O	-0.288711	0.531545	0.748554
O19	O	-1.223854	-0.120885	0.081917
O20	O	-0.890521	0.212448	0.415251
O21	O	-0.557188	0.545781	0.748584
Zn22	Zn	-1.089614	-0.128002	0.107875
Zn23	Zn	-0.756280	0.205331	0.441208
Zn24	Zn	-0.422947	0.538664	0.774541
Zn25	Zn	-1.089632	-0.128012	-0.107653
Zn26	Zn	-0.756299	0.205321	0.225680
Zn27	Zn	-0.422966	0.538654	0.559014
O28	O	-1.082498	-0.262242	0.081893
O29	O	-0.749164	0.071091	0.415226
O30	O	-0.415831	0.404425	0.748559
C31	C	-1.096078	0.040591	0.000121
C32	C	-0.762744	0.373924	0.333454
C33	C	-0.429411	0.707258	0.666787
C34	C	-1.094090	0.142972	0.000121
C35	C	-0.760756	0.476306	0.333454
C36	C	-0.427423	0.809639	0.666788
C37	C	-0.921025	-0.134462	0.000092
C38	C	-0.587691	0.198871	0.333425
C39	C	-0.254358	0.532205	0.666759
C40	C	-0.818643	-0.132474	0.000081
C41	C	-0.485310	0.200859	0.333414
C42	C	-0.151977	0.534193	0.666747
C43	C	-1.258221	-0.121553	0.000128
C44	C	-0.924888	0.211781	0.333461
C45	C	-0.591554	0.545114	0.666794
C46	C	-1.360602	-0.123541	0.000132
C47	C	-1.027269	0.209793	0.333466
C48	C	-0.693936	0.543126	0.666799
C49	C	-0.443748	-0.125154	0.000126
C50	C	-0.110414	0.208179	0.333459
C51	C	0.222919	0.541512	0.666793
C52	C	-0.548056	-0.127187	0.000113
C53	C	-0.214722	0.206146	0.333446
C54	C	0.118611	0.539480	0.666780
C55	C	-0.631192	-0.128814	0.000102
C56	C	-0.297859	0.204519	0.333436
C57	C	0.035474	0.537853	0.666769
C58	C	-0.735507	-0.130847	0.000091
C59	C	-0.402173	0.202486	0.333425
C60	C	-0.068840	0.535820	0.666758
C61	C	-1.083168	-0.296605	0.000099
C62	C	-0.749835	0.036728	0.333432
C63	C	-0.416501	0.370061	0.666766
C64	C	-1.085156	-0.398987	0.000092
C65	C	-0.751823	-0.065653	0.333425
C66	C	-0.418490	0.267680	0.666759
N67	N	-1.089608	-0.127995	0.254966
N68	N	-0.756274	0.205338	0.588300
N69	N	-0.422941	0.538672	0.921633
C70	C	-1.086770	0.517868	0.000095
C71	C	-0.753437	0.851201	0.333428
C72	C	-0.420103	1.184535	0.666761
C73	C	-1.088803	0.413560	0.000102
C74	C	-0.755469	0.746893	0.333436
C75	C	-0.422136	1.080227	0.666769
C76	C	-1.090430	0.330423	0.000109
C77	C	-0.757096	0.663757	0.333442
C78	C	-0.423763	0.997090	0.666775
C79	C	-1.092463	0.226109	0.000114
C80	C	-0.759129	0.559442	0.333448
C81	C	-0.425796	0.892776	0.666781
N82	N	-1.089645	-0.128012	-0.254745
N83	N	-0.756312	0.205321	0.078589
N84	N	-0.422979	0.538654	0.411922
C85	C	-1.089631	-0.128013	0.656257
C86	C	-0.756298	0.205320	0.989591
C87	C	-0.422964	0.538653	1.322924
C88	C	-1.089622	-0.128011	0.544606
C89	C	-0.756288	0.205322	0.877939
C90	C	-0.422955	0.538655	1.211273
C91	C	-1.089620	-0.128005	0.455615
C92	C	-0.756286	0.205329	0.788949
C93	C	-0.422953	0.538662	1.122282
C94	C	-1.089610	-0.128001	0.343957
C95	C	-0.756276	0.205332	0.677290
C96	C	-0.422943	0.538665	1.010624
