data_functionalizedCrystal
_audit_creation_method	'MofGen! by Chris Wilmer'
_symmetry_space_group_name_H-M	'P1'
_symmetry_Int_Tables_number	1
_symmetry_cell_setting	triclinic
loop_
_symmetry_equiv_pos_as_xyz
  x,y,z
_cell_length_a	14.971486
_cell_length_b	9.065218
_cell_length_c	14.048226
_cell_angle_alpha	89.995444
_cell_angle_beta	89.998499
_cell_angle_gamma	84.315007
loop_
_atom_site_label
_atom_site_type_symbol
_atom_site_fract_x
_atom_site_fract_y
_atom_site_fract_z
O1	O	1.188380	0.192261	-0.079047
O2	O	0.928151	0.215285	-0.079073
O3	O	1.063645	-0.010979	-0.079057
O4	O	1.052887	0.418524	-0.079062
O5	O	1.063628	-0.010992	0.079264
O6	O	0.928135	0.215271	0.079249
O7	O	1.188363	0.192248	0.079274
Zn8	Zn	1.058246	0.203758	0.104398
Zn9	Zn	1.058268	0.203775	-0.104197
O10	O	1.052870	0.418511	0.079259
C11	C	0.894811	0.214248	0.000085
C12	C	0.795491	0.211163	0.000075
C13	C	0.739256	0.344086	0.000075
C14	C	0.645935	0.341178	0.000089
C15	C	0.608850	0.205345	0.000097
C16	C	0.665092	0.072412	0.000100
C17	C	0.758411	0.075321	0.000092
C18	C	0.470584	0.066357	0.000113
C19	C	0.377259	0.063446	0.000118
C20	C	0.358108	0.332214	0.000110
C21	C	0.451427	0.335123	0.000102
C22	C	0.507663	0.202189	0.000103
C23	C	1.062602	-0.065951	0.000102
C24	C	1.059511	-0.229731	0.000097
C25	C	1.221704	0.193284	0.000115
C26	C	1.321024	0.196370	0.000118
C27	C	1.053912	0.473483	0.000098
C28	C	1.057004	0.637264	0.000097
N29	N	1.058238	0.203745	0.246759
N30	N	1.058284	0.203776	-0.246557
C31	C	1.118254	0.103597	0.296584
C32	C	1.118260	0.103596	0.396242
C33	C	1.058254	0.203751	0.446073
C34	C	0.998231	0.303904	0.396241
C35	C	0.998222	0.303896	0.296585
C36	C	0.998257	0.303915	0.603955
C37	C	0.998268	0.303924	0.703618
C38	C	1.118295	0.103614	0.703612
C39	C	1.118286	0.103607	0.603956
C40	C	1.058264	0.203762	0.554131
H41	H	0.634890	-0.038186	0.000119
O42	O	0.939922	0.401350	0.555701
C43	C	0.820846	0.599987	0.566219
C44	C	0.886868	0.489742	0.620984
H45	H	0.777922	0.671459	0.618976
H46	H	0.860011	0.673890	0.519578
H47	H	0.775684	0.536142	0.519546
H48	H	0.932046	0.553466	0.667708
H49	H	0.847648	0.415839	0.667565
H50	H	0.769442	0.454697	0.000068
H51	H	0.804197	-0.032919	0.000092
H52	H	1.167151	0.022060	0.563383
O53	O	0.939892	0.401327	0.248330
C54	C	0.820807	0.599949	0.258847
C55	C	0.886836	0.489715	0.313612
H56	H	0.777881	0.671419	0.311604
H57	H	0.859966	0.673856	0.212203
H58	H	0.775647	0.536094	0.212178
H59	H	0.932012	0.553449	0.360333
H60	H	0.847621	0.415809	0.360196
H61	H	0.481618	0.445730	0.000087
O62	O	0.303396	0.461254	-0.000016
C63	C	0.186958	0.613997	-0.082070
C64	C	0.248855	0.467796	-0.082026
H65	H	0.142859	0.619348	-0.148377
H66	H	0.142731	0.619386	-0.015854
H67	H	0.229515	0.711551	-0.082038
H68	H	0.206368	0.370160	-0.082092
H69	H	0.293086	0.462537	-0.148236
H70	H	1.167166	0.022064	0.744185
H71	H	0.949404	0.385480	0.744185
O72	O	0.341380	-0.068628	0.000170
C73	C	0.370218	-0.334902	0.000127
C74	C	0.410968	-0.185433	0.000093
H75	H	0.426460	-0.429378	0.000044
H76	H	0.327036	-0.343078	0.066400
H77	H	0.326977	-0.342897	-0.066114
H78	H	0.454250	-0.177337	0.066290
H79	H	0.454097	-0.177321	-0.066224
O80	O	0.591438	0.470437	0.000045
C81	C	0.582291	0.737324	0.000090
C82	C	0.644111	0.591043	0.000114
H83	H	0.624852	0.834871	0.000166
H84	H	0.538132	0.742787	-0.066176
H85	H	0.538110	0.742599	0.066338
H86	H	0.688348	0.585669	-0.066089
H87	H	0.688209	0.585640	0.066425
H88	H	0.949369	0.385447	0.436819
O89	O	0.525306	-0.062676	-0.000015
C90	C	0.641742	-0.215393	-0.082080
C91	C	0.579836	-0.069202	-0.082035
H92	H	0.685833	-0.220731	-0.148396
H93	H	0.685978	-0.220778	-0.015872
H94	H	0.599192	-0.312956	-0.082031
H95	H	0.622316	0.028443	-0.082117
H96	H	0.535597	-0.063946	-0.148237
H97	H	1.167121	0.022045	0.256018
H98	H	1.167128	0.022047	0.436808
