data_functionalizedCrystal
_audit_creation_method	'MofGen! by Chris Wilmer'
_symmetry_space_group_name_H-M	'P1'
_symmetry_Int_Tables_number	1
_symmetry_cell_setting	triclinic
loop_
_symmetry_equiv_pos_as_xyz
  x,y,z
_cell_length_a	14.044191
_cell_length_b	13.101039
_cell_length_c	10.654546
_cell_angle_alpha	93.385731
_cell_angle_beta	91.162349
_cell_angle_gamma	93.662449
loop_
_atom_site_label
_atom_site_type_symbol
_atom_site_fract_x
_atom_site_fract_y
_atom_site_fract_z
O1	O	1.264870	0.085203	-0.296678
O2	O	1.598203	0.418536	0.036656
O3	O	1.931536	0.751870	0.369989
O4	O	0.988829	0.085215	-0.285734
O5	O	1.322162	0.418548	0.047599
O6	O	1.655496	0.751881	0.380932
O7	O	1.133196	0.085178	-0.109107
O8	O	1.466529	0.418511	0.224226
O9	O	1.799863	0.751845	0.557560
O10	O	1.120503	0.085239	-0.473305
O11	O	1.453836	0.418573	-0.139972
O12	O	1.787170	0.751906	0.193361
O13	O	1.122838	-0.085249	-0.121803
O14	O	1.456171	0.248084	0.211531
O15	O	1.789505	0.581418	0.544864
O16	O	0.978471	-0.085213	-0.298430
O17	O	1.311804	0.248121	0.034903
O18	O	1.645138	0.581454	0.368237
O19	O	1.254512	-0.085224	-0.309374
O20	O	1.587845	0.248109	0.023960
O21	O	1.921178	0.581442	0.357293
Zn22	Zn	1.114847	-0.112277	-0.305918
Zn23	Zn	1.448180	0.221056	0.027416
Zn24	Zn	1.781514	0.554389	0.360749
Zn25	Zn	1.128494	0.112268	-0.289190
Zn26	Zn	1.461827	0.445601	0.044143
Zn27	Zn	1.795161	0.778934	0.377476
O28	O	1.110145	-0.085188	-0.486001
O29	O	1.443478	0.248146	-0.152668
O30	O	1.776812	0.581479	0.180666
C31	C	0.948304	0.000002	-0.287295
C32	C	1.281638	0.333335	0.046038
C33	C	1.614971	0.666669	0.379372
C34	C	0.842985	0.000005	-0.273016
C35	C	1.176318	0.333338	0.060318
C36	C	1.509651	0.666672	0.393651
C37	C	0.593192	0.000007	-0.348181
C38	C	0.926525	0.333341	-0.014848
C39	C	1.259858	0.666674	0.318486
C40	C	0.650155	-0.000008	-0.246932
C41	C	0.983489	0.333325	0.086402
C42	C	1.316822	0.666659	0.419735
C43	C	0.757455	-0.000001	-0.261448
C44	C	1.090789	0.333333	0.071885
C45	C	1.424122	0.666666	0.405218
C46	C	0.485882	0.000000	-0.333666
C47	C	0.819215	0.333333	-0.000333
C48	C	1.152548	0.666667	0.333000
N49	N	1.105540	-0.265524	-0.317333
N50	N	1.438873	0.067810	0.016000
N51	N	1.772207	0.401143	0.349333
C52	C	1.092878	-0.474563	-0.332877
C53	C	1.426211	-0.141230	0.000457
C54	C	1.759544	0.192104	0.333790
C55	C	1.150468	-0.525453	-0.262226
C56	C	1.483801	-0.192120	0.071107
C57	C	1.817134	0.141213	0.404441
C58	C	1.143422	-0.641770	-0.270874
C59	C	1.476755	-0.308437	0.062459
C60	C	1.810089	0.024897	0.395792
C61	C	1.099922	-0.358236	-0.324230
C62	C	1.433255	-0.024902	0.009104
C63	C	1.766589	0.308431	0.342437
C64	C	1.295037	-0.000009	-0.307813
C65	C	1.628370	0.333324	0.025521
C66	C	1.961703	0.666657	0.358854
C67	C	1.400357	-0.000006	-0.322091
C68	C	1.733690	0.333328	0.011242
C69	C	2.067023	0.666661	0.344575
C70	C	1.127085	-0.000041	-0.068564
C71	C	1.460418	0.333292	0.264770
C72	C	1.793752	0.666626	0.598103
C73	C	1.124297	-0.000058	0.071159
C74	C	1.457630	0.333276	0.404492
C75	C	1.790964	0.666609	0.737825
N76	N	1.137808	0.265514	-0.277765
N77	N	1.471142	0.598847	0.055568
N78	N	1.804475	0.932181	0.388901
C79	C	1.209298	-0.000075	0.142099
C80	C	1.542631	0.333258	0.475432
C81	C	1.875964	0.666592	0.808765
C82	C	1.206672	-0.000087	0.273383
C83	C	1.540006	0.333246	0.606716
C84	C	1.873339	0.666580	0.940049
C85	C	1.034038	-0.000068	0.262775
C86	C	1.367371	0.333265	0.596108
C87	C	1.700704	0.666599	0.929441
C88	C	1.036664	-0.000049	0.131494
C89	C	1.369998	0.333284	0.464827
C90	C	1.703331	0.666618	0.798160
C91	C	1.308967	-0.000090	0.148224
C92	C	1.642300	0.333243	0.481557
C93	C	1.975633	0.666576	0.814891
C94	C	1.306341	-0.000102	0.279508
C95	C	1.639675	0.333231	0.612841
C96	C	1.973008	0.666564	0.946175
C97	C	1.116256	-0.000003	0.473453
C98	C	1.449589	0.333330	0.806787
C99	C	1.782923	0.666664	1.140120
C100	C	1.119045	-0.000089	0.333724
C101	C	1.452378	0.333245	0.667057
C102	C	1.785711	0.666578	1.000390
H103	H	0.618343	0.000048	-0.149342
H104	H	0.951676	0.333381	0.183992
H105	H	1.285009	0.666714	0.517325
H106	H	0.625007	0.000027	-0.445758
H107	H	0.958341	0.333360	-0.112424
H108	H	1.291674	0.666693	0.220909
H109	H	1.352286	0.071231	0.120260
H110	H	1.685619	0.404564	0.453593
H111	H	2.018952	0.737898	0.786927
C112	C	1.019108	-0.533705	-0.423331
C113	C	1.352441	-0.200371	-0.089997
C114	C	1.685774	0.132962	0.243336
H115	H	0.983888	-0.486482	-0.466511
H116	H	1.317221	-0.153148	-0.133178
H117	H	1.650554	0.180185	0.200156
H118	H	1.051132	-0.575562	-0.482482
H119	H	1.384465	-0.242229	-0.149149
H120	H	1.717798	0.091105	0.184185
H121	H	0.976773	-0.575555	-0.376783
H122	H	1.310107	-0.242222	-0.043449
H123	H	1.643440	0.091112	0.289884
H124	H	1.205064	-0.481665	-0.195246
H125	H	1.538397	-0.148331	0.138087
H126	H	1.871730	0.185002	0.471421
H127	H	0.962690	-0.000060	0.311915
H128	H	1.296023	0.333273	0.645249
H129	H	1.629357	0.666606	0.978582
C130	C	0.943164	-0.000023	0.053464
C131	C	1.276498	0.333310	0.386797
C132	C	1.609831	0.666644	0.720131
H133	H	0.890600	-0.000030	0.108202
H134	H	1.223934	0.333303	0.441535
H135	H	1.557267	0.666636	0.774869
H136	H	0.944217	0.059415	0.006454
H137	H	1.277550	0.392749	0.339787
H138	H	1.610884	0.726082	0.673121
H139	H	0.936983	-0.059455	-0.002392
H140	H	1.270317	0.273878	0.330941
H141	H	1.603650	0.607211	0.664275
H142	H	1.336233	-0.073673	0.103925
H143	H	1.669566	0.259660	0.437258
H144	H	2.002900	0.592993	0.770592
H145	H	1.340935	0.073476	0.327604
H146	H	1.674269	0.406809	0.660937
H147	H	2.007602	0.740143	0.994271
H148	H	1.339561	-0.071432	0.312179
H149	H	1.672894	0.261902	0.645513
H150	H	2.006228	0.595235	0.978846
