data_functionalizedCrystal
_audit_creation_method	'MofGen! by Chris Wilmer'
_symmetry_space_group_name_H-M	'P1'
_symmetry_Int_Tables_number	1
_symmetry_cell_setting	triclinic
loop_
_symmetry_equiv_pos_as_xyz
  x,y,z
_cell_length_a	8.559649
_cell_length_b	26.809956
_cell_length_c	8.559649
_cell_angle_alpha	90.004195
_cell_angle_beta	110.221336
_cell_angle_gamma	90.007415
loop_
_atom_site_label
_atom_site_type_symbol
_atom_site_fract_x
_atom_site_fract_y
_atom_site_fract_z
O1	O	2.126897	0.041471	0.055059
O2	O	1.651412	0.041474	-0.028722
O3	O	1.931045	0.041471	0.250911
O4	O	1.847264	0.041475	-0.224574
O5	O	1.930993	-0.041489	0.250868
O6	O	1.651360	-0.041485	-0.028765
O7	O	2.126845	-0.041488	0.055016
Zn8	Zn	1.889095	-0.054658	0.013118
Zn9	Zn	1.889163	0.054644	0.013176
O10	O	1.847212	-0.041484	-0.224617
C11	C	1.591077	-0.000005	-0.035093
C12	C	1.411378	-0.000005	-0.053992
N13	N	1.889060	-0.129254	0.013081
C14	C	2.012967	-0.473882	0.136968
C15	C	2.013008	-0.682759	0.136998
O16	O	2.118291	-0.709764	0.242313
N17	N	1.889176	-0.708881	0.013213
C18	C	1.765318	-0.682780	-0.110582
O19	O	1.659982	-0.709792	-0.215859
C20	C	1.765271	-0.473904	-0.110604
C21	C	1.889122	-0.447785	0.013180
C22	C	2.136806	-0.447762	0.260743
C23	C	2.136799	-0.395546	0.260729
C24	C	2.012954	-0.369449	0.136941
C25	C	1.889115	-0.395568	0.013166
C26	C	1.641408	-0.447804	-0.234390
C27	C	1.641405	-0.395581	-0.234382
C28	C	1.765255	-0.369462	-0.110599
C29	C	1.765263	-0.317255	-0.110636
N30	N	1.889096	-0.291133	0.013149
C31	C	2.012941	-0.317230	0.136938
C32	C	1.765353	-0.792444	-0.110564
C33	C	1.765366	-0.844663	-0.110561
C34	C	2.013055	-0.844638	0.137021
C35	C	2.013048	-0.792418	0.137010
C36	C	1.889186	-0.766322	0.013221
C37	C	2.012919	-0.207572	0.136898
C38	C	2.012906	-0.155351	0.136870
C39	C	1.765213	-0.155381	-0.110707
C40	C	1.765230	-0.207597	-0.110684
C41	C	1.889091	-0.233691	0.013133
O42	O	1.660025	-0.290218	-0.215885
O43	O	2.118240	-0.290210	0.242219
C44	C	2.012973	-0.526098	0.136982
C45	C	1.889134	-0.552217	0.013208
C46	C	1.765289	-0.526120	-0.110581
C47	C	1.889147	-0.604436	0.013211
C48	C	2.012993	-0.630533	0.136999
C49	C	2.136825	-0.604411	0.260784
C50	C	2.136819	-0.552195	0.260770
C51	C	1.641457	-0.552242	-0.234366
C52	C	1.641474	-0.604458	-0.234343
C53	C	1.765320	-0.630555	-0.110555
C54	C	2.187180	-0.000007	0.061387
C55	C	2.366879	-0.000005	0.080286
C56	C	1.937369	-0.000009	0.311198
C57	C	1.956268	-0.000007	0.490898
N58	N	1.889212	0.129240	0.013227
C59	C	1.840889	-0.000005	0.715096
C60	C	1.821990	-0.000006	0.535396
H61	H	1.466258	-0.000004	0.209705
O62	O	1.279747	-0.000007	-0.225444
H63	H	1.154523	-0.000010	-0.213889
O64	O	2.146481	-0.127178	0.270393
H65	H	2.232583	-0.154102	0.356481
H66	H	1.540622	-0.625721	-0.335156
O67	O	2.127704	-0.000009	0.622531
H68	H	2.196321	-0.033825	0.608183
O69	O	2.146525	-0.235714	0.270421
H70	H	2.232638	-0.208772	0.356463
O71	O	1.650537	-0.000008	0.403767
H72	H	1.635367	0.033805	0.325081
O73	O	2.270361	-0.367377	0.394258
H74	H	2.356454	-0.394304	0.480338
H75	H	1.540537	-0.374336	-0.335185
H76	H	2.237656	-0.469006	0.361554
O77	O	1.631654	-0.235768	-0.244203
H78	H	1.690248	-0.259559	-0.314718
H79	H	2.113896	-0.771155	0.237805
H80	H	2.113897	-0.865895	0.237813
H81	H	1.664531	-0.865925	-0.211372
O82	O	1.631765	-0.764299	-0.244100
H83	H	1.545682	-0.791241	-0.330174
H84	H	1.540558	-0.469063	-0.335185
O85	O	1.631603	-0.127229	-0.244185
H86	H	1.652395	-0.086531	-0.223363
H87	H	2.237669	-0.530933	0.361567
H88	H	1.540605	-0.530998	-0.335168
O89	O	2.270402	-0.632563	0.394309
H90	H	2.249577	-0.673261	0.373514
