data_functionalizedCrystal
_audit_creation_method	'MofGen! by Chris Wilmer'
_symmetry_space_group_name_H-M	'P1'
_symmetry_Int_Tables_number	1
_symmetry_cell_setting	triclinic
loop_
_symmetry_equiv_pos_as_xyz
  x,y,z
_cell_length_a	29.839131
_cell_length_b	18.215407
_cell_length_c	18.215399
_cell_angle_alpha	89.983115
_cell_angle_beta	89.968708
_cell_angle_gamma	90.038864
loop_
_atom_site_label
_atom_site_type_symbol
_atom_site_fract_x
_atom_site_fract_y
_atom_site_fract_z
Zn1	Zn	-0.178887	1.124984	-0.416052
Zn2	Zn	-0.254017	1.124858	-0.292980
Zn3	Zn	-0.178898	1.001917	-0.293005
Zn4	Zn	-0.253987	1.001847	-0.416010
O5	O	-0.216447	1.063401	-0.354512
O6	O	-0.188860	1.227951	-0.399734
O7	O	-0.244069	1.108526	-0.189999
O8	O	-0.116029	1.018325	-0.309356
O9	O	-0.244058	1.227859	-0.309313
O10	O	-0.116021	1.108741	-0.399758
O11	O	-0.188880	1.018203	-0.190017
O12	O	-0.188851	0.898924	-0.309315
O13	O	-0.244008	1.018204	-0.519000
O14	O	-0.244019	0.898872	-0.399686
O15	O	-0.188832	1.108673	-0.519031
O16	O	-0.316880	1.108458	-0.309272
O17	O	-0.316858	1.018082	-0.399662
C18	C	-0.216433	0.872195	-0.354499
C19	C	-0.216438	0.790396	-0.354511
C20	C	-0.187756	0.602250	-0.401667
C21	C	-0.187760	0.525391	-0.401670
C22	C	-0.245151	0.525305	-0.307369
C23	C	-0.245144	0.602163	-0.307364
C24	C	-0.216448	0.640633	-0.354517
C25	C	-0.216458	0.486917	-0.354525
C26	C	-0.216462	0.403583	-0.354527
C27	C	-0.216443	0.723972	-0.354514
C28	C	-0.333170	1.063269	-0.354475
C29	C	-0.383104	1.063279	-0.354484
C30	C	-0.692746	1.110546	-0.307515
C31	C	-0.880419	1.110636	-0.307543
O32	O	-0.904683	1.150719	-0.267580
N33	N	-0.903889	1.063554	-0.354567
C34	C	-0.880438	1.016449	-0.401591
O35	O	-0.904707	0.976410	-0.441594
C36	C	-0.692766	1.016362	-0.401566
C37	C	-0.669298	1.063443	-0.354533
C38	C	-0.669279	1.157623	-0.260487
C39	C	-0.622363	1.157597	-0.260477
C40	C	-0.598915	1.110494	-0.307496
C41	C	-0.622383	1.063417	-0.354524
C42	C	-0.669316	0.969262	-0.448593
C43	C	-0.622395	0.969245	-0.448583
C44	C	-0.598927	1.016326	-0.401551
C45	C	-0.552020	1.016288	-0.401533
N46	N	-0.528550	1.063370	-0.354509
C47	C	-0.551997	1.110473	-0.307490
C48	C	-0.978969	1.016497	-0.401600
C49	C	-1.025886	1.016517	-0.401606
C50	C	-1.025864	1.110706	-0.307559
C51	C	-0.978946	1.110681	-0.307550
C52	C	-0.955499	1.063579	-0.354576
C53	C	-0.453472	1.110414	-0.307473
C54	C	-0.406552	1.110382	-0.307466
C55	C	-0.406578	1.016196	-0.401515
C56	C	-0.453494	1.016226	-0.401520
C57	C	-0.476939	1.063341	-0.354497
O58	O	-0.527727	0.976232	-0.441481
O59	O	-0.527720	1.150518	-0.267505
C60	C	-0.739662	1.110572	-0.307524
C61	C	-0.763129	1.063495	-0.354552
C62	C	-0.739681	1.016392	-0.401571
C63	C	-0.810047	1.063515	-0.354558
C64	C	-0.833495	1.110618	-0.307539
C65	C	-0.810025	1.157701	-0.260515
C66	C	-0.763109	1.157675	-0.260506
C67	C	-0.763151	0.969309	-0.448595
C68	C	-0.810067	0.969339	-0.448600
C69	C	-0.833515	1.016442	-0.401581
C70	C	-0.099269	1.063555	-0.354565
C71	C	-0.049334	1.063620	-0.354587
C72	C	-0.216415	1.063445	-0.546465
C73	C	-0.216402	1.063463	-0.628264
C74	C	-0.216461	1.255354	-0.354525
C75	C	-0.216467	1.337153	-0.354531
C76	C	-0.187633	1.110597	-0.893339
C77	C	-0.187645	1.110588	-0.816480
C78	C	-0.245105	1.016389	-0.816437
C79	C	-0.245095	1.016402	-0.893295
C80	C	-0.216356	1.063505	-0.931744
C81	C	-0.216379	1.063483	-0.778027
C82	C	-0.216392	1.063473	-0.694694
C83	C	-0.216343	1.063516	-1.015083
C84	C	-0.216446	1.063401	-0.163306
C85	C	-0.216333	1.063525	-0.081507
H86	H	-0.387446	1.148720	-0.269164
H87	H	-0.268515	0.493974	-0.268979
H88	H	-0.268509	0.633415	-0.268964
H89	H	-0.164396	0.494143	-0.440063
N90	N	-0.158288	1.158716	-0.932625
N91	N	-0.158282	1.158725	-1.001247
H92	H	-0.137558	1.192712	-1.028993
H93	H	-0.744006	1.196012	-0.222208
H94	H	-0.472555	1.148781	-0.269184
H95	H	-0.164256	1.148936	-0.785215
H96	H	-0.268503	0.978038	-0.785123
H97	H	-0.472602	0.977892	-0.439820
H98	H	-0.387480	0.977843	-0.439795
H99	H	-0.603259	1.195935	-0.222182
H100	H	-0.688365	1.195983	-0.222198
H101	H	-0.164388	0.633570	-0.440060
N102	N	-0.954983	1.158775	-0.259501
N103	N	-0.975930	1.200822	-0.217523
H104	H	-0.959009	1.234791	-0.183587
N105	N	-1.049827	1.158814	-0.259531
N106	N	-1.091718	1.158820	-0.259549
H107	H	-1.108644	1.192796	-0.225635
N108	N	-1.049848	0.968409	-0.449641
N109	N	-1.028901	0.926359	-0.491616
H110	H	-1.045822	0.892382	-0.525545
H111	H	-0.959881	0.978139	-0.439895
N112	N	-0.833988	1.205806	-0.212486
N113	N	-0.875879	1.205813	-0.212507
H114	H	-0.892805	1.239787	-0.178590
H115	H	-0.268488	0.978053	-0.924565
H116	H	-0.688415	0.930920	-0.486888
N117	N	-0.598452	0.921130	-0.496630
N118	N	-0.619414	0.879104	-0.538617
H119	H	-0.602506	0.845122	-0.572550
H120	H	-0.744064	0.930953	-0.486884
N121	N	-0.834028	0.921233	-0.496645
N122	N	-0.813081	0.879183	-0.538620
H123	H	-0.830002	0.845212	-0.572555
