data_functionalizedCrystal
_audit_creation_method	'MofGen! by Chris Wilmer'
_symmetry_space_group_name_H-M	'P1'
_symmetry_Int_Tables_number	1
_symmetry_cell_setting	triclinic
loop_
_symmetry_equiv_pos_as_xyz
  x,y,z
_cell_length_a	14.519709
_cell_length_b	14.519709
_cell_length_c	10.065875
_cell_angle_alpha	98.804604
_cell_angle_beta	81.242070
_cell_angle_gamma	83.680145
loop_
_atom_site_label
_atom_site_type_symbol
_atom_site_fract_x
_atom_site_fract_y
_atom_site_fract_z
O1	O	1.237318	0.107379	-0.113316
O2	O	1.737318	0.607379	0.386684
O3	O	0.968846	0.121610	-0.113358
O4	O	1.468846	0.621610	0.386642
O5	O	1.110198	-0.019742	-0.113324
O6	O	1.610198	0.480258	0.386676
O7	O	1.095965	0.248731	-0.113351
O8	O	1.595965	0.748731	0.386649
O9	O	1.083244	0.007320	0.113658
O10	O	1.583244	0.507320	0.613658
O11	O	0.941892	0.148673	0.113624
O12	O	1.441892	0.648673	0.613624
O13	O	1.210364	0.134441	0.113666
O14	O	1.710364	0.634441	0.613666
Zn15	Zn	1.071848	0.145854	0.149683
Zn16	Zn	1.571848	0.645854	0.649683
Zn17	Zn	1.107361	0.110198	-0.149376
Zn18	Zn	1.607361	0.610198	0.350624
O19	O	1.069011	0.275794	0.113631
O20	O	1.569011	0.775794	0.613631
C21	C	0.921010	0.134477	0.000127
C22	C	1.421010	0.634477	0.500127
C23	C	0.818630	0.132487	0.000112
C24	C	1.318630	0.632487	0.500112
C25	C	0.443727	0.125175	0.000175
C26	C	0.943727	0.625175	0.500175
C27	C	0.548037	0.127206	0.000157
C28	C	1.048037	0.627206	0.500157
C29	C	0.631175	0.128831	0.000142
C30	C	1.131175	0.628831	0.500142
C31	C	0.735492	0.130862	0.000127
C32	C	1.235492	0.630862	0.500127
C33	C	1.096058	-0.040571	0.000167
C34	C	1.596058	0.459429	0.500167
C35	C	1.094070	-0.142952	0.000168
C36	C	1.594070	0.357048	0.500168
C37	C	1.086754	-0.517852	0.000131
C38	C	1.586754	-0.017852	0.500131
C39	C	1.088786	-0.413543	0.000142
C40	C	1.588786	0.086457	0.500142
C41	C	1.090412	-0.330405	0.000151
C42	C	1.590412	0.169595	0.500151
C43	C	1.092444	-0.226090	0.000159
C44	C	1.592444	0.273910	0.500159
C45	C	1.258200	0.121574	0.000177
C46	C	1.758200	0.621574	0.500177
C47	C	1.360581	0.123563	0.000184
C48	C	1.860581	0.623563	0.500184
C49	C	1.083152	0.296622	0.000137
C50	C	1.583152	0.796622	0.500137
C51	C	1.085141	0.399002	0.000128
C52	C	1.585141	0.899002	0.500128
N53	N	1.047618	0.170187	0.353783
N54	N	1.547618	0.670187	0.853783
N55	N	1.131598	0.085857	-0.353475
N56	N	1.631598	0.585857	0.146525
C57	C	1.098925	0.118658	0.421574
C58	C	1.598925	0.618658	0.921574
C59	C	1.080284	0.137393	0.578737
C60	C	1.580284	0.637393	1.078737
H61	H	1.156648	0.060669	0.363264
H62	H	1.656648	0.560669	0.863264
H63	H	1.022551	0.195380	0.637044
H64	H	1.522551	0.695380	1.137044
O65	O	1.200292	0.016570	0.576767
O66	O	1.700292	0.516570	1.076767
C67	C	1.281197	-0.065579	0.356522
C68	C	1.781197	0.434421	0.856522
C69	C	1.203501	0.013040	0.435350
C70	C	1.703501	0.513040	0.935350
H71	H	1.283804	-0.068471	0.242173
H72	H	1.783804	0.431529	0.742173
H73	H	1.351989	-0.050574	0.384219
H74	H	1.851989	0.449426	0.884219
H75	H	1.265271	-0.135946	0.384832
H76	H	1.765271	0.364054	0.884832
H77	H	1.219337	0.083440	0.407083
H78	H	1.719337	0.583440	0.907083
H79	H	1.132734	-0.002046	0.407647
H80	H	1.632734	0.497954	0.907647
H81	H	0.989889	0.228170	0.412095
H82	H	1.489889	0.728170	0.912095
