data_functionalizedCrystal
_audit_creation_method	'MofGen! by Chris Wilmer'
_symmetry_space_group_name_H-M	'P1'
_symmetry_Int_Tables_number	1
_symmetry_cell_setting	triclinic
loop_
_symmetry_equiv_pos_as_xyz
  x,y,z
_cell_length_a	14.044220
_cell_length_b	19.288865
_cell_length_c	18.366186
_cell_angle_alpha	89.987206
_cell_angle_beta	89.993826
_cell_angle_gamma	91.837437
loop_
_atom_site_label
_atom_site_type_symbol
_atom_site_fract_x
_atom_site_fract_y
_atom_site_fract_z
O1	O	1.256984	-0.167415	0.060488
O2	O	0.981040	-0.161373	0.060506
O3	O	1.126986	-0.063776	0.060482
O4	O	1.111039	-0.265012	0.060512
O5	O	1.126989	-0.063766	-0.060617
O6	O	0.981044	-0.161363	-0.060593
O7	O	1.256987	-0.167404	-0.060611
Zn8	Zn	1.119016	-0.164382	-0.079829
Zn9	Zn	1.119012	-0.164396	0.079724
O10	O	1.111042	-0.265002	-0.060587
C11	C	0.945739	-0.158724	-0.000041
C12	C	0.840547	-0.150836	-0.000035
N13	N	1.119009	-0.164400	0.188616
C14	C	1.126474	-0.037862	-0.000069
C15	C	1.124934	0.039341	-0.000076
C16	C	0.647947	-0.136416	-0.000052
C17	C	0.590075	-0.192359	-0.000047
C18	C	0.482906	-0.184335	-0.000056
C19	C	0.755126	-0.144438	-0.000043
C20	C	1.292289	-0.170054	-0.000062
C21	C	1.397481	-0.177942	-0.000063
C22	C	1.111554	-0.290916	-0.000034
C23	C	1.113094	-0.368119	-0.000023
C24	C	1.210568	0.078535	-0.000085
C25	C	1.209121	0.151075	-0.000073
C26	C	1.122035	0.184418	-0.000067
C27	C	1.036390	0.145215	-0.000054
C28	C	1.037839	0.072676	-0.000058
C29	C	1.053576	0.297108	-0.042481
C30	C	1.052130	0.369645	-0.042481
C31	C	1.117560	0.408151	-0.000051
C32	C	1.184453	0.374112	0.042371
C33	C	1.185902	0.301573	0.042367
C34	C	1.120453	0.263074	-0.000062
C35	C	1.201631	0.526002	-0.000046
C36	C	1.200181	0.598543	-0.000030
C37	C	1.027447	0.592681	-0.000018
C38	C	1.028900	0.520142	-0.000027
C39	C	1.115995	0.486806	-0.000044
N40	N	1.119026	-0.164373	-0.188720
C41	C	1.183748	-0.121283	0.226705
C42	C	1.183757	-0.121282	0.302933
C43	C	1.119009	-0.164390	0.341068
C44	C	1.054265	-0.207515	0.302969
C45	C	1.054265	-0.207520	0.226743
C46	C	1.032667	-0.167987	0.461842
C47	C	1.032666	-0.167978	0.538067
C48	C	1.119010	-0.164380	0.576176
C49	C	1.205359	-0.160777	0.538051
C50	C	1.205359	-0.160781	0.461824
C51	C	1.119003	-0.164390	0.423723
C52	C	1.183764	-0.121260	0.696921
C53	C	1.183773	-0.121264	0.773150
C54	C	1.054273	-0.207493	0.773184
C55	C	1.054272	-0.207493	0.696957
C56	C	1.119016	-0.164373	0.658829
H57	H	0.621016	-0.246280	-0.000035
H58	H	1.281487	0.051398	-0.000097
H59	H	1.001551	-0.242600	0.665942
H60	H	0.617008	-0.082499	-0.000064
Cl61	Cl	1.316783	0.200358	-0.000084
Cl62	Cl	1.269985	0.258782	0.095699
Cl63	Cl	1.266712	0.422511	0.095718
Cl64	Cl	1.311119	0.484091	-0.000072
Cl65	Cl	0.972884	-0.261692	0.821120
Cl66	Cl	1.307845	0.647817	-0.000036
H67	H	1.236477	-0.086170	0.333952
H68	H	0.956540	0.619828	-0.000009
H69	H	0.968103	0.040764	-0.000051
Cl70	Cl	1.265144	-0.067080	0.178774
H71	H	0.959167	0.488229	-0.000023
H72	H	0.997659	0.397354	-0.077019
H73	H	1.001546	-0.242632	0.195730
Cl74	Cl	1.313907	-0.156259	0.413898
H75	H	1.000293	0.265762	-0.077037
Cl76	Cl	0.926910	0.187131	-0.000040
Cl77	Cl	1.313914	-0.156248	0.585950
Cl78	Cl	1.265161	-0.067056	0.648988
H79	H	1.236497	-0.086155	0.804163
Cl80	Cl	0.924116	-0.172569	0.585988
Cl81	Cl	0.924108	-0.172514	0.413941
Cl82	Cl	0.972872	-0.261712	0.350909
