data_functionalizedCrystal
_audit_creation_method	'MofGen! by Chris Wilmer'
_symmetry_space_group_name_H-M	'P1'
_symmetry_Int_Tables_number	1
_symmetry_cell_setting	triclinic
loop_
_symmetry_equiv_pos_as_xyz
  x,y,z
_cell_length_a	18.101398
_cell_length_b	25.639239
_cell_length_c	18.101390
_cell_angle_alpha	89.965056
_cell_angle_beta	89.975319
_cell_angle_gamma	90.033952
loop_
_atom_site_label
_atom_site_type_symbol
_atom_site_fract_x
_atom_site_fract_y
_atom_site_fract_z
Zn1	Zn	1.132085	-0.208197	-0.418828
Zn2	Zn	1.131963	-0.295640	-0.294982
Zn3	Zn	1.008243	-0.208214	-0.294989
Zn4	Zn	1.008178	-0.295596	-0.418771
O5	O	1.070117	-0.251912	-0.356893
O6	O	1.235701	-0.219808	-0.402421
O7	O	1.115528	-0.284069	-0.191350
O8	O	1.024749	-0.135046	-0.311444
O9	O	1.235612	-0.284052	-0.311432
O10	O	1.115735	-0.135034	-0.402428
O11	O	1.024631	-0.219836	-0.191356
O12	O	0.904601	-0.219793	-0.311388
O13	O	1.024638	-0.283977	-0.522411
O14	O	0.904554	-0.283993	-0.402330
O15	O	1.115672	-0.219765	-0.522454
O16	O	1.115465	-0.368800	-0.311376
O17	O	1.024520	-0.368767	-0.402323
C18	C	0.877707	-0.251890	-0.356854
C19	C	0.795393	-0.251894	-0.356855
C20	C	0.496302	-0.251927	-0.356917
C21	C	0.527632	-0.211332	-0.299978
C22	C	0.613250	-0.211441	-0.299735
C23	C	0.644684	-0.251910	-0.356886
C24	C	0.613555	-0.306988	-0.335559
C25	C	0.527910	-0.306762	-0.335163
C26	C	0.527919	-0.237922	-0.435317
C27	C	0.613570	-0.236696	-0.434890
C28	C	0.728544	-0.251904	-0.356870
C29	C	0.412442	-0.251936	-0.356932
C30	C	1.069993	-0.387754	-0.356859
C31	C	1.070007	-0.445868	-0.356869
C32	C	1.117596	-0.806236	-0.309617
C33	C	1.117624	-0.860840	-0.309627
O34	O	1.157957	-0.889081	-0.269415
N35	N	1.070247	-0.888151	-0.356942
C36	C	1.022844	-0.860854	-0.404255
O37	O	0.982549	-0.889098	-0.444501
C38	C	1.022819	-0.806251	-0.404248
C39	C	1.070194	-0.778943	-0.356925
C40	C	1.164967	-0.778928	-0.262299
C41	C	1.164937	-0.724327	-0.262288
C42	C	1.117536	-0.697035	-0.309596
C43	C	1.070164	-0.724343	-0.356914
C44	C	0.975420	-0.778955	-0.451564
C45	C	0.975400	-0.724348	-0.451554
C46	C	1.022775	-0.697041	-0.404231
C47	C	1.022733	-0.642449	-0.404212
N48	N	1.070110	-0.615139	-0.356897
C49	C	1.117511	-0.642431	-0.309589
C50	C	1.022900	-0.975525	-0.404266
C51	C	1.022920	-1.030127	-0.404270
C52	C	1.117701	-1.030109	-0.309643
C53	C	1.117677	-0.975506	-0.309636
C54	C	1.070277	-0.948214	-0.356952
C55	C	1.117445	-0.527766	-0.309570
C56	C	1.117408	-0.473161	-0.309561
C57	C	1.022630	-0.473184	-0.404190
C58	C	1.022663	-0.527784	-0.404197
C59	C	1.070076	-0.555074	-0.356884
O60	O	0.982424	-0.614174	-0.444406
O61	O	1.157806	-0.614181	-0.269357
C62	C	1.263279	-0.251933	-0.356932
C63	C	1.345593	-0.251943	-0.356949
C64	C	1.070161	-0.251864	-0.550055
C65	C	1.070180	-0.251844	-0.632369
C66	C	1.070262	-0.115539	-0.356943
C67	C	1.070324	-0.057425	-0.356964
C68	C	1.070220	-0.251811	-0.931460
C69	C	1.127684	-0.211553	-0.900161
C70	C	1.127505	-0.211403	-0.814543
C71	C	1.070201	-0.251827	-0.783077
C72	C	0.992187	-0.236853	-0.814145
C73	C	0.992531	-0.236551	-0.899790
C74	C	1.090082	-0.307147	-0.899871
C75	C	1.091794	-0.306865	-0.814221
C76	C	1.070185	-0.251837	-0.699218
C77	C	1.070230	-0.251800	-1.015320
C78	C	1.070116	-0.251921	-0.164482
C79	C	1.070241	-0.251794	-0.082169
H80	H	0.634968	-0.319069	-0.278864
N81	N	0.969472	-0.183865	-0.785762
H82	H	0.922082	-0.187165	-0.756655
H83	H	1.009640	-0.169514	-0.752818
N84	N	0.971506	-0.443736	-0.455208
H85	H	1.001578	-0.421044	-0.489548
H86	H	0.941504	-0.469349	-0.485141
H87	H	0.507657	-0.267490	-0.477742
N88	N	1.167840	-0.321825	-0.787323
H89	H	1.164633	-0.355176	-0.757771
H90	H	1.201570	-0.327217	-0.831113
H91	H	0.936839	-0.801180	-0.490096
N92	N	0.499355	-0.185650	-0.461009
H93	H	0.465625	-0.170517	-0.422082
H94	H	0.542333	-0.161238	-0.469540
N95	N	1.040380	-0.348738	-0.785869
H96	H	1.069660	-0.375584	-0.757420
H97	H	1.002198	-0.332513	-0.752312
H98	H	0.936802	-0.702130	-0.490086
H99	H	0.634299	-0.170599	-0.313104
N100	N	0.971565	-0.557242	-0.455232
H101	H	0.937276	-0.579938	-0.425108
H102	H	0.941580	-0.531632	-0.485187
N103	N	1.204103	-0.223907	-0.786714
H104	H	1.238293	-0.229556	-0.830082
H105	H	1.222937	-0.193950	-0.755784
H106	H	1.185723	-0.220815	-0.920768
N107	N	0.640350	-0.223701	-0.222785
H108	H	0.596659	-0.229059	-0.188892
H109	H	0.671215	-0.256491	-0.224005
N110	N	1.034644	-0.346882	-0.926674
H111	H	0.996843	-0.329155	-0.959120
H112	H	1.060984	-0.374773	-0.955941
N113	N	0.640524	-0.183006	-0.456187
H114	H	0.696293	-0.182857	-0.457951
H115	H	0.620286	-0.173464	-0.506391
N116	N	0.501391	-0.322492	-0.259247
H117	H	0.545336	-0.329506	-0.226353
H118	H	0.470768	-0.293397	-0.237453
H119	H	0.984294	-0.953306	-0.442794
H120	H	1.155987	-0.450929	-0.271023
H121	H	0.507069	-0.170365	-0.313200
H122	H	1.156254	-0.953275	-0.271102
N123	N	0.970222	-0.182973	-0.926279
H124	H	0.960259	-0.159773	-0.882320
H125	H	1.011431	-0.167530	-0.956929
N126	N	1.168838	-1.059550	-0.258622
H127	H	1.157366	-1.050085	-0.205694
H128	H	1.161641	-1.098274	-0.265875
H129	H	0.507183	-0.338032	-0.374826
N130	N	1.110495	-0.157553	-0.928683
H131	H	1.065647	-0.159054	-0.961790
H132	H	1.100266	-0.133567	-0.885644
H133	H	1.114359	-0.170410	-0.794071
N134	N	0.640493	-0.348126	-0.388787
H135	H	0.673216	-0.331416	-0.427327
H136	H	0.669496	-0.375407	-0.360895
N137	N	1.168576	-0.557200	-0.258540
H138	H	1.221477	-0.547654	-0.270090
H139	H	1.157031	-0.547718	-0.205636
N140	N	1.216045	-0.694878	-0.211258
H141	H	1.246079	-0.720460	-0.181299
H142	H	1.250288	-0.672189	-0.241443
H143	H	0.948260	-0.264597	-0.920492
N144	N	0.498809	-0.223427	-0.223569
H145	H	0.514891	-0.259630	-0.208577
H146	H	0.519069	-0.197151	-0.187291
N147	N	0.641909	-0.273005	-0.494102
H148	H	0.675467	-0.299953	-0.471099
H149	H	0.598817	-0.291018	-0.518693
N150	N	1.216098	-0.808360	-0.211271
H151	H	1.246099	-0.782767	-0.181299
H152	H	1.185984	-0.831049	-0.176968
N153	N	0.933924	-0.274490	-0.787146
H154	H	0.946564	-0.310919	-0.804156
H155	H	0.931973	-0.273607	-0.731400
N156	N	0.971810	-1.059578	-0.455298
H157	H	0.941779	-1.033997	-0.485261
H158	H	1.001941	-1.082195	-0.489609
N159	N	1.164142	-0.325187	-0.928498
H160	H	1.203651	-0.299628	-0.912934
H161	H	1.175732	-0.360766	-0.907536
