data_functionalizedCrystal
_audit_creation_method	'MofGen! by Chris Wilmer'
_symmetry_space_group_name_H-M	'P1'
_symmetry_Int_Tables_number	1
_symmetry_cell_setting	triclinic
loop_
_symmetry_equiv_pos_as_xyz
  x,y,z
_cell_length_a	9.730223
_cell_length_b	17.699083
_cell_length_c	17.699083
_cell_angle_alpha	83.283015
_cell_angle_beta	89.997786
_cell_angle_gamma	90.005831
loop_
_atom_site_label
_atom_site_type_symbol
_atom_site_fract_x
_atom_site_fract_y
_atom_site_fract_z
O1	O	0.114100	-1.004071	-0.095708
O2	O	0.114145	-0.783693	-0.108160
O3	O	0.114109	-0.900109	0.008255
O4	O	0.114136	-0.887656	-0.212123
O5	O	-0.114471	-0.900107	0.008252
O6	O	-0.114435	-0.783692	-0.108163
O7	O	-0.114480	-1.004070	-0.095711
Zn8	Zn	-0.150749	-0.893881	-0.101938
Zn9	Zn	0.150415	-0.893882	-0.101934
O10	O	-0.114444	-0.887655	-0.212126
C11	C	-0.000139	-0.755495	-0.107716
C12	C	-0.000122	-0.671477	-0.106377
N13	N	-0.356286	-0.893885	-0.101940
C14	C	-0.000181	-0.899662	0.036451
C15	C	-0.000181	-0.898323	0.120469
C16	C	-0.428228	-0.945447	-0.050408
C17	C	-0.572111	-0.945445	-0.050399
C18	C	-0.572097	-0.842317	-0.153459
C19	C	-0.428217	-0.842316	-0.153464
C20	C	-0.356297	-0.997016	0.001116
C21	C	-0.428239	-1.048583	0.052652
C22	C	-0.572122	-1.048581	0.052661
C23	C	-0.644063	-0.997012	0.001135
N24	N	0.355951	-0.893884	-0.101926
C25	C	-0.000193	-1.032268	-0.096156
C26	C	-0.000201	-1.116286	-0.097494
C27	C	-0.000114	-0.622856	-0.174710
C28	C	-0.000132	-0.543913	-0.173448
C29	C	-0.000148	-0.513592	-0.103852
C30	C	-0.000160	-0.562219	-0.035513
C31	C	-0.000152	-0.641161	-0.036776
C32	C	-0.000195	-0.243856	-0.030418
C33	C	-0.000199	-0.164908	-0.029160
C34	C	-0.000175	-0.146608	-0.167090
C35	C	-0.000167	-0.225550	-0.168353
C36	C	-0.000186	-0.274170	-0.100015
C37	C	-0.000169	-0.359769	-0.101384
C38	C	-0.000155	-0.427995	-0.102481
C39	C	-0.000151	-0.888102	-0.240322
C40	C	-0.000142	-0.889440	-0.324340
C41	C	-0.000197	-0.966656	0.169090
C42	C	-0.000185	-0.965394	0.248033
C43	C	-0.000166	-0.895798	0.278354
C44	C	-0.000146	-0.827459	0.229727
C45	C	-0.000149	-0.828722	0.150785
C46	C	-0.000134	-0.822364	0.548090
C47	C	-0.000135	-0.821106	0.627038
C48	C	-0.000170	-0.959036	0.645338
C49	C	-0.000173	-0.960299	0.566396
C50	C	-0.000145	-0.891961	0.517776
C51	C	-0.000156	-0.893330	0.432177
C52	C	-0.000165	-0.894427	0.363951
H53	H	-0.239140	-0.997024	0.001112
H54	H	-0.630680	-0.800333	-0.195411
N55	N	-0.000171	-0.529526	0.039556
H56	H	-0.084910	-0.547273	0.069485
H57	H	-0.000117	-0.472144	0.029931
N58	N	-0.000092	-0.746036	0.659740
H59	H	-0.000099	-0.755609	0.717127
H60	H	-0.084816	-0.716133	0.641947
H61	H	-0.000100	-0.647537	-0.231384
N62	N	-0.000216	-0.296282	0.043292
H63	H	0.084513	-0.286536	0.073663
H64	H	-0.000269	-0.350873	0.031881
H65	H	-0.000185	-1.014680	0.684934
N66	N	-0.350651	-1.104201	0.108220
H67	H	-0.418063	-1.136864	0.140868
H68	H	-0.290941	-1.075294	0.141642
H69	H	-0.630696	-1.090563	0.094627
H70	H	-0.761222	-0.997010	0.001152
N71	N	-0.000110	-0.748660	0.495655
H72	H	-0.000105	-0.704382	0.526845
H73	H	-0.084846	-0.746178	0.462504
H74	H	-0.000166	-0.107012	-0.222734
N75	N	-0.000218	-0.132203	0.045908
H76	H	-0.000233	-0.174982	0.089009
H77	H	-0.084957	-0.099852	0.049427
H78	H	-0.000122	-0.770792	0.254420
H79	H	-0.000135	-0.773078	0.111198
N80	N	-0.000171	-0.693606	0.036926
H81	H	-0.000181	-0.662421	0.081207
H82	H	0.084566	-0.726754	0.039411
H83	H	-0.369641	-0.800329	-0.195425
H84	H	-0.000201	-1.021038	0.287618
H85	H	-0.000124	-0.504328	-0.229092
H86	H	-0.000221	-1.023330	0.144409
N87	N	-0.000131	-0.258253	-0.243417
H88	H	-0.000128	-0.215472	-0.286516
H89	H	-0.084862	-0.290617	-0.246949
H90	H	-0.000194	-1.016971	0.541714
