data_functionalizedCrystal
_audit_creation_method	'MofGen! by Chris Wilmer'
_symmetry_space_group_name_H-M	'P1'
_symmetry_Int_Tables_number	1
_symmetry_cell_setting	triclinic
loop_
_symmetry_equiv_pos_as_xyz
  x,y,z
_cell_length_a	19.288864
_cell_length_b	19.288859
_cell_length_c	17.766277
_cell_angle_alpha	89.993887
_cell_angle_beta	89.976791
_cell_angle_gamma	83.134986
loop_
_atom_site_label
_atom_site_type_symbol
_atom_site_fract_x
_atom_site_fract_y
_atom_site_fract_z
O1	O	0.921351	0.086649	-0.062835
O2	O	1.421351	0.586649	0.437165
O3	O	0.719090	0.098338	-0.062784
O4	O	1.219090	0.598338	0.437216
O5	O	0.826067	-0.008637	-0.062806
O6	O	1.326067	0.491363	0.437194
O7	O	0.814374	0.193624	-0.062812
O8	O	1.314374	0.693624	0.437188
O9	O	0.826049	-0.008643	0.062382
O10	O	1.326049	0.491357	0.562382
O11	O	0.719072	0.098332	0.062405
O12	O	1.219072	0.598332	0.562405
O13	O	0.921332	0.086644	0.062353
O14	O	1.421332	0.586644	0.562353
Cu15	Cu	0.820200	0.092487	0.073810
Cu16	Cu	1.320200	0.592487	0.573810
Cu17	Cu	0.820222	0.092494	-0.074240
Cu18	Cu	1.320222	0.592494	0.425760
O19	O	0.814355	0.193619	0.062376
O20	O	1.314355	0.693619	0.562376
C21	C	0.693204	0.097959	-0.000183
C22	C	1.193204	0.597959	0.499817
C23	C	0.616101	0.096830	-0.000163
C24	C	1.116101	0.596830	0.499837
C25	C	0.571403	0.159598	-0.000177
C26	C	1.071403	0.659598	0.499823
C27	C	0.498956	0.158537	-0.000185
C28	C	0.998956	0.658537	0.499815
C29	C	0.471210	0.094705	-0.000195
C30	C	0.971210	0.594705	0.499805
C31	C	0.515918	0.031929	-0.000177
C32	C	1.015918	0.531929	0.499823
C33	C	0.588363	0.032991	-0.000161
C34	C	1.088363	0.532991	0.499839
C35	C	0.362956	0.044528	-0.044078
C36	C	0.862956	0.544528	0.455922
C37	C	0.290511	0.043468	-0.044098
C38	C	0.790511	0.543468	0.455902
C39	C	0.247765	0.091425	-0.000240
C40	C	0.747765	0.591425	0.499760
C41	C	0.277470	0.140455	0.043629
C42	C	0.777470	0.640455	0.543629
C43	C	0.349915	0.141517	0.043644
C44	C	0.849915	0.641517	0.543644
C45	C	0.392656	0.093546	-0.000211
C46	C	0.892656	0.593546	0.499789
C47	C	0.124511	0.153048	-0.000262
C48	C	0.624511	0.653048	0.499738
C49	C	0.052063	0.151984	-0.000265
C50	C	0.552063	0.651984	0.499735
C51	C	0.069026	0.025374	-0.000265
C52	C	0.569026	0.525374	0.499735
C53	C	0.141472	0.026439	-0.000254
C54	C	0.641472	0.526439	0.499746
C55	C	0.169210	0.090278	-0.000256
C56	C	0.669210	0.590278	0.499744
C57	C	0.825682	-0.034516	-0.000213
C58	C	1.325682	0.465484	0.499787
C59	C	0.824555	-0.111620	-0.000214
C60	C	1.324555	0.388380	0.499786
C61	C	0.879698	-0.675661	-0.000248
C62	C	1.379698	-0.175661	0.499752
C63	C	0.880764	-0.603214	-0.000241
C64	C	1.380764	-0.103214	0.499759
C65	C	0.817994	-0.558508	-0.000225
C66	C	1.317994	-0.058508	0.499775
C67	C	0.754155	-0.586253	-0.000197
C68	C	1.254155	-0.086253	0.499803
C69	C	0.753092	-0.658698	-0.000196
C70	C	1.253092	-0.158698	0.499804
C71	C	0.771188	-0.437232	-0.044071
C72	C	1.271188	0.062768	0.455929
C73	C	0.772254	-0.364788	-0.044077
C74	C	1.272254	0.135212	0.455923
C75	C	0.821272	-0.335062	-0.000225
C76	C	1.321272	0.164938	0.499775
C77	C	0.869235	-0.377789	0.043622
C78	C	1.369235	0.122211	0.543622
C79	C	0.868172	-0.450235	0.043623
C80	C	1.368172	0.049765	0.543623
C81	C	0.819141	-0.479952	-0.000226
C82	C	1.319141	0.020048	0.499774
C83	C	0.886262	-0.228770	-0.000242
C84	C	1.386262	0.271230	0.499758
C85	C	0.887325	-0.156322	-0.000231
C86	C	1.387325	0.343678	0.499769
C87	C	0.760715	-0.139362	-0.000194
C88	C	1.260715	0.360638	0.499806
C89	C	0.759654	-0.211809	-0.000197
C90	C	1.259654	0.288191	0.499803
C91	C	0.822430	-0.256509	-0.000225
C92	C	1.322430	0.243491	0.499775
C93	C	0.947218	0.087022	-0.000249
C94	C	1.447218	0.587022	0.499751
C95	C	1.024322	0.088151	-0.000274
C96	C	1.524322	0.588151	0.499726
C97	C	0.814740	0.219498	-0.000219
C98	C	1.314740	0.719498	0.499781
C99	C	0.815868	0.296602	-0.000223
C100	C	1.315868	0.796602	0.499777
N101	N	0.820190	0.092483	0.177940
N102	N	1.320190	0.592483	0.677940
N103	N	0.820238	0.092493	-0.178370
N104	N	1.320238	0.592493	0.321630
C105	C	0.867574	0.045137	0.217317
C106	C	1.367574	0.545137	0.717317
C107	C	0.867578	0.045134	0.296119
C108	C	1.367578	0.545134	0.796119
C109	C	0.820204	0.092488	0.335541
C110	C	1.320204	0.592488	0.835541
C111	C	0.772811	0.139837	0.296154
C112	C	1.272811	0.639837	0.796154
C113	C	0.772804	0.139834	0.217354
C114	C	1.272804	0.639834	0.717354
C115	C	0.810904	0.155776	0.460378
C116	C	1.310904	0.655776	0.960378
C117	C	0.810916	0.155780	0.539177
C118	C	1.310916	0.655780	1.039177
C119	C	0.820223	0.092496	0.578587
C120	C	1.320223	0.592496	1.078587
C121	C	0.829532	0.029207	0.539188
C122	C	1.329532	0.529207	1.039188
C123	C	0.829525	0.029204	0.460388
C124	C	1.329525	0.529204	0.960388
C125	C	0.820207	0.092496	0.420986
C126	C	1.320207	0.592496	0.920986
C127	C	0.867615	0.045144	0.703410
C128	C	1.367615	0.545144	1.203410
C129	C	0.867614	0.045139	0.782213
C130	C	1.367614	0.545139	1.282213
C131	C	0.772849	0.139849	0.782247
C132	C	1.272849	0.639849	1.282247
C133	C	0.772847	0.139847	0.703445
C134	C	1.272847	0.639847	1.203445
C135	C	0.820233	0.092495	0.664031
C136	C	1.320233	0.592495	1.164031
H137	H	0.462556	0.209652	-0.000194
H138	H	0.962556	0.709652	0.499806
Br139	Br	0.931921	-0.019121	0.649917
Br140	Br	1.431921	0.480879	1.149917
H141	H	0.177866	-0.024674	-0.000247
H142	H	0.677866	0.475326	0.499753
H143	H	0.837110	-0.022324	0.571274
H144	H	1.337110	0.477676	1.071274
H145	H	0.906157	0.006579	0.185228
H146	H	1.406157	0.506579	0.685228
Br147	Br	0.668967	-0.525581	-0.000168
Br148	Br	1.168967	-0.025581	0.499832
H149	H	0.939306	-0.133741	-0.000246
H150	H	1.439306	0.366259	0.499754
Br151	Br	0.931920	-0.019126	0.835658
Br152	Br	1.431920	0.480874	1.335658
H153	H	0.493322	-0.020044	-0.000195
H154	H	0.993322	0.479956	0.499805
H155	H	0.837103	-0.022328	0.428313
H156	H	1.337103	0.477672	0.928313
H157	H	0.932744	-0.580626	-0.000261
H158	H	1.432744	-0.080626	0.499739
Br159	Br	-0.008601	0.237177	-0.000277
Br160	Br	0.491399	0.737177	0.499723
H161	H	0.701111	-0.681280	-0.000174
H162	H	1.201111	-0.181280	0.499826
H163	H	0.709607	-0.102962	-0.000175
H164	H	1.209607	0.397038	0.499825
Br165	Br	0.931891	-0.019127	0.349568
Br166	Br	1.431891	0.480873	0.849568
Br167	Br	0.390228	0.208051	0.103179
Br168	Br	0.890228	0.708051	0.603179
Br169	Br	0.649029	-0.052201	-0.000141
Br170	Br	1.149029	0.447799	0.499859
Br171	Br	0.933258	-0.508220	0.103131
Br172	Br	1.433258	-0.008220	0.603131
Br173	Br	0.708548	0.204108	0.835742
Br174	Br	1.208548	0.704108	1.335742
H175	H	0.242666	0.179506	0.079343
H176	H	0.742666	0.679506	0.579343
H177	H	0.909146	-0.353588	0.079336
H178	H	1.409146	0.146412	0.579336
Br179	Br	0.162160	0.239684	-0.000259
Br180	Br	0.662160	0.739684	0.499741
H181	H	0.734265	0.178403	0.671383
H182	H	1.234265	0.678403	1.171383
H183	H	0.731263	-0.461427	-0.079775
H184	H	1.231263	0.038573	0.420225
H185	H	0.593982	0.211581	-0.000180
H186	H	1.093982	0.711581	0.499820
H187	H	0.046436	-0.026600	-0.000319
H188	H	0.546436	0.473400	0.499681
Br189	Br	0.798291	0.241671	0.592639
Br190	Br	1.298291	0.741671	1.092639
H191	H	0.266331	0.003548	-0.079822
H192	H	0.766331	0.503548	0.420178
H193	H	0.397755	0.005473	-0.079797
H194	H	0.897755	0.505473	0.420203
H195	H	0.803314	0.207312	0.428297
H196	H	1.303314	0.707312	0.928297
H197	H	0.930816	-0.712052	-0.000266
H198	H	1.430816	-0.212052	0.499734
Br199	Br	0.708512	0.204099	0.349653
Br200	Br	1.208512	0.704099	0.849653
Br201	Br	0.708490	0.204093	0.163909
Br202	Br	1.208490	0.704093	0.663909
H203	H	0.937378	-0.265167	-0.000264
H204	H	1.437378	0.234833	0.499736
H205	H	0.707676	-0.234392	-0.000183
H206	H	1.207676	0.265608	0.499817
H207	H	0.733203	-0.330005	-0.079784
H208	H	1.233203	0.169995	0.420216
