data_functionalizedCrystal
_audit_creation_method	'MofGen! by Chris Wilmer'
_symmetry_space_group_name_H-M	'P1'
_symmetry_Int_Tables_number	1
_symmetry_cell_setting	triclinic
loop_
_symmetry_equiv_pos_as_xyz
  x,y,z
_cell_length_a	10.489741
_cell_length_b	11.026607
_cell_length_c	10.065875
_cell_angle_alpha	100.731764
_cell_angle_beta	81.165139
_cell_angle_gamma	96.562595
loop_
_atom_site_label
_atom_site_type_symbol
_atom_site_fract_x
_atom_site_fract_y
_atom_site_fract_z
O1	O	1.746374	0.153857	-0.113403
O2	O	2.246374	0.653857	0.386597
O3	O	1.378724	0.169957	-0.113423
O4	O	1.878724	0.669957	0.386577
O5	O	1.532078	-0.015012	-0.113410
O6	O	2.032078	0.484988	0.386590
O7	O	1.593020	0.338826	-0.113416
O8	O	2.093020	0.838826	0.386584
O9	O	1.502868	0.020402	0.113576
O10	O	2.002868	0.520402	0.613576
O11	O	1.349514	0.205370	0.113563
O12	O	1.849514	0.705370	0.613563
O13	O	1.717165	0.189271	0.113584
O14	O	2.217165	0.689271	0.613584
Zn15	Zn	1.528702	0.202943	0.149612
Zn16	Zn	2.028702	0.702943	0.649612
Zn17	Zn	1.567187	0.156284	-0.149452
Zn18	Zn	2.067187	0.656284	0.350548
O19	O	1.563810	0.374239	0.113570
O20	O	2.063810	0.874239	0.613570
C21	C	1.506231	-0.042615	0.000081
C22	C	2.006231	0.457385	0.500081
C23	C	1.472717	-0.177623	0.000074
C24	C	1.972717	0.322377	0.500074
C25	C	1.316320	0.186447	0.000067
C26	C	1.816320	0.686447	0.500067
C27	C	1.173891	0.182807	0.000059
C28	C	1.673891	0.682807	0.500059
C29	C	1.565256	-0.250619	0.000078
C30	C	2.065256	0.249381	0.500078
C31	C	1.530620	-0.390157	0.000071
C32	C	2.030620	0.109843	0.500071
C33	C	1.079860	0.065118	0.000074
C34	C	1.579860	0.565118	0.500074
C35	C	1.014365	0.103253	-0.111840
C36	C	1.514365	0.603253	0.388160
C37	C	0.985606	0.138197	0.111950
C38	C	1.485606	0.638197	0.611950
C39	C	1.110283	0.220977	-0.111948
C40	C	1.610283	0.720977	0.388052
C41	C	1.081518	0.255919	0.111944
C42	C	1.581518	0.755919	0.611944
C43	C	1.016072	0.294136	0.000002
C44	C	1.516072	0.794136	0.500002
C45	C	1.779569	0.172780	0.000090
C46	C	2.279569	0.672780	0.500090
C47	C	1.921999	0.176419	0.000089
C48	C	2.421999	0.676419	0.500089
C49	C	1.589658	0.401842	0.000076
C50	C	2.089658	0.901842	0.500076
C51	C	1.623173	0.536848	0.000074
C52	C	2.123173	1.036848	0.500074
N53	N	1.502446	0.234786	0.353715
N54	N	2.002446	0.734786	0.853715
N55	N	1.593451	0.124431	-0.353555
N56	N	2.093451	0.624431	0.146445
C57	C	1.558042	0.167355	0.421499
C58	C	2.058042	0.667355	0.921499
C59	C	1.537846	0.191872	0.578665
C60	C	2.037846	0.691872	1.078665
H61	H	1.670123	-0.209809	0.000092
H62	H	2.170123	0.290191	0.500092
F63	F	1.393541	-0.443487	0.000050
F64	F	1.893541	0.056513	0.500050
H65	H	1.728062	-0.422366	-0.000023
H66	H	2.228062	0.077634	0.499977
F67	F	1.335645	-0.230958	0.000054
F68	F	1.835645	0.269042	0.500054
H69	H	1.108286	-0.031654	-0.000064
H70	H	1.608286	0.468346	0.499936
F71	F	1.180812	0.266699	-0.235757
F72	F	1.680812	0.766699	0.264243
F73	F	1.420680	0.333964	0.429939
F74	F	1.920680	0.833964	0.929939
H75	H	1.655998	0.048541	0.588130
H76	H	2.155998	0.548541	1.088130
H77	H	0.984572	0.038694	-0.206455
H78	H	1.484572	0.538694	0.293545
H79	H	1.111333	0.320439	0.206563
H80	H	1.611333	0.820439	0.706563
F81	F	0.979324	0.420715	-0.000077
F82	F	1.479324	0.920715	0.499923
H83	H	0.931494	0.103139	0.206565
H84	H	1.431494	0.603139	0.706565
F85	F	1.639523	0.067955	0.345276
F86	F	2.139523	0.567955	0.845276
F87	F	1.456077	0.291055	0.654883
F88	F	1.956077	0.791055	1.154883
