data_functionalizedCrystal
_audit_creation_method	'MofGen! by Chris Wilmer'
_symmetry_space_group_name_H-M	'P1'
_symmetry_Int_Tables_number	1
_symmetry_cell_setting	triclinic
loop_
_symmetry_equiv_pos_as_xyz
  x,y,z
_cell_length_a	16.625546
_cell_length_b	12.759395
_cell_length_c	12.759387
_cell_angle_alpha	90.017394
_cell_angle_beta	89.964695
_cell_angle_gamma	89.980055
loop_
_atom_site_label
_atom_site_type_symbol
_atom_site_fract_x
_atom_site_fract_y
_atom_site_fract_z
Zn1	Zn	-0.321015	-1.606178	-0.593975
Zn2	Zn	-0.455870	-1.606055	-0.418281
Zn3	Zn	-0.321049	-1.430486	-0.418311
Zn4	Zn	-0.455804	-1.430445	-0.593919
O5	O	-0.388435	-1.518291	-0.506122
O6	O	-0.338918	-1.753183	-0.570679
O7	O	-0.438028	-1.582731	-0.271264
O8	O	-0.208212	-1.453861	-0.441649
O9	O	-0.437995	-1.753092	-0.441597
O10	O	-0.208188	-1.582941	-0.570709
O11	O	-0.338975	-1.453742	-0.271286
O12	O	-0.338911	-1.283460	-0.441596
O13	O	-0.437882	-1.453790	-0.740948
O14	O	-0.437915	-1.283429	-0.570614
O15	O	-0.338854	-1.582901	-0.740989
O16	O	-0.568694	-1.582691	-0.441544
O17	O	-0.568645	-1.453671	-0.570584
C18	C	-0.388410	-1.245323	-0.506103
C19	C	-0.388419	-1.128547	-0.506120
C20	C	-0.285417	-1.128622	-0.640750
C21	C	-0.233923	-1.073798	-0.708072
C22	C	-0.233934	-0.964077	-0.708082
C23	C	-0.285442	-0.909176	-0.640761
C24	C	-0.336935	-0.963999	-0.573439
C25	C	-0.336920	-1.073723	-0.573438
C26	C	-0.439932	-0.963924	-0.438806
C27	C	-0.439927	-1.073646	-0.438799
C28	C	-0.491440	-0.909024	-0.371485
C29	C	-0.542938	-0.963847	-0.304166
C30	C	-0.542926	-1.073575	-0.304159
C31	C	-0.491420	-1.128469	-0.371476
C32	C	-0.597926	-1.518191	-0.506078
C33	C	-0.687547	-1.518245	-0.506094
C34	C	-1.015722	-1.518428	-0.506203
C35	C	-0.924414	-1.518374	-0.506176
C36	C	-0.851637	-1.518336	-0.506148
C37	C	-0.760323	-1.518283	-0.506122
C38	C	-0.178126	-1.518419	-0.506189
C39	C	-0.088505	-1.518474	-0.506217
C40	C	-0.388357	-1.518355	-0.780155
C41	C	-0.388323	-1.518382	-0.896932
C42	C	-0.388452	-0.792324	-0.506136
C43	C	-0.388439	-0.909101	-0.506128
C44	C	-0.491411	-1.652772	-1.116334
C45	C	-0.542998	-1.719911	-1.061451
C46	C	-0.543029	-1.719876	-0.951729
C47	C	-0.491468	-1.652693	-0.896888
C48	C	-0.439880	-1.585555	-0.951771
C49	C	-0.439854	-1.585599	-1.061495
C50	C	-0.336735	-1.451243	-0.951815
C51	C	-0.336699	-1.451282	-1.061537
C52	C	-0.285174	-1.384061	-0.896974
C53	C	-0.233581	-1.316926	-0.951856
C54	C	-0.233552	-1.316964	-1.061585
C55	C	-0.285112	-1.384143	-1.116419
C56	C	-0.388454	-1.518288	-0.233154
C57	C	-0.388260	-1.518464	-0.116378
H58	H	-0.584855	-1.118206	-0.249333
H59	H	-0.491443	-0.819682	-0.371495
O60	O	-0.491506	-1.652657	-0.778545
H61	H	-0.507805	-1.573394	-0.749613
O62	O	-0.177899	-1.244554	-1.120768
H63	H	-0.136870	-1.291629	-1.170765
H64	H	-0.491383	-1.652817	-1.205675
H65	H	-0.585032	-1.774552	-0.907044
H66	H	-0.285399	-1.217963	-0.640743
O67	O	-0.285082	-1.384192	-1.234762
H68	H	-0.240545	-1.326227	-1.263717
H69	H	-0.584981	-1.774606	-1.106115
O70	O	-0.491396	-1.246812	-0.371472
H71	H	-0.552225	-1.275746	-0.392559
O72	O	-0.285198	-1.384023	-0.778631
H73	H	-0.329723	-1.442004	-0.749678
H74	H	-0.191608	-1.262227	-0.907196
H75	H	-0.191985	-1.118511	-0.762881
H76	H	-0.285440	-0.819835	-0.640768
O77	O	-0.178395	-0.904933	-0.780686
H78	H	-0.192304	-0.926006	-0.863110
O79	O	-0.598486	-0.904638	-0.231558
H80	H	-0.589842	-0.819132	-0.242874
