data_functionalizedCrystal
_audit_creation_method	'MofGen! by Chris Wilmer'
_symmetry_space_group_name_H-M	'P1'
_symmetry_Int_Tables_number	1
_symmetry_cell_setting	triclinic
loop_
_symmetry_equiv_pos_as_xyz
  x,y,z
_cell_length_a	9.616153
_cell_length_b	14.044220
_cell_length_c	10.540535
_cell_angle_alpha	88.856260
_cell_angle_beta	89.996418
_cell_angle_gamma	89.997882
loop_
_atom_site_label
_atom_site_type_symbol
_atom_site_fract_x
_atom_site_fract_y
_atom_site_fract_z
O1	O	0.115506	-1.259780	-0.306257
O2	O	0.615506	-0.759780	0.193743
O3	O	0.115541	-0.983736	-0.295205
O4	O	0.615541	-0.483736	0.204795
O5	O	0.115509	-1.128058	-0.116661
O6	O	0.615509	-0.628058	0.383339
O7	O	0.115538	-1.115458	-0.484801
O8	O	0.615538	-0.615458	0.015199
O9	O	-0.115783	-1.128038	-0.116663
O10	O	0.384217	-0.628038	0.383337
O11	O	-0.115751	-0.983716	-0.295207
O12	O	0.384249	-0.483716	0.204793
O13	O	-0.115785	-1.259760	-0.306259
O14	O	0.384215	-0.759760	0.193741
Zn15	Zn	-0.152491	-1.121735	-0.300733
Zn16	Zn	0.347509	-0.621735	0.199267
Zn17	Zn	0.152246	-1.121761	-0.300731
Zn18	Zn	0.652246	-0.621761	0.199269
O19	O	-0.115753	-1.115438	-0.484803
O20	O	0.384247	-0.615438	0.015197
C21	C	-0.000101	-0.948379	-0.290369
C22	C	0.499899	-0.448379	0.209631
C23	C	-0.000088	-0.843056	-0.275939
C24	C	0.499912	-0.343056	0.224061
N25	N	-0.360465	-1.121724	-0.300735
N26	N	0.139535	-0.621724	0.199265
C27	C	-0.000138	-1.127104	-0.069264
C28	C	0.499862	-0.627104	0.430736
C29	C	-0.000139	-1.124280	0.071970
C30	C	0.499861	-0.624280	0.571970
C31	C	-0.580818	-1.044285	-0.395874
C32	C	-0.080818	-0.544285	0.104126
C33	C	-0.419650	-1.044456	-0.396277
C34	C	0.080350	-0.544456	0.103723
C35	C	-0.418924	-1.220901	-0.340895
C36	C	0.081076	-0.720901	0.159105
C37	C	-0.580142	-1.220479	-0.341582
C38	C	-0.080142	-0.720479	0.158418
C39	C	-0.580384	-1.100973	-0.165198
C40	C	-0.080384	-0.600973	0.334802
C41	C	-0.419157	-1.098696	-0.165833
C42	C	0.080843	-0.598696	0.334167
N43	N	0.360220	-1.121779	-0.300720
N44	N	0.860220	-0.621779	0.199280
C45	C	-0.000141	-1.295117	-0.311095
C46	C	0.499859	-0.795117	0.188905
C47	C	-0.000145	-1.400440	-0.325525
C48	C	0.499855	-0.900440	0.174475
C49	C	-0.000117	-0.650216	-0.249558
C50	C	0.499883	-0.150216	0.250442
C51	C	-0.000115	-0.593274	-0.351901
C52	C	0.499885	-0.093274	0.148099
C53	C	-0.000132	-0.485972	-0.337222
C54	C	0.499868	0.014028	0.162778
C55	C	-0.000101	-0.757529	-0.264235
C56	C	0.499899	-0.257529	0.235765
C57	C	-0.000104	-1.116392	-0.532201
C58	C	0.499896	-0.616392	-0.032201
C59	C	-0.000093	-1.119216	-0.673434
C60	C	0.499907	-0.619216	-0.173434
C61	C	-0.000116	-1.018907	0.119294
C62	C	0.499884	-0.518907	0.619294
C63	C	0.000434	-1.015935	0.266195
C64	C	0.500434	-0.515935	0.766195
C65	C	0.131708	-1.172392	0.276433
C66	C	0.631708	-0.672392	0.776433
C67	C	0.131794	-1.174634	0.129441
C68	C	0.631794	-0.674634	0.629441
C69	C	-0.131237	-1.176144	0.129422
C70	C	0.368763	-0.676144	0.629422
C71	C	-0.132945	-1.171271	0.276261
C72	C	0.367055	-0.671271	0.776261
H73	H	-0.380128	-0.970765	-0.370696
H74	H	0.119872	-0.470765	0.129304
H75	H	-0.621310	-1.057486	-0.495632
H76	H	-0.121310	-0.557486	0.004368
H77	H	0.095492	-0.974573	0.298823
H78	H	0.595492	-0.474573	0.798823
H79	H	-0.000100	-0.625112	-0.450543
H80	H	0.499900	-0.125112	0.049457
H81	H	-0.621115	-1.030181	-0.129362
H82	H	-0.121115	-0.530181	0.370638
H83	H	-0.141310	-1.246652	0.317676
H84	H	0.358690	-0.746652	0.817676
H85	H	-0.000133	-0.618380	-0.150924
H86	H	0.499867	-0.118380	0.349076
H87	H	-0.094019	-0.974340	0.299742
H88	H	0.405981	-0.474340	0.799742
H89	H	0.094273	-0.979129	0.079852
H90	H	0.594273	-0.479129	0.579852
H91	H	-0.094624	-0.978434	0.081422
H92	H	0.405376	-0.478434	0.581422
H93	H	-0.619621	-0.970364	-0.370548
H94	H	-0.119621	-0.470364	0.129452
H95	H	0.230705	-1.138739	0.092892
H96	H	0.730705	-0.638739	0.592892
H97	H	0.137397	-1.251881	0.098601
H98	H	0.637397	-0.751881	0.598601
H99	H	0.136231	-1.248437	0.316101
H100	H	0.636231	-0.748437	0.816101
H101	H	0.230188	-1.135925	0.311014
H102	H	0.730188	-0.635925	0.811014
H103	H	-0.381065	-1.057830	-0.496613
H104	H	0.118935	-0.557830	0.003387
H105	H	-0.378875	-1.151398	-0.090840
H106	H	0.121125	-0.651398	0.409160
H107	H	-0.231180	-1.143255	0.090295
H108	H	0.268820	-0.643255	0.590295
H109	H	-0.230454	-1.132574	0.308786
H110	H	0.269546	-0.632574	0.808786
H111	H	-0.619143	-1.279993	-0.275609
H112	H	-0.119143	-0.779993	0.224391
H113	H	-0.380585	-1.279975	-0.273904
H114	H	0.119415	-0.779975	0.226096
H115	H	-0.618513	-1.157475	-0.094256
H116	H	-0.118513	-0.657475	0.405744
H117	H	-0.617725	-1.238677	-0.440759
H118	H	-0.117725	-0.738677	0.059241
H119	H	-0.378529	-1.239505	-0.439014
H120	H	0.121471	-0.739505	0.060986
H121	H	-0.132532	-1.253670	0.099389
H122	H	0.367468	-0.753670	0.599389
H123	H	-0.380950	-1.025736	-0.135616
H124	H	0.119050	-0.525736	0.364384
