data_functionalizedCrystal
_audit_creation_method	'MofGen! by Chris Wilmer'
_symmetry_space_group_name_H-M	'P1'
_symmetry_Int_Tables_number	1
_symmetry_cell_setting	triclinic
loop_
_symmetry_equiv_pos_as_xyz
  x,y,z
_cell_length_a	10.654559
_cell_length_b	16.109304
_cell_length_c	14.586319
_cell_angle_alpha	89.999019
_cell_angle_beta	89.996279
_cell_angle_gamma	83.975661
loop_
_atom_site_label
_atom_site_type_symbol
_atom_site_fract_x
_atom_site_fract_y
_atom_site_fract_z
O1	O	1.666250	0.116809	-0.076239
O2	O	1.300622	0.127927	-0.076239
O3	O	1.493478	0.001397	-0.076240
O4	O	1.473394	0.243339	-0.076239
O5	O	1.493465	0.001395	0.076241
O6	O	1.300609	0.127925	0.076242
O7	O	1.666237	0.116807	0.076242
Cu8	Cu	1.483422	0.122366	0.090164
Cu9	Cu	1.483437	0.122368	-0.090162
O10	O	1.473380	0.243337	0.076242
C11	C	1.253829	0.127108	0.000001
C12	C	1.114419	0.124661	0.000001
C13	C	1.492658	-0.029584	-0.000001
C14	C	1.490217	-0.121893	-0.000008
C15	C	1.484584	-0.334263	-0.083121
C16	C	1.482279	-0.420997	-0.083121
C17	C	1.482271	-0.420996	0.083122
C18	C	1.484567	-0.334263	0.083121
C19	C	1.485730	-0.290900	-0.000004
C20	C	1.481129	-0.464366	-0.000001
C21	C	1.478630	-0.558407	0.000000
C22	C	1.488227	-0.196853	-0.000006
C23	C	1.063920	0.047862	0.000003
C24	C	0.932929	0.045568	-0.000004
C25	C	0.902947	0.196878	-0.000011
C26	C	1.033935	0.199171	-0.000011
C27	C	1.144404	-0.026648	0.000015
C28	C	1.093906	-0.103453	0.000018
C29	C	0.962915	-0.105747	0.000011
C30	C	0.882422	-0.031237	0.000001
C31	C	1.713030	0.117626	-0.000001
C32	C	1.852439	0.120073	-0.000006
C33	C	1.474201	0.274318	0.000002
C34	C	1.476642	0.366627	0.000002
N35	N	1.483420	0.122364	0.216996
N36	N	1.483449	0.122364	-0.216994
C37	C	1.568844	0.066356	0.452002
C38	C	1.568848	0.066354	0.547984
C39	C	1.398015	0.178375	0.547993
C40	C	1.398007	0.178372	0.452014
C41	C	1.483428	0.122363	0.404021
C42	C	1.483441	0.122364	0.595982
C43	C	1.483444	0.122362	0.700049
C44	C	1.483424	0.122364	0.299947
H45	H	1.485528	-0.298959	-0.150807
C46	C	0.688834	0.260544	-0.000005
C47	C	0.814472	0.278776	-0.000011
H48	H	0.634217	0.311106	0.000004
H49	H	0.673537	0.229091	-0.053175
H50	H	0.673540	0.229081	0.053172
H51	H	0.829769	0.310234	-0.053191
H52	H	0.829775	0.310242	0.053165
H53	H	1.638400	0.020746	0.587048
H54	H	1.481344	-0.456300	-0.150803
H55	H	1.328468	0.223977	0.587079
H56	H	1.075052	0.261707	-0.000004
C57	C	1.739699	0.049305	0.344001
C58	C	1.662671	0.004766	0.399224
H59	H	1.797609	0.011272	0.311418
H60	H	1.688827	0.082673	0.301709
H61	H	1.784917	0.084166	0.381430
H62	H	1.617445	-0.030091	0.361793
H63	H	1.713549	-0.028617	0.441521
H64	H	1.481327	-0.456314	0.150799
C65	C	1.324203	0.321854	0.422452
C66	C	1.304114	0.239943	0.399265
H67	H	1.266243	0.359861	0.389882
H68	H	1.311979	0.329869	0.486474
H69	H	1.408011	0.331387	0.406709
H70	H	1.220308	0.230409	0.415014
H71	H	1.316328	0.231926	0.335229
C72	C	1.484339	-0.342968	0.247452
C73	C	1.485829	-0.286591	0.174491
H74	H	1.485122	-0.313536	0.303856
H75	H	1.410260	-0.370880	0.243999
H76	H	1.556638	-0.382716	0.243990
H77	H	1.413524	-0.246847	0.177949
H78	H	1.559916	-0.258666	0.177945
H79	H	1.251065	-0.024789	0.000023
H80	H	0.921804	-0.168285	0.000004
H81	H	0.775761	-0.033111	-0.000013
C82	C	1.308017	-0.167123	0.000036
C83	C	1.182378	-0.185352	0.000027
H84	H	1.362632	-0.217687	0.000047
H85	H	1.323329	-0.135670	-0.053134
H86	H	1.323301	-0.135661	0.053213
H87	H	1.167092	-0.216809	-0.053154
H88	H	1.167060	-0.216819	0.053202
