data_functionalizedCrystal
_audit_creation_method	'MofGen! by Chris Wilmer'
_symmetry_space_group_name_H-M	'P1'
_symmetry_Int_Tables_number	1
_symmetry_cell_setting	triclinic
loop_
_symmetry_equiv_pos_as_xyz
  x,y,z
_cell_length_a	18.215407
_cell_length_b	13.897448
_cell_length_c	18.215399
_cell_angle_alpha	89.973672
_cell_angle_beta	89.980167
_cell_angle_gamma	90.018140
loop_
_atom_site_label
_atom_site_type_symbol
_atom_site_fract_x
_atom_site_fract_y
_atom_site_fract_z
Zn1	Zn	1.125109	-0.384013	-0.416124
Zn2	Zn	1.625109	0.115987	0.083876
Zn3	Zn	1.125033	-0.545323	-0.293061
Zn4	Zn	1.625033	-0.045323	0.206939
Zn5	Zn	1.002041	-0.384045	-0.293072
Zn6	Zn	1.502041	0.115955	0.206928
Zn7	Zn	1.002023	-0.545269	-0.416086
Zn8	Zn	1.502023	-0.045269	0.083914
O9	O	1.063551	-0.464663	-0.354586
O10	O	1.563551	0.035337	0.145414
O11	O	1.228083	-0.405421	-0.399811
O12	O	1.728083	0.094579	0.100189
O13	O	1.108693	-0.523965	-0.190078
O14	O	1.608693	-0.023965	0.309922
O15	O	1.018406	-0.249059	-0.309415
O16	O	1.518406	0.250941	0.190585
O17	O	1.228027	-0.523934	-0.309398
O18	O	1.728027	-0.023934	0.190602
O19	O	1.108823	-0.249036	-0.399821
O20	O	1.608823	0.250964	0.100179
O21	O	1.018332	-0.405474	-0.190086
O22	O	1.518332	0.094526	0.309914
O23	O	0.899055	-0.405422	-0.309378
O24	O	1.399055	0.094578	0.190622
O25	O	1.018374	-0.523843	-0.519076
O26	O	1.518374	-0.023843	-0.019076
O27	O	0.899041	-0.523873	-0.399757
O28	O	1.399041	-0.023873	0.100243
O29	O	1.108805	-0.405369	-0.519103
O30	O	1.608805	0.094631	-0.019103
O31	O	1.108675	-0.680297	-0.309361
O32	O	1.608675	-0.180297	0.190639
O33	O	1.018300	-0.680258	-0.399747
O34	O	1.518300	-0.180258	0.100253
C35	C	0.872345	-0.464646	-0.354565
C36	C	1.372345	0.035354	0.145435
C37	C	0.790546	-0.464662	-0.354573
C38	C	1.290546	0.035338	0.145427
C39	C	0.602364	-0.526437	-0.401574
C40	C	1.102364	-0.026437	0.098426
C41	C	0.525506	-0.526440	-0.401583
C42	C	1.025506	-0.026440	0.098417
C43	C	0.525490	-0.402906	-0.307614
C44	C	1.025490	0.097094	0.192386
C45	C	0.602348	-0.402899	-0.307609
C46	C	1.102348	0.097101	0.192391
C47	C	0.640783	-0.464670	-0.354588
C48	C	1.140783	0.035330	0.145412
C49	C	0.487067	-0.464680	-0.354602
C50	C	0.987067	0.035320	0.145398
C51	C	0.403733	-0.464683	-0.354612
C52	C	0.903733	0.035317	0.145388
C53	C	0.724122	-0.464666	-0.354579
C54	C	1.224122	0.035334	0.145421
C55	C	1.063498	-0.715277	-0.354565
C56	C	1.563498	-0.215277	0.145435
C57	C	1.063542	-0.822491	-0.354580
C58	C	1.563542	-0.322491	0.145420
C59	C	1.063619	-1.018786	-0.354626
C60	C	1.563619	-0.518786	0.145374
C61	C	1.063574	-0.909553	-0.354603
C62	C	1.563574	-0.409553	0.145397
C63	C	1.255504	-0.464680	-0.354607
C64	C	1.755504	0.035320	0.145393
C65	C	1.337303	-0.464687	-0.354617
C66	C	1.837303	0.035313	0.145383
C67	C	1.063596	-0.464596	-0.546539
C68	C	1.563596	0.035404	-0.046539
C69	C	1.063615	-0.464568	-0.628338
C70	C	1.563615	0.035432	-0.128338
C71	C	1.063625	-0.213070	-0.354623
C72	C	1.563625	0.286930	0.145377
C73	C	1.063657	-0.105856	-0.354639
C74	C	1.563657	0.394144	0.145361
C75	C	1.110720	-0.402821	-0.816547
C76	C	1.610720	0.097179	-0.316547
C77	C	1.110728	-0.402792	-0.893406
C78	C	1.610728	0.097208	-0.393406
C79	C	1.016563	-0.526166	-0.893366
C80	C	1.516563	-0.026166	-0.393366
C81	C	1.016551	-0.526188	-0.816509
C82	C	1.516551	-0.026188	-0.316509
C83	C	1.063634	-0.464517	-0.778101
C84	C	1.563634	0.035483	-0.278101
C85	C	1.063654	-0.464466	-0.931818
C86	C	1.563654	0.035534	-0.431818
C87	C	1.063663	-0.464436	-1.015151
C88	C	1.563663	0.035564	-0.515151
C89	C	1.063624	-0.464546	-0.694762
C90	C	1.563624	0.035454	-0.194762
C91	C	1.063549	-0.464659	-0.163380
C92	C	1.563549	0.035341	0.336620
C93	C	1.063672	-0.464416	-0.081581
C94	C	1.563672	0.035584	0.418419
H95	H	0.494187	-0.352616	-0.269364
H96	H	0.994187	0.147384	0.230636
H97	H	0.633656	-0.576732	-0.439829
H98	H	1.133656	-0.076732	0.060171
H99	H	1.149055	-0.352601	-0.785279
H100	H	1.649055	0.147399	-0.285279
H101	H	1.149069	-0.352551	-0.924706
H102	H	1.649069	0.147449	-0.424706
C103	C	0.644026	-0.335954	-0.256468
C104	C	1.144026	0.164046	0.243532
C105	C	0.625315	-0.356855	-0.183625
C106	C	1.125315	0.143145	0.316375
C107	C	0.663702	-0.295214	-0.136499
C108	C	1.163702	0.204786	0.363501
H109	H	0.631479	-0.271127	-0.267225
H110	H	1.131479	0.228873	0.232775
H111	H	0.695311	-0.344803	-0.263146
H112	H	1.195311	0.155197	0.236854
H113	H	0.574042	-0.347997	-0.176950
H114	H	1.074042	0.152003	0.323050
H115	H	0.637863	-0.421670	-0.172845
H116	H	1.137863	0.078330	0.327155
H117	H	0.714987	-0.304064	-0.143177
H118	H	1.214987	0.195936	0.356823
H119	H	0.651152	-0.230392	-0.147263
H120	H	1.151152	0.269608	0.352737
H121	H	0.651017	-0.309393	-0.087070
H122	H	1.151017	0.190607	0.412930
C123	C	0.965546	-0.593234	-0.774667
C124	C	1.465546	-0.093234	-0.274667
C125	C	1.007193	-0.655054	-0.730524
C126	C	1.507193	-0.155054	-0.230524
C127	C	0.960233	-0.716815	-0.691961
C128	C	1.460233	-0.216815	-0.191961
H129	H	0.937494	-0.630057	-0.808462
H130	H	1.437494	-0.130057	-0.308462
H131	H	0.933499	-0.556366	-0.744643
H132	H	1.433499	-0.056366	-0.244643
H133	H	1.039227	-0.691919	-0.760545
H134	H	1.539227	-0.191919	-0.260545
H135	H	1.035243	-0.618258	-0.696715
H136	H	1.535243	-0.118258	-0.196715
H137	H	0.928185	-0.679947	-0.661938
H138	H	1.428185	-0.179947	-0.161938
H139	H	0.932182	-0.753631	-0.725762
H140	H	1.432182	-0.253631	-0.225762
H141	H	0.988482	-0.758761	-0.662001
H142	H	1.488482	-0.258761	-0.162001
H143	H	0.978232	-0.576378	-0.924647
H144	H	1.478232	-0.076378	-0.424647
H145	H	0.494229	-0.576735	-0.439845
H146	H	0.994229	-0.076735	0.060155
