data_functionalizedCrystal
_audit_creation_method	'MofGen! by Chris Wilmer'
_symmetry_space_group_name_H-M	'P1'
_symmetry_Int_Tables_number	1
_symmetry_cell_setting	triclinic
loop_
_symmetry_equiv_pos_as_xyz
  x,y,z
_cell_length_a	21.295420
_cell_length_b	21.295417
_cell_length_c	13.033255
_cell_angle_alpha	97.149399
_cell_angle_beta	82.798508
_cell_angle_gamma	90.025484
loop_
_atom_site_label
_atom_site_type_symbol
_atom_site_fract_x
_atom_site_fract_y
_atom_site_fract_z
Zn1	Zn	1.007516	-0.295863	-0.590829
Zn2	Zn	1.507516	0.204137	-0.090829
Zn3	Zn	0.994063	-0.387772	-0.416074
Zn4	Zn	1.494063	0.112228	0.083926
Zn5	Zn	0.888885	-0.282515	-0.416104
Zn6	Zn	1.388885	0.217485	0.083896
Zn7	Zn	0.902205	-0.401086	-0.590761
Zn8	Zn	1.402205	0.098914	-0.090761
O9	O	0.948167	-0.341809	-0.503442
O10	O	1.448167	0.158191	-0.003442
O11	O	1.093822	-0.308070	-0.567664
O12	O	1.593822	0.191930	-0.067664
O13	O	0.968907	-0.362652	-0.269848
O14	O	1.468907	0.137348	0.230152
O15	O	0.904677	-0.196200	-0.439322
O16	O	1.404677	0.303800	0.060678
O17	O	1.083938	-0.375595	-0.439272
O18	O	1.583938	0.124405	0.060728
O19	O	0.991835	-0.206006	-0.567692
O20	O	1.491835	0.293994	-0.067692
O21	O	0.891633	-0.285320	-0.269869
O22	O	1.391633	0.214680	0.230131
O23	O	0.802561	-0.298229	-0.439256
O24	O	1.302561	0.201771	0.060744
O25	O	0.927379	-0.398286	-0.737001
O26	O	1.427379	0.101714	-0.237001
O27	O	0.812347	-0.385343	-0.567576
O28	O	1.312347	0.114657	-0.067576
O29	O	1.004751	-0.320979	-0.737051
O30	O	1.504751	0.179021	-0.237051
O31	O	0.981822	-0.477624	-0.439206
O32	O	1.481822	0.022376	0.060794
O33	O	0.914334	-0.487406	-0.567548
O34	O	1.414334	0.012594	-0.067548
C35	C	0.784613	-0.341783	-0.503413
C36	C	1.284613	0.158217	-0.003413
C37	C	0.714646	-0.341789	-0.503425
C38	C	1.214646	0.158211	-0.003425
C39	C	0.948083	-0.505357	-0.503389
C40	C	1.448083	-0.005357	-0.003389
C41	C	0.948107	-0.575326	-0.503402
C42	C	1.448107	-0.075326	-0.003402
C43	C	0.220345	-0.306753	-0.570420
C44	C	0.720345	0.193247	-0.070420
C45	C	0.286087	-0.306749	-0.570420
C46	C	0.786087	0.193251	-0.070420
C47	C	0.313810	-0.341830	-0.503466
C48	C	0.813810	0.158170	-0.003466
C49	C	0.275786	-0.376932	-0.436527
C50	C	0.775786	0.123068	0.063473
C51	C	0.210045	-0.376941	-0.436536
C52	C	0.710045	0.123059	0.063464
N53	N	0.410006	-0.339579	-0.411967
N54	N	0.910006	0.160421	0.088033
N55	N	0.472457	-0.339568	-0.411961
N56	N	0.972457	0.160432	0.088039
C57	C	0.511882	-0.341807	-0.503436
C58	C	1.011882	0.158193	-0.003436
N59	N	0.486497	-0.344046	-0.594919
N60	N	0.986497	0.155954	-0.094919
N61	N	0.424040	-0.344055	-0.594924
N62	N	0.924040	0.155945	-0.094924
C63	C	0.385094	-0.341825	-0.503449
C64	C	0.885094	0.158175	-0.003449
C65	C	0.621184	-0.306706	-0.570376
C66	C	1.121184	0.193294	-0.070376
C67	C	0.686928	-0.306706	-0.570378
C68	C	1.186928	0.193294	-0.070378
C69	C	0.676624	-0.376885	-0.436475
C70	C	1.176624	0.123115	0.063525
C71	C	0.610883	-0.376889	-0.436483
C72	C	1.110883	0.123111	0.063517
C73	C	0.583166	-0.341796	-0.503432
C74	C	1.083166	0.158204	-0.003432
C75	C	0.993471	-0.613245	-0.570292
C76	C	1.493471	-0.113245	-0.070292
C77	C	0.993495	-0.678990	-0.570317
C78	C	1.493495	-0.178990	-0.070317
C79	C	0.948161	-0.706811	-0.503434
C80	C	1.448161	-0.206811	-0.003434
C81	C	0.902789	-0.668883	-0.436540
C82	C	1.402789	-0.168883	0.063460
C83	C	0.902762	-0.603140	-0.436523
C84	C	1.402762	-0.103140	0.063477
N85	N	0.936412	-0.803080	-0.411982
N86	N	1.436412	-0.303080	0.088018
N87	N	0.936441	-0.865533	-0.412001
N88	N	1.436441	-0.365533	0.087999
C89	C	0.948238	-0.904889	-0.503482
C90	C	1.448238	-0.404889	-0.003482
N91	N	0.960017	-0.879433	-0.594945
N92	N	1.460017	-0.379433	-0.094945
N93	N	0.959991	-0.816974	-0.594925
N94	N	1.459991	-0.316974	-0.094925
C95	C	0.948184	-0.778097	-0.503445
C96	C	1.448184	-0.278097	-0.003445
C97	C	0.993630	-1.014097	-0.570405
C98	C	1.493630	-0.514097	-0.070405
C99	C	0.993650	-1.079842	-0.570433
C100	C	1.493650	-0.579842	-0.070433
C101	C	0.902947	-1.069734	-0.436646
C102	C	1.402947	-0.569734	0.063354
C103	C	0.902924	-1.003990	-0.436628
C104	C	1.402924	-0.503990	0.063372
C105	C	0.948269	-0.976175	-0.503506
C106	C	1.448269	-0.476175	-0.003506
C107	C	1.112360	-0.341836	-0.503472
C108	C	1.612360	0.158164	-0.003472
C109	C	1.182329	-0.341848	-0.503485
C110	C	1.682329	0.158152	-0.003485
C111	C	0.969051	-0.362606	-0.776002
C112	C	1.469051	0.137394	-0.276002
C113	C	0.977951	-0.371469	-0.892150
C114	C	1.477951	0.128531	-0.392150
C115	C	0.948271	-0.177625	-0.503518
C116	C	1.448271	0.322375	-0.003518
C117	C	0.948315	-0.107659	-0.503550
C118	C	1.448315	0.392341	-0.003550
C119	C	0.952886	-0.346317	-1.063994
C120	C	1.452886	0.153683	-0.563994
C121	C	0.943683	-0.337155	-0.943948
C122	C	1.443683	0.162845	-0.443948
C123	C	0.927401	-0.321047	-0.231943
C124	C	1.427401	0.178953	0.268057
C125	C	0.918623	-0.312007	-0.115795
C126	C	1.418623	0.187993	0.384205
H127	H	0.197783	-0.278181	-0.624939
H128	H	0.697783	0.221819	-0.124939
H129	H	0.317046	-0.278168	-0.624925
H130	H	0.817046	0.221832	-0.124925
C131	C	0.869791	-0.263158	-1.055649
C132	C	1.369791	0.236842	-0.555649
N133	N	0.833011	-0.226363	-1.010348
N134	N	1.333011	0.273637	-0.510348
C135	C	0.728746	-0.268096	-0.644013
C136	C	1.228746	0.231904	-0.144013
N137	N	0.760244	-0.239012	-0.699475
N138	N	1.260244	0.260988	-0.199475
C139	C	1.043559	-1.121554	-0.644016
C140	C	1.543559	-0.621554	-0.144016
N141	N	1.081154	-1.152972	-0.699437
N142	N	1.581154	-0.652972	-0.199437
C143	C	0.894848	-0.288304	-0.883806
C144	C	1.394848	0.211696	-0.383806
N145	N	0.858068	-0.251508	-0.838506
N146	N	1.358068	0.248492	-0.338506
H147	H	1.014102	-0.407626	-0.936670
H148	H	1.514102	0.092374	-0.436670
C149	C	0.306281	-0.415519	-0.362874
C150	C	0.806281	0.084481	0.137126
N151	N	0.329251	-0.444584	-0.307397
N152	N	0.829251	0.055416	0.192603
H153	H	0.699196	-0.405455	-0.381969
H154	H	1.199196	0.094545	0.118031
H155	H	0.598616	-0.278131	-0.624890
H156	H	1.098616	0.221869	-0.124890
C157	C	0.168225	-0.415543	-0.362891
C158	C	0.668225	0.084457	0.137109
N159	N	0.136725	-0.444616	-0.307416
N160	N	0.636725	0.055384	0.192584
C161	C	0.853071	-1.100334	-0.363088
C162	C	1.353071	-0.600334	0.136912
N163	N	0.815499	-1.123386	-0.307688
N164	N	1.315499	-0.623386	0.192312
C165	C	1.043355	-0.582653	-0.643854
C166	C	1.543355	-0.082653	-0.143854
N167	N	1.080929	-0.559609	-0.699260
N168	N	1.580929	-0.059609	-0.199260
C169	C	0.569062	-0.415486	-0.362833
C170	C	1.069062	0.084514	0.137167
N171	N	0.537563	-0.444558	-0.307356
N172	N	1.037563	0.055442	0.192644
C173	C	1.043503	-0.983499	-0.643986
C174	C	1.543503	-0.483499	-0.143986
N175	N	1.081065	-0.960456	-0.699411
N176	N	1.581065	-0.460456	-0.199411
H177	H	1.030431	-0.709871	-0.624800
H178	H	1.530431	-0.209871	-0.124800
C179	C	0.852942	-0.699484	-0.362928
C180	C	1.352942	-0.199484	0.137072
N181	N	0.815403	-0.722532	-0.307468
N182	N	1.315403	-0.222532	0.192532
C183	C	0.852854	-0.561427	-0.362939
C184	C	1.352854	-0.061427	0.137061
N185	N	0.815262	-0.530008	-0.307516
N186	N	1.315262	-0.030008	0.192484
C187	C	1.001576	-0.395307	-1.124140
C188	C	1.501576	0.104693	-0.624140
N189	N	1.038199	-0.432259	-1.169440
N190	N	1.538199	0.067741	-0.669440
C191	C	0.853017	-0.962277	-0.363048
C192	C	1.353017	-0.462277	0.136952
N193	N	0.815421	-0.930859	-0.307631
N194	N	1.315421	-0.430859	0.192369
