data_functionalizedCrystal
_audit_creation_method	'MofGen! by Chris Wilmer'
_symmetry_space_group_name_H-M	'P1'
_symmetry_Int_Tables_number	1
_symmetry_cell_setting	triclinic
loop_
_symmetry_equiv_pos_as_xyz
  x,y,z
_cell_length_a	17.000371
_cell_length_b	16.992695
_cell_length_c	16.053802
_cell_angle_alpha	87.258926
_cell_angle_beta	87.622785
_cell_angle_gamma	96.866265
loop_
_atom_site_label
_atom_site_type_symbol
_atom_site_fract_x
_atom_site_fract_y
_atom_site_fract_z
O1	O	1.061026	-0.024613	-0.069433
O2	O	1.561026	0.475387	0.430567
O3	O	0.831096	-0.052947	-0.069434
O4	O	1.331096	0.447053	0.430566
O5	O	0.945139	0.075299	-0.069427
O6	O	1.445139	0.575299	0.430573
O7	O	0.946983	-0.152859	-0.069440
O8	O	1.446983	0.347141	0.430560
O9	O	0.938860	0.068267	0.069432
O10	O	1.438860	0.568267	0.569432
O11	O	0.824817	-0.059978	0.069424
O12	O	1.324817	0.440022	0.569424
O13	O	1.054747	-0.031645	0.069426
O14	O	1.554747	0.468355	0.569426
Zn15	Zn	0.938785	-0.046928	0.091472
Zn16	Zn	1.438785	0.453072	0.591472
Zn17	Zn	0.947058	-0.037663	-0.091480
Zn18	Zn	1.447058	0.462337	0.408520
O19	O	0.940704	-0.159890	0.069418
O20	O	1.440704	0.340110	0.569418
C21	C	0.798399	-0.057984	-0.000005
C22	C	1.298399	0.442016	0.499995
C23	C	0.710329	-0.062510	-0.000005
C24	C	1.210329	0.437490	0.499995
C25	C	0.673873	0.007130	0.000000
C26	C	1.173873	0.507130	0.500000
C27	C	0.591121	0.002874	-0.000006
C28	C	1.091121	0.502874	0.499994
C29	C	0.544826	-0.071024	-0.000012
C30	C	1.044826	0.428976	0.499988
C31	C	0.581287	-0.140668	-0.000020
C32	C	1.081287	0.359332	0.499980
C33	C	0.664038	-0.136411	-0.000020
C34	C	1.164038	0.363589	0.499980
C35	C	0.294726	-0.087469	-0.000018
C36	C	0.794726	0.412531	0.499982
C37	C	0.211970	-0.091721	-0.000016
C38	C	0.711970	0.408279	0.499984
C39	C	0.221810	0.051821	-0.000004
C40	C	0.721810	0.551821	0.499996
C41	C	0.304562	0.056072	0.000001
C42	C	0.804562	0.556072	0.500001
C43	C	0.341016	-0.013572	-0.000011
C44	C	0.841016	0.486428	0.499989
C45	C	0.460240	-0.075376	-0.000016
C46	C	0.960240	0.424624	0.499984
C47	C	0.425601	-0.009218	-0.000013
C48	C	0.925601	0.490782	0.499987
C49	C	0.939628	0.100832	0.000002
C50	C	1.439628	0.600832	0.500002
C51	C	0.932552	0.187388	0.000002
C52	C	1.432552	0.687388	0.500002
C53	C	1.087444	-0.026607	-0.000005
C54	C	1.587444	0.473393	0.499995
C55	C	1.175515	-0.022081	-0.000011
C56	C	1.675515	0.477919	0.499989
C57	C	0.946215	-0.185423	-0.000013
C58	C	1.446215	0.314577	0.499987
C59	C	0.953291	-0.271979	-0.000018
C60	C	1.453291	0.228021	0.499982
N61	N	0.933145	-0.053250	0.216332
N62	N	1.433145	0.446750	0.716332
C63	C	1.000824	0.242336	0.000003
C64	C	1.500824	0.742336	0.500003
C65	C	0.994172	0.323664	-0.000005
C66	C	1.494172	0.823664	0.499995
C67	C	0.919245	0.350043	-0.000008
C68	C	1.419245	0.850043	0.499992
C69	C	0.850968	0.295089	-0.000012
C70	C	1.350968	0.795089	0.499988
C71	C	0.857622	0.213763	-0.000010
C72	C	1.357622	0.713763	0.499990
C73	C	0.891668	0.591740	-0.000020
C74	C	1.391668	1.091740	0.499980
C75	C	0.885019	0.673073	-0.000019
C76	C	1.385019	1.173073	0.499981
C77	C	1.028223	0.701643	-0.000014
C78	C	1.528223	1.201643	0.499986
C79	C	1.034870	0.620313	-0.000007
C80	C	1.534870	1.120313	0.499993
C81	C	0.966593	0.565367	-0.000015
C82	C	1.466593	1.065367	0.499985
N83	N	0.912443	0.433173	-0.000013
N84	N	1.412443	0.933173	0.499987
N85	N	0.973396	0.482239	-0.000015
N86	N	1.473396	0.982239	0.499985
N87	N	0.952704	-0.031335	-0.216340
N88	N	1.452704	0.468665	0.283660
C89	C	0.981690	0.001302	0.260029
C90	C	1.481690	0.501302	0.760029
C91	C	0.977753	-0.003128	0.347435
C92	C	1.477753	0.496872	0.847435
C93	C	0.925273	-0.062113	0.391143
C94	C	1.425273	0.437887	0.891143
C95	C	0.876722	-0.116667	0.347440
C96	C	1.376722	0.383333	0.847440
C97	C	0.880656	-0.112234	0.260035
C98	C	1.380656	0.387766	0.760035
C99	C	0.908087	-0.081456	0.652552
C100	C	1.408087	0.418544	1.152552
C101	C	0.904158	-0.085887	0.739963
C102	C	1.404158	0.414113	1.239963
C103	C	1.005188	0.027655	0.739952
C104	C	1.505188	0.527655	1.239952
C105	C	1.009121	0.032080	0.652545
C106	C	1.509121	0.532080	1.152545
C107	C	0.960567	-0.022472	0.608850
C108	C	1.460567	0.477528	1.108850
N109	N	0.921249	-0.066643	0.480487
N110	N	1.421249	0.433357	0.980487
N111	N	0.964588	-0.017938	0.519508
N112	N	1.464588	0.482062	1.019508
H113	H	0.174278	-0.151900	-0.000017
H114	H	0.674278	0.348100	0.499983
C115	C	1.117290	0.591303	-0.000014
C116	C	1.617290	1.091303	0.499986
H117	H	1.156999	0.635677	-0.000023
H118	H	1.656999	1.135677	0.499977
H119	H	1.120676	0.557721	0.048407
H120	H	1.620676	1.057721	0.548407
H121	H	1.125046	0.562623	-0.048445
H122	H	1.625046	1.062623	0.451555
C123	C	1.031161	0.056873	0.395498
C124	C	1.531161	0.556873	0.895498
H125	H	1.062988	0.092629	0.356949
H126	H	1.562988	0.592629	0.856949
H127	H	0.999062	0.085698	0.429610
H128	H	1.499062	0.585698	0.929610
H129	H	1.064398	0.029304	0.429579
H130	H	1.564398	0.529304	0.929579
C131	C	0.816565	0.531309	-0.000014
C132	C	1.316565	1.031309	0.499986
H133	H	0.770991	0.558669	-0.000005
H134	H	1.270991	1.058669	0.499995
H135	H	0.818366	0.501435	-0.048434
H136	H	1.318366	1.001435	0.451566
H137	H	0.813997	0.496543	0.048418
H138	H	1.313997	0.996543	0.548418
C139	C	0.355485	0.137357	-0.000000
C140	C	0.855485	0.637357	0.500000
H141	H	0.409989	0.129918	0.000006
H142	H	0.909989	0.629918	0.500006
H143	H	0.346134	0.168601	-0.048422
H144	H	0.846134	0.668601	0.451578
H145	H	0.341756	0.163696	0.048431
H146	H	0.841756	0.663696	0.548431
H147	H	0.693718	-0.193119	-0.000020
H148	H	1.193718	0.306881	0.499980
C149	C	1.066844	0.096968	0.604472
C150	C	1.566844	0.596968	1.104472
H151	H	1.095188	0.128828	0.643016
H152	H	1.595188	0.628828	1.143016
H153	H	1.103151	0.072871	0.570361
H154	H	1.603151	0.572871	1.070361
H155	H	1.037799	0.129247	0.570391
H156	H	1.537799	0.629247	1.070391
C157	C	0.846384	-0.150734	0.788040
C158	C	1.346384	0.349266	1.288040
H159	H	0.818012	-0.182574	0.749499
H160	H	1.318012	0.317426	1.249499
H161	H	0.875381	-0.183034	0.822146
H162	H	1.375381	0.316966	1.322146
H163	H	0.810093	-0.126585	0.822128
H164	H	1.310093	0.373415	1.322128
H165	H	0.833988	-0.164692	0.383032
H166	H	1.333988	0.335308	0.883032
H167	H	0.711561	0.067305	0.000008
H168	H	1.211561	0.567305	0.500008
H169	H	0.789962	0.316573	-0.000020
H170	H	1.289962	0.816573	0.499980
C171	C	1.103321	0.762085	-0.000017
C172	C	1.603321	1.262085	0.499983
H173	H	1.088631	0.814299	-0.000026
H174	H	1.588631	1.314299	0.499974
H175	H	1.131646	0.752180	0.048404
H176	H	1.631646	1.252180	0.548404
H177	H	1.136016	0.757072	-0.048448
H178	H	1.636016	1.257072	0.451552
H179	H	0.543587	-0.200837	-0.000030
H180	H	1.043587	0.299163	0.499970
H181	H	0.824001	0.694545	-0.000008
H182	H	1.324001	1.194545	0.499992
H183	H	1.061837	0.220866	0.000011
H184	H	1.561837	0.720866	0.500011
C185	C	1.069271	0.384103	0.000005
C186	C	1.569271	0.884103	0.500005
H187	H	1.114846	0.356744	0.000019
H188	H	1.614846	0.856744	0.500019
H189	H	1.071850	0.418873	-0.048418
H190	H	1.571850	0.918873	0.451582
H191	H	1.067456	0.413970	0.048434
H192	H	1.567456	0.913970	0.548434
C193	C	0.551023	0.079477	0.000009
C194	C	1.051023	0.579477	0.500009
H195	H	0.590446	0.124096	0.000025
H196	H	1.090446	0.624096	0.500025
H197	H	0.521136	0.083260	-0.048413
H198	H	1.021136	0.583260	0.451587
H199	H	0.516758	0.078340	0.048439
H200	H	1.016758	0.578340	0.548439
H201	H	0.324397	-0.144178	-0.000034
H202	H	0.824397	0.355822	0.499966
C203	C	0.854687	-0.141467	0.604497
C204	C	1.354687	0.358533	1.104497
H205	H	0.822877	-0.177235	0.643049
H206	H	1.322877	0.322765	1.143049
H207	H	0.821446	-0.113914	0.570414
H208	H	1.321446	0.386086	1.070414
H209	H	0.886799	-0.170289	0.570389
H210	H	1.386799	0.329711	1.070389
C211	C	0.782522	0.153320	-0.000009
C212	C	1.282522	0.653320	0.499991
H213	H	0.736945	0.180676	-0.000004
H214	H	1.236945	0.680676	0.499996
H215	H	0.784332	0.123450	-0.048432
H216	H	1.284332	0.623450	0.451568
H217	H	0.779951	0.118552	0.048421
H218	H	1.279951	0.618552	0.548421
C219	C	1.039423	0.066179	0.211954
C220	C	1.539423	0.566179	0.711954
H221	H	1.034822	0.061003	0.153639
H222	H	1.534822	0.561003	0.653639
H223	H	1.026867	0.116970	0.226287
H224	H	1.526867	0.616970	0.726287
H225	H	1.092207	0.060579	0.226268
H226	H	1.592207	0.560579	0.726268
H227	H	0.841124	-0.156655	0.224458
H228	H	1.341124	0.343345	0.724458
C229	C	1.058586	0.087664	0.788014
C230	C	1.558586	0.587664	1.288014
H231	H	1.090407	0.123426	0.749465
H232	H	1.590407	0.623426	1.249465
H233	H	1.026478	0.116483	0.822124
H234	H	1.526478	0.616483	1.322124
H235	H	1.091830	0.060106	0.822097
H236	H	1.591830	0.560106	1.322097
C237	C	0.181710	0.128424	-0.000002
C238	C	0.681710	0.628424	0.499998
H239	H	0.125796	0.115308	-0.000011
H240	H	0.625796	0.615308	0.499989
H241	H	0.195102	0.156162	0.048420
H242	H	0.695102	0.656162	0.548420
H243	H	0.199484	0.161057	-0.048432
H244	H	0.699484	0.661057	0.451568
H245	H	0.463298	0.050948	-0.000013
H246	H	0.963298	0.550948	0.499987
H247	H	0.422537	-0.135543	-0.000019
H248	H	0.922537	0.364457	0.499981
