data_functionalizedCrystal
_audit_creation_method	'MofGen! by Chris Wilmer'
_symmetry_space_group_name_H-M	'P1'
_symmetry_Int_Tables_number	1
_symmetry_cell_setting	triclinic
loop_
_symmetry_equiv_pos_as_xyz
  x,y,z
_cell_length_a	15.944551
_cell_length_b	16.974829
_cell_length_c	16.053770
_cell_angle_alpha	83.469087
_cell_angle_beta	87.097463
_cell_angle_gamma	83.448291
loop_
_atom_site_label
_atom_site_type_symbol
_atom_site_fract_x
_atom_site_fract_y
_atom_site_fract_z
O1	O	0.113520	1.055148	-0.140724
O2	O	0.126437	0.824278	-0.125127
O3	O	-0.002285	0.946017	-0.133344
O4	O	0.242242	0.933408	-0.132507
O5	O	-0.008654	0.940072	0.005918
O6	O	0.120067	0.818333	0.014135
O7	O	0.107151	1.049203	-0.001462
Zn8	Zn	0.112598	0.932824	0.028447
Zn9	Zn	0.120990	0.940657	-0.155036
O10	O	0.235872	0.927464	0.006755
C11	C	0.122641	0.791762	-0.053500
C12	C	0.120811	0.703732	-0.047553
C13	C	0.110165	0.207864	-0.005926
C14	C	0.111884	0.290578	-0.011516
C15	C	0.116210	0.335176	-0.090224
C16	C	0.118825	0.297055	-0.163347
C17	C	0.117111	0.214342	-0.157756
C18	C	0.121712	0.582898	-0.115085
C19	C	0.123423	0.665617	-0.120670
C20	C	0.116484	0.659133	0.031161
C21	C	0.114766	0.576420	0.036745
C22	C	0.117385	0.538306	-0.036377
N23	N	0.117965	0.419723	-0.095940
N24	N	0.115636	0.453760	-0.030661
C25	C	-0.036764	0.942521	-0.063677
C26	C	-0.130013	0.940952	-0.063571
C27	C	-0.345021	0.861741	-0.058231
C28	C	-0.409108	0.895593	0.007948
C29	C	-0.300744	0.938113	-0.063386
C30	C	-0.402812	0.901472	-0.129354
C31	C	-0.465662	0.935365	-0.063210
C32	C	-0.363606	0.971983	0.002849
C33	C	-0.357301	0.977854	-0.134514
C34	C	-0.421372	1.011761	-0.068322
C35	C	-0.205739	0.939694	-0.063486
C36	C	-0.560666	0.933791	-0.063104
C37	C	0.270352	0.930960	-0.062913
C38	C	0.363601	0.932529	-0.063025
C39	C	0.110947	1.081719	-0.073091
C40	C	0.112777	1.169749	-0.079044
N41	N	0.126711	0.946002	-0.280259
C42	C	0.077527	0.899884	-0.320827
C43	C	0.081506	0.903636	-0.408488
C44	C	0.134674	0.953502	-0.455579
C45	C	0.183859	0.999625	-0.415004
C46	C	0.179876	0.995877	-0.327345
C47	C	0.152072	0.969860	-0.718097
C48	C	0.156054	0.973603	-0.805762
C49	C	0.053699	0.877614	-0.799240
C50	C	0.049723	0.873867	-0.711579
C51	C	0.098906	0.919994	-0.671013
N52	N	0.138744	0.957335	-0.545182
N53	N	0.094830	0.916164	-0.581411
N54	N	0.106870	0.927485	0.153669
H55	H	0.106646	0.171557	0.058166
C56	C	0.109024	0.332499	0.068913
H57	H	0.106197	0.294092	0.116589
H58	H	0.158494	0.358583	0.070285
H59	H	0.060608	0.370677	0.069493
H60	H	-0.454411	1.075207	-0.072569
H61	H	-0.334454	1.012607	-0.194748
H62	H	-0.420295	0.871638	-0.185226
C63	C	-0.008784	0.819037	-0.659787
H64	H	-0.037519	0.792118	-0.696505
H65	H	0.023905	0.781025	-0.623124
H66	H	-0.048853	0.850153	-0.627789
C67	C	0.110015	0.527367	0.123324
H68	H	0.108713	0.561912	0.166071
H69	H	0.060264	0.501004	0.128260
H70	H	0.158150	0.488926	0.129059
C71	C	0.206178	1.020591	-0.673484
H72	H	0.238419	1.050817	-0.714086
H73	H	0.170365	1.055677	-0.641745
H74	H	0.243145	0.986570	-0.637104
H75	H	0.013656	0.840062	-0.832279
C76	C	-0.300195	0.776102	-0.052367
H77	H	-0.264051	0.769979	-0.100626
H78	H	-0.267733	0.766208	-0.003519
H79	H	-0.341154	0.739284	-0.049353
H80	H	0.123842	0.551876	-0.174626
H81	H	0.114354	0.690175	0.090694
C82	C	0.128191	0.714673	-0.207252
H83	H	0.129514	0.680127	-0.250001
H84	H	0.080064	0.753115	-0.212996
H85	H	0.177949	0.741031	-0.212176
H86	H	0.034236	0.859274	-0.282492
C87	C	0.027408	0.852901	-0.453110
H88	H	-0.004819	0.822659	-0.412510
H89	H	-0.009559	0.886914	-0.489491
H90	H	0.063232	0.817817	-0.484849
C91	C	-0.340120	1.012232	0.078413
H92	H	-0.389975	1.028059	0.109996
H93	H	-0.303618	0.975664	0.112888
H94	H	-0.312286	1.057815	0.058969
H95	H	0.122352	0.333373	-0.227433
H96	H	0.119240	0.183310	-0.217296
H97	H	0.199356	1.014208	-0.844101
C98	C	0.242345	1.054474	-0.466801
H99	H	0.237681	1.050096	-0.524818
H100	H	0.226333	1.108130	-0.456097
H101	H	0.299112	1.039022	-0.451450
H102	H	-0.431933	0.860813	0.068181
H103	H	0.219926	1.033432	-0.294316
