data_functionalizedCrystal
_audit_creation_method	'MofGen! by Chris Wilmer'
_symmetry_space_group_name_H-M	'P1'
_symmetry_Int_Tables_number	1
_symmetry_cell_setting	triclinic
loop_
_symmetry_equiv_pos_as_xyz
  x,y,z
_cell_length_a	19.805407
_cell_length_b	18.050589
_cell_length_c	19.805398
_cell_angle_alpha	89.979370
_cell_angle_beta	89.984135
_cell_angle_gamma	90.028221
loop_
_atom_site_label
_atom_site_type_symbol
_atom_site_fract_x
_atom_site_fract_y
_atom_site_fract_z
Zn1	Zn	1.034702	-0.295689	-0.382745
Zn2	Zn	1.368036	0.037644	-0.049411
Zn3	Zn	1.701369	0.370978	0.283922
Zn4	Zn	1.034621	-0.419877	-0.269567
Zn5	Zn	1.367954	-0.086544	0.063767
Zn6	Zn	1.701288	0.246789	0.397100
Zn7	Zn	0.921524	-0.295706	-0.269569
Zn8	Zn	1.254858	0.037628	0.063764
Zn9	Zn	1.588191	0.370961	0.397098
Zn10	Zn	0.921477	-0.419842	-0.382713
Zn11	Zn	1.254810	-0.086508	-0.049380
Zn12	Zn	1.588144	0.246825	0.283953
O13	O	0.978081	-0.357778	-0.326148
O14	O	1.311415	-0.024445	0.007185
O15	O	1.644748	0.308888	0.340518
O16	O	1.129408	-0.312171	-0.367743
O17	O	1.462741	0.021163	-0.034410
O18	O	1.796075	0.354496	0.298923
O19	O	1.019604	-0.403428	-0.174850
O20	O	1.352938	-0.070095	0.158483
O21	O	1.686271	0.263239	0.491816
O22	O	0.936592	-0.191779	-0.284596
O23	O	1.269925	0.141554	0.048737
O24	O	1.603258	0.474888	0.382071
O25	O	1.129348	-0.403411	-0.284592
O26	O	1.462682	-0.070078	0.048741
O27	O	1.796015	0.263255	0.382075
O28	O	1.019743	-0.191766	-0.367746
O29	O	1.353076	0.141567	-0.034412
O30	O	1.686410	0.474900	0.298921
O31	O	0.936513	-0.312199	-0.174852
O32	O	1.269846	0.021134	0.158481
O33	O	1.603179	0.354467	0.491814
O34	O	0.826802	-0.312165	-0.284566
O35	O	1.160135	0.021169	0.048767
O36	O	1.493468	0.354502	0.382101
O37	O	0.936511	-0.403350	-0.477434
O38	O	1.269844	-0.070017	-0.144101
O39	O	1.603177	0.263316	0.189232
O40	O	0.826767	-0.403367	-0.367693
O41	O	1.160100	-0.070033	-0.034359
O42	O	1.493433	0.263300	0.298974
O43	O	1.019697	-0.312136	-0.477457
O44	O	1.353030	0.021197	-0.144124
O45	O	1.686364	0.354531	0.189210
O46	O	1.019558	-0.523797	-0.284562
O47	O	1.352892	-0.190464	0.048771
O48	O	1.686225	0.142869	0.382105
O49	O	0.936432	-0.523771	-0.367690
O50	O	1.269765	-0.190438	-0.034357
O51	O	1.603099	0.142896	0.298976
C52	C	0.802225	-0.357764	-0.326127
C53	C	1.135558	-0.024431	0.007207
C54	C	1.468892	0.308902	0.340540
C55	C	0.726993	-0.357776	-0.326133
C56	C	1.060327	-0.024443	0.007200
C57	C	1.393660	0.308891	0.340533
C58	C	0.977999	-0.550731	-0.326137
C59	C	1.311333	-0.217397	0.007196
C60	C	1.644666	0.115936	0.340529
C61	C	0.978026	-0.633276	-0.326155
C62	C	1.311360	-0.299943	0.007178
C63	C	1.644693	0.033390	0.340512
C64	C	0.691649	-0.405336	-0.369347
C65	C	1.024982	-0.072003	-0.036014
C66	C	1.358315	0.261330	0.297319
C67	C	0.620960	-0.405338	-0.369357
C68	C	0.954293	-0.072004	-0.036023
C69	C	1.287627	0.261329	0.297310
C70	C	0.585618	-0.357782	-0.326148
C71	C	0.918951	-0.024448	0.007185
C72	C	1.252284	0.308885	0.340518
C73	C	0.620967	-0.310216	-0.282933
C74	C	0.954300	0.023117	0.050401
C75	C	1.287634	0.356451	0.383734
C76	C	0.691654	-0.310212	-0.282927
C77	C	1.024988	0.023122	0.050406
C78	C	1.358321	0.356455	0.383740
C79	C	0.335894	-0.310233	-0.282955
C80	C	0.669227	0.023101	0.050378
C81	C	1.002560	0.356434	0.383712
C82	C	0.265202	-0.310242	-0.282962
C83	C	0.598535	0.023091	0.050371
C84	C	0.931868	0.356424	0.383704
C85	C	0.265200	-0.405359	-0.369385
C86	C	0.598533	-0.072025	-0.036051
C87	C	0.931866	0.261308	0.297282
C88	C	0.335887	-0.405354	-0.369379
C89	C	0.669220	-0.072021	-0.036046
C90	C	1.002554	0.261313	0.297288
C91	C	0.371230	-0.357786	-0.326166
C92	C	0.704564	-0.024453	0.007167
C93	C	1.037897	0.308881	0.340501
C94	C	0.447879	-0.357784	-0.326157
C95	C	0.781212	-0.024451	0.007176
C96	C	1.114545	0.308882	0.340509
C97	C	0.508970	-0.357787	-0.326153
C98	C	0.842304	-0.024453	0.007180
C99	C	1.175637	0.308880	0.340513
C100	C	0.932867	-0.832740	-0.371344
C101	C	1.266200	-0.499406	-0.038011
C102	C	1.599533	-0.166073	0.295322
C103	C	0.916372	-0.882176	-0.309581
C104	C	1.249706	-0.548843	0.023752
C105	C	1.583039	-0.215510	0.357085
C106	C	0.978093	-0.784407	-0.326164
C107	C	1.311426	-0.451073	0.007169
C108	C	1.644760	-0.117740	0.340503
C109	C	0.994621	-0.882051	-0.387934
C110	C	1.327954	-0.548718	-0.054601
C111	C	1.661287	-0.215385	0.278733
C112	C	0.978156	-0.930392	-0.326178
C113	C	1.311489	-0.597058	0.007156
C114	C	1.644823	-0.263725	0.340489
C115	C	0.961566	-0.832756	-0.264368
C116	C	1.294899	-0.499423	0.068965
C117	C	1.628233	-0.166090	0.402299
C118	C	1.039843	-0.832627	-0.342762
C119	C	1.373176	-0.499294	-0.009429
C120	C	1.706510	-0.165960	0.323904
C121	C	1.023372	-0.882042	-0.280957
C122	C	1.356705	-0.548708	0.052377
C123	C	1.690039	-0.215375	0.385710
C124	C	0.978055	-0.700308	-0.326157
C125	C	1.311388	-0.366975	0.007177
C126	C	1.644722	-0.033642	0.340510
C127	C	0.978194	-1.014488	-0.326178
C128	C	1.311527	-0.681155	0.007155
C129	C	1.644861	-0.347822	0.340489
C130	C	1.154624	-0.357793	-0.326171
C131	C	1.487957	-0.024460	0.007163
C132	C	1.821291	0.308873	0.340496
C133	C	1.229856	-0.357800	-0.326180
C134	C	1.563189	-0.024466	0.007153
C135	C	1.896523	0.308867	0.340486
C136	C	0.978108	-0.357737	-0.502691
C137	C	1.311441	-0.024404	-0.169358
C138	C	1.644774	0.308929	0.163975
C139	C	0.978119	-0.357720	-0.577923
C140	C	1.311452	-0.024386	-0.244590
C141	C	1.644786	0.308947	0.088743
C142	C	0.978182	-0.164073	-0.326175
C143	C	1.311515	0.169261	0.007159
C144	C	1.644848	0.502594	0.340492
C145	C	0.978224	-0.081527	-0.326186
C146	C	1.311558	0.251806	0.007148
C147	C	1.644891	0.585140	0.340481
C148	C	1.021516	-0.310093	-1.039727
C149	C	1.354849	0.023240	-0.706394
C150	C	1.688182	0.356574	-0.373061
C151	C	1.021505	-0.310116	-0.969039
C152	C	1.354838	0.023218	-0.635706
C153	C	1.688172	0.356551	-0.302372
C154	C	0.978188	-0.357616	-0.933685
C155	C	1.311522	-0.024283	-0.600352
C156	C	1.644855	0.309050	-0.267019
C157	C	0.934884	-0.405103	-0.969023
C158	C	1.268218	-0.071770	-0.635690
C159	C	1.601551	0.261564	-0.302357
C160	C	0.934899	-0.405083	-1.039711
C161	C	1.268232	-0.071750	-0.706377
C162	C	1.601566	0.261583	-0.373044
C163	C	0.934826	-0.405183	-0.683950
C164	C	1.268159	-0.071850	-0.350617
C165	C	1.601492	0.261483	-0.017283
C166	C	0.934813	-0.405198	-0.613258
C167	C	1.268146	-0.071864	-0.279925
C168	C	1.601480	0.261469	0.053409
C169	C	1.021432	-0.310216	-0.613278
C170	C	1.354765	0.023118	-0.279945
C171	C	1.688098	0.356451	0.053388
C172	C	1.021446	-0.310196	-0.683966
C173	C	1.354780	0.023137	-0.350632
C174	C	1.688113	0.356470	-0.017299
C175	C	0.978145	-0.357685	-0.719298
C176	C	1.311478	-0.024352	-0.385964
C177	C	1.644812	0.308982	-0.052631
C178	C	0.978158	-0.357661	-0.795946
C179	C	1.311491	-0.024328	-0.462613
C180	C	1.644825	0.309006	-0.129279
C181	C	0.978172	-0.357637	-0.857038
C182	C	1.311505	-0.024304	-0.523705
C183	C	1.644838	0.309029	-0.190371
C184	C	0.978094	-0.357766	-0.150292
C185	C	1.311427	-0.024432	0.183041
C186	C	1.644760	0.308901	0.516374
C187	C	0.978214	-0.357574	-0.075061
C188	C	1.311547	-0.024241	0.258272
C189	C	1.644880	0.309093	0.591606
H190	H	0.720419	-0.444064	-0.404530
H191	H	1.053753	-0.110731	-0.071197
H192	H	1.387086	0.222602	0.262136
H193	H	0.947552	-0.811192	-0.212121
H194	H	1.280885	-0.477859	0.121213
H195	H	1.614218	-0.144526	0.454546
H196	H	0.899566	-0.443851	-0.712709
H197	H	1.232900	-0.110518	-0.379376
H198	H	1.566233	0.222816	-0.046042
H199	H	0.894564	-0.811091	-0.409498
H200	H	1.227897	-0.477758	-0.076165
H201	H	1.561231	-0.144424	0.257169
C202	C	1.069098	-0.257942	-0.722851
C203	C	1.402432	0.075391	-0.389517
C204	C	1.735765	0.408724	-0.056184
N205	N	1.104993	-0.218586	-0.752138
N206	N	1.438327	0.114747	-0.418805
N207	N	1.771660	0.448081	-0.085472
H208	H	1.092022	-0.810848	-0.356819
H209	H	1.425355	-0.477515	-0.023485
H210	H	1.758688	-0.144182	0.309848
C211	C	1.013473	-0.911304	-0.458498
C212	C	1.346806	-0.577971	-0.125165
C213	C	1.680139	-0.244637	0.208169
N214	N	1.027668	-0.933334	-0.511648
N215	N	1.361001	-0.600001	-0.178315
N216	N	1.694334	-0.266667	0.155018
C217	C	0.226316	-0.457679	-0.416926
C218	C	0.559649	-0.124346	-0.083593
C219	C	0.892982	0.208988	0.249740
N220	N	0.197029	-0.497086	-0.452733
N221	N	0.530363	-0.163753	-0.119399
N222	N	0.863696	0.169581	0.213934
H223	H	1.056785	-0.271407	-1.068507
H224	H	1.390118	0.061926	-0.735174
H225	H	1.723451	0.395259	-0.401841
H226	H	1.056768	-0.271454	-0.940274
H227	H	1.390101	0.061880	-0.606940
H228	H	1.723434	0.395213	-0.273607
H229	H	1.056692	-0.271550	-0.584502
H230	H	1.390025	0.061783	-0.251169
H231	H	1.723358	0.395117	0.082164
C232	C	0.887162	-0.457458	-0.574370
C233	C	1.220495	-0.124124	-0.241037
C234	C	1.553828	0.209209	0.092297
N235	N	0.851272	-0.496818	-0.545080
N236	N	1.184606	-0.163484	-0.211746
N237	N	1.517939	0.169849	0.121587
H238	H	0.236428	-0.271512	-0.247777
H239	H	0.569761	0.061821	0.085556
H240	H	0.903094	0.395155	0.418890
C241	C	0.582084	-0.457672	-0.416883
C242	C	0.915418	-0.124339	-0.083549
C243	C	1.248751	0.208994	0.249784
N244	N	0.552803	-0.497098	-0.452677
N245	N	0.886137	-0.163764	-0.119344
N246	N	1.219470	0.169569	0.213990
C247	C	0.374762	-0.257911	-0.235415
C248	C	0.708096	0.075422	0.097918
C249	C	1.041429	0.408756	0.431252
N250	N	0.404040	-0.218501	-0.199604
N251	N	0.737374	0.114832	0.133729
N252	N	1.070707	0.448166	0.467062
C253	C	0.582088	-0.257902	-0.235404
C254	C	0.915421	0.075431	0.097929
C255	C	1.248754	0.408764	0.431262
N256	N	0.552804	-0.218500	-0.199604
N257	N	0.886138	0.114833	0.133730
N258	N	1.219471	0.448167	0.467063
C259	C	0.887234	-0.457353	-0.930132
C260	C	1.220568	-0.124020	-0.596798
C261	C	1.553901	0.209314	-0.263465
N262	N	0.851341	-0.496706	-0.900839
N263	N	1.184674	-0.163373	-0.567506
N264	N	1.518007	0.169960	-0.234172
H265	H	0.720431	-0.271479	-0.247741
H266	H	1.053764	0.061854	0.085592
H267	H	1.387098	0.395187	0.418926
H268	H	0.364659	-0.444082	-0.404562
H269	H	0.697993	-0.110748	-0.071228
H270	H	1.031326	0.222585	0.262105
C271	C	0.845862	-0.911579	-0.290617
C272	C	1.179195	-0.578246	0.042716
C273	C	1.512528	-0.244913	0.376049
N274	N	0.792752	-0.933724	-0.276338
N275	N	1.126085	-0.600390	0.056995
N276	N	1.459418	-0.267057	0.390328
C277	C	1.075075	-0.911109	-0.229289
C278	C	1.408409	-0.577776	0.104044
C279	C	1.741742	-0.244443	0.437378
N280	N	1.114015	-0.933005	-0.190371
N281	N	1.447348	-0.599672	0.142962
N282	N	1.780682	-0.266339	0.476296
C283	C	0.887262	-0.457315	-1.078577
C284	C	1.220595	-0.123981	-0.745244
C285	C	1.553928	0.209352	-0.411910
N286	N	0.851381	-0.496658	-1.107850
N287	N	1.184714	-0.163325	-0.774517
N288	N	1.518047	0.170008	-0.441184
