data_functionalizedCrystal
_audit_creation_method	'MofGen! by Chris Wilmer'
_symmetry_space_group_name_H-M	'P1'
_symmetry_Int_Tables_number	1
_symmetry_cell_setting	triclinic
loop_
_symmetry_equiv_pos_as_xyz
  x,y,z
_cell_length_a	8.559649
_cell_length_b	12.837942
_cell_length_c	7.681481
_cell_angle_alpha	83.650030
_cell_angle_beta	94.913240
_cell_angle_gamma	82.303802
loop_
_atom_site_label
_atom_site_type_symbol
_atom_site_fract_x
_atom_site_fract_y
_atom_site_fract_z
O1	O	2.101390	-0.023863	-0.146400
O2	O	1.644239	0.029032	-0.146410
O3	O	1.862678	-0.147512	-0.146394
O4	O	1.882950	0.152681	-0.146416
O5	O	1.889558	-0.169285	0.146465
O6	O	1.671118	0.007259	0.146450
O7	O	2.128269	-0.045636	0.146459
Zn8	Zn	1.903962	-0.022646	0.192952
Zn9	Zn	1.868546	0.006042	-0.192903
O10	O	1.909830	0.130908	0.146444
C11	C	1.598759	0.022154	0.000019
C12	C	1.423195	0.034086	0.000015
C13	C	1.869269	-0.196474	0.000034
C14	C	1.848843	-0.309925	0.000031
C15	C	2.094400	-0.570430	-0.000001
C16	C	2.075215	-0.677028	-0.000004
C17	C	1.791288	-0.629721	0.000008
C18	C	1.810473	-0.523122	0.000012
C19	C	1.962034	-0.493482	0.000010
C20	C	1.981219	-0.386882	0.000026
C21	C	1.697292	-0.339576	0.000025
C22	C	1.678107	-0.446174	0.000022
C23	C	2.173749	-0.038758	0.000027
C24	C	2.349311	-0.050689	0.000019
C25	C	1.903238	0.179870	0.000011
C26	C	1.923664	0.293322	0.000003
N27	N	1.928143	-0.042226	0.456288
N28	N	1.844376	0.025613	-0.456239
H29	H	1.420367	-0.132396	0.000016
H30	H	1.352129	0.115800	0.000000
H31	H	1.554709	-0.470323	0.000017
C32	C	2.147926	-0.354277	0.000018
H33	H	2.224007	-0.415374	-0.000007
H34	H	2.170699	-0.321273	0.102144
H35	H	2.151926	-0.306079	-0.102122
C36	C	2.261106	-0.537821	0.000011
H37	H	2.337193	-0.598917	0.000001
H38	H	2.283860	-0.504815	0.102139
H39	H	2.265118	-0.489625	-0.102127
H40	H	1.589511	-0.276913	0.000048
H41	H	1.758867	0.094856	0.468558
C42	C	2.043671	-0.135771	0.557880
H43	H	2.041040	-0.133642	0.680841
H44	H	2.148004	-0.130878	0.527731
H45	H	2.013214	-0.200511	0.527761
H46	H	2.183001	-0.739677	-0.000018
H47	H	1.667891	-0.653873	-0.000009
