data_functionalizedCrystal
_audit_creation_method	'MofGen! by Chris Wilmer'
_symmetry_space_group_name_H-M	'P1'
_symmetry_Int_Tables_number	1
_symmetry_cell_setting	triclinic
loop_
_symmetry_equiv_pos_as_xyz
  x,y,z
_cell_length_a	10.489741
_cell_length_b	14.519709
_cell_length_c	13.596369
_cell_angle_alpha	90.006934
_cell_angle_beta	90.002617
_cell_angle_gamma	84.109659
loop_
_atom_site_label
_atom_site_type_symbol
_atom_site_fract_x
_atom_site_fract_y
_atom_site_fract_z
O1	O	-1.692699	-0.130116	-0.081733
O2	O	-1.192699	0.369884	0.418267
O3	O	-1.321376	-0.142329	-0.081748
O4	O	-0.821376	0.357671	0.418252
O5	O	-1.516882	-0.002038	-0.081731
O6	O	-1.016882	0.497962	0.418269
O7	O	-1.497192	-0.270407	-0.081750
O8	O	-0.997192	0.229593	0.418250
O9	O	-1.516863	-0.002030	0.081851
O10	O	-1.016863	0.497970	0.581851
O11	O	-1.321356	-0.142322	0.081834
O12	O	-0.821356	0.357678	0.581834
O13	O	-1.692679	-0.130108	0.081850
O14	O	-1.192679	0.369892	0.581850
Zn15	Zn	-1.507015	-0.136214	0.107814
Zn16	Zn	-1.007015	0.363786	0.607814
Zn17	Zn	-1.507040	-0.136224	-0.107713
Zn18	Zn	-1.007040	0.363776	0.392287
O19	O	-1.497173	-0.270400	0.081833
O20	O	-0.997173	0.229600	0.581833
C21	C	-1.273844	-0.141403	0.000041
C22	C	-0.773844	0.358597	0.500041
C23	C	-1.132243	-0.138643	0.000035
C24	C	-0.632243	0.361357	0.500035
C25	C	-1.740211	-0.131035	0.000058
C26	C	-1.240211	0.368965	0.500058
C27	C	-1.881812	-0.133794	0.000057
C28	C	-1.381812	0.366206	0.500057
C29	C	-1.515955	0.032331	0.000060
C30	C	-1.015955	0.532331	0.500060
C31	C	-1.513205	0.134727	0.000061
C32	C	-1.013205	0.634727	0.500061
C33	C	-1.065034	-0.049380	0.000051
C34	C	-0.565034	0.450620	0.500051
C35	C	-0.972477	-0.091551	-0.080605
C36	C	-0.472477	0.408449	0.419395
C37	C	-0.972491	-0.091565	0.080675
C38	C	-0.472491	0.408435	0.580675
C39	C	-1.041551	-0.180851	-0.080687
C40	C	-0.541551	0.319149	0.419313
C41	C	-1.041576	-0.180852	0.080665
C42	C	-0.541576	0.319148	0.580665
C43	C	-0.949046	-0.223088	-0.000010
C44	C	-0.449046	0.276912	0.499990
C45	C	-1.498100	-0.304768	0.000039
C46	C	-0.998100	0.195232	0.500039
C47	C	-1.500850	-0.407165	0.000032
C48	C	-1.000850	0.092835	0.500032
N49	N	-1.507006	-0.136206	0.254906
N50	N	-1.007006	0.363794	0.754906
C51	C	-1.503082	0.509678	0.000035
C52	C	-1.003082	1.009678	0.500035
C53	C	-1.505893	0.405355	0.000042
C54	C	-1.005893	0.905355	0.500042
C55	C	-1.508143	0.322206	0.000048
C56	C	-1.008143	0.822206	0.500048
C57	C	-1.510955	0.217876	0.000054
C58	C	-1.010955	0.717876	0.500054
N59	N	-1.507059	-0.136224	-0.254805
N60	N	-1.007059	0.363776	0.245195
C61	C	-1.507039	-0.136225	0.656197
C62	C	-1.007039	0.363775	1.156197
C63	C	-1.507026	-0.136223	0.544546
C64	C	-1.007026	0.363777	1.044546
C65	C	-1.507023	-0.136216	0.455555
C66	C	-1.007023	0.363784	0.955555
C67	C	-1.507009	-0.136213	0.343897
C68	C	-1.007009	0.363787	0.843897
H69	H	-1.115488	0.024000	-0.000045
H70	H	-0.615488	0.524000	0.499955
C71	C	-0.748356	-0.318863	0.000738
C72	C	-0.248356	0.181137	0.500738
C73	C	-0.881276	-0.322248	-0.000071
C74	C	-0.381276	0.177752	0.499929
H75	H	-0.706518	-0.380080	0.000703
H76	H	-0.206518	0.119920	0.500703
H77	H	-0.723661	-0.286927	-0.056008
H78	H	-0.223661	0.213073	0.443992
H79	H	-0.724743	-0.287299	0.058078
H80	H	-0.224743	0.212701	0.558078
H81	H	-0.904890	-0.353806	-0.057415
H82	H	-0.404890	0.146194	0.442585
H83	H	-0.905980	-0.354198	0.056681
H84	H	-0.405980	0.145802	0.556681
C85	C	-0.990257	0.050385	-0.172499
C86	C	-0.490257	0.550385	0.327501
C87	C	-0.931135	-0.040571	-0.172648
C88	C	-0.431135	0.459429	0.327352
H89	H	-0.964730	0.081861	-0.229317
H90	H	-0.464730	0.581861	0.270683
H91	H	-1.080667	0.049486	-0.172867
H92	H	-0.580667	0.549486	0.327133
H93	H	-0.965451	0.081498	-0.115216
H94	H	-0.465451	0.581498	0.384784
H95	H	-0.955949	-0.071686	-0.229928
H96	H	-0.455949	0.428314	0.270072
H97	H	-0.840705	-0.039676	-0.172290
H98	H	-0.340705	0.460324	0.327710
C99	C	-1.215792	-0.233883	-0.172048
C100	C	-0.715792	0.266117	0.327952
C101	C	-1.082637	-0.231795	-0.172850
C102	C	-0.582637	0.268205	0.327150
H103	H	-1.241156	-0.265326	-0.228949
H104	H	-0.741156	0.234674	0.271051
H105	H	-1.239985	-0.265378	-0.114854
H106	H	-0.739985	0.234622	0.385146
H107	H	-1.256538	-0.172356	-0.171812
H108	H	-0.756538	0.327644	0.328188
H109	H	-1.041891	-0.293322	-0.173078
H110	H	-0.541891	0.206678	0.326922
H111	H	-1.058432	-0.200301	-0.230059
H112	H	-0.558432	0.299699	0.269941
H113	H	-0.941899	-0.053776	0.148864
H114	H	-0.441899	0.446224	0.648864
C115	C	-1.048508	-0.184912	0.257101
C116	C	-0.548508	0.315088	0.757101
C117	C	-1.082968	-0.231790	0.172714
C118	C	-0.582968	0.268210	0.672714
H119	H	-1.074074	-0.216352	0.313932
H120	H	-0.574074	0.283648	0.813932
H121	H	-0.958272	-0.183042	0.258095
H122	H	-0.458272	0.316958	0.758095
H123	H	-1.089828	-0.123554	0.256513
H124	H	-0.589828	0.376446	0.756513
H125	H	-1.041640	-0.293147	0.173298
H126	H	-0.541640	0.206853	0.673298
H127	H	-1.173221	-0.233670	0.171720
H128	H	-0.673221	0.266330	0.671720
