data_functionalizedCrystal
_audit_creation_method	'MofGen! by Chris Wilmer'
_symmetry_space_group_name_H-M	'P1'
_symmetry_Int_Tables_number	1
_symmetry_cell_setting	triclinic
loop_
_symmetry_equiv_pos_as_xyz
  x,y,z
_cell_length_a	13.101039
_cell_length_b	9.065218
_cell_length_c	9.065218
_cell_angle_alpha	94.984115
_cell_angle_beta	86.586078
_cell_angle_gamma	86.592352
loop_
_atom_site_label
_atom_site_type_symbol
_atom_site_fract_x
_atom_site_fract_y
_atom_site_fract_z
O1	O	0.085213	-1.968410	0.208321
O2	O	0.085214	-1.539125	0.226068
O3	O	0.085211	-1.762641	0.002552
O4	O	0.085215	-1.744894	0.431837
O5	O	-0.085218	-1.746604	0.018616
O6	O	-0.085216	-1.523088	0.242132
O7	O	-0.085217	-1.952373	0.224385
Zn8	Zn	-0.112276	-1.735185	0.235809
Zn9	Zn	0.112273	-1.756314	0.214644
O10	O	-0.085214	-1.728858	0.447901
C11	C	-0.000001	-1.476120	0.232394
C12	C	-0.000000	-1.312277	0.227294
N13	N	-0.265524	-1.720776	0.250253
C14	C	-0.000002	-1.752917	-0.044402
C15	C	0.000003	-1.747818	-0.208246
C16	C	-0.474566	-1.701171	0.269917
C17	C	-0.525443	-1.790334	0.180529
C18	C	-0.641761	-1.779426	0.191471
C19	C	-0.358238	-1.712078	0.258978
N20	N	0.265521	-1.770734	0.200189
C21	C	0.000000	-2.015378	0.218059
C22	C	0.000006	-2.179222	0.223158
C23	C	0.000001	-1.738582	0.494855
C24	C	0.000003	-1.743682	0.658698
H25	H	-0.481642	-1.874861	0.095785
O26	O	-0.526767	-1.600141	0.370864
C27	C	-0.559833	-1.341798	0.457312
C28	C	-0.500653	-1.456046	0.342880
H29	H	-0.538725	-1.225274	0.434747
H30	H	-0.645704	-1.350734	0.448230
H31	H	-0.538826	-1.364825	0.573756
H32	H	-0.521573	-1.433093	0.226385
H33	H	-0.414796	-1.447084	0.352092
