data_functionalizedCrystal
_audit_creation_method	'MofGen! by Chris Wilmer'
_symmetry_space_group_name_H-M	'P1'
_symmetry_Int_Tables_number	1
_symmetry_cell_setting	triclinic
loop_
_symmetry_equiv_pos_as_xyz
  x,y,z
_cell_length_a	14.519709
_cell_length_b	14.519731
_cell_length_c	11.295483
_cell_angle_alpha	85.886642
_cell_angle_beta	85.891168
_cell_angle_gamma	96.315501
loop_
_atom_site_label
_atom_site_type_symbol
_atom_site_fract_x
_atom_site_fract_y
_atom_site_fract_z
O1	O	-0.114786	1.230056	-0.099011
O2	O	-0.129002	0.961582	-0.099011
O3	O	0.012345	1.102938	-0.099022
O4	O	-0.256132	1.088700	-0.099001
O5	O	-0.000051	1.090522	0.099029
O6	O	-0.141397	0.949166	0.099040
O7	O	-0.127181	1.217641	0.099040
Cu8	Cu	-0.135421	1.082270	0.117124
Cu9	Cu	-0.120762	1.096953	-0.117095
O10	O	-0.268528	1.076285	0.099051
C11	C	-0.134533	0.921015	0.000014
C12	C	-0.132537	0.818635	0.000013
C13	C	-0.130915	0.735491	0.000009
C14	C	-0.128888	0.631182	0.000008
C15	C	-0.127280	0.548043	0.000008
C16	C	-0.125253	0.443728	0.000005
C17	C	-0.296690	1.083156	0.000028
C18	C	-0.399072	1.085143	0.000036
C19	C	-0.773965	1.092466	-0.000011
C20	C	-0.669658	1.090432	0.000002
C21	C	-0.586522	1.088805	0.000014
C22	C	-0.482208	1.086771	0.000025
C23	C	0.040507	1.096067	-0.000002
C24	C	0.142890	1.094080	-0.000018
C25	C	-0.121649	1.258208	0.000012
C26	C	-0.123645	1.360589	0.000005
N27	N	-0.145731	1.071949	0.281861
N28	N	-0.110445	1.107280	-0.281832
C29	C	-0.036176	1.181573	0.531142
C30	C	-0.043974	1.173780	0.655806
C31	C	-0.169120	1.048567	0.655856
C32	C	-0.161322	1.056360	0.531192
C33	C	-0.094849	1.122866	0.468839
C34	C	-0.087056	1.130662	0.344173
C35	C	-0.212197	1.005446	0.344225
C36	C	-0.219995	0.997653	0.468889
H37	H	-0.032933	1.184817	0.293406
C38	C	-0.276741	0.940864	0.275687
C39	C	-0.268168	0.949438	0.138561
C40	C	-0.332714	0.884862	0.070021
C41	C	-0.405832	0.811713	0.138607
C42	C	-0.414408	0.803136	0.275740
C43	C	-0.349863	0.867711	0.344280
H44	H	-0.214039	1.003590	0.087783
H45	H	-0.326365	0.891212	-0.031495
H46	H	-0.453612	0.763910	0.087869
H47	H	-0.468537	0.748983	0.326518
H48	H	-0.356212	0.861362	0.445796
C49	C	0.036937	1.254730	0.462548
C50	C	0.140890	1.251948	0.479675
C51	C	0.214004	1.325107	0.411083
C52	C	0.183165	1.401048	0.325365
C53	C	0.079207	1.403833	0.308235
C54	C	0.006093	1.330674	0.376826
H55	H	0.163724	1.195729	0.543132
H56	H	0.290961	1.323045	0.423765
H57	H	0.237288	1.455205	0.274590
H58	H	0.056373	1.460052	0.244778
H59	H	-0.070864	1.332736	0.364144
C60	C	0.020564	1.238361	0.724341
C61	C	0.093666	1.311525	0.655750
C62	C	0.158208	1.376108	0.724285
C63	C	0.149648	1.367527	0.861411
C64	C	0.076543	1.294360	0.930010
C65	C	0.012001	1.229777	0.861475
H66	H	0.100005	1.317879	0.554235
H67	H	0.212325	1.430270	0.673503
H68	H	0.197426	1.415335	0.912145
H69	H	0.070204	1.288006	1.031525
H70	H	-0.042116	1.175615	0.912257
H71	H	-0.223234	0.994414	0.706640
H72	H	-0.274114	0.943503	0.519671
