data_functionalizedCrystal
_audit_creation_method	'MofGen! by Chris Wilmer'
_symmetry_space_group_name_H-M	'P1'
_symmetry_Int_Tables_number	1
_symmetry_cell_setting	triclinic
loop_
_symmetry_equiv_pos_as_xyz
  x,y,z
_cell_length_a	19.805407
_cell_length_b	16.120531
_cell_length_c	19.805399
_cell_angle_alpha	92.867547
_cell_angle_beta	90.019573
_cell_angle_gamma	87.067642
loop_
_atom_site_label
_atom_site_type_symbol
_atom_site_fract_x
_atom_site_fract_y
_atom_site_fract_z
Zn1	Zn	1.021043	0.331927	0.396361
Zn2	Zn	1.015207	0.471346	0.288902
Zn3	Zn	0.907857	0.331950	0.283186
Zn4	Zn	0.902072	0.471302	0.402047
O5	O	0.961545	0.401631	0.342624
O6	O	1.114985	0.350431	0.382118
O7	O	1.000945	0.452883	0.193428
O8	O	0.927735	0.215281	0.293427
O9	O	1.110698	0.452861	0.303169
O10	O	1.010892	0.215264	0.376576
O11	O	0.922076	0.350470	0.189229
O12	O	0.812374	0.350427	0.298941
O13	O	0.917876	0.452785	0.496008
O14	O	0.808123	0.452807	0.386267
O15	O	1.005283	0.350388	0.491830
O16	O	0.995336	0.588006	0.308683
O17	O	0.912216	0.587974	0.391810
C18	C	0.785690	0.401615	0.342601
C19	C	0.710457	0.401629	0.342609
C20	C	0.672914	0.455019	0.388013
C21	C	0.602226	0.455020	0.388022
C22	C	0.569081	0.401635	0.342624
C23	C	0.606629	0.348239	0.297218
C24	C	0.677317	0.348234	0.297212
C25	C	0.321555	0.348258	0.297241
C26	C	0.250863	0.348269	0.297249
C27	C	0.246464	0.455043	0.388051
C28	C	0.317152	0.455038	0.388045
C29	C	0.354694	0.401640	0.342642
C30	C	0.431342	0.401638	0.342633
C31	C	0.492434	0.401641	0.342629
C32	C	0.952534	0.618240	0.351498
C33	C	0.948740	0.710906	0.355317
C34	C	0.941819	0.880568	0.362304
C35	C	0.981297	0.921854	0.322906
C36	C	0.977445	1.016260	0.326793
C37	C	0.945669	0.786154	0.358417
C38	C	1.138087	0.401648	0.342647
C39	C	1.213319	0.401655	0.342657
C40	C	0.961585	0.401579	0.519165
C41	C	0.961602	0.401556	0.594396
C42	C	0.970586	1.184177	0.333717
C43	C	0.974377	1.091511	0.329890
C44	C	0.961546	0.401624	0.166768
C45	C	0.961670	0.401411	0.091527
C46	C	1.007116	0.348235	0.627565
C47	C	1.007124	0.348211	0.698253
C48	C	0.961621	0.401513	0.735770
C49	C	0.916102	0.454836	0.702595
C50	C	0.916091	0.454856	0.631908
C51	C	0.916143	0.454759	0.987665
C52	C	0.916159	0.454737	1.058356
C53	C	1.007176	0.348114	1.054010
C54	C	1.007166	0.348134	0.983323
C55	C	0.961645	0.401453	0.950155
C56	C	0.961636	0.401478	0.873507
C57	C	0.961632	0.401493	0.812416
H58	H	0.571661	0.498496	0.424994
C59	C	0.262307	0.242702	0.207497
C60	C	0.214429	0.289577	0.247348
H61	H	0.239813	0.206467	0.176696
H62	H	0.288358	0.278975	0.183039
H63	H	0.291215	0.210861	0.235733
H64	H	0.185524	0.321422	0.219113
H65	H	0.188367	0.253299	0.271809
C66	C	1.021272	0.235933	1.128909
C67	C	1.057209	0.289491	1.090468
H68	H	1.052162	0.199741	1.151411
H69	H	0.994181	0.267672	1.161367
H70	H	0.993110	0.204053	1.100014
H71	H	1.085368	0.321376	1.119364
H72	H	1.084312	0.257749	1.058006
C73	C	0.824603	0.466340	0.908635
C74	C	0.866111	0.513365	0.951204
H75	H	0.793713	0.502522	0.886125
H76	H	0.851703	0.434603	0.876183
H77	H	0.800235	0.430011	0.934730
H78	H	0.890484	0.549689	0.925108
H79	H	0.839008	0.545116	0.983660
C80	C	0.902010	0.567012	0.556990
C81	C	0.866067	0.513469	0.595439
H82	H	0.871124	0.603192	0.534471
H83	H	0.930165	0.598898	0.585876
H84	H	0.929108	0.535256	0.524538
H85	H	0.838972	0.545224	0.627894
H86	H	0.837899	0.481580	0.566550
H87	H	0.879101	0.498143	1.088901
C88	C	0.826128	0.560230	0.699786
C89	C	0.866082	0.513427	0.743831
H90	H	0.795246	0.596400	0.725244
H91	H	0.854283	0.592129	0.673526
H92	H	0.801749	0.523901	0.670725
H93	H	0.890464	0.549756	0.772889
H94	H	0.837922	0.481526	0.770102
C95	C	0.661459	0.560557	0.477776
C96	C	0.709343	0.513699	0.437919
H97	H	0.683950	0.596779	0.508591
H98	H	0.632555	0.592402	0.449552
H99	H	0.635407	0.524265	0.502226
H100	H	0.735393	0.549990	0.413465
H101	H	0.738259	0.481852	0.466147
C102	C	0.898009	1.014146	0.406087
C103	C	0.892284	0.928559	0.411771
H104	H	0.867423	1.043779	0.436621
H105	H	0.942907	1.028302	0.416614
H106	H	0.887566	1.028402	0.361171
H107	H	0.902731	0.914303	0.456686
H108	H	0.847375	0.914398	0.401248
H109	H	1.044222	0.304733	0.952781
C110	C	0.305702	0.560578	0.477810
C111	C	0.353584	0.513718	0.437951
H112	H	0.328195	0.596799	0.508623
H113	H	0.276798	0.592425	0.449586
H114	H	0.279649	0.524288	0.502260
H115	H	0.379634	0.550007	0.413496
H116	H	0.382499	0.481869	0.466178
H117	H	0.215889	0.498520	0.425023
H118	H	1.044173	0.304833	0.597024
H119	H	1.017986	0.886299	0.286256
C120	C	1.097102	0.242832	0.686857
C121	C	1.057160	0.289605	0.734713
H122	H	1.127996	0.206653	0.709367
H123	H	1.068941	0.210945	0.657978
H124	H	1.121468	0.279180	0.660777
H125	H	1.032790	0.253257	0.760790
H126	H	1.085325	0.321494	0.763604
H127	H	0.579637	0.304769	0.260256
H128	H	0.352113	0.304784	0.260266
H129	H	0.707883	0.304754	0.260243
