data_functionalizedCrystal
_audit_creation_method	'MofGen! by Chris Wilmer'
_symmetry_space_group_name_H-M	'P1'
_symmetry_Int_Tables_number	1
_symmetry_cell_setting	triclinic
loop_
_symmetry_equiv_pos_as_xyz
  x,y,z
_cell_length_a	17.640280
_cell_length_b	19.805407
_cell_length_c	19.805399
_cell_angle_alpha	89.980427
_cell_angle_beta	101.223110
_cell_angle_gamma	101.199888
loop_
_atom_site_label
_atom_site_type_symbol
_atom_site_fract_x
_atom_site_fract_y
_atom_site_fract_z
Zn1	Zn	-0.314680	-1.089281	0.328317
Zn2	Zn	-0.446853	-1.112106	0.192279
Zn3	Zn	-0.314701	-0.976099	0.215138
Zn4	Zn	-0.446811	-0.998962	0.305433
O5	O	-0.380761	-1.044112	0.260292
O6	O	-0.332221	-1.187026	0.310282
O7	O	-0.429350	-1.094048	0.100590
O8	O	-0.204095	-0.971992	0.249296
O9	O	-0.429329	-1.203796	0.210335
O10	O	-0.204079	-1.055146	0.332448
O11	O	-0.332258	-0.994125	0.117385
O12	O	-0.332218	-0.884414	0.227105
O13	O	-0.429257	-1.010958	0.403190
O14	O	-0.429278	-0.901211	0.293444
O15	O	-0.332180	-1.077315	0.420003
O16	O	-0.557452	-1.116217	0.188145
O17	O	-0.557421	-1.033091	0.271278
C18	C	-0.380746	-0.868253	0.260272
C19	C	-0.380759	-0.793023	0.260277
C20	C	-0.586114	-1.079630	0.224762
C21	C	-0.673965	-1.094887	0.209586
C22	C	-0.380712	-1.044141	0.436843
C23	C	-0.380690	-1.044154	0.512079
C24	C	-0.962953	-0.928484	0.375835
C25	C	-1.045502	-0.942822	0.361553
C26	C	-1.045469	-1.029435	0.275073
C27	C	-0.962918	-1.015107	0.289351
C28	C	-0.921667	-0.964630	0.339732
C29	C	-0.921632	-1.051253	0.253247
C30	C	-0.839088	-1.036924	0.267522
C31	C	-0.797831	-0.986448	0.317899
C32	C	-0.839123	-0.950301	0.354006
C33	C	-0.962885	-1.101726	0.202863
C34	C	-0.921598	-1.137872	0.166760
C35	C	-0.839053	-1.123546	0.181037
C36	C	-0.797796	-1.073071	0.231415
C37	C	-0.797761	-1.159693	0.144930
C38	C	-0.715217	-1.145364	0.159204
C39	C	-0.715252	-1.058741	0.245689
C40	C	-0.174606	-1.008473	0.295974
C41	C	-0.086756	-0.993286	0.311180
C42	C	-0.380777	-1.220657	0.260311
C43	C	-0.380784	-1.295890	0.260320
C44	C	-0.431374	-0.766456	0.294736
C45	C	-0.431376	-0.695768	0.294746
C46	C	-0.380765	-0.651649	0.260291
C47	C	-0.330144	-0.678220	0.225831
C48	C	-0.330139	-0.748906	0.225826
C49	C	-0.330161	-0.393149	0.225850
C50	C	-0.330172	-0.322459	0.225856
C51	C	-0.431398	-0.340012	0.294770
C52	C	-0.431393	-0.410698	0.294765
C53	C	-0.380770	-0.437262	0.260308
C54	C	-0.380768	-0.513910	0.260299
C55	C	-0.380770	-0.575003	0.260295
C56	C	-0.380754	-1.044112	0.084437
C57	C	-0.380553	-1.044192	0.009240
C58	C	-0.330140	-1.078706	0.556179
C59	C	-0.330117	-1.078709	0.626872
C60	C	-0.380649	-1.044163	0.653462
C61	C	-0.431202	-1.009606	0.609356
C62	C	-0.431220	-1.009600	0.538666
C63	C	-0.431128	-1.009632	0.894442
C64	C	-0.431107	-1.009643	0.965138
C65	C	-0.330025	-1.078741	0.982648
C66	C	-0.330043	-1.078735	0.911958
C67	C	-0.380593	-1.044175	0.867859
C68	C	-0.380616	-1.044171	0.791206
C69	C	-0.380631	-1.044171	0.730112
H70	H	-0.681663	-1.017643	0.286719
F71	F	-0.709979	-0.971319	0.333213
H72	H	-0.472593	-0.674141	0.322805
H73	H	-0.831360	-1.200787	0.103905
H74	H	-0.288863	-1.106879	1.018563
F75	F	-0.671274	-1.183830	0.120774
F76	F	-0.276342	-1.115513	0.673799
H77	H	-0.472343	-0.981475	0.631011
H78	H	-0.472615	-0.318374	0.322830
F79	F	-0.276281	-0.421412	0.189180
F80	F	-0.276275	-0.631262	0.189166
F81	F	-0.485246	-0.813407	0.331405
H82	H	-0.929364	-0.887386	0.416866
F83	F	-0.485263	-0.457650	0.331433
F84	F	-1.089440	-0.904339	0.399977
H85	H	-0.288918	-0.770534	0.197770
F86	F	-1.089380	-1.083155	0.221456
H87	H	-1.030097	-1.113393	0.191244
F88	F	-0.965509	-1.191592	0.113143
F89	F	-0.276301	-0.275504	0.189183
H90	H	-0.288993	-1.106840	0.534535
H91	H	-0.288898	-1.106868	0.890312
H92	H	-0.472258	-0.981509	0.986784
F93	F	-0.484927	-0.972850	0.847518
F94	F	-0.485021	-0.972822	0.491731
H95	H	-0.805534	-0.909202	0.395037
