data_functionalizedCrystal
_audit_creation_method	'MofGen! by Chris Wilmer'
_symmetry_space_group_name_H-M	'P1'
_symmetry_Int_Tables_number	1
_symmetry_cell_setting	triclinic
loop_
_symmetry_equiv_pos_as_xyz
  x,y,z
_cell_length_a	10.723022
_cell_length_b	10.723024
_cell_length_c	7.540329
_cell_angle_alpha	89.997572
_cell_angle_beta	89.997341
_cell_angle_gamma	84.467548
loop_
_atom_site_label
_atom_site_type_symbol
_atom_site_fract_x
_atom_site_fract_y
_atom_site_fract_z
O1	O	1.657187	0.175016	-0.147466
O2	O	2.157187	0.675016	0.352534
O3	O	1.294034	0.191771	-0.147472
O4	O	1.794034	0.691771	0.352528
O5	O	1.483987	0.001818	-0.147462
O6	O	1.983987	0.501818	0.352538
O7	O	1.467234	0.364970	-0.147476
O8	O	1.967234	0.864970	0.352524
O9	O	1.483976	0.001815	0.147503
O10	O	1.983976	0.501815	0.647503
O11	O	1.294023	0.191769	0.147493
O12	O	1.794023	0.691769	0.647493
O13	O	1.657176	0.175014	0.147499
O14	O	2.157176	0.675014	0.647499
Cu15	Cu	1.475598	0.183391	0.174429
Cu16	Cu	1.975598	0.683391	0.674429
Cu17	Cu	1.475612	0.183394	-0.174402
Cu18	Cu	1.975612	0.683394	0.325598
O19	O	1.467223	0.364968	0.147490
O20	O	1.967223	0.864968	0.647490
C21	C	1.247529	0.190551	0.000010
C22	C	1.747529	0.690551	0.500010
C23	C	1.108975	0.186904	0.000008
C24	C	1.608975	0.686904	0.500008
C25	C	1.060414	0.077365	0.000011
C26	C	1.560414	0.577365	0.500011
C27	C	0.917211	0.073593	0.000009
C28	C	1.417211	0.573593	0.500009
C29	C	1.482763	-0.044683	0.000018
C30	C	1.982763	0.455317	0.500018
C31	C	1.479115	-0.183238	0.000012
C32	C	1.979115	0.316762	0.500012
C33	C	1.585403	-0.258221	0.000011
C34	C	2.085403	0.241779	0.500011
C35	C	1.581635	-0.401424	0.000005
C36	C	2.081635	0.098576	0.500005
C37	C	1.703681	0.176234	0.000013
C38	C	2.203681	0.676234	0.500013
C39	C	1.842235	0.179881	0.000004
C40	C	2.342235	0.679881	0.500004
C41	C	1.468448	0.411468	0.000005
C42	C	1.968448	0.911468	0.500005
C43	C	1.472095	0.550023	-0.000000
C44	C	1.972095	1.050023	0.500000
N45	N	1.475598	0.183388	0.419777
N46	N	1.975598	0.683388	0.919777
N47	N	1.475622	0.183387	-0.419750
N48	N	1.975622	0.683387	0.080250
H49	H	0.884039	0.273673	0.000011
H50	H	1.384039	0.773673	0.500011
C51	C	1.704564	-0.488467	0.000005
C52	C	2.204564	0.011533	0.500005
N53	N	1.797158	-0.554032	0.000003
N54	N	2.297158	-0.054032	0.500003
H55	H	0.875399	-0.020195	-0.000033
H56	H	1.375399	0.479805	0.499967
C57	C	1.021921	0.309831	0.000004
C58	C	1.521921	0.809831	0.500004
N59	N	0.956354	0.402423	0.000004
N60	N	1.456354	0.902423	0.500004
C61	C	1.147467	-0.045562	0.000028
C62	C	1.647467	0.454438	0.500028
N63	N	1.213034	-0.138154	0.000048
N64	N	1.713034	0.361846	0.500048
H65	H	1.679188	-0.216399	0.000023
H66	H	2.179188	0.283601	0.500023
C67	C	1.349161	-0.362942	-0.000001
C68	C	1.849161	0.137058	0.499999
N69	N	1.256567	-0.297377	-0.000006
N70	N	1.756567	0.202623	0.499994
H71	H	1.385329	-0.225059	-0.000001
H72	H	1.885329	0.274941	0.499999
