data_functionalizedCrystal
_audit_creation_method	'MofGen! by Chris Wilmer'
_symmetry_space_group_name_H-M	'P1'
_symmetry_Int_Tables_number	1
_symmetry_cell_setting	triclinic
loop_
_symmetry_equiv_pos_as_xyz
  x,y,z
_cell_length_a	10.654543
_cell_length_b	10.654550
_cell_length_c	9.730223
_cell_angle_alpha	90.002824
_cell_angle_beta	90.001177
_cell_angle_gamma	95.516448
loop_
_atom_site_label
_atom_site_type_symbol
_atom_site_fract_x
_atom_site_fract_y
_atom_site_fract_z
O1	O	-1.667845	0.176356	0.114142
O2	O	-1.302365	0.193171	0.114177
O3	O	-1.493508	0.002024	0.114150
O4	O	-1.476702	0.367503	0.114169
O5	O	-1.493494	0.002024	-0.114430
O6	O	-1.302351	0.193171	-0.114403
O7	O	-1.667831	0.176356	-0.114438
Zn8	Zn	-1.485089	0.184763	-0.150713
Zn9	Zn	-1.485107	0.184763	0.150451
O10	O	-1.476688	0.367503	-0.114411
C11	C	-1.255560	0.191938	-0.000109
C12	C	-1.116116	0.188249	-0.000095
C13	C	-1.036631	0.300793	-0.000092
C14	C	-0.905609	0.297319	-0.000112
C15	C	-0.933573	0.068749	-0.000135
C16	C	-1.064591	0.072224	-0.000124
C17	C	-1.492267	-0.044774	-0.000139
C18	C	-1.488575	-0.184217	-0.000137
C19	C	-1.601117	-0.263706	-0.000147
C20	C	-1.597641	-0.394726	-0.000130
C21	C	-1.369070	-0.366758	-0.000098
C22	C	-1.372548	-0.235740	-0.000105
C23	C	-0.714635	0.177595	-0.000143
C24	C	-0.854077	0.181301	-0.000127
C25	C	-1.477929	0.414301	-0.000119
C26	C	-1.481621	0.553744	-0.000113
N27	N	-1.485086	0.184762	-0.356249
C28	C	-1.561918	0.261643	-0.428174
C29	C	-1.561938	0.261636	-0.572057
C30	C	-1.408285	0.107865	-0.572078
C31	C	-1.408272	0.107866	-0.428197
N32	N	-1.485120	0.184754	0.355988
H33	H	-1.078578	0.395268	-0.000079
H34	H	-1.624465	0.324256	-0.369597
H35	H	-1.624504	0.324238	-0.630611
H36	H	-1.129313	-0.019428	-0.000131
H37	H	-0.840896	0.388964	-0.000112
H38	H	-1.280897	-0.171016	-0.000093
H39	H	-0.891604	-0.025715	-0.000166
H40	H	-1.695593	-0.221761	-0.000170
H41	H	-1.274605	-0.408724	-0.000075
C42	C	-1.323781	0.023297	-0.651234
N43	N	-1.260125	-0.040396	-0.710854
H44	H	-1.689284	-0.459441	-0.000135
H45	H	-1.345705	0.045255	-0.369635
