data_functionalizedCrystal
_audit_creation_method	'MofGen! by Chris Wilmer'
_symmetry_space_group_name_H-M	'P1'
_symmetry_Int_Tables_number	1
_symmetry_cell_setting	triclinic
loop_
_symmetry_equiv_pos_as_xyz
  x,y,z
_cell_length_a	12.759401
_cell_length_b	16.625539
_cell_length_c	12.759400
_cell_angle_alpha	89.980287
_cell_angle_beta	90.004125
_cell_angle_gamma	89.982603
loop_
_atom_site_label
_atom_site_type_symbol
_atom_site_fract_x
_atom_site_fract_y
_atom_site_fract_z
Zn1	Zn	1.606322	-0.455889	-0.418260
Zn2	Zn	1.606253	-0.321077	-0.593961
Zn3	Zn	1.430628	-0.321077	-0.418297
Zn4	Zn	1.430646	-0.455874	-0.593898
O5	O	1.518462	-0.388479	-0.506104
O6	O	1.753334	-0.438012	-0.441578
O7	O	1.582919	-0.208244	-0.570701
O8	O	1.453955	-0.338967	-0.271271
O9	O	1.753283	-0.338966	-0.570665
O10	O	1.583038	-0.438013	-0.271244
O11	O	1.453888	-0.208245	-0.441641
O12	O	1.283609	-0.338952	-0.441580
O13	O	1.453986	-0.568709	-0.570557
O14	O	1.283622	-0.437987	-0.570593
O15	O	1.583055	-0.568720	-0.441517
O16	O	1.582937	-0.338951	-0.740974
O17	O	1.453919	-0.437986	-0.740927
C18	C	1.245495	-0.388468	-0.506085
C19	C	1.128718	-0.388483	-0.506102
C20	C	1.518531	-0.598788	-0.506026
C21	C	1.518560	-0.688409	-0.505992
C22	C	1.073891	-0.439965	-0.573386
C23	C	0.964167	-0.439974	-0.573400
C24	C	0.964107	-0.337011	-0.438841
C25	C	1.073829	-0.337007	-0.438823
C26	C	1.073924	-0.499407	-0.651076
C27	C	0.964200	-0.499416	-0.651089
C28	C	1.518608	-1.016585	-0.505875
C29	C	1.518592	-0.925277	-0.505911
C30	C	1.518584	-0.852500	-0.505934
C31	C	1.518567	-0.761186	-0.505969
C32	C	1.792495	-0.388491	-0.506124
C33	C	1.909272	-0.388496	-0.506133
C34	C	1.518451	-0.388485	-0.779071
C35	C	1.518542	-0.388514	-0.895848
C36	C	1.518455	-0.178989	-0.506106
C37	C	1.518629	-0.089368	-0.505843
C38	C	1.518502	-0.388492	-0.232071
C39	C	1.518519	-0.388497	-0.115294
C40	C	1.451329	-0.336944	0.049280
C41	C	1.451320	-0.336933	-0.060444
C42	C	1.585740	-0.440069	-0.060415
C43	C	1.585754	-0.440075	0.049308
C44	C	1.373719	-0.277402	0.049263
C45	C	1.373710	-0.277391	-0.060462
H46	H	1.118466	-0.295091	-0.384026
H47	H	0.919404	-0.295103	-0.384064
H48	H	1.103727	-0.561881	-0.629385
C49	C	1.659715	-0.496789	0.109663
N50	N	1.715430	-0.539505	0.155122
H51	H	1.107953	-0.476939	-0.728325
C52	C	1.263790	-0.299988	-0.100683
N53	N	1.181003	-0.317010	-0.130978
H54	H	0.930195	-0.558778	-0.622053
C55	C	0.923964	-0.476679	-0.760981
N56	N	0.893658	-0.459552	-0.843747
C57	C	1.659665	-0.496786	-0.120754
N58	N	1.715344	-0.539508	-0.166200
H59	H	1.395493	-0.214956	0.079015
H60	H	1.296438	-0.299771	0.083307
H61	H	1.402829	-0.218066	-0.094513
