data_functionalizedCrystal
_audit_creation_method	'MofGen! by Chris Wilmer'
_symmetry_space_group_name_H-M	'P1'
_symmetry_Int_Tables_number	1
_symmetry_cell_setting	triclinic
loop_
_symmetry_equiv_pos_as_xyz
  x,y,z
_cell_length_a	18.215407
_cell_length_b	19.805405
_cell_length_c	19.805399
_cell_angle_alpha	89.970699
_cell_angle_beta	89.981228
_cell_angle_gamma	90.026858
loop_
_atom_site_label
_atom_site_type_symbol
_atom_site_fract_x
_atom_site_fract_y
_atom_site_fract_z
Zn1	Zn	1.125056	-0.269471	-0.382697
Zn2	Zn	1.625056	0.230529	0.117303
Zn3	Zn	1.124964	-0.382659	-0.269505
Zn4	Zn	1.624964	0.117341	0.230495
Zn5	Zn	1.001991	-0.269490	-0.269523
Zn6	Zn	1.501991	0.230510	0.230477
Zn7	Zn	1.001952	-0.382624	-0.382654
Zn8	Zn	1.501952	0.117376	0.117346
O9	O	1.063491	-0.326061	-0.326095
O10	O	1.563491	0.173939	0.173905
O11	O	1.228028	-0.284492	-0.367693
O12	O	1.728028	0.215508	0.132307
O13	O	1.108629	-0.367670	-0.174791
O14	O	1.608629	0.132330	0.325209
O15	O	1.018371	-0.174771	-0.284562
O16	O	1.518371	0.325229	0.215438
O17	O	1.227960	-0.367651	-0.284531
O18	O	1.727960	0.132349	0.215469
O19	O	1.108787	-0.174757	-0.367710
O20	O	1.608787	0.325243	0.132290
O21	O	1.018282	-0.284525	-0.174804
O22	O	1.518282	0.215475	0.325196
O23	O	0.899002	-0.284491	-0.284520
O24	O	1.399002	0.215509	0.215480
O25	O	1.018304	-0.367591	-0.477376
O26	O	1.518304	0.132409	0.022624
O27	O	0.898973	-0.367610	-0.367636
O28	O	1.398973	0.132390	0.132364
O29	O	1.108748	-0.284458	-0.477408
O30	O	1.608748	0.215542	0.022592
O31	O	1.108591	-0.477371	-0.284489
O32	O	1.608591	0.022629	0.215511
O33	O	1.018214	-0.477345	-0.367619
O34	O	1.518214	0.022655	0.132381
C35	C	0.872285	-0.326050	-0.326075
C36	C	1.372285	0.173950	0.173925
C37	C	0.790486	-0.326061	-0.326083
C38	C	1.290486	0.173939	0.173917
C39	C	0.602296	-0.369409	-0.369308
C40	C	1.102296	0.130591	0.130692
C41	C	0.525437	-0.369411	-0.369316
C42	C	1.025437	0.130589	0.130684
C43	C	0.525438	-0.282726	-0.282897
C44	C	1.025438	0.217274	0.217103
C45	C	0.602295	-0.282721	-0.282892
C46	C	1.102295	0.217279	0.217108
C47	C	0.640722	-0.326066	-0.326097
C48	C	1.140722	0.173934	0.173903
C49	C	0.487006	-0.326073	-0.326110
C50	C	0.987006	0.173927	0.173890
C51	C	0.403672	-0.326075	-0.326119
C52	C	0.903672	0.173925	0.173881
C53	C	0.724061	-0.326063	-0.326089
C54	C	1.224061	0.173937	0.173911
C55	C	1.063408	-0.501917	-0.326062
C56	C	1.563408	-0.001917	0.173938
C57	C	1.063440	-0.577149	-0.326071
C58	C	1.563440	-0.077149	0.173929
C59	C	1.110545	-0.612484	-0.282831
C60	C	1.610545	-0.112484	0.217169
C61	C	1.110576	-0.683173	-0.282845
C62	C	1.610576	-0.183173	0.217155
C63	C	1.063498	-0.718525	-0.326098
C64	C	1.563498	-0.218525	0.173902
C65	C	1.016391	-0.683185	-0.369343
C66	C	1.516391	-0.183185	0.130657
C67	C	1.016364	-0.612497	-0.369331
C68	C	1.516364	-0.112497	0.130669
C69	C	1.016500	-0.968258	-0.369393
C70	C	1.516500	-0.468258	0.130607
C71	C	1.016529	-1.038950	-0.369400
C72	C	1.516529	-0.538950	0.130600
C73	C	1.110711	-1.038933	-0.282908
C74	C	1.610711	-0.538933	0.217092
C75	C	1.110684	-0.968246	-0.282896
C76	C	1.610684	-0.468246	0.217104
C77	C	1.063581	-0.932912	-0.326143
C78	C	1.563581	-0.432912	0.173857
C79	C	1.063548	-0.856264	-0.326127
C80	C	1.563548	-0.356264	0.173873
C81	C	1.063526	-0.795172	-0.326111
C82	C	1.563526	-0.295172	0.173889
C83	C	1.255444	-0.326073	-0.326115
C84	C	1.755444	0.173927	0.173885
C85	C	1.337243	-0.326078	-0.326123
C86	C	1.837243	0.173922	0.173877
C87	C	1.063532	-0.326018	-0.502638
C88	C	1.563532	0.173982	-0.002638
C89	C	1.063550	-0.326000	-0.577870
C90	C	1.563550	0.174000	-0.077870
C91	C	1.063594	-0.149518	-0.326143
C92	C	1.563594	0.350482	0.173857
C93	C	1.063638	-0.074286	-0.326163
C94	C	1.563638	0.425714	0.173837
C95	C	1.110645	-0.282711	-0.613232
C96	C	1.610645	0.217289	-0.113232
C97	C	1.110653	-0.282691	-0.683920
C98	C	1.610653	0.217309	-0.183920
C99	C	1.063568	-0.325965	-0.719245
C100	C	1.563568	0.174035	-0.219245
C101	C	1.016467	-0.369256	-0.683879
C102	C	1.516467	0.130744	-0.183879
C103	C	1.016456	-0.369272	-0.613191
C104	C	1.516456	0.130728	-0.113191
C105	C	1.016509	-0.369193	-0.968952
C106	C	1.516509	0.130807	-0.468952
C107	C	1.016525	-0.369176	-1.039644
C108	C	1.516525	0.130824	-0.539644
C109	C	1.110705	-0.282612	-1.039681
C110	C	1.610705	0.217388	-0.539681
C111	C	1.110694	-0.282628	-0.968993
C112	C	1.610694	0.217372	-0.468993
C113	C	1.063591	-0.325917	-0.933633
C114	C	1.563591	0.174083	-0.433633
C115	C	1.063583	-0.325937	-0.856984
C116	C	1.563583	0.174063	-0.356984
C117	C	1.063580	-0.325949	-0.795893
C118	C	1.563580	0.174051	-0.295893
C119	C	1.063492	-0.326055	-0.150239
C120	C	1.563492	0.173945	0.349761
C121	C	1.063617	-0.325882	-0.075007
C122	C	1.563617	0.174118	0.424993
H123	H	0.633581	-0.404702	-0.404489
H124	H	1.133581	0.095298	0.095511
H125	H	0.978179	-0.404416	-1.068404
H126	H	1.478179	0.095584	-0.568404
H127	H	0.978127	-0.404488	-0.712646
H128	H	1.478127	0.095512	-0.212646
N129	N	0.483991	-0.416162	-0.415919
N130	N	0.983991	0.083838	0.084081
H131	H	0.519999	-0.443620	-0.443285
H132	H	1.019999	0.056380	0.056715
H133	H	0.452077	-0.447449	-0.388309
H134	H	0.952077	0.052551	0.111691
N135	N	0.483992	-0.235994	-0.236282
N136	N	0.983992	0.264006	0.263718
H137	H	0.429471	-0.242580	-0.242834
H138	H	0.929471	0.257420	0.257166
H139	H	0.497412	-0.246484	-0.187929
H140	H	0.997412	0.253516	0.312071
N141	N	0.965683	-0.415873	-0.930836
N142	N	1.465683	0.084127	-0.430836
H143	H	0.977072	-0.464235	-0.943124
H144	H	1.477072	0.035765	-0.443124
H145	H	0.972819	-0.409267	-0.880704
H146	H	1.472819	0.090733	-0.380704
H147	H	1.148878	-0.583705	-0.247607
H148	H	1.648878	-0.083705	0.252393
N149	N	0.643748	-0.235961	-0.236293
N150	N	1.143748	0.264039	0.263707
H151	H	0.607743	-0.208504	-0.208922
H152	H	1.107743	0.291496	0.291078
H153	H	0.675616	-0.263465	-0.204918
H154	H	1.175616	0.236535	0.295082
N155	N	1.161381	-0.721285	-0.236208
N156	N	1.661381	-0.221285	0.263792
H157	H	1.191197	-0.688163	-0.208803
H158	H	1.691197	-0.188163	0.291197
H159	H	1.131454	-0.750659	-0.204867
H160	H	1.631454	-0.250659	0.295133
H161	H	1.149017	-0.939464	-0.247673
H162	H	1.649017	-0.439464	0.252327
N163	N	0.965550	-0.574385	-0.415962
N164	N	1.465550	-0.074385	0.084038
H165	H	0.972676	-0.524241	-0.409392
H166	H	1.472676	-0.024241	0.090608
H167	H	0.976976	-0.586699	-0.464314
H168	H	1.476976	-0.086699	0.035686
N169	N	0.965688	-0.930155	-0.416029
N170	N	1.465688	-0.430155	0.083971
H171	H	0.972812	-0.880011	-0.409463
H172	H	1.472812	-0.380011	0.090537
H173	H	0.977114	-0.942473	-0.464380
H174	H	1.477114	-0.442473	0.035620
H175	H	0.978193	-1.067732	-0.404627
H176	H	1.478193	-0.567732	0.095373
N177	N	1.161517	-1.077043	-0.236259
N178	N	1.661517	-0.577043	0.263741
H179	H	1.154394	-1.127187	-0.242827
H180	H	1.654394	-0.627187	0.257173
H181	H	1.214066	-1.064640	-0.246829
H182	H	1.714066	-0.564640	0.253171
N183	N	0.965653	-0.415961	-0.575054
N184	N	1.465653	0.084039	-0.075054
H185	H	0.977053	-0.464321	-0.587342
H186	H	1.477053	0.035679	-0.087342
H187	H	0.972808	-0.409348	-0.524926
H188	H	1.472808	0.090652	-0.024926
N189	N	0.965616	-0.721310	-0.415997
N190	N	1.465616	-0.221310	0.084003
H191	H	0.972777	-0.771453	-0.409442
H192	H	1.472777	-0.271453	0.090558
H193	H	0.913059	-0.708999	-0.405415
H194	H	1.413059	-0.208999	0.094585
N195	N	1.161436	-0.236043	-0.575132
N196	N	1.661436	0.263957	-0.075132
H197	H	1.150040	-0.187677	-0.587440
H198	H	1.650040	0.312323	-0.087440
H199	H	1.154260	-0.242684	-0.524998
H200	H	1.654260	0.257316	-0.024998
N201	N	1.161434	-0.235987	-0.722061
N202	N	1.661434	0.264013	-0.222061
H203	H	1.191259	-0.208575	-0.688957
H204	H	1.691259	0.291425	-0.188957
H205	H	1.195482	-0.263522	-0.751397
H206	H	1.695482	0.236478	-0.251397
N207	N	1.161483	-0.235956	-0.930896
N208	N	1.661483	0.264044	-0.430896
H209	H	1.150083	-0.187591	-0.943208
H210	H	1.650083	0.312409	-0.443208
H211	H	1.154308	-0.242593	-0.880762
H212	H	1.654308	0.257407	-0.380762
N213	N	1.161509	-0.235918	-1.077819
N214	N	1.661509	0.264082	-0.577819
H215	H	1.154373	-0.242470	-1.127960
H216	H	1.654373	0.257530	-0.627960
H217	H	1.150085	-0.187580	-1.065473
H218	H	1.650085	0.312420	-0.565473
