data_functionalizedCrystal
_audit_creation_method	'MofGen! by Chris Wilmer'
_symmetry_space_group_name_H-M	'P1'
_symmetry_Int_Tables_number	1
_symmetry_cell_setting	triclinic
loop_
_symmetry_equiv_pos_as_xyz
  x,y,z
_cell_length_a	17.699083
_cell_length_b	17.000383
_cell_length_c	16.176319
_cell_angle_alpha	89.997209
_cell_angle_beta	90.000480
_cell_angle_gamma	79.441659
loop_
_atom_site_label
_atom_site_type_symbol
_atom_site_fract_x
_atom_site_fract_y
_atom_site_fract_z
O1	O	-0.997555	-0.100664	0.068621
O2	O	-0.664222	0.232670	0.401955
O3	O	-0.330889	0.566003	0.735288
O4	O	-0.776328	-0.113761	0.068650
O5	O	-0.442995	0.219573	0.401983
O6	O	-0.109662	0.552906	0.735317
O7	O	-0.900677	0.008681	0.068631
O8	O	-0.567344	0.342014	0.401964
O9	O	-0.234010	0.675347	0.735297
O10	O	-0.873206	-0.223105	0.068641
O11	O	-0.539873	0.110229	0.401974
O12	O	-0.206540	0.443562	0.735307
O13	O	-0.900663	0.008681	-0.068862
O14	O	-0.567330	0.342014	0.264471
O15	O	-0.233997	0.675348	0.597804
O16	O	-0.776315	-0.113760	-0.068843
O17	O	-0.442981	0.219573	0.264490
O18	O	-0.109648	0.552906	0.597824
O19	O	-0.997542	-0.100663	-0.068872
O20	O	-0.664208	0.232670	0.264461
O21	O	-0.330875	0.566003	0.597795
Cu22	Cu	-0.886927	-0.107212	-0.081412
Cu23	Cu	-0.553593	0.226122	0.251922
Cu24	Cu	-0.220260	0.559455	0.585255
Cu25	Cu	-0.886943	-0.107212	0.081190
Cu26	Cu	-0.553610	0.226121	0.414523
Cu27	Cu	-0.220276	0.559455	0.747857
O28	O	-0.873193	-0.223104	-0.068853
O29	O	-0.539859	0.110229	0.264481
O30	O	-0.206526	0.443562	0.597814
C31	C	-0.748155	-0.113291	-0.000093
C32	C	-0.414821	0.220042	0.333240
C33	C	-0.081488	0.553376	0.666574
C34	C	-0.664228	-0.111883	-0.000082
C35	C	-0.330895	0.221450	0.333251
C36	C	0.002439	0.554783	0.666585
C37	C	-0.902146	0.038337	-0.000115
C38	C	-0.568812	0.371671	0.333218
C39	C	-0.235479	0.705004	0.666552
C40	C	-0.906533	0.126704	-0.000113
C41	C	-0.573199	0.460037	0.333220
C42	C	-0.239866	0.793371	0.666554
C43	C	-0.610950	-0.183754	-0.000079
C44	C	-0.277617	0.149580	0.333255
C45	C	0.055716	0.482913	0.666588
C46	C	-0.532093	-0.182426	-0.000089
C47	C	-0.198760	0.150907	0.333244
C48	C	0.134574	0.484241	0.666578
C49	C	-0.506515	-0.109227	-0.000096
C50	C	-0.173182	0.224106	0.333237
C51	C	0.160152	0.557439	0.666570
C52	C	-0.559799	-0.037351	-0.000102
C53	C	-0.226466	0.295982	0.333231
C54	C	0.106867	0.629315	0.666565
C55	C	-0.638655	-0.038680	-0.000098
C56	C	-0.305322	0.294654	0.333236
C57	C	0.028012	0.627987	0.666569
C58	C	-0.241783	-0.031992	-0.000120
C59	C	0.091550	0.301341	0.333213
C60	C	0.424883	0.634674	0.666547
C61	C	-0.162921	-0.030669	-0.000122
C62	C	0.170412	0.302664	0.333212
C63	C	0.503745	0.635997	0.666545
C64	C	-0.135221	-0.175739	-0.000111
C65	C	0.198112	0.157595	0.333222
C66	C	0.531445	0.490928	0.666556
C67	C	-0.214077	-0.177067	-0.000107
C68	C	0.119256	0.156266	0.333226
C69	C	0.452590	0.489600	0.666560
C70	C	-0.267354	-0.105192	-0.000117
C71	C	0.065979	0.228142	0.333216
C72	C	0.399312	0.561475	0.666550
C73	C	-0.352860	-0.106632	-0.000108
C74	C	-0.019527	0.226701	0.333226
C75	C	0.313806	0.560035	0.666559
C76	C	-0.421011	-0.107786	-0.000100
C77	C	-0.087677	0.225547	0.333234
C78	C	0.245656	0.558881	0.666567
C79	C	-0.025715	-0.101133	-0.000125
C80	C	0.307618	0.232201	0.333208
C81	C	0.640952	0.565534	0.666542
C82	C	-0.109642	-0.102541	-0.000124
C83	C	0.223691	0.230793	0.333209
C84	C	0.557025	0.564126	0.666542
C85	C	-0.871724	-0.252761	-0.000105
C86	C	-0.538391	0.080572	0.333229
C87	C	-0.205057	0.413906	0.666562
C88	C	-0.867337	-0.341128	-0.000102
C89	C	-0.534004	-0.007795	0.333232
C90	C	-0.200670	0.325539	0.666565
C91	C	-0.934861	0.626976	-0.000113
C92	C	-0.601528	0.960309	0.333220
C93	C	-0.268194	1.293643	0.666553
C94	C	-0.930733	0.543945	-0.000118
C95	C	-0.597400	0.877278	0.333215
C96	C	-0.264066	1.210612	0.666549
C97	C	-0.859080	0.492812	-0.000105
C98	C	-0.525747	0.826145	0.333229
C99	C	-0.192414	1.159478	0.666562
C100	C	-0.791551	0.524713	-0.000095
C101	C	-0.458218	0.858046	0.333238
C102	C	-0.124885	1.191380	0.666571
C103	C	-0.795680	0.607742	-0.000097
C104	C	-0.462347	0.941076	0.333236
C105	C	-0.129013	1.274409	0.666570
C106	C	-0.843133	0.241635	-0.000105
C107	C	-0.509799	0.574968	0.333228
C108	C	-0.176466	0.908302	0.666562
C109	C	-0.839009	0.158600	-0.000101
C110	C	-0.505676	0.491934	0.333232
C111	C	-0.172342	0.825267	0.666566
C112	C	-0.978191	0.177838	-0.000125
C113	C	-0.644858	0.511171	0.333208
C114	C	-0.311524	0.844505	0.666542
C115	C	-0.982313	0.260868	-0.000122
C116	C	-0.648980	0.594202	0.333212
C117	C	-0.315647	0.927535	0.666545
C118	C	-0.914785	0.292762	-0.000117
C119	C	-0.581451	0.626096	0.333217
C120	C	-0.248118	0.959429	0.666550
C121	C	-0.854859	0.407940	-0.000107
C122	C	-0.521526	0.741274	0.333227
C123	C	-0.188192	1.074607	0.666560
C124	C	-0.919007	0.377632	-0.000121
C125	C	-0.585673	0.710966	0.333213
C126	C	-0.252340	1.044299	0.666546
N127	N	-0.886921	-0.107211	-0.195777
N128	N	-0.553588	0.226122	0.137556
N129	N	-0.220254	0.559456	0.470890
C130	C	-0.929611	-0.155433	-0.239042
C131	C	-0.596278	0.177901	0.094292
C132	C	-0.262945	0.511234	0.427625
C133	C	-0.929620	-0.155430	-0.325589
C134	C	-0.596286	0.177904	0.007745
C135	C	-0.262953	0.511237	0.341078
C136	C	-0.886933	-0.107209	-0.368870
C137	C	-0.553600	0.226125	-0.035536
C138	C	-0.220266	0.559458	0.297797
C139	C	-0.844241	-0.058981	-0.325599
C140	C	-0.510908	0.274352	0.007735
C141	C	-0.177574	0.607685	0.341068
C142	C	-0.844238	-0.058981	-0.239053
C143	C	-0.510904	0.274353	0.094280
C144	C	-0.177571	0.607686	0.427613
C145	C	-0.844255	-0.058982	-0.674627
C146	C	-0.510922	0.274351	-0.341294
C147	C	-0.177588	0.607684	-0.007960
C148	C	-0.844260	-0.058988	-0.761179
C149	C	-0.510927	0.274345	-0.427845
C150	C	-0.177593	0.607678	-0.094512
C151	C	-0.929637	-0.155431	-0.761163
C152	C	-0.596304	0.177902	-0.427829
C153	C	-0.262971	0.511235	-0.094496
C154	C	-0.929634	-0.155431	-0.674617
C155	C	-0.596300	0.177903	-0.341284
C156	C	-0.262967	0.511236	-0.007950
C157	C	-0.886945	-0.107201	-0.631354
C158	C	-0.553612	0.226133	-0.298020
C159	C	-0.220279	0.559466	0.035313
C160	C	-0.886938	-0.107203	-0.537510
C161	C	-0.553605	0.226130	-0.204176
C162	C	-0.220271	0.559463	0.129157
C163	C	-0.886935	-0.107210	-0.462712
C164	C	-0.553602	0.226124	-0.129379
C165	C	-0.220269	0.559457	0.203955
N166	N	-0.886955	-0.107207	0.195555
N167	N	-0.553622	0.226127	0.528888
N168	N	-0.220288	0.559460	0.862222
H169	H	-0.631769	-0.243361	-0.000072
H170	H	-0.298435	0.089973	0.333261
H171	H	0.034898	0.423306	0.666595
O172	O	-0.474626	-0.259942	-0.000086
O173	O	-0.141293	0.073391	0.333248
O174	O	0.192041	0.406724	0.666581
H175	H	-0.505660	-0.311065	-0.000070
H176	H	-0.172327	0.022269	0.333263
H177	H	0.161007	0.355602	0.666597
O178	O	-0.798242	-0.006952	-0.807866
O179	O	-0.464909	0.326381	-0.474532
O180	O	-0.131575	0.659714	-0.141199
H181	H	-0.768570	0.026599	-0.763243
H182	H	-0.435237	0.359932	-0.429910
H183	H	-0.101904	0.693266	-0.096576
H184	H	-0.234897	-0.236673	-0.000097
H185	H	0.098436	0.096660	0.333236
H186	H	0.431769	0.429994	0.666570
H187	H	-0.809496	-0.019710	-0.639412
H188	H	-0.476163	0.313623	-0.306079
H189	H	-0.142829	0.646957	0.027254
O190	O	-0.975666	-0.207441	-0.372252
O191	O	-0.642333	0.125892	-0.038918
O192	O	-0.308999	0.459226	0.294415
H193	H	-0.936533	-0.250266	-0.411688
H194	H	-0.603200	0.083067	-0.078355
H195	H	-0.269867	0.416401	0.254979
O196	O	-0.077759	-0.253267	-0.000118
O197	O	0.255575	0.080067	0.333215
O198	O	0.588908	0.413400	0.666549
H199	H	-0.018627	-0.240051	-0.000135
H200	H	0.314706	0.093283	0.333199
H201	H	0.648040	0.426616	0.666532
H202	H	-0.285153	0.026533	-0.000129
H203	H	0.048180	0.359867	0.333204
H204	H	0.381513	0.693200	0.666538
O205	O	-0.975672	-0.207441	-0.627933
O206	O	-0.642339	0.125892	-0.294600
O207	O	-0.309006	0.459225	0.038734
H208	H	-1.005365	-0.240969	-0.672559
H209	H	-0.672032	0.092364	-0.339225
H210	H	-0.338698	0.425698	-0.005892
H211	H	-0.142100	0.028941	-0.000129
H212	H	0.191233	0.362275	0.333205
H213	H	0.524567	0.695608	0.666538
H214	H	-0.740695	0.633710	-0.000094
H215	H	-0.407362	0.967044	0.333239
H216	H	-0.074028	1.300377	0.666573
H217	H	-0.538968	0.022249	-0.000120
H218	H	-0.205634	0.355582	0.333214
H219	H	0.127699	0.688915	0.666547
H220	H	-0.993208	0.668604	-0.000117
H221	H	-0.659875	1.001937	0.333216
H222	H	-0.326542	1.335270	0.666549
O223	O	-0.777578	0.352786	-0.000092
O224	O	-0.444245	0.686120	0.333241
O225	O	-0.110912	1.019453	0.666575
H226	H	-0.745006	0.364107	0.055952
H227	H	-0.411672	0.697441	0.389286
H228	H	-0.078339	1.030774	0.722619
O229	O	-0.975698	-0.207439	-0.807823
O230	O	-0.642365	0.125894	-0.474490
O231	O	-0.309031	0.459227	-0.141156
H232	H	-0.968542	-0.199332	-0.875275
H233	H	-0.635209	0.134001	-0.541942
H234	H	-0.301875	0.467335	-0.208608
O235	O	-0.798196	-0.006971	-0.372274
O236	O	-0.464862	0.326362	-0.038940
O237	O	-0.131529	0.659695	0.294393
H238	H	-0.805362	-0.015079	-0.439724
H239	H	-0.472028	0.318254	-0.106390
H240	H	-0.138695	0.651587	0.226943
H241	H	-0.682034	0.019845	-0.000100
H242	H	-0.348701	0.353178	0.333233
H243	H	-0.015367	0.686511	0.666567
O244	O	-1.059599	0.316014	-0.000132
O245	O	-0.726266	0.649347	0.333201
O246	O	-0.392932	0.982681	0.666534
H247	H	-1.051125	0.379108	-0.000121
H248	H	-0.717792	0.712442	0.333212
H249	H	-0.384459	1.045775	0.666545
H250	H	-0.809474	-0.019714	-0.203828
H251	H	-0.476141	0.313620	0.129505
H252	H	-0.142808	0.646953	0.462838
H253	H	-0.985718	0.517980	-0.000128
H254	H	-0.652385	0.851313	0.333205
H255	H	-0.319051	1.184646	0.666538
O256	O	-1.051024	0.143440	-0.000140
O257	O	-0.717690	0.476774	0.333194
O258	O	-0.384357	0.810107	0.666527
H259	H	-1.036119	0.077115	-0.000143
H260	H	-0.702786	0.410448	0.333190
H261	H	-0.369452	0.743781	0.666523
O262	O	-0.761723	0.103444	-0.000095
O263	O	-0.428390	0.436777	0.333239
O264	O	-0.095057	0.770110	0.666572
H265	H	-0.715459	0.139570	-0.000100
H266	H	-0.382126	0.472903	0.333233
H267	H	-0.048792	0.806237	0.666566
H268	H	-0.733210	0.483073	-0.000089
H269	H	-0.399877	0.816407	0.333244
H270	H	-0.066544	1.149740	0.666577
O271	O	-0.770302	0.276032	-0.000097
O272	O	-0.436969	0.609365	0.333236
O273	O	-0.103635	0.942699	0.666569
H274	H	-0.719786	0.226524	-0.000080
H275	H	-0.386453	0.559858	0.333254
H276	H	-0.053120	0.893191	0.666587
H277	H	-0.977346	0.419268	-0.000135
H278	H	-0.644012	0.752602	0.333198
H279	H	-0.310679	1.085935	0.666531
H280	H	-0.964367	-0.194705	-0.203809
H281	H	-0.631034	0.138628	0.129525
H282	H	-0.297701	0.471962	0.462858
