data_functionalizedCrystal
_audit_creation_method	'MofGen! by Chris Wilmer'
_symmetry_space_group_name_H-M	'P1'
_symmetry_Int_Tables_number	1
_symmetry_cell_setting	triclinic
loop_
_symmetry_equiv_pos_as_xyz
  x,y,z
_cell_length_a	6.817900
_cell_length_b	7.076105
_cell_length_c	17.078472
_cell_angle_alpha	92.980518
_cell_angle_beta	99.306020
_cell_angle_gamma	117.701832
loop_
_atom_site_label
_atom_site_type_symbol
_atom_site_fract_x
_atom_site_fract_y
_atom_site_fract_z
V1	V	-4.179009	-0.664800	-0.108528
V2	V	-3.679009	-0.164800	0.391472
O3	O	-4.185117	-0.652365	0.006491
O4	O	-3.685117	-0.152365	0.506491
O5	O	-4.108813	-0.660041	-0.216419
O6	O	-3.608813	-0.160041	0.283581
O7	O	-4.206439	-0.954839	-0.106299
O8	O	-3.706439	-0.454839	0.393701
O9	O	-4.086815	-0.355527	-0.104392
O10	O	-3.586815	0.144473	0.395608
V11	V	-4.655635	-0.627834	-0.094836
V12	V	-4.155635	-0.127834	0.405164
O13	O	-4.455396	-0.745888	-0.138561
O14	O	-3.955396	-0.245888	0.361439
O15	O	-4.829445	-0.546747	-0.064803
O16	O	-4.329445	-0.046747	0.435197
O17	O	-4.502624	-0.632593	0.013055
O18	O	-4.002624	-0.132593	0.513055
O19	O	-4.766923	-0.640269	-0.209855
O20	O	-4.266923	-0.140269	0.290145
O21	O	-4.865225	-0.937107	-0.098972
O22	O	-4.365225	-0.437107	0.401028
O23	O	-4.404998	-0.337795	-0.097066
O24	O	-3.904998	0.162205	0.402934
C25	C	-3.946058	-0.649499	-0.242739
C26	C	-3.446058	-0.149499	0.257261
C27	C	-3.970457	-0.647542	-0.330938
C28	C	-3.470457	-0.147542	0.169062
C29	C	-4.166028	-0.657253	-0.376395
C30	C	-3.666028	-0.157253	0.123605
C31	C	-4.188947	-0.655426	-0.459268
C32	C	-3.688947	-0.155426	0.040732
C33	C	-4.016286	-0.643873	-0.496681
C34	C	-3.516286	-0.143873	0.003319
C35	C	-3.820702	-0.634167	-0.451218
C36	C	-3.320702	-0.134167	0.048782
C37	C	-3.797793	-0.636009	-0.368348
C38	C	-3.297793	-0.136009	0.131652
C39	C	-4.065068	-0.637237	-0.744098
C40	C	-3.565068	-0.137237	-0.244098
C41	C	-4.087991	-0.635389	-0.826974
C42	C	-3.587991	-0.135389	-0.326974
C43	C	-4.456237	-0.656653	-0.835018
C44	C	-3.956237	-0.156653	-0.335018
C45	C	-4.433303	-0.658481	-0.752145
C46	C	-3.933303	-0.158481	-0.252145
C47	C	-4.237728	-0.648787	-0.706690
C48	C	-3.737728	-0.148787	-0.206690
N49	N	-4.039706	-0.641999	-0.581390
N50	N	-3.539706	-0.141999	-0.081390
N51	N	-4.214318	-0.650676	-0.621983
N52	N	-3.714318	-0.150676	-0.121983
C53	C	-4.077543	-0.025539	-0.102263
C54	C	-3.577543	0.474461	0.397737
C55	C	-4.204204	-0.267094	-0.101113
C56	C	-3.704204	0.232906	0.398887
C57	C	-4.328719	-0.643129	0.039370
C58	C	-3.828719	-0.143129	0.539370
C59	C	-4.283562	-0.645101	0.127569
C60	C	-3.783562	-0.145101	0.627569
H61	H	-3.947401	-0.626031	-0.857436
H62	H	-3.447401	-0.126031	-0.357436
Cl63	Cl	-3.551927	-0.623813	-0.311202
Cl64	Cl	-3.051927	-0.123813	0.188798
H65	H	-3.905816	-0.629331	-0.707097
H66	H	-3.405816	-0.129331	-0.207097
H67	H	-3.680126	-0.624773	-0.481688
H68	H	-3.180126	-0.124773	0.018312
Cl69	Cl	-4.383101	-0.671770	-0.329369
Cl70	Cl	-3.883101	-0.171770	0.170631
Cl71	Cl	-4.434816	-0.667631	-0.516411
Cl72	Cl	-3.934816	-0.167631	-0.016411
H73	H	-4.615468	-0.664545	-0.872036
H74	H	-4.115468	-0.164545	-0.372036
H75	H	-4.573914	-0.667904	-0.721690
H76	H	-4.073914	-0.167904	-0.221690
