data_functionalizedCrystal
_audit_creation_method	'MofGen! by Chris Wilmer'
_symmetry_space_group_name_H-M	'P1'
_symmetry_Int_Tables_number	1
_symmetry_cell_setting	triclinic
loop_
_symmetry_equiv_pos_as_xyz
  x,y,z
_cell_length_a	10.908878
_cell_length_b	10.654550
_cell_length_c	9.730223
_cell_angle_alpha	89.998384
_cell_angle_beta	90.000359
_cell_angle_gamma	72.284847
loop_
_atom_site_label
_atom_site_type_symbol
_atom_site_fract_x
_atom_site_fract_y
_atom_site_fract_z
O1	O	1.702123	-0.193608	-0.114261
O2	O	1.329130	-0.095722	-0.114271
O3	O	1.524202	-0.329269	-0.114256
O4	O	1.507051	0.039938	-0.114276
O5	O	1.524200	-0.329263	0.114324
O6	O	1.329128	-0.095717	0.114309
O7	O	1.702120	-0.193603	0.114319
Zn8	Zn	1.515624	-0.144659	0.150606
Zn9	Zn	1.515627	-0.144666	-0.150558
O10	O	1.507048	0.039944	0.114304
C11	C	1.281369	-0.086572	0.000018
C12	C	1.139059	-0.059329	0.000015
C13	C	1.089165	-0.158733	0.000020
C14	C	0.942081	-0.130578	0.000016
C15	C	1.522942	-0.375790	0.000034
C16	C	1.519174	-0.514414	0.000033
C17	C	1.749882	-0.202753	0.000027
C18	C	1.892192	-0.229996	0.000021
C19	C	1.508309	0.086465	0.000011
C20	C	1.512077	0.225089	0.000003
N21	N	1.515631	-0.144657	0.356142
C22	C	1.397221	0.329542	0.000014
C23	C	1.400769	0.459791	0.000023
C24	C	1.634038	0.381121	0.000019
C25	C	1.630489	0.250874	-0.000001
C26	C	1.262545	0.374963	0.000022
C27	C	1.266094	0.505212	0.000032
N28	N	1.515630	-0.144680	-0.356094
C29	C	1.602031	-0.248047	0.428075
C30	C	1.602028	-0.248062	0.571958
C31	C	1.429220	-0.041284	0.571963
C32	C	1.429218	-0.041275	0.428083
C33	C	1.701805	-0.367426	0.428073
C34	C	1.701801	-0.367441	0.571956
H35	H	1.724015	0.165830	-0.000025
Cl36	Cl	1.187765	0.586696	0.147730
Cl37	Cl	1.181223	0.347328	-0.147666
H38	H	1.730445	0.402132	-0.000009
H39	H	1.358864	0.042886	0.630552
Cl40	Cl	1.845469	-0.351414	0.359163
H41	H	1.219648	0.348645	0.098706
Cl42	Cl	1.203271	0.589373	-0.152337
Cl43	Cl	1.320581	0.088691	0.337652
Cl44	Cl	1.668017	-0.509115	0.367773
H45	H	1.670661	-0.451894	0.616576
Cl46	Cl	1.036900	0.104251	-0.000006
Cl47	Cl	1.191324	-0.322313	0.000026
Cl48	Cl	0.839926	0.033009	-0.000005
Cl49	Cl	1.853868	-0.367285	0.632260
H50	H	0.958361	-0.335951	0.000018
