data_functionalizedCrystal
_audit_creation_method	'MofGen! by Chris Wilmer'
_symmetry_space_group_name_H-M	'P1'
_symmetry_Int_Tables_number	1
_symmetry_cell_setting	triclinic
loop_
_symmetry_equiv_pos_as_xyz
  x,y,z
_cell_length_a	9.065218
_cell_length_b	15.455313
_cell_length_c	9.065218
_cell_angle_alpha	92.706611
_cell_angle_beta	94.984115
_cell_angle_gamma	92.720946
loop_
_atom_site_label
_atom_site_type_symbol
_atom_site_fract_x
_atom_site_fract_y
_atom_site_fract_z
O1	O	1.966783	0.072129	-0.209989
O2	O	1.537498	0.072130	-0.227736
O3	O	1.761013	0.072128	-0.004220
O4	O	1.743267	0.072132	-0.433505
O5	O	1.748231	-0.072134	-0.016948
O6	O	1.524716	-0.072132	-0.240464
O7	O	1.954000	-0.072133	-0.222717
Cu8	Cu	1.738191	-0.085304	-0.232753
Cu9	Cu	1.753307	0.085302	-0.217700
O10	O	1.730485	-0.072130	-0.446233
C11	C	1.476120	-0.000001	-0.232394
C12	C	1.312277	-0.000000	-0.227294
N13	N	1.727569	-0.205300	-0.243339
C14	C	1.822561	-0.250695	-0.148418
C15	C	1.814542	-0.341503	-0.156438
C16	C	1.711538	-0.386914	-0.259387
C17	C	1.616537	-0.341512	-0.354313
C18	C	1.624549	-0.250706	-0.346285
C19	C	1.676952	-0.658495	-0.294000
C20	C	1.668949	-0.749307	-0.302024
C21	C	1.866953	-0.749292	-0.104146
C22	C	1.874963	-0.658484	-0.096133
C23	C	1.779957	-0.613090	-0.191053
N24	N	1.703342	-0.479734	-0.267590
N25	N	1.788146	-0.520272	-0.182842
C26	C	2.015378	0.000000	-0.218059
C27	C	2.179222	0.000005	-0.223158
C28	C	1.752917	-0.000002	0.044402
C29	C	1.747818	0.000003	0.208246
N30	N	1.763940	0.205297	-0.207102
C31	C	1.738582	0.000001	-0.494855
C32	C	1.743682	0.000003	-0.658698
H33	H	1.891890	-0.378463	-0.079144
C34	C	1.555630	-0.799258	-0.415273
C35	C	1.451128	-0.749324	-0.519676
C36	C	1.337818	-0.799273	-0.632922
C37	C	1.329009	-0.899156	-0.641765
C38	C	1.433515	-0.949096	-0.537358
C39	C	1.546825	-0.899147	-0.424112
H40	H	1.457645	-0.675379	-0.513133
H41	H	1.260456	-0.762303	-0.710211
H42	H	1.245130	-0.936131	-0.725597
H43	H	1.426998	-1.023040	-0.543901
H44	H	1.624187	-0.936116	-0.346823
C45	C	1.503229	-0.391460	-0.467561
C46	C	1.494479	-0.491343	-0.476475
C47	C	1.381171	-0.541287	-0.589731
C48	C	1.276615	-0.491349	-0.694072
C49	C	1.285362	-0.391460	-0.685161
C50	C	1.398669	-0.341515	-0.571906
H51	H	1.571881	-0.528316	-0.399233
H52	H	1.374697	-0.615232	-0.596326
H53	H	1.192738	-0.528320	-0.777910
H54	H	1.207959	-0.354487	-0.762404
H55	H	1.405143	-0.267571	-0.565310
H56	H	1.906443	-0.213727	-0.064592
H57	H	1.958837	-0.621512	-0.012303
H58	H	1.944302	-0.786259	-0.026865
H59	H	1.599596	-0.621543	-0.371290
H60	H	1.547196	-0.213746	-0.423578
