data_functionalizedCrystal
_audit_creation_method	'MofGen! by Chris Wilmer'
_symmetry_space_group_name_H-M	'P1'
_symmetry_Int_Tables_number	1
_symmetry_cell_setting	triclinic
loop_
_symmetry_equiv_pos_as_xyz
  x,y,z
_cell_length_a	6.817900
_cell_length_b	12.908942
_cell_length_c	19.453030
_cell_angle_alpha	96.112838
_cell_angle_beta	101.707737
_cell_angle_gamma	100.860556
loop_
_atom_site_label
_atom_site_type_symbol
_atom_site_fract_x
_atom_site_fract_y
_atom_site_fract_z
V1	V	-3.993288	-0.146948	-0.218605
O2	O	-3.995270	0.005932	-0.214846
O3	O	-3.931732	-0.290287	-0.216723
O4	O	-3.936358	-0.145183	-0.314123
O5	O	-3.990612	-0.140176	-0.116772
V6	V	-4.479727	-0.128603	-0.206472
O7	O	-4.248152	-0.187189	-0.245220
O8	O	-4.675060	-0.088362	-0.179857
O9	O	-4.318076	0.014736	-0.208354
O10	O	-4.595142	-0.281483	-0.210231
O11	O	-4.599800	-0.135375	-0.308305
O12	O	-4.313451	-0.130368	-0.110954
C13	C	-3.773808	-0.325214	-0.213175
C14	C	-3.804709	-0.442399	-0.212273
C15	C	-4.225415	-0.673379	-0.217573
C16	C	-4.254458	-0.783484	-0.216726
C17	C	-3.891843	-0.772719	-0.209736
C18	C	-3.862800	-0.662614	-0.210584
C19	C	-4.029593	-0.612947	-0.214501
C20	C	-4.000545	-0.502838	-0.215343
C21	C	-3.637935	-0.492076	-0.208358
C22	C	-3.666978	-0.602182	-0.207511
C23	C	-3.779708	-0.140119	-0.337417
C24	C	-3.814358	-0.139624	-0.415500
C25	C	-3.861006	-0.235980	-0.461947
C26	C	-3.893586	-0.235526	-0.535317
C27	C	-3.879474	-0.138710	-0.562235
C28	C	-3.832829	-0.042342	-0.515778
C29	C	-3.800271	-0.042799	-0.442410
N30	N	-3.794765	-0.062803	-0.667932
N31	N	-3.825691	-0.062376	-0.737629
C32	C	-3.977572	-0.137328	-0.783286
N33	N	-4.097338	-0.212740	-0.756614
N34	N	-4.066400	-0.213170	-0.686912
C35	C	-3.914775	-0.138204	-0.641788
C36	C	-4.059552	-0.233199	-0.909289
C37	C	-4.092143	-0.232742	-0.982659
C38	C	-4.031365	-0.039554	-0.963118
C39	C	-3.998795	-0.040015	-0.889750
C40	C	-4.012882	-0.136840	-0.862840
C41	C	-4.139342	0.049658	-0.211900
C42	C	-4.087679	0.166841	-0.212807
C43	C	-4.133442	-0.135436	-0.087657
C44	C	-4.078032	-0.135925	-0.009572
H45	H	-3.756061	-0.813179	-0.206553
C46	C	-3.425362	-0.426309	-0.204911
C47	C	-3.367015	-0.348262	-0.144529
C48	C	-3.171220	-0.287650	-0.141330
H49	H	-3.329981	-0.471530	-0.202417
H50	H	-3.427520	-0.392896	-0.246196
H51	H	-3.364842	-0.381674	-0.103255
H52	H	-3.462342	-0.303018	-0.147010
H53	H	-3.173377	-0.254236	-0.182614
H54	H	-3.075856	-0.332879	-0.138837
H55	H	-3.131614	-0.234682	-0.100364
H56	H	-4.136356	-0.462400	-0.218528
H57	H	-3.531189	-0.642637	-0.204324
H58	H	-3.872490	-0.314823	-0.440042
C59	C	-3.944528	-0.340234	-0.585682
C60	C	-4.126025	-0.403624	-0.577086
C61	C	-4.172999	-0.500091	-0.623462
H62	H	-3.962051	-0.326243	-0.633259
H63	H	-3.835755	-0.376673	-0.575386
H64	H	-4.234772	-0.367192	-0.587387
H65	H	-4.108549	-0.417644	-0.529520
H66	H	-4.064226	-0.536531	-0.613166
H67	H	-4.190513	-0.486090	-0.671035
H68	H	-4.296137	-0.543117	-0.617631
C69	C	-3.817492	0.062667	-0.545135
C70	C	-3.855931	0.042446	-0.619328
C71	C	-3.841803	0.139158	-0.646395
H72	H	-3.915641	0.098982	-0.531455
H73	H	-3.683656	0.105668	-0.526855
H74	H	-3.989749	-0.000537	-0.637601
H75	H	-3.757795	0.006147	-0.633028
H76	H	-3.707967	0.182159	-0.628115
H77	H	-3.939954	0.175466	-0.632709
H78	H	-3.867863	0.125452	-0.696736
H79	H	-3.762285	0.035668	-0.404592
H80	H	-4.071025	-0.312040	-0.887378
C81	C	-4.466896	-0.849196	-0.219941
C82	C	-4.463031	-0.898228	-0.158994
C83	C	-4.658693	-0.958780	-0.161935
H84	H	-4.562240	-0.803959	-0.222360
H85	H	-4.506885	-0.902268	-0.260856
H86	H	-4.423069	-0.845163	-0.118090
H87	H	-4.367728	-0.943484	-0.156563
H88	H	-4.698681	-1.011851	-0.202850
H89	H	-4.754021	-0.913534	-0.164356
H90	H	-4.656092	-0.992063	-0.120588
C91	C	-4.143091	-0.337454	-1.033015
C92	C	-4.324577	-0.400841	-1.024408
C93	C	-4.371558	-0.497316	-1.070776
H94	H	-4.160629	-0.323474	-1.080593
H95	H	-4.034314	-0.373891	-1.022718
H96	H	-4.433328	-0.364412	-1.034710
H97	H	-4.307086	-0.414851	-0.976839
H98	H	-4.262781	-0.533753	-1.060480
H99	H	-4.389087	-0.483325	-1.118352
H100	H	-4.494689	-0.540340	-1.064938
H101	H	-4.019886	0.039275	-0.985034
C102	C	-3.948037	0.064719	-0.839429
C103	C	-3.942597	0.149608	-0.878702
C104	C	-3.895824	0.246109	-0.832371
H105	H	-4.049975	0.065333	-0.812662
H106	H	-3.818028	0.071990	-0.808133
H107	H	-4.072588	0.142339	-0.909986
H108	H	-3.840658	0.149029	-0.905468
H109	H	-3.765815	0.253380	-0.801074
H110	H	-3.997767	0.246712	-0.805606
H111	H	-3.892108	0.303718	-0.859010
H112	H	-4.361219	-0.632937	-0.220753
