data_functionalizedCrystal
_audit_creation_method	'MofGen! by Chris Wilmer'
_symmetry_space_group_name_H-M	'P1'
_symmetry_Int_Tables_number	1
_symmetry_cell_setting	triclinic
loop_
_symmetry_equiv_pos_as_xyz
  x,y,z
_cell_length_a	14.044190
_cell_length_b	8.559649
_cell_length_c	7.681481
_cell_angle_alpha	85.086760
_cell_angle_beta	83.728840
_cell_angle_gamma	98.514779
loop_
_atom_site_label
_atom_site_type_symbol
_atom_site_fract_x
_atom_site_fract_y
_atom_site_fract_z
O1	O	-0.021858	-2.101907	-0.146396
O2	O	0.311475	-1.768574	0.186937
O3	O	0.644809	-1.435240	0.520270
O4	O	0.026593	-1.643609	-0.146414
O5	O	0.359926	-1.310276	0.186919
O6	O	0.693260	-0.976942	0.520252
O7	O	-0.135118	-1.865876	-0.146371
O8	O	0.198215	-1.532543	0.186962
O9	O	0.531548	-1.199210	0.520296
O10	O	0.139853	-1.879640	-0.146440
O11	O	0.473187	-1.546306	0.186894
O12	O	0.806520	-1.212973	0.520227
O13	O	-0.155063	-1.893228	0.146492
O14	O	0.178271	-1.559895	0.479825
O15	O	0.511604	-1.226562	0.813159
O16	O	0.006649	-1.670961	0.146449
O17	O	0.339982	-1.337628	0.479782
O18	O	0.673316	-1.004294	0.813115
O19	O	-0.041802	-2.129259	0.146467
O20	O	0.291531	-1.795925	0.479800
O21	O	0.624865	-1.462592	0.813133
Zn22	Zn	-0.020743	-1.904452	0.192956
Zn23	Zn	0.312590	-1.571119	0.526289
Zn24	Zn	0.645924	-1.237786	0.859623
Zn25	Zn	0.005534	-1.868415	-0.192904
Zn26	Zn	0.338867	-1.535082	0.140430
Zn27	Zn	0.672201	-1.201749	0.473763
O28	O	0.119909	-1.906991	0.146423
O29	O	0.453243	-1.573658	0.479757
O30	O	0.786576	-1.240325	0.813090
C31	C	0.020293	-1.598278	0.000015
C32	C	0.353626	-1.264945	0.333349
C33	C	0.686959	-0.931612	0.666682
C34	C	0.031222	-1.422456	0.000010
C35	C	0.364556	-1.089123	0.333343
C36	C	0.697889	-0.755789	0.666677
C37	C	-0.179967	-1.873529	0.000065
C38	C	0.153367	-1.540196	0.333399
C39	C	0.486700	-1.206862	0.666732
C40	C	-0.283886	-1.855562	0.000080
C41	C	0.049448	-1.522229	0.333413
C42	C	0.382781	-1.188896	0.666747
C43	C	-0.035501	-2.174589	0.000033
C44	C	0.297832	-1.841256	0.333366
C45	C	0.631165	-1.507922	0.666700
C46	C	-0.046430	-2.350410	0.000027
C47	C	0.286903	-2.017077	0.333360
C48	C	0.620236	-1.683744	0.666694
C49	C	-0.541053	-1.950141	0.000015
C50	C	-0.207720	-1.616808	0.333348
C51	C	0.125614	-1.283474	0.666681
C52	C	-0.474150	-1.822733	0.000022
C53	C	-0.140816	-1.489399	0.333355
C54	C	0.192517	-1.156066	0.666689
C55	C	-0.368277	-1.841003	0.000054
C56	C	-0.034944	-1.507670	0.333388
C57	C	0.298389	-1.174337	0.666721
C58	C	-0.646936	-1.931873	-0.000018
C59	C	-0.313602	-1.598539	0.333316
C60	C	0.019731	-1.265206	0.666649
C61	C	0.164758	-1.899339	-0.000017
C62	C	0.498091	-1.566005	0.333316
C63	C	0.831425	-1.232672	0.666650
C64	C	0.268678	-1.917304	-0.000043
C65	C	0.602011	-1.583971	0.333290
C66	C	0.935344	-1.250638	0.666623
N67	N	-0.038678	-1.929058	0.456295
N68	N	0.294655	-1.595725	0.789628
N69	N	0.627989	-1.262392	1.122962
N70	N	0.023461	-1.843821	-0.456243
N71	N	0.356794	-1.510488	-0.122910
N72	N	0.690127	-1.177154	0.210424
H73	H	-0.496385	-1.699934	0.000007
H74	H	-0.163052	-1.366600	0.333340
H75	H	0.170282	-1.033267	0.666674
H76	H	0.086886	-1.756810	0.468543
H77	H	0.420220	-1.423477	0.801877
H78	H	0.753553	-1.090144	1.135210
Cl79	Cl	-0.136601	-2.063425	0.572424
Cl80	Cl	0.196732	-1.730092	0.905757
Cl81	Cl	0.530066	-1.396758	1.239090
Cl82	Cl	-0.161986	-1.462846	0.000046
Cl83	Cl	0.171348	-1.129513	0.333379
Cl84	Cl	0.504681	-0.796179	0.666712
H85	H	-0.518819	-2.072931	0.000038
H86	H	-0.185486	-1.739598	0.333371
H87	H	0.147847	-1.406264	0.666704
H88	H	0.106071	-1.349619	-0.000018
H89	H	0.439404	-1.016285	0.333315
H90	H	0.772737	-0.682952	0.666648
