data_functionalizedCrystal
_audit_creation_method	'MofGen! by Chris Wilmer'
_symmetry_space_group_name_H-M	'P1'
_symmetry_Int_Tables_number	1
_symmetry_cell_setting	triclinic
loop_
_symmetry_equiv_pos_as_xyz
  x,y,z
_cell_length_a	12.827892
_cell_length_b	10.686220
_cell_length_c	10.686551
_cell_angle_alpha	89.691918
_cell_angle_beta	85.594922
_cell_angle_gamma	85.603024
loop_
_atom_site_label
_atom_site_type_symbol
_atom_site_fract_x
_atom_site_fract_y
_atom_site_fract_z
Zn1	Zn	-0.254771	-1.972286	-0.562389
Zn2	Zn	-0.443915	-1.956055	-0.352633
Zn3	Zn	-0.281503	-1.746404	-0.368707
Zn4	Zn	-0.441797	-1.762485	-0.578411
O5	O	-0.355496	-1.859307	-0.465535
O6	O	-0.269560	-2.145674	-0.521133
O7	O	-0.434445	-1.914721	-0.179220
O8	O	-0.131715	-1.776430	-0.394421
O9	O	-0.408523	-2.133750	-0.367026
O10	O	-0.112075	-1.942384	-0.536719
O11	O	-0.315121	-1.760692	-0.191029
O12	O	-0.313068	-1.572995	-0.409957
O13	O	-0.404914	-1.803838	-0.751831
O14	O	-0.430835	-1.584810	-0.564025
O15	O	-0.267506	-1.957978	-0.740060
O16	O	-0.589876	-1.930315	-0.382561
O17	O	-0.588320	-1.788100	-0.548439
C18	C	-0.374623	-1.533386	-0.490474
C19	C	-0.382829	-1.393958	-0.501173
C20	C	-0.627013	-1.859227	-0.465519
C21	C	-0.743159	-1.859311	-0.465545
C22	C	-0.332992	-1.884512	-0.792735
C23	C	-0.323402	-1.895253	-0.932168
C24	C	-0.795668	-1.929780	-0.383541
C25	C	-0.915711	-1.929868	-0.383567
C26	C	-0.082916	-1.859424	-0.465576
C27	C	0.033241	-1.859474	-0.465594
C28	C	-0.336296	-2.186501	-0.440499
C29	C	-0.328114	-2.325931	-0.429830
C30	C	-0.377834	-1.834273	-0.139602
C31	C	-0.387115	-1.823775	-0.000151
H32	H	-0.751753	-1.990053	-0.313319
H33	H	-0.435960	-1.345526	-0.570436
C34	C	-0.257424	-1.390411	-0.337266
C35	C	-0.290428	-1.349061	-0.215511
C36	C	-0.225344	-1.408454	-0.130204
H37	H	-0.187176	-1.370481	-0.357218
H38	H	-0.261152	-1.478690	-0.342024
H39	H	-0.286690	-1.260802	-0.210756
H40	H	-0.360666	-1.368992	-0.195519
H41	H	-0.229071	-1.496732	-0.134963
H42	H	-0.155099	-1.388519	-0.150168
H43	H	-0.247733	-1.380415	-0.047583
H44	H	-0.960865	-1.990196	-0.313357
C45	C	-0.906488	-1.779243	-0.559356
C46	C	-0.834069	-1.856425	-0.634320
C47	C	-0.778531	-1.782564	-0.720718
H48	H	-0.870384	-1.720921	-0.515594
H49	H	-0.954047	-1.735118	-0.610895
H50	H	-0.786517	-1.900529	-0.582787
H51	H	-0.870145	-1.914745	-0.678110
H52	H	-0.826090	-1.738439	-0.772257
H53	H	-0.742434	-1.724246	-0.676945
H54	H	-0.729395	-1.834922	-0.771599
C55	C	-0.469694	-1.731410	-0.935355
C56	C	-0.537603	-1.796684	-0.854661
C57	C	-0.613680	-1.711639	-0.794927
H58	H	-0.508494	-1.687964	-0.996553
H59	H	-0.436431	-1.672894	-0.888351
H60	H	-0.570863	-1.855177	-0.901663
H61	H	-0.498834	-1.840125	-0.793440
H62	H	-0.580417	-1.653123	-0.747923
H63	H	-0.652472	-1.668198	-0.856134
H64	H	-0.659759	-1.755913	-0.740161
C65	C	-0.240907	-1.987694	-0.997025
C66	C	-0.247447	-1.980301	-1.127070
C67	C	-0.171462	-2.065423	-1.186858
H68	H	-0.252626	-2.070406	-0.969307
H69	H	-0.173199	-1.967722	-0.977100
H70	H	-0.315140	-2.000282	-1.146986
H71	H	-0.235717	-1.897610	-1.154825
H72	H	-0.103753	-2.045451	-1.166932
H73	H	-0.183188	-2.148129	-1.159129
H74	H	-0.175883	-2.060411	-1.275099
H75	H	-0.787075	-1.799050	-0.535775
