data_functionalizedCrystal
_audit_creation_method	'MofGen! by Chris Wilmer'
_symmetry_space_group_name_H-M	'P1'
_symmetry_Int_Tables_number	1
_symmetry_cell_setting	triclinic
loop_
_symmetry_equiv_pos_as_xyz
  x,y,z
_cell_length_a	6.394989
_cell_length_b	10.654550
_cell_length_c	9.130313
_cell_angle_alpha	90.003780
_cell_angle_beta	89.998359
_cell_angle_gamma	85.491307
loop_
_atom_site_label
_atom_site_type_symbol
_atom_site_fract_x
_atom_site_fract_y
_atom_site_fract_z
O1	O	-0.293432	-1.670942	-0.121910
O2	O	-0.321389	-1.305759	-0.121885
O3	O	-0.003422	-1.493534	-0.121899
O4	O	-0.611400	-1.483167	-0.121896
O5	O	-0.003430	-1.493532	0.121700
O6	O	-0.321398	-1.305757	0.121713
O7	O	-0.293441	-1.670940	0.121689
Cu8	Cu	-0.307420	-1.488348	0.143944
Cu9	Cu	-0.307410	-1.488351	-0.144140
O10	O	-0.611408	-1.483165	0.121703
C11	C	-0.319341	-1.258939	-0.000083
C12	C	-0.313199	-1.119430	-0.000074
C13	C	-0.295489	-1.717760	-0.000117
C14	C	-0.301631	-1.857269	-0.000135
N15	N	-0.307426	-1.488355	0.346566
C16	C	0.074425	-1.491483	-0.000105
C17	C	0.310751	-1.485219	-0.000106
N18	N	-0.307388	-1.488353	-0.346763
C19	C	-0.500414	-1.041927	-0.000094
C20	C	-0.494630	-0.910845	-0.000120
C21	C	-0.114402	-0.934782	-0.000110
C22	C	-0.120188	-1.065861	-0.000074
C23	C	-0.719936	-1.028107	-0.000106
C24	C	-0.714152	-0.897025	-0.000132
C25	C	-0.166678	-1.571524	0.423212
C26	C	-0.166653	-1.571521	0.576549
C27	C	-0.448142	-1.405175	0.576581
C28	C	-0.448155	-1.405174	0.423247
C29	C	-0.004169	-1.667567	0.423195
C30	C	-0.004143	-1.667563	0.576532
H31	H	0.042742	-0.891149	-0.000133
C32	C	-0.814422	-1.077288	-0.142152
H33	H	-0.815208	-1.166319	-0.137283
H34	H	-0.953964	-1.040956	-0.153370
H35	H	-0.732360	-1.054947	-0.223438
C36	C	-0.602943	-1.313691	0.660933
H37	H	-0.582787	-1.325606	0.763232
H38	H	-0.578962	-1.229503	0.635807
H39	H	-0.742602	-1.329542	0.635814
C40	C	-0.803778	-0.836264	0.141932
H41	H	-0.847705	-0.899911	0.205212
H42	H	-0.698670	-0.792669	0.189134
H43	H	-0.920284	-0.778738	0.119088
H44	H	-0.055053	-1.759289	0.375631
C45	C	0.212747	-1.636292	0.366960
H46	H	0.301962	-1.623418	0.447885
H47	H	0.272114	-1.704158	0.309149
H48	H	0.197980	-1.561982	0.309168
C49	C	0.200860	-1.624195	0.640778
H50	H	0.292141	-1.604889	0.563284
H51	H	0.170180	-1.551381	0.699352
H52	H	0.266753	-1.689581	0.699321
H53	H	-0.039940	-1.764454	0.618143
C54	C	-0.835916	-1.068975	0.137612
H55	H	-0.839854	-1.157925	0.137620
H56	H	-0.764415	-1.043734	0.222566
H57	H	-0.975056	-1.030491	0.137592
C58	C	-0.825600	-0.841841	-0.137965
H59	H	-0.875366	-0.908096	-0.194630
H60	H	-0.940479	-0.785011	-0.109827
H61	H	-0.729601	-0.798391	-0.194517
C62	C	-0.602983	-1.313697	0.338934
H63	H	-0.582836	-1.325604	0.236631
H64	H	-0.742625	-1.329542	0.364079
H65	H	-0.578985	-1.229503	0.364060
H66	H	0.032261	-1.128960	-0.000037
