data_functionalizedCrystal
_audit_creation_method	'MofGen! by Chris Wilmer'
_symmetry_space_group_name_H-M	'P1'
_symmetry_Int_Tables_number	1
_symmetry_cell_setting	triclinic
loop_
_symmetry_equiv_pos_as_xyz
  x,y,z
_cell_length_a	14.560438
_cell_length_b	12.477989
_cell_length_c	14.560438
_cell_angle_alpha	90.000874
_cell_angle_beta	120.004823
_cell_angle_gamma	64.370485
loop_
_atom_site_label
_atom_site_type_symbol
_atom_site_fract_x
_atom_site_fract_y
_atom_site_fract_z
Zr1	Zr	1.114215	0.973052	0.175044
O2	O	1.287778	0.811774	0.312681
O3	O	0.928139	1.022491	0.132843
O4	O	1.119752	1.022494	0.324461
O5	O	1.096160	0.811771	-0.030079
O6	O	1.138355	1.188714	0.333762
O7	O	1.096165	0.811772	0.121063
O8	O	0.795593	1.188710	-0.009007
O9	O	1.438922	0.811776	0.312691
O10	O	1.023192	1.167626	0.121797
O11	O	1.009306	1.043577	0.002059
O12	O	1.234907	1.043580	0.227665
O13	O	1.221021	0.919531	0.107927
Zr14	Zr	1.143877	1.238153	-0.051174
Zr15	Zr	1.143884	1.238155	0.189880
Zr16	Zr	1.114209	0.973051	-0.066009
Zr17	Zr	1.355272	0.973054	0.175060
Zr18	Zr	0.902820	1.238151	-0.051189
O19	O	1.329954	1.188714	-0.008972
O20	O	1.329963	1.188716	0.333775
O21	O	1.287769	0.811772	-0.030066
O22	O	0.970315	1.399431	-0.188810
O23	O	0.970324	1.399433	0.153937
O24	O	0.928129	1.022489	-0.209904
O25	O	1.161932	1.399434	0.153949
O26	O	1.138340	1.188711	-0.200590
O27	O	1.119738	1.022491	-0.209892
O28	O	1.161928	1.399434	0.002808
O29	O	1.462505	1.022497	0.324483
O30	O	0.795588	1.188708	-0.200612
O31	O	0.819171	1.399430	-0.188820
O32	O	0.819176	1.399431	0.002786
O33	O	1.438917	0.811774	0.121085
O34	O	1.462499	1.022496	0.132877
O35	O	1.023186	1.167625	-0.103794
O36	O	1.037072	1.291674	0.015943
O37	O	1.248786	1.167628	0.121811
O38	O	1.234900	1.043579	0.002074
C39	C	0.827521	1.105600	0.061916
C40	C	0.725185	1.105599	0.061909
C41	C	0.750153	1.014025	0.140068
C42	C	0.654014	1.014031	0.140097
C43	C	0.507941	1.197189	-0.016201
C44	C	0.604080	1.197188	-0.016224
C45	C	1.091935	0.774000	0.043379
C46	C	1.079340	0.661457	0.037080
C47	C	1.430572	1.105605	0.061955
C48	C	1.532907	1.105606	0.061962
C49	C	1.129055	1.105604	0.363456
C50	C	1.129057	1.105605	0.465790
C51	C	1.166157	1.437205	0.080492
C52	C	1.178753	1.549748	0.086790
C53	C	1.139307	1.197177	0.518991
C54	C	1.139297	1.197182	0.615137
C55	C	1.118791	1.014031	0.604876
C56	C	1.118793	1.014032	0.508727
C57	C	1.129041	1.105603	0.760416
C58	C	1.129045	1.105608	0.658086
C59	C	0.864632	1.437203	0.080473
C60	C	0.774892	1.549745	0.086764
C61	C	0.827512	1.105598	-0.239605
C62	C	0.725174	1.105597	-0.341945
C63	C	0.864623	1.437201	-0.221048
C64	C	0.774881	1.549743	-0.317090
C65	C	1.393469	0.774004	0.344919
C66	C	1.483212	0.661463	0.440961
C67	C	1.393461	0.774002	0.043398
C68	C	1.483201	0.661460	0.037107
C69	C	1.430580	1.105607	0.363476
C70	C	1.532918	1.105608	0.465816
C71	C	0.725504	1.537844	0.144983
C72	C	0.641196	1.643580	0.150916
C73	C	0.606271	1.761214	0.098624
C74	C	0.655668	1.773113	0.040403
C75	C	0.739981	1.667379	0.034477
C76	C	0.739986	1.667357	-0.299691
C77	C	0.655678	1.773112	-0.389923
C78	C	0.606259	1.761250	-0.497553
C79	C	0.641162	1.643623	-0.514952
C80	C	0.725475	1.537871	-0.424721
C81	C	1.518118	0.543848	0.423561
C82	C	1.602457	0.438093	0.513793
C83	C	1.651880	0.449956	0.621424
C84	C	1.616972	0.567582	0.638822
C85	C	1.532641	0.673334	0.548591
C86	C	1.532599	0.673361	-0.021102
C87	C	1.616934	0.567626	-0.027009
C88	C	1.651862	0.449991	0.025287
C89	C	1.602460	0.438093	0.083503
C90	C	1.518134	0.543827	0.089416
C91	C	0.684339	1.170347	-0.445279
C92	C	0.588189	1.170331	-0.541436
C93	C	0.573715	1.040814	-0.430910
C94	C	0.669869	1.040823	-0.334757
H95	H	1.273500	0.540209	0.134175
H96	H	1.630912	0.342300	0.126081
H97	H	1.657143	0.577338	-0.074419
H98	H	1.720527	0.363906	0.020464
Cl99	Cl	0.769396	1.389973	0.210738
Cl100	Cl	1.456034	0.528844	0.162591
Cl101	Cl	1.152179	1.312308	0.682014
H102	H	1.504222	0.769098	0.562772
H103	H	0.537606	1.847370	-0.571016
Cl104	Cl	1.488714	0.821232	-0.086850
Cl105	Cl	0.685411	0.898905	0.238358
Cl106	Cl	0.753866	1.251772	-0.454320
Cl107	Cl	0.721215	0.959409	-0.204841
Cl108	Cl	0.579108	1.628593	0.224107
H109	H	0.554947	1.223055	-0.625572
H110	H	0.409327	1.271756	-0.079815
Cl111	Cl	0.933045	0.676192	-0.036069
Cl112	Cl	0.500271	1.894126	0.106081
H113	H	0.627219	1.868905	-0.002171
H114	H	0.848759	0.939441	0.203682
H115	H	1.147663	1.271743	0.484033
Cl116	Cl	0.504178	0.959394	-0.421884
Cl117	Cl	0.769323	1.390017	-0.446614
Cl118	Cl	0.802050	1.682361	-0.038729
Cl119	Cl	1.646319	0.290236	0.491896
H120	H	1.110436	0.939473	0.639846
Cl121	Cl	1.105898	0.898909	0.441835
Cl122	Cl	1.456001	0.528903	0.288264
Cl123	Cl	0.802105	1.682302	-0.164393
Cl124	Cl	0.572689	1.312323	-0.114485
H125	H	0.600913	1.633983	-0.602597
H126	H	0.627269	1.868879	-0.375737
H127	H	1.720546	0.363835	0.694886
Cl128	Cl	1.679111	0.582474	0.774138
