data_functionalizedCrystal
_audit_creation_method	'MofGen! by Chris Wilmer'
_symmetry_space_group_name_H-M	'P1'
_symmetry_Int_Tables_number	1
_symmetry_cell_setting	triclinic
loop_
_symmetry_equiv_pos_as_xyz
  x,y,z
_cell_length_a	17.019311
_cell_length_b	27.732048
_cell_length_c	15.500227
_cell_angle_alpha	92.799543
_cell_angle_beta	83.285249
_cell_angle_gamma	83.020427
loop_
_atom_site_label
_atom_site_type_symbol
_atom_site_fract_x
_atom_site_fract_y
_atom_site_fract_z
O1	O	1.053658	0.056902	-0.150450
O2	O	0.823015	0.065287	-0.133270
O3	O	0.945499	-0.009290	-0.142377
O4	O	0.931174	0.131480	-0.141343
O5	O	0.938067	-0.004782	0.002065
O6	O	0.815583	0.069795	0.011172
O7	O	1.046226	0.061410	-0.006008
Cu8	Cu	0.930226	0.066014	0.015770
Cu9	Cu	0.939015	0.060683	-0.155048
O10	O	0.923742	0.135988	0.003099
C11	C	0.789800	0.067311	-0.058852
C12	C	0.701905	0.066621	-0.052304
C13	C	0.204577	0.062857	-0.011323
C14	C	0.287165	0.063506	-0.017477
C15	C	0.332511	0.061369	-0.099291
C16	C	0.295264	0.058589	-0.174955
C17	C	0.212678	0.057944	-0.168800
C18	C	0.582072	0.063196	-0.121813
C19	C	0.664664	0.063840	-0.127963
C20	C	0.656558	0.068758	0.029516
C21	C	0.573971	0.068110	0.035663
C22	C	0.536731	0.065332	-0.040001
C23	C	0.416929	0.062030	-0.105583
C24	C	0.452314	0.064674	-0.033707
C25	C	0.941482	-0.025044	-0.070131
C26	C	0.940576	-0.078700	-0.070057
C27	C	1.007258	-0.417412	-0.075068
C28	C	1.003899	-0.619077	-0.074830
O29	O	1.064874	-0.650239	-0.079409
N30	N	0.931270	-0.638314	-0.069419
C31	C	0.859477	-0.607132	-0.064073
O32	O	0.797625	-0.628122	-0.059475
C33	C	0.862837	-0.405468	-0.064318
C34	C	0.935470	-0.386234	-0.069720
C35	C	1.079885	-0.398177	-0.080471
C36	C	1.080724	-0.347764	-0.080525
C37	C	1.008936	-0.316585	-0.075177
C38	C	0.936309	-0.335820	-0.069775
C39	C	0.791045	-0.374287	-0.058978
C40	C	0.791891	-0.323868	-0.059042
C41	C	0.864524	-0.304634	-0.064444
C42	C	0.865359	-0.254228	-0.064482
N43	N	0.937988	-0.234991	-0.069892
C44	C	1.009776	-0.266169	-0.075240
C45	C	0.857717	-0.713009	-0.063944
C46	C	0.856877	-0.763425	-0.063881
C47	C	1.001300	-0.775366	-0.074639
C48	C	1.002139	-0.724950	-0.074695
C49	C	0.930346	-0.693772	-0.069354
C50	C	1.011532	-0.160297	-0.075354
C51	C	1.012364	-0.109878	-0.075405
C52	C	0.867942	-0.097941	-0.064651
C53	C	0.867109	-0.148355	-0.064596
C54	C	0.938911	-0.179532	-0.069951
O55	O	0.804417	-0.223038	-0.059914
O56	O	1.071620	-0.245170	-0.079857
C57	C	1.006419	-0.467826	-0.075013
C58	C	0.933792	-0.487061	-0.069610
C59	C	0.862004	-0.455882	-0.064263
C60	C	0.932952	-0.537476	-0.069548
C61	C	1.004740	-0.568655	-0.074896
C62	C	1.077369	-0.549418	-0.080306
C63	C	1.078207	-0.499004	-0.080361
C64	C	0.789376	-0.475119	-0.058852
C65	C	0.788543	-0.525533	-0.058797
C66	C	0.860331	-0.556712	-0.064145
C67	C	1.079441	0.059386	-0.080428
C68	C	1.167337	0.060076	-0.086982
C69	C	0.927759	0.151741	-0.069149
C70	C	0.928665	0.205397	-0.069229
N71	N	0.924049	0.069763	0.135914
N72	N	0.945198	0.056930	-0.275193
C73	C	0.975968	0.038174	0.177331
C74	C	0.971304	0.041014	0.268250
C75	C	0.914725	0.075446	0.317752
C76	C	0.862801	0.107037	0.276329
C77	C	0.867461	0.104194	0.185412
C78	C	0.897935	0.085678	0.592467
C79	C	0.893279	0.088520	0.683391
C80	C	1.001782	0.022495	0.675305
C81	C	1.006441	0.019658	0.584386
C82	C	0.954514	0.051247	0.542972
C83	C	0.909958	0.078351	0.410686
C84	C	0.959278	0.048340	0.450039
H85	H	0.332191	0.056852	-0.241569
N86	N	0.403404	0.066980	0.054529
H87	H	0.374873	0.037177	0.059635
H88	H	0.439713	0.068181	0.101463
N89	N	0.832244	0.125659	0.736773
H90	H	0.795482	0.108459	0.777110
H91	H	0.860363	0.148154	0.772185
H92	H	0.701582	0.062104	-0.194588
H93	H	1.139869	-0.332108	-0.084928
H94	H	0.317482	0.065770	0.044132
H95	H	0.453859	0.060289	-0.172196
H96	H	1.135821	-0.574812	-0.084657
H97	H	0.551762	0.060933	-0.183425
N98	N	0.848938	0.115487	0.464086
H99	H	0.877006	0.137985	0.499557
H100	H	0.816768	0.135038	0.424005
N101	N	1.090709	-0.089136	-0.081228
H102	H	1.124887	-0.102186	-0.137114
H103	H	1.080286	-0.052468	-0.080411
N104	N	1.057783	-0.011574	0.719977
H105	H	1.025856	-0.031718	0.759951
H106	H	1.094321	-0.033786	0.674769
H107	H	0.182357	0.055680	-0.230409
H108	H	1.070000	-0.185676	-0.079718
N109	N	1.027328	0.006959	0.312920
H110	H	1.063890	-0.015277	0.267764
H111	H	1.060157	0.026571	0.348019
H112	H	0.797731	-0.779080	-0.059467
H113	H	0.537058	0.069839	0.102284
N114	N	1.157320	-0.431801	-0.086238
H115	H	1.203449	-0.411958	-0.089669
H116	H	1.157363	-0.451309	-0.032898
N117	N	1.080477	-0.704205	-0.080521
H118	H	1.125823	-0.731611	-0.083897
H119	H	1.086732	-0.685216	-0.134329
H120	H	1.059752	-0.800761	-0.078993
N121	N	1.067474	-0.017476	0.531000
H122	H	1.062553	-0.014480	0.467119
H123	H	1.122757	-0.011535	0.542704
H124	H	0.799252	-0.687628	-0.059594
N125	N	0.712704	-0.395024	-0.053141
H126	H	0.667362	-0.367616	-0.049764
H127	H	0.711957	-0.417348	-0.106426
N128	N	0.714448	-0.290247	-0.053265
H129	H	0.708820	-0.267400	0.000499
H130	H	0.714368	-0.270758	-0.106628
N131	N	0.788772	-0.169104	-0.058757
H132	H	0.743423	-0.141701	-0.055375
H133	H	0.788034	-0.191424	-0.112050
N134	N	0.711943	-0.441495	-0.053084
H135	H	0.665812	-0.461336	-0.049649
H136	H	0.706388	-0.418653	0.000675
N137	N	0.696723	0.071757	0.111121
H138	H	0.755921	0.071842	0.094811
H139	H	0.673734	0.102685	0.147071
N140	N	0.710201	-0.546279	-0.052974
H141	H	0.703871	-0.565267	0.000832
H142	H	0.664900	-0.518850	-0.049633
N143	N	0.790515	-0.064308	-0.058860
H144	H	0.802075	-0.029452	-0.059712
H145	H	0.761581	-0.072171	-0.110043
H146	H	1.137352	-0.483348	-0.084760
N147	N	1.036998	0.001039	0.123943
H148	H	1.069178	-0.018542	0.163980
H149	H	1.008881	-0.021430	0.088475
N150	N	0.841944	0.119752	0.547796
H151	H	0.809043	0.100194	0.512688
H152	H	0.805447	0.141992	0.592998
N153	N	0.155674	0.065158	0.076920
H154	H	0.191876	0.066682	0.123906
H155	H	0.114809	0.095141	0.083636
H156	H	0.816728	0.135071	0.316639
N157	N	0.811469	0.138267	0.140733
H158	H	0.778571	0.118707	0.105626
H159	H	0.774970	0.160506	0.185935
H160	H	1.005342	0.020303	0.409733
