data_functionalizedCrystal
_audit_creation_method	'MofGen! by Chris Wilmer'
_symmetry_space_group_name_H-M	'P1'
_symmetry_Int_Tables_number	1
_symmetry_cell_setting	triclinic
loop_
_symmetry_equiv_pos_as_xyz
  x,y,z
_cell_length_a	19.288864
_cell_length_b	9.065218
_cell_length_c	18.366186
_cell_angle_alpha	89.995673
_cell_angle_beta	89.977106
_cell_angle_gamma	84.076066
loop_
_atom_site_label
_atom_site_type_symbol
_atom_site_fract_x
_atom_site_fract_y
_atom_site_fract_z
O1	O	0.922782	0.184031	-0.060781
O2	O	0.720714	0.208857	-0.060731
O3	O	0.825924	-0.018345	-0.060755
O4	O	0.817571	0.411233	-0.060756
O5	O	0.825906	-0.018356	0.060344
O6	O	0.720696	0.208846	0.060369
O7	O	0.922763	0.184020	0.060319
Zn8	Zn	0.821727	0.196431	0.079571
Zn9	Zn	0.821751	0.196446	-0.079983
O10	O	0.817553	0.411222	0.060343
C11	C	0.694822	0.208053	-0.000174
C12	C	0.617700	0.205655	-0.000155
C13	C	0.574039	0.338966	-0.000167
C14	C	0.501574	0.336713	-0.000175
C15	C	0.472774	0.201142	-0.000186
C16	C	0.516445	0.067812	-0.000170
C17	C	0.588908	0.070069	-0.000155
C18	C	0.363691	0.094571	-0.042637
C19	C	0.291229	0.092320	-0.042657
C20	C	0.249274	0.194176	-0.000230
C21	C	0.279789	0.298308	0.042207
C22	C	0.352252	0.300565	0.042222
C23	C	0.394201	0.198680	-0.000202
C24	C	0.127038	0.325054	-0.000250
C25	C	0.054572	0.322796	-0.000253
C26	C	0.069445	0.053891	-0.000256
C27	C	0.141909	0.056153	-0.000245
C28	C	0.170701	0.191739	-0.000245
C29	C	0.825112	-0.073309	-0.000206
C30	C	0.822712	-0.237067	-0.000209
C31	C	0.948655	0.184825	-0.000239
C32	C	1.025777	0.187223	-0.000263
C33	C	0.818365	0.466186	-0.000207
C34	C	0.820765	0.629945	-0.000209
N35	N	0.821715	0.196420	0.188462
N36	N	0.821767	0.196445	-0.188874
C37	C	0.868318	0.095865	0.226552
C38	C	0.868323	0.095858	0.302779
C39	C	0.821731	0.196433	0.340915
C40	C	0.775119	0.296996	0.302816
C41	C	0.775111	0.296990	0.226590
C42	C	0.813476	0.330848	0.461676
C43	C	0.813489	0.330856	0.537901
C44	C	0.821751	0.196451	0.576022
C45	C	0.830015	0.062032	0.537909
C46	C	0.830007	0.062026	0.461683
C47	C	0.821734	0.196450	0.423570
C48	C	0.868361	0.095880	0.696767
C49	C	0.868361	0.095871	0.772996
C50	C	0.775160	0.297022	0.773031
C51	C	0.775157	0.297018	0.696803
C52	C	0.821761	0.196448	0.658676
H53	H	0.150482	0.435456	-0.000239
H54	H	0.019024	0.431359	-0.000258
C55	C	0.723868	0.407632	0.344761
C56	C	0.723907	0.407717	0.428607
C57	C	0.672651	0.518353	0.470550
C58	C	0.621356	0.628903	0.428648
C59	C	0.621314	0.628822	0.344797
C60	C	0.672570	0.518187	0.302854
H61	H	0.761881	0.325877	0.459630
H62	H	0.672682	0.518412	0.532622
H63	H	0.583413	0.710802	0.459697
H64	H	0.583341	0.710662	0.313774
H65	H	0.672539	0.518128	0.240781
H66	H	0.597476	0.449370	-0.000169
H67	H	0.045997	-0.056494	-0.000310
C68	C	0.919626	-0.014747	0.814900
C69	C	0.970902	-0.125333	0.772959
C70	C	1.022169	-0.235952	0.814865
C71	C	1.022159	-0.235985	0.898711
C72	C	0.970882	-0.125394	0.940656
C73	C	0.919615	-0.014776	0.898750
H74	H	0.970911	-0.125313	0.710887
H75	H	1.060128	-0.317818	0.783814
H76	H	1.060110	-0.317871	0.929732
H77	H	0.970873	-0.125415	1.002728
H78	H	0.881656	0.067090	0.929801
H79	H	0.906307	0.013986	0.665722
H80	H	0.177459	-0.052404	-0.000239
C81	C	0.723907	0.407654	0.814972
C82	C	0.723959	0.407759	0.898818
C83	C	0.672702	0.518388	0.940764
C84	C	0.621393	0.628913	0.898863
C85	C	0.621338	0.628812	0.815012
C86	C	0.672595	0.518182	0.773067
H87	H	0.761943	0.325938	0.929839
H88	H	0.672743	0.518463	1.002836
H89	H	0.583450	0.710808	0.929914
H90	H	0.583354	0.710633	0.783991
H91	H	0.672555	0.518108	0.710995
H92	H	0.466018	0.445275	-0.000183
H93	H	0.737211	0.378905	0.665789
C94	C	0.257669	-0.022217	-0.089340
C95	C	0.276873	-0.189198	-0.076166
C96	C	0.243316	-0.303737	-0.122852
C97	C	0.190555	-0.251294	-0.182713
C98	C	0.171348	-0.084305	-0.195890
C99	C	0.204904	0.030234	-0.149203
H100	H	0.315933	-0.228027	-0.031851
H101	H	0.257535	-0.427354	-0.113098
H102	H	0.165714	-0.336083	-0.217273
H103	H	0.132288	-0.045477	-0.240205
H104	H	0.190686	0.153851	-0.158958
C105	C	0.385820	0.415091	0.088905
C106	C	0.339682	0.527137	0.135576
C107	C	0.373250	0.641660	0.182262
C108	C	0.452957	0.644136	0.182278
C109	C	0.499100	0.532085	0.135605
C110	C	0.465532	0.417563	0.088919
H111	H	0.280674	0.525308	0.135567
H112	H	0.339092	0.724607	0.216813
H113	H	0.477806	0.728912	0.216837
H114	H	0.558108	0.533915	0.135614
H115	H	0.499690	0.334616	0.054368
C116	C	0.233652	0.410358	0.088885
C117	C	0.234368	0.577962	0.075722
C118	C	0.188228	0.690010	0.122398
C119	C	0.141372	0.634454	0.182237
C120	C	0.140654	0.466841	0.195402
C121	C	0.186794	0.354793	0.148727
H122	H	0.269055	0.619095	0.031424
H123	H	0.188760	0.814088	0.112652
H124	H	0.107217	0.717398	0.216789
H125	H	0.105967	0.425708	0.239701
H126	H	0.186262	0.230715	0.158473
H127	H	0.397845	0.011624	-0.077190
C128	C	0.484768	-0.081318	-0.000184
C129	C	0.436956	-0.119849	0.062686
C130	C	0.405280	-0.268985	0.062677
C131	C	0.421416	-0.379591	-0.000203
C132	C	0.469229	-0.341063	-0.063078
C133	C	0.500906	-0.191927	-0.063068
H134	H	0.425010	-0.037969	0.109238
H135	H	0.369885	-0.297505	0.109221
H136	H	0.397967	-0.489991	-0.000210
H137	H	0.481176	-0.422943	-0.109630
H138	H	0.536301	-0.163407	-0.109613
H139	H	0.906274	0.013971	0.333798
H140	H	0.836734	-0.047423	0.430654
C141	C	0.636940	-0.076583	-0.000148
C142	C	0.633079	-0.187820	0.062733
C143	C	0.681112	-0.334474	0.062737
C144	C	0.733007	-0.369890	-0.000139
C145	C	0.736870	-0.258651	-0.063024
C146	C	0.688836	-0.111997	-0.063029
H147	H	0.594662	-0.161605	0.109281
H148	H	0.678252	-0.416820	0.109289
H149	H	0.768564	-0.478452	-0.000135
H150	H	0.775287	-0.284866	-0.109573
H151	H	0.691696	-0.029650	-0.109581
H152	H	0.906265	0.013972	0.195510
C153	C	0.839156	-0.085826	0.579831
C154	C	0.839197	-0.085830	0.663677
C155	C	0.848367	-0.233679	0.705603
C156	C	0.857494	-0.381525	0.663683
C157	C	0.857453	-0.381527	0.579832
C158	C	0.848283	-0.233677	0.537906
H159	H	0.832440	0.023619	0.694713
H160	H	0.848397	-0.233677	0.767675
H161	H	0.864282	-0.490972	0.694718
H162	H	0.864210	-0.490976	0.548796
H163	H	0.848253	-0.233679	0.475834
C164	C	0.804398	0.478711	0.579822
C165	C	0.795294	0.626554	0.537895
C166	C	0.786202	0.774413	0.579813
C167	C	0.786214	0.774428	0.663659
C168	C	0.795317	0.626580	0.705591
C169	C	0.804410	0.478721	0.663673
H170	H	0.795286	0.626547	0.475823
H171	H	0.779463	0.883860	0.548772
H172	H	0.779483	0.883882	0.694690
H173	H	0.795326	0.626586	0.767663
H174	H	0.811149	0.369274	0.694714
H175	H	0.737160	0.378875	0.195577
H176	H	0.806736	0.440305	0.430644
