data_functionalizedCrystal
_audit_creation_method	'MofGen! by Chris Wilmer'
_symmetry_space_group_name_H-M	'P1'
_symmetry_Int_Tables_number	1
_symmetry_cell_setting	triclinic
loop_
_symmetry_equiv_pos_as_xyz
  x,y,z
_cell_length_a	13.032831
_cell_length_b	12.759394
_cell_length_c	12.759387
_cell_angle_alpha	89.968595
_cell_angle_beta	82.808495
_cell_angle_gamma	82.819699
loop_
_atom_site_label
_atom_site_type_symbol
_atom_site_fract_x
_atom_site_fract_y
_atom_site_fract_z
Zn1	Zn	1.597719	-0.622500	-0.797702
Zn2	Zn	1.597619	-0.798204	-0.622008
Zn3	Zn	1.422958	-0.600207	-0.599758
Zn4	Zn	1.422940	-0.775790	-0.775376
O5	O	1.510309	-0.699175	-0.698711
O6	O	1.743947	-0.664517	-0.793052
O7	O	1.574416	-0.771989	-0.472031
O8	O	1.446190	-0.456149	-0.626048
O9	O	1.743874	-0.793606	-0.663969
O10	O	1.574585	-0.472528	-0.771477
O11	O	1.446093	-0.626522	-0.455684
O12	O	1.276714	-0.604788	-0.604399
O13	O	1.446159	-0.755406	-0.925363
O14	O	1.276701	-0.733789	-0.733424
O15	O	1.574568	-0.642784	-0.941766
O16	O	1.574399	-0.942245	-0.642320
O17	O	1.446063	-0.925778	-0.754999
C18	C	1.238789	-0.664438	-0.664075
C19	C	1.122631	-0.649603	-0.649282
C20	C	1.070865	-0.706918	-0.706431
C21	C	0.950810	-0.691586	-0.691144
C22	C	1.510246	-0.972135	-0.698678
C23	C	1.510315	-1.088920	-0.698711
C24	C	1.644052	-1.106027	-0.581492
C25	C	1.710947	-1.169444	-0.522898
C26	C	1.711009	-1.279174	-0.522934
C27	C	1.644169	-1.325487	-0.581573
C28	C	1.577274	-1.262070	-0.640167
C29	C	1.577218	-1.152338	-0.640122
C30	C	1.443544	-1.244964	-0.757390
C31	C	1.443476	-1.135234	-0.757349
C32	C	1.376705	-1.291278	-0.816029
C33	C	1.309802	-1.227859	-0.874618
C34	C	1.309743	-1.118124	-0.874579
C35	C	1.376580	-1.071816	-0.815943
C36	C	1.782890	-0.734049	-0.733483
C37	C	1.899047	-0.748910	-0.748301
C38	C	1.510372	-0.699081	-0.972753
C39	C	1.510399	-0.699042	-1.089533
C40	C	1.510401	-0.425153	-0.698771
C41	C	1.510440	-0.308382	-0.698797
C42	C	1.644095	-0.850453	-1.325989
C43	C	1.710887	-0.926210	-1.279626
C44	C	1.710852	-0.926245	-1.169900
C45	C	1.644017	-0.850518	-1.106533
C46	C	1.577225	-0.774762	-1.152896
C47	C	1.577269	-0.774733	-1.262626
C48	C	1.443608	-0.623285	-1.135896
C49	C	1.443646	-0.623243	-1.245622
C50	C	1.376773	-0.547558	-1.072529
C51	C	1.309985	-0.471796	-1.118892
C52	C	1.310023	-0.471762	-1.228625
C53	C	1.376855	-0.547487	-1.291985
C54	C	1.510306	-0.699200	-0.425743
C55	C	1.510482	-0.698970	-0.308989
H56	H	1.643995	-1.016678	-0.581441
O57	O	0.958059	-0.828943	-0.828117
H58	H	0.937150	-0.908729	-0.807322
O59	O	1.129877	-0.786930	-0.786263
H60	H	1.214912	-0.786407	-0.785751
O61	O	1.782896	-1.007943	-1.119885
H62	H	1.829383	-1.060590	-1.182377
H63	H	1.078069	-0.589178	-0.589042
O64	O	1.783058	-1.119498	-0.459675
H65	H	1.771782	-1.032542	-0.469491
O66	O	1.782972	-1.007888	-1.347965
H67	H	1.836184	-0.967659	-1.404739
H68	H	0.906253	-0.631158	-0.630899
O69	O	1.643974	-0.850552	-0.988185
H70	H	1.701649	-0.915949	-0.966592
H71	H	1.765486	-1.330809	-0.475228
H72	H	1.644234	-1.414837	-0.581608
O73	O	1.376735	-0.547584	-0.954181
H74	H	1.434416	-0.612974	-0.932586
O75	O	1.376518	-0.953466	-0.815871
H76	H	1.297691	-0.914545	-0.784502
O77	O	1.644198	-0.850352	-1.444345
H78	H	1.701910	-0.915716	-1.480621
H79	H	1.376897	-0.547463	-1.381332
H80	H	1.255568	-0.410149	-1.067290
O81	O	1.376756	-1.409627	-0.816065
H82	H	1.434490	-1.445946	-0.765459
H83	H	1.255392	-1.265578	-0.922363
O84	O	1.237995	-0.390046	-1.278637
H85	H	1.155958	-0.397563	-1.247121
O86	O	1.237580	-1.049721	-0.937765
H87	H	1.191110	-1.100364	-0.978532
