data_functionalizedCrystal
_audit_creation_method	'MofGen! by Chris Wilmer'
_symmetry_space_group_name_H-M	'P1'
_symmetry_Int_Tables_number	1
_symmetry_cell_setting	triclinic
loop_
_symmetry_equiv_pos_as_xyz
  x,y,z
_cell_length_a	17.699083
_cell_length_b	11.792241
_cell_length_c	16.776229
_cell_angle_alpha	89.993219
_cell_angle_beta	89.998886
_cell_angle_gamma	83.738215
loop_
_atom_site_label
_atom_site_type_symbol
_atom_site_fract_x
_atom_site_fract_y
_atom_site_fract_z
O1	O	1.004843	0.143527	-0.066177
O2	O	0.784565	0.162200	-0.066203
O3	O	0.900050	-0.012371	-0.066184
O4	O	0.889358	0.318098	-0.066196
O5	O	0.900034	-0.012382	0.066393
O6	O	0.784549	0.162189	0.066374
O7	O	1.004828	0.143516	0.066400
Zn8	Zn	0.894686	0.152851	0.087436
Zn9	Zn	0.894706	0.152865	-0.087239
O10	O	0.889343	0.318087	0.066381
C11	C	0.756356	0.161525	0.000082
C12	C	0.672328	0.159518	0.000072
C13	C	0.899370	-0.054660	0.000104
C14	C	0.897360	-0.180649	0.000103
C15	C	0.624253	0.261988	0.000069
C16	C	0.545299	0.260095	0.000079
C17	C	0.514422	0.155731	0.000087
C18	C	0.562503	0.053254	0.000093
C19	C	0.641455	0.055148	0.000089
C20	C	0.244099	0.045613	0.000113
C21	C	0.165141	0.043727	0.000116
C22	C	0.147944	0.250560	0.000104
C23	C	0.226896	0.252454	0.000099
C24	C	0.274970	0.149977	0.000109
C25	C	0.360580	0.152031	0.000099
C26	C	0.428814	0.153676	0.000091
C27	C	0.893664	-0.411317	0.000090
C28	C	0.895718	-0.282956	0.000097
C29	C	1.033036	0.144190	0.000113
C30	C	1.117065	0.146198	0.000118
C31	C	0.890022	0.360375	0.000091
C32	C	0.892032	0.486365	0.000087
N33	N	0.894678	0.152841	0.206647
N34	N	0.894721	0.152866	-0.206450
C35	C	0.945830	0.075572	0.248373
C36	C	0.945834	0.075571	0.331825
C37	C	0.894689	0.152845	0.373550
C38	C	0.843531	0.230117	0.331819
C39	C	0.843524	0.230112	0.248368
C40	C	0.843559	0.230139	0.668366
C41	C	0.843571	0.230141	0.751822
C42	C	0.945869	0.075599	0.751823
C43	C	0.945862	0.075593	0.668372
C44	C	0.894702	0.152861	0.626648
C45	C	0.894697	0.152860	0.536160
C46	C	0.894697	0.152853	0.464037
H47	H	0.649386	0.346973	0.000061
H48	H	0.987525	0.012680	0.785804
C49	C	0.492417	0.372814	0.000068
C50	C	0.405572	0.370740	0.000076
C51	C	0.352689	0.483464	0.000064
C52	C	0.386651	0.598262	0.000044
C53	C	0.473501	0.600340	0.000036
C54	C	0.526383	0.487616	0.000048
H55	H	0.380427	0.285756	0.000090
H56	H	0.288398	0.481925	0.000069
H57	H	0.347505	0.681707	0.000035
H58	H	0.498646	0.685324	0.000021
H59	H	0.590675	0.489155	0.000042
C60	C	0.095060	0.363289	0.000102
C61	C	0.038411	0.390435	-0.068737
C62	C	-0.014470	0.503160	-0.068742
C63	C	-0.010703	0.588740	0.000093
C64	C	0.045948	0.561597	0.068938
C65	C	0.098829	0.448872	0.068942
H66	H	0.035620	0.327081	-0.119697
H67	H	-0.056407	0.523252	-0.119705
H68	H	-0.049849	0.672186	0.000090
H69	H	0.048739	0.624951	0.119898
H70	H	0.140766	0.428779	0.119906
C71	C	0.694341	-0.057570	0.000091
C72	C	0.690583	-0.143153	0.068939
C73	C	0.743469	-0.255874	0.068946
C74	C	0.800113	-0.283012	0.000104
C75	C	0.803874	-0.197426	-0.068750
C76	C	0.750988	-0.084705	-0.068756
H77	H	0.648649	-0.123067	0.119905
H78	H	0.740685	-0.319230	0.119917
H79	H	0.839262	-0.366455	0.000109
H80	H	0.845808	-0.217513	-0.119715
H81	H	0.753772	-0.021349	-0.119727
C82	C	1.002092	-0.009433	0.202480
C83	C	1.058355	-0.094431	0.248382
C84	C	1.114617	-0.179441	0.202492
C85	C	1.114616	-0.179453	0.110699
C86	C	1.058351	-0.094452	0.064792
C87	C	1.002089	-0.009441	0.110682
H88	H	1.058358	-0.094425	0.316337
H89	H	1.156268	-0.242365	0.236476
H90	H	1.156264	-0.242383	0.076728
H91	H	1.058348	-0.094458	-0.003163
H92	H	0.960438	0.053482	0.076698
C93	C	1.002121	-0.009410	0.622474
C94	C	1.058387	-0.094413	0.668370
C95	C	1.114644	-0.179421	0.622472
C96	C	1.114636	-0.179426	0.530680
C97	C	1.058368	-0.094420	0.484779
C98	C	1.002110	-0.009412	0.530677
H99	H	1.058395	-0.094412	0.736324
H100	H	1.156297	-0.242348	0.656451
H101	H	1.156281	-0.242355	0.496704
H102	H	1.058360	-0.094421	0.416825
H103	H	0.960457	0.053515	0.496698
H104	H	0.252031	0.337438	0.000089
C105	C	0.787256	0.315111	0.202467
C106	C	0.731023	0.400151	0.248360
C107	C	0.674751	0.485149	0.202461
C108	C	0.674712	0.485107	0.110669
C109	C	0.730947	0.400064	0.064770
C110	C	0.787219	0.315066	0.110670
H111	H	0.731051	0.400185	0.316315
H112	H	0.633122	0.548104	0.236438
H113	H	0.633056	0.548028	0.076691
H114	H	0.730919	0.400030	-0.003185
H115	H	0.828848	0.252111	0.076692
H116	H	0.801920	0.293069	0.785794
H117	H	0.987486	0.012653	0.365798
H118	H	0.140005	-0.041263	0.000123
H119	H	0.283232	-0.037830	0.000122
H120	H	0.537357	-0.031721	0.000112
C121	C	0.787291	0.315138	0.622472
C122	C	0.731056	0.400175	0.668364
C123	C	0.674788	0.485178	0.622464
C124	C	0.674755	0.485144	0.530672
C125	C	0.730992	0.400104	0.484774
C126	C	0.787261	0.315101	0.530674
H127	H	0.731078	0.400203	0.736319
H128	H	0.633157	0.548130	0.656441
H129	H	0.633102	0.548068	0.496694
H130	H	0.730970	0.400076	0.416819
H131	H	0.828891	0.252148	0.496697
H132	H	0.801884	0.293031	0.365796
