data_functionalizedCrystal
_audit_creation_method	'MofGen! by Chris Wilmer'
_symmetry_space_group_name_H-M	'P1'
_symmetry_Int_Tables_number	1
_symmetry_cell_setting	triclinic
loop_
_symmetry_equiv_pos_as_xyz
  x,y,z
_cell_length_a	11.169417
_cell_length_b	16.120297
_cell_length_c	11.169416
_cell_angle_alpha	92.878536
_cell_angle_beta	90.011589
_cell_angle_gamma	92.881853
loop_
_atom_site_label
_atom_site_type_symbol
_atom_site_fract_x
_atom_site_fract_y
_atom_site_fract_z
Zn1	Zn	1.800523	-0.471341	-0.512205
Zn2	Zn	1.810598	-0.331943	-0.702732
Zn3	Zn	1.609993	-0.331952	-0.502066
Zn4	Zn	1.599818	-0.471319	-0.712847
O5	O	1.705233	-0.401639	-0.607462
O6	O	1.969809	-0.452855	-0.537488
O7	O	1.792462	-0.215281	-0.667637
O8	O	1.635310	-0.350456	-0.335462
O9	O	1.977210	-0.350440	-0.677467
O10	O	1.775291	-0.452864	-0.342911
O11	O	1.645079	-0.215287	-0.520209
O12	O	1.440694	-0.350434	-0.530017
O13	O	1.617967	-0.587986	-0.694708
O14	O	1.433218	-0.452826	-0.684877
O15	O	1.765424	-0.588002	-0.547297
O16	O	1.782595	-0.350418	-0.872022
O17	O	1.627736	-0.452817	-0.879454
C18	C	1.393409	-0.401629	-0.607446
C19	C	1.260008	-0.401645	-0.607469
C20	C	1.689437	-0.619089	-0.623261
C21	C	1.682705	-0.711753	-0.629994
C22	C	1.670371	-0.881412	-0.642259
C23	C	1.740331	-0.922717	-0.572306
C24	C	1.733468	-1.017121	-0.579130
C25	C	1.677232	-0.787000	-0.635437
C26	C	2.018274	-0.401649	-0.607480
C27	C	2.151674	-0.401653	-0.607488
C28	C	1.705186	-0.401632	-0.919287
C29	C	1.705273	-0.401658	-1.052688
C30	C	1.721037	-0.185034	-0.591638
C31	C	1.728001	-0.092371	-0.584567
C32	C	1.705312	-0.401663	-0.294422
C33	C	1.705345	-0.401674	-0.161023
H34	H	1.805378	-0.887180	-0.507290
H35	H	1.605329	-0.916948	-0.707270
