data_functionalizedCrystal
_audit_creation_method	'MofGen! by Chris Wilmer'
_symmetry_space_group_name_H-M	'P1'
_symmetry_Int_Tables_number	1
_symmetry_cell_setting	triclinic
loop_
_symmetry_equiv_pos_as_xyz
  x,y,z
_cell_length_a	6.817900
_cell_length_b	10.773894
_cell_length_c	11.353959
_cell_angle_alpha	72.917575
_cell_angle_beta	107.526623
_cell_angle_gamma	83.354078
loop_
_atom_site_label
_atom_site_type_symbol
_atom_site_fract_x
_atom_site_fract_y
_atom_site_fract_z
V1	V	-3.980486	0.427091	-0.175628
O2	O	-3.935538	0.378636	0.013371
O3	O	-3.964386	0.462954	-0.352984
O4	O	-3.897273	0.595667	-0.170763
O5	O	-4.003116	0.245004	-0.170112
V6	V	-4.464439	0.400601	-0.153278
O7	O	-4.240800	0.485200	-0.224657
O8	O	-4.654322	0.342492	-0.104249
O9	O	-4.257332	0.364739	0.024078
O10	O	-4.626784	0.449056	-0.342277
O11	O	-4.559206	0.582688	-0.158794
O12	O	-4.324446	0.232026	-0.158143
C13	C	-3.818372	0.466224	-0.396287
C14	C	-3.886263	0.496669	-0.541264
C15	C	-3.897067	0.398124	-0.589539
C16	C	-3.967236	0.429589	-0.739380
C17	C	-3.732760	0.635510	-0.163845
C18	C	-3.746222	0.773576	-0.161040
C19	C	-4.066691	0.361467	0.067374
C20	C	-3.978036	0.331030	0.212350
C21	C	-4.152302	0.192177	-0.165066
C22	C	-4.118079	0.054108	-0.167863
C23	C	-3.925181	0.842494	-0.165901
C24	C	-3.939098	0.985193	-0.163002
H25	H	-3.854380	0.290463	-0.519939
Br26	Br	-4.163394	0.764771	-0.176415
Br27	Br	-4.038422	0.609047	-0.855370
H28	H	-3.603307	0.820214	-0.154725
Br29	Br	-4.356291	0.976381	-0.178341
Br30	Br	-3.700866	1.062905	-0.152475
H31	H	-3.935346	0.223361	-0.718056
Br32	Br	-3.957450	0.676121	-0.657257
