data_functionalizedCrystal
_audit_creation_method	'MofGen! by Chris Wilmer'
_symmetry_space_group_name_H-M	'P1'
_symmetry_Int_Tables_number	1
_symmetry_cell_setting	triclinic
loop_
_symmetry_equiv_pos_as_xyz
  x,y,z
_cell_length_a	12.759395
_cell_length_b	18.050589
_cell_length_c	18.050582
_cell_angle_alpha	89.981795
_cell_angle_beta	89.987476
_cell_angle_gamma	90.029758
loop_
_atom_site_label
_atom_site_type_symbol
_atom_site_fract_x
_atom_site_fract_y
_atom_site_fract_z
Zn1	Zn	1.606087	-0.295676	-0.419888
Zn2	Zn	1.605961	-0.419860	-0.295707
Zn3	Zn	1.430410	-0.295691	-0.295717
Zn4	Zn	1.430336	-0.419832	-0.419861
O5	O	1.518199	-0.357765	-0.357793
O6	O	1.753091	-0.312155	-0.403422
O7	O	1.582652	-0.403406	-0.191784
O8	O	1.453797	-0.191765	-0.312204
O9	O	1.752999	-0.403391	-0.312187
O10	O	1.582867	-0.191754	-0.403431
O11	O	1.453675	-0.312180	-0.191791
O12	O	1.283379	-0.312154	-0.312178
O13	O	1.453672	-0.403345	-0.523789
O14	O	1.283325	-0.403359	-0.403386
O15	O	1.582796	-0.312128	-0.523809
O16	O	1.582580	-0.523780	-0.312161
O17	O	1.453550	-0.523760	-0.403376
C18	C	1.245231	-0.357756	-0.357780
C19	C	1.128454	-0.357770	-0.357792
C20	C	1.128437	-0.452896	-0.452614
C21	C	1.073567	-0.500465	-0.500026
C22	C	0.963845	-0.500474	-0.500035
C23	C	0.908991	-0.452907	-0.452628
C24	C	0.963861	-0.405338	-0.405216
C25	C	1.073585	-0.405336	-0.405210
C26	C	0.963878	-0.310210	-0.310399
C27	C	1.073600	-0.310203	-0.310385
C28	C	0.909024	-0.262643	-0.262992
C29	C	0.963893	-0.215076	-0.215574
C30	C	1.073622	-0.215070	-0.215567
C31	C	1.128470	-0.262634	-0.262973
C32	C	1.518072	-0.550717	-0.357781
C33	C	1.518114	-0.633263	-0.357800
C34	C	1.448016	-0.832729	-0.407386
C35	C	1.422413	-0.882164	-0.339619
C36	C	1.518217	-0.784393	-0.357810
C37	C	1.543871	-0.882040	-0.425584
C38	C	1.518314	-0.930378	-0.357825
C39	C	1.492564	-0.832740	-0.290008
C40	C	1.614066	-0.832612	-0.376018
C41	C	1.588500	-0.882024	-0.308205
C42	C	1.518158	-0.700295	-0.357802
C43	C	1.518374	-1.014475	-0.357825
C44	C	1.792232	-0.357774	-0.357806
C45	C	1.909009	-0.357778	-0.357812
C46	C	1.518240	-0.357732	-0.551499
C47	C	1.518257	-0.357718	-0.634045
C48	C	1.518354	-0.164059	-0.357822
C49	C	1.518421	-0.081513	-0.357834
C50	C	1.448094	-0.407254	-0.833485
C51	C	1.543946	-0.425405	-0.882874
C52	C	1.518309	-0.357661	-0.785175
C53	C	1.422509	-0.339489	-0.882867
C54	C	1.518351	-0.357608	-0.931160
C55	C	1.614212	-0.375848	-0.833478
C56	C	1.492710	-0.289900	-0.833466
C57	C	1.588629	-0.308026	-0.882833
C58	C	1.518284	-0.357694	-0.701077
C59	C	1.518387	-0.357575	-1.015257
C60	C	1.518218	-0.357744	-0.164841
C61	C	1.518404	-0.357549	-0.082296
H62	H	0.919171	-0.539205	-0.538647
H63	H	1.695270	-0.391261	-0.811874
N64	N	1.571029	-0.909209	-0.497480
N65	N	1.515211	-0.893406	-0.552140
H66	H	1.534382	-0.912593	-0.602918
H67	H	1.648094	-0.266064	-0.904365
N68	N	1.571163	-0.497257	-0.910106
N69	N	1.657466	-0.525409	-0.893394
H70	H	1.676684	-0.576156	-0.912624
N71	N	0.907879	-0.166482	-0.167157
N72	N	0.920185	-0.097962	-0.172204
H73	H	0.880622	-0.063640	-0.138007
N74	N	1.240547	-0.262633	-0.262984
N75	N	1.289543	-0.247199	-0.320946
H76	H	1.368700	-0.247199	-0.320960
N77	N	1.373677	-0.459938	-0.806307
N78	N	1.383284	-0.526996	-0.822159
H79	H	1.330732	-0.564207	-0.802965
H80	H	1.341475	-0.324141	-0.904562
H81	H	1.471005	-0.232635	-0.811747
N82	N	1.373426	-0.805580	-0.459903
N83	N	1.278569	-0.821498	-0.453020
H84	H	1.225887	-0.802324	-0.490107
N85	N	1.663031	-0.909027	-0.255572
N86	N	1.737719	-0.948565	-0.276611
H87	H	1.790353	-0.967638	-0.239438
N88	N	1.240514	-0.452907	-0.452604
N89	N	1.289478	-0.495382	-0.494927
H90	H	1.368634	-0.495393	-0.494921
N91	N	0.796947	-0.262654	-0.263015
N92	N	0.747966	-0.305128	-0.305350
H93	H	0.668810	-0.305136	-0.305365
N94	N	1.320775	-0.909460	-0.320305
N95	N	1.243333	-0.893683	-0.359654
H96	H	1.171548	-0.912958	-0.346018
H97	H	1.118290	-0.176328	-0.176963
N98	N	1.129616	-0.549040	-0.548451
N99	N	1.227581	-0.549027	-0.548441
H100	H	1.267164	-0.583332	-0.582643
N101	N	1.465244	-0.805687	-0.218100
N102	N	1.386057	-0.765752	-0.210030
H103	H	1.366753	-0.746645	-0.159247
N104	N	0.796914	-0.452915	-0.452657
N105	N	0.747936	-0.495384	-0.494999
H106	H	0.668780	-0.495388	-0.495021
N107	N	1.715672	-0.805295	-0.395367
N108	N	1.754747	-0.821039	-0.456884
H109	H	1.826508	-0.801746	-0.470557
