data_functionalizedCrystal
_audit_creation_method	'MofGen! by Chris Wilmer'
_symmetry_space_group_name_H-M	'P1'
_symmetry_Int_Tables_number	1
_symmetry_cell_setting	triclinic
loop_
_symmetry_equiv_pos_as_xyz
  x,y,z
_cell_length_a	18.215407
_cell_length_b	13.897447
_cell_length_c	18.215407
_cell_angle_alpha	90.009321
_cell_angle_beta	90.010236
_cell_angle_gamma	90.019978
loop_
_atom_site_label
_atom_site_type_symbol
_atom_site_fract_x
_atom_site_fract_y
_atom_site_fract_z
Zn1	Zn	1.125030	-0.384163	0.416130
Zn2	Zn	1.375030	-0.134163	0.666130
Zn3	Zn	1.625030	0.115837	0.916130
Zn4	Zn	1.875030	0.365837	1.166130
Zn5	Zn	1.124970	-0.545428	0.293070
Zn6	Zn	1.374970	-0.295428	0.543070
Zn7	Zn	1.624970	-0.045428	0.793070
Zn8	Zn	1.874970	0.204572	1.043070
Zn9	Zn	1.001983	-0.384150	0.293078
Zn10	Zn	1.251983	-0.134150	0.543078
Zn11	Zn	1.501983	0.115850	0.793078
Zn12	Zn	1.751983	0.365850	1.043078
Zn13	Zn	1.001940	-0.545419	0.416095
Zn14	Zn	1.251940	-0.295419	0.666095
Zn15	Zn	1.501940	-0.045419	0.916095
Zn16	Zn	1.751940	0.204581	1.166095
O17	O	1.063481	-0.464790	0.354593
O18	O	1.313481	-0.214790	0.604593
O19	O	1.563481	0.035210	0.854593
O20	O	1.813481	0.285210	1.104593
O21	O	1.228006	-0.405565	0.399818
O22	O	1.478006	-0.155565	0.649818
O23	O	1.728006	0.094435	0.899818
O24	O	1.978006	0.344435	1.149818
O25	O	1.108649	-0.524033	0.190087
O26	O	1.358649	-0.274033	0.440087
O27	O	1.608649	-0.024033	0.690087
O28	O	1.858649	0.225967	0.940087
O29	O	1.018348	-0.249170	0.309419
O30	O	1.268348	0.000830	0.559419
O31	O	1.518348	0.250830	0.809419
O32	O	1.768348	0.500830	1.059419
O33	O	1.227962	-0.524046	0.309406
O34	O	1.477962	-0.274046	0.559406
O35	O	1.727962	-0.024046	0.809406
O36	O	1.977962	0.225954	1.059406
O37	O	1.108750	-0.249180	0.399825
O38	O	1.358750	0.000820	0.649825
O39	O	1.608750	0.250820	0.899825
O40	O	1.858750	0.500820	1.149825
O41	O	1.018291	-0.405543	0.190093
O42	O	1.268291	-0.155543	0.440093
O43	O	1.518291	0.094457	0.690093
O44	O	1.768291	0.344457	0.940093
O45	O	0.898993	-0.405534	0.309385
O46	O	1.148993	-0.155534	0.559385
O47	O	1.398993	0.094466	0.809385
O48	O	1.648993	0.344466	1.059385
O49	O	1.018275	-0.524029	0.519084
O50	O	1.268275	-0.274029	0.769084
O51	O	1.518275	-0.024029	1.019084
O52	O	1.768275	0.225971	1.269084
O53	O	0.898961	-0.524017	0.399765
O54	O	1.148961	-0.274017	0.649765
O55	O	1.398961	-0.024017	0.899765
O56	O	1.648961	0.225983	1.149765
O57	O	1.108708	-0.405555	0.519110
O58	O	1.358708	-0.155555	0.769110
O59	O	1.608708	0.094445	1.019110
O60	O	1.858708	0.344445	1.269110
O61	O	1.108607	-0.680409	0.309372
O62	O	1.358607	-0.430409	0.559372
O63	O	1.608607	-0.180409	0.809372
O64	O	1.858607	0.069591	1.059372
O65	O	1.018217	-0.680402	0.399758
O66	O	1.268217	-0.430402	0.649758
O67	O	1.518217	-0.180402	0.899758
O68	O	1.768217	0.069598	1.149758
C69	C	0.872274	-0.464774	0.354572
C70	C	1.122274	-0.214774	0.604572
C71	C	1.372274	0.035226	0.854572
C72	C	1.622274	0.285226	1.104572
C73	C	0.790475	-0.464790	0.354581
C74	C	1.040475	-0.214790	0.604581
C75	C	1.290475	0.035210	0.854581
C76	C	1.540475	0.285210	1.104581
C77	C	1.063421	-0.715405	0.354576
C78	C	1.313421	-0.465405	0.604576
C79	C	1.563421	-0.215405	0.854576
C80	C	1.813421	0.034595	1.104576
C81	C	1.063462	-0.822618	0.354594
C82	C	1.313462	-0.572618	0.604594
C83	C	1.563462	-0.322618	0.854594
C84	C	1.813462	-0.072618	1.104594
C85	C	0.602284	-0.526581	0.401583
C86	C	0.852284	-0.276581	0.651583
C87	C	1.102284	-0.026581	0.901583
C88	C	1.352284	0.223419	1.151583
C89	C	0.525425	-0.526584	0.401592
C90	C	0.775425	-0.276584	0.651592
C91	C	1.025425	-0.026584	0.901592
C92	C	1.275425	0.223416	1.151592
C93	C	0.525429	-0.403017	0.307620
C94	C	0.775429	-0.153017	0.557620
C95	C	1.025429	0.096983	0.807620
C96	C	1.275429	0.346983	1.057620
C97	C	0.602286	-0.403010	0.307615
C98	C	0.852286	-0.153010	0.557615
C99	C	1.102286	0.096990	0.807615
C100	C	1.352286	0.346990	1.057615
C101	C	0.640712	-0.464797	0.354596
C102	C	0.890712	-0.214797	0.604596
C103	C	1.140712	0.035203	0.854596
C104	C	1.390712	0.285203	1.104596
C105	C	0.486996	-0.464807	0.354610
C106	C	0.736996	-0.214807	0.604610
C107	C	0.986996	0.035193	0.854610
C108	C	1.236996	0.285193	1.104610
C109	C	0.403662	-0.464810	0.354619
C110	C	0.653662	-0.214810	0.604619
C111	C	0.903662	0.035190	0.854619
C112	C	1.153662	0.285190	1.104619
C113	C	0.724051	-0.464793	0.354587
C114	C	0.974051	-0.214793	0.604587
C115	C	1.224051	0.035207	0.854587
C116	C	1.474051	0.285207	1.104587
C117	C	1.063498	-0.909688	0.354611
C118	C	1.313498	-0.659688	0.604611
C119	C	1.563498	-0.409688	0.854611
C120	C	1.813498	-0.159688	1.104611
C121	C	1.063550	-1.018921	0.354629
C122	C	1.313550	-0.768921	0.604629
C123	C	1.563550	-0.518921	0.854629
C124	C	1.813550	-0.268921	1.104629
C125	C	1.255433	-0.464807	0.354615
C126	C	1.505433	-0.214807	0.604615
C127	C	1.755433	0.035193	0.854615
C128	C	2.005433	0.285193	1.104615
C129	C	1.337232	-0.464815	0.354624
C130	C	1.587232	-0.214815	0.604624
C131	C	1.837232	0.035185	0.854624
C132	C	2.087232	0.285185	1.104624
C133	C	1.063493	-0.464793	0.546546
C134	C	1.313493	-0.214793	0.796546
C135	C	1.563493	0.035207	1.046546
C136	C	1.813493	0.285207	1.296546
C137	C	1.063499	-0.464794	0.628345
C138	C	1.313499	-0.214794	0.878345
C139	C	1.563499	0.035206	1.128345
C140	C	1.813499	0.285206	1.378345
C141	C	1.063561	-0.213197	0.354627
C142	C	1.313561	0.036803	0.604627
C143	C	1.563561	0.286803	0.854627
C144	C	1.813561	0.536803	1.104627
C145	C	1.063595	-0.105983	0.354641
C146	C	1.313595	0.144017	0.604641
C147	C	1.563595	0.394017	0.854641
C148	C	1.813595	0.644017	1.104641
C149	C	1.110573	-0.403115	0.816554
C150	C	1.360573	-0.153115	1.066554
C151	C	1.610573	0.096885	1.316554
C152	C	1.860573	0.346885	1.566554
C153	C	1.110569	-0.403114	0.893413
C154	C	1.360569	-0.153114	1.143413
C155	C	1.610569	0.096886	1.393413
C156	C	1.860569	0.346886	1.643413
C157	C	1.016400	-0.526487	0.893374
C158	C	1.266400	-0.276487	1.143374
C159	C	1.516400	-0.026487	1.393374
C160	C	1.766400	0.223513	1.643374
C161	C	1.016401	-0.526482	0.816517
C162	C	1.266401	-0.276482	1.066517
C163	C	1.516401	-0.026482	1.316517
C164	C	1.766401	0.223518	1.566517
C165	C	1.063492	-0.464797	0.778109
C166	C	1.313492	-0.214797	1.028109
C167	C	1.563492	0.035203	1.278109
C168	C	1.813492	0.285203	1.528109
C169	C	1.063487	-0.464802	0.931825
C170	C	1.313487	-0.214802	1.181825
C171	C	1.563487	0.035198	1.431825
C172	C	1.813487	0.285198	1.681825
C173	C	1.063482	-0.464802	1.015159
C174	C	1.313482	-0.214802	1.265159
C175	C	1.563482	0.035198	1.515159
C176	C	1.813482	0.285198	1.765159
C177	C	1.063496	-0.464796	0.694770
C178	C	1.313496	-0.214796	0.944770
C179	C	1.563496	0.035204	1.194770
C180	C	1.813496	0.285204	1.444770
C181	C	1.063468	-0.464808	1.163387
C182	C	1.313468	-0.214808	1.413387
C183	C	1.563468	0.035192	1.663387
C184	C	1.813468	0.285192	1.913387
C185	C	1.063480	-0.464805	1.081588
C186	C	1.313480	-0.214805	1.331588
C187	C	1.563480	0.035195	1.581588
C188	C	1.813480	0.285195	1.831588
H189	H	0.494141	-0.576893	0.439855
H190	H	0.744141	-0.326893	0.689855
H191	H	0.994141	-0.076893	0.939855
H192	H	1.244141	0.173107	1.189855
H193	H	0.494133	-0.352713	0.269370
H194	H	0.744133	-0.102713	0.519370
H195	H	0.994133	0.147287	0.769370
H196	H	1.244133	0.397287	1.019370
N197	N	0.643740	-0.336356	0.256943
N198	N	0.893740	-0.086356	0.506943
N199	N	1.143740	0.163644	0.756943
N200	N	1.393740	0.413644	1.006943
H201	H	0.607736	-0.297217	0.227181
H202	H	0.857736	-0.047217	0.477181
H203	H	1.107736	0.202783	0.727181
H204	H	1.357736	0.452783	0.977181
H205	H	0.675617	-0.375540	0.222833
H206	H	0.925617	-0.125540	0.472833
H207	H	1.175617	0.124460	0.722833
H208	H	1.425617	0.374460	0.972833
N209	N	1.161359	-0.336585	0.775126
N210	N	1.411359	-0.086585	1.025126
N211	N	1.661359	0.163415	1.275126
N212	N	1.911359	0.413415	1.525126
H213	H	1.191183	-0.297509	0.811146
H214	H	1.441183	-0.047509	1.061146
H215	H	1.691183	0.202491	1.311146
H216	H	1.941183	0.452491	1.561146
H217	H	1.131417	-0.291944	0.743238
H218	H	1.381417	-0.041944	0.993238
H219	H	1.631417	0.208056	1.243238
H220	H	1.881417	0.458056	1.493238
N221	N	1.161340	-0.336574	0.934879
N222	N	1.411340	-0.086574	1.184879
N223	N	1.661340	0.163426	1.434879
N224	N	1.911340	0.413426	1.684879
H225	H	1.191167	-0.297496	0.898883
H226	H	1.441167	-0.047496	1.148883
H227	H	1.691167	0.202504	1.398883
H228	H	1.941167	0.452504	1.648883
H229	H	1.195387	-0.375832	0.966774
H230	H	1.445387	-0.125832	1.216774
H231	H	1.695387	0.124168	1.466774
H232	H	1.945387	0.374168	1.716774
H233	H	0.978057	-0.576711	0.785214
H234	H	1.228057	-0.326711	1.035214
H235	H	1.478057	-0.076711	1.285214
H236	H	1.728057	0.173289	1.535214
H237	H	0.633568	-0.576890	0.439839
H238	H	0.883568	-0.326890	0.689839
H239	H	1.133568	-0.076890	0.939839
H240	H	1.383568	0.173110	1.189839
H241	H	0.978063	-0.576711	0.924656
H242	H	1.228063	-0.326711	1.174656
H243	H	1.478063	-0.076711	1.424656
H244	H	1.728063	0.173289	1.674656
