data_functionalizedCrystal
_audit_creation_method	'MofGen! by Chris Wilmer'
_symmetry_space_group_name_H-M	'P1'
_symmetry_Int_Tables_number	1
_symmetry_cell_setting	triclinic
loop_
_symmetry_equiv_pos_as_xyz
  x,y,z
_cell_length_a	17.666332
_cell_length_b	17.699083
_cell_length_c	17.699083
_cell_angle_alpha	83.283015
_cell_angle_beta	89.992629
_cell_angle_gamma	89.996676
loop_
_atom_site_label
_atom_site_type_symbol
_atom_site_fract_x
_atom_site_fract_y
_atom_site_fract_z
O1	O	0.062844	-1.004081	-0.095712
O2	O	0.396177	-0.670748	0.237621
O3	O	0.729510	-0.337414	0.570954
O4	O	0.062869	-0.783703	-0.108165
O5	O	0.396202	-0.450369	0.225168
O6	O	0.729535	-0.117036	0.558502
O7	O	0.062849	-0.900118	0.008250
O8	O	0.396182	-0.566785	0.341584
O9	O	0.729515	-0.233451	0.674917
O10	O	0.062864	-0.887666	-0.212128
O11	O	0.396197	-0.554332	0.121205
O12	O	0.729530	-0.220999	0.454539
O13	O	-0.063048	-0.900098	0.008257
O14	O	0.270285	-0.566764	0.341590
O15	O	0.603619	-0.233431	0.674923
O16	O	-0.063028	-0.783682	-0.108159
O17	O	0.270305	-0.450349	0.225175
O18	O	0.603639	-0.117016	0.558508
O19	O	-0.063053	-1.004061	-0.095706
O20	O	0.270280	-0.670727	0.237627
O21	O	0.603614	-0.337394	0.570960
Cu22	Cu	-0.074536	-0.893870	-0.101932
Cu23	Cu	0.258797	-0.560536	0.231401
Cu24	Cu	0.592131	-0.227203	0.564735
Cu25	Cu	0.074352	-0.893894	-0.101939
Cu26	Cu	0.407685	-0.560560	0.231394
Cu27	Cu	0.741018	-0.227227	0.564727
O28	O	-0.063033	-0.887645	-0.212122
O29	O	0.270300	-0.554312	0.121212
O30	O	0.603634	-0.220979	0.454545
C31	C	-0.000077	-0.755495	-0.107716
C32	C	0.333257	-0.422162	0.225618
C33	C	0.666590	-0.088829	0.558951
C34	C	-0.000067	-0.671477	-0.106377
C35	C	0.333266	-0.338144	0.226956
C36	C	0.666599	-0.004811	0.560290
C37	C	-0.000100	-0.899662	0.036451
C38	C	0.333234	-0.566328	0.369784
C39	C	0.666567	-0.232995	0.703117
C40	C	-0.000100	-0.898323	0.120469
C41	C	0.333234	-0.564990	0.453802
C42	C	0.666567	-0.231656	0.787135
N43	N	-0.179255	-0.893858	-0.101926
N44	N	0.154078	-0.560525	0.231407
N45	N	0.487411	-0.227191	0.564740
C46	C	-0.218874	-0.945424	-0.050403
C47	C	0.114459	-0.612090	0.282930
C48	C	0.447793	-0.278757	0.616264
C49	C	-0.298121	-0.945428	-0.050399
C50	C	0.035212	-0.612095	0.282934
C51	C	0.368545	-0.278761	0.616268
C52	C	-0.337748	-0.893874	-0.101932
C53	C	-0.004414	-0.560541	0.231401
C54	C	0.328919	-0.227207	0.564735
C55	C	-0.298119	-0.842299	-0.153460
C56	C	0.035214	-0.508966	0.179874
C57	C	0.368547	-0.175632	0.513207
C58	C	-0.218873	-0.842291	-0.153457
C59	C	0.114460	-0.508958	0.179877
C60	C	0.447793	-0.175624	0.513210
N61	N	-0.462161	-0.884117	-0.168921
N62	N	-0.128828	-0.550783	0.164413
N63	N	0.204506	-0.217450	0.497746
N64	N	-0.537441	-0.884129	-0.168921
N65	N	-0.204108	-0.550796	0.164412
N66	N	0.129225	-0.217462	0.497746
C67	C	-0.576512	-0.893894	-0.101943
C68	C	-0.243178	-0.560561	0.231391
C69	C	0.090155	-0.227227	0.564724
N70	N	-0.537457	-0.903662	-0.034962
N71	N	-0.204124	-0.570328	0.298371
N72	N	0.129209	-0.236995	0.631705
N73	N	-0.462170	-0.903653	-0.034962
N74	N	-0.128837	-0.570320	0.298371
N75	N	0.204497	-0.236987	0.631704
C76	C	-0.423677	-0.893877	-0.101941
C77	C	-0.090343	-0.560543	0.231393
C78	C	0.242990	-0.227210	0.564726
C79	C	-0.702059	-0.945467	-0.050411
C80	C	-0.368726	-0.612134	0.282922
C81	C	-0.035393	-0.278800	0.616256
C82	C	-0.781308	-0.945466	-0.050406
C83	C	-0.447975	-0.612133	0.282927
C84	C	-0.114642	-0.278800	0.616260
C85	C	-0.781305	-0.842341	-0.153473
C86	C	-0.447971	-0.509008	0.179860
C87	C	-0.114638	-0.175674	0.513193
C88	C	-0.702057	-0.842338	-0.153471
C89	C	-0.368724	-0.509005	0.179862
C90	C	-0.035391	-0.175672	0.513195
C91	C	-0.662439	-0.893905	-0.101941
C92	C	-0.329106	-0.560572	0.231392
C93	C	0.004227	-0.227239	0.564726
N94	N	0.179071	-0.893911	-0.101939
N95	N	0.512404	-0.560578	0.231394
N96	N	0.845738	-0.227244	0.564728
C97	C	-0.000106	-1.032268	-0.096156
C98	C	0.333227	-0.698934	0.237178
C99	C	0.666561	-0.365601	0.570511
C100	C	-0.000110	-1.116286	-0.097494
C101	C	0.333223	-0.782953	0.235839
C102	C	0.666556	-0.449619	0.569172
C103	C	-0.000063	-0.622856	-0.174710
C104	C	0.333270	-0.289523	0.158623
C105	C	0.666604	0.043810	0.491956
C106	C	-0.000073	-0.543913	-0.173448
C107	C	0.333261	-0.210580	0.159885
C108	C	0.666594	0.122754	0.493218
C109	C	-0.000082	-0.513592	-0.103852
C110	C	0.333252	-0.180259	0.229482
C111	C	0.666585	0.153074	0.562815
C112	C	-0.000088	-0.562219	-0.035513
C113	C	0.333245	-0.228886	0.297820
C114	C	0.666578	0.104447	0.631154
C115	C	-0.000084	-0.641161	-0.036776
C116	C	0.333250	-0.307828	0.296557
C117	C	0.666583	0.025505	0.629891
C118	C	-0.000107	-0.243856	-0.030418
C119	C	0.333226	0.089477	0.302915
C120	C	0.666559	0.422810	0.636249
C121	C	-0.000109	-0.164908	-0.029160
C122	C	0.333224	0.168425	0.304173
C123	C	0.666557	0.501758	0.637507
C124	C	-0.000096	-0.146608	-0.167090
C125	C	0.333237	0.186725	0.166243
C126	C	0.666570	0.520058	0.499577
C127	C	-0.000092	-0.225550	-0.168353
C128	C	0.333242	0.107783	0.164980
C129	C	0.666575	0.441117	0.498314
C130	C	-0.000102	-0.274170	-0.100015
C131	C	0.333231	0.059163	0.233319
C132	C	0.666564	0.392496	0.566652
C133	C	-0.000093	-0.359769	-0.101384
C134	C	0.333240	-0.026436	0.231949
C135	C	0.666574	0.306897	0.565282
C136	C	-0.000085	-0.427995	-0.102481
C137	C	0.333248	-0.094661	0.230852
C138	C	0.666581	0.238672	0.564185
C139	C	-0.000083	-0.888102	-0.240322
C140	C	0.333250	-0.554768	0.093011
C141	C	0.666584	-0.221435	0.426345
C142	C	-0.000078	-0.889440	-0.324340
C143	C	0.333255	-0.556107	0.008993
C144	C	0.666589	-0.222773	0.342327
C145	C	-0.000109	-0.966656	0.169090
C146	C	0.333225	-0.633323	0.502423
C147	C	0.666558	-0.299990	0.835756
C148	C	-0.000102	-0.965394	0.248033
C149	C	0.333232	-0.632061	0.581366
C150	C	0.666565	-0.298727	0.914700
C151	C	-0.000092	-0.895798	0.278354
C152	C	0.333242	-0.562464	0.611687
C153	C	0.666575	-0.229131	0.945020
C154	C	-0.000080	-0.827459	0.229727
C155	C	0.333253	-0.494126	0.563060
C156	C	0.666586	-0.160792	0.896393
C157	C	-0.000082	-0.828722	0.150785
C158	C	0.333252	-0.495389	0.484118
C159	C	0.666585	-0.162055	0.817451
C160	C	-0.000074	-0.822364	0.548090
C161	C	0.333260	-0.489030	0.881423
C162	C	0.666593	-0.155697	1.214756
C163	C	-0.000075	-0.821106	0.627038
C164	C	0.333259	-0.487773	0.960371
C165	C	0.666592	-0.154439	1.293704
C166	C	-0.000094	-0.959036	0.645338
C167	C	0.333240	-0.625702	0.978671
C168	C	0.666573	-0.292369	1.312004
C169	C	-0.000095	-0.960299	0.566396
C170	C	0.333238	-0.626966	0.899729
C171	C	0.666572	-0.293632	1.233063
C172	C	-0.000080	-0.891961	0.517776
C173	C	0.333253	-0.558627	0.851109
C174	C	0.666587	-0.225294	1.184442
C175	C	-0.000086	-0.893330	0.432177
C176	C	0.333247	-0.559997	0.765510
C177	C	0.666581	-0.226664	1.098843
C178	C	-0.000091	-0.894427	0.363951
C179	C	0.333242	-0.561094	0.697285
C180	C	0.666576	-0.227761	1.030618
H181	H	-0.186619	-0.987411	-0.008442
H182	H	0.146714	-0.654077	0.324891
H183	H	0.480047	-0.320744	0.658225
Br184	Br	-0.648283	-0.772356	-0.223402
Br185	Br	-0.314950	-0.439023	0.109932
Br186	Br	0.018384	-0.105689	0.443265
Br187	Br	-0.648290	-1.015447	0.019525
Br188	Br	-0.314957	-0.682114	0.352858
Br189	Br	0.018377	-0.348781	0.686191
Br190	Br	-0.000073	-0.266696	-0.262808
Br191	Br	0.333261	0.066638	0.070525
Br192	Br	0.666594	0.399971	0.403858
H193	H	-0.000111	-1.021038	0.287618
H194	H	0.333223	-0.687705	0.620951
H195	H	0.666556	-0.354372	0.954284
H196	H	-0.000068	-0.504328	-0.229092
H197	H	0.333265	-0.170995	0.104241
H198	H	0.666598	0.162338	0.437574
H199	H	-0.000055	-0.647537	-0.231384
H200	H	0.333278	-0.314204	0.101949
H201	H	0.666612	0.019130	0.435283
Br202	Br	-0.000083	-0.080619	-0.259837
Br203	Br	0.333251	0.252714	0.073497
Br204	Br	0.666584	0.586047	0.406830
Br205	Br	-0.000108	-1.054754	0.525250
Br206	Br	0.333225	-0.721421	0.858584
Br207	Br	0.666558	-0.388088	1.191917
Br208	Br	-0.000108	-0.521071	0.058941
Br209	Br	0.333226	-0.187738	0.392274
Br210	Br	0.666559	0.145596	0.725607
H211	H	-0.000074	-0.773078	0.111198
H212	H	0.333259	-0.439745	0.444531
H213	H	0.666592	-0.106411	0.777864
H214	H	-0.000118	-0.140225	0.027517
H215	H	0.333216	0.193108	0.360850
H216	H	0.666549	0.526442	0.694184
H217	H	-0.000116	-0.283434	0.025228
H218	H	0.333217	0.049899	0.358561
H219	H	0.666550	0.383233	0.691894
H220	H	-0.000087	-0.680748	0.018868
H221	H	0.333247	-0.347415	0.352201
H222	H	0.666580	-0.014082	0.685535
H223	H	-0.000068	-0.764429	0.651721
H224	H	0.333266	-0.431096	0.985054
H225	H	0.666599	-0.097762	1.318388
H226	H	-0.000122	-1.023330	0.144409
H227	H	0.333212	-0.689997	0.477742
H228	H	0.666545	-0.356663	0.811076
H229	H	-0.813568	-0.800362	-0.195430
H230	H	-0.480234	-0.467029	0.137904
H231	H	-0.146901	-0.133695	0.471237
H232	H	-0.000102	-1.014680	0.684934
H233	H	0.333231	-0.681347	1.018268
H234	H	0.666565	-0.348013	1.351601
H235	H	-0.000062	-0.766718	0.508512
H236	H	0.333272	-0.433385	0.841845
H237	H	0.666605	-0.100052	1.175179
H238	H	-0.000067	-0.770792	0.254420
H239	H	0.333266	-0.437459	0.587753
H240	H	0.666599	-0.104126	0.921087
Br241	Br	-0.351899	-1.015415	0.019533
Br242	Br	-0.018566	-0.682081	0.352866
Br243	Br	0.314767	-0.348748	0.686199
Br244	Br	-0.165100	-0.772303	-0.223386
Br245	Br	0.168233	-0.438970	0.109947
Br246	Br	0.501566	-0.105637	0.443281
Br247	Br	-0.351894	-0.772327	-0.223393
Br248	Br	-0.018561	-0.438993	0.109940
Br249	Br	0.314772	-0.105660	0.443274
Br250	Br	-0.835081	-1.015447	0.019531
Br251	Br	-0.501748	-0.682113	0.352864
Br252	Br	-0.168414	-0.348780	0.686197
