data_functionalizedCrystal
_audit_creation_method	'MofGen! by Chris Wilmer'
_symmetry_space_group_name_H-M	'P1'
_symmetry_Int_Tables_number	1
_symmetry_cell_setting	triclinic
loop_
_symmetry_equiv_pos_as_xyz
  x,y,z
_cell_length_a	19.288864
_cell_length_b	14.971496
_cell_length_c	14.048226
_cell_angle_alpha	90.003149
_cell_angle_beta	89.978031
_cell_angle_gamma	96.622815
loop_
_atom_site_label
_atom_site_type_symbol
_atom_site_fract_x
_atom_site_fract_y
_atom_site_fract_z
O1	O	0.921719	-0.111575	-0.079468
O2	O	0.719508	-0.126627	-0.079403
O3	O	0.826030	0.011128	-0.079429
O4	O	0.815197	-0.249330	-0.079442
O5	O	0.826013	0.011124	0.078893
O6	O	0.719491	-0.126631	0.078918
O7	O	0.921702	-0.111579	0.078853
Zn8	Zn	0.820594	-0.119105	0.104023
Zn9	Zn	0.820616	-0.119101	-0.104572
O10	O	0.815180	-0.249333	0.078879
C11	C	0.693621	-0.126145	-0.000234
C12	C	0.616513	-0.124691	-0.000209
N13	N	0.820583	-0.119108	0.246383
C14	C	0.825536	0.044448	-0.000268
C15	C	0.824080	0.143737	-0.000267
C16	C	0.572082	-0.205519	-0.000228
C17	C	0.499631	-0.204153	-0.000239
C18	C	0.471613	-0.121954	-0.000249
C19	C	0.516053	-0.041115	-0.000225
C20	C	0.588503	-0.042484	-0.000205
C21	C	0.363145	-0.057336	-0.055745
C22	C	0.290696	-0.055971	-0.055771
C23	C	0.248154	-0.117731	-0.000306
C24	C	0.278068	-0.180871	0.055171
C25	C	0.350518	-0.182239	0.055191
C26	C	0.393054	-0.120462	-0.000270
C27	C	0.125162	-0.197084	-0.000336
C28	C	0.052710	-0.195714	-0.000340
C29	C	0.069134	-0.032675	-0.000336
C30	C	0.141585	-0.034046	-0.000321
C31	C	0.169594	-0.116253	-0.000326
C32	C	0.947589	-0.112061	-0.000318
C33	C	1.024697	-0.113515	-0.000349
C34	C	0.815674	-0.282654	-0.000284
C35	C	0.817130	-0.381942	-0.000291
C36	C	0.817824	0.571409	-0.086591
C37	C	0.819196	0.478117	-0.086587
C38	C	0.819867	0.431475	-0.000283
C39	C	0.819175	0.478131	0.086024
C40	C	0.817808	0.571422	0.086019
C41	C	0.822020	0.283683	0.086028
C42	C	0.823385	0.190386	0.086033
C43	C	0.823408	0.190378	-0.086578
C44	C	0.822042	0.283669	-0.086583
C45	C	0.821348	0.330318	-0.000276
N46	N	0.820632	-0.119091	-0.246933
C47	C	0.867807	-0.058118	0.703212
C48	C	0.867800	-0.058124	0.603554
C49	C	0.820616	-0.119100	0.553753
C50	C	0.773439	-0.180079	0.603616
C51	C	0.773449	-0.180077	0.703272
C52	C	0.773420	-0.180079	0.395902
C53	C	0.773409	-0.180081	0.296239
C54	C	0.867771	-0.058126	0.296184
C55	C	0.867781	-0.058124	0.395840
C56	C	0.820604	-0.119102	0.445695
H57	H	0.594883	-0.272458	-0.000234
N58	N	0.636424	0.044704	-0.000192
H59	H	0.666873	0.047772	-0.058875
H60	H	0.666781	0.047718	0.058543
N61	N	0.485837	0.047541	-0.000246
H62	H	0.524981	0.098540	-0.000231
H63	H	0.456107	0.051659	0.058436
H64	H	0.016534	-0.261537	-0.000350
H65	H	0.147969	-0.264022	-0.000325
H66	H	0.817242	0.609402	0.156293
H67	H	0.735036	-0.229728	0.743863
N68	N	0.722523	-0.245853	0.242525
H69	H	0.729674	-0.236596	0.171829
H70	H	0.673244	-0.235684	0.259981
H71	H	0.906227	-0.008461	0.743753
N72	N	0.409024	0.009285	-0.115569
H73	H	0.395607	0.001191	-0.184785
H74	H	0.459443	-0.001194	-0.107058
N75	N	0.918683	0.007639	0.549784
H76	H	0.949461	-0.026447	0.508421
H77	H	0.948525	0.046251	0.596517
H78	H	0.046323	0.034253	-0.000403
H79	H	0.823910	0.152409	0.156309
H80	H	0.906185	-0.008476	0.255586
H81	H	0.821456	0.321662	0.156308
N82	N	0.189512	0.053133	-0.000301
H83	H	0.160771	0.105415	-0.000307
H84	H	0.219957	0.056121	-0.058982
H85	H	0.819726	0.440149	0.156294
H86	H	0.266345	-0.004562	-0.100948
N87	N	0.819980	0.427832	-0.179682
H88	H	0.863586	0.396577	-0.183522
H89	H	0.819329	0.471610	-0.234281
H90	H	0.821491	0.321641	-0.156860
N91	N	0.918685	0.007630	0.449549
H92	H	0.910648	0.071093	0.432221
H93	H	0.967956	-0.002611	0.432137
H94	H	0.817271	0.609376	-0.156870
N95	N	0.824178	0.140074	-0.179669
H96	H	0.825157	0.073900	-0.166573
H97	H	0.866976	0.163818	-0.217348
H98	H	0.735005	-0.229737	0.436491
N99	N	0.722544	-0.245849	0.549912
H100	H	0.749109	-0.285368	0.508540
H101	H	0.691772	-0.211702	0.508647
H102	H	0.374871	-0.233647	0.100366
N103	N	0.451701	-0.291338	-0.000263
H104	H	0.460746	-0.327205	-0.058956
H105	H	0.401574	-0.277922	-0.000241
N106	N	0.232194	-0.247495	0.114994
H107	H	0.181758	-0.237048	0.106569
H108	H	0.245674	-0.239376	0.184182
