data_functionalizedCrystal
_audit_creation_method	'MofGen! by Chris Wilmer'
_symmetry_space_group_name_H-M	'P1'
_symmetry_Int_Tables_number	1
_symmetry_cell_setting	triclinic
loop_
_symmetry_equiv_pos_as_xyz
  x,y,z
_cell_length_a	21.395362
_cell_length_b	12.759399
_cell_length_c	21.395355
_cell_angle_alpha	89.985737
_cell_angle_beta	89.956060
_cell_angle_gamma	90.030995
loop_
_atom_site_label
_atom_site_type_symbol
_atom_site_fract_x
_atom_site_fract_y
_atom_site_fract_z
Zn1	Zn	0.957927	-0.417943	-0.354604
Zn2	Zn	1.457927	0.082057	0.145396
Zn3	Zn	0.957858	-0.593607	-0.249834
Zn4	Zn	1.457858	-0.093607	0.250166
Zn5	Zn	0.853142	-0.417992	-0.249805
Zn6	Zn	1.353142	0.082008	0.250195
Zn7	Zn	0.853140	-0.593629	-0.354539
Zn8	Zn	1.353140	-0.093629	0.145461
O9	O	0.905517	-0.505793	-0.302196
O10	O	1.405517	-0.005793	0.197804
O11	O	1.045596	-0.441215	-0.340746
O12	O	1.545596	0.058785	0.159254
O13	O	0.943940	-0.570323	-0.162153
O14	O	1.443940	-0.070323	0.337847
O15	O	0.867072	-0.270964	-0.263722
O16	O	1.367072	0.229036	0.236278
O17	O	1.045545	-0.570275	-0.263772
O18	O	1.545545	-0.070275	0.236228
O19	O	0.944057	-0.270928	-0.340717
O20	O	1.444057	0.229072	0.159283
O21	O	0.867005	-0.441299	-0.162131
O22	O	1.367005	0.058701	0.337869
O23	O	0.765464	-0.441320	-0.263659
O24	O	1.265464	0.058680	0.236341
O25	O	0.867068	-0.570312	-0.442226
O26	O	1.367068	-0.070312	0.057774
O27	O	0.765462	-0.570360	-0.340607
O28	O	1.265462	-0.070360	0.159393
O29	O	0.944055	-0.441236	-0.442273
O30	O	1.444055	0.058764	0.057727
O31	O	0.943937	-0.740631	-0.263709
O32	O	1.443937	-0.240631	0.236291
O33	O	0.867001	-0.740647	-0.340635
O34	O	1.367001	-0.240647	0.159365
C35	C	0.742729	-0.505848	-0.302123
C36	C	1.242729	-0.005848	0.197877
C37	C	0.673088	-0.505897	-0.302107
C38	C	1.173088	-0.005897	0.197893
C39	C	0.905479	-0.778760	-0.302182
C40	C	1.405479	-0.278760	0.197818
C41	C	0.905519	-0.895537	-0.302196
C42	C	1.405519	-0.395537	0.197804
C43	C	0.640390	-0.573177	-0.342113
C44	C	1.140390	-0.073177	0.157887
C45	C	0.574955	-0.573152	-0.342141
C46	C	1.074955	-0.073152	0.157859
C47	C	0.542220	-0.505857	-0.302152
C48	C	1.042220	-0.005857	0.197848
C49	C	0.574925	-0.438564	-0.262142
C50	C	1.074925	0.061436	0.237858
C51	C	0.640359	-0.438584	-0.262120
C52	C	1.140359	0.061416	0.237880
C53	C	0.438494	-0.497393	-0.245746
C54	C	0.938494	0.002607	0.254254
C55	C	0.373061	-0.497380	-0.245767
C56	C	0.873061	0.002620	0.254233
C57	C	0.340399	-0.505788	-0.302221
C58	C	0.840399	-0.005788	0.197779
C59	C	0.373178	-0.514231	-0.358655
C60	C	0.873178	-0.014231	0.141345
C61	C	0.438613	-0.514251	-0.358632
C62	C	0.938613	-0.014251	0.141368
C63	C	0.471267	-0.505827	-0.302172
C64	C	0.971267	-0.005827	0.197828
C65	C	0.236749	-0.573044	-0.342261
C66	C	0.736749	-0.073044	0.157739
C67	C	0.171312	-0.573011	-0.342290
C68	C	0.671312	-0.073011	0.157710
C69	C	0.171284	-0.438428	-0.262285
C70	C	0.671284	0.061572	0.237715
C71	C	0.236719	-0.438456	-0.262262
C72	C	0.736719	0.061544	0.237738
C73	C	0.269448	-0.505769	-0.302249
C74	C	0.769448	-0.005769	0.197751
C75	C	0.945626	-0.950355	-0.262187
C76	C	1.445626	-0.450355	0.237813
C77	C	0.945666	-1.060079	-0.262208
C78	C	1.445666	-0.560079	0.237792
C79	C	0.865488	-1.060156	-0.342250
C80	C	1.365488	-0.560156	0.157750
C81	C	0.865452	-0.950434	-0.342232
C82	C	1.365452	-0.450434	0.157768
C83	C	1.019619	-1.209913	-0.239938
C84	C	1.519619	-0.709913	0.260062
C85	C	1.059720	-1.264735	-0.199919
C86	C	1.559720	-0.764735	0.300081
C87	C	1.069357	-1.229161	-0.138789
C88	C	1.569357	-0.729161	0.361211
C89	C	1.038884	-1.138766	-0.117667
C90	C	1.538884	-0.638766	0.382333
C91	C	0.998779	-1.083949	-0.157683
C92	C	1.498779	-0.583949	0.342317
C93	C	0.989154	-1.119522	-0.218821
C94	C	1.489154	-0.619522	0.281179
C95	C	0.791497	-0.800599	-0.364494
C96	C	1.291497	-0.300599	0.135506
C97	C	0.751388	-0.745780	-0.404508
C98	C	1.251388	-0.245780	0.095492
C99	C	0.741745	-0.781352	-0.465639
C100	C	1.241745	-0.281352	0.034361
C101	C	0.772207	-0.871751	-0.486759
C102	C	1.272207	-0.371751	0.013241
C103	C	0.812316	-0.926570	-0.446745
C104	C	1.312316	-0.426570	0.053255
C105	C	0.821960	-0.890990	-0.385615
C106	C	1.321960	-0.390990	0.114385
C107	C	1.068940	-0.505738	-0.302269
C108	C	1.568940	-0.005738	0.197731
C109	C	1.138582	-0.505714	-0.302300
C110	C	1.638582	-0.005714	0.197700
C111	C	0.905569	-0.505771	-0.465619
C112	C	1.405569	-0.005771	0.034381
C113	C	0.905591	-0.505762	-0.535260
C114	C	1.405591	-0.005762	-0.035260
C115	C	0.905573	-0.231759	-0.302224
C116	C	1.405573	0.268241	0.197776
C117	C	0.905596	-0.114983	-0.302236
C118	C	1.405596	0.385017	0.197764
C119	C	0.945676	-0.438550	-0.567999
C120	C	1.445676	0.061450	-0.067999
C121	C	0.945676	-0.438504	-0.633435
C122	C	1.445676	0.061496	-0.133435
C123	C	0.905596	-0.505691	-0.666129
C124	C	1.405596	-0.005691	-0.166129
C125	C	0.865503	-0.572908	-0.633382
C126	C	1.365503	-0.072908	-0.133382
C127	C	0.865500	-0.572944	-0.567948
C128	C	1.365500	-0.072944	-0.067948
C129	C	0.900635	-0.600292	-0.769797
C130	C	1.400635	-0.100292	-0.269797
C131	C	0.900642	-0.600258	-0.835230
C132	C	1.400642	-0.100258	-0.335230
C133	C	0.905600	-0.505580	-0.867950
C134	C	1.405600	-0.005580	-0.367950
C135	C	0.910564	-0.410932	-0.835228
C136	C	1.410564	0.089068	-0.335228
C137	C	0.910561	-0.410968	-0.769794
C138	C	1.410561	0.089032	-0.269794
C139	C	0.905594	-0.505659	-0.737081
C140	C	1.405594	-0.005659	-0.237081
C141	C	0.945686	-0.438312	-0.971641
C142	C	1.445686	0.061688	-0.471641
C143	C	0.945681	-0.438265	-1.037078
C144	C	1.445681	0.061735	-0.537078
C145	C	0.865512	-0.572678	-1.037024
C146	C	1.365512	-0.072678	-0.537024
C147	C	0.865514	-0.572716	-0.971588
C148	C	1.365514	-0.072716	-0.471588
C149	C	0.905604	-0.505534	-0.938901
C150	C	1.405604	-0.005534	-0.438901
C151	C	0.905501	-0.505738	-0.139408
C152	C	1.405501	-0.005738	0.360592
C153	C	0.905600	-0.505451	-0.069767
C154	C	1.405600	-0.005451	0.430233
H155	H	0.667034	-0.627988	-0.374675
H156	H	1.167034	-0.127988	0.125325
Cl157	Cl	0.815104	-0.657448	-0.526788
Cl158	Cl	1.315104	-0.157448	-0.026788
H159	H	0.832868	-0.627608	-0.660006
H160	H	1.332868	-0.127608	-0.160006
H161	H	0.914602	-0.333903	-0.743155
H162	H	1.414602	0.166097	-0.243155
H163	H	0.978317	-0.383766	-0.660096
H164	H	1.478317	0.116234	-0.160096
Cl165	Cl	0.803622	-0.755869	-0.287642
Cl166	Cl	1.303622	-0.255869	0.212358
Cl167	Cl	1.050995	-1.094057	-0.040810
Cl168	Cl	1.550995	-0.594057	0.459190
Cl169	Cl	0.130206	-0.657594	-0.392592
Cl170	Cl	0.630206	-0.157594	0.107408
H171	H	0.465081	-0.490542	-0.199772
H172	H	0.965081	0.009458	0.300228
Cl173	Cl	0.479819	-0.524858	-0.429574
Cl174	Cl	0.979819	-0.024858	0.070426
H175	H	1.102009	-1.273805	-0.106205
H176	H	1.602009	-0.773805	0.393795
H177	H	0.263398	-0.627849	-0.374824
H178	H	0.763398	-0.127849	0.125176
H179	H	0.548268	-0.383770	-0.229583
H180	H	1.048268	0.116230	0.270417
Cl181	Cl	0.960468	-0.970321	-0.131133
Cl182	Cl	1.460468	-0.470321	0.368867
Cl183	Cl	0.331859	-0.486765	-0.174823
Cl184	Cl	0.831859	0.013235	0.325177
Cl185	Cl	0.533841	-0.657739	-0.392439
Cl186	Cl	1.033841	-0.157739	0.107561
Cl187	Cl	0.332126	-0.524796	-0.429630
Cl188	Cl	0.832126	-0.024796	0.070370
Cl189	Cl	0.130137	-0.353821	-0.212015
Cl190	Cl	0.630137	0.146179	0.287985
H191	H	0.666981	-0.383793	-0.229542
H192	H	1.166981	0.116207	0.270458
H193	H	0.263342	-0.383674	-0.229681
H194	H	0.763342	0.116326	0.270319
Cl195	Cl	0.815120	-0.657133	-1.078119
Cl196	Cl	1.315120	-0.157133	-0.578119
H197	H	0.978321	-0.383844	-0.541389
H198	H	1.478321	0.116156	-0.041389
Cl199	Cl	0.760085	-0.916475	-0.563612
Cl200	Cl	1.260085	-0.416475	-0.063612
H201	H	0.978252	-0.905660	-0.229588
H202	H	1.478252	-0.405660	0.270412
H203	H	0.914602	-0.333836	-0.861867
H204	H	1.414602	0.166164	-0.361867
H205	H	0.978327	-0.383603	-0.945026
H206	H	1.478327	0.116397	-0.445026
Cl207	Cl	1.007516	-1.254632	-0.316794
Cl208	Cl	1.507516	-0.754632	0.183206
Cl209	Cl	0.815118	-1.129178	-0.392575
Cl210	Cl	1.315118	-0.629178	0.107425
Cl211	Cl	0.850613	-1.040215	-0.473298
Cl212	Cl	1.350613	-0.540215	0.026702
Cl213	Cl	0.691284	-0.712479	-0.515926
Cl214	Cl	1.191284	-0.212479	-0.015926
H215	H	0.978322	-0.383527	-1.063733
H216	H	1.478322	0.116473	-0.563733
Cl217	Cl	0.815120	-0.657221	-0.930428
Cl218	Cl	1.315120	-0.157221	-0.430428
Cl219	Cl	0.894408	-0.719242	-0.876358
Cl220	Cl	1.394408	-0.219242	-0.376358
H221	H	0.896431	-0.677371	-0.743162
H222	H	1.396431	-0.177371	-0.243162
H223	H	0.726588	-0.672168	-0.387308
H224	H	1.226588	-0.172168	0.112692
H225	H	1.084532	-1.338335	-0.217123
H226	H	1.584532	-0.838335	0.282877
