data_functionalizedCrystal
_audit_creation_method	'MofGen! by Chris Wilmer'
_symmetry_space_group_name_H-M	'P1'
_symmetry_Int_Tables_number	1
_symmetry_cell_setting	triclinic
loop_
_symmetry_equiv_pos_as_xyz
  x,y,z
_cell_length_a	23.532361
_cell_length_b	23.532357
_cell_length_c	22.610064
_cell_angle_alpha	89.998517
_cell_angle_beta	89.996103
_cell_angle_gamma	82.828980
loop_
_atom_site_label
_atom_site_type_symbol
_atom_site_fract_x
_atom_site_fract_y
_atom_site_fract_z
O1	O	0.755268	0.069002	-0.049132
O2	O	1.088602	0.402336	0.284201
O3	O	1.421935	0.735669	0.617534
O4	O	0.589399	0.079034	-0.049147
O5	O	0.922733	0.412367	0.284186
O6	O	1.256066	0.745700	0.617519
O7	O	0.677350	-0.008916	-0.049127
O8	O	1.010684	0.324417	0.284206
O9	O	1.344017	0.657750	0.617539
O10	O	0.667317	0.156953	-0.049153
O11	O	1.000651	0.490286	0.284181
O12	O	1.333984	0.823619	0.617514
O13	O	0.677335	-0.008904	0.049242
O14	O	1.010668	0.324430	0.382575
O15	O	1.344002	0.657763	0.715909
O16	O	0.589384	0.079047	0.049222
O17	O	0.922717	0.412380	0.382555
O18	O	1.256051	0.745713	0.715888
O19	O	0.755253	0.069015	0.049237
O20	O	1.088586	0.402349	0.382570
O21	O	1.421919	0.735682	0.715904
Zn22	Zn	0.672316	0.074033	0.064848
Zn23	Zn	1.005649	0.407366	0.398181
Zn24	Zn	1.338983	0.740700	0.731514
Zn25	Zn	0.672336	0.074016	-0.064758
Zn26	Zn	1.005670	0.407349	0.268575
Zn27	Zn	1.339003	0.740683	0.601909
O28	O	0.667302	0.156965	0.049217
O29	O	1.000635	0.490299	0.382550
O30	O	1.333968	0.823632	0.715883
C31	C	0.568175	0.078789	0.000035
C32	C	0.901508	0.412122	0.333369
C33	C	1.234842	0.745456	0.666702
C34	C	0.504957	0.078034	0.000030
C35	C	0.838290	0.411367	0.333363
C36	C	1.171623	0.744700	0.666697
C37	C	0.231722	0.074723	-0.053587
C38	C	0.565055	0.408056	0.279746
C39	C	0.898389	0.741390	0.613080
C40	C	0.291122	0.075438	-0.053588
C41	C	0.624455	0.408771	0.279745
C42	C	0.957788	0.742105	0.613078
O43	O	0.321855	0.075782	-0.099190
O44	O	0.655188	0.409115	0.234143
O45	O	0.988521	0.742449	0.567477
N46	N	0.320819	0.075806	0.000033
N47	N	0.654152	0.409140	0.333366
N48	N	0.987486	0.742473	0.666699
C49	C	0.291114	0.075454	0.053659
C50	C	0.624447	0.408787	0.386992
C51	C	0.957781	0.742120	0.720326
O52	O	0.321828	0.075832	0.099268
O53	O	0.655162	0.409165	0.432601
O54	O	0.988495	0.742498	0.765935
C55	C	0.231716	0.074734	0.053660
C56	C	0.565049	0.408068	0.386993
C57	C	0.898383	0.741401	0.720327
C58	C	0.202021	0.074372	0.000035
C59	C	0.535355	0.407706	0.333369
C60	C	0.868688	0.741039	0.666702
C61	C	0.202027	0.074360	-0.107207
C62	C	0.535361	0.407693	0.226126
C63	C	0.868694	0.741027	0.559459
C64	C	0.142632	0.073646	-0.107205
C65	C	0.475965	0.406980	0.226128
C66	C	0.809298	0.740313	0.559461
C67	C	0.112931	0.073295	-0.053583
C68	C	0.446264	0.406629	0.279750
C69	C	0.779597	0.739962	0.613083
C70	C	0.142626	0.073658	0.000037
C71	C	0.475959	0.406992	0.333370
C72	C	0.809292	0.740325	0.666704
C73	C	0.202013	0.074378	0.107286
C74	C	0.535346	0.407711	0.440619
C75	C	0.868680	0.741044	0.773952
C76	C	0.142611	0.073658	0.107282
C77	C	0.475944	0.406992	0.440615
C78	C	0.809278	0.740325	0.773949
C79	C	0.112916	0.073296	0.053657
C80	C	0.446249	0.406629	0.386991
C81	C	0.779583	0.739963	0.720324
C82	C	0.053529	0.072594	0.053661
C83	C	0.386862	0.405927	0.386994
C84	C	0.720196	0.739260	0.720328
N85	N	0.023832	0.072225	0.000040
N86	N	0.357165	0.405559	0.333373
N87	N	0.690499	0.738892	0.666706
C88	C	0.053533	0.072576	-0.053582
C89	C	0.386866	0.405910	0.279751
C90	C	0.720199	0.739243	0.613084
C91	C	0.415854	0.076963	0.053653
C92	C	0.749187	0.410296	0.386986
C93	C	1.082521	0.743629	0.720320
C94	C	0.475250	0.077686	0.053653
C95	C	0.808584	0.411019	0.386986
C96	C	1.141917	0.744352	0.720319
C97	C	0.475254	0.077669	-0.053595
C98	C	0.808587	0.411002	0.279738
C99	C	1.141921	0.744336	0.613072
C100	C	0.415856	0.076950	-0.053594
C101	C	0.749189	0.410283	0.279739
C102	C	1.082523	0.743617	0.613073
C103	C	0.386157	0.076594	0.000032
C104	C	0.719490	0.409928	0.333365
C105	C	1.052824	0.743261	0.666698
C106	C	-0.071202	0.071078	-0.053575
C107	C	0.262131	0.404411	0.279759
C108	C	0.595464	0.737744	0.613092
C109	C	-0.130604	0.070366	-0.053568
C110	C	0.202730	0.403700	0.279765
C111	C	0.536063	0.737033	0.613099
C112	C	-0.130602	0.070380	0.053679
C113	C	0.202731	0.403713	0.387013
C114	C	0.536065	0.737047	0.720346
C115	C	-0.071206	0.071094	0.053673
C116	C	0.262127	0.404428	0.387006
C117	C	0.595460	0.737761	0.720340
C118	C	-0.041508	0.071441	0.000041
C119	C	0.291826	0.404775	0.333375
C120	C	0.625159	0.738108	0.666708
O121	O	0.022759	0.072247	0.099239
O122	O	0.356092	0.405580	0.432573
O123	O	0.689425	0.738913	0.765906
O124	O	0.022812	0.072190	-0.099184
O125	O	0.356146	0.405524	0.234150
O126	O	0.689479	0.738857	0.567483
C127	C	0.677092	-0.030127	0.000059
C128	C	1.010425	0.303207	0.333392
C129	C	1.343758	0.636540	0.666726
C130	C	0.676337	-0.093345	0.000065
C131	C	1.009671	0.239988	0.333398
C132	C	1.343004	0.573322	0.666731
C133	C	0.671609	-0.485363	-0.053589
C134	C	1.004942	-0.152029	0.279745
C135	C	1.338276	0.181304	0.613078
C136	C	0.670892	-0.544762	-0.053592
C137	C	1.004225	-0.211429	0.279741
C138	C	1.337558	0.121905	0.613074
O139	O	0.670509	-0.575484	-0.099195
O140	O	1.003842	-0.242151	0.234138
O141	O	1.337175	0.091183	0.567472
N142	N	0.670527	-0.574466	0.000028
N143	N	1.003861	-0.241133	0.333361
N144	N	1.337194	0.092201	0.666695
C145	C	0.670875	-0.544767	0.053655
C146	C	1.004208	-0.211434	0.386989
C147	C	1.337541	0.121900	0.720322
O148	O	0.670499	-0.575487	0.099263
O149	O	1.003832	-0.242153	0.432596
O150	O	1.337165	0.091180	0.765930
C151	C	0.671588	-0.485368	0.053658
C152	C	1.004921	-0.152035	0.386991
C153	C	1.338255	0.181299	0.720325
C154	C	0.671958	-0.455668	0.000034
C155	C	1.005291	-0.122335	0.333368
C156	C	1.338625	0.210999	0.666701
C157	C	0.671978	-0.455662	-0.107208
C158	C	1.005311	-0.122329	0.226125
C159	C	1.338645	0.211005	0.559458
C160	C	0.672696	-0.396267	-0.107205
C161	C	1.006030	-0.062934	0.226129
C162	C	1.339363	0.270400	0.559462
C163	C	0.673045	-0.366572	-0.053581
C164	C	1.006379	-0.033239	0.279752
C165	C	1.339712	0.300094	0.613085
C166	C	0.672676	-0.396273	0.000038
C167	C	1.006009	-0.062939	0.333371
C168	C	1.339343	0.270394	0.666705
C169	C	0.671931	-0.455670	0.107285
C170	C	1.005264	-0.122336	0.440618
C171	C	1.338598	0.210997	0.773951
C172	C	0.672644	-0.396267	0.107283
C173	C	1.005977	-0.062933	0.440616
C174	C	1.339311	0.270400	0.773950
C175	C	0.673014	-0.366566	0.053659
C176	C	1.006347	-0.033233	0.386992
C177	C	1.339681	0.300100	0.720326
C178	C	0.673743	-0.307183	0.053665
C179	C	1.007077	0.026150	0.386998
C180	C	1.340410	0.359484	0.720331
N181	N	0.674108	-0.277479	0.000044
N182	N	1.007441	0.055854	0.333378
N183	N	1.340774	0.389188	0.666711
C184	C	0.673759	-0.307174	-0.053579
C185	C	1.007092	0.026160	0.279755
C186	C	1.340425	0.359493	0.613088
C187	C	0.669376	-0.669508	0.053645
C188	C	1.002709	-0.336175	0.386979
C189	C	1.336043	-0.002842	0.720312
C190	C	0.668667	-0.728907	0.053643
C191	C	1.002000	-0.395573	0.386976
C192	C	1.335334	-0.062240	0.720310
C193	C	0.668683	-0.728897	-0.053605
C194	C	1.002016	-0.395564	0.279729
C195	C	1.335350	-0.062231	0.613062
C196	C	0.669396	-0.669498	-0.053602
C197	C	1.002729	-0.336165	0.279731
C198	C	1.336063	-0.002832	0.613065
C199	C	0.669740	-0.639804	0.000025
C200	C	1.003074	-0.306471	0.333358
C201	C	1.336407	0.026863	0.666692
C202	C	0.675268	-0.182440	-0.053567
C203	C	1.008601	0.150894	0.279766
C204	C	1.341934	0.484227	0.613100
C205	C	0.675988	-0.123040	-0.053558
C206	C	1.009322	0.210294	0.279775
C207	C	1.342655	0.543627	0.613108
C208	C	0.675969	-0.123054	0.053689
C209	C	1.009303	0.210280	0.387022
C210	C	1.342636	0.543613	0.720356
C211	C	0.675252	-0.182449	0.053681
C212	C	1.008585	0.150884	0.387014
C213	C	1.341918	0.484218	0.720347
C214	C	0.674899	-0.212140	0.000048
C215	C	1.008232	0.121193	0.333381
C216	C	1.341566	0.454526	0.666715
O217	O	0.674125	-0.276423	0.099244
O218	O	1.007458	0.056911	0.432577
O219	O	1.340791	0.390244	0.765911
O220	O	0.674127	-0.276445	-0.099179
O221	O	1.007461	0.056888	0.234154
O222	O	1.340794	0.390221	0.567488
C223	C	0.776477	0.069260	0.000053
C224	C	1.109810	0.402593	0.333386
C225	C	1.443144	0.735927	0.666719
C226	C	0.839695	0.070015	0.000054
C227	C	1.173029	0.403349	0.333387
C228	C	1.506362	0.736682	0.666721
C229	C	0.667560	0.178176	0.000029
C230	C	1.000894	0.511509	0.333362
C231	C	1.334227	0.844842	0.666696
C232	C	0.668315	0.241394	0.000020
C233	C	1.001648	0.574727	0.333353
C234	C	1.334982	0.908061	0.666686
N235	N	0.672306	0.074044	0.153300
N236	N	1.005639	0.407377	0.486633
N237	N	1.338973	0.740711	0.819967
N238	N	0.672351	0.074000	-0.153211
N239	N	1.005684	0.407334	0.180123
N240	N	1.339017	0.740667	0.513456
C241	C	0.711283	0.035078	0.561950
C242	C	1.044616	0.368411	0.895284
C243	C	1.377949	0.701744	1.228617
C244	C	0.711286	0.035073	0.623870
C245	C	1.044619	0.368407	0.957204
C246	C	1.377952	0.701740	1.290537
O247	O	0.744401	0.001951	0.655897
O248	O	1.077734	0.335285	0.989230
O249	O	1.411067	0.668618	1.322563
N250	N	0.672336	0.074004	0.654837
N251	N	1.005669	0.407338	0.988170
N252	N	1.339003	0.740671	1.321504
C253	C	0.633377	0.112938	0.623881
C254	C	0.966710	0.446271	0.957214
C255	C	1.300044	0.779604	1.290548
O256	O	0.600247	0.146051	0.655906
O257	O	0.933580	0.479384	0.989240
O258	O	1.266914	0.812717	1.322573
C259	C	0.633372	0.112939	0.561962
C260	C	0.966705	0.446272	0.895295
C261	C	1.300038	0.779605	1.228629
C262	C	0.672328	0.074009	0.530998
C263	C	1.005661	0.407343	0.864332
C264	C	1.338995	0.740676	1.197665
C265	C	0.750235	-0.003849	0.530987
C266	C	1.083569	0.329484	0.864320
C267	C	1.416902	0.662818	1.197653
C268	C	0.750233	-0.003844	0.469071
C269	C	1.083566	0.329489	0.802404
C270	C	1.416900	0.662823	1.135738
C271	C	0.711278	0.035088	0.438119
C272	C	1.044611	0.368421	0.771452
C273	C	1.377945	0.701754	1.104786
C274	C	0.672325	0.074014	0.469083
C275	C	1.005659	0.407348	0.802416
C276	C	1.338992	0.740681	1.135749
C277	C	0.594410	0.151869	0.531007
C278	C	0.927744	0.485202	0.864340
C279	C	1.261077	0.818536	1.197674
C280	C	0.594408	0.151866	0.469084
C281	C	0.927742	0.485200	0.802417
C282	C	1.261075	0.818533	1.135751
C283	C	0.633364	0.112937	0.438120
C284	C	0.966698	0.446270	0.771454
C285	C	1.300031	0.779604	1.104787
C286	C	0.633368	0.112951	0.376215
C287	C	0.966701	0.446284	0.709549
C288	C	1.300035	0.779618	1.042882
N289	N	0.672318	0.074020	0.345248
N290	N	1.005651	0.407354	0.678582
N291	N	1.338985	0.740687	1.011915
C292	C	0.711273	0.035089	0.376200
C293	C	1.044606	0.368422	0.709534
C294	C	1.377940	0.701755	1.042867
C295	C	0.633390	0.112932	0.753915
C296	C	0.966723	0.446265	1.087248
C297	C	1.300057	0.779599	1.420581
C298	C	0.633397	0.112934	0.815832
C299	C	0.966731	0.446268	1.149165
C300	C	1.300064	0.779601	1.482499
C301	C	0.711306	0.035069	0.815817
C302	C	1.044639	0.368402	1.149151
C303	C	1.377972	0.701736	1.482484
C304	C	0.711301	0.035070	0.753898
C305	C	1.044634	0.368403	1.087232
C306	C	1.377967	0.701737	1.420565
C307	C	0.672340	0.074001	0.722948
C308	C	1.005673	0.407335	1.056281
C309	C	1.339006	0.740668	1.389614
C310	C	0.711265	0.035102	0.246173
C311	C	1.044599	0.368436	0.579506
C312	C	1.377932	0.701769	0.912840
C313	C	0.711261	0.035112	0.184252
C314	C	1.044594	0.368446	0.517585
C315	C	1.377928	0.701779	0.850918
C316	C	0.633351	0.112975	0.184272
C317	C	0.966684	0.446309	0.517606
C318	C	1.300018	0.779642	0.850939
C319	C	0.633357	0.112968	0.246188
C320	C	0.966690	0.446301	0.579521
C321	C	1.300024	0.779634	0.912855
C322	C	0.672316	0.074026	0.277137
C323	C	1.005650	0.407360	0.610470
C324	C	1.338983	0.740693	0.943803
O325	O	0.600268	0.146055	0.344150
O326	O	0.933602	0.479388	0.677483
O327	O	1.266935	0.812721	1.010816
O328	O	0.744392	0.001976	0.344167
O329	O	1.077726	0.335310	0.677501
O330	O	1.411059	0.668643	1.010834
H331	H	0.118460	0.073349	-0.150872
H332	H	0.451793	0.406682	0.182461
H333	H	0.785126	0.740015	0.515794
H334	H	-0.154779	0.070073	-0.097238
H335	H	0.178554	0.403406	0.236096
H336	H	0.511888	0.736740	0.569429
O337	O	0.591390	0.154928	0.849230
O338	O	0.924724	0.488262	1.182564
O339	O	1.258057	0.821595	1.515897
H340	H	0.615209	0.182481	0.877433
H341	H	0.948542	0.515815	1.210766
H342	H	1.281875	0.849148	1.544099
H343	H	0.562680	0.183569	0.443887
H344	H	0.896013	0.516902	0.777220
H345	H	1.229346	0.850235	1.110553
O346	O	0.591374	0.154933	0.720532
O347	O	0.924707	0.488266	1.053865
O348	O	1.258040	0.821599	1.387199
H349	H	0.564298	0.182004	0.752472
H350	H	0.897631	0.515337	1.085806
H351	H	1.230964	0.848671	1.419139
O352	O	0.591343	0.154955	0.279591
O353	O	0.924676	0.488288	0.612924
O354	O	1.258010	0.821622	0.946257
H355	H	0.564253	0.182025	0.247662
H356	H	0.897587	0.515359	0.580996
H357	H	1.230920	0.848692	0.914329
H358	H	0.668375	-0.753085	0.097309
H359	H	1.001708	-0.419751	0.430642
H360	H	1.335041	-0.086418	0.763976
H361	H	-0.047029	0.071401	0.097339
H362	H	0.286304	0.404734	0.430672
H363	H	0.619638	0.738067	0.764005
H364	H	0.668397	-0.753085	-0.097268
H365	H	1.001730	-0.419752	0.236066
H366	H	1.335063	-0.086418	0.569399
O367	O	0.507295	0.078036	-0.111434
O368	O	0.840628	0.411370	0.221899
O369	O	1.173961	0.744703	0.555233
H370	H	0.553587	0.078589	-0.102421
H371	H	0.886920	0.411922	0.230912
H372	H	1.220254	0.745255	0.564246
O373	O	0.591322	0.154952	0.150884
O374	O	0.924655	0.488285	0.484217
O375	O	1.257989	0.821618	0.817550
H376	H	0.597860	0.148402	0.102627
H377	H	0.931193	0.481735	0.435960
H378	H	1.264526	0.815068	0.769293
O379	O	0.669764	-0.637487	0.111491
O380	O	1.003097	-0.304153	0.444824
O381	O	1.336430	0.029180	0.778158
H382	H	0.630804	-0.643590	0.137205
H383	H	0.964138	-0.310256	0.470539
H384	H	1.297471	0.023077	0.803872
O385	O	0.753324	-0.006920	0.849211
O386	O	1.086657	0.326413	1.182544
O387	O	1.419991	0.659747	1.515878
H388	H	0.780416	-0.033989	0.817281
H389	H	1.113750	0.299344	1.150615
H390	H	1.447083	0.632678	1.483948
O391	O	-0.039175	0.071458	-0.111418
O392	O	0.294158	0.404791	0.221915
O393	O	0.627492	0.738125	0.555249
H394	H	-0.069811	0.071092	-0.148699
H395	H	0.263522	0.404425	0.184635
H396	H	0.596855	0.737758	0.517968
O397	O	0.669784	-0.637466	-0.111439
O398	O	1.003117	-0.304133	0.221894
O399	O	1.336450	0.029200	0.555227
H400	H	0.708471	-0.654173	-0.137152
H401	H	1.041804	-0.320840	0.196181
H402	H	1.375138	0.012493	0.529514
H403	H	0.672916	-0.372092	0.150953
H404	H	1.006249	-0.038758	0.484287
H405	H	1.339582	0.294575	0.817620
H406	H	0.226204	0.074644	-0.150875
H407	H	0.559537	0.407977	0.182458
H408	H	0.892870	0.741311	0.515791
H409	H	0.391682	0.076655	-0.097260
H410	H	0.725016	0.409988	0.236073
H411	H	1.058349	0.743322	0.569406
H412	H	0.671692	-0.479833	-0.150877
H413	H	1.005025	-0.146500	0.182456
H414	H	1.338359	0.186834	0.515790
H415	H	0.499422	0.077990	0.097319
H416	H	0.832755	0.411323	0.430653
H417	H	1.166088	0.744657	0.763986
H418	H	0.562689	0.183569	0.556209
H419	H	0.896022	0.516902	0.889542
H420	H	1.229355	0.850235	1.222876
H421	H	0.674956	-0.206633	0.097346
H422	H	1.008289	0.126700	0.430679
H423	H	1.341622	0.460034	0.764012
H424	H	0.676256	-0.098866	0.097347
H425	H	1.009589	0.234467	0.430681
H426	H	1.342923	0.567801	0.764014
H427	H	0.226181	0.074671	0.150953
H428	H	0.559514	0.408004	0.484286
H429	H	0.892847	0.741338	0.817619
O430	O	0.383820	0.076592	0.111496
O431	O	0.717153	0.409925	0.444829
O432	O	1.050486	0.743259	0.778162
H433	H	0.414453	0.076975	0.148777
H434	H	0.747786	0.410308	0.482110
H435	H	1.081119	0.743642	0.815444
H436	H	0.742986	0.003411	0.159043
H437	H	1.076319	0.336745	0.492376
H438	H	1.409652	0.670078	0.825710
H439	H	0.671631	-0.479842	0.150951
H440	H	1.004964	-0.146508	0.484284
H441	H	1.338298	0.186825	0.817618
H442	H	0.676291	-0.098861	-0.097227
H443	H	1.009624	0.234473	0.236106
H444	H	1.342957	0.567806	0.569439
H445	H	0.781953	-0.035545	0.443864
H446	H	1.115286	0.297788	0.777197
H447	H	1.448619	0.631121	1.110531
O448	O	0.792262	-0.045835	0.564366
O449	O	1.125595	0.287498	0.897699
O450	O	1.458929	0.620831	1.231033
H451	H	0.819347	-0.072894	0.532423
H452	H	1.152681	0.260439	0.865756
H453	H	1.486014	0.593773	1.199090
O454	O	0.110576	0.073280	0.165122
O455	O	0.443910	0.406613	0.498456
O456	O	0.777243	0.739947	0.831789
H457	H	0.141207	0.073658	0.202406
H458	H	0.474541	0.406991	0.535739
H459	H	0.807874	0.740324	0.869073
H460	H	0.674977	-0.206607	-0.097240
H461	H	1.008311	0.126726	0.236094
H462	H	1.341644	0.460060	0.569427
O463	O	-0.162692	0.070378	0.111512
O464	O	0.170642	0.403712	0.444846
O465	O	0.503975	0.737045	0.778179
H466	H	-0.209001	0.069952	0.102499
H467	H	0.124333	0.403286	0.435832
H468	H	0.457666	0.736619	0.769165
H469	H	0.672995	-0.372090	-0.150871
H470	H	1.006329	-0.038757	0.182463
H471	H	1.339662	0.294577	0.515796
H472	H	0.742989	0.003392	0.271365
H473	H	1.076322	0.336726	0.604698
H474	H	1.409656	0.670059	0.938031
O475	O	0.753310	-0.006931	0.720511
O476	O	1.086643	0.326402	1.053844
O477	O	1.419976	0.659735	1.387178
H478	H	0.729491	-0.034485	0.692310
H479	H	1.062824	0.298848	1.025644
H480	H	1.396158	0.632181	1.358977
