data_functionalizedCrystal
_audit_creation_method	'MofGen! by Chris Wilmer'
_symmetry_space_group_name_H-M	'P1'
_symmetry_Int_Tables_number	1
_symmetry_cell_setting	triclinic
loop_
_symmetry_equiv_pos_as_xyz
  x,y,z
_cell_length_a	10.489716
_cell_length_b	10.489716
_cell_length_c	12.996460
_cell_angle_alpha	89.997908
_cell_angle_beta	89.994805
_cell_angle_gamma	84.529136
loop_
_atom_site_label
_atom_site_type_symbol
_atom_site_fract_x
_atom_site_fract_y
_atom_site_fract_z
O1	O	1.694058	0.179823	-0.085548
O2	O	1.322857	0.196749	-0.085551
O3	O	1.516920	0.002685	-0.085554
O4	O	1.499994	0.373887	-0.085546
O5	O	1.516900	0.002674	0.085580
O6	O	1.322836	0.196738	0.085582
O7	O	1.694037	0.179812	0.085585
Cu8	Cu	1.508435	0.188274	0.101210
Cu9	Cu	1.508459	0.188287	-0.101176
O10	O	1.499974	0.373876	0.085587
C11	C	1.275314	0.195472	0.000015
C12	C	1.133684	0.191667	0.000013
C13	C	1.035999	0.310673	0.000013
C14	C	0.958649	0.247782	0.084395
C15	C	0.958676	0.247765	-0.084330
C16	C	1.058199	0.128826	0.084464
C17	C	1.058231	0.128826	-0.084336
C18	C	0.980929	0.065848	0.000066
C19	C	1.515638	-0.044852	0.000010
C20	C	1.511833	-0.186483	0.000001
C21	C	1.630839	-0.284167	0.000011
C22	C	1.567964	-0.361517	-0.084365
C23	C	1.567916	-0.361492	0.084360
C24	C	1.449008	-0.261967	-0.084445
C25	C	1.448978	-0.261937	0.084356
C26	C	1.386015	-0.339237	-0.000041
C27	C	1.741580	0.181089	0.000017
C28	C	1.883210	0.184894	0.000011
C29	C	1.501256	0.421413	0.000021
C30	C	1.505061	0.563044	0.000024
N31	N	1.508427	0.188264	0.243557
N32	N	1.508477	0.188287	-0.243523
C33	C	1.508457	0.188288	0.663371
C34	C	1.508445	0.188286	0.546566
C35	C	1.508443	0.188277	0.453468
C36	C	1.508429	0.188273	0.336655
H37	H	1.101739	0.078632	-0.155678
O38	O	1.065379	0.434179	0.000291
C39	C	1.047718	0.636444	0.089540
C40	C	1.014380	0.496601	0.089359
H41	H	1.006478	0.686961	0.161532
H42	H	1.156203	0.638307	0.088866
H43	H	1.005077	0.687618	0.018302
H44	H	1.056936	0.445343	0.160585
H45	H	0.905885	0.494830	0.089979
H46	H	0.956508	-0.037744	0.000113
H47	H	0.915153	0.298015	0.155733
H48	H	1.101511	0.078613	0.155873
O49	O	1.627856	-0.413572	0.169388
C50	C	1.690240	-0.606153	0.265168
C51	C	1.622336	-0.547347	0.168827
H52	H	1.685776	-0.714315	0.264758
H53	H	1.794573	-0.584082	0.265057
H54	H	1.640558	-0.563571	0.337060
H55	H	1.671912	-0.589895	0.096885
H56	H	1.518000	-0.569407	0.169029
H57	H	0.915196	0.298031	-0.155657
O58	O	1.628108	-0.413382	-0.169388
C59	C	1.825021	-0.444586	-0.265559
C60	C	1.757064	-0.385814	-0.169222
H61	H	1.929286	-0.422296	-0.265467
H62	H	1.820781	-0.552780	-0.265123
H63	H	1.775266	-0.402114	-0.337453
H64	H	1.806767	-0.428185	-0.097277
H65	H	1.761292	-0.277620	-0.169749
H66	H	1.734354	-0.259500	-0.000074
O67	O	1.389234	-0.210107	-0.169620
C68	C	1.325749	-0.017602	-0.265163
C69	C	1.393489	-0.076169	-0.168668
H70	H	1.329143	0.090697	-0.264414
H71	H	1.376134	-0.059458	-0.337009
H72	H	1.221730	-0.040692	-0.265466
H73	H	1.497510	-0.053100	-0.168265
H74	H	1.343005	-0.034312	-0.096865
O75	O	1.389272	-0.210091	0.169563
C76	C	1.384480	-0.202254	0.354837
C77	C	1.452222	-0.261047	0.258417
H78	H	1.435331	-0.243448	0.426700
H79	H	1.387226	-0.093878	0.353674
H80	H	1.280662	-0.225975	0.355515
H81	H	1.556066	-0.237423	0.257677
H82	H	1.449372	-0.369409	0.259618
H83	H	1.282422	-0.363659	-0.000087
