data_functionalizedCrystal
_audit_creation_method	'MofGen! by Chris Wilmer'
_symmetry_space_group_name_H-M	'P1'
_symmetry_Int_Tables_number	1
_symmetry_cell_setting	triclinic
loop_
_symmetry_equiv_pos_as_xyz
  x,y,z
_cell_length_a	14.853567
_cell_length_b	14.853566
_cell_length_c	9.730223
_cell_angle_alpha	90.002641
_cell_angle_beta	90.003335
_cell_angle_gamma	96.365327
loop_
_atom_site_label
_atom_site_type_symbol
_atom_site_fract_x
_atom_site_fract_y
_atom_site_fract_z
O1	O	-0.117695	1.196360	-0.114205
O2	O	-0.131717	0.933901	-0.114229
O3	O	0.006524	1.072141	-0.114200
O4	O	-0.255936	1.058120	-0.114234
O5	O	0.006520	1.072140	0.114380
O6	O	-0.131721	0.933899	0.114351
O7	O	-0.117698	1.196359	0.114375
Zn8	Zn	-0.124710	1.065129	0.150655
Zn9	Zn	-0.124706	1.065131	-0.150509
O10	O	-0.255939	1.058118	0.114346
C11	C	-0.131084	0.900311	0.000058
C12	C	-0.129181	0.800227	0.000050
C13	C	-0.121128	0.377043	-0.124524
C14	C	-0.121132	0.377063	0.124683
C15	C	-0.122920	0.471097	0.124678
C16	C	-0.123813	0.518108	0.000071
C17	C	-0.122918	0.471086	-0.124532
C18	C	-0.123824	0.518126	0.249279
C19	C	-0.125612	0.612165	0.249280
C20	C	-0.126499	0.659179	0.124671
C21	C	-0.125603	0.612151	0.000063
C22	C	-0.126496	0.659162	-0.124545
C23	C	-0.125594	0.612136	-0.249154
C24	C	-0.123805	0.518100	-0.249141
C25	C	-0.128288	0.753216	0.124657
C26	C	-0.128286	0.753205	-0.124553
C27	C	-0.289526	1.058754	0.000052
C28	C	-0.389610	1.060658	0.000040
C29	C	-0.802144	1.150824	0.000097
C30	C	-0.823425	0.986591	0.000081
C31	C	-0.729392	0.984801	0.000068
C32	C	-0.671729	1.066023	0.000071
C33	C	-0.708101	1.149036	0.000088
C34	C	-0.693013	0.901790	0.000065
C35	C	-0.598974	0.899996	0.000054
C36	C	-0.541310	0.981220	0.000047
C37	C	-0.577687	1.064236	0.000062
C38	C	-0.520024	1.145458	0.000066
C39	C	-0.556399	1.228476	0.000071
C40	C	-0.650437	1.230260	0.000082
C41	C	-0.447272	0.979435	0.000036
C42	C	-0.425982	1.143671	0.000056
C43	C	0.040111	1.071505	0.000091
C44	C	0.140194	1.069601	0.000094
C45	C	-0.118332	1.229948	0.000084
C46	C	-0.120235	1.330032	0.000084
N47	N	-0.124713	1.065134	0.356191
N48	N	-0.124696	1.065133	-0.356045
C49	C	-0.063520	1.126362	0.428130
C50	C	-0.063509	1.126360	0.572013
C51	C	-0.185891	1.003898	0.572006
C52	C	-0.185897	1.003896	0.428126
C53	C	-0.002336	1.187600	0.356196
C54	C	0.058861	1.248834	0.428134
C55	C	0.058872	1.248831	0.572017
C56	C	-0.002314	1.187595	0.643961
H57	H	-0.123103	0.479841	0.350728
Br58	Br	-0.347732	1.253908	0.000045
H59	H	-0.509438	1.294607	0.000082
Br60	Br	-0.129522	0.817032	0.293755
Br61	Br	-0.002285	1.187586	0.839233
H62	H	-0.120412	0.338780	0.226133
Br63	Br	-0.699809	1.342915	0.000090
Br64	Br	-0.129487	0.817000	-0.293673
H65	H	-0.739968	0.835663	0.000068
Br66	Br	-0.901680	0.876366	0.000090
Br67	Br	-0.119872	0.313232	-0.293629
Br68	Br	-0.851506	1.263485	0.000091
H69	H	-0.569366	0.832399	0.000045
Br70	Br	-0.397908	0.866780	0.000049
Br71	Br	-0.268925	0.920798	0.669642
H72	H	-0.002341	1.187609	0.239039
Br73	Br	0.141931	1.331923	0.669649
H74	H	-0.126345	0.650446	0.350744
H75	H	-0.235725	0.954038	0.369553
H76	H	0.108682	1.298686	0.369550
H77	H	-0.123069	0.479803	-0.350591
Br78	Br	-0.126816	0.675947	-0.418258
