data_functionalizedCrystal
_audit_creation_method	'MofGen! by Chris Wilmer'
_symmetry_space_group_name_H-M	'P1'
_symmetry_Int_Tables_number	1
_symmetry_cell_setting	triclinic
loop_
_symmetry_equiv_pos_as_xyz
  x,y,z
_cell_length_a	6.817900
_cell_length_b	7.190334
_cell_length_c	11.102183
_cell_angle_alpha	92.055521
_cell_angle_beta	108.603876
_cell_angle_gamma	60.611776
loop_
_atom_site_label
_atom_site_type_symbol
_atom_site_fract_x
_atom_site_fract_y
_atom_site_fract_z
V1	V	-4.248748	0.664997	-0.173812
O2	O	-4.205181	0.652342	0.010438
O3	O	-4.224575	0.660445	-0.346645
O4	O	-4.285380	0.955027	-0.170223
O5	O	-4.143955	0.355721	-0.167206
V6	V	-4.718219	0.628006	-0.151881
O7	O	-4.540832	0.746141	-0.221917
O8	O	-4.876332	0.546862	-0.103775
O9	O	-4.519185	0.632557	0.020952
O10	O	-4.879183	0.640661	-0.336131
O11	O	-4.940409	0.937282	-0.158487
O12	O	-4.458380	0.337976	-0.155470
C13	C	-4.072719	0.649954	-0.388807
C14	C	-4.134808	0.648165	-0.530095
C15	C	-4.150291	1.025719	-0.163756
C16	C	-4.263777	1.267276	-0.161930
C17	C	-3.933837	0.257514	-0.495008
C18	C	-3.862520	0.061356	-0.543841
C19	C	-3.920869	0.059687	-0.676594
C20	C	-4.050553	0.254198	-0.760519
C21	C	-4.121870	0.450356	-0.711686
C22	C	-4.063503	0.452003	-0.578928
C23	C	-4.322853	0.841004	-0.746773
C24	C	-4.264492	0.842676	-0.614020
C25	C	-4.452538	1.035514	-0.830698
C26	C	-4.523843	1.231677	-0.781865
C27	C	-4.465484	1.233337	-0.649103
C28	C	-4.335809	1.038835	-0.565187
C29	C	-4.334383	0.643043	0.063107
C30	C	-4.251536	0.644845	0.204394
H31	H	-3.756933	-0.097010	-0.475495
H32	H	-4.629440	1.390032	-0.850206
H33	H	-4.523591	1.393075	-0.609354
O34	O	-3.851458	-0.130736	-0.724181
C35	C	-3.702244	-0.153497	-0.793781
H36	H	-3.739249	0.012480	-0.826854
H37	H	-3.740546	-0.235048	-0.881090
H38	H	-3.506284	-0.256328	-0.729683
O39	O	-4.107102	0.252830	-0.889490
C40	C	-4.004751	0.349260	-0.937350
H41	H	-3.970820	0.460910	-0.869057
H42	H	-4.132975	0.446436	-1.036167
H43	H	-3.827701	0.218415	-0.945527
O44	O	-4.279544	1.040740	-0.436265
C45	C	-4.492088	1.158477	-0.407651
H46	H	-4.643374	1.274939	-0.496437
H47	H	-4.462674	1.253342	-0.326084
H48	H	-4.542083	1.042359	-0.377292
H49	H	-4.500055	1.034142	-0.938792
H50	H	-3.886256	0.258850	-0.386910
