data_functionalizedCrystal
_audit_creation_method	'MofGen! by Chris Wilmer'
_symmetry_space_group_name_H-M	'P1'
_symmetry_Int_Tables_number	1
_symmetry_cell_setting	triclinic
loop_
_symmetry_equiv_pos_as_xyz
  x,y,z
_cell_length_a	11.026607
_cell_length_b	8.140239
_cell_length_c	9.065218
_cell_angle_alpha	90.003526
_cell_angle_beta	96.800951
_cell_angle_gamma	89.999534
loop_
_atom_site_label
_atom_site_type_symbol
_atom_site_fract_x
_atom_site_fract_y
_atom_site_fract_z
O1	O	1.616966	0.136603	0.619589
O2	O	1.950299	0.469936	0.952922
O3	O	2.283633	0.803269	1.286255
O4	O	1.262884	0.136606	0.549036
O5	O	1.596218	0.469939	0.882370
O6	O	1.929551	0.803273	1.215703
O7	O	1.447244	0.136601	0.371495
O8	O	1.780577	0.469934	0.704828
O9	O	2.113911	0.803268	1.038162
O10	O	1.432606	0.136608	0.797130
O11	O	1.765940	0.469941	1.130463
O12	O	2.099273	0.803274	1.463796
O13	O	1.447242	-0.136626	0.371483
O14	O	1.780576	0.196707	0.704817
O15	O	2.113909	0.530040	1.038150
O16	O	1.262883	-0.136621	0.549024
O17	O	1.596216	0.196712	0.882358
O18	O	1.929550	0.530046	1.215691
O19	O	1.616964	-0.136625	0.619577
O20	O	1.950298	0.196709	0.952910
O21	O	2.283631	0.530042	1.286243
Zn22	Zn	1.439923	-0.180003	0.584299
Zn23	Zn	1.773257	0.153330	0.917632
Zn24	Zn	2.106590	0.486663	1.250965
Zn25	Zn	1.439925	0.179985	0.584314
Zn26	Zn	1.773259	0.513318	0.917648
Zn27	Zn	2.106592	0.846652	1.250981
O28	O	1.432605	-0.136619	0.797118
O29	O	1.765938	0.196714	1.130451
O30	O	2.099272	0.530047	1.463785
C31	C	1.445836	-0.000010	0.316152
C32	C	1.779170	0.333323	0.649485
C33	C	2.112503	0.666657	0.982818
C34	C	1.441630	-0.000002	0.151260
C35	C	1.774963	0.333331	0.484593
C36	C	2.108297	0.666665	0.817927
C37	C	1.217530	-0.000007	0.536015
C38	C	1.550863	0.333326	0.869348
C39	C	1.884196	0.666660	1.202681
C40	C	1.082389	-0.000006	0.497214
C41	C	1.415723	0.333328	0.830548
C42	C	1.749056	0.666661	1.163881
C43	C	1.009761	-0.000003	0.604348
C44	C	1.343094	0.333331	0.937682
C45	C	1.676428	0.666664	1.271015
C46	C	0.870086	-0.000001	0.564249
C47	C	1.203419	0.333332	0.897582
C48	C	1.536753	0.666665	1.230916
C49	C	1.662319	-0.000008	0.632598
C50	C	1.995652	0.333325	0.965932
C51	C	2.328986	0.666659	1.299265
C52	C	1.797460	0.000001	0.671399
C53	C	2.130793	0.333335	1.004732
C54	C	2.464126	0.666668	1.338065
N55	N	1.439927	0.425668	0.584314
N56	N	1.773261	0.759001	0.917648
N57	N	2.106594	1.092334	1.250981
N58	N	1.439931	-0.425686	0.584289
N59	N	1.773264	-0.092353	0.917623
N60	N	2.106598	0.240981	1.250956
C61	C	1.434012	-0.000005	0.852461
C62	C	1.767346	0.333328	1.185795
C63	C	2.100679	0.666662	1.519128
C64	C	1.438219	-0.000002	1.017353
C65	C	1.771552	0.333331	1.350686
C66	C	2.104885	0.666665	1.684020
H67	H	0.828866	0.000039	0.442833
H68	H	1.162199	0.333372	0.776167
H69	H	1.495532	0.666706	1.109500
H70	H	1.050987	-0.000010	0.725756
H71	H	1.384320	0.333323	1.059089
H72	H	1.717654	0.666656	1.392423
H73	H	0.838678	-0.000007	0.792815
H74	H	1.172011	0.333326	1.126148
H75	H	1.505345	0.666659	1.459481
H76	H	1.041163	0.000035	0.375807
H77	H	1.374497	0.333368	0.709140
H78	H	1.707830	0.666701	1.042474
