data_functionalizedCrystal
_audit_creation_method	'MofGen! by Chris Wilmer'
_symmetry_space_group_name_H-M	'P1'
_symmetry_Int_Tables_number	1
_symmetry_cell_setting	triclinic
loop_
_symmetry_equiv_pos_as_xyz
  x,y,z
_cell_length_a	19.077236
_cell_length_b	14.909042
_cell_length_c	19.076919
_cell_angle_alpha	90.890210
_cell_angle_beta	90.112677
_cell_angle_gamma	88.878557
loop_
_atom_site_label
_atom_site_type_symbol
_atom_site_fract_x
_atom_site_fract_y
_atom_site_fract_z
Zn1	Zn	1.073563	-0.325968	0.426503
Zn2	Zn	1.084945	-0.469875	0.302799
Zn3	Zn	0.960756	-0.325497	0.304304
Zn4	Zn	0.963326	-0.481855	0.415021
O5	O	1.020647	-0.400799	0.362157
O6	O	1.173181	-0.340241	0.414269
O7	O	1.072159	-0.445513	0.204892
O8	O	0.969882	-0.199898	0.325949
O9	O	1.181543	-0.445969	0.323384
O10	O	1.052760	-0.200244	0.415728
O11	O	0.980919	-0.339439	0.205998
O12	O	0.862989	-0.351055	0.314815
O13	O	0.974261	-0.466387	0.514651
O14	O	0.864877	-0.465931	0.396159
O15	O	1.055251	-0.351858	0.523087
O16	O	1.074651	-0.597126	0.312251
O17	O	0.985297	-0.605928	0.394700
C18	C	0.838495	-0.409742	0.354405
C19	C	0.760569	-0.413591	0.351104
C20	C	0.719608	-0.360447	0.396937
C21	C	0.646389	-0.364059	0.393829
C22	C	0.614132	-0.420819	0.344892
C23	C	0.655099	-0.473965	0.299055
C24	C	0.728316	-0.470349	0.302159
C25	C	0.395622	-0.437525	0.330523
C26	C	0.322398	-0.441139	0.327424
C27	C	0.313694	-0.331231	0.422198
C28	C	0.386913	-0.327623	0.425301
C29	C	0.427873	-0.380766	0.379461
N30	N	0.539291	-0.424514	0.341716
N31	N	0.502713	-0.377065	0.382634
C32	C	1.031506	-0.634110	0.352082
C33	C	1.036215	-0.733919	0.347798
C34	C	0.951936	-0.930702	0.425522
C35	C	0.956358	-1.024482	0.421499
C36	C	1.049477	-1.015262	0.335727
C37	C	1.045055	-0.921482	0.339750
C38	C	0.996284	-0.879205	0.384649
C39	C	0.991866	-0.785423	0.388675
C40	C	1.084980	-0.776205	0.302900
C41	C	1.089402	-0.869985	0.298877
C42	C	1.203512	-0.391821	0.369940
C43	C	1.281437	-0.387995	0.373257
C44	C	1.013773	-0.410511	0.545018
C45	C	1.010843	-0.414650	0.622942
C46	C	1.009765	-0.166577	0.372287
C47	C	1.005127	-0.066765	0.376604
C48	C	1.027533	-0.391058	0.180012
C49	C	1.030586	-0.386659	0.102105
C50	C	1.051633	-0.356968	0.663945
C51	C	1.048871	-0.360854	0.737163
C52	C	1.005324	-0.422427	0.769377
C53	C	0.964530	-0.480112	0.728370
C54	C	0.967288	-0.476221	0.655153
C55	C	0.992550	-0.440453	0.987880
C56	C	0.989797	-0.444342	1.061102
C57	C	1.074137	-0.325082	1.069890
C58	C	1.076895	-0.321200	0.996672
C59	C	1.036098	-0.378882	0.955671
N60	N	1.002502	-0.426402	0.844218
N61	N	1.038917	-0.374901	0.880832
H62	H	0.628830	-0.520177	0.259206
O63	O	0.772502	-0.527668	0.252727
H64	H	0.737772	-0.567751	0.218180
H65	H	1.087096	-0.306831	0.637721
H66	H	1.107351	-0.278120	1.103281
O67	O	1.102073	-1.060892	0.287313
H68	H	1.091325	-1.040621	0.232534
H69	H	0.952155	-0.751003	0.425237
H70	H	0.912229	-0.896280	0.462086
H71	H	0.613041	-0.320785	0.431153
O72	O	0.908530	-1.080030	0.465585
H73	H	0.873879	-1.034873	0.497484
H74	H	0.954334	-0.494484	1.087329
H75	H	0.413171	-0.281406	0.465153
O76	O	1.092873	-0.298644	0.781384
H77	H	1.058119	-0.256258	0.815376
O78	O	1.132821	-0.720660	0.258817
H79	H	1.123773	-0.736369	0.202499
H80	H	1.112357	-0.271063	0.970448
H81	H	0.959342	-0.487434	0.954506
H82	H	1.129108	-0.904419	0.262320
O83	O	0.917555	-0.546520	0.763110
H84	H	0.922493	-0.539541	0.820911
O85	O	0.439791	-0.494847	0.281085
H86	H	0.496124	-0.482794	0.291455
O87	O	0.923285	-0.538423	0.610924
H88	H	0.892541	-0.581893	0.645624
H89	H	0.280336	-0.287964	0.459518
O90	O	0.754399	-0.299220	0.449715
H91	H	0.713612	-0.262865	0.481057
H92	H	0.296138	-0.487365	0.287573
