data_functionalizedCrystal
_audit_creation_method	'MofGen! by Chris Wilmer'
_symmetry_space_group_name_H-M	'P1'
_symmetry_Int_Tables_number	1
_symmetry_cell_setting	triclinic
loop_
_symmetry_equiv_pos_as_xyz
  x,y,z
_cell_length_a	10.540539
_cell_length_b	19.188930
_cell_length_c	9.016244
_cell_angle_alpha	89.992636
_cell_angle_beta	89.994699
_cell_angle_gamma	83.835137
loop_
_atom_site_label
_atom_site_type_symbol
_atom_site_fract_x
_atom_site_fract_y
_atom_site_fract_z
O1	O	1.683725	0.098388	-0.123289
O2	O	1.314108	0.107659	-0.123309
O3	O	1.509583	0.001439	-0.123270
O4	O	1.488250	0.204608	-0.123329
O5	O	1.509554	0.001441	0.123411
O6	O	1.314079	0.107661	0.123372
O7	O	1.683697	0.098391	0.123392
Cu8	Cu	1.498885	0.103026	0.145905
Cu9	Cu	1.498919	0.103023	-0.145823
O10	O	1.488222	0.204611	0.123352
C11	C	1.266806	0.106965	0.000029
C12	C	1.125904	0.104885	0.000023
C13	C	1.508878	-0.024575	0.000075
C14	C	1.506804	-0.102094	0.000088
C15	C	0.944233	0.025184	0.000622
C16	C	1.090805	0.027292	0.000050
C17	C	1.063424	0.142224	-0.140849
C18	C	0.916938	0.139576	-0.140951
C19	C	0.916383	0.141157	0.139570
C20	C	1.063349	0.141872	0.141417
C21	C	1.621502	-0.146253	0.000101
C22	C	1.619554	-0.219090	0.000077
C23	C	1.502901	-0.247764	0.000070
C24	C	1.388187	-0.203595	0.000048
C25	C	1.390139	-0.130760	0.000057
N26	N	1.413724	-0.356363	0.084015
N27	N	1.411878	-0.425553	0.084010
C28	C	1.497014	-0.467212	0.000039
N29	N	1.584085	-0.437067	-0.083907
N30	N	1.585935	-0.367870	-0.083895
C31	C	1.500772	-0.326741	0.000059
C32	C	1.609608	-0.590350	0.000025
C33	C	1.607655	-0.663188	-0.000008
C34	C	1.376285	-0.647691	-0.000023
C35	C	1.378241	-0.574855	-0.000004
C36	C	1.494906	-0.546189	0.000026
C37	C	1.730998	0.099085	0.000050
C38	C	1.871901	0.101165	0.000047
C39	C	1.488927	0.230625	0.000004
C40	C	1.491000	0.308143	-0.000018
N41	N	1.498871	0.103028	0.351092
N42	N	1.498944	0.103016	-0.351009
C43	C	1.393992	0.159658	0.586103
C44	C	1.394216	0.159870	0.414212
C45	C	1.631229	0.119601	0.413432
C46	C	1.630654	0.120002	0.585376
C47	C	1.472714	0.029640	0.585655
C48	C	1.469658	0.030115	0.413700
H49	H	1.134054	-0.002088	0.101034
H50	H	1.084522	0.199206	-0.146107
C51	C	1.663283	0.191110	0.355237
N52	N	1.687417	0.244974	0.311413
C53	C	1.345169	0.008346	0.644296
N54	N	1.249095	-0.007685	0.688464
H55	H	1.295820	0.149898	0.372066
H56	H	0.916311	-0.005469	0.101650
C57	C	1.566273	-0.029563	0.355695
N58	N	1.639061	-0.074510	0.312019
H59	H	0.889348	0.111977	-0.246239
H60	H	1.133214	-0.002297	-0.101092
C61	C	1.739227	0.065391	0.358191
N62	N	1.820571	0.024560	0.316580
H63	H	1.281303	-0.671037	-0.000036
C64	C	1.733839	-0.711764	0.000014
N65	N	1.828884	-0.748352	0.000038
C66	C	1.094412	0.218293	0.152904
N67	N	1.117817	0.275855	0.161552
H68	H	0.867740	0.195380	-0.147361
H69	H	0.914710	-0.005341	-0.099826
H70	H	1.106597	0.116284	-0.245674
H71	H	1.372297	0.017553	0.372957
H72	H	1.711169	0.080409	0.626974
C73	C	1.416244	0.232787	0.644432
N74	N	1.433010	0.287868	0.688368
C75	C	0.874510	0.107230	0.283826
N76	N	0.842973	0.081668	0.392472
H77	H	1.104900	0.114594	0.245633
H78	H	0.867921	0.197202	0.140506
H79	H	1.410916	0.214309	0.373051
C80	C	1.252062	-0.526277	-0.000011
N81	N	1.157018	-0.489689	-0.000021
H82	H	1.716500	-0.122918	0.000121
H83	H	1.712958	-0.255051	0.000082
C84	C	1.259869	-0.235138	0.000051
N85	N	1.163215	-0.258896	0.000052
H86	H	1.704603	-0.567009	0.000043
C87	C	1.661937	0.192328	0.639519
N88	N	1.685490	0.246807	0.680292
C89	C	1.576110	-0.027316	0.640606
N90	N	1.653989	-0.070209	0.682005
H91	H	1.296735	-0.094804	0.000047
H92	H	1.295283	0.149839	0.627495
