data_functionalizedCrystal
_audit_creation_method	'MofGen! by Chris Wilmer'
_symmetry_space_group_name_H-M	'P1'
_symmetry_Int_Tables_number	1
_symmetry_cell_setting	triclinic
loop_
_symmetry_equiv_pos_as_xyz
  x,y,z
_cell_length_a	16.974800
_cell_length_b	14.519731
_cell_length_c	16.053802
_cell_angle_alpha	92.569546
_cell_angle_beta	91.074188
_cell_angle_gamma	83.539176
loop_
_atom_site_label
_atom_site_type_symbol
_atom_site_fract_x
_atom_site_fract_y
_atom_site_fract_z
O1	O	1.049251	0.117558	0.001491
O2	O	0.819810	0.131675	-0.014019
O3	O	0.940605	-0.009617	-0.005846
O4	O	0.928456	0.258850	-0.006682
O5	O	0.933956	-0.001872	0.132563
O6	O	0.813161	0.139420	0.124390
O7	O	1.042602	0.125303	0.139900
Zn8	Zn	0.926826	0.133591	0.154120
Zn9	Zn	0.935586	0.123387	-0.028240
O10	O	0.921807	0.266595	0.131727
C11	C	0.787121	0.134869	0.053200
C12	C	0.699626	0.132835	0.047286
C13	C	0.654901	0.136099	0.119956
C14	C	0.572691	0.134174	0.114401
C15	C	0.535207	0.128991	0.036175
C16	C	0.579938	0.125724	-0.036501
C17	C	0.662147	0.127643	-0.030945
C18	C	0.289727	0.122793	0.011468
C19	C	0.207512	0.120878	0.005918
C20	C	0.200270	0.129326	0.156820
C21	C	0.282480	0.131250	0.162369
C22	C	0.327205	0.127978	0.089693
N23	N	0.451175	0.127026	0.030495
N24	N	0.411236	0.129937	0.095374
C25	C	0.936711	-0.040105	0.063320
C26	C	0.935005	-0.142486	0.063206
C27	C	0.933619	-0.225631	0.063110
C28	C	0.931887	-0.329941	0.062986
C29	C	0.930513	-0.413081	0.062888
C30	C	0.928781	-0.517397	0.062766
C31	C	1.075290	0.122109	0.072679
C32	C	1.162786	0.124142	0.078588
C33	C	0.925701	0.297082	0.062559
C34	C	0.927407	0.399463	0.062668
N35	N	0.920853	0.140555	0.278576
N36	N	0.941565	0.116416	-0.152695
C37	C	0.972270	0.080456	0.325750
C38	C	0.968099	0.085336	0.412874
C39	C	0.912515	0.150320	0.452824
C40	C	0.861092	0.210421	0.405645
C41	C	0.865260	0.205536	0.318522
C42	C	0.894310	0.171632	0.713002
C43	C	0.890148	0.176514	0.800132
C44	C	0.997155	0.051428	0.807355
C45	C	1.001320	0.046552	0.720230
C46	C	0.949895	0.106650	0.673058
N47	N	0.908252	0.155311	0.541880
N48	N	0.954155	0.101653	0.584004
H49	H	0.326133	0.120126	-0.047709
H50	H	1.039022	0.002498	0.845770
O51	O	1.018137	0.026925	0.458574
C52	C	1.068085	-0.031485	0.404631
H53	H	1.071989	0.002846	0.342582
H54	H	1.129802	-0.043928	0.434040
H55	H	1.042854	-0.100603	0.393651
H56	H	0.815830	0.263329	0.438177
H57	H	0.852439	0.220568	0.674601
H58	H	0.685413	0.140328	0.183655
O59	O	0.815280	0.264014	0.272822
C60	C	0.765312	0.322404	0.326762
H61	H	0.794655	0.327031	0.391042
H62	H	0.754597	0.394604	0.300773
H63	H	0.706281	0.292794	0.332088
H64	H	0.844882	0.229436	0.832655
H65	H	0.698562	0.124986	-0.090121
O66	O	0.543399	0.120730	-0.112424
C67	C	0.461251	0.119716	-0.101747
H68	H	0.443687	0.152254	-0.037883
H69	H	0.427382	0.161023	-0.152381
H70	H	0.446255	0.045053	-0.106343
H71	H	0.536280	0.136817	0.173576
O72	O	1.026145	0.017251	0.286864
C73	C	0.986236	-0.042611	0.233671
H74	H	0.925261	-0.006772	0.216443
H75	H	1.022041	-0.060593	0.174631
H76	H	0.979137	-0.108873	0.266923
O77	O	1.055336	-0.016658	0.681556
C78	C	1.099839	-0.068643	0.741877
H79	H	1.064556	-0.066306	0.801805
H80	H	1.112961	-0.143666	0.717517
H81	H	1.157984	-0.037995	0.755083
H82	H	0.163846	0.131989	0.215988
H83	H	0.176995	0.116660	-0.057786
O84	O	0.318769	0.136245	0.238424
C85	C	0.261661	0.138739	0.301376
H86	H	0.207344	0.106959	0.275520
H87	H	0.287822	0.097519	0.356089
H88	H	0.243638	0.213753	0.323423
