data_functionalizedCrystal
_audit_creation_method	'MofGen! by Chris Wilmer'
_symmetry_space_group_name_H-M	'P1'
_symmetry_Int_Tables_number	1
_symmetry_cell_setting	triclinic
loop_
_symmetry_equiv_pos_as_xyz
  x,y,z
_cell_length_a	19.288864
_cell_length_b	13.339070
_cell_length_c	17.766277
_cell_angle_alpha	89.997794
_cell_angle_beta	89.976791
_cell_angle_gamma	99.382770
loop_
_atom_site_label
_atom_site_type_symbol
_atom_site_fract_x
_atom_site_fract_y
_atom_site_fract_z
O1	O	0.945924	0.126087	-0.062840
O2	O	0.746977	0.143096	-0.062789
O3	O	0.823618	-0.012568	-0.062806
O4	O	0.869283	0.281751	-0.062822
O5	O	0.823598	-0.012576	0.062383
O6	O	0.746957	0.143088	0.062400
O7	O	0.945903	0.126079	0.062349
Cu8	Cu	0.846428	0.134583	0.073805
Cu9	Cu	0.846452	0.134592	-0.074245
O10	O	0.869263	0.281743	0.062366
C11	C	0.720984	0.142544	-0.000188
C12	C	0.643560	0.140901	-0.000168
C13	C	0.616663	0.232238	-0.000185
C14	C	0.543915	0.230694	-0.000193
C15	C	0.498067	0.137809	-0.000200
C16	C	0.524972	0.046461	-0.000178
C17	C	0.597719	0.048007	-0.000163
C18	C	0.375583	0.064794	-0.044080
C19	C	0.302838	0.063252	-0.044100
C20	C	0.273691	0.133037	-0.000245
C21	C	0.317301	0.204382	0.043621
C22	C	0.390047	0.205928	0.043637
C23	C	0.419184	0.136123	-0.000216
C24	C	0.167913	0.222706	-0.000270
C25	C	0.095163	0.221159	-0.000273
C26	C	0.076222	0.036923	-0.000266
C27	C	0.148970	0.038473	-0.000255
C28	C	0.194812	0.131367	-0.000260
C29	C	0.815894	-0.050226	-0.000211
C30	C	0.792901	-0.162423	-0.000208
C31	C	0.971681	-0.528031	-0.000253
C32	C	0.993286	-0.422617	-0.000252
C33	C	0.943192	-0.357563	-0.000241
C34	C	0.871489	-0.397934	-0.000231
C35	C	0.849881	-0.503359	-0.000227
C36	C	0.821392	-0.332891	-0.000215
C37	C	0.749689	-0.373262	-0.000205
C38	C	0.728085	-0.478677	-0.000201
C39	C	0.778180	-0.543730	-0.000212
C40	C	0.842999	-0.227467	-0.000219
C41	C	0.721199	-0.202795	-0.000193
C42	C	0.699594	-0.308209	-0.000195
C43	C	0.971897	0.126630	-0.000254
C44	C	1.049320	0.128273	-0.000278
C45	C	0.876987	0.319401	-0.000231
C46	C	0.899980	0.431598	-0.000238
N47	N	0.846416	0.134575	0.177935
N48	N	0.846468	0.134591	-0.178375
C49	C	0.880375	0.065681	0.217315
C50	C	0.880378	0.065676	0.296116
C51	C	0.846433	0.134583	0.335536
C52	C	0.812467	0.203483	0.296147
C53	C	0.812459	0.203479	0.217347
C54	C	0.855080	0.226676	0.460370
C55	C	0.855093	0.226682	0.539169
C56	C	0.846454	0.134595	0.578582
C57	C	0.837815	0.042500	0.539187
C58	C	0.837807	0.042496	0.460387
C59	C	0.846437	0.134595	0.420982
C60	C	0.880417	0.065690	0.703408
C61	C	0.880415	0.065684	0.782211
C62	C	0.812509	0.203500	0.782240
C63	C	0.812506	0.203497	0.703438
C64	C	0.846463	0.134593	0.664027
H65	H	0.522011	0.305074	-0.000205
O66	O	0.658426	-0.517844	-0.000319
C67	C	0.626667	-0.484551	-0.065139
H68	H	0.668247	-0.462787	-0.110465
H69	H	0.601234	-0.415667	-0.050475
C70	C	0.519092	-0.597363	-0.038854
C71	C	0.570161	-0.570641	-0.094527
H72	H	0.484235	-0.650464	-0.056981
H73	H	0.540487	-0.619791	0.004818
H74	H	0.497906	-0.539952	-0.026639
H75	H	0.591352	-0.628047	-0.106735
H76	H	0.548768	-0.548224	-0.138202
H77	H	0.908065	0.009582	0.671317
O78	O	0.629936	-0.347384	-0.000315
C79	C	0.598176	-0.314093	-0.065134
H80	H	0.639757	-0.292320	-0.110459
H81	H	0.572737	-0.245216	-0.050469
C82	C	0.490608	-0.426924	-0.038856
C83	C	0.541678	-0.400190	-0.094527
H84	H	0.455755	-0.480029	-0.056985
H85	H	0.512004	-0.449350	0.004816
H86	H	0.469416	-0.369518	-0.026640
H87	H	0.562874	-0.457591	-0.106735
H88	H	0.520284	-0.377775	-0.138202
O89	O	0.913350	-0.001381	0.820382
C90	C	0.882784	-0.101400	0.801158
H91	H	0.856049	-0.101181	0.743959
H92	H	0.842220	-0.132537	0.845531
C93	C	0.973143	-0.169158	0.867740
C94	C	0.940312	-0.168890	0.797484
H95	H	1.008627	-0.210791	0.865477
H96	H	0.993734	-0.101774	0.880695
H97	H	0.939332	-0.195103	0.904710
H98	H	0.974120	-0.142934	0.760518
H99	H	0.919727	-0.236271	0.784523
H100	H	0.680408	-0.149828	-0.000180
H101	H	0.425551	0.264016	0.079357
H102	H	0.619617	-0.026373	-0.000149
H103	H	0.038893	-0.038706	-0.000318
O104	O	0.260578	-0.006146	-0.086726
C105	C	0.301900	-0.067403	-0.125435
H106	H	0.353752	-0.066174	-0.094408
H107	H	0.312798	-0.036835	-0.184934
C108	C	0.198590	-0.178780	-0.167367
C109	C	0.262273	-0.177278	-0.129255
H110	H	0.174146	-0.246556	-0.169727
H111	H	0.170750	-0.137508	-0.141291
H112	H	0.207680	-0.153302	-0.216946
H113	H	0.253182	-0.202744	-0.079675
H114	H	0.290112	-0.218557	-0.155323
H115	H	0.830771	-0.032491	0.428314
H116	H	0.908023	0.009573	0.185228
O117	O	1.062961	-0.383571	-0.000294
C118	C	1.102543	-0.463590	-0.000284
H119	H	1.069295	-0.535115	-0.023982
H120	H	1.118954	-0.478605	0.059773
C121	C	1.209360	-0.346247	-0.020280
C122	C	1.168526	-0.434093	-0.049392
H123	H	1.250063	-0.328051	-0.050569
H124	H	1.182693	-0.292336	-0.020284
H125	H	1.223028	-0.358771	0.029767
H126	H	1.154851	-0.421564	-0.099434
H127	H	1.195192	-0.488001	-0.049398
H128	H	0.960787	-0.271731	-0.000240
H129	H	1.012460	-0.581006	-0.000256
H130	H	0.862104	0.301669	0.428287
O131	O	0.403985	-0.002859	-0.086731
C132	C	0.451432	0.050077	-0.139026
H133	H	0.470542	0.130328	-0.117498
H134	H	0.423899	0.054054	-0.195459
C135	C	0.491166	-0.104444	-0.175441
C136	C	0.514642	-0.005881	-0.148996
H137	H	0.530156	-0.138963	-0.181594
H138	H	0.459199	-0.140109	-0.140211
H139	H	0.468222	-0.101116	-0.222466
H140	H	0.537578	-0.009211	-0.101968
H141	H	0.546615	0.029782	-0.184219
H142	H	0.170869	-0.035904	-0.000245
H143	H	0.487638	-0.029167	-0.000194
H144	H	0.784827	0.259587	0.328247
O145	O	0.779434	0.270294	0.665145
C146	C	0.726193	0.216326	0.619578
H147	H	0.709658	0.136621	0.643337
H148	H	0.746892	0.210943	0.559847
C149	C	0.682720	0.370210	0.589212
C150	C	0.662407	0.272318	0.618397
H151	H	0.643375	0.404750	0.588480
H152	H	0.718591	0.406571	0.619909
H153	H	0.699970	0.365710	0.539439
H154	H	0.645167	0.276819	0.668172
H155	H	0.626532	0.235960	0.587708
H156	H	0.784866	0.259601	0.814335
O157	O	0.913422	-0.001293	0.334264
C158	C	0.943371	-0.062132	0.282580
H159	H	0.952139	-0.020700	0.226402
H160	H	0.906366	-0.137134	0.274222
C161	C	1.003461	-0.134131	0.382302
C162	C	1.014235	-0.083239	0.313305
H163	H	1.047171	-0.147156	0.401255
H164	H	0.983282	-0.093146	0.417123
H165	H	0.972621	-0.196627	0.375328
H166	H	1.045067	-0.020740	0.320282
H167	H	1.034421	-0.124215	0.278485
H168	H	0.901380	-0.194607	-0.000227
O169	O	0.863464	0.316227	0.577318
C170	C	0.871095	0.397504	0.525636
H171	H	0.846633	0.369615	0.469480
H172	H	0.929300	0.428073	0.517219
C173	C	0.863892	0.516922	0.625380
C174	C	0.833843	0.482670	0.556411
H175	H	0.840917	0.569459	0.644364
H176	H	0.858754	0.462165	0.660200
H177	H	0.912395	0.542389	0.618357
H178	H	0.785343	0.457192	0.563437
H179	H	0.838972	0.537424	0.521593
H180	H	0.830779	-0.032485	0.571275
O181	O	0.779467	0.270508	0.179207
C182	C	0.749487	0.331309	0.230893
H183	H	0.778164	0.332347	0.287051
H184	H	0.691605	0.298680	0.239302
C185	C	0.720967	0.439123	0.131157
C186	C	0.756193	0.440405	0.200130
H187	H	0.725100	0.506418	0.112181
H188	H	0.741162	0.398159	0.096335
H189	H	0.672735	0.411928	0.138175
H190	H	0.804425	0.467589	0.193110
H191	H	0.736005	0.481377	0.234951
H192	H	0.653984	0.307880	-0.000191
H193	H	0.205239	0.298346	-0.000263
O194	O	0.289116	0.272276	0.086247
C195	C	0.343202	0.335554	0.124981
H196	H	0.395061	0.336538	0.093972
H197	H	0.347783	0.305302	0.184479
C198	C	0.262347	0.443005	0.166892
C199	C	0.326040	0.444220	0.128803
H200	H	0.251760	0.510035	0.169254
H201	H	0.225907	0.400372	0.140799
H202	H	0.266172	0.417791	0.216470
H203	H	0.322211	0.469422	0.079223
H204	H	0.362479	0.486861	0.154888
H205	H	0.073266	0.295539	-0.000282
H206	H	0.760592	-0.629568	-0.000216
