data_functionalizedCrystal
_audit_creation_method	'MofGen! by Chris Wilmer'
_symmetry_space_group_name_H-M	'P1'
_symmetry_Int_Tables_number	1
_symmetry_cell_setting	triclinic
loop_
_symmetry_equiv_pos_as_xyz
  x,y,z
_cell_length_a	16.625546
_cell_length_b	16.625547
_cell_length_c	10.686551
_cell_angle_alpha	85.596409
_cell_angle_beta	94.409858
_cell_angle_gamma	89.978346
loop_
_atom_site_label
_atom_site_type_symbol
_atom_site_fract_x
_atom_site_fract_y
_atom_site_fract_z
Zn1	Zn	-0.285972	-1.267702	0.713705
Zn2	Zn	-0.431177	-1.257250	0.502682
Zn3	Zn	-0.296360	-1.122509	0.502686
Zn4	Zn	-0.420770	-1.132830	0.713606
O5	O	-0.358570	-1.195073	0.608170
O6	O	-0.305242	-1.379150	0.685752
O7	O	-0.421997	-1.230684	0.326098
O8	O	-0.182148	-1.141824	0.530722
O9	O	-0.411924	-1.371471	0.530714
O10	O	-0.174516	-1.248497	0.685756
O11	O	-0.322947	-1.131690	0.326101
O12	O	-0.312855	-1.011044	0.530626
O13	O	-0.394185	-1.159414	0.890203
O14	O	-0.404258	-1.018626	0.685588
O15	O	-0.295150	-1.258504	0.890276
O16	O	-0.542631	-1.240691	0.530618
O17	O	-0.534985	-1.149279	0.685583
C18	C	-0.358555	-0.985579	0.608097
C19	C	-0.358567	-0.895957	0.608096
C20	C	-0.358567	-0.823175	0.608107
C21	C	-0.358569	-0.731868	0.608133
C22	C	-0.358574	-0.659093	0.608161
C23	C	-0.358577	-0.567780	0.608186
C24	C	-0.568063	-1.194994	0.608117
C25	C	-0.657684	-1.195036	0.608137
C26	C	-0.985853	-1.195183	0.608268
C27	C	-0.894546	-1.195140	0.608235
C28	C	-0.821771	-1.195109	0.608202
C29	C	-0.730458	-1.195067	0.608170
C30	C	-0.148257	-1.195175	0.608250
C31	C	-0.058634	-1.195219	0.608285
C32	C	-0.342348	-1.211276	0.937306
C33	C	-0.335436	-1.218181	1.077565
C34	C	-0.358583	-0.405385	0.608228
C35	C	-0.358582	-0.495005	0.608213
C36	C	-0.374670	-1.178979	0.280314
C37	C	-0.381356	-1.172230	0.140056
H38	H	-0.425961	-1.127610	1.086256
H39	H	-0.290833	-1.262810	1.131372
