data_functionalizedCrystal
_audit_creation_method	'MofGen! by Chris Wilmer'
_symmetry_space_group_name_H-M	'P1'
_symmetry_Int_Tables_number	1
_symmetry_cell_setting	triclinic
loop_
_symmetry_equiv_pos_as_xyz
  x,y,z
_cell_length_a	13.635800
_cell_length_b	7.076093
_cell_length_c	11.102289
_cell_angle_alpha	105.721273
_cell_angle_beta	71.394293
_cell_angle_gamma	117.701465
loop_
_atom_site_label
_atom_site_type_symbol
_atom_site_fract_x
_atom_site_fract_y
_atom_site_fract_z
V1	V	-1.791880	0.665000	0.173812
O2	O	-1.776419	0.652342	-0.010438
O3	O	-1.782073	0.660452	0.346646
O4	O	-1.665181	0.955030	0.170223
O5	O	-1.894121	0.355724	0.167206
V6	V	-2.045110	0.628008	0.151882
O7	O	-1.897351	0.746145	0.221918
O8	O	-2.164738	0.546864	0.103776
O9	O	-1.943313	0.632557	-0.020952
O10	O	-2.119269	0.640667	0.336132
O11	O	-2.001567	0.937285	0.158488
O12	O	-2.060206	0.337979	0.155471
V13	V	-1.291880	0.665000	0.173812
O14	O	-1.276419	0.652342	-0.010438
O15	O	-1.282073	0.660452	0.346646
O16	O	-1.165181	0.955030	0.170223
O17	O	-1.394121	0.355724	0.167206
V18	V	-1.545110	0.628008	0.151882
O19	O	-1.397351	0.746145	0.221918
O20	O	-1.664738	0.546864	0.103776
O21	O	-1.443313	0.632557	-0.020952
O22	O	-1.619269	0.640667	0.336132
O23	O	-1.501567	0.937285	0.158488
O24	O	-1.560206	0.337979	0.155471
C25	C	-1.711391	0.649961	0.388808
C26	C	-1.743334	0.648175	0.530096
C27	C	-1.562290	1.025722	0.163757
C28	C	-1.498255	1.267279	0.161931
C29	C	-1.994770	0.267275	0.161934
C30	C	-2.048231	0.025717	0.163757
C31	C	-1.845669	0.643042	-0.063108
C32	C	-1.803341	0.644841	-0.204394
C33	C	-1.211391	0.649961	0.388808
C34	C	-1.243334	0.648175	0.530096
C35	C	-1.345669	0.643042	-0.063108
C36	C	-1.303341	0.644841	-0.204394
C37	C	-1.846122	0.657976	0.602915
C38	C	-1.876124	0.656317	0.735671
C39	C	-1.700542	0.635047	0.722778
C40	C	-1.670538	0.636721	0.590025
C41	C	-1.947495	0.670247	0.610359
C42	C	-1.977498	0.668588	0.743115
C43	C	-1.346122	0.657976	0.602915
C44	C	-1.376124	0.656317	0.735671
C45	C	-1.200542	0.635047	0.722778
C46	C	-1.170538	0.636721	0.590025
C47	C	-1.447495	0.670247	0.610359
C48	C	-1.477498	0.668588	0.743115
H49	H	-1.641278	0.625723	0.771589
H50	H	-1.560966	0.522894	0.768528
C51	C	-1.439886	0.879801	0.583739
C52	C	-1.464060	1.047055	0.696409
C53	C	-1.456449	1.256603	0.669789
C54	C	-1.424663	1.298897	0.530499
C55	C	-1.400487	1.131639	0.417820
C56	C	-1.408098	0.922090	0.444440
H57	H	-1.487591	1.015750	0.799528
H58	H	-1.474346	1.380419	0.753202
H59	H	-1.419029	1.454018	0.510793
H60	H	-1.376956	1.162943	0.314701
H61	H	-1.390201	0.798275	0.361027
C62	C	-1.481848	0.882029	0.820642
C63	C	-1.374531	1.095179	0.806152
C64	C	-1.378884	1.308614	0.883675
C65	C	-1.490554	1.308900	0.975689
C66	C	-1.597879	1.095743	0.990183
C67	C	-1.593526	0.882307	0.912659
H68	H	-1.291858	1.094974	0.738034
H69	H	-1.299434	1.466407	0.872945
H70	H	-1.493777	1.466898	1.033076
H71	H	-1.680552	1.095947	1.058300
H72	H	-1.672976	0.724514	0.923389
C73	C	-1.939885	0.879802	0.583740
C74	C	-1.827079	1.037600	0.510478
C75	C	-1.819467	1.247150	0.483859
C76	C	-1.924660	1.298902	0.530502
C77	C	-2.037475	1.141100	0.603768
C78	C	-2.045087	0.931550	0.630388
H79	H	-1.749201	0.999294	0.475946
H80	H	-1.735953	1.363965	0.429622
H81	H	-1.919025	1.454023	0.510796
H82	H	-2.115353	1.179406	0.638300
H83	H	-2.128600	0.814735	0.684625
H84	H	-1.586834	0.628765	0.530743
H85	H	-2.007204	0.519865	0.557590
H86	H	-1.086834	0.628765	0.530743
C87	C	-1.981848	0.882029	0.820642
C88	C	-1.874531	1.095179	0.806152
C89	C	-1.878884	1.308614	0.883675
C90	C	-1.990554	1.308900	0.975689
C91	C	-2.097879	1.095743	0.990183
C92	C	-2.093526	0.882307	0.912659
H93	H	-1.791858	1.094974	0.738034
H94	H	-1.799434	1.466407	0.872945
H95	H	-1.993777	1.466898	1.033076
H96	H	-2.180552	1.095947	1.058300
H97	H	-2.172976	0.724514	0.923389
H98	H	-2.060966	0.522894	0.768528
H99	H	-1.141278	0.625723	0.771589
H100	H	-1.507204	0.519865	0.557590
