data_functionalizedCrystal
_audit_creation_method	'MofGen! by Chris Wilmer'
_symmetry_space_group_name_H-M	'P1'
_symmetry_Int_Tables_number	1
_symmetry_cell_setting	triclinic
loop_
_symmetry_equiv_pos_as_xyz
  x,y,z
_cell_length_a	10.489741
_cell_length_b	15.944551
_cell_length_c	8.965430
_cell_angle_alpha	89.999468
_cell_angle_beta	89.998843
_cell_angle_gamma	84.018956
loop_
_atom_site_label
_atom_site_type_symbol
_atom_site_fract_x
_atom_site_fract_y
_atom_site_fract_z
O1	O	1.692411	0.118500	-0.123951
O2	O	1.321061	0.129624	-0.123974
O3	O	1.516876	0.001848	-0.123948
O4	O	1.496595	0.246276	-0.123977
O5	O	1.516860	0.001857	0.124130
O6	O	1.321044	0.129633	0.124105
O7	O	1.692394	0.118509	0.124128
Cu8	Cu	1.506718	0.124071	0.146768
Cu9	Cu	1.506737	0.124061	-0.146614
O10	O	1.496578	0.246285	0.124102
C11	C	1.273532	0.128788	0.000062
C12	C	1.131938	0.126275	0.000054
C13	C	1.064925	0.044975	0.000077
C14	C	0.972274	0.083376	-0.122240
C15	C	0.972291	0.083403	0.122346
C16	C	1.041152	0.164709	-0.122364
C17	C	1.041179	0.164726	0.122332
C18	C	0.948554	0.203186	-0.000015
C19	C	1.516026	-0.029446	0.000091
C20	C	1.513502	-0.122708	0.000092
C21	C	1.386093	-0.338330	0.000063
C22	C	1.445249	-0.398988	0.122385
C23	C	1.508935	-0.293461	0.000080
C24	C	1.445294	-0.398979	-0.122201
C25	C	1.504515	-0.458400	0.000062
C26	C	1.568126	-0.352890	0.122503
C27	C	1.568154	-0.352875	-0.122193
C28	C	1.627399	-0.413515	0.000158
C29	C	1.511478	-0.198443	0.000092
C30	C	1.501982	-0.553417	0.000061
C31	C	1.739922	0.119345	0.000088
C32	C	1.881517	0.121858	0.000087
C33	C	1.497429	0.277579	0.000059
C34	C	1.499953	0.370841	0.000049
N35	N	1.506713	0.124078	0.353117
N36	N	1.506752	0.124048	-0.352963
C37	C	1.416127	0.183150	0.450411
C38	C	1.531388	0.200146	0.549830
C39	C	1.391501	0.107089	0.549826
C40	C	1.622032	0.141112	0.450347
C41	C	1.482069	0.048022	0.450334
C42	C	1.597413	0.064986	0.549708
H43	H	1.115541	-0.021859	-0.000068
O44	O	1.457358	-0.028700	0.398068
C45	C	1.561821	-0.063794	0.311534
H46	H	1.651963	-0.034363	0.345508
H47	H	1.541041	-0.050577	0.188469
C48	C	1.471519	-0.195885	0.295630
C49	C	1.582236	-0.159742	0.337366
H50	H	1.484110	-0.255071	0.311557
H51	H	1.401138	-0.172241	0.353924
H52	H	1.454214	-0.184863	0.193078
H53	H	1.599530	-0.170755	0.439920
H54	H	1.652621	-0.183390	0.279089
H55	H	1.552259	0.264453	0.593533
H56	H	1.071741	0.199101	0.225741
H57	H	1.620073	-0.332436	-0.225606
H58	H	1.393328	-0.419372	-0.225622
H59	H	1.719502	0.155545	0.406834
O60	O	1.275142	0.090055	0.601774
C61	C	1.179920	0.152521	0.551209
H62	H	1.215128	0.183513	0.446517
H63	H	1.158883	0.202211	0.641803
C64	C	1.013523	0.073703	0.643600
C65	C	1.056761	0.111763	0.515008
H66	H	0.937550	0.048564	0.621275
H67	H	1.077675	0.031620	0.677672
H68	H	0.996001	0.115119	0.719083
H69	H	1.074297	0.070346	0.439534
H70	H	0.992609	0.153839	0.480922
O71	O	1.264432	-0.299358	0.000456
C72	C	1.200120	-0.322738	0.129643
H73	H	1.273334	-0.344285	0.219340
H74	H	1.140513	-0.376487	0.101732
C75	C	1.021565	-0.220099	0.077135
C76	C	1.111487	-0.246558	0.187305
H77	H	0.966888	-0.173110	0.112701
H78	H	1.064890	-0.204349	-0.009905
H79	H	0.971906	-0.264897	0.053885
H80	H	1.161155	-0.201764	0.210540
H81	H	1.068168	-0.262299	0.274350
O82	O	1.324959	0.242908	0.398449
C83	C	1.351442	0.322979	0.449180
H84	H	1.457715	0.321251	0.477055
H85	H	1.292170	0.340609	0.553250
C86	C	1.186352	0.391087	0.292120
C87	C	1.316881	0.388966	0.326345
H88	H	1.165028	0.431792	0.216354
H89	H	1.168506	0.337141	0.257945
H90	H	1.136975	0.405775	0.378855
H91	H	1.366256	0.374267	0.239615
H92	H	1.334735	0.442910	0.360503
H93	H	1.620032	-0.332584	0.226030
O94	O	1.688844	0.005269	0.601226
C95	C	1.663656	-0.074630	0.548317
H96	H	1.602601	-0.066626	0.443084
H97	H	1.610008	-0.107956	0.637434
C98	C	1.866074	-0.137531	0.641540
C99	C	1.791095	-0.127701	0.512284
H100	H	1.944684	-0.170270	0.619319
H101	H	1.883043	-0.083703	0.677192
H102	H	1.821353	-0.165300	0.715792
H103	H	1.835809	-0.099923	0.438042
H104	H	1.774136	-0.181526	0.476619
O105	O	0.935763	0.042476	-0.245717
C106	C	0.850852	0.097629	-0.330990
H107	H	0.866360	0.165649	-0.303652
H108	H	0.747832	0.086495	-0.303573
C109	C	0.857266	-0.002513	-0.531683
C110	C	0.876321	0.081030	-0.498114
H111	H	0.872971	-0.012754	-0.634773
H112	H	0.914468	-0.039672	-0.474232
H113	H	0.771416	-0.011781	-0.508825
H114	H	0.962173	0.090294	-0.520955
H115	H	0.819133	0.118191	-0.555574
H116	H	1.071510	0.199079	-0.225891
H117	H	0.898203	0.270090	-0.000090
H118	H	0.941783	0.048992	0.225756
O119	O	1.383469	-0.423411	0.245854
C120	C	1.467990	-0.478824	0.331126
H121	H	1.571138	-0.467985	0.303803
H122	H	1.452033	-0.546761	0.303690
C123	C	1.315845	-0.475538	0.531800
C124	C	1.442533	-0.462220	0.498250
H125	H	1.300140	-0.465300	0.634890
H126	H	1.258899	-0.438208	0.474350
H127	H	1.302563	-0.532153	0.508926
H128	H	1.455809	-0.405604	0.521106
H129	H	1.499481	-0.499541	0.555709
O130	O	1.749166	-0.452311	0.000505
C131	C	1.813437	-0.428789	0.129622
H132	H	1.740205	-0.407321	0.219347
H133	H	1.872829	-0.374946	0.101610
C134	C	1.992285	-0.531197	0.077095
C135	C	1.902340	-0.504836	0.187302
H136	H	2.047130	-0.578104	0.112673
H137	H	1.948988	-0.547042	-0.009896
H138	H	2.041765	-0.486320	0.053762
H139	H	1.852852	-0.549708	0.210619
H140	H	1.945632	-0.489000	0.274299
