data_functionalizedCrystal
_audit_creation_method	'MofGen! by Chris Wilmer'
_symmetry_space_group_name_H-M	'P1'
_symmetry_Int_Tables_number	1
_symmetry_cell_setting	triclinic
loop_
_symmetry_equiv_pos_as_xyz
  x,y,z
_cell_length_a	10.723024
_cell_length_b	14.519731
_cell_length_c	9.198806
_cell_angle_alpha	89.995832
_cell_angle_beta	89.996352
_cell_angle_gamma	84.078361
loop_
_atom_site_label
_atom_site_type_symbol
_atom_site_fract_x
_atom_site_fract_y
_atom_site_fract_z
O1	O	1.655992	0.129346	-0.120887
O2	O	2.155992	0.629346	0.379113
O3	O	1.292725	0.141727	-0.120892
O4	O	1.792725	0.641727	0.379108
O5	O	1.483976	0.001349	-0.120876
O6	O	1.983976	0.501349	0.379124
O7	O	1.464740	0.269725	-0.120903
O8	O	1.964740	0.769725	0.379097
O9	O	1.483961	0.001348	0.120909
O10	O	1.983961	0.501348	0.620909
O11	O	1.292710	0.141727	0.120893
O12	O	1.792710	0.641727	0.620893
O13	O	1.655976	0.129346	0.120898
O14	O	2.155976	0.629346	0.620898
Cu15	Cu	1.474342	0.135536	0.142973
Cu16	Cu	1.974342	0.635536	0.642973
Cu17	Cu	1.474360	0.135537	-0.142966
Cu18	Cu	1.974360	0.635537	0.357034
O19	O	1.464725	0.269724	0.120882
O20	O	1.964725	0.769724	0.620882
C21	C	1.246226	0.140826	0.000000
C22	C	1.746226	0.640826	0.500000
C23	C	1.107697	0.138130	-0.000002
C24	C	1.607697	0.638130	0.499998
C25	C	0.916714	0.054394	0.000004
C26	C	1.416714	0.554394	0.500004
C27	C	1.059891	0.057179	0.000006
C28	C	1.559891	0.557179	0.500006
C29	C	1.483067	-0.033016	0.000017
C30	C	1.983067	0.466984	0.500017
C31	C	1.480366	-0.135410	0.000018
C32	C	1.980366	0.364590	0.500018
C33	C	1.478172	-0.218565	0.000014
C34	C	1.978172	0.281435	0.500014
C35	C	1.475429	-0.322888	0.000003
C36	C	1.975429	0.177112	0.500003
C37	C	1.473253	-0.406038	-0.000006
C38	C	1.973253	0.093962	0.499994
C39	C	1.470511	-0.510367	-0.000015
C40	C	1.970511	-0.010367	0.499985
C41	C	1.702475	0.130247	0.000003
C42	C	2.202475	0.630247	0.500003
C43	C	1.841005	0.132943	-0.000005
C44	C	2.341005	0.632943	0.499995
C45	C	1.465634	0.304089	-0.000014
C46	C	1.965634	0.804089	0.499986
C47	C	1.468335	0.406483	-0.000024
C48	C	1.968335	0.906483	0.499976
N49	N	1.474338	0.135535	0.344087
N50	N	1.974338	0.635535	0.844087
N51	N	1.474373	0.135530	-0.344080
N52	N	1.974373	0.635530	0.155920
C53	C	1.554641	0.076335	0.416290
C54	C	2.054641	0.576335	0.916290
C55	C	1.554661	0.076331	0.583703
C56	C	2.054661	0.576331	1.083703
H57	H	0.882186	0.202252	-0.000003
H58	H	1.382186	0.702252	0.499997
H59	H	1.124946	-0.010065	0.000004
H60	H	1.624946	0.489935	0.500004
H61	H	1.405597	0.186214	0.406209
H62	H	1.905597	0.686214	0.906209
Cl63	Cl	0.853145	-0.052620	0.000024
Cl64	Cl	1.353145	0.447380	0.500024
Cl65	Cl	1.368224	0.213794	0.560070
Cl66	Cl	1.868224	0.713794	1.060070
Cl67	Cl	1.660488	-0.002126	0.320389
Cl68	Cl	2.160488	0.497874	0.820389
H69	H	1.623416	0.025650	0.645795
H70	H	2.123416	0.525650	1.145795
Cl71	Cl	1.007271	0.241959	-0.000024
Cl72	Cl	1.507271	0.741959	0.499976
