data_functionalizedCrystal
_audit_creation_method	'MofGen! by Chris Wilmer'
_symmetry_space_group_name_H-M	'P1'
_symmetry_Int_Tables_number	1
_symmetry_cell_setting	triclinic
loop_
_symmetry_equiv_pos_as_xyz
  x,y,z
_cell_length_a	16.959455
_cell_length_b	16.959454
_cell_length_c	13.032268
_cell_angle_alpha	82.849649
_cell_angle_beta	82.838824
_cell_angle_gamma	90.019023
loop_
_atom_site_label
_atom_site_type_symbol
_atom_site_fract_x
_atom_site_fract_y
_atom_site_fract_z
Zn1	Zn	1.151628	-0.371437	0.590917
Zn2	Zn	1.168333	-0.486849	0.416185
Zn3	Zn	1.036239	-0.354686	0.416188
Zn4	Zn	1.019426	-0.503570	0.590868
O5	O	1.093906	-0.429135	0.503540
O6	O	1.264453	-0.386759	0.567758
O7	O	1.164838	-0.455309	0.269955
O8	O	1.051591	-0.246299	0.439388
O9	O	1.276726	-0.471552	0.439383
O10	O	1.136367	-0.258606	0.567761
O11	O	1.067789	-0.358210	0.269957
O12	O	0.923400	-0.374424	0.439340
O13	O	1.022936	-0.500050	0.737105
O14	O	0.911047	-0.483808	0.567677
O15	O	1.120064	-0.402973	0.737141
O16	O	1.148535	-0.599676	0.439335
O17	O	1.039134	-0.611961	0.567674
C18	C	0.888544	-0.429113	0.503504
C19	C	0.800686	-0.429125	0.503514
C20	C	0.765810	-0.372112	0.436802
C21	C	0.753008	-0.486146	0.570241
C22	C	0.670460	-0.486156	0.570257
C23	C	0.635584	-0.429143	0.503545
C24	C	0.683255	-0.372119	0.436817
C25	C	0.622783	-0.543174	0.636990
C26	C	0.540230	-0.543186	0.637009
C27	C	0.505352	-0.486176	0.570291
C28	C	0.553029	-0.429150	0.503560
C29	C	0.518152	-0.372137	0.436848
C30	C	0.565828	-0.315114	0.370111
C31	C	0.648377	-0.315109	0.370099
C32	C	0.422803	-0.486182	0.570303
C33	C	0.435597	-0.372144	0.436864
C34	C	1.093842	-0.634500	0.503522
C35	C	1.093883	-0.722359	0.503549
C36	C	1.037015	-1.100260	0.570359
C37	C	1.151008	-1.087418	0.436827
C38	C	1.150981	-1.004871	0.436818
C39	C	1.093970	-0.970015	0.503578
C40	C	1.036985	-1.017705	0.570349
C41	C	1.207960	-0.957174	0.370041
C42	C	1.207935	-0.874622	0.370028
C43	C	1.150926	-0.839765	0.436795
C44	C	1.093940	-0.887460	0.503569
C45	C	1.036929	-0.852604	0.570329
C46	C	0.979945	-0.900299	0.637110
C47	C	0.979977	-0.982848	0.637116
C48	C	1.150895	-0.757215	0.436788
C49	C	1.036899	-0.770050	0.570320
C50	C	1.300071	-0.429158	0.503576
C51	C	1.387926	-0.429168	0.503591
C52	C	1.067761	-0.455245	0.776099
C53	C	1.056619	-0.466372	0.892248
C54	C	1.093991	-0.222971	0.503580
C55	C	1.094026	-0.135116	0.503598
C56	C	1.119996	-0.403070	0.232040
C57	C	1.131291	-0.391721	0.115892
C58	C	1.099709	-0.423300	0.944049
C59	C	1.088195	-0.434799	1.064094
H60	H	0.537420	-0.268691	0.315799
N61	N	0.918453	-0.862694	0.709103
H62	H	0.945886	-0.833049	0.757557
H63	H	0.882374	-0.905470	0.751342
H64	H	1.197420	-1.115803	0.382467
N65	N	0.817225	-0.310606	0.364835
H66	H	0.782602	-0.274490	0.322580
H67	H	0.856102	-0.338082	0.316396
H68	H	0.383989	-0.532604	0.624646
H69	H	1.011199	-0.511754	0.936773
H70	H	1.254370	-0.985559	0.315680
H71	H	1.145122	-0.377909	0.899524
N72	N	1.269398	-0.823183	0.298016
H73	H	1.305519	-0.857792	0.255728
H74	H	1.301852	-0.792987	0.340605
N75	N	0.397986	-0.310653	0.364901
H76	H	0.338457	-0.319309	0.375033
H77	H	0.419561	-0.315730	0.290245
H78	H	0.990476	-0.741676	0.624689
N79	N	0.918518	-1.034288	0.709133
H80	H	0.927186	-1.091871	0.699002
H81	H	0.863639	-1.018333	0.692792
N82	N	1.028025	-0.494915	1.123067
H83	H	1.055816	-0.535854	1.168355
H84	H	1.000863	-0.522021	1.071947
N85	N	0.699793	-0.253605	0.298129
H86	H	0.738680	-0.281022	0.249631
H87	H	0.729923	-0.221113	0.340748
N88	N	0.790620	-0.547637	0.642190
H89	H	0.850149	-0.538980	0.632055
H90	H	0.777745	-0.602499	0.625796
H91	H	1.176705	-0.346325	1.071373
H92	H	0.990623	-1.139097	0.624732
H93	H	0.651185	-0.589589	0.691307
H94	H	0.501419	-0.589619	0.691349
N95	N	1.212342	-0.705772	0.364765
H96	H	1.248459	-0.740380	0.322469
H97	H	1.244802	-0.675568	0.407339
