data_functionalizedCrystal
_audit_creation_method	'MofGen! by Chris Wilmer'
_symmetry_space_group_name_H-M	'P1'
_symmetry_Int_Tables_number	1
_symmetry_cell_setting	triclinic
loop_
_symmetry_equiv_pos_as_xyz
  x,y,z
_cell_length_a	16.109301
_cell_length_b	17.699083
_cell_length_c	14.586319
_cell_angle_alpha	89.995320
_cell_angle_beta	89.999213
_cell_angle_gamma	83.372248
loop_
_atom_site_label
_atom_site_type_symbol
_atom_site_fract_x
_atom_site_fract_y
_atom_site_fract_z
O1	O	1.102963	0.097285	-0.076184
O2	O	1.602963	0.597285	0.423816
O3	O	0.860880	0.109391	-0.076199
O4	O	1.360880	0.609391	0.423801
O5	O	0.988761	-0.006841	-0.076183
O6	O	1.488761	0.493159	0.423817
O7	O	0.975082	0.213517	-0.076200
O8	O	1.475082	0.713517	0.423800
O9	O	0.988752	-0.006843	0.076298
O10	O	1.488752	0.493157	0.576298
O11	O	0.860872	0.109390	0.076282
O12	O	1.360872	0.609390	0.576282
O13	O	1.102954	0.097283	0.076297
O14	O	1.602954	0.597283	0.576297
Cu15	Cu	0.981912	0.103336	0.090212
Cu16	Cu	1.481912	0.603336	0.590212
Cu17	Cu	0.981923	0.103338	-0.090114
Cu18	Cu	1.481923	0.603338	0.409886
O19	O	0.975074	0.213516	0.076281
O20	O	1.475074	0.713516	0.576281
C21	C	0.829902	0.108900	0.000040
C22	C	1.329902	0.608900	0.500040
C23	C	0.737609	0.107430	0.000034
C24	C	1.237609	0.607430	0.500034
C25	C	0.515224	0.172981	0.000040
C26	C	1.015224	0.672981	0.500040
C27	C	0.428506	0.171594	0.000046
C28	C	0.928506	0.671594	0.500046
C29	C	0.448618	0.033688	0.000053
C30	C	0.948618	0.533688	0.500053
C31	C	0.535334	0.035076	0.000053
C32	C	1.035334	0.535076	0.500053
C33	C	0.568635	0.104725	0.000042
C34	C	1.068635	0.604725	0.500042
C35	C	0.395200	0.101949	0.000047
C36	C	0.895200	0.601949	0.500047
C37	C	0.301177	0.100445	0.000054
C38	C	0.801177	0.600445	0.500054
C39	C	0.662664	0.106230	0.000037
C40	C	1.162664	0.606230	0.500037
C41	C	0.988267	-0.035040	0.000057
C42	C	1.488267	0.464960	0.500057
C43	C	0.986796	-0.119060	0.000058
C44	C	1.486796	0.380940	0.500058
C45	C	1.061860	-0.167574	0.000064
C46	C	1.561860	0.332426	0.500064
C47	C	1.060473	-0.246519	0.000055
C48	C	1.560473	0.253481	0.500055
C49	C	0.984022	-0.276949	0.000048
C50	C	1.484022	0.223051	0.500048
C51	C	0.908953	-0.228429	0.000039
C52	C	1.408953	0.271571	0.500039
C53	C	0.910341	-0.149485	0.000041
C54	C	1.410341	0.350515	0.500041
C55	C	0.903356	-0.546800	0.000031
C56	C	1.403356	-0.046800	0.500031
C57	C	0.901974	-0.625750	0.000033
C58	C	1.401974	-0.125750	0.500033
C59	C	1.053488	-0.643834	0.000046
C60	C	1.553488	-0.143834	0.500046
C61	C	1.054876	-0.564890	0.000048
C62	C	1.554876	-0.064890	0.500048
C63	C	0.979807	-0.516377	0.000034
C64	C	1.479807	-0.016377	0.500034
C65	C	0.981312	-0.430776	0.000041
C66	C	1.481312	0.069224	0.500041
C67	C	0.982517	-0.362549	0.000047
C68	C	1.482517	0.137451	0.500047
C69	C	1.133933	0.097774	0.000056
C70	C	1.633933	0.597774	0.500056
C71	C	1.226226	0.099244	0.000055
C72	C	1.726226	0.599244	0.500055
C73	C	0.975568	0.241714	0.000038
C74	C	1.475568	0.741714	0.500038
C75	C	0.977039	0.325734	0.000032
C76	C	1.477039	0.825734	0.500032
N77	N	0.981911	0.103334	0.217044
N78	N	1.481911	0.603334	0.717044
N79	N	0.981931	0.103334	-0.216946
N80	N	1.481931	0.603334	0.283054
C81	C	1.038555	0.051884	0.452057
C82	C	1.538555	0.551884	0.952057
C83	C	1.038558	0.051882	0.548038
C84	C	1.538558	0.551882	1.048038
C85	C	0.925280	0.154787	0.548034
C86	C	1.425280	0.654787	1.048034
C87	C	0.925274	0.154785	0.452054
C88	C	1.425274	0.654785	0.952054
C89	C	0.981917	0.103334	0.404068
C90	C	1.481917	0.603334	0.904068
C91	C	0.981925	0.103334	0.596029
C92	C	1.481925	0.603334	1.096029
C93	C	0.981927	0.103333	0.700096
C94	C	1.481927	0.603333	1.200096
C95	C	0.981914	0.103334	0.299995
C96	C	1.481914	0.603334	0.799995
H97	H	0.542334	0.229694	0.000038
H98	H	1.042334	0.729694	0.500038
C99	C	0.862976	0.211379	0.600827
C100	C	1.362976	0.711379	1.100827
N101	N	0.816046	0.254005	0.640590
N102	N	1.316046	0.754005	1.140590
H103	H	1.084677	0.009985	0.587108
H104	H	1.584677	0.509985	1.087108
H105	H	1.121597	-0.286017	0.000062
H106	H	1.621597	0.213983	0.500062
C107	C	0.594090	-0.040016	0.000056
C108	C	1.094090	0.459984	0.500056
N109	N	0.638345	-0.096572	0.000060
N110	N	1.138345	0.403428	0.500060
C111	C	0.369757	0.246682	0.000048
C112	C	0.869757	0.746682	0.500048
N113	N	0.325508	0.303241	0.000052
N114	N	0.825508	0.803241	0.500052
C115	C	0.411979	-0.042922	0.000056
C116	C	0.911979	0.457078	0.500056
N117	N	0.384383	-0.100627	0.000055
N118	N	0.884383	0.399373	0.500055
H119	H	1.124115	-0.142805	0.000075
H120	H	1.624115	0.357195	0.500075
C121	C	0.820778	-0.493446	0.000012
C122	C	1.320778	0.006554	0.500012
N123	N	0.758576	-0.453256	-0.000006
N124	N	1.258576	0.046744	0.499994
C125	C	1.138977	-0.531422	0.000056
C126	C	1.638977	-0.031422	0.500056
N127	N	1.202325	-0.506216	0.000058
N128	N	1.702325	-0.006216	0.500058
H129	H	1.114613	-0.683343	0.000052
H130	H	1.614613	-0.183343	0.500052
H131	H	1.084675	0.009988	0.412989
H132	H	1.584675	0.509988	0.912989
H133	H	0.839715	-0.650523	0.000028
H134	H	1.339715	-0.150523	0.500028
H135	H	0.846705	-0.253211	0.000027
H136	H	1.346705	0.246789	0.500027
C137	C	0.827765	-0.096120	0.000037
C138	C	1.327765	0.403880	0.500037
N139	N	0.765566	-0.055926	0.000031
N140	N	1.265566	0.444074	0.500031
H141	H	0.879149	0.196682	0.412979
H142	H	1.379149	0.696682	0.912979
