data_functionalizedCrystal
_audit_creation_method	'MofGen! by Chris Wilmer'
_symmetry_space_group_name_H-M	'P1'
_symmetry_Int_Tables_number	1
_symmetry_cell_setting	triclinic
loop_
_symmetry_equiv_pos_as_xyz
  x,y,z
_cell_length_a	29.839131
_cell_length_b	19.077241
_cell_length_c	19.077271
_cell_angle_alpha	89.928553
_cell_angle_beta	87.672967
_cell_angle_gamma	87.666381
loop_
_atom_site_label
_atom_site_type_symbol
_atom_site_fract_x
_atom_site_fract_y
_atom_site_fract_z
Zn1	Zn	-0.140491	-1.058228	-0.440574
Zn2	Zn	0.359509	-0.558228	0.059426
Zn3	Zn	-0.218516	-1.062830	-0.323065
Zn4	Zn	0.281484	-0.562830	0.176935
Zn5	Zn	-0.146524	-0.945440	-0.318349
Zn6	Zn	0.353476	-0.445440	0.181651
Zn7	Zn	-0.218725	-0.940650	-0.435803
Zn8	Zn	0.281275	-0.440650	0.064197
O9	O	-0.181064	-1.001787	-0.379448
O10	O	0.318936	-0.501787	0.120552
O11	O	-0.148229	-1.157173	-0.428957
O12	O	0.351771	-0.657173	0.071043
O13	O	-0.211404	-1.051188	-0.224107
O14	O	0.288596	-0.551188	0.275893
O15	O	-0.082854	-0.960479	-0.334586
O16	O	0.417146	-0.460479	0.165414
O17	O	-0.205553	-1.160554	-0.342624
O18	O	0.294447	-0.660554	0.157376
O19	O	-0.078422	-1.043344	-0.424384
O20	O	0.421578	-0.543344	0.075616
O21	O	-0.158512	-0.964942	-0.220642
O22	O	0.341488	-0.464942	0.279358
O23	O	-0.158714	-0.846469	-0.329959
O24	O	0.341286	-0.346469	0.170041
O25	O	-0.205909	-0.952317	-0.534769
O26	O	0.294091	-0.452317	-0.034769
O27	O	-0.211759	-0.842951	-0.416252
O28	O	0.288241	-0.342951	0.083748
O29	O	-0.148431	-1.038700	-0.538274
O30	O	0.351569	-0.538700	-0.038274
O31	O	-0.281413	-1.046544	-0.337997
O32	O	0.218587	-0.546544	0.162003
O33	O	-0.281567	-0.956779	-0.420825
O34	O	0.218433	-0.456779	0.079175
C35	C	-0.185915	-0.819213	-0.372077
C36	C	0.314085	-0.319213	0.127923
C37	C	-0.188000	-0.741106	-0.368940
C38	C	0.312000	-0.241106	0.131060
C39	C	-0.159178	-0.702649	-0.412484
C40	C	0.340822	-0.202649	0.087516
C41	C	-0.161136	-0.629260	-0.409531
C42	C	0.338864	-0.129260	0.090469
C43	C	-0.191918	-0.594329	-0.363036
C44	C	0.308082	-0.094329	0.136964
C45	C	-0.220741	-0.632791	-0.319487
C46	C	0.279259	-0.132791	0.180513
C47	C	-0.218781	-0.706179	-0.322438
C48	C	0.281219	-0.206179	0.177562
C49	C	-0.200974	-0.375031	-0.349382
C50	C	0.299026	0.124969	0.150618
C51	C	-0.202932	-0.301638	-0.346436
C52	C	0.297068	0.198362	0.153564
C53	C	-0.143326	-0.298111	-0.436479
C54	C	0.356674	0.201889	0.063521
C55	C	-0.141371	-0.371501	-0.439428
C56	C	0.358629	0.128499	0.060572
C57	C	-0.170192	-0.409957	-0.395877
C58	C	0.329808	0.090043	0.104123
N59	N	-0.193920	-0.519313	-0.360018
N60	N	0.306080	-0.019313	0.139982
N61	N	-0.168187	-0.484971	-0.398892
N62	N	0.331813	0.015029	0.101108
C63	C	-0.297790	-1.001660	-0.379421
C64	C	0.202210	-0.501660	0.120579
C65	C	-0.347724	-1.001669	-0.379436
C66	C	0.152276	-0.501669	0.120564
C67	C	-0.704403	-0.955075	-0.422575
C68	C	-0.204403	-0.455075	0.077425
C69	C	-0.516733	-0.954983	-0.422549
C70	C	-0.016733	-0.454983	0.077451
O71	O	-0.492551	-0.915215	-0.459208
O72	O	0.007449	-0.415215	0.040792
N73	N	-0.493167	-1.001742	-0.379460
N74	N	0.006833	-0.501742	0.120540
C75	C	-0.516521	-1.048531	-0.336378
C76	C	-0.016521	-0.548531	0.163622
O77	O	-0.492170	-1.088305	-0.299733
O78	O	0.007830	-0.588305	0.200267
C79	C	-0.704190	-1.048626	-0.336408
C80	C	-0.204190	-0.548626	0.163592
C81	C	-0.727754	-1.001859	-0.379494
C82	C	-0.227754	-0.501859	0.120506
C83	C	-0.727967	-0.908313	-0.465658
C84	C	-0.227967	-0.408313	0.034342
C85	C	-0.774882	-0.908334	-0.465662
C86	C	-0.274882	-0.408334	0.034338
C87	C	-0.798233	-0.955117	-0.422581
C88	C	-0.298233	-0.455117	0.077419
C89	C	-0.774669	-1.001880	-0.379497
C90	C	-0.274669	-0.501880	0.120503
C91	C	-0.727543	-1.095417	-0.293330
C92	C	-0.227543	-0.595417	0.206670
C93	C	-0.774463	-1.095438	-0.293342
C94	C	-0.274463	-0.595438	0.206658
C95	C	-0.798027	-1.048671	-0.336429
C96	C	-0.298027	-0.548671	0.163571
C97	C	-0.844935	-1.048684	-0.336420
C98	C	-0.344935	-0.548684	0.163580
N99	N	-0.868501	-1.001925	-0.379509
N100	N	-0.368501	-0.501925	0.120491
C101	C	-0.845150	-0.955141	-0.422590
C102	C	-0.345150	-0.455141	0.077410
C103	C	-0.417992	-1.048477	-0.336364
C104	C	0.082008	-0.548477	0.163636
C105	C	-0.371075	-1.048453	-0.336355
C106	C	0.128925	-0.548453	0.163645
C107	C	-0.371290	-0.954906	-0.422528
C108	C	0.128710	-0.454906	0.077472
C109	C	-0.418208	-0.954927	-0.422532
C110	C	0.081792	-0.454927	0.077468
C111	C	-0.441558	-1.001718	-0.379453
C112	C	0.058442	-0.501718	0.120547
C113	C	-0.943674	-0.955188	-0.422593
C114	C	-0.443674	-0.455188	0.077407
C115	C	-0.990593	-0.955211	-0.422590
C116	C	-0.490593	-0.455211	0.077410
C117	C	-0.990374	-1.048761	-0.336420
C118	C	-0.490374	-0.548761	0.163580
C119	C	-0.943459	-1.048735	-0.336420
C120	C	-0.443459	-0.548735	0.163580
C121	C	-0.920110	-1.001947	-0.379512
C122	C	-0.420110	-0.501947	0.120488
O123	O	-0.869146	-1.088437	-0.299786
O124	O	-0.369146	-0.588437	0.200214
O125	O	-0.869508	-0.915384	-0.459241
O126	O	-0.369508	-0.415384	0.040759
C127	C	-0.657488	-0.955054	-0.422571
C128	C	-0.157488	-0.455054	0.077429
C129	C	-0.633924	-1.001817	-0.379488
C130	C	-0.133924	-0.501817	0.120512
C131	C	-0.657275	-1.048601	-0.336407
C132	C	-0.157275	-0.548601	0.163593
C133	C	-0.587007	-1.001793	-0.379479
C134	C	-0.087007	-0.501793	0.120521
C135	C	-0.563656	-0.955009	-0.422560
C136	C	-0.063656	-0.455009	0.077440
C137	C	-0.587222	-0.908250	-0.465649
C138	C	-0.087222	-0.408250	0.034351
C139	C	-0.634137	-0.908271	-0.465652
C140	C	-0.134137	-0.408271	0.034348
C141	C	-0.633709	-1.095360	-0.293318
C142	C	-0.133709	-0.595360	0.206682
C143	C	-0.586794	-1.095335	-0.293318
C144	C	-0.086794	-0.595335	0.206682
C145	C	-0.563443	-1.048551	-0.336399
C146	C	-0.063443	-0.548551	0.163601
C147	C	-0.063881	-1.001933	-0.379491
C148	C	0.436119	-0.501933	0.120509
C149	C	-0.013944	-1.001995	-0.379509
C150	C	0.486056	-0.501995	0.120491
C151	C	-0.176520	-0.994461	-0.562731
C152	C	0.323480	-0.494461	-0.062731
C153	C	-0.174584	-0.991339	-0.640835
C154	C	0.325416	-0.491339	-0.140835
C155	C	-0.176192	-0.185074	-0.386843
C156	C	0.323808	0.314926	0.113157
C157	C	-0.174110	-0.263181	-0.389980
C158	C	0.325890	0.236819	0.110020
C159	C	-0.160733	-0.968948	-1.080286
C160	C	0.339267	-0.468948	-0.580286
C161	C	-0.162551	-0.971885	-1.006899
C162	C	0.337449	-0.471885	-0.506899
C163	C	-0.191000	-1.018253	-0.972008
C164	C	0.309000	-0.518253	-0.472008
C165	C	-0.217630	-1.061693	-1.010509
C166	C	0.282370	-0.561693	-0.510509
C167	C	-0.215810	-1.058759	-1.083895
C168	C	0.284190	-0.558759	-0.583895
C169	C	-0.199394	-1.031845	-0.752722
C170	C	0.300606	-0.531845	-0.252722
C171	C	-0.201213	-1.034774	-0.679330
C172	C	0.298787	-0.534774	-0.179330
C173	C	-0.146133	-0.944967	-0.675725
C174	C	0.353867	-0.444967	-0.175725
C175	C	-0.144318	-0.942034	-0.749113
C176	C	0.355682	-0.442034	-0.249113
C177	C	-0.170946	-0.985476	-0.787607
C178	C	0.329054	-0.485476	-0.287607
N179	N	-0.192859	-1.021254	-0.896995
N180	N	0.307141	-0.521254	-0.396995
N181	N	-0.169084	-0.982478	-0.862619
N182	N	0.330916	-0.482478	-0.362619
C183	C	-0.185556	-1.009125	-0.196880
C184	C	0.314444	-0.509125	0.303120
C185	C	-0.187362	-1.012383	-0.118781
C186	C	0.312638	-0.512383	0.381219
H187	H	-1.009777	-0.917127	-0.457678
H188	H	-0.509777	-0.417127	0.042322
N189	N	-0.109923	-0.407191	-0.486907
N190	N	0.390077	0.092809	0.013093
N191	N	-0.108176	-0.472716	-0.489531
N192	N	0.391824	0.027284	0.010469
H193	H	-0.085966	-0.497923	-0.523064
H194	H	0.414034	0.002077	-0.023064
N195	N	-0.252184	-0.597124	-0.271984
N196	N	0.247816	-0.097124	0.228016
N197	N	-0.250527	-0.607904	-0.207482
N198	N	0.249473	-0.107904	0.292518
H199	H	-0.272735	-0.582715	-0.173931
H200	H	0.227265	-0.082715	0.326069
H201	H	-0.567612	-1.133416	-0.258226
H202	H	-0.067612	-0.633416	0.241774
H203	H	-0.140867	-0.936515	-0.975559
H204	H	0.359133	-0.436515	-0.475559
H205	H	-0.924669	-0.917090	-0.457683
H206	H	-0.424669	-0.417090	0.042317
H207	H	-0.237493	-1.094129	-1.115237
H208	H	0.262507	-0.594129	-0.615237
N209	N	-0.131679	-0.589988	-0.453995
N210	N	0.368321	-0.089988	0.046005
N211	N	-0.104192	-0.621185	-0.495496
N212	N	0.395808	-0.121185	0.004504
H213	H	-0.083382	-0.593451	-0.526895
H214	H	0.416618	-0.093451	-0.026895
H215	H	-0.224371	-1.072549	-0.650925
H216	H	0.275629	-0.572549	-0.150925
N217	N	-0.798954	-0.860575	-0.509679
N218	N	-0.298954	-0.360575	-0.009679
N219	N	-0.840844	-0.860594	-0.509689
N220	N	-0.340844	-0.360594	-0.009689
H221	H	-0.857843	-0.826864	-0.540780
H222	H	-0.357843	-0.326864	-0.040780
H223	H	-0.119860	-0.266792	-0.471935
H224	H	0.380140	0.233208	0.028065
H225	H	-0.228001	-0.273200	-0.308574
H226	H	0.271999	0.226800	0.191426
H227	H	-0.793472	-1.133544	-0.258263
H228	H	-0.293472	-0.633544	0.241737
N229	N	-0.127728	-0.738316	-0.459975
N230	N	0.372272	-0.238316	0.040025
N231	N	-0.086600	-0.730334	-0.455096
N232	N	0.413400	-0.230334	0.044904
H233	H	-0.064386	-0.755522	-0.488636
H234	H	0.435614	-0.255522	0.011364
N235	N	-0.230417	-0.414296	-0.304894
N236	N	0.269583	0.085704	0.195106
N237	N	-0.257900	-0.383097	-0.263388
N238	N	0.242100	0.116903	0.236612
H239	H	-0.278697	-0.410829	-0.231966
H240	H	0.221303	0.089171	0.268034
H241	H	-0.924273	-1.086810	-0.301328
H242	H	-0.424273	-0.586810	0.198672
N243	N	-0.248222	-0.745455	-0.277948
N244	N	0.251778	-0.245455	0.222052
N245	N	-0.275703	-0.714260	-0.236436
N246	N	0.224297	-0.214260	0.263564
H247	H	-0.296495	-0.741997	-0.205010
H248	H	0.203505	-0.241997	0.294990
N249	N	-0.704126	-0.860519	-0.509676
N250	N	-0.204126	-0.360519	-0.009676
N251	N	-0.725179	-0.818776	-0.548138
N252	N	-0.225179	-0.318776	-0.048138
H253	H	-0.708345	-0.785015	-0.579225
H254	H	-0.208345	-0.285015	-0.079225
N255	N	-0.442269	-0.907150	-0.466546
N256	N	0.057731	-0.407150	0.033454
N257	N	-0.421409	-0.865381	-0.505001
N258	N	0.078591	-0.365381	-0.005001
H259	H	-0.438399	-0.831635	-0.536088
H260	H	0.061601	-0.331635	-0.036088
N261	N	-0.441832	-1.096274	-0.292343
N262	N	0.058168	-0.596274	0.207657
N263	N	-0.438330	-1.094254	-0.227314
N264	N	0.061670	-0.594254	0.272686
H265	H	-0.455165	-1.128010	-0.196221
H266	H	0.044835	-0.628010	0.303779
H267	H	-0.352270	-0.916811	-0.457605
H268	H	0.147730	-0.416811	0.042395
N269	N	-0.118932	-0.900611	-0.636391
N270	N	0.381068	-0.400611	-0.136391
N271	N	-0.090664	-0.927016	-0.596450
N272	N	0.409336	-0.427016	-0.096450
H273	H	-0.071450	-0.895691	-0.568669
H274	H	0.428550	-0.395691	-0.068669
N275	N	-0.347016	-1.096218	-0.292328
N276	N	0.152984	-0.596218	0.207672
N277	N	-0.367876	-1.137983	-0.253868
N278	N	0.132124	-0.637983	0.246132
H279	H	-0.350886	-1.171721	-0.222773
H280	H	0.149114	-0.671721	0.277227
H281	H	-0.708364	-1.133499	-0.258245
H282	H	-0.208364	-0.633499	0.241755
N283	N	-0.246684	-1.109066	-0.974872
N284	N	0.253316	-0.609066	-0.474872
N285	N	-0.230704	-1.155503	-0.935735
N286	N	0.269296	-0.655503	-0.435735
H287	H	-0.251225	-1.188961	-0.910566
H288	H	0.248775	-0.688961	-0.410566
H289	H	-1.009395	-1.086848	-0.301343
H290	H	-0.509395	-0.586848	0.198657
N291	N	-0.658210	-0.860501	-0.509658
N292	N	-0.158210	-0.360501	-0.009658
N293	N	-0.686228	-0.816742	-0.483096
N294	N	-0.186228	-0.316742	0.016904
H295	H	-0.703228	-0.783002	-0.514177
H296	H	-0.203228	-0.283002	-0.014177
N297	N	-0.226603	-1.076213	-0.792025
N298	N	0.273397	-0.576213	-0.292025
N299	N	-0.252007	-1.117600	-0.760861
N300	N	0.247993	-0.617600	-0.260861
H301	H	-0.271228	-1.148934	-0.788621
H302	H	0.228772	-0.648934	-0.288621
N303	N	-0.563358	-0.860463	-0.509648
N304	N	-0.063358	-0.360463	-0.009648
N305	N	-0.521468	-0.860458	-0.509631
N306	N	-0.021468	-0.360458	-0.009631
H307	H	-0.504611	-0.826713	-0.540706
H308	H	-0.004611	-0.326713	-0.040706
N309	N	-0.657550	-1.143160	-0.249311
N310	N	-0.157550	-0.643160	0.250689
N311	N	-0.636499	-1.184905	-0.210848
N312	N	-0.136499	-0.684905	0.289152
H313	H	-0.653335	-1.218666	-0.179763
H314	H	-0.153335	-0.718666	0.320237
N315	N	-0.131674	-0.921574	-1.115911
N316	N	0.368326	-0.421574	-0.615911
N317	N	-0.107900	-0.882798	-1.081528
N318	N	0.392100	-0.382798	-0.581528
H319	H	-0.087375	-0.849339	-1.106686
H320	H	0.412625	-0.349339	-0.606686
H321	H	-0.121153	-0.904273	-0.777515
H322	H	0.378847	-0.404273	-0.277515
