data_functionalizedCrystal
_audit_creation_method	'MofGen! by Chris Wilmer'
_symmetry_space_group_name_H-M	'P1'
_symmetry_Int_Tables_number	1
_symmetry_cell_setting	triclinic
loop_
_symmetry_equiv_pos_as_xyz
  x,y,z
_cell_length_a	15.538191
_cell_length_b	10.540539
_cell_length_c	14.750779
_cell_angle_alpha	77.230089
_cell_angle_beta	97.572172
_cell_angle_gamma	65.898793
loop_
_atom_site_label
_atom_site_type_symbol
_atom_site_fract_x
_atom_site_fract_y
_atom_site_fract_z
O1	O	1.226941	-0.374141	-0.079847
O2	O	0.953666	-0.228028	-0.079842
O3	O	1.096539	-0.488740	-0.079843
O4	O	1.084069	-0.113428	-0.079846
O5	O	1.136927	-0.562434	0.079807
O6	O	0.994055	-0.301722	0.079808
O7	O	1.267329	-0.447835	0.079803
Zn8	Zn	1.137105	-0.386479	0.105153
Zn9	Zn	1.083891	-0.289384	-0.105192
O10	O	1.124457	-0.187122	0.079804
C11	C	0.938868	-0.249588	-0.000017
C12	C	0.834601	-0.204052	-0.000015
C13	C	0.543764	-0.656437	-0.000028
C14	C	0.445786	-0.613617	-0.000028
C15	C	0.424963	-0.372763	-0.000030
C16	C	0.522942	-0.415565	-0.000024
C17	C	0.582335	-0.557404	-0.000024
C18	C	0.561514	-0.316532	-0.000020
C19	C	0.659483	-0.359329	-0.000020
C20	C	0.718882	-0.501160	-0.000023
C21	C	0.680305	-0.600201	-0.000023
C22	C	0.502117	-0.174691	-0.000027
C23	C	0.540689	-0.075657	-0.000024
C24	C	0.638662	-0.118457	-0.000016
C25	C	0.698060	-0.260288	-0.000019
C26	C	0.677239	-0.019416	-0.000016
C27	C	0.775208	-0.062213	-0.000015
C28	C	0.796030	-0.303086	-0.000019
C29	C	1.115797	-0.572447	-0.000020
C30	C	1.112998	-0.712070	-0.000025
C31	C	1.005705	-0.844625	-0.000382
C32	C	1.008631	-0.699514	-0.000022
C33	C	1.186288	-0.839567	0.091142
C34	C	1.182746	-0.984462	0.091219
C35	C	1.138939	-0.902180	-0.090333
C36	C	1.139596	-0.755096	-0.091538
C37	C	1.282127	-0.426274	-0.000024
C38	C	1.386393	-0.471807	-0.000032
C39	C	1.105198	-0.103414	-0.000021
C40	C	1.107995	0.036211	-0.000022
N41	N	1.173428	-0.452748	0.248709
N42	N	1.047575	-0.223128	-0.248748
C43	C	0.946128	-0.038104	0.600529
C44	C	0.971588	-0.084536	0.701028
C45	C	1.098128	-0.315346	0.700989
C46	C	1.072676	-0.268936	0.600488
C47	C	0.996676	-0.130313	0.550266
C48	C	1.123223	-0.361145	0.550226
C49	C	1.097776	-0.314735	0.449734
C50	C	1.021781	-0.176117	0.399504
C51	C	0.971228	-0.083904	0.449774
C52	C	1.199228	-0.499763	0.600450
C53	C	1.249775	-0.591972	0.550187
C54	C	1.224323	-0.545567	0.449693
C55	C	1.148328	-0.406948	0.399464
C56	C	1.274876	-0.637780	0.399423
C57	C	1.249428	-0.591370	0.298931
C58	C	1.122881	-0.360539	0.298972
H59	H	0.422344	-0.139849	-0.000031
F60	F	0.865230	0.109428	0.547076
H61	H	0.628864	0.096073	-0.000025
F62	F	0.404743	-0.719039	-0.000020
H63	H	1.214294	-0.764324	-0.097045
H64	H	0.376591	-0.257276	-0.000034
F65	F	1.156758	-1.039491	0.180294
F66	F	1.355767	-0.785301	0.452885
F67	F	1.226311	-0.549146	0.707404
F68	F	0.930196	-0.817068	-0.085836
F69	F	1.237267	-1.010142	-0.091138
F70	F	1.330661	-0.739499	0.603646
H71	H	1.290591	-0.666457	0.258007
H72	H	0.492317	0.039830	-0.000028
H73	H	0.798651	-0.535997	-0.000035
F74	F	0.859248	-0.454052	-0.000008
H75	H	1.001065	-0.138330	0.317677
F76	F	0.743524	-0.751168	-0.000013
H77	H	0.985395	-0.669151	0.065440
F78	F	0.816261	0.043190	-0.000013
H79	H	0.909334	0.028971	0.408881
F80	F	1.071933	-0.880831	-0.180651
H81	H	1.258851	-1.069842	0.095354
H82	H	0.981092	-0.885421	0.064631
F83	F	0.935366	-0.579961	-0.085442
H84	H	0.930420	-0.009435	0.741947
H85	H	0.592127	-0.771939	-0.000022
F86	F	1.287590	-0.859782	0.095575
F87	F	1.163120	-0.803255	0.179822
H88	H	1.085784	-0.665724	-0.158981
F89	F	1.041983	-0.213007	0.245519
H90	H	1.160011	-0.428212	0.741892
