data_functionalizedCrystal
_audit_creation_method	'MofGen! by Chris Wilmer'
_symmetry_space_group_name_H-M	'P1'
_symmetry_Int_Tables_number	1
_symmetry_cell_setting	triclinic
loop_
_symmetry_equiv_pos_as_xyz
  x,y,z
_cell_length_a	25.639243
_cell_length_b	25.639239
_cell_length_c	14.908308
_cell_angle_alpha	93.262277
_cell_angle_beta	93.275293
_cell_angle_gamma	90.041410
loop_
_atom_site_label
_atom_site_type_symbol
_atom_site_fract_x
_atom_site_fract_y
_atom_site_fract_z
Zn1	Zn	0.782183	-0.225165	-0.510130
Zn2	Zn	0.787147	-0.307560	-0.359267
Zn3	Zn	0.699799	-0.220145	-0.359283
Zn4	Zn	0.694707	-0.312574	-0.510067
O5	O	0.740959	-0.266361	-0.434686
O6	O	0.856006	-0.236098	-0.490137
O7	O	0.779768	-0.291765	-0.233028
O8	O	0.710781	-0.147647	-0.379326
O9	O	0.859653	-0.296633	-0.379298
O10	O	0.771309	-0.151335	-0.490152
O11	O	0.715594	-0.227541	-0.233040
O12	O	0.625959	-0.232403	-0.379265
O13	O	0.702103	-0.305178	-0.636316
O14	O	0.622218	-0.300310	-0.490046
O15	O	0.766371	-0.240959	-0.636362
O16	O	0.774830	-0.381389	-0.379238
O17	O	0.706915	-0.385073	-0.490030
C18	C	0.605118	-0.266356	-0.434651
C19	C	0.547003	-0.266367	-0.434657
C20	C	0.184732	-0.234896	-0.492496
C21	C	0.130127	-0.234896	-0.492502
O22	O	0.100269	-0.208127	-0.541634
N23	N	0.104719	-0.266360	-0.434711
C24	C	0.133919	-0.297823	-0.376905
O25	O	0.107293	-0.324585	-0.327749
C26	C	0.188522	-0.297820	-0.376895
C27	C	0.213927	-0.266358	-0.434696
C28	C	0.210137	-0.203436	-0.550292
C29	C	0.264738	-0.203437	-0.550287
C30	C	0.293933	-0.234898	-0.492487
C31	C	0.268528	-0.266359	-0.434692
C32	C	0.217721	-0.329280	-0.319085
C33	C	0.272328	-0.329274	-0.319080
C34	C	0.297733	-0.297811	-0.376881
C35	C	0.352324	-0.297821	-0.376887
N36	N	0.377732	-0.266357	-0.434677
C37	C	0.348537	-0.234895	-0.492478
C38	C	0.019247	-0.297826	-0.376928
C39	C	-0.035356	-0.297832	-0.376941
C40	C	-0.039143	-0.234904	-0.492537
C41	C	0.015461	-0.234901	-0.492528
C42	C	0.044655	-0.266362	-0.434719
C43	C	0.463202	-0.234900	-0.492464
C44	C	0.517808	-0.234906	-0.492457
C45	C	0.521591	-0.297832	-0.376858
C46	C	0.466990	-0.297828	-0.376868
C47	C	0.437797	-0.266359	-0.434674
O48	O	0.382216	-0.324575	-0.327777
O49	O	0.375170	-0.208132	-0.541616
C50	C	0.740872	-0.402202	-0.434645
C51	C	0.740882	-0.460317	-0.434658
C52	C	0.776406	-0.818753	-0.377095
C53	C	0.776426	-0.873358	-0.377107
O54	O	0.806540	-0.899955	-0.328120
N55	N	0.741049	-0.902602	-0.434746
C56	C	0.705653	-0.877239	-0.492383
O57	O	0.675564	-0.907127	-0.541412
C58	C	0.705636	-0.822635	-0.492375
C59	C	0.741012	-0.793394	-0.434726
C60	C	0.811780	-0.789512	-0.319451
C61	C	0.811759	-0.734911	-0.319438
C62	C	0.776365	-0.709551	-0.377069
C63	C	0.740991	-0.738793	-0.434713
C64	C	0.670243	-0.797273	-0.550016
C65	C	0.670229	-0.742666	-0.550004
C66	C	0.705605	-0.713424	-0.492354
C67	C	0.705576	-0.658832	-0.492331
N68	N	0.740954	-0.629588	-0.434692
C69	C	0.776348	-0.654948	-0.377061
C70	C	0.705692	-0.991910	-0.492397
C71	C	0.705706	-1.046512	-0.492402
C72	C	0.776480	-1.042628	-0.377126
C73	C	0.776463	-0.988024	-0.377118
C74	C	0.741069	-0.962666	-0.434758
C75	C	0.776302	-0.540282	-0.377037
C76	C	0.776276	-0.485676	-0.377027
C77	C	0.705504	-0.489566	-0.492305
C78	C	0.705528	-0.544166	-0.492313
C79	C	0.740931	-0.569523	-0.434676
O80	O	0.675479	-0.632199	-0.541295
O81	O	0.806437	-0.625053	-0.328049
C82	C	0.877331	-0.266366	-0.434723
C83	C	0.935444	-0.266368	-0.434738
C84	C	0.733115	-0.274188	-0.669987
C85	C	0.729773	-0.277523	-0.770258
C86	C	0.741059	-0.129990	-0.434748
C87	C	0.741102	-0.071877	-0.434774
C88	C	0.790413	-0.216908	-0.958728
C89	C	0.787274	-0.220040	-1.052941
C90	C	0.720354	-0.286917	-1.052900
C91	C	0.723492	-0.283785	-0.958687
C92	C	0.758524	-0.248780	-0.911604
C93	C	0.761665	-0.245651	-0.817388
C94	C	0.694742	-0.312524	-0.817349
C95	C	0.691603	-0.315656	-0.911563
C96	C	0.748802	-0.258527	-0.200301
C97	C	0.752246	-0.255044	-0.100031
H98	H	0.439440	-0.209273	-0.539532
O99	O	0.795747	-0.211720	-0.771607
C100	C	0.831306	-0.239668	-0.717086
H101	H	0.833568	-0.281790	-0.745462
H102	H	0.871589	-0.220717	-0.716032
H103	H	0.817518	-0.239097	-0.645680
O104	O	0.657503	-0.349602	-0.957262
C105	C	0.606169	-0.337424	-0.934214
H106	H	0.604418	-0.294794	-0.908331
H107	H	0.578271	-0.343990	-0.996163
H108	H	0.594309	-0.363638	-0.879512
H109	H	0.818940	-0.188408	-0.920392
O110	O	0.663837	-0.343509	-0.771477
C111	C	0.695396	-0.375478	-0.716994
H112	H	0.735501	-0.356568	-0.702891
H113	H	0.676301	-0.380286	-0.650738
H114	H	0.699905	-0.415429	-0.753296
H115	H	0.538490	-0.209285	-0.539528
O116	O	0.686249	-0.320859	-1.098599
C117	C	0.634918	-0.308673	-1.075544
H118	H	0.633174	-0.266045	-1.049656
H119	H	0.607017	-0.315234	-1.137491
H120	H	0.623056	-0.334888	-1.020843
O121	O	0.818306	-0.189060	-1.098578
C122	C	0.849887	-0.157484	-1.036814
H123	H	0.853920	-0.176667	-0.969648
H124	H	0.890178	-0.152810	-1.064046
H125	H	0.831101	-0.117443	-1.026806
H126	H	0.641408	-0.722022	-0.596944
H127	H	-0.056036	-0.323458	-0.329884
O128	O	0.442362	-0.328468	-0.320774
C129	C	0.455003	-0.381248	-0.340342
H130	H	0.493495	-0.383520	-0.375017
H131	H	0.459019	-0.402466	-0.275162
H132	H	0.422717	-0.400438	-0.386668
O133	O	0.289350	-0.172898	-0.606552
C134	C	0.273021	-0.187400	-0.696431
H135	H	0.233306	-0.207569	-0.698241
H136	H	0.269823	-0.151049	-0.736991
H137	H	0.302731	-0.215307	-0.726739
O138	O	0.181723	-0.172948	-0.606492
C139	C	0.148200	-0.204706	-0.664691
H140	H	0.141044	-0.243234	-0.632746
H141	H	0.109417	-0.183823	-0.676873
H142	H	0.167030	-0.212740	-0.731513
O143	O	0.549902	-0.328363	-0.320588
C144	C	0.539564	-0.313855	-0.230713
H145	H	0.499992	-0.293697	-0.228908
H146	H	0.539021	-0.350201	-0.190139
H147	H	0.571320	-0.285935	-0.200415
H148	H	0.805131	-0.560921	-0.330106
H149	H	0.036142	-0.209280	-0.539593
H150	H	-0.062924	-0.209285	-0.539599
O151	O	0.635931	-0.825649	-0.606153
C152	C	0.644315	-0.815246	-0.696072
H153	H	0.685925	-0.800349	-0.700676
H154	H	0.638315	-0.852627	-0.740655
H155	H	0.615484	-0.784351	-0.719595
O156	O	0.047525	-0.328443	-0.320749
C157	C	0.013385	-0.356203	-0.269735
H158	H	-0.026764	-0.359270	-0.306692
H159	H	0.029451	-0.397066	-0.259984
H160	H	0.009862	-0.334720	-0.201280
O161	O	0.671287	-1.074934	-0.548267
C162	C	0.639273	-1.104868	-0.496865
H163	H	0.638440	-1.086073	-0.425802
H164	H	0.597936	-1.106603	-0.529428
H165	H	0.655556	-1.146133	-0.493801
H166	H	0.197046	-0.354899	-0.272016
O167	O	0.810665	-0.457218	-0.321150
C168	C	0.842694	-0.427304	-0.372558
H169	H	0.821941	-0.421398	-0.440890
H170	H	0.850930	-0.387687	-0.335812
H171	H	0.881110	-0.448636	-0.382542
O172	O	0.846179	-0.706590	-0.263418
C173	C	0.877412	-0.740691	-0.212549
H174	H	0.877976	-0.780833	-0.249515
H175	H	0.918928	-0.724562	-0.202999
H176	H	0.860590	-0.744252	-0.144000
H177	H	0.296096	-0.354892	-0.272002
H178	H	0.840605	-0.810154	-0.272521
O179	O	0.810807	-0.959674	-0.320997
C180	C	0.802414	-0.970047	-0.231069
H181	H	0.782388	-1.009649	-0.229175
H182	H	0.841514	-0.970546	-0.190680
H183	H	0.776555	-0.938336	-0.200633
O184	O	0.810879	-1.067353	-0.321292
C185	C	0.803315	-1.121818	-0.333687
H186	H	0.783791	-1.131575	-0.403248
H187	H	0.842700	-1.142317	-0.327751
H188	H	0.777338	-1.135603	-0.280087
H189	H	0.676866	-0.971266	-0.539332
H190	H	0.676723	-0.567976	-0.539258
O191	O	0.671198	-0.464903	-0.548383
C192	C	0.698995	-0.435204	-0.606664
H193	H	0.739986	-0.451809	-0.612301
H194	H	0.677744	-0.436890	-0.676062
H195	H	0.701730	-0.392900	-0.578757
