data_functionalizedCrystal
_audit_creation_method	'MofGen! by Chris Wilmer'
_symmetry_space_group_name_H-M	'P1'
_symmetry_Int_Tables_number	1
_symmetry_cell_setting	triclinic
loop_
_symmetry_equiv_pos_as_xyz
  x,y,z
_cell_length_a	19.288864
_cell_length_b	14.519709
_cell_length_c	17.766277
_cell_angle_alpha	89.992699
_cell_angle_beta	89.976791
_cell_angle_gamma	83.408195
loop_
_atom_site_label
_atom_site_type_symbol
_atom_site_fract_x
_atom_site_fract_y
_atom_site_fract_z
O1	O	0.921767	0.115045	-0.062837
O2	O	0.719562	0.130564	-0.062786
O3	O	0.826026	-0.011468	-0.062806
O4	O	0.815304	0.257077	-0.062817
O5	O	0.826007	-0.011475	0.062382
O6	O	0.719544	0.130557	0.062402
O7	O	0.921748	0.115038	0.062351
Cu8	Cu	0.820644	0.122797	0.073808
Cu9	Cu	0.820666	0.122805	-0.074242
O10	O	0.815285	0.257070	0.062371
C11	C	0.693675	0.130061	-0.000185
C12	C	0.616566	0.128562	-0.000165
C13	C	0.572169	0.211900	-0.000181
C14	C	0.499717	0.210492	-0.000189
C15	C	0.471665	0.125741	-0.000197
C16	C	0.516071	0.042392	-0.000178
C17	C	0.588521	0.043803	-0.000162
C18	C	0.363169	0.059120	-0.044079
C19	C	0.290720	0.057713	-0.044099
C20	C	0.248203	0.121387	-0.000242
C21	C	0.278144	0.186483	0.043625
C22	C	0.350594	0.187894	0.043641
C23	C	0.393105	0.124202	-0.000214
C24	C	0.125246	0.203203	-0.000265
C25	C	0.052792	0.201792	-0.000269
C26	C	0.069148	0.033689	-0.000265
C27	C	0.141599	0.035103	-0.000254
C28	C	0.169644	0.119863	-0.000258
C29	C	0.825517	-0.045828	-0.000212
C30	C	0.824019	-0.148200	-0.000211
C31	C	0.818507	-0.523061	-0.000229
C32	C	0.820037	-0.418762	-0.000224
C33	C	0.821263	-0.335633	-0.000219
C34	C	0.822794	-0.231329	-0.000215
C35	C	0.947636	0.115541	-0.000251
C36	C	1.024745	0.117040	-0.000276
C37	C	0.815794	0.291430	-0.000225
C38	C	0.817291	0.393802	-0.000230
N39	N	0.820634	0.122790	0.177938
N40	N	0.820682	0.122805	-0.178373
C41	C	0.867791	0.059929	0.217316
C42	C	0.867795	0.059925	0.296118
C43	C	0.820648	0.122798	0.335538
C44	C	0.773482	0.185664	0.296151
C45	C	0.773475	0.185660	0.217351
C46	C	0.811652	0.206826	0.460375
C47	C	0.811664	0.206831	0.539173
C48	C	0.820667	0.122809	0.578585
C49	C	0.829672	0.038778	0.539188
C50	C	0.829665	0.038775	0.460387
C51	C	0.820651	0.122808	0.420984
C52	C	0.867831	0.059938	0.703409
C53	C	0.867830	0.059932	0.782212
C54	C	0.773521	0.185679	0.782244
C55	C	0.773518	0.185676	0.703442
C56	C	0.820677	0.122807	0.664029
H57	H	0.016645	0.269658	-0.000277
C58	C	0.190440	-0.056571	-0.000246
C59	C	0.270134	-0.055023	-0.000227
C60	C	0.318975	-0.146703	-0.000215
C61	C	0.288123	-0.239930	-0.000223
C62	C	0.208426	-0.241481	-0.000242
C63	C	0.159585	-0.149802	-0.000253
H64	H	0.292975	0.013992	-0.000222
H65	H	0.377972	-0.145554	-0.000201
H66	H	0.324279	-0.307796	-0.000214
H67	H	0.185584	-0.310496	-0.000247
H68	H	0.100587	-0.150951	-0.000268
H69	H	0.906198	0.008734	0.328185
C70	C	0.721651	0.254834	0.660119
C71	C	0.669807	0.324021	0.703473
C72	C	0.617935	0.393179	0.660150
C73	C	0.617908	0.393150	0.573473
C74	C	0.669754	0.323960	0.530114
C75	C	0.721625	0.254802	0.573437
H76	H	0.669826	0.324045	0.767641
H77	H	0.579556	0.444398	0.692247
H78	H	0.579510	0.444345	0.541402
H79	H	0.669735	0.323936	0.465946
H80	H	0.760005	0.203583	0.541340
C81	C	0.485216	-0.050835	-0.000188
C82	C	0.437617	-0.074922	0.064806
C83	C	0.406763	-0.168153	0.064799
C84	C	0.423509	-0.237297	-0.000201
C85	C	0.471111	-0.213211	-0.065200
C86	C	0.501964	-0.119981	-0.065194
H87	H	0.425218	-0.023736	0.112928
H88	H	0.371525	-0.185982	0.112916
H89	H	0.400669	-0.306311	-0.000206
H90	H	0.483509	-0.264397	-0.113322
H91	H	0.537202	-0.102152	-0.113310
H92	H	0.397781	0.007267	-0.079797
C93	C	0.919706	-0.009220	0.825533
C94	C	0.971592	-0.078351	0.782179
C95	C	1.023468	-0.147503	0.825502
C96	C	1.023459	-0.147524	0.912179
C97	C	0.971571	-0.078390	0.955538
C98	C	0.919695	-0.009238	0.912215
H99	H	0.971601	-0.078338	0.718011
H100	H	1.061879	-0.198680	0.793404
H101	H	1.061861	-0.198714	0.944250
H102	H	0.971562	-0.078402	1.019706
H103	H	0.881284	0.041940	0.944313
C104	C	0.257788	-0.013885	-0.092357
C105	C	0.304552	-0.083934	-0.140590
C106	C	0.271622	-0.155532	-0.188851
C107	C	0.191929	-0.157080	-0.188879
C108	C	0.145161	-0.087028	-0.140643
C109	C	0.178090	-0.015431	-0.092382
H110	H	0.363549	-0.082791	-0.140571
H111	H	0.306243	-0.207389	-0.224558
H112	H	0.167552	-0.210080	-0.224604
H113	H	0.086163	-0.088172	-0.140662
H114	H	0.143469	0.036426	-0.056676
H115	H	0.906229	0.008743	0.671318
H116	H	0.804309	0.275251	0.428292
H117	H	0.624670	-0.024063	-0.000150
H118	H	0.837003	-0.029641	0.571275
C119	C	0.839557	-0.053652	0.417050
C120	C	0.849456	-0.146080	0.460390
C121	C	0.859342	-0.238508	0.417052
C122	C	0.859328	-0.238508	0.330375
C123	C	0.849429	-0.146076	0.287030
C124	C	0.839543	-0.053648	0.330368
H125	H	0.849466	-0.146083	0.524558
H126	H	0.866670	-0.306931	0.449139
H127	H	0.866646	-0.306928	0.298294
H128	H	0.849419	-0.146073	0.222862
H129	H	0.832215	0.014775	0.298281
H130	H	0.735130	0.236867	0.814340
H131	H	0.374969	0.240895	0.079362
C132	C	0.919657	-0.009232	0.173960
C133	C	0.892427	-0.079674	0.119813
C134	C	0.944292	-0.148836	0.076454
C135	C	1.023386	-0.147557	0.087241
C136	C	1.050620	-0.077113	0.141390
C137	C	0.998756	-0.007951	0.184750
H138	H	0.833874	-0.080623	0.111825
H139	H	0.924131	-0.200983	0.036369
H140	H	1.061779	-0.198755	0.055144
H141	H	1.109174	-0.076164	0.149378
H142	H	1.018917	0.044197	0.224835
C143	C	0.450869	0.302169	-0.000210
C144	C	0.371177	0.300615	-0.000229
C145	C	0.322331	0.392291	-0.000251
C146	C	0.353179	0.485521	-0.000254
C147	C	0.432875	0.487078	-0.000235
C148	C	0.481721	0.395402	-0.000213
H149	H	0.348338	0.231597	-0.000227
H150	H	0.263335	0.391137	-0.000265
H151	H	0.317020	0.553385	-0.000271
H152	H	0.455714	0.556096	-0.000238
H153	H	0.540717	0.396556	-0.000199
C154	C	0.801758	0.299260	0.582506
C155	C	0.791839	0.391682	0.539160
C156	C	0.781931	0.484114	0.582490
C157	C	0.781942	0.484124	0.669168
C158	C	0.791861	0.391698	0.712519
C159	C	0.801769	0.299266	0.669188
H160	H	0.791831	0.391678	0.474992
H161	H	0.774589	0.552534	0.550398
H162	H	0.774608	0.552547	0.701244
H163	H	0.791869	0.391702	0.776687
H164	H	0.809111	0.230847	0.701280
C165	C	0.721602	0.254816	0.174029
C166	C	0.669759	0.324003	0.217383
C167	C	0.617887	0.393161	0.174060
C168	C	0.617860	0.393132	0.087383
C169	C	0.669705	0.323942	0.044024
C170	C	0.721577	0.254784	0.087347
H171	H	0.669777	0.324027	0.281551
H172	H	0.579507	0.444380	0.206157
H173	H	0.579461	0.444327	0.055312
H174	H	0.669687	0.323918	-0.020144
H175	H	0.759956	0.203565	0.055250
H176	H	0.594998	0.280918	-0.000185
H177	H	0.243528	0.238332	0.079338
H178	H	0.046308	-0.035317	-0.000319
C179	C	0.156097	0.296437	-0.000265
C180	C	0.203683	0.320528	-0.065270
C181	C	0.234531	0.413763	-0.065272
C182	C	0.217792	0.482907	-0.000270
C183	C	0.170204	0.458817	0.064739
C184	C	0.139356	0.365582	0.064742
H185	H	0.216076	0.269343	-0.113393
H186	H	0.269759	0.431596	-0.113397
H187	H	0.240628	0.551925	-0.000272
H188	H	0.157811	0.510003	0.112862
H189	H	0.104128	0.347750	0.112866
H190	H	0.735093	0.236854	0.328251
