data_functionalizedCrystal
_audit_creation_method	'MofGen! by Chris Wilmer'
_symmetry_space_group_name_H-M	'P1'
_symmetry_Int_Tables_number	1
_symmetry_cell_setting	triclinic
loop_
_symmetry_equiv_pos_as_xyz
  x,y,z
_cell_length_a	17.640112
_cell_length_b	25.639239
_cell_length_c	17.640618
_cell_angle_alpha	78.768777
_cell_angle_beta	92.134647
_cell_angle_gamma	101.263838
loop_
_atom_site_label
_atom_site_type_symbol
_atom_site_fract_x
_atom_site_fract_y
_atom_site_fract_z
Zn1	Zn	1.247788	-0.015021	-0.195084
Zn2	Zn	1.747788	0.484979	0.304916
Zn3	Zn	1.221962	-0.122899	-0.068100
Zn4	Zn	1.721962	0.377101	0.431900
Zn5	Zn	1.095097	-0.049035	-0.093728
Zn6	Zn	1.595097	0.450965	0.406272
Zn7	Zn	1.120718	-0.116014	-0.220685
Zn8	Zn	1.620718	0.383986	0.279315
O9	O	1.171391	-0.075742	-0.144399
O10	O	1.671391	0.424258	0.355601
O11	O	1.350634	-0.017978	-0.156800
O12	O	1.850634	0.482022	0.343200
O13	O	1.183603	-0.130216	0.034776
O14	O	1.683603	0.369784	0.534776
O15	O	1.115437	0.028656	-0.107185
O16	O	1.615437	0.528656	0.392815
O17	O	1.331660	-0.097235	-0.063505
O18	O	1.831660	0.402765	0.436495
O19	O	1.227618	0.053645	-0.181651
O20	O	1.727618	0.553645	0.318349
O21	O	1.090396	-0.075949	0.015946
O22	O	1.590396	0.424051	0.515946
O23	O	0.992224	-0.069273	-0.132009
O24	O	1.492224	0.430727	0.367991
O25	O	1.159105	-0.085501	-0.323564
O26	O	1.659105	0.414499	0.176436
O27	O	1.011047	-0.118483	-0.225283
O28	O	1.511047	0.381517	0.274717
O29	O	1.252462	-0.011302	-0.304755
O30	O	1.752462	0.488698	0.195245
O31	O	1.208447	-0.195164	-0.088329
O32	O	1.708447	0.304836	0.411671
O33	O	1.134063	-0.190105	-0.200433
O34	O	1.634063	0.309895	0.299567
C35	C	0.974080	-0.096822	-0.184206
C36	C	1.474080	0.403178	0.315794
C37	C	0.889673	-0.105850	-0.201253
C38	C	1.389673	0.394150	0.298747
C39	C	0.563037	-0.007148	-0.014898
C40	C	1.063037	0.492852	0.485102
C41	C	0.483726	-0.015640	-0.030927
C42	C	0.983726	0.484360	0.469073
C43	C	0.503348	-0.067001	-0.127887
C44	C	1.003348	0.432999	0.372113
C45	C	0.582663	-0.058511	-0.111868
C46	C	1.082663	0.441489	0.388132
C47	C	0.612501	-0.028585	-0.055373
C48	C	1.112501	0.471415	0.444627
C49	C	0.632126	-0.079948	-0.152343
C50	C	1.132126	0.420052	0.347657
C51	C	0.711433	-0.071461	-0.136323
C52	C	1.211433	0.428539	0.363677
C53	C	0.741277	-0.041537	-0.079829
C54	C	1.241277	0.458463	0.420171
C55	C	0.691808	-0.020098	-0.039353
C56	C	1.191808	0.479902	0.460647
C57	C	0.602286	-0.109877	-0.208834
C58	C	1.102286	0.390123	0.291166
C59	C	0.651749	-0.131314	-0.249309
C60	C	1.151749	0.368686	0.250691
C61	C	0.731059	-0.122824	-0.233293
C62	C	1.231059	0.377176	0.266707
C63	C	0.760903	-0.092900	-0.176799
C64	C	1.260903	0.407100	0.323201
C65	C	0.780528	-0.144263	-0.273769
C66	C	1.280528	0.355737	0.226231
C67	C	0.859835	-0.135776	-0.257749
C68	C	1.359835	0.364224	0.242251
C69	C	0.840210	-0.084413	-0.160779
C70	C	1.340210	0.415587	0.339221
C71	C	1.171257	-0.211604	-0.144390
C72	C	1.671257	0.288396	0.355610
C73	C	1.171274	-0.269715	-0.144398
C74	C	1.671274	0.230285	0.355602
C75	C	1.210266	-0.632656	-0.086084
C76	C	1.710266	-0.132656	0.413916
C77	C	1.210298	-0.687256	-0.086088
C78	C	1.710298	-0.187256	0.413912
O79	O	1.243311	-0.717705	-0.036497
O80	O	1.743311	-0.217705	0.463503
N81	N	1.171535	-0.711959	-0.144423
N82	N	1.671535	-0.211959	0.355577
C83	C	1.132745	-0.682058	-0.202761
C84	C	1.632745	-0.182058	0.297239
O85	O	1.099778	-0.708083	-0.252380
O86	O	1.599778	-0.208083	0.247620
C87	C	1.132718	-0.627458	-0.202759
C88	C	1.632718	-0.127458	0.297241
C89	C	1.171477	-0.602760	-0.144417
C90	C	1.671477	-0.102760	0.355583
C91	C	1.249023	-0.607957	-0.027747
C92	C	1.749023	-0.107957	0.472253
C93	C	1.248990	-0.553361	-0.027742
C94	C	1.748990	-0.053361	0.472258
C95	C	1.210201	-0.523465	-0.086075
C96	C	1.710201	-0.023465	0.413925
C97	C	1.171444	-0.548164	-0.144412
C98	C	1.671444	-0.048164	0.355588
C99	C	1.093933	-0.597558	-0.261100
C100	C	1.593933	-0.097558	0.238900
C101	C	1.093911	-0.542955	-0.261093
C102	C	1.593911	-0.042955	0.238907
C103	C	1.132669	-0.518256	-0.202751
C104	C	1.632669	-0.018256	0.297249
C105	C	1.132622	-0.463672	-0.202740
C106	C	1.632622	0.036328	0.297260
N107	N	1.171385	-0.438969	-0.144405
N108	N	1.671385	0.061031	0.355595
C109	C	1.210174	-0.468865	-0.086073
C110	C	1.710174	0.031135	0.413927
C111	C	1.132804	-0.796721	-0.202761
C112	C	1.632804	-0.296721	0.297239
C113	C	1.132826	-0.851320	-0.202761
C114	C	1.632826	-0.351320	0.297239
C115	C	1.210380	-0.856514	-0.086089
C116	C	1.710380	-0.356514	0.413911
C117	C	1.210354	-0.801914	-0.086087
C118	C	1.710354	-0.301914	0.413913
C119	C	1.171567	-0.772017	-0.144427
C120	C	1.671567	-0.272017	0.355573
C121	C	1.210102	-0.354211	-0.086067
C122	C	1.710102	0.145789	0.413933
C123	C	1.210063	-0.299611	-0.086065
C124	C	1.710063	0.200389	0.413935
C125	C	1.132512	-0.294421	-0.202739
C126	C	1.632512	0.205579	0.297261
C127	C	1.132547	-0.349017	-0.202739
C128	C	1.632547	0.150983	0.297261
C129	C	1.171348	-0.378911	-0.144399
C130	C	1.671348	0.121089	0.355601
O131	O	1.099629	-0.433189	-0.252308
O132	O	1.599629	0.066811	0.247692
O133	O	1.243144	-0.442831	-0.036468
O134	O	1.743144	0.057169	0.463532
C135	C	1.369473	-0.054580	-0.104438
C136	C	1.869473	0.445420	0.395562
C137	C	1.453884	-0.045562	-0.087409
C138	C	1.953884	0.454438	0.412591
C139	C	1.211522	-0.043839	-0.342486
C140	C	1.711522	0.456161	0.157514
C141	C	1.228624	-0.030244	-0.426899
C142	C	1.728624	0.469756	0.073101
C143	C	1.171551	0.060655	-0.144421
C144	C	1.671551	0.560655	0.355579
C145	C	1.171619	0.118780	-0.144430
C146	C	1.671619	0.618780	0.355570
C147	C	1.301328	0.027546	-0.536084
C148	C	1.801328	0.527546	-0.036084
C149	C	1.285254	0.014766	-0.456767
C150	C	1.785254	0.514766	0.043233
C151	C	1.188043	-0.062492	-0.476344
C152	C	1.688043	0.437508	0.023656
C153	C	1.204107	-0.049718	-0.555665
C154	C	1.704107	0.450282	-0.055665
C155	C	1.260751	-0.004699	-0.585529
C156	C	1.760751	0.495301	-0.085529
C157	C	1.163530	-0.081962	-0.605110
C158	C	1.663530	0.418038	-0.105110
C159	C	1.179596	-0.069190	-0.684424
C160	C	1.679596	0.430810	-0.184424
C161	C	1.236239	-0.024174	-0.714293
C162	C	1.736239	0.475826	-0.214293
C163	C	1.276817	0.008073	-0.664843
C164	C	1.776817	0.508073	-0.164843
C165	C	1.106890	-0.126983	-0.575244
C166	C	1.606890	0.373017	-0.075244
C167	C	1.066313	-0.159228	-0.624689
C168	C	1.566313	0.340772	-0.124689
C169	C	1.082375	-0.146454	-0.704005
C170	C	1.582375	0.353546	-0.204005
C171	C	1.139018	-0.101438	-0.733874
C172	C	1.639018	0.398562	-0.233874
C173	C	1.041796	-0.178701	-0.753455
C174	C	1.541796	0.321299	-0.253455
C175	C	1.057862	-0.165929	-0.832769
C176	C	1.557862	0.334071	-0.332769
C177	C	1.155083	-0.088666	-0.813188
C178	C	1.655083	0.411334	-0.313188
C179	C	1.131460	-0.107478	0.052926
C180	C	1.631460	0.392522	0.552926
C181	C	1.114506	-0.120910	0.137368
C182	C	1.614506	0.379090	0.637368
H183	H	0.479042	-0.091369	-0.173883
H184	H	0.979042	0.408631	0.326117
H185	H	1.322933	0.044737	-0.689160
H186	H	1.822933	0.544737	-0.189160
F187	F	1.091235	-0.262594	-0.264819
F188	F	1.591235	0.237406	0.235181
H189	H	1.141926	-0.099148	-0.452018
H190	H	1.641926	0.400852	0.047982
F191	F	1.290313	-0.639767	0.034343
F192	F	1.790313	-0.139767	0.534343
H193	H	0.864508	-0.060035	-0.114786
H194	H	1.364508	0.439965	0.385214
F195	F	0.825684	-0.032508	-0.062775
F196	F	1.325684	0.467492	0.437225
F197	F	1.006030	-0.207139	-0.592897
F198	F	1.506030	0.292861	-0.092897
H199	H	1.347445	0.064210	-0.560402
H200	H	1.847445	0.564210	-0.060402
H201	H	1.318299	0.041028	-0.416510
H202	H	1.818299	0.541028	0.083490
H203	H	0.995682	-0.215359	-0.729127
H204	H	1.495682	0.284641	-0.229127
F205	F	0.723569	0.011757	0.020771
F206	F	1.223569	0.511757	0.520771
F207	F	0.517877	-0.118916	-0.225875
F208	F	1.017877	0.381084	0.274125
F209	F	0.619983	-0.163169	-0.309426
F210	F	1.119983	0.336831	0.190574
H211	H	0.587335	0.017230	0.031095
H212	H	1.087335	0.517230	0.531095
H213	H	0.756220	-0.168634	-0.319762
H214	H	1.256220	0.331366	0.180238
H215	H	1.024820	-0.192186	-0.873028
H216	H	1.524820	0.307814	-0.373028
F217	F	1.089797	-0.140578	-0.490829
F218	F	1.589797	0.359422	0.009171
H219	H	0.900110	-0.153231	-0.290708
H220	H	1.400110	0.346769	0.209292
H221	H	0.443455	0.001823	0.002031
H222	H	0.943455	0.501823	0.502031
H223	H	1.241624	-0.279504	-0.038553
H224	H	1.741624	0.220496	0.461447
H225	H	1.062327	-0.518614	-0.308603
H226	H	1.562327	-0.018614	0.191397
H227	H	1.241699	-0.378543	-0.038562
H228	H	1.741699	0.121457	0.461438
H229	H	1.201200	-0.052002	-0.837506
H230	H	1.701200	0.447998	-0.337506
F231	F	1.290253	-0.527080	0.034348
F232	F	1.790253	-0.027080	0.534348
H233	H	1.249320	-0.013778	-0.778875
H234	H	1.749320	0.486222	-0.278875
F235	F	1.251606	-0.775633	-0.023992
F236	F	1.751606	-0.275633	0.476008
H237	H	1.241968	-0.880865	-0.038593
H238	H	1.741968	-0.380865	0.461407
H239	H	1.101213	-0.772382	-0.250268
H240	H	1.601213	-0.272382	0.249732
F241	F	1.091563	-0.877603	-0.264850
F242	F	1.591563	-0.377603	0.235150
H243	H	1.062367	-0.617659	-0.308606
H244	H	1.562367	-0.117659	0.191394
H245	H	1.100990	-0.369127	-0.250248
H246	H	1.600990	0.130873	0.249752
