data_functionalizedCrystal
_audit_creation_method	'MofGen! by Chris Wilmer'
_symmetry_space_group_name_H-M	'P1'
_symmetry_Int_Tables_number	1
_symmetry_cell_setting	triclinic
loop_
_symmetry_equiv_pos_as_xyz
  x,y,z
_cell_length_a	10.489741
_cell_length_b	10.489741
_cell_length_c	10.868271
_cell_angle_alpha	89.995151
_cell_angle_beta	89.998385
_cell_angle_gamma	84.539174
loop_
_atom_site_label
_atom_site_type_symbol
_atom_site_fract_x
_atom_site_fract_y
_atom_site_fract_z
O1	O	1.694053	0.179969	-0.102245
O2	O	1.322858	0.196862	-0.102265
O3	O	1.516902	0.002817	-0.102247
O4	O	1.500009	0.374013	-0.102263
O5	O	1.516886	0.002810	0.102397
O6	O	1.322841	0.196854	0.102380
O7	O	1.694037	0.179961	0.102399
Zn8	Zn	1.508437	0.188406	0.134881
Zn9	Zn	1.508458	0.188416	-0.134747
O10	O	1.499993	0.374005	0.102382
C11	C	1.275318	0.195582	0.000055
C12	C	1.133688	0.191765	0.000048
C13	C	1.065548	0.068300	0.000065
C14	C	0.973429	0.126627	-0.100835
C15	C	0.973448	0.126649	0.100928
C16	C	1.043435	0.250143	-0.100935
C17	C	1.043463	0.250147	0.100919
C18	C	0.951371	0.308564	-0.000006
C19	C	1.515618	-0.044718	0.000074
C20	C	1.511801	-0.186348	0.000072
C21	C	1.388336	-0.254488	0.000057
C22	C	1.446652	-0.346614	0.100960
C23	C	1.446697	-0.346581	-0.100804
C24	C	1.570167	-0.276609	0.101059
C25	C	1.570195	-0.276566	-0.100796
C26	C	1.628600	-0.368665	0.000132
C27	C	1.741577	0.181241	0.000077
C28	C	1.883206	0.185058	0.000076
C29	C	1.501277	0.421541	0.000058
C30	C	1.505094	0.563170	0.000052
N31	N	1.508432	0.188398	0.318896
N32	N	1.508473	0.188414	-0.318761
C33	C	1.508451	0.188414	0.569902
C34	C	1.508436	0.188409	0.430224
H35	H	1.074270	0.302346	-0.186335
H36	H	1.622398	-0.245518	-0.186101
H37	H	1.394447	-0.377542	-0.186118
N38	N	1.377446	-0.387716	0.213942
H39	H	1.437288	-0.448002	0.264484
H40	H	1.347871	-0.309860	0.264752
N41	N	1.131305	-0.066166	-0.000061
H42	H	1.187202	-0.079082	-0.075547
H43	H	1.185906	-0.079682	0.076220
N44	N	0.932349	0.057445	-0.213829
H45	H	0.974282	-0.033311	-0.213754
H46	H	0.836196	0.056203	-0.213326
N47	N	0.885890	0.443142	-0.000075
H48	H	0.911330	0.489596	-0.076326
H49	H	0.789999	0.439722	0.000699
H50	H	1.074502	0.302342	0.186224
N51	N	0.932397	0.057428	0.213924
H52	H	0.974339	-0.033324	0.213831
H53	H	0.959104	0.103243	0.290069
H54	H	1.622356	-0.245780	0.186460
N55	N	1.763176	-0.434150	0.000198
H56	H	1.826595	-0.367491	0.000959
H57	H	1.776144	-0.490007	0.075706
H58	H	1.286824	-0.204837	0.000153
