data_functionalizedCrystal
_audit_creation_method	'MofGen! by Chris Wilmer'
_symmetry_space_group_name_H-M	'P1'
_symmetry_Int_Tables_number	1
_symmetry_cell_setting	triclinic
loop_
_symmetry_equiv_pos_as_xyz
  x,y,z
_cell_length_a	17.038272
_cell_length_b	17.666332
_cell_length_c	17.019370
_cell_angle_alpha	86.128250
_cell_angle_beta	87.243908
_cell_angle_gamma	90.003567
loop_
_atom_site_label
_atom_site_type_symbol
_atom_site_fract_x
_atom_site_fract_y
_atom_site_fract_z
O1	O	1.037224	0.051693	0.171285
O2	O	0.809596	0.051893	0.168566
O3	O	0.929761	0.059242	0.055521
O4	O	0.917059	0.044344	0.284330
O5	O	0.929740	-0.066654	0.055513
O6	O	0.809575	-0.074004	0.168558
O7	O	1.037203	-0.074203	0.171277
Cu8	Cu	0.923387	-0.085599	0.169917
Cu9	Cu	0.923412	0.063288	0.169926
O10	O	0.917038	-0.081552	0.284322
C11	C	0.780459	-0.010892	0.166088
C12	C	0.693672	-0.010402	0.158708
N13	N	0.923375	-0.190318	0.169910
C14	C	0.643500	-0.014815	0.226467
C15	C	0.561955	-0.014373	0.219528
C16	C	0.530585	-0.009514	0.144829
C17	C	0.580764	-0.005104	0.077064
C18	C	0.662307	-0.005550	0.084004
C19	C	0.284848	-0.007938	0.120311
C20	C	0.203299	-0.007489	0.113376
C21	C	0.184495	-0.016760	0.255840
C22	C	0.266041	-0.017202	0.262773
C23	C	0.316213	-0.012796	0.195009
C24	C	0.447234	-0.009060	0.137734
C25	C	0.399563	-0.013255	0.202105
C26	C	0.976601	-0.226675	0.119881
C27	C	0.976606	-0.305922	0.119878
C28	C	0.923392	-0.348810	0.169917
C29	C	0.870155	-0.312444	0.219949
C30	C	0.870147	-0.233197	0.219946
N31	N	0.913361	-0.477729	0.239043
N32	N	0.913374	-0.553010	0.239044
C33	C	0.923412	-0.587575	0.169930
N34	N	0.933453	-0.544016	0.100813
N35	N	0.933444	-0.468729	0.100812
C36	C	0.923394	-0.434740	0.169926
C37	C	0.976646	-0.709861	0.119893
C38	C	0.976646	-0.789110	0.119888
C39	C	0.870198	-0.795630	0.219967
C40	C	0.870196	-0.716383	0.219965
C41	C	0.923424	-0.673503	0.169929
C42	C	1.066340	-0.011417	0.173755
C43	C	1.153126	-0.011902	0.181135
N44	N	0.923430	0.168008	0.169927
C45	C	0.929269	-0.001789	0.026096
C46	C	0.927825	0.003924	-0.061570
C47	C	0.927134	-0.062014	-0.102767
C48	C	0.925782	-0.056639	-0.185139
C49	C	0.925117	0.014675	-0.226311
C50	C	0.925811	0.080619	-0.185109
C51	C	0.927168	0.075243	-0.102739
C52	C	0.921025	0.034339	-0.475015
C53	C	0.919665	0.039710	-0.557390
C54	C	0.919638	-0.097548	-0.557414
C55	C	0.920990	-0.102918	-0.475043
C56	C	0.921689	-0.036974	-0.433848
C57	C	0.923733	0.020171	-0.310508
C58	C	0.923078	-0.042471	-0.349652
C59	C	0.917530	-0.020520	0.313747
C60	C	0.918973	-0.026228	0.401413
H61	H	0.669034	-0.018771	0.287295
H62	H	0.555216	-0.001158	0.016243
H63	H	0.923189	0.078235	-0.344040
C64	C	0.412727	-0.003711	0.055564
C65	C	0.431690	0.065428	-0.002244
C66	C	0.397182	0.070774	-0.084413
C67	C	0.343710	0.006980	-0.108775
C68	C	0.324744	-0.062164	-0.050966
C69	C	0.359252	-0.067510	0.031204
H70	H	0.471275	0.112657	0.015789
H71	H	0.411222	0.121960	-0.127208
H72	H	0.318165	0.010938	-0.169602
H73	H	0.285158	-0.109393	-0.068998
H74	H	0.345212	-0.118696	0.073998
C75	C	0.918935	0.118158	-0.602687
C76	C	0.986990	0.174316	-0.595771
C77	C	0.986257	0.252758	-0.641071
C78	C	0.917469	0.275042	-0.693287
C79	C	0.849409	0.218884	-0.700206
C80	C	0.850142	0.140442	-0.654906
H81	H	1.037915	0.157820	-0.557115
H82	H	1.036640	0.294330	-0.635949
H83	H	0.916926	0.333110	-0.726821
H84	H	0.798483	0.235379	-0.738862
H85	H	0.799759	0.098870	-0.660028
C86	C	0.300536	-0.022556	0.344948
C87	C	0.281558	-0.091699	0.402748
C88	C	0.316049	-0.097052	0.484926
C89	C	0.369518	-0.033263	0.509304
C90	C	0.388498	0.035884	0.451503
C91	C	0.354007	0.041238	0.369325
H92	H	0.241975	-0.138924	0.384704
H93	H	0.301998	-0.148240	0.527714
H94	H	0.395050	-0.037226	0.570137
H95	H	0.428081	0.083109	0.469547
H96	H	0.368058	0.092425	0.326537
H97	H	1.019941	-0.191764	0.079137
C98	C	0.811599	-0.193199	0.274985
C99	C	0.753083	-0.240369	0.330053
C100	C	0.694535	-0.200368	0.385094
C101	C	0.694504	-0.113199	0.385068
C102	C	0.753023	-0.066025	0.329997
C103	C	0.811570	-0.106025	0.274956
H104	H	0.753104	-0.304901	0.330075
H105	H	0.651216	-0.235290	0.425861
H106	H	0.651164	-0.083589	0.425812
H107	H	0.753002	-0.001492	0.329976
H108	H	0.854889	-0.071103	0.234190
C109	C	1.035188	-0.662689	0.064848
C110	C	1.093729	-0.702688	0.009806
C111	C	1.152271	-0.655519	-0.045240
C112	C	1.152272	-0.568351	-0.045245
C113	C	1.093729	-0.528347	0.009799
C114	C	1.035187	-0.575516	0.064845
H115	H	1.093731	-0.767219	0.009807
H116	H	1.195609	-0.685133	-0.085987
H117	H	1.195609	-0.533434	-0.085993
H118	H	1.093728	-0.463816	0.009798
H119	H	0.991850	-0.545902	0.105592
H120	H	1.019987	-0.818712	0.079144
H121	H	0.927732	0.128937	-0.069197
H122	H	0.826826	-0.347367	0.260691
H123	H	0.927662	-0.120086	-0.069249
C124	C	0.811653	-0.676383	0.275005
C125	C	0.753137	-0.723552	0.330073
C126	C	0.694590	-0.683552	0.385114
C127	C	0.694559	-0.596383	0.385087
C128	C	0.753077	-0.549209	0.330017
C129	C	0.811624	-0.589209	0.274976
H130	H	0.753158	-0.788085	0.330095
H131	H	0.651271	-0.718474	0.425881
H132	H	0.651218	-0.566772	0.425832
H133	H	0.753056	-0.484676	0.329996
H134	H	0.854943	-0.554287	0.234210
C135	C	0.925029	-0.129184	-0.230438
C136	C	0.856248	-0.144668	-0.282669
C137	C	0.855501	-0.217221	-0.327960
C138	C	0.923535	-0.274291	-0.321019
C139	C	0.992321	-0.258810	-0.268786
C140	C	0.993068	-0.186256	-0.223495
H141	H	0.805881	-0.102419	-0.287809
H142	H	0.804581	-0.228682	-0.366627
H143	H	0.922982	-0.328000	-0.354546
H144	H	1.042688	-0.301058	-0.263646
H145	H	1.043988	-0.174795	-0.184828
H146	H	0.521107	-0.017966	0.274704
C147	C	0.918876	-0.170080	-0.602734
C148	C	0.850086	-0.185537	-0.654964
C149	C	0.849327	-0.258071	-0.700285
C150	C	0.917357	-0.315149	-0.693377
C151	C	0.986152	-0.299693	-0.641145
C152	C	0.986912	-0.227159	-0.595824
H153	H	0.799721	-0.143284	-0.660079
H154	H	0.798400	-0.269512	-0.738950
H155	H	0.916795	-0.368843	-0.726927
H156	H	1.036517	-0.341947	-0.636030
H157	H	1.037839	-0.215718	-0.557159
H158	H	0.143637	-0.020349	0.311009
H159	H	0.826867	-0.830549	0.260706
H160	H	1.019951	-0.335530	0.079137
H161	H	0.921592	0.088035	-0.441483
C162	C	0.717501	-0.000695	0.009469
C163	C	0.714046	-0.062183	-0.050252
C164	C	0.769240	-0.057332	-0.124790
C165	C	0.827889	0.009008	-0.139607
C166	C	0.831347	0.070501	-0.079884
C167	C	0.776153	0.065649	-0.005347
H168	H	0.670628	-0.111296	-0.039285
H169	H	0.766680	-0.102854	-0.169000
H170	H	0.868747	0.012599	-0.194784
H171	H	0.874764	0.119613	-0.090851
H172	H	0.778713	0.111171	0.038864
H173	H	0.177761	-0.003531	0.052544
H174	H	0.925274	0.138684	-0.218639
H175	H	0.425108	-0.017215	0.262924
H176	H	0.325689	-0.004351	0.065132
H177	H	0.921549	-0.160989	-0.441526
H178	H	0.923624	-0.100534	-0.316126
