data_functionalizedCrystal
_audit_creation_method	'MofGen! by Chris Wilmer'
_symmetry_space_group_name_H-M	'P1'
_symmetry_Int_Tables_number	1
_symmetry_cell_setting	triclinic
loop_
_symmetry_equiv_pos_as_xyz
  x,y,z
_cell_length_a	14.853569
_cell_length_b	13.930277
_cell_length_c	14.853569
_cell_angle_alpha	89.994278
_cell_angle_beta	83.635693
_cell_angle_gamma	89.995143
loop_
_atom_site_label
_atom_site_type_symbol
_atom_site_fract_x
_atom_site_fract_y
_atom_site_fract_z
O1	O	-1.196368	0.079781	-0.117713
O2	O	-0.933909	0.079795	-0.131732
O3	O	-1.072148	0.079778	0.006507
O4	O	-1.058128	0.079797	-0.255952
O5	O	-1.072129	-0.079884	0.006510
O6	O	-0.933889	-0.079867	-0.131729
O7	O	-1.196349	-0.079881	-0.117710
Zn8	Zn	-1.065116	-0.105224	-0.124719
Zn9	Zn	-1.065141	0.105138	-0.124723
O10	O	-1.058109	-0.079865	-0.255949
C11	C	-0.900310	-0.000035	-0.131095
C12	C	-0.800227	-0.000030	-0.129190
N13	N	-1.065105	-0.248790	-0.124716
C14	C	-0.763850	-0.000032	-0.046180
C15	C	-0.742561	-0.000031	-0.210412
C16	C	-0.648527	-0.000031	-0.208625
C17	C	-0.612150	-0.000034	-0.125615
C18	C	-0.669807	-0.000035	-0.044390
C19	C	-0.590863	-0.000039	-0.289848
C20	C	-0.496823	-0.000041	-0.288065
C21	C	-0.460444	-0.000036	-0.205053
C22	C	-0.518108	-0.000037	-0.123825
C23	C	-0.481730	-0.000039	-0.040814
C24	C	-0.539392	-0.000033	0.040414
C25	C	-0.633429	-0.000031	0.038622
C26	C	-0.366408	-0.000039	-0.203260
C27	C	-0.387688	-0.000043	-0.039025
C28	C	-1.003926	-0.701052	-0.185911
C29	C	-1.126381	-0.701036	-0.063528
C30	C	-1.126370	-0.600540	-0.063525
C31	C	-1.065138	-0.550296	-0.124717
C32	C	-1.003916	-0.600547	-0.185912
C33	C	-1.187597	-0.550281	-0.002337
C34	C	-1.187590	-0.449780	-0.002332
C35	C	-1.126352	-0.399533	-0.063521
C36	C	-1.065127	-0.449791	-0.124718
C37	C	-1.003894	-0.399546	-0.185910
C38	C	-0.942664	-0.449802	-0.247103
C39	C	-0.942678	-0.550301	-0.247101
C40	C	-1.126338	-0.299034	-0.063524
C41	C	-1.003883	-0.299041	-0.185911
C42	C	-0.229947	-0.000048	-0.118346
C43	C	-0.330031	-0.000041	-0.120249
C44	C	-1.071503	-0.000053	0.040097
C45	C	-1.069599	-0.000054	0.140181
N46	N	-1.065159	0.248704	-0.124719
C47	C	-1.058754	-0.000031	-0.289539
C48	C	-1.060659	-0.000024	-0.389623
C49	C	-0.986588	-0.000051	0.176558
C50	C	-1.150820	-0.000049	0.197846
C51	C	-1.149034	-0.000045	0.291881
C52	C	-1.066023	-0.000042	0.328258
C53	C	-0.984799	-0.000044	0.270601
C54	C	-1.230257	-0.000034	0.349544
C55	C	-1.228473	-0.000029	0.443585
C56	C	-1.145462	-0.000033	0.479964
C57	C	-1.064234	-0.000035	0.422300
C58	C	-0.981223	-0.000033	0.458678
C59	C	-0.899995	-0.000042	0.401016
C60	C	-0.901787	-0.000048	0.306980
C61	C	-1.143669	-0.000027	0.574000
C62	C	-0.979434	-0.000026	0.552720
H63	H	-0.358078	-0.000040	0.028573
Cl64	Cl	-0.836335	-0.000023	0.055931
H65	H	-0.911836	-0.000032	0.582330
H66	H	-0.772186	-0.000035	-0.277996
Cl67	Cl	-1.264559	-0.386608	0.074597
Cl68	Cl	-0.293924	-0.000058	-0.305367
H69	H	-0.620489	-0.000043	-0.357431
H70	H	-0.832407	-0.000034	0.430647
Cl71	Cl	-0.424343	-0.000041	-0.390178
Cl72	Cl	-0.799681	-0.000052	0.234487
H73	H	-0.954017	-0.258138	-0.235738
Cl74	Cl	-0.493650	-0.000045	0.144767
H75	H	-1.294615	-0.000023	0.490526
H76	H	-0.892827	-0.591225	-0.296923
H77	H	-0.892812	-0.408881	-0.296930
H78	H	-1.209804	-0.000010	0.620944
H79	H	-0.680385	-0.000028	0.104753
Cl80	Cl	-1.334606	-0.000026	0.303809
Cl81	Cl	-0.926951	-0.764225	-0.262833
Cl82	Cl	-1.255171	-0.000042	0.152113
H83	H	-1.176239	-0.741948	-0.013711
H84	H	-1.237456	-0.591194	0.047480
H85	H	-1.176195	-0.258121	-0.013705
H86	H	-0.920454	-0.000063	0.129606
