data_functionalizedCrystal
_audit_creation_method	'MofGen! by Chris Wilmer'
_symmetry_space_group_name_H-M	'P1'
_symmetry_Int_Tables_number	1
_symmetry_cell_setting	triclinic
loop_
_symmetry_equiv_pos_as_xyz
  x,y,z
_cell_length_a	10.723024
_cell_length_b	22.010155
_cell_length_c	10.723024
_cell_angle_alpha	89.994530
_cell_angle_beta	84.467869
_cell_angle_gamma	90.008235
loop_
_atom_site_label
_atom_site_type_symbol
_atom_site_fract_x
_atom_site_fract_y
_atom_site_fract_z
O1	O	1.657197	0.050520	0.175010
O2	O	1.294045	0.050521	0.191763
O3	O	1.483998	0.050518	0.001810
O4	O	1.467245	0.050523	0.364963
O5	O	1.483963	-0.050532	0.001839
O6	O	1.294011	-0.050529	0.191792
O7	O	1.657163	-0.050531	0.175038
Cu8	Cu	1.475584	-0.059757	0.183418
Cu9	Cu	1.475624	0.059747	0.183384
O10	O	1.467210	-0.050528	0.364991
C11	C	1.247528	-0.000003	0.190558
C12	C	1.108974	-0.000003	0.186911
N13	N	1.475564	-0.143809	0.183441
C14	C	1.033991	-0.000001	0.293198
C15	C	0.890788	-0.000000	0.289431
C16	C	1.559741	-0.563590	0.099285
C17	C	1.559746	-0.627197	0.099277
O18	O	1.631266	-0.660090	0.027740
N19	N	1.475623	-0.659016	0.183358
C20	C	1.391481	-0.627224	0.267445
O21	O	1.319928	-0.660129	0.338961
C22	C	1.391470	-0.563617	0.267446
C23	C	1.475607	-0.531802	0.183368
C24	C	1.643870	-0.531774	0.015213
C25	C	1.643865	-0.468171	0.015223
C26	C	1.559732	-0.436383	0.099306
C27	C	1.475603	-0.468199	0.183378
C28	C	1.307322	-0.531826	0.351526
C29	C	1.307318	-0.468216	0.351520
C30	C	1.391455	-0.436400	0.267441
C31	C	1.391465	-0.372808	0.267472
N32	N	1.475587	-0.340989	0.183390
C33	C	1.559721	-0.372777	0.099307
C34	C	1.391508	-0.760802	0.267434
C35	C	1.391524	-0.824407	0.267439
C36	C	1.559788	-0.824376	0.099269
C37	C	1.559778	-0.760770	0.099271
C38	C	1.475631	-0.728983	0.183352
C39	C	1.559706	-0.239206	0.099336
C40	C	1.559698	-0.175597	0.099358
C41	C	1.391429	-0.175633	0.267523
C42	C	1.391442	-0.239236	0.267507
C43	C	1.475585	-0.271021	0.183403
O44	O	1.319978	-0.339875	0.338968
O45	O	1.631251	-0.339864	0.027792
C46	C	1.703680	-0.000005	0.176243
C47	C	1.842234	-0.000001	0.179891
C48	C	1.482762	-0.000006	-0.044675
C49	C	1.479114	-0.000004	-0.183229
N50	N	1.475654	0.143800	0.183351
C51	C	1.585401	-0.000004	-0.258212
C52	C	1.581634	-0.000002	-0.401415
C53	C	1.468447	-0.000002	0.411477
C54	C	1.472094	0.000000	0.550031
H55	H	1.075814	-0.000003	0.386984
H56	H	1.712373	-0.442271	-0.053244
C57	C	1.736424	-0.566734	-0.077283
H58	H	1.724392	-0.609174	-0.065264
H59	H	1.819813	-0.556296	-0.062962
H60	H	1.722154	-0.556303	-0.160696
H61	H	0.826355	0.000004	0.380421
C62	C	0.929255	-0.000000	0.056957
H63	H	0.880215	0.000004	-0.012255
H64	H	0.980609	-0.035237	0.053643
H65	H	0.980621	0.035244	0.053633
H66	H	1.672624	-0.000004	-0.465848
C67	C	1.652246	-0.140603	0.006862
H68	H	1.702342	-0.168648	-0.043223
H69	H	1.704574	-0.115789	0.052226
H70	H	1.606905	-0.115792	-0.045499
H71	H	1.067152	0.000012	0.093125
H72	H	1.628288	-0.734869	0.030806
C73	C	1.652266	-0.274160	0.006830
H74	H	1.702370	-0.246095	-0.043225
H75	H	1.606950	-0.298974	-0.045541
H76	H	1.704603	-0.298969	0.052199
C77	C	1.214781	-0.566810	0.444025
H78	H	1.164675	-0.538760	0.494087
H79	H	1.260112	-0.591619	0.496388
H80	H	1.162443	-0.591626	0.398663
H81	H	1.628293	-0.850269	0.030802
C82	C	1.298975	-0.859397	0.359926
H83	H	1.248864	-0.831350	0.409992
H84	H	1.344292	-0.884213	0.412289
H85	H	1.246644	-0.884207	0.314544
H86	H	1.322989	-0.734924	0.335913
H87	H	1.679187	-0.000008	-0.216390
C88	C	1.349160	-0.000001	-0.362948
H89	H	1.279948	-0.000003	-0.411988
H90	H	1.345852	0.035236	-0.311590
H91	H	1.345830	-0.035246	-0.311586
C92	C	1.214761	-0.433254	0.444018
H93	H	1.164667	-0.461316	0.494092
H94	H	1.162432	-0.408441	0.398660
H95	H	1.260095	-0.408444	0.496390
C96	C	1.298847	-0.274235	0.359942
H97	H	1.248721	-0.246191	0.410000
H98	H	1.344116	-0.299067	0.412318
H99	H	1.246536	-0.299029	0.314504
C100	C	1.298881	-0.140659	0.359998
H101	H	1.310924	-0.098221	0.347943
H102	H	1.313122	-0.151081	0.443416
H103	H	1.215485	-0.151089	0.345660
H104	H	1.385328	0.000000	-0.225051
