data_functionalizedCrystal
_audit_creation_method	'MofGen! by Chris Wilmer'
_symmetry_space_group_name_H-M	'P1'
_symmetry_Int_Tables_number	1
_symmetry_cell_setting	triclinic
loop_
_symmetry_equiv_pos_as_xyz
  x,y,z
_cell_length_a	21.295418
_cell_length_b	16.959454
_cell_length_c	16.959447
_cell_angle_alpha	89.973264
_cell_angle_beta	90.034641
_cell_angle_gamma	89.964110
loop_
_atom_site_label
_atom_site_type_symbol
_atom_site_fract_x
_atom_site_fract_y
_atom_site_fract_z
Zn1	Zn	0.962345	0.314332	0.447357
Zn2	Zn	0.962283	0.446525	0.315187
Zn3	Zn	0.857085	0.314401	0.315148
Zn4	Zn	0.857057	0.446509	0.447278
O5	O	0.909692	0.380442	0.381243
O6	O	1.050426	0.331846	0.429874
O7	O	0.948314	0.429033	0.204571
O8	O	0.871085	0.203781	0.332702
O9	O	1.050381	0.428967	0.332769
O10	O	0.948420	0.203730	0.429836
O11	O	0.871026	0.331962	0.204542
O12	O	0.768992	0.331947	0.332626
O13	O	0.871037	0.428940	0.557900
O14	O	0.768971	0.429007	0.429702
O15	O	0.948392	0.331831	0.557958
O16	O	0.948287	0.557133	0.332692
O17	O	0.870978	0.557122	0.429740
C18	C	0.746141	0.380483	0.381152
C19	C	0.676173	0.380520	0.381131
C20	C	0.909640	0.585808	0.381229
C21	C	0.909675	0.673664	0.381250
C22	C	0.909719	0.380376	0.587411
C23	C	0.909730	0.380348	0.675267
C24	C	0.643312	0.431126	0.431603
C25	C	0.577569	0.431106	0.431639
C26	C	0.544690	0.380489	0.381188
C27	C	0.577559	0.329874	0.330713
C28	C	0.643300	0.329889	0.330684
N29	N	0.441422	0.374319	0.312053
N30	N	0.378971	0.374309	0.312083
C31	C	0.346615	0.380439	0.381272
N32	N	0.379071	0.386595	0.450433
N33	N	0.441528	0.386609	0.450403
C34	C	0.473405	0.380467	0.381214
C35	C	0.242469	0.431026	0.431787
C36	C	0.176725	0.431001	0.431824
C37	C	0.176716	0.329773	0.330891
C38	C	0.242459	0.329794	0.330861
C39	C	0.275331	0.380425	0.381308
C40	C	1.073883	0.380400	0.381334
C41	C	1.143851	0.380383	0.381373
C42	C	0.909762	0.174273	0.381273
C43	C	0.909792	0.086417	0.381286
C44	C	0.869496	1.045164	0.431770
C45	C	0.950064	1.045116	0.330796
C46	C	0.950042	0.962570	0.330789
C47	C	0.909746	0.921317	0.381272
C48	C	0.869471	0.962611	0.431762
C49	C	0.990312	0.921271	0.280294
C50	C	0.990291	0.838720	0.280284
C51	C	0.949997	0.797466	0.330771
C52	C	0.909721	0.838764	0.381264
C53	C	0.869425	0.797511	0.431748
C54	C	0.829152	0.838808	0.482245
C55	C	0.829177	0.921356	0.482250
C56	C	0.949971	0.714917	0.330767
C57	C	0.869400	0.714958	0.431740
C58	C	0.909702	0.380450	0.175876
C59	C	0.909813	0.380255	0.088020
C60	C	0.869530	0.430825	1.046716
C61	C	0.950080	0.329704	1.046771
C62	C	0.950063	0.329721	0.964225
C63	C	0.909780	0.380292	0.922921
C64	C	0.869513	0.430845	0.964162
C65	C	0.990334	0.279174	0.922977
C66	C	0.990319	0.279189	0.840426
C67	C	0.950032	0.329756	0.799120
C68	C	0.909763	0.380312	0.840367
C69	C	0.869480	0.430882	0.799063
C70	C	0.829207	0.481434	0.840308
C71	C	0.829226	0.481413	0.922856
C72	C	0.950013	0.329778	0.716572
C73	C	0.869463	0.430902	0.716509
H74	H	0.670072	0.472353	0.472682
H75	H	0.836588	0.681375	0.472853
C76	C	0.679449	0.274225	0.275159
H77	H	0.650454	0.244077	0.245113
H78	H	0.705143	0.239831	0.305441
H79	H	0.705045	0.304432	0.240652
H80	H	0.982804	0.288621	0.682994
C81	C	0.541395	0.274197	0.275219
H82	H	0.497535	0.281440	0.282459
H83	H	0.552211	0.221105	0.286873
H84	H	0.552122	0.285705	0.222083
H85	H	0.982758	0.681297	0.289649
C86	C	0.825197	1.090585	0.487310
H87	H	0.830978	1.145657	0.480085
H88	H	0.834376	1.077012	0.540432
H89	H	0.782902	1.077116	0.475666
C90	C	1.034610	0.223581	0.795060
H91	H	1.028833	0.230836	0.739981
H92	H	1.025418	0.170473	0.808601
H93	H	1.076907	0.235139	0.808601
C94	C	0.825233	0.486431	1.092076
H95	H	0.801238	0.516546	1.055652
H96	H	0.849305	0.520857	1.124285
H97	H	0.797818	0.456187	1.124269
H98	H	0.149971	0.472209	0.472929
C99	C	0.784876	0.966783	0.537782
H100	H	0.790656	1.021854	0.530547
H101	H	0.794051	0.953220	0.590907
H102	H	0.742581	0.953311	0.526136
C103	C	0.784829	0.793425	0.537774
H104	H	0.790586	0.738348	0.530535
H105	H	0.742542	0.807012	0.526146
H106	H	0.794024	0.806905	0.590902
H107	H	0.836653	0.472076	0.682885
H108	H	0.269235	0.472249	0.472868
H109	H	0.149947	0.288556	0.289816
C110	C	0.784898	0.537058	0.794868
H111	H	0.790657	0.529824	0.739798
H112	H	0.794090	0.590162	0.808388
H113	H	0.742606	0.525489	0.808373
C114	C	0.278608	0.274136	0.275331
H115	H	0.249612	0.243992	0.245284
H116	H	0.304301	0.239739	0.305611
H117	H	0.304205	0.304345	0.240826
C118	C	0.994385	1.090488	0.275265
H119	H	1.018365	1.054071	0.245190
H120	H	1.021805	1.122643	0.305545
H121	H	0.970327	1.122735	0.240786
C122	C	1.034632	0.966644	0.224763
H123	H	1.058608	0.930229	0.194683
H124	H	1.062054	0.998795	0.255044
H125	H	1.010572	0.998896	0.190289
H126	H	1.023084	0.805101	0.239167
C127	C	0.784935	0.537020	0.968223
H128	H	0.760937	0.567137	0.931803
H129	H	0.809013	0.571445	1.000426
H130	H	0.757523	0.506780	1.000422
C131	C	0.994385	0.274078	1.092203
H132	H	0.988624	0.281302	1.147273
H133	H	1.036675	0.285629	1.078692
H134	H	0.985178	0.220973	1.078683
C135	C	1.034645	0.223554	0.968408
H136	H	1.058631	0.193457	0.932023
H137	H	1.010585	0.189111	1.000607
H138	H	1.062068	0.253785	1.000615
C139	C	0.541415	0.486729	0.487206
H140	H	0.570408	0.516873	0.517257
H141	H	0.515833	0.456487	0.521692
H142	H	0.515706	0.521142	0.456957
