data_functionalizedCrystal
_audit_creation_method	'MofGen! by Chris Wilmer'
_symmetry_space_group_name_H-M	'P1'
_symmetry_Int_Tables_number	1
_symmetry_cell_setting	triclinic
loop_
_symmetry_equiv_pos_as_xyz
  x,y,z
_cell_length_a	17.699083
_cell_length_b	11.026607
_cell_length_c	16.176319
_cell_angle_alpha	89.996049
_cell_angle_beta	90.006703
_cell_angle_gamma	84.065651
loop_
_atom_site_label
_atom_site_type_symbol
_atom_site_fract_x
_atom_site_fract_y
_atom_site_fract_z
O1	O	-1.025155	0.153394	-0.068730
O2	O	-0.525155	0.653394	0.431270
O3	O	-0.807518	0.173353	-0.068734
O4	O	-0.307518	0.673353	0.431266
O5	O	-0.898299	-0.013226	-0.068730
O6	O	-0.398299	0.486774	0.431270
O7	O	-0.934374	0.339973	-0.068735
O8	O	-0.434374	0.839973	0.431265
O9	O	-0.898281	-0.013238	0.068764
O10	O	-0.398281	0.486762	0.568764
O11	O	-0.807501	0.173341	0.068759
O12	O	-0.307501	0.673341	0.568759
O13	O	-1.025137	0.153382	0.068763
O14	O	-0.525137	0.653382	0.568763
Cu15	Cu	-0.916317	0.163361	0.081315
Cu16	Cu	-0.416317	0.663361	0.581315
Cu17	Cu	-0.916338	0.163375	-0.081286
Cu18	Cu	-0.416338	0.663375	0.418714
O19	O	-0.934356	0.339962	0.068758
O20	O	-0.434356	0.839962	0.568758
C21	C	-0.779214	0.172632	0.000012
C22	C	-0.279214	0.672632	0.500012
C23	C	-0.694901	0.170487	0.000010
C24	C	-0.194901	0.670487	0.500010
C25	C	-0.655286	0.169470	0.074958
C26	C	-0.155286	0.669470	0.574958
C27	C	-0.576064	0.167435	0.074959
C28	C	-0.076064	0.667435	0.574959
C29	C	-0.536460	0.166426	0.000010
C30	C	-0.036460	0.666426	0.500010
C31	C	-0.576081	0.167440	-0.074944
C32	C	-0.076081	0.667440	0.425056
C33	C	-0.655301	0.169466	-0.074944
C34	C	-0.155301	0.669466	0.425056
C35	C	-0.256595	0.159267	-0.074946
C36	C	0.243405	0.659267	0.425054
C37	C	-0.177370	0.157245	-0.074941
C38	C	0.322630	0.657245	0.425059
C39	C	-0.177358	0.157236	0.074956
C40	C	0.322642	0.657236	0.574956
C41	C	-0.256578	0.159262	0.074956
C42	C	0.243422	0.659262	0.574956
C43	C	-0.296192	0.160269	0.000003
C44	C	0.203808	0.660269	0.500003
C45	C	-0.382093	0.162474	0.000003
C46	C	0.117907	0.662474	0.500003
C47	C	-0.450560	0.164231	0.000009
C48	C	0.049440	0.664231	0.500009
C49	C	-0.891635	-0.058423	0.000016
C50	C	-0.391635	0.441577	0.500016
C51	C	-0.871796	-0.193079	0.000013
C52	C	-0.371796	0.306921	0.500013
C53	C	-0.926575	-0.267046	0.000012
C54	C	-0.426575	0.232954	0.500012
C55	C	-0.906072	-0.406220	0.000009
C56	C	-0.406072	0.093780	0.500009
C57	C	-0.053441	0.154096	0.000015
C58	C	0.446559	0.654096	0.500015
C59	C	-0.137752	0.156219	0.000009
C60	C	0.362248	0.656219	0.500009
C61	C	-0.941020	0.385159	0.000011
C62	C	-0.441020	0.885159	0.500011
C63	C	-0.960860	0.519814	0.000009
C64	C	-0.460860	1.019814	0.500009
N65	N	-0.916308	0.163350	0.195680
N66	N	-0.416308	0.663350	0.695680
N67	N	-0.916352	0.163376	-0.195652
N68	N	-0.416352	0.663376	0.304348
C69	C	-0.956526	0.080767	0.238947
C70	C	-0.456526	0.580767	0.738947
C71	C	-0.956529	0.080765	0.325494
C72	C	-0.456529	0.580765	0.825494
C73	C	-0.916319	0.163354	0.368773
C74	C	-0.416319	0.663354	0.868773
C75	C	-0.876097	0.245942	0.325501
C76	C	-0.376097	0.745942	0.825501
C77	C	-0.876089	0.245936	0.238955
C78	C	-0.376089	0.745936	0.738955
C79	C	-0.876126	0.245964	0.674529
C80	C	-0.376126	0.745964	1.174529
C81	C	-0.876138	0.245966	0.761080
C82	C	-0.376138	0.745966	1.261080
C83	C	-0.956566	0.080793	0.761068
C84	C	-0.456566	0.580793	1.261068
C85	C	-0.956558	0.080788	0.674522
C86	C	-0.456558	0.580788	1.174522
C87	C	-0.916333	0.163371	0.631257
C88	C	-0.416333	0.663371	1.131257
C89	C	-0.916328	0.163369	0.537413
C90	C	-0.416328	0.663369	1.037413
C91	C	-0.916328	0.163362	0.462616
C92	C	-0.416328	0.663362	0.962616
H93	H	-0.145095	0.156411	0.135987
H94	H	0.354905	0.656411	0.635987
C95	C	-0.787928	-0.246716	0.000012
C96	C	-0.287928	0.253284	0.500012
N97	N	-0.724758	-0.287114	0.000014
N98	N	-0.224758	0.212886	0.500014
H99	H	-0.145126	0.156422	-0.135976
H100	H	0.354874	0.656422	0.364024
H101	H	-0.989273	0.013518	0.203715
H102	H	-0.489273	0.513518	0.703715
H103	H	-0.543811	0.166586	0.135989
H104	H	-0.043811	0.666586	0.635989
H105	H	-0.988654	-0.227338	0.000019
H106	H	-0.488654	0.272662	0.500019
C107	C	-0.831896	0.336817	0.808686
C108	C	-0.331896	0.836817	1.308686
N109	N	-0.798573	0.405241	0.844542
N110	N	-0.298573	0.905241	1.344542
H111	H	-0.687526	0.170301	0.135990
H112	H	-0.187526	0.670301	0.635990
H113	H	-0.288821	0.160090	0.135987
H114	H	0.211179	0.660090	0.635987
H115	H	-0.843989	-0.445922	0.000002
H116	H	-0.343989	0.054078	0.500002
H117	H	-0.989317	0.013546	0.796303
H118	H	-0.489317	0.513546	1.296303
H119	H	-0.843338	0.313183	0.203728
H120	H	-0.343338	0.813183	0.703728
H121	H	-0.288839	0.160083	-0.135978
H122	H	0.211161	0.660083	0.364022
H123	H	-1.022942	-0.440485	-0.000052
H124	H	-0.522942	0.059515	0.499948
H125	H	-0.543828	0.166610	-0.135968
H126	H	-0.043828	0.666610	0.364032
C127	C	-0.698878	0.170587	-0.157393
C128	C	-0.198878	0.670587	0.342607
N129	N	-0.731699	0.171429	-0.219496
N130	N	-0.231699	0.671429	0.280504
C131	C	-1.000791	-0.010069	0.626920
C132	C	-0.500791	0.489931	1.126920
N133	N	-1.034104	-0.078509	0.591067
N134	N	-0.534104	0.421491	1.091067
C135	C	-1.000750	-0.010112	0.373083
C136	C	-0.500750	0.489888	0.873083
N137	N	-1.034051	-0.078577	0.408926
N138	N	-0.534051	0.421423	0.908926
H139	H	-0.843374	0.313208	0.639309
H140	H	-0.343374	0.813208	1.139309
H141	H	-0.843352	0.313183	0.360744
H142	H	-0.343352	0.813183	0.860744
