data_functionalizedCrystal
_audit_creation_method	'MofGen! by Chris Wilmer'
_symmetry_space_group_name_H-M	'P1'
_symmetry_Int_Tables_number	1
_symmetry_cell_setting	triclinic
loop_
_symmetry_equiv_pos_as_xyz
  x,y,z
_cell_length_a	29.839134
_cell_length_b	21.295417
_cell_length_c	29.839126
_cell_angle_alpha	89.976722
_cell_angle_beta	90.035740
_cell_angle_gamma	89.974633
loop_
_atom_site_label
_atom_site_type_symbol
_atom_site_fract_x
_atom_site_fract_y
_atom_site_fract_z
Zn1	Zn	0.686815	0.250757	0.254121
Zn2	Zn	1.020148	0.584090	0.587454
Zn3	Zn	1.353481	0.917424	0.920788
Zn4	Zn	0.686743	0.356012	0.178989
Zn5	Zn	1.020076	0.689345	0.512323
Zn6	Zn	1.353410	1.022679	0.845656
Zn7	Zn	0.611679	0.250751	0.178991
Zn8	Zn	0.945013	0.584084	0.512324
Zn9	Zn	1.278346	0.917418	0.845657
Zn10	Zn	0.611660	0.355983	0.254078
Zn11	Zn	0.944993	0.689316	0.587411
Zn12	Zn	1.278326	1.022650	0.920744
O13	O	0.649224	0.303376	0.216545
O14	O	0.982558	0.636709	0.549878
O15	O	1.315891	0.970042	0.883211
O16	O	0.749672	0.264734	0.244172
O17	O	1.083006	0.598067	0.577506
O18	O	1.416339	0.931401	0.910839
O19	O	0.676764	0.342058	0.116122
O20	O	1.010097	0.675392	0.449456
O21	O	1.343431	1.008725	0.782789
O22	O	0.621685	0.162662	0.188976
O23	O	0.955018	0.495996	0.522309
O24	O	1.288351	0.829329	0.855642
O25	O	0.749620	0.342064	0.188973
O26	O	1.082953	0.675398	0.522307
O27	O	1.416286	1.008731	0.855640
O28	O	0.676886	0.162667	0.244174
O29	O	1.010219	0.496000	0.577507
O30	O	1.343553	0.829334	0.910840
O31	O	0.621615	0.264724	0.116123
O32	O	0.954949	0.598057	0.449457
O33	O	1.288282	0.931390	0.782790
O34	O	0.548810	0.264696	0.188933
O35	O	0.882143	0.598029	0.522267
O36	O	1.215476	0.931362	0.855600
O37	O	0.621651	0.342015	0.316951
O38	O	0.954984	0.675348	0.650284
O39	O	1.288317	1.008681	0.983617
O40	O	0.548795	0.342009	0.244100
O41	O	0.882128	0.675342	0.577433
O42	O	1.215462	1.008676	0.910766
O43	O	0.676867	0.264706	0.316982
O44	O	1.010200	0.598039	0.650316
O45	O	1.343534	0.931372	0.983649
O46	O	0.676745	0.444097	0.188931
O47	O	1.010078	0.777431	0.522265
O48	O	1.343412	1.110764	0.855598
O49	O	0.621581	0.444076	0.244098
O50	O	0.954915	0.777409	0.577432
O51	O	1.288248	1.110743	0.910765
C52	C	0.649165	0.466927	0.216520
C53	C	0.982499	0.800261	0.549853
C54	C	1.315832	1.133594	0.883186
C55	C	0.649181	0.536895	0.216524
C56	C	0.982515	0.870229	0.549858
C57	C	1.315848	1.203562	0.883191
C58	C	0.532502	0.303349	0.216512
C59	C	0.865835	0.636682	0.549846
C60	C	1.199168	0.970016	0.883179
C61	C	0.482567	0.303353	0.216509
C62	C	0.815901	0.636686	0.549842
C63	C	1.149234	0.970019	0.883176
C64	C	0.649265	0.303358	0.333723
C65	C	0.982598	0.636691	0.667056
C66	C	1.315931	0.970024	1.000390
C67	C	0.649282	0.303350	0.383658
C68	C	0.982615	0.636683	0.716991
C69	C	1.315948	0.970017	1.050324
C70	C	0.172926	0.343692	0.245235
C71	C	0.506259	0.677026	0.578568
C72	C	0.839592	1.010359	0.911901
C73	C	-0.014747	0.343710	0.245254
C74	C	0.318586	0.677043	0.578588
C75	C	0.651919	1.010377	0.911921
O76	O	-0.039011	0.377979	0.269659
O77	O	0.294323	0.711312	0.602992
O78	O	0.627656	1.044645	0.936325
N79	N	-0.038218	0.303399	0.216579
N80	N	0.295115	0.636732	0.549912
N81	N	0.628449	0.970065	0.883245
C82	C	-0.014767	0.263077	0.187898
C83	C	0.318566	0.596411	0.521231
C84	C	0.651899	0.929744	0.854564
O85	O	-0.039037	0.228786	0.163511
O86	O	0.294297	0.562119	0.496844
O87	O	0.627630	0.895453	0.830177
C88	C	0.172905	0.263057	0.187880
C89	C	0.506238	0.596390	0.521214
C90	C	0.839572	0.929724	0.854547
C91	C	0.196373	0.303375	0.216555
C92	C	0.529706	0.636709	0.549888
C93	C	0.863040	0.970042	0.883222
C94	C	0.196394	0.384007	0.273907
C95	C	0.529727	0.717340	0.607241
C96	C	0.863060	1.050674	0.940574
C97	C	0.243309	0.384004	0.273900
C98	C	0.576643	0.717338	0.607233
C99	C	0.909976	1.050671	0.940567
C100	C	0.266757	0.343687	0.245220
C101	C	0.600090	0.677021	0.578554
C102	C	0.933423	1.010354	0.911887
C103	C	0.243289	0.303373	0.216548
C104	C	0.576622	0.636706	0.549881
C105	C	0.909955	0.970040	0.883215
C106	C	0.196355	0.222733	0.159202
C107	C	0.529688	0.556066	0.492535
C108	C	0.863021	0.889399	0.825869
C109	C	0.243276	0.222730	0.159201
C110	C	0.576609	0.556063	0.492534
C111	C	0.909942	0.889397	0.825868
C112	C	0.266744	0.263048	0.187876
C113	C	0.600077	0.596382	0.521209
C114	C	0.933411	0.929715	0.854542
C115	C	0.313651	0.263053	0.187861
C116	C	0.646985	0.596387	0.521194
C117	C	0.980318	0.929720	0.854528
N118	N	0.337122	0.303365	0.216537
N119	N	0.670455	0.636698	0.549870
N120	N	1.003788	0.970031	0.883204
C121	C	0.313674	0.343682	0.245217
C122	C	0.647008	0.677015	0.578550
C123	C	0.980341	1.010348	0.911883
C124	C	-0.113298	0.263092	0.187908
C125	C	0.220036	0.596425	0.521241
C126	C	0.553369	0.929758	0.854575
C127	C	-0.160216	0.263098	0.187912
C128	C	0.173118	0.596431	0.521245
C129	C	0.506451	0.929764	0.854578
C130	C	-0.160193	0.343730	0.245269
C131	C	0.173141	0.677063	0.578603
C132	C	0.506474	1.010396	0.911936
C133	C	-0.113274	0.343727	0.245263
C134	C	0.220059	0.677060	0.578596
C135	C	0.553393	1.010393	0.911930
C136	C	-0.089827	0.303403	0.216584
C137	C	0.243506	0.636736	0.549917
C138	C	0.576839	0.970070	0.883251
C139	C	0.412200	0.343674	0.245200
C140	C	0.745534	0.677007	0.578533
C141	C	1.078867	1.010341	0.911866
C142	C	0.459120	0.343670	0.245189
C143	C	0.792453	0.677003	0.578522
C144	C	1.125787	1.010336	0.911855
C145	C	0.459093	0.263036	0.187833
C146	C	0.792426	0.596369	0.521166
C147	C	1.125759	0.929702	0.854500
C148	C	0.412177	0.263042	0.187842
C149	C	0.745511	0.596375	0.521175
C150	C	1.078844	0.929709	0.854509
C151	C	0.388732	0.303363	0.216529
C152	C	0.722065	0.636696	0.549862
C153	C	1.055399	0.970030	0.883196
O154	O	0.337943	0.228798	0.163473
O155	O	0.671277	0.562131	0.496807
O156	O	1.004610	0.895465	0.830140
O157	O	0.337952	0.377958	0.269607
O158	O	0.671285	0.711291	0.602940
O159	O	1.004619	1.044625	0.936274
C160	C	0.126010	0.343695	0.245242
C161	C	0.459344	0.677028	0.578575
C162	C	0.792677	1.010361	0.911908
C163	C	0.102542	0.303380	0.216569
C164	C	0.435875	0.636713	0.549902
C165	C	0.769209	0.970047	0.883236
C166	C	0.125990	0.263063	0.187889
C167	C	0.459323	0.596396	0.521223
C168	C	0.792656	0.929730	0.854556
C169	C	0.055624	0.303386	0.216573
C170	C	0.388958	0.636719	0.549906
C171	C	0.722291	0.970053	0.883239
C172	C	0.032177	0.343703	0.245252
C173	C	0.365510	0.677036	0.578586
C174	C	0.698844	1.010370	0.911919
C175	C	0.055647	0.384014	0.273928
C176	C	0.388981	0.717348	0.607262
C177	C	0.722314	1.050681	0.940595
C178	C	0.102563	0.384012	0.273921
C179	C	0.435896	0.717345	0.607255
C180	C	0.769230	1.050678	0.940588
C181	C	0.102519	0.222752	0.159213
C182	C	0.435852	0.556085	0.492547
C183	C	0.769186	0.889419	0.825880
C184	C	0.055604	0.222758	0.159222
C185	C	0.388937	0.556091	0.492556
C186	C	0.722270	0.889425	0.825889
C187	C	0.032156	0.263075	0.187902
C188	C	0.365489	0.596408	0.521235
C189	C	0.698823	0.929742	0.854569
C190	C	0.766403	0.303403	0.216577
C191	C	1.099736	0.636736	0.549911
C192	C	1.433069	0.970070	0.883244
C193	C	0.816337	0.303415	0.216591
C194	C	1.149670	0.636748	0.549925
C195	C	1.483004	0.970081	0.883258
C196	C	0.649296	0.139185	0.216580
C197	C	0.982629	0.472519	0.549913
C198	C	1.315962	0.805852	0.883246
C199	C	0.649326	0.069217	0.216594
C200	C	0.982659	0.402551	0.549928
C201	C	1.315993	0.735884	0.883261
C202	C	0.677930	0.569752	0.187828
C203	C	1.011264	0.903086	0.521161
C204	C	1.344597	1.236419	0.854495
C205	C	0.677951	0.635495	0.187838
C206	C	1.011285	0.968828	0.521172
C207	C	1.344618	1.302161	0.854505
C208	C	0.649215	0.668378	0.216540
C209	C	0.982549	1.001711	0.549873
C210	C	1.315882	1.335045	0.883206
C211	C	0.620464	0.635513	0.245241
C212	C	0.953797	0.968846	0.578575
C213	C	1.287131	1.302180	0.911908
C214	C	0.620447	0.569772	0.245234
C215	C	0.953780	0.903105	0.578567
C216	C	1.287114	1.236439	0.911900
N217	N	0.609915	0.771639	0.219954
N218	N	0.943249	1.104973	0.553287
N219	N	1.276582	1.438306	0.886620
N220	N	0.609933	0.834091	0.219958
N221	N	0.943266	1.167424	0.553292
N222	N	1.276600	1.500758	0.886625
C223	C	0.649266	0.866453	0.216565
C224	C	0.982599	1.199786	0.549899
C225	C	1.315932	1.533119	0.883232
N226	N	0.688581	0.834004	0.213159
N227	N	1.021914	1.167337	0.546492
N228	N	1.355248	1.500670	0.879825
N229	N	0.688563	0.771546	0.213152
N230	N	1.021896	1.104880	0.546485
N231	N	1.355230	1.438213	0.879818
C232	C	0.649231	0.739663	0.216551
C233	C	0.982564	1.072997	0.549885
C234	C	1.315897	1.406330	0.883218
C235	C	0.678040	0.970595	0.187879
C236	C	1.011373	1.303928	0.521212
C237	C	1.344707	1.637262	0.854545
C238	C	0.678062	1.036339	0.187892
C239	C	1.011395	1.369672	0.521225
C240	C	1.344729	1.703005	0.854559
C241	C	0.620571	1.036356	0.245293
C242	C	0.953904	1.369689	0.578626
C243	C	1.287237	1.703022	0.911960
C244	C	0.620553	0.970613	0.245282
C245	C	0.953886	1.303947	0.578615
C246	C	1.287219	1.637280	0.911949
C247	C	0.649287	0.937737	0.216573
C248	C	0.982620	1.271070	0.549906
C249	C	1.315954	1.604404	0.883239
C250	C	0.649210	0.303348	0.099822
C251	C	0.982543	0.636682	0.433156
C252	C	1.315877	0.970015	0.766489
C253	C	0.649280	0.303179	0.049888
C254	C	0.982613	0.636512	0.383221
C255	C	1.315946	0.969845	0.716555
C256	C	0.677992	0.343534	0.740247
C257	C	1.011325	0.676868	1.073581
C258	C	1.344658	1.010201	1.406914
C259	C	0.677992	0.343578	0.552574
C260	C	1.011326	0.676911	0.885908
C261	C	1.344659	1.010245	1.219241
O262	O	0.702398	0.377843	0.528312
O263	O	1.035732	0.711176	0.861645
O264	O	1.369065	1.044510	1.194978
N265	N	0.649280	0.303320	0.529103
N266	N	0.982613	0.636653	0.862436
N267	N	1.315946	0.969986	1.195769
C268	C	0.620563	0.263050	0.552552
C269	C	0.953896	0.596384	0.885886
C270	C	1.287229	0.929717	1.219219
O271	O	0.596137	0.228814	0.528282
O272	O	0.929471	0.562147	0.861616
O273	O	1.262804	0.895480	1.194949
C274	C	0.620560	0.263010	0.740225
C275	C	0.953893	0.596344	1.073558
C276	C	1.287227	0.929677	1.406891
C277	C	0.649278	0.303267	0.763694
C278	C	0.982611	0.636600	1.097027
C279	C	1.315944	0.969933	1.430360
C280	C	0.706707	0.383788	0.763716
C281	C	1.040040	0.717121	1.097050
C282	C	1.373373	1.050455	1.430383
C283	C	0.706708	0.383774	0.810632
C284	C	1.040041	0.717108	1.143965
C285	C	1.373375	1.050441	1.477299
C286	C	0.677994	0.343507	0.834078
C287	C	1.011327	0.676840	1.167412
C288	C	1.344661	1.010173	1.500745
C289	C	0.649279	0.303253	0.810609
C290	C	0.982612	0.636586	1.143943
C291	C	1.315946	0.969920	1.477276
C292	C	0.591841	0.222745	0.763673
C293	C	0.925174	0.556078	1.097007
C294	C	1.258508	0.889411	1.430340
C295	C	0.591842	0.222739	0.810595
C296	C	0.925175	0.556073	1.143928
C297	C	1.258509	0.889406	1.477261
C298	C	0.620560	0.262996	0.834064
C299	C	0.953893	0.596329	1.167397
C300	C	1.287226	0.929662	1.500730
C301	C	0.620566	0.262972	0.880971
C302	C	0.953900	0.596305	1.214304
C303	C	1.287233	0.929638	1.547638
N304	N	0.649279	0.303230	0.904443
N305	N	0.982612	0.636563	1.237776
N306	N	1.315946	0.969897	1.571109
C307	C	0.677993	0.343498	0.880996
C308	C	1.011326	0.676831	1.214329
C309	C	1.344660	1.010164	1.547663
C310	C	0.620567	0.263073	0.454022
C311	C	0.953900	0.596407	0.787355
C312	C	1.287233	0.929740	1.120688
C313	C	0.620568	0.263083	0.407104
C314	C	0.953901	0.596416	0.740437
C315	C	1.287234	0.929749	1.073771
C316	C	0.677997	0.343611	0.407129
C317	C	1.011330	0.676945	0.740462
C318	C	1.344664	1.010278	1.073796
C319	C	0.677998	0.343599	0.454048
C320	C	1.011331	0.676932	0.787381
C321	C	1.344665	1.010265	1.120714
C322	C	0.649279	0.303332	0.477493
C323	C	0.982613	0.636665	0.810827
C324	C	1.315946	0.969998	1.144160
C325	C	0.677994	0.343465	0.979522
C326	C	1.011327	0.676799	1.312855
C327	C	1.344660	1.010132	1.646189
C328	C	0.677994	0.343446	1.026442
C329	C	1.011327	0.676779	1.359775
C330	C	1.344660	1.010113	1.693108
C331	C	0.620563	0.262920	1.026413
C332	C	0.953896	0.596253	1.359746
C333	C	1.287230	0.929587	1.693079
C334	C	0.620564	0.262937	0.979497
C335	C	0.953898	0.596270	1.312830
C336	C	1.287231	0.929603	1.646164
C337	C	0.649281	0.303214	0.956053
C338	C	0.982615	0.636548	1.289386
C339	C	1.315948	0.969881	1.622720
O340	O	0.596170	0.228730	0.905262
O341	O	0.929503	0.562063	1.238596
O342	O	1.262836	0.895396	1.571929
O343	O	0.702408	0.377739	0.905274
O344	O	1.035741	0.711072	1.238608
O345	O	1.369074	1.044406	1.571941
C346	C	0.677990	0.343548	0.693332
C347	C	1.011324	0.676881	1.026665
C348	C	1.344657	1.010215	1.359999
C349	C	0.649275	0.303294	0.669863
C350	C	0.982609	0.636628	1.003196
C351	C	1.315942	0.969961	1.336529
C352	C	0.620561	0.263027	0.693309
C353	C	0.953895	0.596360	1.026642
C354	C	1.287228	0.929693	1.359976
C355	C	0.649276	0.303303	0.622945
C356	C	0.982610	0.636637	0.956278
C357	C	1.315943	0.969970	1.289612
C358	C	0.677990	0.343571	0.599499
C359	C	1.011324	0.676904	0.932832
C360	C	1.344657	1.010238	1.266165
C361	C	0.706703	0.383829	0.622970
C362	C	1.040036	0.717163	0.956303
C363	C	1.373370	1.050496	1.289637
C364	C	0.706704	0.383816	0.669886
C365	C	1.040038	0.717149	1.003219
C366	C	1.373371	1.050482	1.336552
C367	C	0.591849	0.222768	0.669838
C368	C	0.925182	0.556102	1.003171
C369	C	1.258515	0.889435	1.336504
C370	C	0.591850	0.222785	0.622922
C371	C	0.925183	0.556118	0.956255
C372	C	1.258517	0.889452	1.289589
C373	C	0.620564	0.263052	0.599476
C374	C	0.953897	0.596386	0.932809
C375	C	1.287231	0.929719	1.266142
H376	H	0.478225	0.376504	0.268539
H377	H	0.811559	0.709837	0.601873
H378	H	1.144892	1.043171	0.935206
H379	H	0.262364	0.189889	0.135849
H380	H	0.595697	0.523223	0.469182
H381	H	0.929030	0.856556	0.802516
O382	O	0.386861	0.219559	0.156915
O383	O	0.720194	0.552892	0.490248
O384	O	1.053527	0.886226	0.823581
H385	H	0.411049	0.191522	0.136972
H386	H	0.744383	0.524855	0.470306
H387	H	1.077716	0.858189	0.803639
O388	O	0.560881	0.179326	0.695121
O389	O	0.894214	0.512659	1.028454
O390	O	1.227547	0.845993	1.361787
H391	H	0.538006	0.207480	0.716478
H392	H	0.871339	0.540814	1.049811
H393	H	1.204673	0.874147	1.383145
O394	O	0.127873	0.427492	0.304853
O395	O	0.461206	0.760825	0.638187
O396	O	0.794539	1.094158	0.971520
H397	H	0.103680	0.455518	0.324798
H398	H	0.437013	0.788852	0.658131
H399	H	0.770346	1.122185	0.991465
O400	O	-0.185530	0.219622	0.156980
O401	O	0.147804	0.552955	0.490314
O402	O	0.481137	0.886288	0.823647
H403	H	-0.176509	0.170231	0.164752
H404	H	0.156824	0.503564	0.498085
H405	H	0.490157	0.836897	0.831419
H406	H	0.730092	0.416557	0.829736
H407	H	1.063425	0.749891	1.163070
H408	H	1.396758	1.083224	1.496403
H409	H	0.701381	0.376228	1.045548
H410	H	1.034715	0.709561	1.378881
H411	H	1.368048	1.042895	1.712215
O412	O	0.030370	0.427546	0.304843
O413	O	0.363704	0.760880	0.638177
O414	O	0.697037	1.094213	0.971510
H415	H	0.039401	0.416858	0.340122
H416	H	0.372735	0.750191	0.673455
H417	H	0.706068	1.083524	1.006789
O418	O	-0.087968	0.387205	0.276200
O419	O	0.245365	0.720538	0.609533
O420	O	0.578699	1.053871	0.942866
H421	H	-0.066572	0.359068	0.299091
H422	H	0.266762	0.692402	0.632425
H423	H	0.600095	1.025735	0.965758
O424	O	0.484386	0.219548	0.156902
O425	O	0.817719	0.552882	0.490236
O426	O	1.151053	0.886215	0.823569
H427	H	0.520953	0.226318	0.161722
H428	H	0.854286	0.559651	0.495056
H429	H	1.187620	0.892985	0.828389
H430	H	0.701476	1.063090	0.164525
H431	H	1.034809	1.396423	0.497858
H432	H	1.368142	1.729756	0.831192
O433	O	0.708925	0.534296	0.156865
O434	O	1.042258	0.867630	0.490199
O435	O	1.375591	1.200963	0.823532
H436	H	0.704082	0.483061	0.161677
H437	H	1.037415	0.816394	0.495011
H438	H	1.370748	1.149728	0.828344
H439	H	0.036500	0.189927	0.135868
H440	H	0.369833	0.523260	0.469201
H441	H	0.703166	0.856593	0.802534
O442	O	0.386916	0.387208	0.276106
O443	O	0.720249	0.720542	0.609439
O444	O	1.053582	1.053875	0.942773
H445	H	0.411123	0.415258	0.296026
H446	H	0.744456	0.748591	0.629359
H447	H	1.077790	1.081924	0.962692
O448	O	0.708959	0.670954	0.156890
O449	O	1.042292	1.004288	0.490223
O450	O	1.375625	1.337621	0.823556
H451	H	0.701264	0.658385	0.121619
H452	H	1.034597	0.991719	0.454953
H453	H	1.367931	1.325052	0.788286
O454	O	0.127806	0.179279	0.128269
O455	O	0.461140	0.512612	0.461602
O456	O	0.794473	0.845946	0.794936
H457	H	0.103599	0.151259	0.108327
H458	H	0.436933	0.484593	0.441661
H459	H	0.770266	0.817926	0.774994
O460	O	0.560878	0.179357	0.597610
O461	O	0.894211	0.512690	0.930944
O462	O	1.227545	0.846023	1.264277
H463	H	0.540912	0.151359	0.621801
H464	H	0.874245	0.484692	0.955135
H465	H	1.207578	0.818026	1.288468
O466	O	0.589535	0.935178	0.276229
O467	O	0.922868	1.268512	0.609563
O468	O	1.256202	1.601845	0.942896
H469	H	0.609620	0.905188	0.299110
H470	H	0.942953	1.238522	0.632443
H471	H	1.276287	1.571855	0.965776
H472	H	0.597068	0.662291	0.268611
H473	H	0.930401	0.995624	0.601944
H474	H	1.263734	1.328957	0.935278
O475	O	0.589573	1.071815	0.276247
O476	O	0.922907	1.405149	0.609581
O477	O	1.256240	1.738482	0.942914
H478	H	0.609677	1.101730	0.299128
H479	H	0.943010	1.435063	0.632461
H480	H	1.276343	1.768397	0.965795
O481	O	0.708972	0.386898	0.954239
O482	O	1.042305	0.720231	1.287572
O483	O	1.375639	1.053564	1.620905
H484	H	0.728941	0.414877	0.978447
H485	H	1.062275	0.748210	1.311780
H486	H	1.395608	1.081543	1.645113
H487	H	0.701382	0.376379	0.473153
H488	H	1.034716	0.709712	0.806486
H489	H	1.368049	1.043046	1.139820
H490	H	0.730090	0.416582	0.744631
H491	H	1.063423	0.749915	1.077965
H492	H	1.396756	1.083248	1.411298
O493	O	0.589430	0.534327	0.276177
O494	O	0.922763	0.867660	0.609510
O495	O	1.256096	1.200994	0.942844
H496	H	0.569447	0.568234	0.296134
H497	H	0.902780	0.901568	0.629468
H498	H	1.236113	1.234901	0.962801
H499	H	0.262413	0.416835	0.297251
H500	H	0.595746	0.750168	0.630584
H501	H	0.929079	1.083501	0.963918
O502	O	0.171107	0.427568	0.304791
O503	O	0.504441	0.760901	0.638124
O504	O	0.837774	1.094234	0.971457
H505	H	0.195316	0.455624	0.324704
H506	H	0.528649	0.788957	0.658037
H507	H	0.861982	1.122291	0.991371
H508	H	0.597186	0.230148	0.960387
H509	H	0.930519	0.563481	1.293721
H510	H	1.263853	0.896815	1.627054
H511	H	0.701378	0.376398	0.388031
H512	H	1.034711	0.709731	0.721364
H513	H	1.368045	1.043064	1.054698
H514	H	0.597188	0.230294	0.387999
H515	H	0.930521	0.563628	0.721333
H516	H	1.263855	0.896961	1.054666
H517	H	0.597179	0.230282	0.473107
H518	H	0.930512	0.563615	0.806440
H519	H	1.263846	0.896948	1.139774
H520	H	0.597186	0.230133	1.045511
H521	H	0.930519	0.563467	1.378844
H522	H	1.263853	0.896800	1.712178
H523	H	0.568455	0.189964	0.744573
H524	H	0.901788	0.523298	1.077906
H525	H	1.235121	0.856631	1.411240
H526	H	0.568455	0.189948	0.829681
H527	H	0.901789	0.523282	1.163015
H528	H	1.235122	0.856615	1.496348
H529	H	-0.179291	0.376557	0.268622
H530	H	0.154042	0.709891	0.601955
H531	H	0.487375	1.043224	0.935288
O532	O	0.737670	0.427247	0.695197
O533	O	1.071003	0.760581	1.028530
O534	O	1.404337	1.093914	1.361863
H535	H	0.757628	0.455253	0.671004
H536	H	1.090962	0.788586	1.004337
H537	H	1.424295	1.121920	1.337671
H538	H	0.730085	0.416614	0.603872
H539	H	1.063418	0.749948	0.937205
H540	H	1.396751	1.083281	1.270538
H541	H	0.701439	0.943826	0.164503
H542	H	1.034772	1.277159	0.497837
H543	H	1.368105	1.610493	0.831170
H544	H	-0.094212	0.230255	0.164552
H545	H	0.239121	0.563588	0.497885
H546	H	0.572455	0.896922	0.831219
H547	H	0.177255	0.189903	0.135851
H548	H	0.510588	0.523236	0.469184
H549	H	0.843922	0.856569	0.802517
