data_functionalizedCrystal
_audit_creation_method	'MofGen! by Chris Wilmer'
_symmetry_space_group_name_H-M	'P1'
_symmetry_Int_Tables_number	1
_symmetry_cell_setting	triclinic
loop_
_symmetry_equiv_pos_as_xyz
  x,y,z
_cell_length_a	17.699097
_cell_length_b	13.930277
_cell_length_c	17.699083
_cell_angle_alpha	89.996258
_cell_angle_beta	83.285722
_cell_angle_gamma	90.010173
loop_
_atom_site_label
_atom_site_type_symbol
_atom_site_fract_x
_atom_site_fract_y
_atom_site_fract_z
O1	O	1.004073	0.079912	0.095748
O2	O	0.783696	0.079897	0.108190
O3	O	0.900111	0.079897	-0.008220
O4	O	0.887658	0.079913	0.212158
O5	O	0.900094	-0.079765	-0.008202
O6	O	0.783679	-0.079765	0.108208
O7	O	1.004056	-0.079749	0.095766
Zn8	Zn	0.893865	-0.105107	0.101990
Zn9	Zn	0.893887	0.105255	0.101966
O10	O	0.887641	-0.079749	0.212176
C11	C	0.755491	0.000064	0.107752
C12	C	0.671473	0.000058	0.106409
C13	C	0.155764	0.087128	0.098170
C14	C	0.234708	0.087123	0.099426
C15	C	0.274165	0.000088	0.100065
C16	C	0.234674	-0.086949	0.099440
C17	C	0.155732	-0.086943	0.098179
C18	C	0.553038	-0.086974	0.104528
C19	C	0.631986	-0.086973	0.105792
C20	C	0.632014	0.087093	0.105775
C21	C	0.553072	0.087098	0.104514
C22	C	0.513589	0.000062	0.103885
C23	C	0.427989	0.000069	0.102521
C24	C	0.359763	0.000081	0.101434
N25	N	0.893855	-0.248673	0.102005
C26	C	0.939714	-0.700925	0.147801
C27	C	0.848084	-0.700929	0.056100
C28	C	0.848073	-0.600433	0.056113
C29	C	0.893883	-0.550179	0.101969
C30	C	0.939705	-0.600420	0.147814
C31	C	0.802257	-0.550184	0.010263
C32	C	0.802244	-0.449682	0.010273
C33	C	0.848051	-0.399426	0.056134
C34	C	0.893875	-0.449674	0.101981
C35	C	0.939685	-0.399419	0.147838
C36	C	0.985505	-0.449665	0.193689
C37	C	0.985513	-0.550164	0.193675
C38	C	0.848044	-0.298927	0.056149
C39	C	0.939677	-0.298914	0.147850
C40	C	1.032261	0.000086	0.096205
C41	C	1.116279	0.000098	0.097547
C42	C	0.899656	0.000066	-0.036408
C43	C	0.898317	0.000065	-0.120426
N44	N	0.893903	0.248821	0.101945
C45	C	0.966650	0.000069	-0.169044
C46	C	0.965388	0.000077	-0.247987
C47	C	0.895792	0.000075	-0.278311
C48	C	0.827454	0.000075	-0.229687
C49	C	0.828717	0.000073	-0.150745
C50	C	0.822359	0.000082	-0.548050
C51	C	0.821101	0.000081	-0.626998
C52	C	0.959030	0.000086	-0.645292
C53	C	0.960293	0.000084	-0.566350
C54	C	0.891955	0.000089	-0.517733
C55	C	0.893325	0.000082	-0.432134
C56	C	0.894422	0.000076	-0.363909
C57	C	0.888096	0.000084	0.240364
C58	C	0.889435	0.000091	0.324382
H59	H	0.266807	-0.157815	0.099956
H60	H	0.810741	-0.258021	0.018815
C61	C	0.990114	-0.756189	0.198232
H62	H	0.983564	-0.823241	0.191657
H63	H	0.975955	-0.739733	0.250036
H64	H	1.041925	-0.739698	0.184101
C65	C	0.751847	-0.605458	-0.040153
H66	H	0.724557	-0.561142	-0.067456
H67	H	0.716967	-0.644667	-0.009079
H68	H	0.782916	-0.644659	-0.075035
C69	C	0.278141	0.182853	0.100125
H70	H	0.330807	0.170388	0.100962
H71	H	0.259355	0.218607	0.144038
H72	H	0.271064	0.218622	0.055795
H73	H	1.021032	0.000078	-0.287569
H74	H	1.023323	0.000064	-0.144360
C75	C	0.112298	-0.182676	0.097498
H76	H	0.147101	-0.234512	0.098066
H77	H	0.087354	-0.186295	0.052887
H78	H	0.075650	-0.186288	0.141131
H79	H	1.014674	0.000087	-0.684886
C80	C	0.112368	0.182869	0.097473
H81	H	0.147194	0.234699	0.098019
H82	H	0.075722	0.186490	0.141101
H83	H	0.087425	0.186490	0.052858
C84	C	0.753553	0.000070	-0.097263
H85	H	0.764272	0.000079	-0.045905
H86	H	0.724999	-0.055607	-0.106435
H87	H	0.725020	0.055755	-0.106446
H88	H	1.022818	-0.591083	0.231003
H89	H	0.664171	0.157962	0.106284
H90	H	0.764424	0.000077	-0.651685
C91	C	1.036848	0.000091	-0.532998
H92	H	1.077365	0.000103	-0.573260
H93	H	1.040204	-0.055585	-0.502578
H94	H	1.040209	0.055777	-0.502588
H95	H	0.766714	0.000085	-0.508475
H96	H	0.520950	0.157972	0.103997
C97	C	0.750898	0.000080	-0.263038
H98	H	0.710382	0.000088	-0.222774
H99	H	0.747527	-0.055595	-0.293451
H100	H	0.747549	0.055767	-0.293454
C101	C	0.675391	-0.182714	0.106490
H102	H	0.728059	-0.170248	0.107340
H103	H	0.668304	-0.218474	0.062165
H104	H	0.656594	-0.218475	0.150409
C105	C	0.509615	-0.182709	0.103847
H106	H	0.544421	-0.234542	0.104418
H107	H	0.484671	-0.186336	0.059237
H108	H	0.472968	-0.186321	0.147480
C109	C	1.035894	-0.394379	0.244128
H110	H	1.029321	-0.327331	0.237567
H111	H	1.087705	-0.410828	0.230007
H112	H	1.021727	-0.410859	0.295935
H113	H	0.764934	-0.408780	-0.027061
H114	H	0.810792	-0.741852	0.018761
C115	C	0.990068	-0.243638	0.198292
H116	H	0.983500	-0.176587	0.191737
H117	H	1.041878	-0.260090	0.184169
H118	H	0.975901	-0.260124	0.250097
