data_functionalizedCrystal
_audit_creation_method	'MofGen! by Chris Wilmer'
_symmetry_space_group_name_H-M	'P1'
_symmetry_Int_Tables_number	1
_symmetry_cell_setting	triclinic
loop_
_symmetry_equiv_pos_as_xyz
  x,y,z
_cell_length_a	19.077105
_cell_length_b	12.594516
_cell_length_c	19.076919
_cell_angle_alpha	92.277239
_cell_angle_beta	90.076224
_cell_angle_gamma	87.712633
loop_
_atom_site_label
_atom_site_type_symbol
_atom_site_fract_x
_atom_site_fract_y
_atom_site_fract_z
Zn1	Zn	1.058319	-0.514930	-0.440450
Zn2	Zn	1.062975	-0.686069	-0.322954
Zn3	Zn	0.945535	-0.500672	-0.318243
Zn4	Zn	0.940797	-0.685427	-0.435707
O5	O	1.001907	-0.596775	-0.379338
O6	O	1.157269	-0.543868	-0.428821
O7	O	1.051328	-0.655777	-0.223998
O8	O	0.960531	-0.353620	-0.334467
O9	O	1.160690	-0.669603	-0.342497
O10	O	1.043393	-0.364096	-0.424253
O11	O	0.965046	-0.519567	-0.220536
O12	O	0.846574	-0.518944	-0.329868
O13	O	0.952455	-0.668509	-0.534668
O14	O	0.843093	-0.654683	-0.416168
O15	O	1.038798	-0.543246	-0.538153
O16	O	1.046733	-0.834927	-0.337898
O17	O	0.956969	-0.834455	-0.420737
C18	C	0.819337	-0.585197	-0.371992
C19	C	0.741233	-0.580271	-0.368866
C20	C	0.702747	-0.648728	-0.412259
C21	C	0.629360	-0.644085	-0.409325
C22	C	0.594459	-0.570991	-0.362994
C23	C	0.632949	-0.502527	-0.319600
C24	C	0.706335	-0.507165	-0.322538
C25	C	0.375169	-0.549525	-0.349400
C26	C	0.301778	-0.544895	-0.346464
C27	C	0.298194	-0.686452	-0.436191
C28	C	0.371582	-0.691088	-0.439121
C29	C	0.410065	-0.622620	-0.395730
N30	N	0.519445	-0.566246	-0.359993
N31	N	0.485078	-0.627361	-0.398735
C32	C	1.001861	-0.873312	-0.379330
C33	C	1.001905	-0.991622	-0.379352
C34	C	0.953079	-1.060655	-0.424375
C35	C	0.938538	-1.126689	-0.359570
C36	C	1.016509	-1.136391	-0.444171
C37	C	0.987331	-1.056094	-0.314511
C38	C	1.065330	-1.065794	-0.399157
C39	C	1.050816	-1.131795	-0.334309
C40	C	1.185189	-0.608398	-0.386714
C41	C	1.263293	-0.613351	-0.389857
C42	C	0.994578	-0.607396	-0.562619
C43	C	0.991455	-0.611923	-0.640723
C44	C	1.001971	-0.319159	-0.379363
C45	C	1.001998	-0.200856	-0.379374
C46	C	1.034940	-0.548834	-0.679231
C47	C	1.031997	-0.553083	-0.752617
C48	C	0.985572	-0.620426	-0.787494
C49	C	0.942083	-0.683517	-0.748980
C50	C	0.945023	-0.679262	-0.675595
C51	C	0.971956	-0.640139	-1.006776
C52	C	0.969021	-0.644391	-1.080166
C53	C	1.058935	-0.513955	-1.083799
C54	C	1.061873	-0.509711	-1.010412
C55	C	1.018381	-0.572798	-0.971905
N56	N	0.982565	-0.624772	-0.862506
N57	N	1.021386	-0.568445	-0.896894
C58	C	1.009247	-0.586120	-0.196772
C59	C	1.012506	-0.581302	-0.118675
H60	H	0.399993	-0.750611	-0.476847
H61	H	0.598028	-0.699830	-0.444659
N62	N	1.102674	-1.170720	-0.286506
N63	N	1.139215	-1.106953	-0.252137
H64	H	1.175838	-1.134444	-0.218374
N65	N	0.258893	-0.756378	-0.480526
N66	N	0.290064	-0.821631	-0.521892
H67	H	0.262309	-0.871017	-0.553209
H68	H	1.094343	-0.462592	-1.115159
H69	H	1.067409	-0.501712	-0.783968
N70	N	0.266137	-0.470220	-0.299132
N71	N	0.300504	-0.409094	-0.260394
H72	H	0.275334	-0.356358	-0.226966
N73	N	0.597311	-0.427848	-0.272276
N74	N	0.605333	-0.330440	-0.277376
H75	H	0.580165	-0.277695	-0.243952
N76	N	1.132541	-1.031968	-0.420180
N77	N	1.167475	-0.974817	-0.379309
H78	H	1.214942	-0.950921	-0.394163
N79	N	0.921570	-0.713154	-1.115781
N80	N	0.882726	-0.769451	-1.081391
H81	H	0.849207	-0.818000	-1.106543
N82	N	0.901189	-1.021457	-0.472052
N83	N	0.852663	-0.959244	-0.450160
H84	H	0.816014	-0.931559	-0.483828
N85	N	0.871302	-1.160440	-0.338552
N86	N	0.823103	-1.093035	-0.324046
H87	H	0.775616	-1.116867	-0.309205
N88	N	0.971783	-1.012220	-0.245735
N89	N	0.914906	-1.030573	-0.217023
H90	H	0.903920	-0.999588	-0.168450
N91	N	1.031948	-1.180440	-0.512927
N92	N	0.992536	-1.158437	-0.563146
H93	H	1.003434	-1.189544	-0.611706
H94	H	0.731159	-0.708252	-0.449984
N95	N	0.927527	-0.704585	-0.967458
N96	N	0.886083	-0.764709	-0.998609
H97	H	0.854703	-0.810229	-0.970839
N98	N	1.082371	-0.480045	-0.643621
N99	N	1.121191	-0.423720	-0.678016
H100	H	1.154690	-0.375133	-0.652868
N101	N	1.109306	-0.440925	-0.974801
N102	N	1.148132	-0.384605	-1.009193
H103	H	1.181636	-0.336028	-0.984043
N104	N	0.414463	-0.479589	-0.305069
N105	N	0.383290	-0.414339	-0.263703
H106	H	0.411043	-0.364945	-0.232389
H107	H	0.904280	-0.738345	-0.777382
H108	H	0.909606	-0.730624	-0.644242
H109	H	0.737669	-0.451416	-0.287206
