data_functionalizedCrystal
_audit_creation_method	'MofGen! by Chris Wilmer'
_symmetry_space_group_name_H-M	'P1'
_symmetry_Int_Tables_number	1
_symmetry_cell_setting	triclinic
loop_
_symmetry_equiv_pos_as_xyz
  x,y,z
_cell_length_a	6.817900
_cell_length_b	17.982968
_cell_length_c	15.301126
_cell_angle_alpha	95.457424
_cell_angle_beta	104.177575
_cell_angle_gamma	102.451960
loop_
_atom_site_label
_atom_site_type_symbol
_atom_site_fract_x
_atom_site_fract_y
_atom_site_fract_z
V1	V	-4.018572	-0.237782	-0.125604
O2	O	-4.002678	-0.233017	0.005167
O3	O	-3.973572	-0.236384	-0.248216
O4	O	-3.965036	-0.341382	-0.124054
O5	O	-4.011273	-0.127293	-0.119856
V6	V	-4.502425	-0.224538	-0.109917
O7	O	-4.279107	-0.266832	-0.160014
O8	O	-4.692088	-0.195488	-0.075507
O9	O	-4.324219	-0.225935	0.012694
O10	O	-4.635716	-0.229303	-0.240688
O11	O	-4.627121	-0.335027	-0.115666
O12	O	-4.332754	-0.120938	-0.111468
C13	C	-3.819566	-0.232693	-0.278094
C14	C	-3.864025	-0.232241	-0.378334
C15	C	-4.066961	-0.235837	-0.430033
C16	C	-4.108726	-0.235417	-0.524219
C17	C	-3.947550	-0.231395	-0.566703
C18	C	-3.744598	-0.227801	-0.514998
C19	C	-3.702839	-0.228226	-0.420814
C20	C	-3.831649	-0.226912	-0.711305
C21	C	-3.873410	-0.226485	-0.805495
C22	C	-4.237536	-0.234104	-0.814710
C23	C	-4.195777	-0.234529	-0.720526
C24	C	-3.992827	-0.230933	-0.668827
C25	C	-3.808677	-0.366626	-0.119712
C26	C	-3.846212	-0.451321	-0.119255
C27	C	-4.045891	-0.495001	-0.123559
C28	C	-4.081147	-0.574581	-0.123129
C29	C	-3.916724	-0.610480	-0.118402
C30	C	-3.717027	-0.566794	-0.114095
C31	C	-3.681770	-0.487215	-0.114518
C32	C	-3.859207	-0.887728	-0.112388
C33	C	-3.894481	-0.967314	-0.111968
C34	C	-4.258583	-0.975094	-0.120999
C35	C	-4.223327	-0.895515	-0.121422
C36	C	-4.023632	-0.851835	-0.117110
C37	C	-3.985405	-0.765545	-0.117574
C38	C	-3.954951	-0.696769	-0.117945
C39	C	-4.141567	-0.229625	0.042568
C40	C	-4.076345	-0.230082	0.142806
C41	C	-4.152456	-0.095690	-0.115813
C42	C	-4.094160	-0.010994	-0.116265
H43	H	-4.402781	-0.237020	-0.856806
Br44	Br	-3.588208	-0.828462	-0.106560
H45	H	-3.742175	-0.223233	-0.840087
H46	H	-3.666393	-0.223990	-0.669215
H47	H	-4.357223	-0.866290	-0.125276
H48	H	-3.613371	-0.224531	-0.549597
H49	H	-3.583150	-0.596029	-0.110241
Br50	Br	-4.269059	-0.446289	-0.129984
Br51	Br	-4.285716	-0.241291	-0.372384
Br52	Br	-4.384149	-0.240300	-0.594379
Br53	Br	-4.529605	-1.034377	-0.126849
H54	H	-3.760575	-0.996540	-0.108116
Br55	Br	-3.410760	-0.427933	-0.108664
Br56	Br	-3.427420	-0.223353	-0.350652
H57	H	-4.243740	-0.610141	-0.126629
H58	H	-4.327022	-0.237800	-0.685938
