data_functionalizedCrystal
_audit_creation_method	'MofGen! by Chris Wilmer'
_symmetry_space_group_name_H-M	'P1'
_symmetry_Int_Tables_number	1
_symmetry_cell_setting	triclinic
loop_
_symmetry_equiv_pos_as_xyz
  x,y,z
_cell_length_a	13.897449
_cell_length_b	19.121063
_cell_length_c	13.897449
_cell_angle_alpha	87.574651
_cell_angle_beta	90.005980
_cell_angle_gamma	92.470221
loop_
_atom_site_label
_atom_site_type_symbol
_atom_site_fract_x
_atom_site_fract_y
_atom_site_fract_z
Zn1	Zn	1.458104	-0.279712	0.561734
Zn2	Zn	1.708104	-0.029712	0.811734
Zn3	Zn	1.958104	0.220288	1.061734
Zn4	Zn	2.208104	0.470288	1.311734
Zn5	Zn	1.451130	-0.397136	0.407300
Zn6	Zn	1.701130	-0.147136	0.657300
Zn7	Zn	1.951130	0.102864	0.907300
Zn8	Zn	2.201130	0.352864	1.157300
Zn9	Zn	1.296835	-0.279704	0.400452
Zn10	Zn	1.546835	-0.029704	0.650452
Zn11	Zn	1.796835	0.220296	0.900452
Zn12	Zn	2.046835	0.470296	1.150452
Zn13	Zn	1.289866	-0.397131	0.568552
Zn14	Zn	1.539866	-0.147131	0.818552
Zn15	Zn	1.789866	0.102869	1.068552
Zn16	Zn	2.039866	0.352869	1.318552
O17	O	1.373984	-0.338421	0.484510
O18	O	1.623984	-0.088421	0.734510
O19	O	1.873984	0.161579	0.984510
O20	O	2.123984	0.411579	1.234510
O21	O	1.592160	-0.295294	0.541260
O22	O	1.842160	-0.045294	0.791260
O23	O	2.092160	0.204706	1.041260
O24	O	2.342160	0.454706	1.291260
O25	O	1.430661	-0.381557	0.271410
O26	O	1.680661	-0.131557	0.521410
O27	O	1.930661	0.118443	0.771410
O28	O	2.180661	0.368443	1.021410
O29	O	1.324063	-0.181419	0.416126
O30	O	1.574063	0.068581	0.666126
O31	O	1.824063	0.318581	0.916126
O32	O	2.074063	0.568581	1.166126
O33	O	1.587037	-0.381565	0.427799
O34	O	1.837037	-0.131565	0.677799
O35	O	2.087037	0.118435	0.927799
O36	O	2.337037	0.368435	1.177799
O37	O	1.442546	-0.181425	0.534620
O38	O	1.692546	0.068575	0.784620
O39	O	1.942546	0.318575	1.034620
O40	O	2.192546	0.568575	1.284620
O41	O	1.317301	-0.295280	0.266379
O42	O	1.567301	-0.045280	0.516379
O43	O	1.817301	0.204720	0.766379
O44	O	2.067301	0.454720	1.016379
O45	O	1.160929	-0.295276	0.422738
O46	O	1.410929	-0.045276	0.672738
O47	O	1.660929	0.204724	0.922738
O48	O	1.910929	0.454724	1.172738
O49	O	1.312185	-0.381557	0.702630
O50	O	1.562185	-0.131557	0.952630
O51	O	1.812185	0.118443	1.202630
O52	O	2.062185	0.368443	1.452630
O53	O	1.155809	-0.381549	0.546241
O54	O	1.405809	-0.131549	0.796241
O55	O	1.655809	0.118451	1.046241
O56	O	1.905809	0.368451	1.296241
O57	O	1.435789	-0.295290	0.697620
O58	O	1.685789	-0.045290	0.947620
O59	O	1.935789	0.204710	1.197620
O60	O	2.185789	0.454710	1.447620
O61	O	1.423903	-0.495421	0.434410
O62	O	1.673903	-0.245421	0.684410
O63	O	1.923903	0.004579	0.934410
O64	O	2.173903	0.254579	1.184410
O65	O	1.305423	-0.495418	0.552882
O66	O	1.555423	-0.245418	0.802882
O67	O	1.805423	0.004582	1.052882
O68	O	2.055423	0.254582	1.302882
C69	C	1.123370	-0.338411	0.484487
C70	C	1.373370	-0.088411	0.734487
C71	C	1.623370	0.161589	0.984487
C72	C	1.873370	0.411589	1.234487
C73	C	1.016155	-0.338424	0.484501
C74	C	1.266155	-0.088424	0.734501
C75	C	1.516155	0.161576	0.984501
C76	C	1.766155	0.411576	1.234501
C77	C	1.363176	-0.520904	0.495150
C78	C	1.613176	-0.270904	0.745150
C79	C	1.863176	-0.020904	0.995150
C80	C	2.113176	0.229096	1.245150
C81	C	1.358641	-0.598971	0.499735
C82	C	1.608641	-0.348971	0.749735
C83	C	1.858641	-0.098971	0.999735
C84	C	2.108641	0.151029	1.249735
C85	C	0.819860	-0.338427	0.484527
C86	C	1.069860	-0.088427	0.734527
C87	C	1.319860	0.161573	0.984527
C88	C	1.569860	0.411573	1.234527
C89	C	0.929093	-0.338423	0.484510
C90	C	1.179093	-0.088423	0.734510
C91	C	1.429093	0.161577	0.984510
C92	C	1.679093	0.411577	1.234510
C93	C	1.418245	-0.635625	0.440258
C94	C	1.668245	-0.385625	0.690258
C95	C	1.918245	-0.135625	0.940258
C96	C	2.168245	0.114375	1.190258
C97	C	1.413985	-0.708978	0.444575
C98	C	1.663985	-0.458978	0.694575
C99	C	1.913985	-0.208978	0.944575
C100	C	2.163985	0.041022	1.194575
C101	C	1.350116	-0.745674	0.508365
C102	C	1.600116	-0.495674	0.758365
C103	C	1.850116	-0.245674	1.008365
C104	C	2.100116	0.004326	1.258365
C105	C	1.290510	-0.709015	0.567848
C106	C	1.540510	-0.459015	0.817848
C107	C	1.790510	-0.209015	1.067848
C108	C	2.040510	0.040985	1.317848
C109	C	1.294775	-0.635664	0.563535
C110	C	1.544775	-0.385664	0.813535
C111	C	1.794775	-0.135664	1.063535
C112	C	2.044775	0.114336	1.313535
C113	C	1.334154	-0.967148	0.524476
C114	C	1.584154	-0.717148	0.774476
C115	C	1.834154	-0.467148	1.024476
C116	C	2.084154	-0.217148	1.274476
C117	C	1.329891	-1.040504	0.528782
C118	C	1.579891	-0.790504	0.778782
C119	C	1.829891	-0.540504	1.028782
C120	C	2.079891	-0.290504	1.278782
C121	C	1.453368	-1.040462	0.405510
C122	C	1.703368	-0.790462	0.655510
C123	C	1.953368	-0.540462	0.905510
C124	C	2.203368	-0.290462	1.155510
C125	C	1.457623	-0.967109	0.401198
C126	C	1.707623	-0.717109	0.651198
C127	C	1.957623	-0.467109	0.901198
C128	C	2.207623	-0.217109	1.151198
C129	C	1.398021	-0.930456	0.460685
C130	C	1.648021	-0.680456	0.710685
C131	C	1.898021	-0.430456	0.960685
C132	C	2.148021	-0.180456	1.210685
C133	C	1.345758	-0.820652	0.512777
C134	C	1.595758	-0.570652	0.762777
C135	C	1.845758	-0.320652	1.012777
C136	C	2.095758	-0.070652	1.262777
C137	C	1.402384	-0.855480	0.456277
C138	C	1.652384	-0.605480	0.706277
C139	C	1.902384	-0.355480	0.956277
C140	C	2.152384	-0.105480	1.206277
C141	C	1.625576	-0.338431	0.484533
C142	C	1.875576	-0.088431	0.734533
C143	C	2.125576	0.161569	0.984533
C144	C	2.375576	0.411569	1.234533
C145	C	1.732790	-0.338435	0.484543
C146	C	1.982790	-0.088435	0.734543
C147	C	2.232790	0.161565	0.984543
C148	C	2.482790	0.411565	1.234543
C149	C	1.373987	-0.338424	0.736103
C150	C	1.623987	-0.088424	0.986103
C151	C	1.873987	0.161576	1.236103
C152	C	2.123987	0.411576	1.486103
C153	C	1.373989	-0.338425	0.843317
C154	C	1.623989	-0.088425	1.093317
C155	C	1.873989	0.161575	1.343317
C156	C	2.123989	0.411575	1.593317
C157	C	1.384860	-0.155225	0.473848
C158	C	1.634860	0.094775	0.723848
C159	C	1.884860	0.344775	0.973848
C160	C	2.134860	0.594775	1.223848
C161	C	1.389495	-0.077158	0.469305
C162	C	1.639495	0.172842	0.719305
C163	C	1.889495	0.422842	0.969305
C164	C	2.139495	0.672842	1.219305
C165	C	1.373964	-0.338428	1.039612
C166	C	1.623964	-0.088428	1.289612
C167	C	1.873964	0.161572	1.539612
C168	C	2.123964	0.411572	1.789612
C169	C	1.373975	-0.338428	0.930379
C170	C	1.623975	-0.088428	1.180379
C171	C	1.873975	0.161572	1.430379
C172	C	2.123975	0.411572	1.680379
C173	C	1.373970	-0.338432	1.233896
C174	C	1.623970	-0.088432	1.483896
C175	C	1.873970	0.161568	1.733896
C176	C	2.123970	0.411568	1.983896
C177	C	1.373963	-0.338427	1.126682
C178	C	1.623963	-0.088427	1.376682
C179	C	1.873963	0.161573	1.626682
C180	C	2.123963	0.411573	1.876682
H181	H	1.470249	-0.605752	0.388309
H182	H	1.720249	-0.355752	0.638309
H183	H	1.970249	-0.105752	0.888309
H184	H	2.220249	0.144248	1.138309
H185	H	1.462520	-0.738819	0.396142
H186	H	1.712520	-0.488819	0.646142
H187	H	1.962520	-0.238819	0.896142
H188	H	2.212520	0.011181	1.146142
H189	H	1.509630	-0.937233	0.349255
H190	H	1.759630	-0.687233	0.599255
H191	H	2.009630	-0.437233	0.849255
H192	H	2.259630	-0.187233	1.099255
H193	H	1.246241	-0.605820	0.611969
H194	H	1.496241	-0.355820	0.861969
H195	H	1.746241	-0.105820	1.111969
H196	H	1.996241	0.144180	1.361969
H197	H	1.501894	-1.070313	0.357080
H198	H	1.751894	-0.820313	0.607080
H199	H	2.001894	-0.570313	0.857080
H200	H	2.251894	-0.320313	1.107080
H201	H	1.238511	-0.738899	0.619792
H202	H	1.488511	-0.488899	0.869792
H203	H	1.738511	-0.238899	1.119792
H204	H	1.988511	0.011101	1.369792
O205	O	1.269839	-0.927629	0.588614
O206	O	1.519839	-0.677629	0.838614
O207	O	1.769839	-0.427629	1.088614
O208	O	2.019839	-0.177629	1.338614
H209	H	1.285482	-0.941681	0.665162
H210	H	1.535482	-0.691681	0.915162
H211	H	1.785482	-0.441681	1.165162
H212	H	2.035482	-0.191681	1.415162
O213	O	1.261009	-1.080088	0.597594
O214	O	1.511009	-0.830088	0.847594
O215	O	1.761009	-0.580088	1.097594
O216	O	2.011009	-0.330088	1.347594
H217	H	1.220287	-1.042278	0.638243
H218	H	1.470287	-0.792278	0.888243
H219	H	1.720287	-0.542278	1.138243
H220	H	1.970287	-0.292278	1.388243
O221	O	1.471282	-0.815900	0.387491
O222	O	1.721282	-0.565900	0.637491
O223	O	1.971282	-0.315900	0.887491
O224	O	2.221282	-0.065900	1.137491
H225	H	1.430092	-0.782521	0.336415
H226	H	1.680092	-0.532521	0.586415
H227	H	1.930092	-0.282521	0.836415
H228	H	2.180092	-0.032521	1.086415
O229	O	1.276857	-0.860238	0.581558
O230	O	1.526857	-0.610238	0.831558
O231	O	1.776857	-0.360238	1.081558
O232	O	2.026857	-0.110238	1.331558
H233	H	1.318043	-0.893624	0.632630
H234	H	1.568043	-0.643624	0.882630
H235	H	1.818043	-0.393624	1.132630
H236	H	2.068043	-0.143624	1.382630
