data_functionalizedCrystal
_audit_creation_method	'MofGen! by Chris Wilmer'
_symmetry_space_group_name_H-M	'P1'
_symmetry_Int_Tables_number	1
_symmetry_cell_setting	triclinic
loop_
_symmetry_equiv_pos_as_xyz
  x,y,z
_cell_length_a	11.026607
_cell_length_b	10.268362
_cell_length_c	11.026607
_cell_angle_alpha	90.002696
_cell_angle_beta	71.413983
_cell_angle_gamma	89.995554
loop_
_atom_site_label
_atom_site_type_symbol
_atom_site_fract_x
_atom_site_fract_y
_atom_site_fract_z
O1	O	1.726735	-0.108297	-0.533624
O2	O	1.360155	-0.108299	-0.472861
O3	O	1.513063	-0.108294	-0.319953
O4	O	1.573827	-0.108303	-0.686533
O5	O	1.513042	0.108307	-0.319941
O6	O	1.360134	0.108302	-0.472850
O7	O	1.726714	0.108304	-0.533613
Cu8	Cu	1.543422	0.128080	-0.503230
Cu9	Cu	1.543447	-0.128075	-0.503244
O10	O	1.573806	0.108298	-0.686521
C11	C	1.312485	0.000001	-0.461645
C12	C	1.170471	0.000000	-0.428228
N13	N	1.543413	0.308246	-0.503222
C14	C	1.116821	-0.000003	-0.520498
C15	C	0.970043	-0.000004	-0.485962
C16	C	1.543432	0.573916	-0.503241
C17	C	1.543418	0.426078	-0.503233
C18	C	1.774384	0.000001	-0.544828
C19	C	1.916398	-0.000007	-0.578245
C20	C	1.501843	0.000005	-0.272287
C21	C	1.468426	0.000000	-0.130273
N22	N	1.543452	0.691759	-0.503246
C23	C	1.585026	-0.000004	-0.734187
C24	C	1.618443	-0.000007	-0.876200
C25	C	1.560695	-0.000001	-0.076624
C26	C	1.526160	-0.000006	0.070155
H27	H	1.179555	0.000002	-0.625061
C28	C	0.885303	-0.000000	-0.344692
N29	N	0.821475	0.000000	-0.238289
C30	C	1.384889	-0.000005	0.154894
N31	N	1.278487	-0.000000	0.218722
C32	C	1.085727	0.000004	-0.286965
N33	N	1.021899	0.000004	-0.180562
H34	H	0.979125	-0.000001	-0.682816
H35	H	1.665258	0.000008	-0.139357
H36	H	1.723013	-0.000105	0.061072
C37	C	1.327162	0.000001	-0.045529
N38	N	1.220759	0.000006	0.018299
