data_functionalizedCrystal
_audit_creation_method	'MofGen! by Chris Wilmer'
_symmetry_space_group_name_H-M	'P1'
_symmetry_Int_Tables_number	1
_symmetry_cell_setting	triclinic
loop_
_symmetry_equiv_pos_as_xyz
  x,y,z
_cell_length_a	14.044191
_cell_length_b	19.188924
_cell_length_c	12.503572
_cell_angle_alpha	93.509187
_cell_angle_beta	86.162165
_cell_angle_gamma	88.166870
loop_
_atom_site_label
_atom_site_type_symbol
_atom_site_fract_x
_atom_site_fract_y
_atom_site_fract_z
O1	O	1.262484	0.164611	-0.089277
O2	O	1.762484	0.664611	0.410723
O3	O	0.986540	0.158532	-0.089291
O4	O	1.486540	0.658532	0.410709
O5	O	1.132478	0.060430	-0.089271
O6	O	1.632478	0.560430	0.410729
O7	O	1.116546	0.262713	-0.089297
O8	O	1.616546	0.762713	0.410703
O9	O	1.121502	0.067821	0.089369
O10	O	1.621502	0.567821	0.589369
O11	O	0.975565	0.165924	0.089350
O12	O	1.475565	0.665924	0.589350
O13	O	1.251508	0.172002	0.089363
O14	O	1.751508	0.672002	0.589363
Cu15	Cu	1.112535	0.169638	0.105668
Cu16	Cu	1.612535	0.669638	0.605668
Cu17	Cu	1.125514	0.160897	-0.105595
Cu18	Cu	1.625514	0.660897	0.394405
O19	O	1.105571	0.270104	0.089343
O20	O	1.605571	0.770104	0.589343
C21	C	0.945749	0.159569	0.000028
C22	C	1.445749	0.659569	0.500028
C23	C	0.840557	0.151638	0.000023
C24	C	1.340557	0.651638	0.500023
C25	C	0.590096	0.193386	0.000029
C26	C	1.090096	0.693386	0.500029
C27	C	0.647959	0.137151	0.000034
C28	C	1.147959	0.637151	0.500034
C29	C	0.755130	0.145213	0.000028
C30	C	1.255130	0.645213	0.500028
C31	C	0.482915	0.185325	0.000035
C32	C	0.982915	0.685325	0.500035
C33	C	1.126475	0.038082	0.000050
C34	C	1.626475	0.538082	0.500050
C35	C	1.124929	-0.039523	0.000053
C36	C	1.624929	0.460477	0.500053
C37	C	1.130191	-0.079997	-0.097324
C38	C	1.630191	0.420003	0.402676
C39	C	1.128726	-0.152915	-0.097332
C40	C	1.628726	0.347085	0.402668
C41	C	1.122018	-0.185356	0.000042
C42	C	1.622018	0.314644	0.500042
C43	C	1.116750	-0.144872	0.097432
C44	C	1.616750	0.355128	0.597432
C45	C	1.118206	-0.071955	0.097438
C46	C	1.618206	0.428045	0.597438
N47	N	1.169205	-0.298687	0.072518
N48	N	1.669205	0.201313	0.572518
N49	N	1.167825	-0.367955	0.072506
N50	N	1.667825	0.132045	0.572506
C51	C	1.117629	-0.405049	0.000032
C52	C	1.617629	0.094951	0.500032
N53	N	1.068879	-0.370259	-0.072447
N54	N	1.568879	0.129741	0.427553
N55	N	1.070264	-0.300985	-0.072439
N56	N	1.570264	0.199015	0.427561
C57	C	1.120438	-0.264421	0.000047
C58	C	1.620438	0.235579	0.500047
C59	C	1.121301	-0.524589	-0.097361
C60	C	1.621301	-0.024589	0.402639
C61	C	1.119829	-0.597508	-0.097365
C62	C	1.619829	-0.097508	0.402635
C63	C	1.107864	-0.589463	0.097402
C64	C	1.607864	-0.089463	0.597402
C65	C	1.109325	-0.516546	0.097403
C66	C	1.609325	-0.016546	0.597403
C67	C	1.116049	-0.484113	0.000019
C68	C	1.616049	0.015887	0.500019
C69	C	1.292300	0.170965	0.000042
C70	C	1.792300	0.670965	0.500042
C71	C	1.397492	0.178896	0.000040
C72	C	1.897492	0.678896	0.500040
C73	C	1.111574	0.292452	0.000020
C74	C	1.611574	0.792452	0.500020
C75	C	1.113120	0.370057	0.000010
C76	C	1.613120	0.870057	0.500010
N77	N	1.103412	0.175785	0.254259
N78	N	1.603412	0.675785	0.754259
N79	N	1.134644	0.154744	-0.254186
N80	N	1.634644	0.654744	0.245814
C81	C	1.089993	0.184835	0.473372
C82	C	1.589993	0.684835	0.973372
C83	C	1.148060	0.145696	0.526707
C84	C	1.648060	0.645696	1.026707
C85	C	1.140594	0.150731	0.648629
C86	C	1.640594	0.650731	1.148629
C87	C	1.097458	0.179801	0.351439
C88	C	1.597458	0.679801	0.851439
H89	H	0.617015	0.082947	-0.000034
H90	H	1.117015	0.582947	0.499966
C91	C	1.128685	-0.488910	-0.204477
C92	C	1.628685	0.011090	0.295523
H93	H	1.131594	-0.523461	-0.262475
H94	H	1.631594	-0.023461	0.237525
H95	H	1.184751	-0.462518	-0.208523
H96	H	1.684751	0.037482	0.291477
H97	H	1.074248	-0.458747	-0.208524
H98	H	1.574248	0.041253	0.291476
C99	C	1.015244	0.235193	0.535373
C100	C	1.515244	0.735193	1.035373
H101	H	0.979779	0.259082	0.485879
H102	H	1.479779	0.759082	0.985879
H103	H	1.046618	0.268130	0.579253
H104	H	1.546618	0.768130	1.079253
H105	H	0.973199	0.209423	0.579235
H106	H	1.473199	0.709423	1.079235
C107	C	1.100477	-0.625139	0.204512
C108	C	1.600477	-0.125139	0.704512
H109	H	1.100366	-0.674363	0.190564
H110	H	1.600366	-0.174363	0.690564
H111	H	1.043009	-0.609651	0.244518
H112	H	1.543009	-0.109651	0.744518
H113	H	1.153512	-0.613424	0.244530
H114	H	1.653512	-0.113424	0.744530
H115	H	1.105049	-0.483591	0.176698
H116	H	1.605049	0.016409	0.676698
C117	C	1.222823	0.095344	0.464701
C118	C	1.722823	0.595344	0.964701
H119	H	1.218117	0.098533	0.389702
H120	H	1.718117	0.598533	0.889702
H121	H	1.211545	0.048867	0.483055
H122	H	1.711545	0.548867	0.983055
H123	H	1.284945	0.107586	0.483078
H124	H	1.784945	0.607586	0.983078
H125	H	1.135663	-0.053595	-0.176622
H126	H	1.635663	0.446405	0.323378
C127	C	0.631900	0.266601	0.000003
C128	C	1.131900	0.766601	0.500003
H129	H	0.699493	0.262482	-0.000011
H130	H	1.199493	0.762482	0.499989
H131	H	0.607188	0.293828	0.062290
H132	H	1.107188	0.793828	0.562290
H133	H	0.614830	0.288656	-0.062309
H134	H	1.114830	0.788656	0.437691
C135	C	1.134551	-0.197447	-0.204451
C136	C	1.634551	0.302553	0.295549
H137	H	1.138779	-0.167688	-0.262448
H138	H	1.638779	0.332312	0.237552
H139	H	1.078998	-0.224188	-0.208534
H140	H	1.578998	0.275812	0.291466
H141	H	1.189498	-0.227930	-0.208463
H142	H	1.689498	0.272070	0.291537
C143	C	1.109374	-0.180554	0.204541
C144	C	1.609374	0.319446	0.704541
H145	H	1.109270	-0.229778	0.190592
H146	H	1.609270	0.270222	0.690592
H147	H	1.051906	-0.165070	0.244551
H148	H	1.551906	0.334930	0.744551
H149	H	1.162409	-0.168834	0.244555
H150	H	1.662409	0.331166	0.744555
C151	C	1.112427	-0.027432	0.204557
C152	C	1.612427	0.472568	0.704557
H153	H	1.108227	-0.057193	0.262551
H154	H	1.608227	0.442807	0.762551
H155	H	1.057502	0.003067	0.208605
H156	H	1.557502	0.503067	0.708605
H157	H	1.168006	-0.000709	0.208607
H158	H	1.668006	0.499291	0.708607
H159	H	1.124109	-0.630461	-0.176665
H160	H	1.624109	-0.130461	0.323335
