data_functionalizedCrystal
_audit_creation_method	'MofGen! by Chris Wilmer'
_symmetry_space_group_name_H-M	'P1'
_symmetry_Int_Tables_number	1
_symmetry_cell_setting	triclinic
loop_
_symmetry_equiv_pos_as_xyz
  x,y,z
_cell_length_a	21.295419
_cell_length_b	21.295417
_cell_length_c	18.215399
_cell_angle_alpha	89.968895
_cell_angle_beta	89.980317
_cell_angle_gamma	90.044503
loop_
_atom_site_label
_atom_site_type_symbol
_atom_site_fract_x
_atom_site_fract_y
_atom_site_fract_z
Zn1	Zn	0.962329	-0.250367	-0.416097
Zn2	Zn	1.295662	0.082966	-0.082764
Zn3	Zn	1.628996	0.416300	0.250570
Zn4	Zn	0.962242	-0.355638	-0.293024
Zn5	Zn	1.295575	-0.022305	0.040309
Zn6	Zn	1.628908	0.311028	0.373643
Zn7	Zn	0.857061	-0.250414	-0.293045
Zn8	Zn	1.190394	0.082919	0.040289
Zn9	Zn	1.523728	0.416253	0.373622
Zn10	Zn	0.857023	-0.355630	-0.416049
Zn11	Zn	1.190356	-0.022296	-0.082716
Zn12	Zn	1.523690	0.311037	0.250618
O13	O	0.909664	-0.303012	-0.354554
O14	O	1.242997	0.030321	-0.021220
O15	O	1.576330	0.363654	0.312113
O16	O	1.050407	-0.264315	-0.399782
O17	O	1.383740	0.069018	-0.066449
O18	O	1.717073	0.402351	0.266884
O19	O	0.948269	-0.341703	-0.190042
O20	O	1.281602	-0.008370	0.143291
O21	O	1.614935	0.324963	0.476624
O22	O	0.871077	-0.162318	-0.309396
O23	O	1.204411	0.171015	0.023937
O24	O	1.537744	0.504348	0.357270
O25	O	1.050343	-0.341658	-0.309361
O26	O	1.383676	-0.008324	0.023972
O27	O	1.717009	0.325009	0.357306
O28	O	0.948417	-0.162284	-0.399802
O29	O	1.281751	0.171049	-0.066469
O30	O	1.615084	0.504383	0.266864
O31	O	0.870993	-0.264396	-0.190058
O32	O	1.204326	0.068938	0.143276
O33	O	1.537660	0.402271	0.476609
O34	O	0.768967	-0.264387	-0.309350
O35	O	1.102300	0.068946	0.023983
O36	O	1.435633	0.402280	0.357317
O37	O	0.871013	-0.341643	-0.519040
O38	O	1.204346	-0.008310	-0.185706
O39	O	1.537679	0.325024	0.147627
O40	O	0.768939	-0.341689	-0.399721
O41	O	1.102272	-0.008355	-0.066388
O42	O	1.435605	0.324978	0.266946
O43	O	0.948380	-0.264307	-0.519075
O44	O	1.281714	0.069026	-0.185742
O45	O	1.615047	0.402360	0.147592
O46	O	0.948232	-0.443726	-0.309315
O47	O	1.281565	-0.110393	0.024019
O48	O	1.614898	0.222940	0.357352
O49	O	0.870928	-0.443720	-0.399701
O50	O	1.204261	-0.110387	-0.066367
O51	O	1.537595	0.222947	0.266966
C52	C	0.746112	-0.303042	-0.354533
C53	C	1.079445	0.030291	-0.021200
C54	C	1.412779	0.363624	0.312134
C55	C	0.676144	-0.303071	-0.354542
C56	C	1.009477	0.030263	-0.021208
C57	C	1.342811	0.363596	0.312125
C58	C	0.909583	-0.466564	-0.354516
C59	C	1.242917	-0.133231	-0.021183
C60	C	1.576250	0.200103	0.312150
C61	C	0.909607	-0.536532	-0.354525
C62	C	1.242940	-0.203199	-0.021192
C63	C	1.576273	0.130135	0.312142
C64	C	0.949855	-0.569323	-0.401633
C65	C	1.283188	-0.235990	-0.068300
C66	C	1.616521	0.097343	0.265034
C67	C	0.949877	-0.635066	-0.401651
C68	C	1.283210	-0.301733	-0.068318
C69	C	1.616543	0.031601	0.265015
C70	C	0.909658	-0.668014	-0.354548
C71	C	1.242991	-0.334681	-0.021215
C72	C	1.576324	-0.001348	0.312118
C73	C	0.869402	-0.635215	-0.307437
C74	C	1.202735	-0.301882	0.025896
C75	C	1.536069	0.031452	0.359230
C76	C	0.869377	-0.569474	-0.307425
C77	C	1.202710	-0.236140	0.025908
C78	C	1.536043	0.097193	0.359241
N79	N	0.904903	-0.771278	-0.290142
N80	N	1.238236	-0.437945	0.043191
N81	N	1.571570	-0.104611	0.376525
N82	N	0.904931	-0.833730	-0.290155
N83	N	1.238264	-0.500396	0.043178
N84	N	1.571598	-0.167063	0.376512
C85	C	0.909731	-0.866089	-0.354581
C86	C	1.243065	-0.532756	-0.021248
C87	C	1.576398	-0.199422	0.312085
N88	N	0.914515	-0.833638	-0.418996
N89	N	1.247848	-0.500305	-0.085662
N90	N	1.581182	-0.166971	0.247671
N91	N	0.914490	-0.771181	-0.418982
N92	N	1.247824	-0.437847	-0.085648
N93	N	1.581157	-0.104514	0.247685
C94	C	0.909681	-0.739300	-0.354556
C95	C	1.243014	-0.405966	-0.021223
C96	C	1.576347	-0.072633	0.312111
C97	C	0.950005	-0.970166	-0.401713
C98	C	1.283339	-0.636833	-0.068380
C99	C	1.616672	-0.303499	0.264953
C100	C	0.950023	-1.035910	-0.401733
C101	C	1.283356	-0.702577	-0.068399
C102	C	1.616690	-0.369243	0.264934
C103	C	0.869552	-1.036058	-0.307512
C104	C	1.202885	-0.702724	0.025822
C105	C	1.536218	-0.369391	0.359155
C106	C	0.869531	-0.970315	-0.307499
C107	C	1.202864	-0.636982	0.025835
C108	C	1.536197	-0.303648	0.359168
C109	C	0.909761	-0.937373	-0.354599
C110	C	1.243094	-0.604040	-0.021265
C111	C	1.576427	-0.270707	0.312068
C112	C	0.643333	-0.262864	-0.401697
C113	C	0.976666	0.070469	-0.068363
C114	C	1.310000	0.403802	0.264970
C115	C	0.577591	-0.262847	-0.401700
C116	C	0.910924	0.070486	-0.068366
C117	C	1.244257	0.403819	0.264967
C118	C	0.544661	-0.303048	-0.354555
C119	C	0.877995	0.030285	-0.021222
C120	C	1.211328	0.363619	0.312112
C121	C	0.577480	-0.343257	-0.307391
C122	C	0.910814	-0.009924	0.025943
C123	C	1.244147	0.323410	0.359276
C124	C	0.643221	-0.343268	-0.307384
C125	C	0.976555	-0.009935	0.025949
C126	C	1.309888	0.323398	0.359283
N127	N	0.441387	-0.358126	-0.348805
N128	N	0.774721	-0.024793	-0.015471
N129	N	1.108054	0.308541	0.317862
N130	N	0.378936	-0.358114	-0.348815
N131	N	0.712269	-0.024780	-0.015482
N132	N	1.045602	0.308553	0.317851
C133	C	0.346587	-0.303015	-0.354571
C134	C	0.679920	0.030318	-0.021238
C135	C	1.013253	0.363651	0.312095
N136	N	0.379048	-0.247929	-0.360331
N137	N	0.712382	0.085404	-0.026997
N138	N	1.045715	0.418738	0.306336
N139	N	0.441506	-0.247942	-0.360324
N140	N	0.774839	0.085391	-0.026990
N141	N	1.108172	0.418725	0.306343
C142	C	0.473376	-0.303040	-0.354557
C143	C	0.806709	0.030293	-0.021223
C144	C	1.140043	0.363627	0.312110
C145	C	0.242490	-0.262787	-0.401732
C146	C	0.575824	0.070546	-0.068399
C147	C	0.909157	0.403879	0.264935
C148	C	0.176747	-0.262769	-0.401730
C149	C	0.510080	0.070564	-0.068396
C150	C	0.843413	0.403897	0.264937
C151	C	0.176638	-0.343185	-0.307425
C152	C	0.509971	-0.009851	0.025909
C153	C	0.843304	0.323482	0.359242
C154	C	0.242380	-0.343197	-0.307423
C155	C	0.575713	-0.009864	0.025910
C156	C	0.909047	0.323470	0.359243
C157	C	0.275302	-0.302999	-0.354581
C158	C	0.608636	0.030334	-0.021247
C159	C	0.941969	0.363667	0.312086
C160	C	1.073854	-0.302982	-0.354575
C161	C	1.407187	0.030351	-0.021241
C162	C	1.740521	0.363684	0.312092
C163	C	1.143822	-0.302970	-0.354584
C164	C	1.477155	0.030364	-0.021250
C165	C	1.810489	0.363697	0.312083
C166	C	0.909702	-0.302969	-0.546507
C167	C	1.243035	0.030365	-0.213173
C168	C	1.576369	0.363698	0.120160
C169	C	0.909718	-0.302950	-0.628306
C170	C	1.243052	0.030383	-0.294972
C171	C	1.576385	0.363716	0.038361
C172	C	0.909761	-0.138822	-0.354607
C173	C	1.243095	0.194511	-0.021274
C174	C	1.576428	0.527845	0.312060
C175	C	0.909803	-0.068854	-0.354630
C176	C	1.243136	0.264480	-0.021297
C177	C	1.576470	0.597813	0.312037
C178	C	0.950018	-0.262644	-0.816519
C179	C	1.283352	0.070689	-0.483186
C180	C	1.616685	0.404023	-0.149852
C181	C	0.950026	-0.262626	-0.893378
C182	C	1.283359	0.070708	-0.560045
C183	C	1.616692	0.404041	-0.226711
C184	C	0.869463	-0.343159	-0.893330
C185	C	1.202796	-0.009826	-0.559997
C186	C	1.536130	0.323507	-0.226663
C187	C	0.869453	-0.343174	-0.816473
C188	C	1.202786	-0.009841	-0.483139
C189	C	1.536119	0.323493	-0.149806
C190	C	0.909734	-0.302917	-0.778069
C191	C	1.243067	0.030416	-0.444736
C192	C	1.576401	0.363749	-0.111402
C193	C	0.909752	-0.302884	-0.931785
C194	C	1.243085	0.030449	-0.598452
C195	C	1.576418	0.363782	-0.265119
C196	C	0.909760	-0.302865	-1.015119
C197	C	1.243093	0.030469	-0.681786
C198	C	1.576426	0.363802	-0.348452
C199	C	0.909725	-0.302936	-0.694730
C200	C	1.243059	0.030397	-0.361397
C201	C	1.576392	0.363731	-0.028063
C202	C	0.909662	-0.303010	-0.163347
C203	C	1.242995	0.030323	0.169986
C204	C	1.576328	0.363657	0.503319
C205	C	0.909767	-0.302851	-0.081549
C206	C	1.243101	0.030482	0.251784
C207	C	1.576434	0.363816	0.585118
H208	H	0.982611	-0.542504	-0.439986
H209	H	1.315944	-0.209171	-0.106653
H210	H	1.649277	0.124162	0.226680
H211	H	0.836601	-0.542774	-0.269064
H212	H	1.169935	-0.209441	0.064270
H213	H	1.503268	0.123892	0.397603
H214	H	0.836669	-0.375936	-0.924607
H215	H	1.170002	-0.042603	-0.591274
H216	H	1.503336	0.290730	-0.257941
N217	N	0.828308	-0.384314	-0.777180
N218	N	1.161641	-0.050980	-0.443847
N219	N	1.494974	0.282353	-0.110514
N220	N	0.828304	-0.384318	-0.708559
N221	N	1.161638	-0.050985	-0.375225
N222	N	1.494971	0.282349	-0.041892
H223	H	0.799245	-0.413369	-0.680807
H224	H	1.132579	-0.080036	-0.347473
H225	H	1.465912	0.253298	-0.014140
N226	N	0.990994	-0.668561	-0.449778
N227	N	1.324328	-0.335228	-0.116445
N228	N	1.657661	-0.001895	0.216888
N229	N	1.026908	-0.639142	-0.491828
N230	N	1.360242	-0.305808	-0.158494
N231	N	1.693575	0.027525	0.174839
H232	H	1.055949	-0.662795	-0.525817
H233	H	1.389282	-0.329462	-0.192484
H234	H	1.722616	0.003871	0.140850
N235	N	0.676750	-0.384344	-0.259227
N236	N	1.010083	-0.051010	0.074106
N237	N	1.343417	0.282323	0.407440
N238	N	0.735447	-0.384351	-0.259232
N239	N	1.068780	-0.051018	0.074101
N240	N	1.402114	0.282316	0.407434
H241	H	0.759129	-0.413362	-0.225223
H242	H	1.092462	-0.080028	0.108111
H243	H	1.425795	0.253305	0.441444
N244	N	0.276115	-0.221721	-0.449899
N245	N	0.609448	0.111613	-0.116566
N246	N	0.942782	0.444946	0.216767
N247	N	0.246808	-0.185817	-0.491993
N248	N	0.580141	0.147516	-0.158660
N249	N	0.913475	0.480849	0.174673
H250	H	0.270553	-0.156812	-0.526012
H251	H	0.603886	0.176521	-0.192678
H252	H	0.937220	0.509855	0.140655
N253	N	0.143239	-0.221683	-0.449893
N254	N	0.476572	0.111650	-0.116560
N255	N	0.809905	0.444984	0.216773
N256	N	0.172645	-0.185794	-0.491986
N257	N	0.505978	0.147540	-0.158653
N258	N	0.839311	0.480873	0.174681
H259	H	0.148980	-0.156773	-0.526000
H260	H	0.482313	0.176560	-0.192667
H261	H	0.815646	0.509894	0.140666
H262	H	0.982816	-0.229862	-0.785253
H263	H	1.316149	0.103471	-0.451920
H264	H	1.649483	0.436804	-0.118587
N265	N	0.828319	-0.668877	-0.259331
N266	N	1.161653	-0.335544	0.074002
N267	N	1.494986	-0.002211	0.407335
N268	N	0.828347	-0.727574	-0.259347
N269	N	1.161681	-0.394241	0.073986
N270	N	1.495014	-0.060908	0.407319
H271	H	0.799329	-0.751349	-0.225374
H272	H	1.132662	-0.418016	0.107959
H273	H	1.465996	-0.084683	0.441293
N274	N	0.143021	-0.384249	-0.259255
N275	N	0.476354	-0.050915	0.074078
N276	N	0.809688	0.282418	0.407411
N277	N	0.150348	-0.379999	-0.191357
N278	N	0.483681	-0.046665	0.141977
N279	N	0.817015	0.286668	0.475310
H280	H	0.126605	-0.409000	-0.157332
H281	H	0.459938	-0.075667	0.176001
H282	H	0.793272	0.257667	0.509335
H283	H	0.269095	-0.375940	-0.269027
H284	H	0.602428	-0.042607	0.064306
H285	H	0.935762	0.290727	0.397639
H286	H	0.982761	-0.943344	-0.440067
H287	H	1.316095	-0.610011	-0.106734
H288	H	1.649428	-0.276677	0.226600
N289	N	0.991176	-0.221480	-0.932642
N290	N	1.324509	0.111854	-0.599309
N291	N	1.657843	0.445187	-0.265975
N292	N	1.027133	-0.185539	-0.898341
N293	N	1.360466	0.147794	-0.565008
N294	N	1.693800	0.481128	-0.231674
H295	H	1.056197	-0.156476	-0.926070
H296	H	1.389530	0.176857	-0.592737
H297	H	1.722863	0.510190	-0.259404
N298	N	0.828415	-0.936825	-0.259373
N299	N	1.161748	-0.603492	0.073961
N300	N	1.495081	-0.270159	0.407294
N301	N	0.792505	-0.966248	-0.217321
N302	N	1.125838	-0.632915	0.116012
N303	N	1.459172	-0.299582	0.449345
H304	H	0.763463	-0.942597	-0.183331
H305	H	1.096796	-0.609263	0.150002
H306	H	1.430129	-0.275930	0.483335
N307	N	0.828475	-1.069714	-0.259397
N308	N	1.161808	-0.736381	0.073936
N309	N	1.495142	-0.403047	0.407270
N310	N	0.850658	-1.106402	-0.212532
N311	N	1.183992	-0.773069	0.120801
N312	N	1.517325	-0.439736	0.454134
H313	H	0.821645	-1.130176	-0.178552
H314	H	1.154979	-0.796842	0.154782
H315	H	1.488312	-0.463509	0.488115
H316	H	0.550665	-0.375988	-0.269005
H317	H	0.883998	-0.042655	0.064329
H318	H	1.217332	0.290678	0.397662
H319	H	0.982798	-1.062608	-0.440097
H320	H	1.316131	-0.729274	-0.106764
H321	H	1.649464	-0.395941	0.226570
H322	H	0.550871	-0.230103	-0.440098
H323	H	0.884204	0.103230	-0.106764
H324	H	1.217537	0.436563	0.226569
N325	N	0.676952	-0.221803	-0.449872
N326	N	1.010285	0.111531	-0.116539
N327	N	1.343618	0.444864	0.216794
N328	N	0.647643	-0.185907	-0.491974
N329	N	0.980976	0.147426	-0.158641
N330	N	1.314310	0.480759	0.174692
H331	H	0.671387	-0.156907	-0.526000
H332	H	1.004720	0.176426	-0.192666
H333	H	1.338053	0.509759	0.140667
