data_functionalizedCrystal
_audit_creation_method	'MofGen! by Chris Wilmer'
_symmetry_space_group_name_H-M	'P1'
_symmetry_Int_Tables_number	1
_symmetry_cell_setting	triclinic
loop_
_symmetry_equiv_pos_as_xyz
  x,y,z
_cell_length_a	19.188930
_cell_length_b	23.532407
_cell_length_c	18.266242
_cell_angle_alpha	89.988983
_cell_angle_beta	89.977082
_cell_angle_gamma	82.996728
loop_
_atom_site_label
_atom_site_type_symbol
_atom_site_fract_x
_atom_site_fract_y
_atom_site_fract_z
O1	O	0.925922	0.071102	-0.061124
O2	O	0.722581	0.080673	-0.061074
O3	O	0.830383	-0.007031	-0.061087
O4	O	0.818120	0.158806	-0.061111
O5	O	0.830365	-0.007035	0.060675
O6	O	0.722562	0.080669	0.060688
O7	O	0.925904	0.071097	0.060638
Zn8	Zn	0.824230	0.075882	0.079995
Zn9	Zn	0.824254	0.075888	-0.080431
O10	O	0.818102	0.158802	0.060651
C11	C	0.696561	0.080361	-0.000187
C12	C	0.619060	0.079431	-0.000168
C13	C	0.573972	0.130893	-0.000187
C14	C	0.501151	0.130019	-0.000194
C15	C	0.473421	0.077680	-0.000198
C16	C	0.518519	0.026211	-0.000175
C17	C	0.591339	0.027086	-0.000160
N18	N	0.365575	0.037674	-0.041663
N19	N	0.296399	0.036846	-0.041679
C20	C	0.254021	0.075038	-0.000243
N21	N	0.283431	0.114099	0.041201
N22	N	0.352613	0.114929	0.041214
C23	C	0.394462	0.076724	-0.000214
C24	C	0.129971	0.125556	-0.000269
C25	C	0.057149	0.124680	-0.000272
C26	C	0.074520	0.020870	-0.000260
C27	C	0.147340	0.021748	-0.000250
C28	C	0.175061	0.074092	-0.000257
C29	C	0.830062	-0.028250	-0.000204
C30	C	0.829123	-0.091469	-0.000198
C31	C	0.887029	-0.490449	-0.000252
C32	C	0.886157	-0.549851	-0.000258
O33	O	0.939837	-0.586482	-0.000298
N34	N	0.822068	-0.572613	-0.000242
C35	C	0.758848	-0.535970	-0.000228
O36	O	0.704255	-0.560786	-0.000215
C37	C	0.759721	-0.476569	-0.000228
C38	C	0.823814	-0.453810	-0.000236
C39	C	0.951117	-0.467690	-0.000262
C40	C	0.951989	-0.408292	-0.000255
C41	C	0.888773	-0.371653	-0.000239
C42	C	0.824685	-0.394412	-0.000230
C43	C	0.696501	-0.439927	-0.000219
C44	C	0.697379	-0.380523	-0.000219
C45	C	0.761472	-0.357764	-0.000228
C46	C	0.762342	-0.298376	-0.000207
N47	N	0.826430	-0.275614	-0.000223
C48	C	0.889646	-0.312252	-0.000239
C49	C	0.757019	-0.660717	-0.000229
C50	C	0.756146	-0.720116	-0.000224
C51	C	0.883455	-0.733993	-0.000256
C52	C	0.884328	-0.674592	-0.000255
C53	C	0.821108	-0.637954	-0.000245
C54	C	0.891472	-0.187512	-0.000224
C55	C	0.892339	-0.128108	-0.000214
C56	C	0.765029	-0.114236	-0.000187
C57	C	0.764163	-0.173634	-0.000193
C58	C	0.827390	-0.210272	-0.000214
O59	O	0.708690	-0.261710	-0.000170
O60	O	0.944230	-0.287428	-0.000261
C61	C	0.951923	0.071410	-0.000251
C62	C	1.029425	0.072340	-0.000275
C63	C	0.818423	0.180021	-0.000234
C64	C	0.819362	0.243240	-0.000244
N65	N	0.824219	0.075878	0.189482
N66	N	0.824271	0.075888	-0.189918
C67	C	0.871970	0.037062	0.227785
C68	C	0.871974	0.037059	0.304430
C69	C	0.824235	0.075883	0.342769
C70	C	0.776475	0.114702	0.304457
C71	C	0.776468	0.114700	0.227813
N72	N	0.814998	0.126298	0.463096
N73	N	0.815010	0.126298	0.535904
C74	C	0.824254	0.075891	0.573691
N75	N	0.833500	0.025481	0.535921
N76	N	0.833492	0.025482	0.463106
C77	C	0.824238	0.075889	0.425876
C78	C	0.872012	0.037068	0.695102
C79	C	0.872012	0.037065	0.771748
C80	C	0.776516	0.114713	0.771773
C81	C	0.776513	0.114711	0.695128
C82	C	0.824265	0.075890	0.656797
H83	H	0.051943	-0.021745	-0.000309
H84	H	0.711973	-0.192165	-0.000165
C85	C	0.924488	-0.005645	0.185620
C86	C	0.977013	-0.048348	0.227755
C87	C	1.029529	-0.091056	0.185586
C88	C	1.029520	-0.091061	0.101281
C89	C	0.976994	-0.048356	0.059141
C90	C	0.924477	-0.005648	0.101310
H91	H	0.977021	-0.048346	0.290167
H92	H	1.068413	-0.122668	0.216781
H93	H	1.068396	-0.122675	0.070065
H94	H	0.976986	-0.048358	-0.003271
H95	H	0.885594	0.025964	0.070115
H96	H	0.495937	-0.016404	-0.000188
C97	C	0.687471	-0.620417	-0.000205
C98	C	0.670560	-0.577662	-0.063426
C99	C	0.601013	-0.537367	-0.063403
C100	C	0.548376	-0.539825	-0.000159
C101	C	0.565285	-0.582581	0.063067
C102	C	0.634833	-0.622877	0.063043
H103	H	0.709526	-0.575841	-0.110248
H104	H	0.588496	-0.505716	-0.110208
H105	H	0.496893	-0.509996	-0.000142
H106	H	0.526319	-0.584403	0.109888
H107	H	0.647350	-0.654528	0.109848
C108	C	0.961022	-0.227806	-0.000242
C109	C	0.977954	-0.270539	-0.063475
C110	C	1.047503	-0.310833	-0.063488
C111	C	1.100120	-0.308394	-0.000266
C112	C	1.083189	-0.265660	0.062972
C113	C	1.013640	-0.225366	0.062984
H114	H	0.939003	-0.272346	-0.110280
H115	H	1.060036	-0.342468	-0.110301
H116	H	1.151604	-0.338222	-0.000275
H117	H	1.122140	-0.263853	0.109776
H118	H	1.001107	-0.193731	0.109797
C119	C	0.196941	-0.034863	-0.000240
C120	C	0.194057	-0.077807	0.062988
C121	C	0.243658	-0.134421	0.063000
C122	C	0.296142	-0.148090	-0.000217
C123	C	0.299029	-0.105144	-0.063450
C124	C	0.249428	-0.048531	-0.063461
H125	H	0.155203	-0.067689	0.109789
H126	H	0.241521	-0.166212	0.109810
H127	H	0.332860	-0.189999	-0.000208
H128	H	0.337883	-0.115262	-0.110251
H129	H	0.251565	-0.016739	-0.110271
H130	H	0.596537	0.173516	-0.000194
C131	C	0.723962	0.157410	0.346625
C132	C	0.724001	0.157443	0.430930
C133	C	0.671482	0.200150	0.473097
C134	C	0.618925	0.242825	0.430959
C135	C	0.618884	0.242794	0.346649
C136	C	0.671403	0.200086	0.304482
H137	H	0.762908	0.125851	0.462127
H138	H	0.671513	0.200173	0.535508
H139	H	0.580048	0.274439	0.462173
H140	H	0.579977	0.274386	0.315452
H141	H	0.671372	0.200064	0.242071
H142	H	0.628050	-0.014822	-0.000145
H143	H	0.910894	0.005453	0.802935
H144	H	0.910860	0.005449	0.335623
H145	H	0.910893	0.005455	0.663892
C146	C	1.020662	-0.507986	-0.000276
C147	C	1.073278	-0.505540	0.062946
C148	C	1.142829	-0.545832	0.062939
C149	C	1.159764	-0.588569	-0.000290
C150	C	1.107148	-0.591016	-0.063516
C151	C	1.037597	-0.550725	-0.063509
H152	H	1.060742	-0.473902	0.109755
H153	H	1.181779	-0.544020	0.109743
H154	H	1.211250	-0.618395	-0.000295
H155	H	1.119683	-0.622654	-0.110325
H156	H	0.998647	-0.552537	-0.110313
H157	H	0.644310	-0.458446	-0.000216
H158	H	0.737643	0.146322	0.802988
H159	H	0.944533	-0.109581	-0.000220
C160	C	0.451542	0.186630	-0.000224
C161	C	0.482034	0.244205	-0.000235
C162	C	0.432427	0.300816	-0.000268
C163	C	0.352329	0.299852	-0.000289
C164	C	0.321833	0.242274	-0.000278
C165	C	0.371439	0.185663	-0.000246
H166	H	0.541331	0.244921	-0.000219
H167	H	0.455003	0.343439	-0.000276
H168	H	0.315607	0.341758	-0.000314
H169	H	0.262536	0.241558	-0.000295
H170	H	0.348864	0.143040	-0.000238
C171	C	0.160474	0.183131	-0.000269
C172	C	0.143272	0.225827	0.062954
C173	C	0.173774	0.283401	0.062953
C174	C	0.221479	0.298279	-0.000270
C175	C	0.238684	0.255582	-0.063497
C176	C	0.208182	0.198008	-0.063497
H177	H	0.107955	0.214814	0.109759
H178	H	0.161038	0.315008	0.109759
H179	H	0.244059	0.340899	-0.000270
H180	H	0.274001	0.266595	-0.110303
H181	H	0.220919	0.166401	-0.110303
C182	C	0.627834	-0.340221	-0.000206
C183	C	0.575214	-0.342654	-0.063425
C184	C	0.505670	-0.302354	-0.063409
C185	C	0.488747	-0.259620	-0.000176
C186	C	0.541369	-0.257184	0.063047
C187	C	0.610913	-0.297485	0.063032
H188	H	0.587740	-0.374290	-0.110238
H189	H	0.466715	-0.304157	-0.110212
H190	H	0.437267	-0.229787	-0.000165
H191	H	0.528843	-0.225549	0.109861
H192	H	0.649867	-0.295682	0.109835
H193	H	0.020438	0.166588	-0.000284
H194	H	1.004180	-0.389768	-0.000265
H195	H	0.936518	-0.656067	-0.000263
H196	H	0.737582	0.146309	0.196626
H197	H	0.934929	-0.763836	-0.000272
H198	H	0.703955	-0.738641	-0.000205
H199	H	0.713561	-0.084394	-0.000171
H200	H	0.737633	0.146322	0.663940
