data_functionalizedCrystal
_audit_creation_method	'MofGen! by Chris Wilmer'
_symmetry_space_group_name_H-M	'P1'
_symmetry_Int_Tables_number	1
_symmetry_cell_setting	triclinic
loop_
_symmetry_equiv_pos_as_xyz
  x,y,z
_cell_length_a	21.395362
_cell_length_b	21.295417
_cell_length_c	21.395355
_cell_angle_alpha	90.021451
_cell_angle_beta	90.043940
_cell_angle_gamma	90.046383
loop_
_atom_site_label
_atom_site_type_symbol
_atom_site_fract_x
_atom_site_fract_y
_atom_site_fract_z
Zn1	Zn	0.957860	-0.250415	0.354573
Zn2	Zn	1.291194	0.082918	0.687906
Zn3	Zn	1.624527	0.416251	1.021239
Zn4	Zn	0.957763	-0.355667	0.249790
Zn5	Zn	1.291097	-0.022334	0.583123
Zn6	Zn	1.624430	0.311000	0.916457
Zn7	Zn	0.853075	-0.250445	0.249774
Zn8	Zn	1.186409	0.082889	0.583107
Zn9	Zn	1.519742	0.416222	0.916441
Zn10	Zn	0.853045	-0.355680	0.354495
Zn11	Zn	1.186378	-0.022346	0.687828
Zn12	Zn	1.519712	0.310987	1.021161
O13	O	0.905436	-0.303052	0.302158
O14	O	1.238769	0.030282	0.635491
O15	O	1.572103	0.363615	0.968825
O16	O	1.045525	-0.264359	0.340713
O17	O	1.378859	0.068974	0.674046
O18	O	1.712192	0.402307	1.007379
O19	O	0.943848	-0.341716	0.162110
O20	O	1.277182	-0.008382	0.495443
O21	O	1.610515	0.324951	0.828777
O22	O	0.867029	-0.162351	0.263702
O23	O	1.200362	0.170982	0.597035
O24	O	1.533695	0.504315	0.930369
O25	O	1.045454	-0.341687	0.263729
O26	O	1.378787	-0.008354	0.597062
O27	O	1.712121	0.324979	0.930396
O28	O	0.944014	-0.162330	0.340697
O29	O	1.277347	0.171004	0.674030
O30	O	1.610680	0.504337	1.007364
O31	O	0.866934	-0.264409	0.162098
O32	O	1.200268	0.068924	0.495432
O33	O	1.533601	0.402257	0.828765
O34	O	0.765393	-0.264422	0.263626
O35	O	1.098727	0.068911	0.596959
O36	O	1.432060	0.402245	0.930293
O37	O	0.866977	-0.341709	0.442183
O38	O	1.200310	-0.008376	0.775516
O39	O	1.533643	0.324957	1.108850
O40	O	0.765371	-0.341738	0.340564
O41	O	1.098704	-0.008404	0.673897
O42	O	1.432038	0.324929	1.007231
O43	O	0.943984	-0.264372	0.442240
O44	O	1.277318	0.068961	0.775574
O45	O	1.610651	0.402295	1.108907
O46	O	0.943819	-0.443758	0.263653
O47	O	1.277152	-0.110425	0.596987
O48	O	1.610485	0.222909	0.930320
O49	O	0.866883	-0.443767	0.340579
O50	O	1.200216	-0.110434	0.673913
O51	O	1.533549	0.222899	1.007246
C52	C	0.742648	-0.303085	0.302085
C53	C	1.075982	0.030248	0.635419
C54	C	1.409315	0.363582	0.968752
C55	C	0.673007	-0.303114	0.302069
C56	C	1.006340	0.030219	0.635402
C57	C	1.339674	0.363552	0.968736
C58	C	0.640299	-0.343426	0.342070
C59	C	0.973632	-0.010093	0.675404
C60	C	1.306965	0.323241	1.008737
C61	C	0.574863	-0.343411	0.342098
C62	C	0.908197	-0.010077	0.675432
C63	C	1.241530	0.323256	1.008765
C64	C	0.542139	-0.303090	0.302114
C65	C	0.875472	0.030243	0.635447
C66	C	1.208805	0.363577	0.968780
C67	C	0.574855	-0.262771	0.262109
C68	C	0.908188	0.070563	0.595443
C69	C	1.241522	0.403896	0.928776
C70	C	0.640289	-0.262783	0.262087
C71	C	0.973622	0.070551	0.595420
C72	C	1.306956	0.403884	0.928754
C73	C	0.438414	-0.298019	0.245709
C74	C	0.771747	0.035314	0.579042
C75	C	1.105081	0.368648	0.912375
C76	C	0.372981	-0.298011	0.245730
C77	C	0.706314	0.035322	0.579063
C78	C	1.039648	0.368655	0.912397
C79	C	0.340318	-0.303049	0.302183
C80	C	0.673651	0.030284	0.635516
C81	C	1.006985	0.363618	0.968849
C82	C	0.373096	-0.308108	0.358616
C83	C	0.706429	0.025226	0.691949
C84	C	1.039763	0.358559	1.025283
C85	C	0.438530	-0.308120	0.358594
C86	C	0.771863	0.025213	0.691927
C87	C	1.105197	0.358547	1.025261
C88	C	0.471186	-0.303072	0.302134
C89	C	0.804520	0.030261	0.635467
C90	C	1.137853	0.363594	0.968800
C91	C	0.236657	-0.343346	0.342218
C92	C	0.569990	-0.010013	0.675551
C93	C	0.903324	0.323321	1.008885
C94	C	0.171221	-0.343326	0.342247
C95	C	0.504554	-0.009993	0.675580
C96	C	0.837887	0.323340	1.008914
C97	C	0.171214	-0.262690	0.262252
C98	C	0.504547	0.070644	0.595586
C99	C	0.837880	0.403977	0.928919
C100	C	0.236649	-0.262706	0.262229
C101	C	0.569982	0.070627	0.595562
C102	C	0.903316	0.403961	0.928896
C103	C	0.269367	-0.303038	0.302211
C104	C	0.602700	0.030296	0.635544
C105	C	0.936033	0.363629	0.968878
C106	C	0.905354	-0.466603	0.302123
C107	C	1.238687	-0.133270	0.635457
C108	C	1.572020	0.200063	0.968790
C109	C	0.905376	-0.536571	0.302129
C110	C	1.238709	-0.203238	0.635463
C111	C	1.572043	0.130095	0.968796
C112	C	0.945472	-0.569412	0.262115
C113	C	1.278806	-0.236079	0.595448
C114	C	1.612139	0.097254	0.928782
C115	C	0.945502	-0.635155	0.262129
C116	C	1.278835	-0.301821	0.595462
C117	C	1.612168	0.031512	0.928796
C118	C	0.905424	-0.668054	0.302151
C119	C	1.238757	-0.334721	0.635484
C120	C	1.572090	-0.001387	0.968818
C121	C	0.865324	-0.635205	0.342173
C122	C	1.198658	-0.301872	0.675506
C123	C	1.531991	0.031462	1.008840
C124	C	0.865301	-0.569464	0.342162
C125	C	1.198634	-0.236131	0.675496
C126	C	1.531967	0.097203	1.008829
N127	N	0.850614	-0.771336	0.306903
N128	N	1.183947	-0.438002	0.640236
N129	N	1.517280	-0.104669	0.973570
N130	N	0.850638	-0.833787	0.306910
N131	N	1.183971	-0.500454	0.640243
N132	N	1.517305	-0.167121	0.973576
C133	C	0.905494	-0.866129	0.302187
C134	C	1.238827	-0.532795	0.635520
C135	C	1.572160	-0.199462	0.968854
N136	N	0.960325	-0.833659	0.297445
N137	N	1.293659	-0.500326	0.630778
N138	N	1.626992	-0.166993	0.964112
N139	N	0.960300	-0.771202	0.297435
N140	N	1.293634	-0.437869	0.630769
N141	N	1.626967	-0.104535	0.964102
C142	C	0.905445	-0.739339	0.302167
C143	C	1.238778	-0.406006	0.635501
C144	C	1.572112	-0.072673	0.968834
C145	C	0.945625	-0.970255	0.262186
C146	C	1.278959	-0.636922	0.595519
C147	C	1.612292	-0.303588	0.928852
C148	C	0.945656	-1.035999	0.262204
C149	C	1.278989	-0.702665	0.595537
C150	C	1.612322	-0.369332	0.928871
C151	C	0.865473	-1.036048	0.342245
C152	C	1.198806	-0.702714	0.675578
C153	C	1.532140	-0.369381	1.008912
C154	C	0.865448	-0.970305	0.342230
C155	C	1.198781	-0.636972	0.675563
C156	C	1.532115	-0.303639	1.008896
C157	C	0.905523	-0.937413	0.302197
C158	C	1.238857	-0.604079	0.635530
C159	C	1.572190	-0.270746	0.968863
C160	C	1.068859	-0.303019	0.302231
C161	C	1.402193	0.030315	0.635565
C162	C	1.735526	0.363648	0.968898
C163	C	1.138501	-0.303005	0.302262
C164	C	1.471834	0.030329	0.635596
C165	C	1.805167	0.363662	0.968929
C166	C	0.905488	-0.303039	0.465581
C167	C	1.238821	0.030294	0.798915
C168	C	1.572155	0.363628	1.132248
C169	C	0.905510	-0.303033	0.535223
C170	C	1.238843	0.030300	0.868556
C171	C	1.572177	0.363633	1.201889
C172	C	0.905535	-0.138861	0.302206
C173	C	1.238869	0.194472	0.635540
C174	C	1.572202	0.527805	0.968873
C175	C	0.905578	-0.068893	0.302227
C176	C	1.238911	0.264440	0.635561
C177	C	1.572245	0.597773	0.968894
C178	C	0.905420	-0.303019	0.139370
C179	C	1.238754	0.030314	0.472704
C180	C	1.572087	0.363648	0.806037
C181	C	0.905519	-0.302847	0.069729
C182	C	1.238853	0.030486	0.403063
C183	C	1.572186	0.363820	0.736396
C184	C	0.945606	-0.262762	0.567967
C185	C	1.278940	0.070571	0.901300
C186	C	1.612273	0.403904	1.234633
C187	C	0.945605	-0.262735	0.633402
C188	C	1.278939	0.070598	0.966735
C189	C	1.612272	0.403932	1.300069
C190	C	0.905515	-0.302991	0.666091
C191	C	1.238848	0.030343	0.999424
C192	C	1.572182	0.363676	1.332758
C193	C	0.865411	-0.343265	0.633339
C194	C	1.198744	-0.009931	0.966672
C195	C	1.532078	0.323402	1.300006
C196	C	0.865409	-0.343286	0.567905
C197	C	1.198742	-0.009953	0.901238
C198	C	1.532075	0.323381	1.234571
C199	C	0.900539	-0.359672	0.769752
C200	C	1.233873	-0.026339	1.103085
C201	C	1.567206	0.306995	1.436419
C202	C	0.900546	-0.359652	0.835185
C203	C	1.233879	-0.026318	1.168518
C204	C	1.567213	0.307015	1.501852
C205	C	0.905519	-0.302924	0.867912
C206	C	1.238852	0.030409	1.201245
C207	C	1.572186	0.363743	1.534578
C208	C	0.910498	-0.246215	0.835198
C209	C	1.243831	0.087118	1.168531
C210	C	1.577165	0.420452	1.501864
C211	C	0.910496	-0.246237	0.769763
C212	C	1.243829	0.087097	1.103097
C213	C	1.577162	0.420430	1.436430
C214	C	0.905513	-0.302972	0.737043
C215	C	1.238846	0.030362	1.070377
C216	C	1.572180	0.363695	1.403710
C217	C	0.945616	-0.262620	0.971608
C218	C	1.278950	0.070713	1.304942
C219	C	1.612283	0.404047	1.638275
C220	C	0.945611	-0.262592	1.037045
C221	C	1.278944	0.070741	1.370378
C222	C	1.612278	0.404075	1.703712
C223	C	0.865420	-0.343127	1.036981
C224	C	1.198753	-0.009794	1.370314
C225	C	1.532087	0.323540	1.703647
C226	C	0.865422	-0.343150	0.971545
C227	C	1.198755	-0.009816	1.304879
C228	C	1.532089	0.323517	1.638212
C229	C	0.905523	-0.302897	0.938863
C230	C	1.238857	0.030436	1.272196
C231	C	1.572190	0.363770	1.605530
H232	H	0.465215	-0.312237	0.404544
H233	H	0.798549	0.021096	0.737877
H234	H	1.131882	0.354430	1.071210
C235	C	0.336932	-0.292442	0.183653
C236	C	0.670265	0.040891	0.516986
C237	C	1.003598	0.374225	0.850320
N238	N	0.309781	-0.288244	0.136895
N239	N	0.643114	0.045089	0.470228
N240	N	0.976447	0.378423	0.803562
C241	C	0.821387	-1.072233	0.386271
C242	C	1.154721	-0.738900	0.719604
C243	C	1.488054	-0.405566	1.052938
N244	N	0.788182	-1.099491	0.419433
N245	N	1.121515	-0.766158	0.752767
N246	N	1.454849	-0.432824	1.086100
H247	H	0.832767	-0.376039	0.659959
H248	H	1.166101	-0.042706	0.993292
H249	H	1.499434	0.290628	1.326625
H250	H	0.832795	-0.943565	0.374811
H251	H	1.166129	-0.610231	0.708144
H252	H	1.499462	-0.276898	1.041477
C253	C	0.989609	-0.671287	0.218105
C254	C	1.322942	-0.337954	0.551438
C255	C	1.656276	-0.004620	0.884772
N256	N	1.022829	-0.698500	0.184945
N257	N	1.356163	-0.365166	0.518278
N258	N	1.689496	-0.031833	0.851611
H259	H	0.832771	-0.375897	1.063595
H260	H	1.166105	-0.042564	1.396929
H261	H	1.499438	0.290769	1.730262
H262	H	0.832775	-0.375947	0.944885
H263	H	1.166108	-0.042613	1.278218
H264	H	1.499442	0.290720	1.611552
H265	H	0.346503	-0.312209	0.404586
H266	H	0.679837	0.021124	0.737919
H267	H	1.013170	0.354458	1.071252
C268	C	0.989711	-0.218475	0.532020
C269	C	1.323044	0.114859	0.865353
C270	C	1.656377	0.448192	1.198687
N271	N	1.022928	-0.185114	0.504944
N272	N	1.356261	0.148219	0.838277
N273	N	1.689595	0.481553	1.171610
C274	C	0.915964	-0.183857	0.733780
C275	C	1.249297	0.149476	1.067114
C276	C	1.582630	0.482809	1.400447
N277	N	0.920079	-0.136872	0.706678
N278	N	1.253412	0.196461	1.040011
N279	N	1.586745	0.529795	1.373345
H280	H	0.465003	-0.293914	0.199735
H281	H	0.798336	0.039419	0.533068
H282	H	1.131669	0.372753	0.866401
H283	H	0.666933	-0.376266	0.374628
H284	H	1.000267	-0.042933	0.707961
H285	H	1.333600	0.290400	1.041295
C286	C	0.821236	-0.671396	0.386195
C287	C	1.154570	-0.338062	0.719528
C288	C	1.487903	-0.004729	1.052862
N289	N	0.788028	-0.698654	0.419354
N290	N	1.121362	-0.365321	0.752688
N291	N	1.454695	-0.031987	1.086021
C292	C	0.135241	-0.387680	0.386249
C293	C	0.468575	-0.054347	0.719582
C294	C	0.801908	0.278987	1.052916
N295	N	0.108142	-0.421091	0.419389
N296	N	0.441475	-0.087758	0.752722
N297	N	0.774808	0.245575	1.086056
H298	H	0.978261	-0.229795	1.063704
H299	H	1.311594	0.103539	1.397037
H300	H	1.644928	0.436872	1.730371
H301	H	0.548227	-0.376237	0.374675
H302	H	0.881560	-0.042904	0.708008
H303	H	1.214894	0.290430	1.041341
H304	H	0.263297	-0.376183	0.374777
H305	H	0.596631	-0.042850	0.708110
H306	H	0.929964	0.290483	1.041444
H307	H	0.144570	-0.229857	0.229699
H308	H	0.477903	0.103476	0.563032
H309	H	0.811237	0.436810	0.896365
C310	C	0.676269	-0.218438	0.218077
C311	C	1.009603	0.114895	0.551410
C312	C	1.342936	0.448229	0.884744
N313	N	0.703371	-0.185038	0.184926
N314	N	1.036704	0.148295	0.518260
N315	N	1.370037	0.481628	0.851593
C316	C	0.821198	-0.533338	0.386191
C317	C	1.154531	-0.200005	0.719524
C318	C	1.487864	0.133329	1.052858
N319	N	0.787981	-0.506127	0.419357
N320	N	1.121314	-0.172794	0.752690
N321	N	1.454647	0.160540	1.086023
C322	C	0.272630	-0.218365	0.218218
C323	C	0.605963	0.114968	0.551551
C324	C	0.939296	0.448301	0.884884
N325	N	0.299730	-0.184965	0.185067
N326	N	0.633063	0.148368	0.518400
N327	N	0.966397	0.481702	0.851734
H328	H	0.548206	-0.229940	0.229555
H329	H	0.881540	0.103393	0.562888
H330	H	1.214873	0.436726	0.896221
H331	H	0.896496	-0.405828	0.861816
H332	H	1.229829	-0.072494	1.195149
H333	H	1.563162	0.260839	1.528482
C334	C	0.989720	-0.218436	0.669428
C335	C	1.323053	0.114898	1.002761
C336	C	1.656386	0.448231	1.336094
N337	N	1.022948	-0.185071	0.696560
N338	N	1.356282	0.148262	1.029894
N339	N	1.689615	0.481596	1.363227
H340	H	0.978266	-0.229840	0.944997
H341	H	1.311599	0.103493	1.278330
H342	H	1.644932	0.436826	1.611664
H343	H	0.978105	-0.542633	0.229519
H344	H	1.311439	-0.209300	0.562853
H345	H	1.644772	0.124034	0.896186
C346	C	0.989718	-0.934071	0.218158
C347	C	1.323051	-0.600737	0.551492
C348	C	1.656384	-0.267404	0.884825
N349	N	1.022931	-0.906819	0.184999
N350	N	1.356264	-0.573485	0.518332
N351	N	1.689597	-0.240152	0.851665
H352	H	0.978311	-1.062736	0.229621
H353	H	1.311644	-0.729403	0.562954
H354	H	1.644977	-0.396070	0.896288
C355	C	0.915967	-0.183809	0.871192
C356	C	1.249300	0.149524	1.204526
C357	C	1.582634	0.482857	1.537859
N358	N	0.920087	-0.136807	0.898306
N359	N	1.253420	0.196526	1.231640
N360	N	1.586754	0.529860	1.564973
C361	C	0.895081	-0.422082	0.733759
C362	C	1.228414	-0.088749	1.067092
C363	C	1.561747	0.244585	1.400426
N364	N	0.890974	-0.469088	0.706650
N365	N	1.224307	-0.135755	1.039983
N366	N	1.557640	0.197578	1.373316
C367	C	0.821299	-0.387591	0.531885
C368	C	1.154633	-0.054258	0.865219
C369	C	1.487966	0.279076	1.198552
N370	N	0.788076	-0.420963	0.504754
N371	N	1.121410	-0.087630	0.838088
N372	N	1.454743	0.245703	1.171421
