data_functionalizedCrystal
_audit_creation_method	'MofGen! by Chris Wilmer'
_symmetry_space_group_name_H-M	'P1'
_symmetry_Int_Tables_number	1
_symmetry_cell_setting	triclinic
loop_
_symmetry_equiv_pos_as_xyz
  x,y,z
_cell_length_a	12.827893
_cell_length_b	12.645330
_cell_length_c	12.827885
_cell_angle_alpha	90.028978
_cell_angle_beta	90.019272
_cell_angle_gamma	90.017662
loop_
_atom_site_label
_atom_site_type_symbol
_atom_site_fract_x
_atom_site_fract_y
_atom_site_fract_z
Zn1	Zn	1.597653	-0.421989	0.590855
Zn2	Zn	1.597540	-0.599290	0.416117
Zn3	Zn	1.422894	-0.422040	0.416128
Zn4	Zn	1.422873	-0.599211	0.590817
O5	O	1.510240	-0.510632	0.503479
O6	O	1.743874	-0.445520	0.567686
O7	O	1.574335	-0.575832	0.269883
O8	O	1.446133	-0.273686	0.439326
O9	O	1.743791	-0.575782	0.439308
O10	O	1.574527	-0.273648	0.567697
O11	O	1.446023	-0.445608	0.269891
O12	O	1.276655	-0.445531	0.439290
O13	O	1.446096	-0.575647	0.737058
O14	O	1.276639	-0.575697	0.567633
O15	O	1.574506	-0.445443	0.737086
O16	O	1.574314	-0.747626	0.439271
O17	O	1.445986	-0.747568	0.567623
C18	C	1.238730	-0.510612	0.503459
C19	C	1.122577	-0.510629	0.503476
C20	C	1.070812	-0.575140	0.566886
C21	C	0.950762	-0.575159	0.566904
C22	C	1.510164	-0.786062	0.503465
C23	C	1.510227	-0.903892	0.503493
C24	C	1.429829	-1.071464	0.584488
C25	C	1.429418	-0.948904	0.584228
C26	C	1.480414	-0.948494	0.393362
C27	C	1.479923	-1.071093	0.393854
C28	C	1.620929	-1.070979	0.531736
C29	C	1.620251	-0.948372	0.534144
C30	C	1.782810	-0.510654	0.503500
C31	C	1.898963	-0.510663	0.503509
C32	C	1.510311	-0.510531	0.776050
C33	C	1.510341	-0.510487	0.892203
C34	C	1.510345	-0.234127	0.503517
C35	C	1.510390	-0.116297	0.503533
C36	C	1.510229	-0.510657	0.231969
C37	C	1.510401	-0.510402	0.115817
C38	C	1.573890	-0.446045	0.944001
C39	C	1.573923	-0.445999	1.064052
H40	H	0.906245	-0.630392	0.621189
C41	C	1.062393	-0.436030	0.430149
C42	C	0.987365	-0.352937	0.475649
C43	C	0.927184	-0.278335	0.402320
C44	C	0.942030	-0.286827	0.283491
C45	C	1.017060	-0.369924	0.237986
C46	C	1.077242	-0.444525	0.311315
H47	H	0.976373	-0.346648	0.563618
H48	H	0.871642	-0.216822	0.436007
H49	H	0.897480	-0.231603	0.229209
H50	H	1.028053	-0.376213	0.150016
H51	H	1.132784	-0.506039	0.277628
C52	C	1.130998	-0.649738	0.640211
C53	C	1.116072	-0.770258	0.631499
C54	C	1.176257	-0.844859	0.704826
C55	C	1.251367	-0.798940	0.786865
C56	C	1.266296	-0.678414	0.795581
C57	C	1.206112	-0.603813	0.722254
H58	H	1.060468	-0.804255	0.570765
H59	H	1.165205	-0.934080	0.698373
H60	H	1.295919	-0.854164	0.841146
H61	H	1.321900	-0.644417	0.856315
H62	H	1.217164	-0.514592	0.728707
H63	H	1.455996	-0.565580	1.071278
C64	C	1.454782	-1.111193	0.695173
C65	C	1.385904	-1.077291	0.787625
C66	C	1.410857	-1.117030	0.898314
C67	C	1.504688	-1.190671	0.916550
C68	C	1.573572	-1.224577	0.824095
C69	C	1.548619	-1.184838	0.713407
H70	H	1.316439	-1.022774	0.774128
H71	H	1.359864	-1.091931	0.966755
H72	H	1.523160	-1.220088	0.998488
H73	H	1.643037	-1.279094	0.837592
H74	H	1.599612	-1.209937	0.644966
H75	H	1.455953	-0.565617	0.936733
C76	C	1.454548	-0.908151	0.694560
C77	C	1.475137	-0.987161	0.783522
C78	C	1.500233	-0.946414	0.893866
C79	C	1.504741	-0.826657	0.915250
C80	C	1.484151	-0.747640	0.826286
C81	C	1.459055	-0.788387	0.715941
H82	H	1.471801	-1.075818	0.767695
H83	H	1.515475	-1.004908	0.959723
H84	H	1.523319	-0.796494	0.996934
H85	H	1.487487	-0.658983	0.842113
H86	H	1.443813	-0.729893	0.650084
C87	C	1.319810	-1.113207	0.559579
C88	C	1.302874	-1.187755	0.466130
C89	C	1.192858	-1.229503	0.441220
C90	C	1.099776	-1.196705	0.509759
C91	C	1.116709	-1.122154	0.603214
C92	C	1.226726	-1.080405	0.628124
H93	H	1.371781	-1.212037	0.415388
H94	H	1.180323	-1.284691	0.372039
H95	H	1.018335	-1.227610	0.491320
H96	H	1.047802	-1.097871	0.653957
H97	H	1.239260	-1.025217	0.697306
H98	H	1.347469	-0.919671	0.565543
H99	H	1.399118	-1.099786	0.369962
C100	C	1.555725	-1.111173	0.309572
C101	C	1.616508	-1.031623	0.242031
C102	C	1.692295	-1.071698	0.157740
C103	C	1.707299	-1.191324	0.140988
C104	C	1.646514	-1.270882	0.208530
C105	C	1.570727	-1.230807	0.292822
H106	H	1.605403	-0.943062	0.254430
H107	H	1.737292	-1.012803	0.107741
H108	H	1.763402	-1.220990	0.078590
H109	H	1.657620	-1.359443	0.196131
H110	H	1.525730	-1.289702	0.342821
C111	C	1.705613	-0.906981	0.460289
C112	C	1.819806	-0.940839	0.476262
C113	C	1.905166	-0.899449	0.402396
C114	C	1.876332	-0.824201	0.312558
C115	C	1.762133	-0.790339	0.296581
C116	C	1.676773	-0.831728	0.370447
H117	H	1.841156	-0.996546	0.542769
H118	H	1.989703	-0.924517	0.414224
H119	H	1.939520	-0.793562	0.257878
H120	H	1.740783	-0.734632	0.230074
H121	H	1.592236	-0.806661	0.358619
H122	H	0.943473	-0.455433	0.449214
H123	H	1.680949	-1.099972	0.472773
H124	H	1.400452	-0.917885	0.369038
C125	C	1.557160	-0.909108	0.309642
C126	C	1.517067	-0.843314	0.216950
C127	C	1.593814	-0.803924	0.133232
C128	C	1.710654	-0.830329	0.142206
C129	C	1.750752	-0.896126	0.234902
C130	C	1.674005	-0.935516	0.318620
H131	H	1.430570	-0.823765	0.210304
H132	H	1.564130	-0.755217	0.064613
H133	H	1.767466	-0.801171	0.080233
H134	H	1.837249	-0.915676	0.241549
H135	H	1.703690	-0.984223	0.387240
C136	C	1.650627	-0.908981	0.643637
C137	C	1.671702	-0.989027	0.731579
C138	C	1.702070	-0.949629	0.841073
C139	C	1.711363	-0.830186	0.862625
C140	C	1.690288	-0.750133	0.774681
C141	C	1.659920	-0.789530	0.665187
H142	H	1.664823	-1.077452	0.715626
H143	H	1.717671	-1.008891	0.906175
H144	H	1.733844	-0.801022	0.943680
H145	H	1.697167	-0.661708	0.790633
H146	H	1.644319	-0.730269	0.600085
H147	H	1.648124	-1.101818	0.610678
H148	H	1.628268	-0.390905	0.899471
H149	H	1.628332	-0.390832	1.108597
