data_functionalizedCrystal
_audit_creation_method	'MofGen! by Chris Wilmer'
_symmetry_space_group_name_H-M	'P1'
_symmetry_Int_Tables_number	1
_symmetry_cell_setting	triclinic
loop_
_symmetry_equiv_pos_as_xyz
  x,y,z
_cell_length_a	14.044220
_cell_length_b	9.065218
_cell_length_c	7.540329
_cell_angle_alpha	90.001757
_cell_angle_beta	89.997420
_cell_angle_gamma	90.897619
loop_
_atom_site_label
_atom_site_type_symbol
_atom_site_fract_x
_atom_site_fract_y
_atom_site_fract_z
O1	O	1.260762	-0.356074	-0.147465
O2	O	0.984682	-0.343225	-0.147470
O3	O	1.128428	-0.135640	-0.147464
O4	O	1.117015	-0.563660	-0.147471
O5	O	1.128420	-0.135636	0.147501
O6	O	0.984673	-0.343221	0.147495
O7	O	1.260753	-0.356071	0.147500
Cu8	Cu	1.122712	-0.349646	0.174430
Cu9	Cu	1.122723	-0.349650	-0.174400
O10	O	1.117007	-0.563656	0.147494
C11	C	1.127327	-0.080530	0.000016
C12	C	1.124048	0.083677	0.000007
C13	C	0.949315	-0.337599	0.000012
C14	C	0.843945	-0.320822	0.000010
C15	C	1.296120	-0.361697	0.000014
C16	C	1.401490	-0.378474	0.000005
C17	C	1.594415	-0.409146	0.000006
C18	C	1.651026	-0.290157	0.000009
C19	C	1.758376	-0.307223	0.000009
C20	C	1.487055	-0.392082	0.000005
C21	C	1.118108	-0.618766	0.000010
C22	C	1.121388	-0.782972	0.000007
N23	N	1.122712	-0.349642	0.419779
N24	N	1.122730	-0.349643	-0.419749
H25	H	1.626568	-0.523824	0.000002
H26	H	1.618871	-0.175470	-0.000118
