data_functionalizedCrystal
_audit_creation_method	'MofGen! by Chris Wilmer'
_symmetry_space_group_name_H-M	'P1'
_symmetry_Int_Tables_number	1
_symmetry_cell_setting	triclinic
loop_
_symmetry_equiv_pos_as_xyz
  x,y,z
_cell_length_a	16.992694
_cell_length_b	10.654550
_cell_length_c	16.053934
_cell_angle_alpha	92.599229
_cell_angle_beta	92.746741
_cell_angle_gamma	92.423423
loop_
_atom_site_label
_atom_site_type_symbol
_atom_site_fract_x
_atom_site_fract_y
_atom_site_fract_z
O1	O	1.038572	-0.271381	-0.069324
O2	O	0.810269	-0.268459	-0.069348
O3	O	0.929670	-0.087634	-0.069330
O4	O	0.919171	-0.452206	-0.069342
O5	O	0.936206	-0.077714	0.069527
O6	O	0.816806	-0.258539	0.069509
O7	O	1.045108	-0.261461	0.069534
Zn8	Zn	0.931995	-0.258425	0.091568
Zn9	Zn	0.923383	-0.271495	-0.091383
O10	O	0.925708	-0.442286	0.069515
C11	C	0.784304	-0.259739	0.000077
C12	C	0.697199	-0.248521	0.000068
C13	C	0.932167	-0.035809	0.000098
C14	C	0.929861	0.103833	0.000096
N15	N	0.937878	-0.249505	0.216427
C16	C	0.647547	-0.356772	0.000065
C17	C	0.565703	-0.346222	0.000077
C18	C	0.533513	-0.227420	0.000086
C19	C	0.583172	-0.119161	0.000091
C20	C	0.665014	-0.129712	0.000085
C21	C	0.289679	-0.183691	0.000109
C22	C	0.207830	-0.173149	0.000113
C23	C	0.190368	-0.400211	0.000100
C24	C	0.272212	-0.410751	0.000089
C25	C	0.321863	-0.302492	0.000099
N26	N	0.449856	-0.216634	0.000095
N27	N	0.405519	-0.313279	0.000096
C28	C	1.071073	-0.270181	0.000106
C29	C	1.158178	-0.281400	0.000110
C30	C	0.923210	-0.494111	0.000086
C31	C	0.925516	-0.633754	0.000082
C32	C	1.000162	0.177244	0.000104
C33	C	0.997990	0.308452	0.000093
C34	C	0.855210	0.292826	0.000072
C35	C	0.857382	0.161620	0.000076
N36	N	0.917506	-0.280406	-0.216241
C37	C	0.887063	-0.326415	0.260133
C38	C	0.891201	-0.320172	0.347539
C39	C	0.946151	-0.237012	0.391237
C40	C	0.996971	-0.160098	0.347524
C41	C	0.992836	-0.166349	0.260119
C42	C	0.964192	-0.209743	0.652642
C43	C	0.968321	-0.203496	0.740052
C44	C	0.862551	-0.363572	0.740061
C45	C	0.858418	-0.369809	0.652656
C46	C	0.909241	-0.292901	0.608950
N47	N	0.950380	-0.230626	0.480579
N48	N	0.905015	-0.299294	0.519609
H49	H	0.673749	-0.453513	0.000057
C50	C	1.057418	-0.068619	0.395586
C51	C	1.146194	-0.080638	0.383556
C52	C	1.206641	0.010847	0.431616
C53	C	1.178312	0.114352	0.491705
C54	C	1.089532	0.126376	0.503737
C55	C	1.029085	0.034890	0.455678
H56	H	1.167168	-0.157263	0.339072
H57	H	1.272361	0.001946	0.422708
H58	H	1.223058	0.182075	0.527282
H59	H	1.068557	0.203000	0.548221
H60	H	0.963364	0.043792	0.464585
H61	H	0.796200	0.339892	0.000057
C62	C	0.826616	-0.417894	0.212071
C63	C	0.770747	-0.502538	0.260153
C64	C	0.710300	-0.594023	0.212093
C65	C	0.705722	-0.600865	0.115952
C66	C	0.761593	-0.516219	0.067865
C67	C	0.822039	-0.424734	0.115924
H68	H	0.774134	-0.497476	0.331327
H69	H	0.668941	-0.656684	0.247691
H70	H	0.660976	-0.668589	0.080376
H71	H	0.758205	-0.521281	-0.003309
H72	H	0.863398	-0.362073	0.080327
H73	H	0.813673	-0.437525	0.617079
H74	H	0.821174	-0.426188	0.775654
C75	C	1.048733	-0.081743	0.212039
C76	C	1.014722	0.013161	0.151953
C77	C	1.070623	0.097764	0.103875
C78	C	1.160535	0.087464	0.115882
C79	C	1.194551	-0.007444	0.175971
C80	C	1.138649	-0.092047	0.224049
H81	H	0.948160	0.020789	0.143062
H82	H	1.045442	0.168021	0.059393
H83	H	1.201917	0.150093	0.080291
H84	H	1.261113	-0.015072	0.184862
H85	H	1.163830	-0.162304	0.268531
C86	C	0.835302	-0.404767	0.395621
C87	C	0.745390	-0.394454	0.383624
C88	C	0.689490	-0.479053	0.431708
C89	C	0.723502	-0.573964	0.491788
C90	C	0.813418	-0.584281	0.503787
C91	C	0.869318	-0.499682	0.455704
H92	H	0.720208	-0.324192	0.339147
H93	H	0.622928	-0.471415	0.422825
H94	H	0.682121	-0.636589	0.527382
H95	H	0.838600	-0.654543	0.548265
H96	H	0.935881	-0.507320	0.464587
C97	C	1.028774	-0.112016	0.788117
C98	C	1.084685	-0.027437	0.740040
C99	C	1.145133	0.064040	0.788104
C100	C	1.149671	0.070939	0.884245
C101	C	1.093758	-0.013642	0.932328
C102	C	1.033310	-0.105120	0.884264
H103	H	1.081328	-0.032542	0.668866
H104	H	1.186524	0.126653	0.752510
H105	H	1.194419	0.138656	0.919825
H106	H	1.097116	-0.008538	1.003502
H107	H	0.991920	-0.167733	0.919858
H108	H	1.055236	0.368218	0.000097
C109	C	0.511090	-0.465304	0.000074
C110	C	0.511732	-0.565560	-0.072038
C111	C	0.457119	-0.684650	-0.072037
C112	C	0.401866	-0.703484	0.000076
C113	C	0.401222	-0.603226	0.072193
C114	C	0.455834	-0.484135	0.072192
H115	H	0.552636	-0.551620	-0.125425
H116	H	0.457596	-0.758868	-0.125424
H117	H	0.361439	-0.791642	0.000076
H118	H	0.360318	-0.617165	0.125580
H119	H	0.455357	-0.409917	0.125579
H120	H	0.298414	-0.507493	0.000073
H121	H	0.330096	-0.095538	0.000118
H122	H	0.149933	-0.488349	0.000094
H123	H	0.181625	-0.076401	0.000119
H124	H	0.556957	-0.022429	0.000110
H125	H	0.705440	-0.041562	0.000087
H126	H	1.059178	0.130198	0.000118
H127	H	0.800131	0.101846	0.000068
H128	H	1.005573	-0.147118	0.617064
