data_functionalizedCrystal
_audit_creation_method	'MofGen! by Chris Wilmer'
_symmetry_space_group_name_H-M	'P1'
_symmetry_Int_Tables_number	1
_symmetry_cell_setting	triclinic
loop_
_symmetry_equiv_pos_as_xyz
  x,y,z
_cell_length_a	15.995350
_cell_length_b	10.654556
_cell_length_c	15.072220
_cell_angle_alpha	89.989123
_cell_angle_beta	90.001101
_cell_angle_gamma	83.989956
loop_
_atom_site_label
_atom_site_type_symbol
_atom_site_fract_x
_atom_site_fract_y
_atom_site_fract_z
O1	O	0.117623	1.666315	-0.073744
O2	O	0.128821	1.300692	-0.073753
O3	O	0.001393	1.493498	-0.073747
O4	O	0.245051	1.473509	-0.073750
O5	O	0.001399	1.493450	0.073818
O6	O	0.128828	1.300644	0.073812
O7	O	0.117629	1.666268	0.073821
Zn8	Zn	0.123230	1.483448	0.097246
Zn9	Zn	0.123221	1.483511	-0.097178
O10	O	0.245058	1.473461	0.073816
C11	C	0.128001	1.253881	0.000029
C12	C	0.125538	1.114470	0.000025
C13	C	0.122066	0.917996	-0.080406
C14	C	0.124375	1.048988	-0.080411
C15	C	0.124383	1.048955	0.080472
C16	C	0.122067	0.917966	0.080477
C17	C	0.078565	1.237644	-0.177057
C18	C	0.079733	1.303152	-0.257502
C19	C	0.127954	1.251030	-0.328523
C20	C	0.175029	1.133399	-0.319101
C21	C	0.173870	1.067896	-0.238655
C22	C	0.125628	1.120019	-0.167637
C23	C	0.167884	0.729307	0.177117
C24	C	0.166730	0.663801	0.257564
C25	C	0.118513	0.715918	0.328592
C26	C	0.071451	0.833551	0.319180
C27	C	0.072605	0.899058	0.238732
C28	C	0.120820	0.846931	0.167704
C29	C	-0.029804	1.492648	0.000033
C30	C	-0.122768	1.490170	0.000028
C31	C	-0.460568	1.481273	0.000031
C32	C	-0.413933	1.343960	-0.000303
C33	C	-0.317228	1.346438	0.000030
C34	C	-0.292981	1.485686	0.000029
C35	C	-0.333661	1.553387	0.084296
C36	C	-0.430317	1.549937	0.084367
C37	C	-0.430666	1.552828	-0.083442
C38	C	-0.333721	1.552796	-0.084556
C39	C	-0.198269	1.488188	0.000031
C40	C	-0.555280	1.478776	0.000035
C41	C	0.276254	1.474311	0.000033
C42	C	0.369219	1.476789	0.000032
C43	C	0.118449	1.713079	0.000038
C44	C	0.120913	1.852489	0.000035
N45	N	0.123236	1.483415	0.229935
N46	N	0.123209	1.483555	-0.229866
C47	C	0.123218	1.483508	0.589136
C48	C	0.191170	1.379995	0.551526
C49	C	0.191421	1.380232	0.448700
C50	C	0.123227	1.483461	0.410932
C51	C	0.143071	1.614494	0.448226
C52	C	0.143555	1.613914	0.551084
C53	C	0.035225	1.457157	0.551236
C54	C	0.035793	1.454150	0.448373
C55	C	0.123230	1.483442	0.310219
C56	C	0.123216	1.483536	0.689849
H57	H	0.039288	1.280087	-0.119234
H58	H	0.034282	0.994843	0.231073
Cl59	Cl	0.129420	1.333387	-0.429652
Cl60	Cl	0.225903	0.515922	0.269400
H61	H	0.207159	0.686868	0.119287
Cl62	Cl	0.020554	1.451025	-0.269344
H63	H	0.125324	1.102282	0.145965
H64	H	-0.317768	1.654343	-0.089644
Cl65	Cl	0.235665	1.067890	-0.408387
Cl66	Cl	-0.273826	1.264270	-0.093232
Cl67	Cl	-0.290265	1.480731	0.181116
Cl68	Cl	-0.445030	1.259335	0.092197
H69	H	0.032191	0.875990	0.377018
Cl70	Cl	-0.443040	1.259247	-0.093603
H71	H	-0.289673	1.292822	0.060536
H72	H	-0.448903	1.500530	0.147358
Cl73	Cl	0.173017	1.229121	0.589731
H74	H	-0.461977	1.650749	0.088190
Cl75	Cl	0.241063	1.651207	0.408444
H76	H	0.117586	0.662575	0.394100
H77	H	-0.318939	1.655688	0.087430
Cl78	Cl	-0.462772	1.483534	-0.182053
Cl79	Cl	0.233043	0.920027	-0.226807
Cl80	Cl	-0.291608	1.477003	-0.180818
Cl81	Cl	-0.046029	1.563004	0.408699
Cl82	Cl	0.006071	1.312814	0.591329
H83	H	-0.461837	1.654069	-0.084009
Cl84	Cl	0.173048	1.229832	0.409769
H85	H	0.256083	1.396590	0.577365
Cl86	Cl	0.242668	1.649763	0.588114
Cl87	Cl	0.120610	0.835687	-0.181532
Cl88	Cl	0.292221	1.406162	0.410692
Cl89	Cl	0.070028	1.736296	0.589497
Cl90	Cl	0.068741	1.736265	0.410457
Cl91	Cl	0.012565	1.305332	0.410742
Cl92	Cl	-0.042862	1.573700	0.588785
