data_functionalizedCrystal
_audit_creation_method	'MofGen! by Chris Wilmer'
_symmetry_space_group_name_H-M	'P1'
_symmetry_Int_Tables_number	1
_symmetry_cell_setting	triclinic
loop_
_symmetry_equiv_pos_as_xyz
  x,y,z
_cell_length_a	19.121321
_cell_length_b	19.121063
_cell_length_c	17.637815
_cell_angle_alpha	76.934671
_cell_angle_beta	75.936097
_cell_angle_gamma	89.929715
loop_
_atom_site_label
_atom_site_type_symbol
_atom_site_fract_x
_atom_site_fract_y
_atom_site_fract_z
Zn1	Zn	0.981459	-0.396635	0.418750
Zn2	Zn	1.000412	-0.491815	0.290233
Zn3	Zn	0.888359	-0.369526	0.289770
Zn4	Zn	0.857055	-0.510800	0.430155
O5	O	0.931821	-0.442194	0.357227
O6	O	1.082931	-0.412661	0.397123
O7	O	1.006580	-0.456302	0.177635
O8	O	0.905878	-0.274165	0.301912
O9	O	1.096856	-0.482589	0.302702
O10	O	0.974279	-0.294083	0.396673
O11	O	0.924255	-0.366457	0.177294
O12	O	0.785248	-0.384866	0.312971
O13	O	0.852525	-0.514947	0.541179
O14	O	0.762249	-0.488660	0.416112
O15	O	0.943924	-0.431071	0.532799
O16	O	0.976226	-0.593290	0.313761
O17	O	0.870902	-0.607238	0.416561
C18	C	0.748090	-0.435882	0.365729
C19	C	0.669485	-0.433202	0.369387
C20	C	0.224539	-0.416174	0.392577
C21	C	0.298398	-0.418704	0.389136
C22	C	0.342587	-0.456288	0.338169
C23	C	0.312913	-0.491350	0.290646
C24	C	0.239055	-0.488824	0.294091
C25	C	0.565953	-0.465738	0.325308
C26	C	0.639816	-0.468260	0.321865
C27	C	0.625295	-0.395615	0.420357
C28	C	0.551437	-0.393088	0.423794
C29	C	0.521769	-0.428153	0.376273
C30	C	0.418083	-0.458874	0.334650
C31	C	0.446274	-0.425571	0.379798
C32	C	0.922240	-0.625926	0.366466
C33	C	0.918200	-0.704534	0.370442
C34	C	0.971166	-0.734187	0.318829
C35	C	0.967370	-0.808050	0.322573
C36	C	0.910606	-0.852256	0.377927
C37	C	0.857637	-0.822599	0.429546
C38	C	0.861436	-0.748739	0.425805
C39	C	0.896392	-1.075631	0.391902
C40	C	0.892596	-1.149495	0.395637
C41	C	1.002331	-1.134941	0.288664
C42	C	1.006123	-1.061079	0.284925
C43	C	0.953156	-1.031429	0.336547
C44	C	0.906723	-0.927755	0.381754
C45	C	0.957042	-0.955932	0.332723
C46	C	1.116270	-0.448531	0.348692
C47	C	1.194871	-0.451232	0.345055
C48	C	0.892619	-0.478151	0.566984
C49	C	0.875913	-0.493473	0.656371
C50	C	0.941456	-0.257748	0.347969
C51	C	0.945562	-0.179148	0.344023
C52	C	0.970914	-0.406328	0.148281
C53	C	0.987767	-0.390811	0.058879
C54	C	1.058900	-0.325535	0.928538
C55	C	1.043194	-0.339949	1.012531
C56	C	0.948028	-0.427282	1.021245
C57	C	0.963728	-0.412878	0.937251
C58	C	1.019165	-0.362004	0.890904
C59	C	0.923993	-0.449347	0.899617
C60	C	0.939690	-0.434941	0.815631
C61	C	0.995123	-0.384067	0.769278
C62	C	1.034862	-0.347598	0.806917
C63	C	0.868554	-0.500217	0.945966
C64	C	0.828818	-0.536686	0.908332
C65	C	0.844519	-0.522284	0.824344
C66	C	0.899951	-0.471410	0.777991
C67	C	0.804779	-0.558753	0.786705
C68	C	0.820477	-0.544348	0.702718
C69	C	0.915648	-0.457005	0.694005
H70	H	0.515462	-0.362486	0.465300
H71	H	0.214900	-0.517373	0.255395
H72	H	0.860504	-0.963756	0.426822
C73	C	0.657935	-0.357050	0.472631
N74	N	0.682520	-0.328004	0.512008
H75	H	0.322550	-0.390159	0.427837
H76	H	0.675794	-0.498868	0.280360
H77	H	0.541807	-0.494288	0.286611
C78	C	0.776769	-0.584469	0.661318
N79	N	0.743847	-0.614688	0.630136
C80	C	1.095849	-0.291638	0.755930
N81	N	1.141782	-0.249489	0.717527
C82	C	0.851285	-0.516060	1.038354
N83	N	0.838280	-0.527992	1.107942
C84	C	0.397665	-0.384222	0.435852
N85	N	0.361048	-0.353072	0.478067
H86	H	1.007903	-0.372340	0.700891
C87	C	1.033611	-0.685565	0.257932
N88	N	1.080648	-0.648946	0.212065
H89	H	1.104045	-0.284112	0.890799
H90	H	1.010500	-0.832189	0.280543
C91	C	0.466700	-0.500205	0.278577
N92	N	0.503322	-0.531334	0.236341
C93	C	1.019480	-0.907302	0.271834
N94	N	1.066507	-0.870667	0.225968
H95	H	0.759639	-0.600170	0.824453
C96	C	0.976635	-0.401044	0.643018
N97	N	1.022568	-0.358896	0.604614
H98	H	0.853264	-1.051495	0.433933
H99	H	1.075551	-0.310244	1.043169
H100	H	1.052345	-1.025087	0.239851
H101	H	0.348897	-0.521956	0.249150
H102	H	0.902890	-0.468703	1.058992
C103	C	0.767835	-0.592641	0.959323
N104	N	0.721901	-0.634787	0.997729
C105	C	1.060592	-1.167563	0.231886
N106	N	1.104477	-1.192135	0.189121
H107	H	0.188566	-0.385564	0.434074
H108	H	0.846377	-1.185490	0.440727
C109	C	0.795193	-0.871229	0.490434
N110	N	0.748156	-0.907856	0.536293
H111	H	0.818306	-0.724597	0.467835
