data_functionalizedCrystal
_audit_creation_method	'MofGen! by Chris Wilmer'
_symmetry_space_group_name_H-M	'P1'
_symmetry_Int_Tables_number	1
_symmetry_cell_setting	triclinic
loop_
_symmetry_equiv_pos_as_xyz
  x,y,z
_cell_length_a	14.908571
_cell_length_b	12.759394
_cell_length_c	14.909227
_cell_angle_alpha	86.675575
_cell_angle_beta	83.209827
_cell_angle_gamma	86.711101
loop_
_atom_site_label
_atom_site_type_symbol
_atom_site_fract_x
_atom_site_fract_y
_atom_site_fract_z
Zn1	Zn	1.413412	-0.473620	-0.591533
Zn2	Zn	1.404588	-0.658904	-0.440168
Zn3	Zn	1.253306	-0.473643	-0.431464
Zn4	Zn	1.262026	-0.639657	-0.582770
O5	O	1.333333	-0.561456	-0.511484
O6	O	1.538910	-0.506243	-0.578765
O7	O	1.377178	-0.642394	-0.312345
O8	O	1.274588	-0.326620	-0.452723
O9	O	1.532426	-0.642371	-0.467557
O10	O	1.392218	-0.326603	-0.570325
O11	O	1.266031	-0.506283	-0.305950
O12	O	1.127795	-0.487620	-0.444225
O13	O	1.289450	-0.609567	-0.710601
O14	O	1.134201	-0.609590	-0.555389
O15	O	1.400673	-0.487580	-0.717040
O16	O	1.385633	-0.803371	-0.459060
O17	O	1.280893	-0.789230	-0.563829
C18	C	1.098154	-0.546520	-0.497912
C19	C	0.997545	-0.540154	-0.492128
C20	C	1.333277	-0.834422	-0.511459
C21	C	1.333338	-0.951201	-0.511483
C22	C	0.815200	-0.655418	-0.596857
C23	C	0.720669	-0.649439	-0.591425
C24	C	0.713950	-0.522215	-0.475837
C25	C	0.808481	-0.528193	-0.481269
C26	C	0.859103	-0.594798	-0.541780
C27	C	0.953635	-0.600781	-0.547207
C28	C	0.946915	-0.473551	-0.431624
C29	C	0.852384	-0.467573	-0.426192
C30	C	1.442496	-0.965872	-0.402479
C31	C	1.497099	-1.028070	-0.347989
C32	C	1.497153	-1.137793	-0.348017
C33	C	1.442601	-1.185321	-0.402542
C34	C	1.387998	-1.123123	-0.457033
C35	C	1.387947	-1.013398	-0.456997
C36	C	1.278846	-1.108452	-0.566040
C37	C	1.278786	-0.998728	-0.566009
C38	C	1.224294	-1.155980	-0.620566
C39	C	1.169685	-1.093782	-0.675052
C40	C	1.169632	-0.984053	-0.675022
C41	C	1.224183	-0.936531	-0.620499
C42	C	1.569430	-0.576451	-0.525109
C43	C	1.670041	-0.582841	-0.530916
C44	C	1.347018	-0.546424	-0.747583
C45	C	1.352850	-0.540018	-0.848194
C46	C	1.333415	-0.287425	-0.511530
C47	C	1.333449	-0.170649	-0.511550
C48	C	1.418971	-0.467484	-0.993354
C49	C	1.413496	-0.473499	-0.898821
C50	C	1.297677	-0.600529	-0.892106
C51	C	1.303152	-0.594514	-0.986639
C52	C	1.363800	-0.527988	-1.037260
C53	C	1.369270	-0.521968	-1.131794
C54	C	1.253455	-0.649002	-1.125078
C55	C	1.247980	-0.655017	-1.030545
C56	C	1.319753	-0.576357	-0.276307
C57	C	1.314096	-0.582478	-0.175706
H58	H	0.994850	-0.655016	-0.596477
H59	H	1.125277	-1.132489	-0.719447
H60	H	0.856417	-0.709656	-0.646122
F61	F	0.798500	-0.396687	-0.361799
H62	H	0.982671	-0.424192	-0.386774
H63	H	0.672718	-0.467981	-0.426577
H64	H	1.541620	-1.188434	-0.303651
H65	H	1.248307	-0.654698	-0.850875
F66	F	1.442652	-0.849095	-0.402656
F67	F	1.555158	-0.977480	-0.289966
H68	H	1.442658	-1.274664	-0.402568
H69	H	1.224139	-0.847190	-0.620463
H70	H	0.684927	-0.698800	-0.636276
H71	H	1.224346	-1.245323	-0.620589
F72	F	1.111520	-0.917865	-0.733024
F73	F	1.194728	-0.713391	-1.171812
H74	H	1.418648	-0.467794	-1.173008
H75	H	1.458423	-0.424231	-0.863076
H76	H	1.468344	-0.413305	-1.034569
H77	H	1.198605	-0.709183	-0.989317
