data_functionalizedCrystal
_audit_creation_method	'MofGen! by Chris Wilmer'
_symmetry_space_group_name_H-M	'P1'
_symmetry_Int_Tables_number	1
_symmetry_cell_setting	triclinic
loop_
_symmetry_equiv_pos_as_xyz
  x,y,z
_cell_length_a	19.188929
_cell_length_b	19.188905
_cell_length_c	17.666332
_cell_angle_alpha	89.983521
_cell_angle_beta	90.028268
_cell_angle_gamma	96.860334
loop_
_atom_site_label
_atom_site_type_symbol
_atom_site_fract_x
_atom_site_fract_y
_atom_site_fract_z
O1	O	-0.087086	0.926161	-0.063109
O2	O	-0.098838	0.722847	-0.063088
O3	O	0.008694	0.830371	-0.063052
O4	O	-0.194618	0.818637	-0.063145
O5	O	0.008700	0.830352	0.062844
O6	O	-0.098832	0.722828	0.062809
O7	O	-0.087080	0.926142	0.062788
Cu8	Cu	-0.092956	0.824483	0.074294
Cu9	Cu	-0.092962	0.824506	-0.074594
O10	O	-0.194612	0.818618	0.062752
C11	C	-0.098458	0.696826	-0.000136
C12	C	-0.097324	0.619321	-0.000126
C13	C	-0.096782	0.582939	-0.068754
C14	C	-0.095709	0.510116	-0.068763
C15	C	-0.095164	0.473678	-0.000140
C16	C	-0.095709	0.510068	0.068498
C17	C	-0.096789	0.582889	0.068504
N18	N	-0.053733	0.364650	0.050949
N19	N	-0.052705	0.295473	0.050937
C20	C	-0.091911	0.254272	-0.000156
N21	N	-0.132174	0.284861	-0.051250
N22	N	-0.133199	0.354045	-0.051241
C23	C	-0.093993	0.394716	-0.000140
C24	C	-0.090207	0.138926	-0.068799
C25	C	-0.089138	0.066101	-0.068805
C26	C	-0.089131	0.066055	0.068457
C27	C	-0.090207	0.138879	0.068461
C28	C	-0.090742	0.175310	-0.000169
C29	C	-0.220626	0.819007	-0.000208
C30	C	-0.298131	0.820148	-0.000245
C31	C	-0.343060	0.757056	-0.000223
C32	C	-0.415884	0.758128	-0.000206
C33	C	-0.443775	0.822295	-0.000195
C34	C	-0.398835	0.885395	-0.000221
C35	C	-0.326013	0.884321	-0.000246
N36	N	-0.551737	0.871336	0.042693
N37	N	-0.620915	0.872351	0.042718
C38	C	-0.663183	0.825533	-0.000123
N39	N	-0.633660	0.777650	-0.042980
N40	N	-0.564476	0.776633	-0.043002
C41	C	-0.522737	0.823466	-0.000169
C42	C	-0.787077	0.763599	-0.000084
C43	C	-0.859902	0.764673	-0.000071
C44	C	-0.842851	0.891942	-0.000080
C45	C	-0.770028	0.890866	-0.000099
C46	C	-0.742146	0.826693	-0.000098
C47	C	0.034708	0.829982	-0.000093
C48	C	0.112213	0.828841	-0.000062
C49	C	-0.087460	0.952163	-0.000166
C50	C	-0.088594	1.029668	-0.000181
N51	N	-0.092951	0.824473	0.179013
N52	N	-0.092962	0.824522	-0.179313
C53	C	-0.045358	0.872100	0.218639
C54	C	-0.045355	0.872104	0.297886
C55	C	-0.092956	0.824488	0.337505
C56	C	-0.140552	0.776852	0.297870
C57	C	-0.140549	0.776844	0.218624
N58	N	-0.154764	0.815411	0.461896
N59	N	-0.154764	0.815422	0.537177
C60	C	-0.092966	0.824506	0.576269
N61	N	-0.031164	0.833592	0.537237
N62	N	-0.031165	0.833584	0.461950
C63	C	-0.092964	0.824490	0.423434
C64	C	-0.045366	0.872140	0.701824
C65	C	-0.045361	0.872139	0.781073
C66	C	-0.140564	0.776890	0.781056
C67	C	-0.140562	0.776888	0.701808
C68	C	-0.092964	0.824516	0.662197
H69	H	-0.095267	0.480396	0.124371
Cl70	Cl	-0.095028	0.464369	-0.155045
H71	H	-0.896483	0.713294	-0.000059
Cl72	Cl	-0.752021	0.682926	-0.000086
Cl73	Cl	-0.097469	0.628629	0.154787
H74	H	-0.090650	0.168589	-0.124682
H75	H	-0.733445	0.942242	-0.000112
H76	H	-0.006599	0.910880	0.186390
Cl77	Cl	-0.088453	0.020254	0.154727
Cl78	Cl	-0.200390	0.716988	0.347675
H79	H	-0.088702	0.036479	-0.124692
H80	H	-0.179305	0.738060	0.186360
H81	H	-0.179319	0.738108	0.669543
Cl82	Cl	-0.090884	0.184619	0.154742
Cl83	Cl	-0.877907	0.972610	-0.000074
H84	H	-0.179319	0.738118	0.813313
H85	H	-0.320363	0.704801	-0.000228
Cl86	Cl	0.014480	0.931984	0.347710
Cl87	Cl	-0.472377	0.678807	-0.000175
H88	H	-0.421549	0.937640	-0.000227
Cl89	Cl	0.014478	0.932014	0.830891
Cl90	Cl	-0.097458	0.628735	-0.155032
Cl91	Cl	-0.269527	0.963643	-0.000272
H92	H	-0.006606	0.910920	0.669572
