data_functionalizedCrystal
_audit_creation_method	'MofGen! by Chris Wilmer'
_symmetry_space_group_name_H-M	'P1'
_symmetry_Int_Tables_number	1
_symmetry_cell_setting	triclinic
loop_
_symmetry_equiv_pos_as_xyz
  x,y,z
_cell_length_a	14.908571
_cell_length_b	19.121063
_cell_length_c	14.908308
_cell_angle_alpha	84.445373
_cell_angle_beta	89.824947
_cell_angle_gamma	89.303906
loop_
_atom_site_label
_atom_site_type_symbol
_atom_site_fract_x
_atom_site_fract_y
_atom_site_fract_z
Zn1	Zn	1.324072	-0.366417	0.606393
Zn2	Zn	1.824072	0.133583	1.106393
Zn3	Zn	1.326220	-0.477475	0.461735
Zn4	Zn	1.826220	0.022525	0.961735
Zn5	Zn	1.183168	-0.352931	0.446699
Zn6	Zn	1.683168	0.147069	0.946699
Zn7	Zn	1.167296	-0.476641	0.603344
Zn8	Zn	1.667296	0.023359	1.103344
O9	O	1.250189	-0.418366	0.529543
O10	O	1.750189	0.081634	1.029543
O11	O	1.449836	-0.387142	0.594773
O12	O	1.949836	0.112858	1.094773
O13	O	1.314785	-0.455659	0.333644
O14	O	1.814785	0.044341	0.833644
O15	O	1.207604	-0.256469	0.462866
O16	O	1.707604	0.243531	0.962866
O17	O	1.451414	-0.468736	0.488493
O18	O	1.951414	0.031264	0.988493
O19	O	1.311125	-0.266377	0.580193
O20	O	1.811125	0.233623	1.080193
O21	O	1.209686	-0.364157	0.322597
O22	O	1.709686	0.135843	0.822597
O23	O	1.055584	-0.363348	0.459909
O24	O	1.555584	0.136652	0.959909
O25	O	1.180551	-0.467315	0.729845
O26	O	1.680551	0.032685	1.229845
O27	O	1.043922	-0.454238	0.574995
O28	O	1.543922	0.045762	1.074995
O29	O	1.295734	-0.386334	0.732085
O30	O	1.795734	0.113666	1.232085
O31	O	1.299394	-0.575616	0.485536
O32	O	1.799394	-0.075616	0.985536
O33	O	1.182633	-0.575003	0.589576
O34	O	1.682633	-0.075003	1.089576
C35	C	1.017218	-0.407239	0.515490
C36	C	1.517218	0.092761	1.015490
C37	C	0.917550	-0.402497	0.509501
C38	C	1.417550	0.097503	1.009501
C39	C	1.239548	-0.600787	0.538878
C40	C	1.739548	-0.100787	1.038878
C41	C	1.235075	-0.678833	0.542906
C42	C	1.735075	-0.178833	1.042906
C43	C	0.718169	-0.488362	0.617938
C44	C	1.218169	0.011638	1.117938
C45	C	0.624521	-0.483909	0.612314
C46	C	1.124521	0.016091	1.112314
C47	C	0.636605	-0.389134	0.492633
C48	C	1.136605	0.110866	0.992633
C49	C	0.730253	-0.393588	0.498257
C50	C	1.230253	0.106412	0.998257
C51	C	0.771031	-0.443204	0.560911
C52	C	1.271031	0.056796	1.060911
C53	C	0.864680	-0.447660	0.566530
C54	C	1.364680	0.052340	1.066530
C55	C	0.876762	-0.352883	0.446854
C56	C	1.376762	0.147117	0.946854
C57	C	0.783115	-0.348429	0.441230
C58	C	1.283115	0.151571	0.941230
C59	C	1.293807	-0.715799	0.490682
C60	C	1.793807	-0.215799	0.990682
C61	C	1.289606	-0.789131	0.494476
C62	C	1.789606	-0.289131	0.994476
C63	C	1.226668	-0.825496	0.550491
C64	C	1.726668	-0.325496	1.050491
C65	C	1.167934	-0.788525	0.602722
C66	C	1.667934	-0.288525	1.102722
C67	C	1.172140	-0.715194	0.598932
C68	C	1.672140	-0.215194	1.098932
C69	C	1.210929	-1.046893	0.564648
C70	C	1.710929	-0.546893	1.064648
C71	C	1.206726	-1.120229	0.568432
C72	C	1.706726	-0.620229	1.068432
C73	C	1.328400	-1.120830	0.460187
C74	C	1.828400	-0.620830	0.960187
C75	C	1.332596	-1.047498	0.456398
C76	C	1.832596	-0.547498	0.956398
C77	C	1.273865	-1.010533	0.508632
C78	C	1.773865	-0.510533	1.008632
C79	C	1.222371	-0.900454	0.554369
C80	C	1.722371	-0.400454	1.054369
C81	C	1.278168	-0.935578	0.504758
C82	C	1.778168	-0.435578	1.004758
C83	C	1.484070	-0.429537	0.543650
C84	C	1.984070	0.070463	1.043650
C85	C	1.583736	-0.434297	0.549662
C86	C	2.083736	0.065703	1.049662
C87	C	1.236132	-0.428235	0.764574
C88	C	1.736132	0.071765	1.264574
C89	C	1.230142	-0.432441	0.864731
C90	C	1.730142	0.067559	1.364731
C91	C	1.260895	-0.235235	0.520192
C92	C	1.760895	0.264765	1.020192
C93	C	1.265458	-0.157195	0.516207
C94	C	1.765458	0.342805	1.016207
C95	C	1.264246	-0.408487	0.295425
C96	C	1.764246	0.091513	0.795425
C97	C	1.270421	-0.404092	0.195270
C98	C	1.770421	0.095908	0.695270
C99	C	1.338824	-0.356002	1.055270
C100	C	1.838824	0.143998	1.555270
C101	C	1.333199	-0.359951	1.149376
C102	C	1.833199	0.140049	1.649376
C103	C	1.213262	-0.444285	1.147051
C104	C	1.713262	0.055715	1.647051
C105	C	1.218888	-0.440335	1.052945
C106	C	1.718888	0.059665	1.552945
C107	C	1.281672	-0.396193	1.007057
C108	C	1.781672	0.103807	1.507057
C109	C	1.287301	-0.392248	0.912950
C110	C	1.787301	0.107752	1.412950
C111	C	1.167360	-0.476578	0.910626
C112	C	1.667360	0.023422	1.410626
C113	C	1.161735	-0.480527	1.004732
C114	C	1.661735	0.019473	1.504732
H115	H	0.897880	-0.488061	0.617545
H116	H	1.397880	0.011939	1.117545
F117	F	1.394027	-0.317173	1.200683
F118	F	1.894027	0.182827	1.700683
H119	H	0.751371	-0.528765	0.668948
H120	H	1.251371	-0.028765	1.168948
H121	H	1.120825	-0.509307	0.871362
H122	H	1.620825	-0.009307	1.371362
F123	F	1.390905	-1.160176	0.404604
F124	F	1.890905	-0.660176	0.904604
F125	F	1.354122	-0.345271	0.864115
F126	F	1.854122	0.154729	1.364115
H127	H	1.155484	-1.149837	0.614063
H128	H	1.655484	-0.649837	1.114063
F129	F	0.568264	-0.531971	0.673011
F130	F	1.068264	-0.031971	1.173011
F131	F	0.933029	-0.304824	0.386152
F132	F	1.433029	0.195176	0.886152
F133	F	1.399593	-1.008802	0.396790
F134	F	1.899593	-0.508802	0.896790
F135	F	1.155389	-0.939162	0.613982
F136	F	1.655389	-0.439162	1.113982
H137	H	1.389949	-0.320063	1.017908
H138	H	1.889949	0.179937	1.517908
H139	H	1.345054	-0.686195	0.445064
H140	H	1.845054	-0.186195	0.945064
H141	H	0.603387	-0.348735	0.441629
H142	H	1.103387	0.151265	0.941629
H143	H	1.162146	-0.480223	1.184428
H144	H	1.662146	0.019777	1.684428
F145	F	0.739706	-0.295625	0.374557
F146	F	1.239706	0.204375	0.874557
H147	H	1.337431	-0.819226	0.451949
H148	H	1.837431	-0.319226	0.951949
H149	H	1.163106	-1.016803	0.607177
H150	H	1.663106	-0.516803	1.107177
F151	F	1.094918	-0.527502	1.053578
F152	F	1.594918	-0.027502	1.553578
H153	H	1.116692	-0.818140	0.648335
H154	H	1.616692	-0.318140	1.148335
H155	H	1.124315	-0.685097	0.641460
H156	H	1.624315	-0.185097	1.141460
H157	H	1.329415	-0.905967	0.459154
H158	H	1.829415	-0.405967	0.959154
