data_functionalizedCrystal
_audit_creation_method	'MofGen! by Chris Wilmer'
_symmetry_space_group_name_H-M	'P1'
_symmetry_Int_Tables_number	1
_symmetry_cell_setting	triclinic
loop_
_symmetry_equiv_pos_as_xyz
  x,y,z
_cell_length_a	17.699083
_cell_length_b	13.339070
_cell_length_c	16.776229
_cell_angle_alpha	89.996888
_cell_angle_beta	89.998886
_cell_angle_gamma	99.456154
loop_
_atom_site_label
_atom_site_type_symbol
_atom_site_fract_x
_atom_site_fract_y
_atom_site_fract_z
O1	O	1.031106	0.127864	-0.066171
O2	O	0.814244	0.144499	-0.066196
O3	O	0.897786	-0.011021	-0.066184
O4	O	0.947563	0.283384	-0.066183
O5	O	0.897768	-0.011031	0.066392
O6	O	0.814226	0.144489	0.066380
O7	O	1.031088	0.127854	0.066406
Zn8	Zn	0.922654	0.136170	0.087442
Zn9	Zn	0.922677	0.136183	-0.087233
O10	O	0.947546	0.283374	0.066394
C11	C	0.785912	0.143898	0.000089
C12	C	0.701516	0.142110	0.000079
C13	C	0.889369	-0.048694	0.000102
C14	C	0.864305	-0.160935	0.000096
C15	C	0.672191	0.233397	0.000079
C16	C	0.592891	0.231710	0.000090
C17	C	0.542918	0.138736	0.000094
C18	C	0.572248	0.047442	0.000096
C19	C	0.651546	0.049129	0.000091
C20	C	0.252446	0.040635	0.000115
C21	C	0.173143	0.038955	0.000117
C22	C	0.193791	0.223216	0.000114
C23	C	0.273089	0.224904	0.000109
C24	C	0.302412	0.133610	0.000115
C25	C	0.388398	0.135440	0.000106
C26	C	0.456933	0.136906	0.000098
C27	C	1.059185	-0.526207	0.000119
C28	C	1.082736	-0.420752	0.000129
C29	C	1.028130	-0.355792	0.000121
C30	C	0.949970	-0.396298	0.000102
C31	C	0.926417	-0.501763	0.000098
C32	C	0.895362	-0.331349	0.000100
C33	C	0.817202	-0.371855	0.000082
C34	C	0.793652	-0.477310	0.000077
C35	C	0.848258	-0.542269	0.000086
C36	C	0.918915	-0.225884	0.000104
C37	C	0.786147	-0.201441	0.000083
C38	C	0.762596	-0.306895	0.000073
C39	C	1.059420	0.128455	0.000119
C40	C	1.143816	0.130243	0.000124
C41	C	0.955963	0.321047	0.000106
C42	C	0.981027	0.433288	0.000107
N43	N	0.922644	0.136161	0.206654
N44	N	0.922692	0.136184	-0.206444
C45	C	0.959658	0.067325	0.248376
C46	C	0.959662	0.067324	0.331828
C47	C	0.922656	0.136165	0.373556
C48	C	0.885638	0.205004	0.331828
C49	C	0.885629	0.204999	0.248378
C50	C	0.885669	0.205024	0.668375
C51	C	0.885682	0.205026	0.751832
C52	C	0.959702	0.067349	0.751826
C53	C	0.959694	0.067344	0.668375
C54	C	0.922672	0.136179	0.626654
C55	C	0.922667	0.136178	0.536166
C56	C	0.922666	0.136172	0.464043
H57	H	0.712875	0.309107	0.000075
H58	H	0.855502	0.261052	0.365808
N59	N	0.709352	-0.520998	0.000056
H60	H	0.702718	-0.597661	0.000055
H61	H	0.684470	-0.497233	0.049198
H62	H	0.982554	-0.192915	0.000119
N63	N	0.727239	-0.131396	0.000069
H64	H	0.694112	-0.144410	0.049211
H65	H	0.754072	-0.058470	0.000040
N66	N	0.683172	-0.049335	0.000088
H67	H	0.715614	-0.052742	-0.049058
H68	H	0.715575	-0.052685	0.049267
H69	H	0.829087	-0.628140	0.000074
H70	H	0.531553	-0.028259	0.000110
N71	N	0.678297	-0.350588	0.000054
H72	H	0.671666	-0.427251	0.000052
H73	H	0.653414	-0.326826	0.049198
N74	N	0.561264	0.330172	0.000078
H75	H	0.503446	0.314998	0.000085
H76	H	0.579636	0.370703	0.049221
N77	N	0.326989	0.325182	0.000094
H78	H	0.296378	0.382758	0.000096
H79	H	0.360344	0.329895	0.049238
N80	N	0.999578	-0.006920	0.203372
H81	H	1.023025	-0.050528	0.242469
H82	H	0.961227	-0.051574	0.168754
N83	N	0.999618	-0.006886	0.376830
H84	H	1.023075	-0.050480	0.337732
H85	H	1.041188	0.031812	0.411431
H86	H	0.855526	0.261074	0.634413
H87	H	0.989831	0.011291	0.634403
H88	H	0.276310	-0.033702	0.000121
N89	N	0.845702	0.279243	0.203378
H90	H	0.869481	0.350994	0.217891
H91	H	0.851317	0.268705	0.144195
H92	H	0.169907	0.297552	0.000113
N93	N	0.845756	0.279266	0.796842
H94	H	0.884066	0.323995	0.831458
H95	H	0.822296	0.322800	0.757700
H96	H	0.132455	-0.036760	0.000122
H97	H	1.047310	-0.269927	0.000129
N98	N	0.999633	-0.006900	0.796825
H99	H	0.994024	0.003542	0.856023
H100	H	0.975836	-0.078616	0.782243
N101	N	1.167033	-0.377079	0.000137
H102	H	1.179770	-0.333865	-0.049008
H103	H	1.179708	-0.333926	0.049317
H104	H	1.103637	-0.579105	0.000133
