data_functionalizedCrystal
_audit_creation_method	'MofGen! by Chris Wilmer'
_symmetry_space_group_name_H-M	'P1'
_symmetry_Int_Tables_number	1
_symmetry_cell_setting	triclinic
loop_
_symmetry_equiv_pos_as_xyz
  x,y,z
_cell_length_a	21.295418
_cell_length_b	21.295417
_cell_length_c	21.295120
_cell_angle_alpha	89.638316
_cell_angle_beta	89.913853
_cell_angle_gamma	90.046319
loop_
_atom_site_label
_atom_site_type_symbol
_atom_site_fract_x
_atom_site_fract_y
_atom_site_fract_z
Zn1	Zn	0.962621	-0.248301	-0.356246
Zn2	Zn	1.295955	0.085033	-0.022913
Zn3	Zn	1.629288	0.418366	0.310421
Zn4	Zn	0.962445	-0.354178	-0.250968
Zn5	Zn	1.295779	-0.020844	0.082366
Zn6	Zn	1.629112	0.312489	0.415699
Zn7	Zn	0.857266	-0.248955	-0.250952
Zn8	Zn	1.190599	0.084378	0.082381
Zn9	Zn	1.523933	0.417711	0.415715
Zn10	Zn	0.857314	-0.353566	-0.356168
Zn11	Zn	1.190647	-0.020232	-0.022834
Zn12	Zn	1.523980	0.313101	0.310499
O13	O	0.909911	-0.301250	-0.303583
O14	O	1.243245	0.032084	0.029750
O15	O	1.576578	0.365417	0.363083
O16	O	1.050687	-0.262328	-0.342320
O17	O	1.384021	0.071006	-0.008986
O18	O	1.717354	0.404339	0.324347
O19	O	0.948399	-0.340750	-0.162873
O20	O	1.281733	-0.007416	0.170460
O21	O	1.615066	0.325917	0.503794
O22	O	0.871295	-0.160779	-0.264946
O23	O	1.204629	0.172554	0.068388
O24	O	1.537962	0.505888	0.401721
O25	O	1.050558	-0.340115	-0.264972
O26	O	1.383891	-0.006782	0.068361
O27	O	1.717225	0.326552	0.401694
O28	O	0.948699	-0.160298	-0.342305
O29	O	1.282033	0.173035	-0.008971
O30	O	1.615366	0.506369	0.324362
O31	O	0.871125	-0.263443	-0.162862
O32	O	1.204458	0.069890	0.170472
O33	O	1.537791	0.403223	0.503805
O34	O	0.769183	-0.262850	-0.264870
O35	O	1.102516	0.070483	0.068463
O36	O	1.435849	0.403817	0.401797
O37	O	0.871377	-0.339072	-0.444271
O38	O	1.204710	-0.005739	-0.110937
O39	O	1.538043	0.327595	0.222396
O40	O	0.769218	-0.339707	-0.342171
O41	O	1.102551	-0.006373	-0.008838
O42	O	1.435885	0.326960	0.324495
O43	O	0.948746	-0.261734	-0.444328
O44	O	1.282079	0.071599	-0.110995
O45	O	1.615412	0.404932	0.222339
O46	O	0.948446	-0.442186	-0.264896
O47	O	1.281779	-0.108853	0.068437
O48	O	1.615112	0.224481	0.401770
O49	O	0.871206	-0.441736	-0.342187
O50	O	1.204539	-0.108403	-0.008853
O51	O	1.537873	0.224930	0.324480
C52	C	0.909829	-0.464802	-0.303548
C53	C	1.243162	-0.131468	0.029785
C54	C	1.576496	0.201865	0.363118
C55	C	0.909851	-0.534770	-0.303555
C56	C	1.243185	-0.201436	0.029779
C57	C	1.576518	0.131897	0.363112
C58	C	0.746360	-0.301283	-0.303511
C59	C	1.079693	0.032050	0.029822
C60	C	1.413026	0.365383	0.363156
C61	C	0.676392	-0.301313	-0.303495
C62	C	1.009725	0.032021	0.029839
C63	C	1.343058	0.365354	0.363172
C64	C	0.643560	-0.341386	-0.343685
C65	C	0.976893	-0.008052	-0.010352
C66	C	1.310226	0.325281	0.322981
C67	C	0.577817	-0.341370	-0.343714
C68	C	0.911151	-0.008037	-0.010380
C69	C	1.244484	0.325297	0.322953
C70	C	0.544909	-0.301288	-0.303540
C71	C	0.878243	0.032045	0.029793
C72	C	1.211576	0.365379	0.363127
C73	C	0.577749	-0.261207	-0.263347
C74	C	0.911082	0.072126	0.069987
C75	C	1.244416	0.405459	0.403320
C76	C	0.643490	-0.261220	-0.263324
C77	C	0.976824	0.072114	0.070009
C78	C	1.310157	0.405447	0.403343
N79	N	0.441592	-0.296688	-0.248481
N80	N	0.774926	0.036646	0.084853
N81	N	1.108259	0.369979	0.418186
N82	N	0.379141	-0.296680	-0.248504
N83	N	0.712474	0.036654	0.084829
N84	N	1.045807	0.369987	0.418163
C85	C	0.346835	-0.301248	-0.303607
C86	C	0.680168	0.032086	0.029727
C87	C	1.013501	0.365419	0.363060
N88	N	0.379339	-0.305836	-0.358687
N89	N	0.712672	0.027497	-0.025353
N90	N	1.046006	0.360831	0.307980
N91	N	0.441796	-0.305847	-0.358663
N92	N	0.775130	0.027486	-0.025329
N93	N	1.108463	0.360819	0.308004
C94	C	0.473624	-0.301270	-0.303560
C95	C	0.806957	0.032063	0.029773
C96	C	1.140291	0.365397	0.363106
C97	C	0.242717	-0.341306	-0.343832
C98	C	0.576050	-0.007972	-0.010498
C99	C	0.909384	0.325361	0.322835
C100	C	0.176973	-0.341286	-0.343861
C101	C	0.510307	-0.007952	-0.010528
C102	C	0.843640	0.325381	0.322806
C103	C	0.176907	-0.261126	-0.263488
C104	C	0.510240	0.072207	0.069845
C105	C	0.843573	0.405541	0.403179
C106	C	0.242649	-0.261143	-0.263464
C107	C	0.575982	0.072190	0.069869
C108	C	0.909316	0.405524	0.403202
C109	C	0.275550	-0.301236	-0.303635
C110	C	0.608884	0.032097	0.029698
C111	C	0.942217	0.365431	0.363031
C112	C	0.950106	-0.567849	-0.263351
C113	C	1.283439	-0.234516	0.069982
C114	C	1.616772	0.098817	0.403316
C115	C	0.950135	-0.633592	-0.263365
C116	C	1.283469	-0.300258	0.069968
C117	C	1.616802	0.033075	0.403302
C118	C	0.909899	-0.666252	-0.303576
C119	C	1.243232	-0.332919	0.029757
C120	C	1.576566	0.000415	0.363090
C121	C	0.869642	-0.633165	-0.343788
C122	C	1.202975	-0.299831	-0.010454
C123	C	1.536308	0.033502	0.322879
C124	C	0.869618	-0.567423	-0.343777
C125	C	1.202951	-0.234090	-0.010444
C126	C	1.536284	0.099243	0.322890
N127	N	0.854836	-0.769506	-0.308351
N128	N	1.188169	-0.436172	0.024982
N129	N	1.521502	-0.102839	0.358316
N130	N	0.854860	-0.831957	-0.308358
N131	N	1.188193	-0.498624	0.024976
N132	N	1.521527	-0.165290	0.358309
C133	C	0.909970	-0.864327	-0.303612
C134	C	1.243303	-0.530993	0.029721
C135	C	1.576636	-0.197660	0.363054
N136	N	0.965055	-0.831886	-0.298848
N137	N	1.298388	-0.498552	0.034485
N138	N	1.631722	-0.165219	0.367819
N139	N	0.965030	-0.769428	-0.298838
N140	N	1.298363	-0.436095	0.034495
N141	N	1.631696	-0.102762	0.367829
C142	C	0.909921	-0.737537	-0.303593
C143	C	1.243254	-0.404204	0.029741
C144	C	1.576587	-0.070871	0.363074
C145	C	0.950259	-0.968692	-0.263422
C146	C	1.283593	-0.635358	0.069911
C147	C	1.616926	-0.302025	0.403245
C148	C	0.950290	-1.034435	-0.263441
C149	C	1.283623	-0.701102	0.069893
C150	C	1.616957	-0.367768	0.403226
C151	C	0.869791	-1.034007	-0.343860
C152	C	1.203124	-0.700673	-0.010527
C153	C	1.536458	-0.367340	0.322807
C154	C	0.869766	-0.968264	-0.343845
C155	C	1.203099	-0.634931	-0.010511
C156	C	1.536433	-0.301598	0.322822
C157	C	0.909999	-0.935611	-0.303622
C158	C	1.243333	-0.602277	0.029711
C159	C	1.576666	-0.268944	0.363044
C160	C	1.074102	-0.301217	-0.303656
C161	C	1.407435	0.032117	0.029677
C162	C	1.740769	0.365450	0.363010
C163	C	1.144070	-0.301202	-0.303688
C164	C	1.477403	0.032131	0.029646
C165	C	1.810737	0.365464	0.362979
C166	C	0.910086	-0.300262	-0.467779
C167	C	1.243419	0.033071	-0.134446
C168	C	1.576753	0.366405	0.198887
C169	C	0.910160	-0.299841	-0.537750
C170	C	1.243494	0.033492	-0.204416
C171	C	1.576827	0.366826	0.128917
C172	C	0.910012	-0.137059	-0.303632
C173	C	1.243345	0.196274	0.029701
C174	C	1.576678	0.529607	0.363035
C175	C	0.910054	-0.067091	-0.303653
C176	C	1.243387	0.266242	0.029680
C177	C	1.576721	0.599576	0.363014
C178	C	0.909774	-0.302188	-0.140026
C179	C	1.243107	0.031145	0.193307
C180	C	1.576441	0.364478	0.526641
C181	C	0.909821	-0.302432	-0.070056
C182	C	1.243155	0.030901	0.263277
C183	C	1.576488	0.364235	0.596611
C184	C	0.949825	-0.261712	-0.037730
C185	C	1.283158	0.071621	0.295604
C186	C	1.616491	0.404954	0.628937
C187	C	0.949871	-0.261394	0.028011
C188	C	1.283204	0.071939	0.361344
C189	C	1.616538	0.405272	0.694678
C190	C	0.909903	-0.301789	0.061423
C191	C	1.243236	0.031544	0.394756
C192	C	1.576569	0.364877	0.728089
C193	C	0.869897	-0.342517	0.029088
C194	C	1.203230	-0.009184	0.362422
C195	C	1.536563	0.324150	0.695755
C196	C	0.869856	-0.342838	-0.036651
C197	C	1.203189	-0.009505	0.296682
C198	C	1.536523	0.323828	0.630016
N199	N	0.854898	-0.306525	0.164815
N200	N	1.188231	0.026809	0.498148
N201	N	1.521565	0.360142	0.831481
N202	N	0.854938	-0.306216	0.227264
N203	N	1.188272	0.027118	0.560598
N204	N	1.521605	0.360451	0.893931
C205	C	0.910024	-0.300825	0.259491
C206	C	1.243357	0.032508	0.592825
C207	C	1.576691	0.365842	0.926158
N208	N	0.965069	-0.295742	0.226910
N209	N	1.298402	0.037591	0.560243
N210	N	1.631735	0.370924	0.893576
N211	N	0.965028	-0.296048	0.164454
N212	N	1.298361	0.037285	0.497788
N213	N	1.631694	0.370619	0.831121
C214	C	0.909943	-0.301446	0.132706
C215	C	1.243276	0.031887	0.466039
C216	C	1.576609	0.365221	0.799373
C217	C	0.950081	-0.259758	0.363101
C218	C	1.283414	0.073575	0.696435
C219	C	1.616748	0.406909	1.029768
C220	C	0.950128	-0.259445	0.428843
C221	C	1.283462	0.073889	0.762176
C222	C	1.616795	0.407222	1.095510
C223	C	0.870148	-0.340564	0.429919
C224	C	1.203482	-0.007231	0.763252
C225	C	1.536815	0.326102	1.096586
C226	C	0.870107	-0.340881	0.364179
C227	C	1.203440	-0.007548	0.697512
C228	C	1.536773	0.325786	1.030845
C229	C	0.910072	-0.300475	0.330774
C230	C	1.243405	0.032859	0.664107
C231	C	1.576739	0.366192	0.997440
H232	H	0.670344	-0.374032	-0.376397
H233	H	1.003677	-0.040698	-0.043063
H234	H	1.337011	0.292635	0.290270
C235	C	0.994050	-0.215317	0.326354
C236	C	1.327383	0.118016	0.659687
C237	C	1.660716	0.451349	0.993020
N238	N	1.027169	-0.181845	0.298677
N239	N	1.360502	0.151488	0.632010
N240	N	1.693835	0.484821	0.965344
H241	H	0.150243	-0.373917	-0.376593
H242	H	0.483576	-0.040583	-0.043260
H243	H	0.816909	0.292750	0.290074
C244	C	0.994417	-0.669987	-0.219133
C245	C	1.327750	-0.336653	0.114201
C246	C	1.661083	-0.003320	0.447534
N247	N	1.027768	-0.697397	-0.185815
N248	N	1.361101	-0.364064	0.147518
N249	N	1.694435	-0.030731	0.480851
C250	C	0.825380	-0.669092	-0.388018
C251	C	1.158713	-0.335759	-0.054685
C252	C	1.492046	-0.002426	0.278649
N253	N	0.792040	-0.696153	-0.421334
N254	N	1.125374	-0.362820	-0.088001
N255	N	1.458707	-0.029486	0.245332
H256	H	0.551080	-0.374002	-0.376444
H257	H	0.884414	-0.040669	-0.043111
H258	H	1.217747	0.292665	0.290222
C259	C	0.994136	-0.214646	0.464402
C260	C	1.327469	0.118688	0.797735
C261	C	1.660803	0.452021	1.131069
N262	N	1.027282	-0.180901	0.491185
N263	N	1.360615	0.152433	0.824519
N264	N	1.693949	0.485766	1.157852
C265	C	0.825532	-1.069929	-0.388094
C266	C	1.158865	-0.736596	-0.054761
C267	C	1.492198	-0.403263	0.278572
N268	N	0.792195	-1.096989	-0.421414
N269	N	1.125528	-0.763656	-0.088080
N270	N	1.458862	-0.430323	0.245253
C271	C	0.825843	-0.387631	-0.072211
C272	C	1.159177	-0.054298	0.261122
C273	C	1.492510	0.279035	0.594456
N274	N	0.792690	-0.421368	-0.098996
N275	N	1.126024	-0.088035	0.234337
N276	N	1.459357	0.245298	0.567671
C277	C	0.993793	-0.217269	-0.074471
C278	C	1.327126	0.116065	0.258862
C279	C	1.660459	0.449398	0.592195
N280	N	1.026911	-0.183795	-0.102146
N281	N	1.360245	0.149539	0.231187
N282	N	1.693578	0.482872	0.564521
H283	H	0.836984	-0.941329	-0.376580
H284	H	1.170318	-0.607996	-0.043246
H285	H	1.503651	-0.274662	0.290087
H286	H	0.269507	-0.373949	-0.376544
H287	H	0.602840	-0.040615	-0.043211
H288	H	0.936174	0.292718	0.290122
H289	H	0.983022	-0.942104	-0.230672
H290	H	1.316355	-0.608771	0.102661
H291	H	1.649689	-0.275437	0.435994
H292	H	0.550951	-0.228571	-0.230638
H293	H	0.884284	0.104762	0.102695
H294	H	1.217618	0.438096	0.436029
H295	H	0.837608	-0.373457	0.457122
H296	H	1.170941	-0.040124	0.790456
H297	H	1.504275	0.293209	1.123789
H298	H	0.836837	-0.540489	-0.376516
H299	H	1.170171	-0.207156	-0.043183
H300	H	1.503504	0.126177	0.290150
C301	C	0.825930	-0.386950	0.065842
C302	C	1.159263	-0.053617	0.399176
C303	C	1.492597	0.279716	0.732509
N304	N	0.792814	-0.420420	0.093525
N305	N	1.126147	-0.087086	0.426859
N306	N	1.459480	0.246247	0.760192
H307	H	0.150114	-0.228488	-0.230781
H308	H	0.483447	0.104846	0.102553
H309	H	0.816780	0.438179	0.435886
C310	C	0.993876	-0.216594	0.063577
C311	C	1.327210	0.116739	0.396911
C312	C	1.660543	0.450072	0.730244
N313	N	1.027020	-0.182850	0.090364
N314	N	1.360353	0.150484	0.423697
N315	N	1.693687	0.483817	0.757031
C316	C	0.278766	-0.217065	-0.219245
C317	C	0.612099	0.116269	0.114088
C318	C	0.945432	0.449602	0.447422
N319	N	0.305968	-0.183862	-0.185937
N320	N	0.639302	0.149471	0.147396
N321	N	0.972635	0.482804	0.480729
C322	C	0.826092	-0.385670	0.328618
C323	C	1.159426	-0.052336	0.661951
C324	C	1.492759	0.280997	0.995285
N325	N	0.792939	-0.419407	0.301834
N326	N	1.126272	-0.086074	0.635168
N327	N	1.459605	0.247260	0.968501
H328	H	0.983074	-1.061367	-0.230703
H329	H	1.316407	-0.728034	0.102630
H330	H	1.649741	-0.394701	0.435964
C331	C	0.994357	-0.531934	-0.219098
C332	C	1.327690	-0.198601	0.114235
C333	C	1.661024	0.134732	0.447568
N334	N	1.027685	-0.504882	-0.185764
N335	N	1.361018	-0.171549	0.147569
N336	N	1.694352	0.161785	0.480903
C337	C	0.679607	-0.217138	-0.219106
C338	C	1.012940	0.116196	0.114228
C339	C	1.346273	0.449529	0.447561
N340	N	0.706810	-0.183936	-0.185798
N341	N	1.040144	0.149397	0.147535
N342	N	1.373477	0.482731	0.480869
