data_functionalizedCrystal
_audit_creation_method	'MofGen! by Chris Wilmer'
_symmetry_space_group_name_H-M	'P1'
_symmetry_Int_Tables_number	1
_symmetry_cell_setting	triclinic
loop_
_symmetry_equiv_pos_as_xyz
  x,y,z
_cell_length_a	16.120490
_cell_length_b	16.120484
_cell_length_c	13.033109
_cell_angle_alpha	79.614285
_cell_angle_beta	99.697676
_cell_angle_gamma	90.164100
loop_
_atom_site_label
_atom_site_type_symbol
_atom_site_fract_x
_atom_site_fract_y
_atom_site_fract_z
Zn1	Zn	1.322070	-0.470475	0.704627
Zn2	Zn	1.655403	-0.137141	1.037960
Zn3	Zn	1.988736	0.196192	1.371294
Zn4	Zn	1.298746	-0.591644	0.536093
Zn5	Zn	1.632079	-0.258310	0.869426
Zn6	Zn	1.965412	0.075023	1.202759
Zn7	Zn	1.165129	-0.443648	0.518236
Zn8	Zn	1.498462	-0.110315	0.851569
Zn9	Zn	1.831795	0.223019	1.184903
Zn10	Zn	1.175829	-0.602317	0.703662
Zn11	Zn	1.509163	-0.268984	1.036996
Zn12	Zn	1.842496	0.064349	1.370329
O13	O	1.240443	-0.527021	0.615655
O14	O	1.573777	-0.193688	0.948988
O15	O	1.907110	0.139646	1.282321
O16	O	1.436097	-0.493308	0.690147
O17	O	1.769430	-0.159975	1.023481
O18	O	2.102764	0.173359	1.356814
O19	O	1.266782	-0.556318	0.385590
O20	O	1.600115	-0.222984	0.718924
O21	O	1.933448	0.110349	1.052257
O22	O	1.191230	-0.330093	0.535892
O23	O	1.524564	0.003240	0.869225
O24	O	1.857897	0.336573	1.202558
O25	O	1.418961	-0.582330	0.566326
O26	O	1.752294	-0.248997	0.899659
O27	O	2.085627	0.084336	1.232993
O28	O	1.306534	-0.349803	0.672832
O29	O	1.639868	-0.016469	1.006166
O30	O	1.973201	0.316864	1.339499
O31	O	1.168614	-0.447586	0.372471
O32	O	1.501947	-0.114253	0.705804
O33	O	1.835281	0.219081	1.039138
O34	O	1.049427	-0.457936	0.534956
O35	O	1.382760	-0.124602	0.868290
O36	O	1.716094	0.208731	1.201623
O37	O	1.209468	-0.600522	0.851924
O38	O	1.542801	-0.267189	1.185257
O39	O	1.876134	0.066145	1.518591
O40	O	1.057289	-0.574509	0.671188
O41	O	1.390622	-0.241176	1.004522
O42	O	1.723955	0.092157	1.337855
O43	O	1.316910	-0.503658	0.852633
O44	O	1.650243	-0.170325	1.185966
O45	O	1.983577	0.163009	1.519299
O46	O	1.277157	-0.710173	0.565391
O47	O	1.610491	-0.376839	0.898724
O48	O	1.943824	-0.043506	1.232057
O49	O	1.186851	-0.718015	0.688503
O50	O	1.520185	-0.384681	1.021837
O51	O	1.853518	-0.051348	1.355170
C52	C	1.022990	-0.514470	0.601031
C53	C	1.356323	-0.181137	0.934364
C54	C	1.689656	0.152196	1.267697
C55	C	0.929963	-0.509124	0.594801
C56	C	1.263297	-0.175791	0.928134
C57	C	1.596630	0.157542	1.261468
C58	C	1.230659	-0.744464	0.628805
C59	C	1.563993	-0.411130	0.962138
C60	C	1.897326	-0.077797	1.295471
C61	C	1.226554	-0.837495	0.634471
C62	C	1.559887	-0.504161	0.967804
C63	C	1.893220	-0.170828	1.301138
C64	C	0.722094	-0.554747	0.647971
C65	C	1.055427	-0.221413	0.981304
C66	C	1.388761	0.111920	1.314638
C67	C	0.759649	-0.499371	0.583426
C68	C	1.092982	-0.166037	0.916759
C69	C	1.426315	0.167296	1.250093
C70	C	0.854421	-0.504799	0.589757
C71	C	1.187754	-0.171466	0.923090
C72	C	1.521087	0.161867	1.256424
C73	C	0.627314	-0.549319	0.641641
C74	C	0.960647	-0.215986	0.974975
C75	C	1.293980	0.117347	1.308308
C76	C	1.219065	-1.007826	0.644838
C77	C	1.552398	-0.674492	0.978171
C78	C	1.885732	-0.341159	1.311505
C79	C	1.261973	-1.045386	0.586499
C80	C	1.595307	-0.712053	0.919832
C81	C	1.928640	-0.378719	1.253165
C82	C	1.257807	-1.140164	0.592267
C83	C	1.591140	-0.806831	0.925600
C84	C	1.924473	-0.473497	1.258934
C85	C	1.223231	-0.913039	0.639071
C86	C	1.556564	-0.579706	0.972404
C87	C	1.889897	-0.246373	1.305738
C88	C	1.458746	-0.539621	0.630336
C89	C	1.792080	-0.206288	0.963669
C90	C	2.125413	0.127046	1.297003
C91	C	1.551774	-0.544990	0.636593
C92	C	1.885107	-0.211657	0.969926
C93	C	2.218441	0.121676	1.303259
C94	C	1.266984	-0.556273	0.891762
C95	C	1.600318	-0.222940	1.225095
C96	C	1.933651	0.110394	1.558428
C97	C	1.278294	-0.568739	1.009422
C98	C	1.611628	-0.235405	1.342756
C99	C	1.944961	0.097928	1.676089
C100	C	1.250290	-0.308733	0.602478
C101	C	1.583624	0.024601	0.935811
C102	C	1.916957	0.357934	1.269144
C103	C	1.254487	-0.215711	0.596863
C104	C	1.587820	0.117622	0.930196
C105	C	1.921153	0.450955	1.263529
C106	C	1.214056	-0.497825	0.340621
C107	C	1.547390	-0.164491	0.673954
C108	C	1.880723	0.168842	1.007288
C109	C	1.202919	-0.485133	0.222958
C110	C	1.536252	-0.151800	0.556291
C111	C	1.869586	0.181534	0.889625
C112	C	1.234765	-0.520498	1.055388
C113	C	1.568099	-0.187164	1.388721
C114	C	1.901432	0.146169	1.722054
C115	C	1.246454	-0.533380	1.176996
C116	C	1.579787	-0.200047	1.510329
C117	C	1.913121	0.133286	1.843662
H118	H	0.761116	-0.606229	0.707979
H119	H	1.094449	-0.272895	1.041312
H120	H	1.427783	0.060438	1.374645
H121	H	1.301837	-1.006361	0.532220
H122	H	1.635171	-0.673028	0.865553
H123	H	1.968504	-0.339695	1.198887
H124	H	1.188842	-0.469663	1.004711
H125	H	1.522175	-0.136330	1.338044
H126	H	1.855509	0.197004	1.671377
N127	N	0.707965	-0.431170	0.503928
N128	N	1.041298	-0.097837	0.837262
N129	N	1.374632	0.235497	1.170595
H130	H	0.646608	-0.436911	0.510615
H131	H	0.979941	-0.103577	0.843948
H132	H	1.313275	0.229756	1.177281
H133	H	0.715329	-0.436951	0.430080
H134	H	1.048662	-0.103617	0.763413
H135	H	1.381995	0.229716	1.096747
N136	N	1.166258	-1.059507	0.716729
N137	N	1.499592	-0.726174	1.050062
N138	N	1.832925	-0.392841	1.383395
H139	H	1.170730	-1.120867	0.710703
H140	H	1.504064	-0.787534	1.044037
H141	H	1.837397	-0.454200	1.377370
H142	H	1.105559	-1.039144	0.695259
H143	H	1.438892	-0.705811	1.028592
H144	H	1.772225	-0.372477	1.361925
N145	N	1.307278	-0.600735	1.244106
N146	N	1.640612	-0.267401	1.577440
N147	N	1.973945	0.065932	1.910773
H148	H	1.307004	-0.600393	1.321466
H149	H	1.640338	-0.267060	1.654799
H150	H	1.973671	0.066274	1.988133
H151	H	1.365803	-0.589136	1.228076
H152	H	1.699136	-0.255802	1.561410
H153	H	2.032470	0.077531	1.894743
H154	H	1.156994	-0.434293	1.172286
H155	H	1.490327	-0.100959	1.505619
H156	H	1.823660	0.232374	1.838952
H157	H	1.324214	-0.619577	1.060099
H158	H	1.657547	-0.286244	1.393433
H159	H	1.990880	0.047089	1.726766
