data_functionalizedCrystal
_audit_creation_method	'MofGen! by Chris Wilmer'
_symmetry_space_group_name_H-M	'P1'
_symmetry_Int_Tables_number	1
_symmetry_cell_setting	triclinic
loop_
_symmetry_equiv_pos_as_xyz
  x,y,z
_cell_length_a	16.959454
_cell_length_b	16.959455
_cell_length_c	12.759393
_cell_angle_alpha	89.975981
_cell_angle_beta	89.970360
_cell_angle_gamma	90.019023
loop_
_atom_site_label
_atom_site_type_symbol
_atom_site_fract_x
_atom_site_fract_y
_atom_site_fract_z
Zn1	Zn	-0.314665	1.208441	-0.594113
Zn2	Zn	0.185335	1.708441	-0.094113
Zn3	Zn	-0.446865	1.208346	-0.418435
Zn4	Zn	0.053135	1.708346	0.081565
Zn5	Zn	-0.314702	1.076252	-0.418438
Zn6	Zn	0.185298	1.576252	0.081562
Zn7	Zn	-0.446803	1.076234	-0.594063
Zn8	Zn	0.053197	1.576234	-0.094063
O9	O	-0.380759	1.142318	-0.506262
O10	O	0.119241	1.642318	-0.006262
O11	O	-0.332212	1.319039	-0.570828
O12	O	0.167788	1.819039	-0.070828
O13	O	-0.429374	1.190792	-0.271415
O14	O	0.070626	1.690792	0.228585
O15	O	-0.204086	1.093835	-0.441764
O16	O	0.295914	1.593835	0.058236
O17	O	-0.429339	1.318970	-0.441759
O18	O	0.070661	1.818970	0.058241
O19	O	-0.204059	1.190953	-0.570831
O20	O	0.295941	1.690953	-0.070831
O21	O	-0.332274	1.093743	-0.271417
O22	O	0.167726	1.593743	0.228583
O23	O	-0.332215	0.965639	-0.441716
O24	O	0.167785	1.465639	0.058284
O25	O	-0.429234	1.093803	-0.741091
O26	O	0.070766	1.593803	-0.241091
O27	O	-0.429269	0.965625	-0.570747
O28	O	0.070731	1.465625	-0.070747
O29	O	-0.332153	1.190935	-0.741127
O30	O	0.167847	1.690935	-0.241127
O31	O	-0.557467	1.190774	-0.441711
O32	O	-0.057467	1.690774	0.058289
O33	O	-0.557422	1.093712	-0.570744
O34	O	-0.057422	1.593712	-0.070744
C35	C	-0.380740	0.936952	-0.506227
C36	C	0.119260	1.436952	-0.006227
C37	C	-0.380751	0.849095	-0.506237
C38	C	0.119249	1.349095	-0.006237
C39	C	-0.330147	0.807805	-0.439164
C40	C	0.169853	1.307805	0.060836
C41	C	-0.431361	0.807832	-0.573325
C42	C	0.068639	1.307832	-0.073325
C43	C	-0.431370	0.725286	-0.573340
C44	C	0.068630	1.225286	-0.073340
C45	C	-0.380766	0.683996	-0.506268
C46	C	0.119234	1.183996	-0.006268
C47	C	-0.330153	0.725252	-0.439179
C48	C	0.169847	1.225252	0.060821
C49	C	-0.481976	0.684025	-0.640435
C50	C	0.018024	1.184025	-0.140435
C51	C	-0.481987	0.601474	-0.640454
C52	C	0.018013	1.101474	-0.140454
C53	C	-0.431386	0.560182	-0.573375
C54	C	0.068614	1.060182	-0.073375
C55	C	-0.380772	0.601443	-0.506283
C56	C	0.119228	1.101443	-0.006283
C57	C	-0.330168	0.560152	-0.439210
C58	C	0.169832	1.060152	0.060790
C59	C	-0.279556	0.601411	-0.372113
C60	C	0.220444	1.101411	0.127887
C61	C	-0.279552	0.683960	-0.372101
C62	C	0.220448	1.183960	0.127899
C63	C	-0.431391	0.477633	-0.573387
C64	C	0.068609	0.977633	-0.073387
C65	C	-0.330173	0.477599	-0.439226
C66	C	0.169827	0.977599	0.060774
C67	C	-0.586125	1.142252	-0.506245
C68	C	-0.086125	1.642252	-0.006245
C69	C	-0.673982	1.142296	-0.506272
C70	C	-0.173982	1.642296	-0.006272
C71	C	-1.045464	1.091851	-0.573443
C72	C	-0.545464	1.591851	-0.073443
C73	C	-1.045451	1.193006	-0.439189
C74	C	-0.545451	1.693006	0.060811
C75	C	-0.962905	1.192978	-0.439180
C76	C	-0.462905	1.692978	0.060820
C77	C	-0.921635	1.142385	-0.506301
C78	C	-0.421635	1.642385	-0.006301
C79	C	-0.962910	1.091820	-0.573433
C80	C	-0.462910	1.591820	-0.073433
C81	C	-0.921623	1.243536	-0.372042
C82	C	-0.421623	1.743536	0.127958
C83	C	-0.839072	1.243510	-0.372029
C84	C	-0.339072	1.743510	0.127971
C85	C	-0.797800	1.192921	-0.439157
C86	C	-0.297800	1.692921	0.060843
C87	C	-0.839081	1.142355	-0.506292
C88	C	-0.339081	1.642355	-0.006292
C89	C	-0.797811	1.091762	-0.573413
C90	C	-0.297811	1.591762	-0.073413
C91	C	-0.839090	1.041199	-0.640555
C92	C	-0.339090	1.541199	-0.140555
C93	C	-0.921639	1.041231	-0.640561
C94	C	-0.421639	1.541231	-0.140561
C95	C	-0.715252	1.192889	-0.439150
C96	C	-0.215252	1.692889	0.060850
C97	C	-0.715257	1.091731	-0.573404
C98	C	-0.215257	1.591731	-0.073404
C99	C	-0.174591	1.142406	-0.506303
C100	C	0.325409	1.642406	-0.006303
C101	C	-0.086734	1.142444	-0.506321
C102	C	0.413266	1.642444	-0.006321
C103	C	-0.380683	1.142377	-0.780296
C104	C	0.119317	1.642377	-0.280296
C105	C	-0.380651	1.142403	-0.897073
C106	C	0.119349	1.642403	-0.397073
C107	C	-0.380778	1.348487	-0.506299
C108	C	0.119222	1.848487	-0.006299
C109	C	-0.380787	1.436343	-0.506314
C110	C	0.119213	1.936343	-0.006314
C111	C	-0.330092	1.192983	-0.951955
C112	C	0.169908	1.692983	-0.451955
C113	C	-0.330058	1.192996	-1.061679
C114	C	0.169942	1.692996	-0.561679
C115	C	-0.431147	1.091847	-1.061629
C116	C	0.068853	1.591847	-0.561629
C117	C	-0.431177	1.091830	-0.951907
C118	C	0.068823	1.591830	-0.451907
C119	C	-0.380777	1.142305	-0.233295
C120	C	0.119223	1.642305	0.266705
C121	C	-0.380587	1.142433	-0.116519
C122	C	0.119413	1.642433	0.383481
H123	H	-0.472557	0.841456	-0.627937
H124	H	0.027443	1.341456	-0.127937
Cl125	Cl	-0.495005	0.425769	-0.657738
Cl126	Cl	0.004995	0.925769	-0.157738
Cl127	Cl	-0.215928	0.735833	-0.287764
Cl128	Cl	0.284072	1.235833	0.212236
Cl129	Cl	-0.266557	0.425697	-0.354895
Cl130	Cl	0.233443	0.925697	0.145105
Cl131	Cl	-0.266503	1.256593	-1.130670
Cl132	Cl	0.233497	1.756593	-0.630670
H133	H	-0.523199	0.567888	-0.695088
H134	H	-0.023199	1.067888	-0.195088
Cl135	Cl	-0.663381	1.028129	-0.657796
Cl136	Cl	-0.163381	1.528129	-0.157796
H137	H	-0.238351	0.567782	-0.317507
H138	H	0.261649	1.067782	0.182493
H139	H	-0.472347	1.050636	-0.907220
H140	H	0.027653	1.550636	-0.407220
Cl141	Cl	-0.545603	0.735935	-0.724730
Cl142	Cl	-0.045603	1.235935	-0.224730
Cl143	Cl	-0.266570	1.256556	-0.883025
Cl144	Cl	0.233430	1.756556	-0.383025
Cl145	Cl	-0.663362	1.256440	-0.354740
Cl146	Cl	-0.163362	1.756440	0.145260
Cl147	Cl	-0.787198	0.977596	-0.724928
Cl148	Cl	-0.287198	1.477596	-0.224928
Cl149	Cl	-0.266527	0.859671	-0.354814
Cl150	Cl	0.233473	1.359671	0.145186
H151	H	-0.955255	1.000065	-0.695222
H152	H	-0.455255	1.500065	-0.195222
H153	H	-0.955231	1.284720	-0.317387
H154	H	-0.455231	1.784720	0.182613
Cl155	Cl	-0.494667	1.028278	-1.130570
Cl156	Cl	0.005333	1.528278	-0.630570
H157	H	-1.079077	1.050686	-0.628110
H158	H	-0.579077	1.550686	-0.128110
Cl159	Cl	-1.097334	1.256605	-0.354813
Cl160	Cl	-0.597334	1.756605	0.145187
H161	H	-0.805467	1.284682	-0.317360
H162	H	-0.305467	1.784682	0.182640
