data_functionalizedCrystal
_audit_creation_method	'MofGen! by Chris Wilmer'
_symmetry_space_group_name_H-M	'P1'
_symmetry_Int_Tables_number	1
_symmetry_cell_setting	triclinic
loop_
_symmetry_equiv_pos_as_xyz
  x,y,z
_cell_length_a	20.919309
_cell_length_b	20.919099
_cell_length_c	20.919291
_cell_angle_alpha	116.415015
_cell_angle_beta	86.850524
_cell_angle_gamma	59.198870
loop_
_atom_site_label
_atom_site_type_symbol
_atom_site_fract_x
_atom_site_fract_y
_atom_site_fract_z
Zr1	Zr	0.675646	0.614180	0.023689
O2	O	0.571308	0.748461	0.122546
O3	O	0.702328	0.485637	-0.001571
O4	O	0.702330	0.612211	0.124986
O5	O	0.577338	0.621438	-0.109580
O6	O	0.811715	0.604132	0.121172
O7	O	0.571307	0.621886	-0.004011
O8	O	0.811712	0.377712	-0.105215
O9	O	0.577340	0.847857	0.116807
O10	O	0.801748	0.530353	-0.021285
O11	O	0.724616	0.536049	-0.097224
O12	O	0.724618	0.685074	0.051781
O13	O	0.647486	0.690770	-0.024158
Zr14	Zr	0.859722	0.600579	-0.150763
Zr15	Zr	0.850102	0.601293	0.017607
Zr16	Zr	0.685266	0.613465	-0.144681
Zr17	Zr	0.685267	0.772705	0.014537
Zr18	Zr	0.850101	0.442053	-0.141611
O19	O	0.833040	0.729122	-0.125503
O20	O	0.819362	0.730138	0.113897
O21	O	0.584986	0.747445	-0.116855
O22	O	0.964060	0.466297	-0.249620
O23	O	0.950383	0.467314	-0.010219
O24	O	0.716006	0.484620	-0.240971
O25	O	0.958030	0.593320	-0.017494
O26	O	0.833038	0.602547	-0.252060
O27	O	0.723654	0.610627	-0.248246
O28	O	0.964062	0.592872	-0.123063
O29	O	0.716010	0.837614	0.111972
O30	O	0.819358	0.377144	-0.239046
O31	O	0.958028	0.366901	-0.243881
O32	O	0.950382	0.367469	-0.110049
O33	O	0.584987	0.847289	-0.017025
O34	O	0.723656	0.837046	-0.021860
O35	O	0.810750	0.529684	-0.178855
O36	O	0.887882	0.523989	-0.102916
O37	O	0.810752	0.678710	-0.029850
O38	O	0.733620	0.684405	-0.105789
C39	C	0.755649	0.409088	-0.052089
C40	C	0.751565	0.341790	-0.048203
C41	C	0.725458	-0.035965	-0.023580
C42	C	0.729292	0.027286	-0.027199
C43	C	0.791475	-0.000531	-0.086106
C44	C	0.849824	-0.091607	-0.141402
C45	C	0.845986	-0.154855	-0.137786
C46	C	0.806076	0.187466	-0.099883
C47	C	0.809911	0.250724	-0.103494
C48	C	0.689377	0.369612	0.010709
C49	C	0.685547	0.306356	0.014322
C50	C	0.743893	0.215287	-0.040976
C51	C	0.795397	0.064120	-0.089804
C52	C	0.739968	0.150638	-0.037280
C53	C	0.549466	0.623498	-0.055929
C54	C	0.475405	0.628969	-0.053347
C55	C	0.480869	0.550778	-0.090269
C56	C	0.411278	0.555924	-0.087841
C57	C	0.336223	0.639261	-0.048486
C58	C	0.330761	0.717457	-0.011563
C59	C	0.400351	0.712311	-0.013996
C60	C	0.124091	0.658840	-0.039237
C61	C	0.054499	0.663980	-0.036805
C62	C	0.135022	0.502446	-0.113085
C63	C	0.204609	0.497307	-0.115510
C64	C	0.199141	0.575504	-0.078591
C65	C	0.265089	0.644522	-0.046002
C66	C	0.270275	0.570241	-0.081080
C67	C	0.985902	0.591260	-0.071145
C68	C	1.059963	0.585790	-0.073727
C69	C	0.755652	0.608273	0.147068
C70	C	0.751568	0.608577	0.218546
C71	C	0.779719	0.805670	-0.074986
C72	C	0.783803	0.872969	-0.078871
C73	C	0.809910	0.604269	0.250025
C74	C	0.806075	0.604547	0.317182
C75	C	0.743894	0.609138	0.352862
C76	C	0.685548	0.613444	0.321377
C77	C	0.689388	0.613160	0.254218
C78	C	0.729290	0.610212	0.555741
C79	C	0.725454	0.610498	0.622905
C80	C	0.845982	0.601600	0.618705
C81	C	0.849813	0.601321	0.551548
C82	C	0.791470	0.605622	0.520066
C83	C	0.739971	0.609425	0.421508
C84	C	0.795397	0.605329	0.451418
C85	C	0.779716	0.606487	0.725859
C86	C	0.783797	0.606191	0.654384
C87	C	0.973868	0.392969	-0.059697
C88	C	1.043844	0.320200	-0.058393
C89	C	0.767682	0.408194	-0.262694
C90	C	0.767681	0.340592	-0.330286
C91	C	0.985900	0.392075	-0.270302
C92	C	1.059960	0.319003	-0.340476
C93	C	0.549468	0.822683	0.143228
C94	C	0.475408	0.895756	0.213402
C95	C	0.561501	0.821789	-0.067377
C96	C	0.491524	0.894558	-0.068681
C97	C	0.767686	0.806565	0.135620
C98	C	0.767687	0.874166	0.203212
C99	C	1.031745	0.289350	-0.015164
C100	C	1.097488	0.220985	-0.013924
C101	C	1.175331	0.183468	-0.055918
C102	C	1.187429	0.214325	-0.099149
C103	C	1.121686	0.282693	-0.100385
C104	C	0.812642	0.305524	-0.404645
C105	C	0.812639	0.242014	-0.468162
C106	C	0.767679	0.213569	-0.457318
C107	C	0.722713	0.248644	-0.382950
C108	C	0.722712	0.312158	-0.319435
C109	C	1.135009	0.281714	-0.333792
C110	C	1.204604	0.213063	-0.399722
C111	C	1.199148	0.181698	-0.472336
C112	C	1.124091	0.218994	-0.479019
C113	C	1.054498	0.287648	-0.413090
C114	C	0.400359	0.933052	0.206717
C115	C	0.330766	1.001723	0.272647
C116	C	0.336223	1.033091	0.345260
C117	C	0.411279	0.995791	0.351943
C118	C	0.480871	0.927126	0.286015
C119	C	0.503623	0.925416	-0.111904
C120	C	0.437880	0.993798	-0.113126
C121	C	0.360037	1.031317	-0.071130
C122	C	0.347939	1.000457	-0.027901
C123	C	0.413682	0.932080	-0.026675
C124	C	0.812656	0.902590	0.192343
C125	C	0.812672	0.966100	0.255846
C126	C	0.767715	1.001189	0.330218
C127	C	0.722745	0.972758	0.341086
C128	C	0.722734	0.909245	0.277583
H129	H	0.641874	0.443764	0.055729
F130	F	0.265087	1.040395	0.016790
H131	H	0.269645	0.785312	0.020476
F132	F	1.140835	0.315086	-0.256517
H133	H	0.674824	-0.013305	0.024391
F134	F	0.861575	0.600438	0.413442
F135	F	1.084596	0.188154	0.032088
F136	F	0.619373	0.618324	0.359347
F137	F	0.667189	0.124206	0.031646
F138	F	0.450773	1.026626	-0.159140
F139	F	0.290075	1.104089	-0.072443
F140	F	1.134576	0.315515	-0.146403
H141	H	0.686111	0.886110	0.286443
F142	F	0.619360	0.335970	0.077017
H143	H	0.849254	0.328676	-0.413490
H144	H	0.853587	0.113321	-0.144910
H145	H	0.767687	0.161852	-0.509042
H146	H	0.686102	0.340702	-0.258890
F147	F	0.417073	1.029184	0.429231
F148	F	0.948904	0.329268	0.029538
F149	F	0.876101	0.221110	-0.166190
H150	H	0.689340	0.613166	0.450566
H151	H	1.255821	0.125795	-0.526014
H152	H	0.641880	0.616666	0.228588
F153	F	0.250894	1.041406	0.265518
F154	F	0.674867	0.218361	-0.371420
F155	F	0.140834	0.419230	-0.152377
F156	F	0.394534	0.899679	0.129443
H157	H	0.849265	0.874030	0.131791
F158	F	0.560740	0.887434	0.293141
F159	F	0.400792	0.899242	0.019327
H160	H	1.265711	0.182703	-0.394267
H161	H	0.331388	0.502389	-0.113126
H162	H	0.279550	1.089003	0.398938
H163	H	0.567001	0.894872	-0.146108
F164	F	0.908084	-0.251778	-0.196635
F165	F	0.916001	-0.121210	-0.204100
F166	F	0.860533	0.996349	0.244264
F167	F	0.767733	1.068787	0.397796
H168	H	1.119660	0.193446	-0.538150
H169	H	0.993393	0.318000	-0.418543
H170	H	0.860542	0.600536	0.220981
F171	F	0.673787	0.180240	0.025408
F172	F	1.270281	0.174385	-0.143842
F173	F	0.674896	1.010117	0.420243
H174	H	0.681784	0.613716	0.530115
F175	F	0.915992	0.596436	0.513576
F176	F	0.560745	0.462079	-0.132152
F177	F	0.861576	0.034522	-0.152496
H178	H	0.415735	0.492253	-0.117909
H179	H	0.265718	0.429446	-0.147542
H180	H	-0.006616	0.731847	-0.004754
H181	H	0.119627	0.722513	-0.009160
F182	F	0.394532	0.795532	0.025300
F183	F	0.860503	0.204693	-0.547302
H184	H	0.203972	0.712375	-0.013959
F185	F	0.908072	0.597020	0.652212
F186	F	0.868170	0.599960	0.350684
F187	F	0.659267	0.615388	0.660875
H188	H	1.228856	0.127798	-0.054906
