data_functionalizedCrystal
_audit_creation_method	'MofGen! by Chris Wilmer'
_symmetry_space_group_name_H-M	'P1'
_symmetry_Int_Tables_number	1
_symmetry_cell_setting	triclinic
loop_
_symmetry_equiv_pos_as_xyz
  x,y,z
_cell_length_a	10.686285
_cell_length_b	12.759401
_cell_length_c	12.759393
_cell_angle_alpha	90.019837
_cell_angle_beta	85.601950
_cell_angle_gamma	94.366763
loop_
_atom_site_label
_atom_site_type_symbol
_atom_site_fract_x
_atom_site_fract_y
_atom_site_fract_z
Zn1	Zn	-0.502223	-1.638389	-0.562006
Zn2	Zn	-0.713267	-1.651787	-0.372874
Zn3	Zn	-0.502295	-1.462695	-0.386337
Zn4	Zn	-0.713175	-1.476177	-0.548517
O5	O	-0.607740	-1.557262	-0.467434
O6	O	-0.530227	-1.787188	-0.536929
O7	O	-0.685349	-1.626668	-0.227634
O8	O	-0.325709	-1.474753	-0.420920
O9	O	-0.685280	-1.797031	-0.397974
O10	O	-0.325656	-1.603834	-0.549983
O11	O	-0.530349	-1.487744	-0.237526
O12	O	-0.530259	-1.317462	-0.407840
O13	O	-0.685123	-1.497730	-0.697332
O14	O	-0.685192	-1.327367	-0.526992
O15	O	-0.530138	-1.616906	-0.707243
O16	O	-0.889831	-1.639740	-0.384893
O17	O	-0.889763	-1.510721	-0.513938
C18	C	-0.607724	-1.284294	-0.467414
C19	C	-0.607748	-1.167518	-0.467428
C20	C	-0.935581	-1.578176	-0.446514
C21	C	-1.075833	-1.587219	-0.437599
C22	C	-0.607612	-1.557327	-0.741475
C23	C	-0.607558	-1.557355	-0.858255
C24	C	-0.278618	-1.536295	-0.488458
C25	C	-0.138366	-1.527360	-0.497418
C26	C	-0.607756	-1.831296	-0.467454
C27	C	-0.607763	-1.948073	-0.467463
C28	C	-0.688544	-1.117849	-0.529358
C29	C	-0.688549	-1.008125	-0.529378
C30	C	-0.526958	-0.997750	-0.405531
C31	C	-0.526948	-1.107471	-0.405517
C32	C	-0.526834	-1.485040	-0.918268
C33	C	-0.526796	-1.485062	-1.027995
C34	C	-0.688207	-1.629723	-1.017686
C35	C	-0.688251	-1.629695	-0.907961
C36	C	-0.607776	-1.557252	-0.194464
C37	C	-0.607475	-1.557405	-0.077707
H38	H	-1.084607	-1.469195	-0.555452
Cl39	Cl	-0.790124	-0.945689	-0.607238
H40	H	-0.461146	-1.147912	-0.355087
H41	H	-1.129600	-1.645381	-0.379554
H42	H	-0.754334	-1.166737	-0.579772
Cl43	Cl	-0.789746	-1.720609	-0.832510
Cl44	Cl	-0.425389	-0.922255	-0.327702
H45	H	-0.461129	-1.426136	-0.877802
H46	H	-0.461064	-1.426175	-1.076853
Cl47	Cl	-0.789641	-1.720662	-1.080181
