data_functionalizedCrystal
_audit_creation_method	'MofGen! by Chris Wilmer'
_symmetry_space_group_name_H-M	'P1'
_symmetry_Int_Tables_number	1
_symmetry_cell_setting	triclinic
loop_
_symmetry_equiv_pos_as_xyz
  x,y,z
_cell_length_a	15.944551
_cell_length_b	14.853567
_cell_length_c	13.930277
_cell_angle_alpha	90.000757
_cell_angle_beta	90.002726
_cell_angle_gamma	83.566834
loop_
_atom_site_label
_atom_site_type_symbol
_atom_site_fract_x
_atom_site_fract_y
_atom_site_fract_z
O1	O	-1.114657	-0.116273	-0.079723
O2	O	-0.870123	-0.130608	-0.079745
O3	O	-0.998922	0.007798	-0.079736
O4	O	-0.985858	-0.254678	-0.079732
O5	O	-0.998904	0.007801	0.079926
O6	O	-0.870106	-0.130605	0.079916
O7	O	-1.114639	-0.116270	0.079939
Zn8	Zn	-0.992370	-0.123437	0.105278
Zn9	Zn	-0.992393	-0.123441	-0.105084
O10	O	-0.985841	-0.254675	0.079930
C11	C	-0.838820	-0.130011	0.000082
C12	C	-0.745572	-0.128227	0.000073
C13	C	-0.998321	0.041387	0.000092
C14	C	-0.996547	0.141469	0.000083
C15	C	-1.145943	-0.116866	0.000109
C16	C	-1.239191	-0.118650	0.000112
C17	C	-0.530615	-0.038172	0.000090
C18	C	-0.469650	-0.079992	-0.078631
C19	C	-0.574842	-0.124999	0.000085
C20	C	-0.469655	-0.080010	0.078783
C21	C	-0.409926	-0.121875	0.000100
C22	C	-0.515106	-0.166843	-0.078701
C23	C	-0.515117	-0.166849	0.078783
C24	C	-0.454170	-0.208732	0.000043
C25	C	-0.669847	-0.126797	0.000075
C26	C	-0.314923	-0.120085	0.000102
C27	C	-0.986441	-0.288265	0.000100
C28	C	-0.988215	-0.388346	0.000102
N29	N	-0.992360	-0.123434	0.248844
C30	C	-0.912540	0.553895	0.000094
C31	C	-1.065556	0.575372	0.000108
C32	C	-1.067224	0.481341	0.000102
C33	C	-0.991549	0.423582	0.000094
C34	C	-0.914206	0.459854	0.000091
C35	C	-1.144565	0.445061	0.000115
C36	C	-1.146236	0.351024	0.000111
C37	C	-1.070560	0.293263	0.000095
C38	C	-0.993214	0.329541	0.000091
C39	C	-0.917539	0.271782	0.000083
C40	C	-0.840192	0.308058	0.000072
C41	C	-0.838530	0.402093	0.000076
C42	C	-1.072223	0.199228	0.000092
C43	C	-0.919205	0.177741	0.000080
N44	N	-0.992410	-0.123437	-0.248650
C45	C	-0.935359	-0.184703	0.701109
C46	C	-1.049451	-0.062172	0.701086
C47	C	-1.049441	-0.062169	0.600591
C48	C	-0.992390	-0.123435	0.550349
C49	C	-0.935349	-0.184704	0.600604
C50	C	-1.106486	-0.000907	0.550329
C51	C	-1.106479	-0.000903	0.449827
C52	C	-1.049423	-0.062165	0.399584
C53	C	-0.992380	-0.123436	0.449844
C54	C	-0.935329	-0.184702	0.399603
C55	C	-0.878280	-0.245969	0.449862
C56	C	-0.878293	-0.245966	0.550361
C57	C	-1.049410	-0.062168	0.299085
C58	C	-0.935319	-0.184702	0.299098
H59	H	-0.563867	0.033887	-0.000008
Cl60	Cl	-0.546035	-0.223502	-0.181567
H61	H	-1.152930	0.048985	0.408912
Cl62	Cl	-0.438551	-0.023298	-0.181387
H63	H	-0.849566	0.583435	0.000081
Cl64	Cl	-0.403094	-0.320098	-0.000019
Cl65	Cl	-1.169450	0.153626	0.000123
H66	H	-0.888858	-0.234590	0.258198
H67	H	-1.095904	-0.012295	0.741996
H68	H	-1.152939	0.048969	0.591238
Cl69	Cl	-1.121128	0.014842	0.235909
Cl70	Cl	-0.863641	-0.261718	0.764286
Cl71	Cl	-0.824064	0.105137	0.000062
H72	H	-0.535282	-0.203542	0.145341
H73	H	-0.449520	-0.043268	0.145333
H74	H	-1.206176	0.492094	0.000131
Cl75	Cl	-0.745062	0.235436	0.000070
H76	H	-0.775558	0.431638	0.000068
H77	H	-1.127167	0.622405	0.000123
H78	H	-1.209217	0.321496	0.000118
H79	H	-0.831832	-0.295856	0.408944
H80	H	-0.831847	-0.295848	0.591288
