data_functionalizedCrystal
_audit_creation_method	'MofGen! by Chris Wilmer'
_symmetry_space_group_name_H-M	'P1'
_symmetry_Int_Tables_number	1
_symmetry_cell_setting	triclinic
loop_
_symmetry_equiv_pos_as_xyz
  x,y,z
_cell_length_a	19.077105
_cell_length_b	18.215404
_cell_length_c	18.215399
_cell_angle_alpha	90.027515
_cell_angle_beta	87.683200
_cell_angle_gamma	92.279820
loop_
_atom_site_label
_atom_site_type_symbol
_atom_site_fract_x
_atom_site_fract_y
_atom_site_fract_z
Zn1	Zn	1.075989	0.338266	-0.461261
Zn2	Zn	1.075904	0.461333	-0.338192
Zn3	Zn	0.958291	0.333336	-0.333271
Zn4	Zn	0.958261	0.456341	-0.456281
O5	O	1.017111	0.397319	-0.397251
O6	O	1.174469	0.358743	-0.449080
O7	O	1.060279	0.444380	-0.234554
O8	O	0.973953	0.231008	-0.350273
O9	O	1.174406	0.449160	-0.358661
O10	O	1.060425	0.234629	-0.444307
O11	O	0.973870	0.350342	-0.230938
O12	O	0.859796	0.345501	-0.345444
O13	O	0.973901	0.440652	-0.559927
O14	O	0.859774	0.435872	-0.435820
O15	O	1.060395	0.353902	-0.563586
O16	O	1.060250	0.563653	-0.353833
O17	O	0.973818	0.559986	-0.440592
C18	C	0.834248	0.389611	-0.389558
C19	C	0.756018	0.386331	-0.386284
C20	C	1.017041	0.588522	-0.397223
C21	C	1.017075	0.670323	-0.397238
C22	C	1.017154	0.397270	-0.589206
C23	C	1.017173	0.397249	-0.671006
C24	C	0.719272	0.431912	-0.431726
C25	C	0.645767	0.428821	-0.428654
C26	C	0.609008	0.380151	-0.380135
C27	C	0.645759	0.334564	-0.334692
C28	C	0.719263	0.337653	-0.337768
C29	C	0.389174	0.365858	-0.365899
C30	C	0.315665	0.362774	-0.362825
C31	C	0.315677	0.457030	-0.456788
C32	C	0.389183	0.460117	-0.459857
C33	C	0.425927	0.414528	-0.414416
N34	N	0.533874	0.376991	-0.376992
N35	N	0.501060	0.417685	-0.417564
C36	C	1.200689	0.405058	-0.404975
C37	C	1.278919	0.408356	-0.408266
C38	C	1.062189	0.860406	-0.352164
C39	C	1.062221	0.937267	-0.352187
C40	C	0.972142	0.933484	-0.442449
C41	C	0.972113	0.856626	-0.442429
C42	C	1.017136	0.820089	-0.397282
C43	C	1.017197	0.973807	-0.397326
C44	C	1.017232	1.057142	-0.397351
C45	C	1.017101	0.736748	-0.397258
C46	C	1.017206	1.205370	-0.397310
C47	C	1.017258	1.123573	-0.397370
C48	C	1.062227	0.352035	-0.861107
C49	C	1.062235	0.352014	-0.937966
C50	C	0.972169	0.442351	-0.934145
C51	C	0.972157	0.442368	-0.857287
C52	C	1.017190	0.397211	-0.820770
C53	C	1.017210	0.397174	-0.974487
C54	C	1.017219	0.397151	-1.057821
C55	C	1.017181	0.397233	-0.737431
C56	C	1.017109	0.397316	-0.206045
C57	C	1.017227	0.397136	-0.124252
H58	H	0.615851	0.465939	-0.465657
O59	O	0.928481	0.968949	-0.486407
C60	C	0.894222	0.990932	-0.610121
C61	C	0.943725	0.950740	-0.560427
H62	H	0.906519	0.976213	-0.669975
H63	H	0.901983	1.052799	-0.602448
H64	H	0.837477	0.973498	-0.594718
H65	H	1.000489	0.968113	-0.575799
H66	H	0.935903	0.888880	-0.568107
H67	H	0.285739	0.323133	-0.323320
H68	H	0.285752	0.494145	-0.493784
H69	H	0.419083	0.328741	-0.328893
O70	O	0.928531	0.486301	-0.969657
C71	C	0.919032	0.585212	-1.056039
C72	C	0.968531	0.535497	-1.015860
H73	H	0.951352	0.624989	-1.093415
H74	H	0.886851	0.617557	-1.014039
H75	H	0.882237	0.549851	-1.090448
H76	H	1.005369	0.570803	-0.981452
H77	H	1.000663	0.503148	-1.057897
O78	O	0.609946	0.287347	-0.287583
C79	C	0.496706	0.240779	-0.241236
C80	C	0.537175	0.294300	-0.294608
H81	H	0.437864	0.246371	-0.246908
H82	H	0.511076	0.254226	-0.182455
H83	H	0.511228	0.182074	-0.254870
H84	H	0.522675	0.353023	-0.281041
H85	H	0.522802	0.280790	-0.353373
H86	H	1.098909	0.970090	-0.315448
O87	O	0.755069	0.293405	-0.293698
C88	C	0.868303	0.256420	-0.256765
C89	C	0.827842	0.306563	-0.306726
H90	H	0.927147	0.267051	-0.267269
H91	H	0.853928	0.196475	-0.269194
H92	H	0.853781	0.268647	-0.196801
H93	H	0.842343	0.294401	-0.366706
H94	H	0.842220	0.366492	-0.294234
O95	O	1.105890	0.824993	-0.308211
C96	C	1.140094	0.802946	-0.184489
C97	C	1.090567	0.843106	-0.234182
H98	H	1.127714	0.817563	-0.124626
H99	H	1.196856	0.820402	-0.199796
H100	H	1.132347	0.741091	-0.192261
H101	H	1.098253	0.904968	-0.226436
H102	H	1.033824	0.825590	-0.218863
O103	O	0.928446	0.817427	-0.486343
C104	C	0.918892	0.730151	-0.585239
C105	C	0.968419	0.774513	-0.535569
H106	H	0.951189	0.695432	-0.625040
H107	H	0.886726	0.769432	-0.617561
H108	H	0.882084	0.692706	-0.549846
H109	H	1.005269	0.811960	-0.570907
H110	H	1.000534	0.735189	-0.503243
H111	H	1.098893	0.315264	-0.831377
H112	H	1.098907	0.315226	-0.970805
H113	H	0.935478	0.479155	-0.824444
H114	H	0.749195	0.471547	-0.471233
H115	H	0.419106	0.499751	-0.499364
