data_functionalizedCrystal
_audit_creation_method	'MofGen! by Chris Wilmer'
_symmetry_space_group_name_H-M	'P1'
_symmetry_Int_Tables_number	1
_symmetry_cell_setting	triclinic
loop_
_symmetry_equiv_pos_as_xyz
  x,y,z
_cell_length_a	19.077236
_cell_length_b	15.298852
_cell_length_c	19.076919
_cell_angle_alpha	97.034097
_cell_angle_beta	90.112677
_cell_angle_gamma	82.210197
loop_
_atom_site_label
_atom_site_type_symbol
_atom_site_fract_x
_atom_site_fract_y
_atom_site_fract_z
Zn1	Zn	1.103630	-0.322987	0.398801
Zn2	Zn	1.603630	0.177013	0.898801
Zn3	Zn	1.128285	-0.465578	0.262866
Zn4	Zn	1.628285	0.034422	0.762866
Zn5	Zn	0.990780	-0.322521	0.276641
Zn6	Zn	1.490780	0.177479	0.776641
Zn7	Zn	1.007771	-0.477449	0.374071
Zn8	Zn	1.507771	0.022551	0.874071
O9	O	1.057616	-0.397134	0.328095
O10	O	1.557616	0.102866	0.828095
O11	O	1.204564	-0.337130	0.385354
O12	O	1.704564	0.162870	0.885354
O13	O	1.113253	-0.441438	0.167030
O14	O	1.613253	0.058562	0.667030
O15	O	0.988320	-0.198070	0.308960
O16	O	1.488320	0.301930	0.808960
O17	O	1.222679	-0.441891	0.285483
O18	O	1.722679	0.058109	0.785483
O19	O	1.071230	-0.198412	0.398710
O20	O	1.571230	0.301588	0.898710
O21	O	1.012228	-0.336334	0.177150
O22	O	1.512228	0.163666	0.677150
O23	O	0.895370	-0.347845	0.284980
O24	O	1.395370	0.152155	0.784980
O25	O	1.017279	-0.462122	0.475015
O26	O	1.517279	0.037878	0.975015
O27	O	0.907853	-0.461670	0.356561
O28	O	1.407853	0.038330	0.856561
O29	O	1.087706	-0.348640	0.493184
O30	O	1.587706	0.151360	0.993184
O31	O	1.129728	-0.591666	0.261503
O32	O	1.629728	-0.091666	0.761503
O33	O	1.041187	-0.600387	0.343205
O34	O	1.541187	-0.100387	0.843205
C35	C	0.876289	-0.405995	0.319582
C36	C	1.376289	0.094005	0.819582
C37	C	0.798718	-0.409809	0.315955
C38	C	1.298718	0.090191	0.815955
C39	C	0.752855	-0.357151	0.366304
C40	C	1.252855	0.142849	0.866304
C41	C	0.679969	-0.360729	0.362890
C42	C	1.179969	0.139271	0.862890
C43	C	0.652948	-0.416971	0.309129
C44	C	1.152948	0.083029	0.809129
C45	C	0.698816	-0.469631	0.258774
C46	C	1.198816	0.030369	0.758774
C47	C	0.771701	-0.466047	0.262186
C48	C	1.271701	0.033953	0.762186
C49	C	0.435978	-0.433524	0.293340
C50	C	0.935978	0.066476	0.793340
C51	C	0.363088	-0.437105	0.289933
C52	C	0.863088	0.062895	0.789933
C53	C	0.344246	-0.328202	0.394048
C54	C	0.844246	0.171798	0.894048
C55	C	0.417133	-0.324627	0.397458
C56	C	0.917133	0.175373	0.897458
C57	C	0.462994	-0.377284	0.347101
C58	C	0.962994	0.122716	0.847101
N59	N	0.578447	-0.420632	0.305639
N60	N	1.078447	0.079368	0.805639
N61	N	0.537493	-0.373617	0.350589
N62	N	1.037493	0.126383	0.850589
C63	C	1.089995	-0.628311	0.298192
C64	C	1.589995	-0.128311	0.798192
C65	C	1.103910	-0.727208	0.285426
C66	C	1.603910	-0.227208	0.785426
C67	C	0.958619	-1.024267	0.419425
C68	C	1.458619	-0.524267	0.919425
C69	C	0.945547	-0.931349	0.431425
C70	C	1.445547	-0.431349	0.931425
C71	C	0.985136	-0.880309	0.394926
C72	C	1.485136	-0.380309	0.894926
C73	C	1.037801	-0.922197	0.346426
C74	C	1.537801	-0.422197	0.846426
C75	C	1.050878	-1.015124	0.334429
C76	C	1.550878	-0.515124	0.834429
C77	C	1.077395	-0.871166	0.309930
C78	C	1.577395	-0.371166	0.809930
C79	C	1.130060	-0.913053	0.261430
C80	C	1.630060	-0.413053	0.761430
C81	C	1.143134	-1.005972	0.249435
C82	C	1.643134	-0.505972	0.749435
C83	C	1.103545	-1.057012	0.285934
C84	C	1.603545	-0.557012	0.785934
C85	C	1.064318	-0.778239	0.321926
C86	C	1.564318	-0.278239	0.821926
C87	C	1.156577	-0.769095	0.236930
C88	C	1.656577	-0.269095	0.736930
C89	C	1.169649	-0.862014	0.224931
C90	C	1.669649	-0.362014	0.724931
C91	C	1.239653	-0.388238	0.336641
C92	C	1.739653	0.111762	0.836641
C93	C	1.317225	-0.384447	0.340282
C94	C	1.817225	0.115553	0.840282
C95	C	1.051638	-0.406757	0.510130
C96	C	1.551638	0.093243	1.010130
C97	C	1.049090	-0.410858	0.587703
C98	C	1.549090	0.089142	1.087703
C99	C	1.025130	-0.165054	0.358130
C100	C	1.525130	0.334946	0.858130
C101	C	1.011286	-0.066155	0.370930
C102	C	1.511286	0.433845	0.870930
C103	C	1.063603	-0.387482	0.146777
C104	C	1.563603	0.112518	0.646777
C105	C	1.066251	-0.383123	0.069244
C106	C	1.566251	0.116877	0.569244
C107	C	1.084559	-0.353703	0.633607
C108	C	1.584559	0.146297	1.133607
C109	C	1.082156	-0.357554	0.706495
C110	C	1.582156	0.142446	1.206495
C111	C	1.044288	-0.418564	0.733477
C112	C	1.544288	0.081436	1.233477
C113	C	1.008815	-0.475721	0.687567
C114	C	1.508815	0.024279	1.187567
C115	C	1.011214	-0.471866	0.614681
C116	C	1.511214	0.028134	1.114681
C117	C	1.033177	-0.436425	0.950448
C118	C	1.533177	0.063575	1.450448
C119	C	1.030782	-0.440278	1.023340
C120	C	1.530782	0.059722	1.523340
C121	C	1.104122	-0.322109	1.042263
C122	C	1.604122	0.177891	1.542263
C123	C	1.106522	-0.318263	0.969374
C124	C	1.606522	0.181737	1.469374
C125	C	1.071045	-0.375417	0.923471
C126	C	1.571045	0.124583	1.423471
N127	N	1.041833	-0.422503	0.807980
N128	N	1.541833	0.077497	1.307980
N129	N	1.073497	-0.371473	0.848970
N130	N	1.573497	0.128527	1.348970
H131	H	0.676810	-0.515420	0.214998
H132	H	1.176810	-0.015420	0.714998
C133	C	1.142709	-0.259830	0.866054
C134	C	1.642709	0.240170	1.366054
C135	C	1.148108	-0.251158	0.939721
C136	C	1.648108	0.248842	1.439721
H137	H	1.168378	-0.218396	0.847750
H138	H	1.668378	0.281604	1.347750
H139	H	1.094387	-0.248505	0.853606
H140	H	1.594387	0.251495	1.353606
H141	H	1.161714	-0.318471	0.846846
H142	H	1.661714	0.181529	1.346846
H143	H	1.129098	-0.192520	0.958930
H144	H	1.629098	0.307480	1.458930
H145	H	1.196440	-0.262477	0.952176
H146	H	1.696440	0.237523	1.452176
C147	C	1.133004	-0.275540	1.162395
C148	C	1.633004	0.224460	1.662395
C149	C	1.143107	-0.259279	1.092722
C150	C	1.643107	0.240721	1.592722
H151	H	1.157068	-0.236743	1.193545
H152	H	1.657068	0.263257	1.693545
H153	H	1.151198	-0.335447	1.167082
H154	H	1.651198	0.164553	1.667082
H155	H	1.083894	-0.265443	1.173813
H156	H	1.583894	0.234557	1.673813
H157	H	1.192218	-0.269383	1.081303
H158	H	1.692218	0.230617	1.581303
H159	H	1.124917	-0.199358	1.088032
H160	H	1.624917	0.300642	1.588032
C161	C	1.120801	-0.295320	0.530283
C162	C	1.620801	0.204680	1.030283
C163	C	1.126182	-0.286636	0.603952
C164	C	1.626182	0.213364	1.103952
H165	H	1.146500	-0.253915	0.511979
H166	H	1.646500	0.246085	1.011979
H167	H	1.072484	-0.283960	0.517824
H168	H	1.572484	0.216040	1.017824
H169	H	1.139781	-0.353974	0.511086
H170	H	1.639781	0.146026	1.011086
H171	H	1.107197	-0.227984	0.623150
H172	H	1.607197	0.272016	1.123150
H173	H	1.174509	-0.297990	0.616418
H174	H	1.674509	0.202010	1.116418
H175	H	0.809042	-0.508927	0.221186
H176	H	1.309042	-0.008927	0.721186
H177	H	0.306898	-0.285331	0.435045
H178	H	0.806898	0.214669	0.935045
H179	H	1.021438	-0.744142	0.361416
H180	H	1.521438	-0.244142	0.861416
H181	H	0.902669	-0.897248	0.470914
H182	H	1.402669	-0.397248	0.970914
C183	C	1.170817	-1.105193	0.142598
C184	C	1.670817	-0.605193	0.642598
C185	C	1.201076	-1.052078	0.196204
C186	C	1.701076	-0.552078	0.696204
H187	H	1.206605	-1.133677	0.109762
H188	H	1.706605	-0.633677	0.609762
H189	H	1.136271	-1.069097	0.119044
H190	H	1.636271	-0.569097	0.619044
H191	H	1.149065	-1.148838	0.162634
H192	H	1.649065	-0.648838	0.662634
H193	H	1.222825	-1.008428	0.176168
H194	H	1.722825	-0.508428	0.676168
H195	H	1.235636	-1.088176	0.219761
H196	H	1.735636	-0.588176	0.719761
H197	H	1.114181	-1.132674	0.276162
H198	H	1.614181	-0.632674	0.776162
C199	C	1.278543	-0.961304	0.206247
C200	C	1.778543	-0.461304	0.706247
C201	C	1.227545	-0.908058	0.171627
C202	C	1.727545	-0.408058	0.671627
H203	H	1.314287	-0.989724	0.173340
H204	H	1.814287	-0.489724	0.673340
H205	H	1.256833	-1.004992	0.226260
H206	H	1.756833	-0.504992	0.726260
H207	H	1.299101	-0.925302	0.242613
H208	H	1.799101	-0.425302	0.742613
H209	H	1.206983	-0.944062	0.135265
H210	H	1.706983	-0.444062	0.635265
H211	H	1.249258	-0.864365	0.151603
H212	H	1.749258	-0.364365	0.651603
H213	H	0.439128	-0.278832	0.441238
H214	H	0.939128	0.221168	0.941238
H215	H	0.473311	-0.476401	0.252337
H216	H	0.973311	0.023599	0.752337
C217	C	0.916173	-0.752183	0.458380
C218	C	1.416173	-0.252183	0.958380
C219	C	0.970761	-0.778172	0.408107
C220	C	1.470761	-0.278172	0.908107
H221	H	0.907293	-0.689125	0.466512
H222	H	1.407293	-0.189125	0.966512
H223	H	0.929686	-0.774952	0.501278
H224	H	1.429686	-0.274952	1.001278
H225	H	0.874514	-0.774837	0.441438
H226	H	1.374514	-0.274837	0.941438
H227	H	1.012421	-0.755523	0.425052
H228	H	1.512421	-0.255523	0.925052
H229	H	0.957251	-0.755393	0.365201
H230	H	1.457251	-0.255393	0.865201
H231	H	0.926394	-1.065832	0.449141
H232	H	1.426394	-0.565832	0.949141
H233	H	0.977979	-0.525394	0.709541
H234	H	1.477979	-0.025394	1.209541
C235	C	1.177492	-0.622595	0.217570
C236	C	1.677492	-0.122595	0.717570
C237	C	1.200095	-0.713001	0.196803
C238	C	1.700095	-0.213001	0.696803
H239	H	1.204355	-0.587963	0.192795
H240	H	1.704355	-0.087963	0.692795
H241	H	1.183984	-0.609318	0.266911
H242	H	1.683984	-0.109318	0.766911
H243	H	1.128809	-0.609191	0.207074
H244	H	1.628809	-0.109191	0.707074
H245	H	1.248777	-0.726407	0.207303
H246	H	1.748777	-0.226407	0.707303
H247	H	1.193610	-0.726283	0.147449
H248	H	1.693610	-0.226283	0.647449
H249	H	0.982323	-0.518399	0.577307
H250	H	1.482323	-0.018399	1.077307
C251	C	0.389030	-0.544390	0.187353
C252	C	0.889030	-0.044390	0.687353
C253	C	0.333386	-0.498929	0.230833
C254	C	0.833386	0.001071	0.730833
H255	H	0.370690	-0.582552	0.150869
H256	H	0.870690	-0.082552	0.650869
H257	H	0.421246	-0.578691	0.214633
H258	H	0.921246	-0.078691	0.714633
H259	H	0.412884	-0.502753	0.167059
H260	H	0.912884	-0.002753	0.667059
H261	H	0.309535	-0.540566	0.251132
H262	H	0.809535	-0.040566	0.751132
H263	H	0.301157	-0.464626	0.203549
H264	H	0.801157	0.035374	0.703549
H265	H	1.111040	-0.311014	0.743868
H266	H	1.611040	0.188986	1.243868
H267	H	0.999944	-0.489962	1.045305
H268	H	1.499944	0.010038	1.545305
C269	C	1.020985	-0.587563	0.906922
C270	C	1.520985	-0.087563	1.406922
C271	C	0.994174	-0.499247	0.900005
C272	C	1.494174	0.000753	1.400005
H273	H	0.996903	-0.626344	0.875776
H274	H	1.496903	-0.126344	1.375776
H275	H	1.014146	-0.598578	0.954189
H276	H	1.514146	-0.098578	1.454189
H277	H	1.070090	-0.597663	0.895478
H278	H	1.570090	-0.097663	1.395478
H279	H	0.945070	-0.489144	0.911453
H280	H	1.445070	0.010856	1.411453
H281	H	1.001007	-0.488227	0.852726
H282	H	1.501007	0.011773	1.352726
C283	C	0.765386	-0.319188	0.491166
C284	C	1.265386	0.180812	0.991166
C285	C	0.782553	-0.295328	0.425402
C286	C	1.282553	0.204672	0.925402
H287	H	0.783715	-0.281015	0.527650
H288	H	1.283715	0.218985	1.027650
H289	H	0.785384	-0.378931	0.494123
H290	H	1.285384	0.121069	0.994123
H291	H	0.715413	-0.313783	0.496330
H292	H	1.215413	0.186217	0.996330
H293	H	0.832526	-0.300739	0.420236
H294	H	1.332526	0.199261	0.920236
H295	H	0.762557	-0.235570	0.422443
H296	H	1.262557	0.264430	0.922443
C297	C	0.593234	-0.357556	0.454522
C298	C	1.093234	0.142444	0.954522
C299	C	0.629558	-0.302851	0.418240
C300	C	1.129558	0.197149	0.918240
H301	H	0.562110	-0.321820	0.488691
H302	H	1.062110	0.178180	0.988691
H303	H	0.626237	-0.396383	0.477472
H304	H	1.126237	0.103617	0.977472
H305	H	0.566710	-0.391553	0.422007
H306	H	1.066710	0.108447	0.922007
H307	H	0.656086	-0.268858	0.450753
H308	H	1.156086	0.231142	0.950753
H309	H	0.596550	-0.264009	0.395289
H310	H	1.096550	0.235991	0.895289
