data_functionalizedCrystal
_audit_creation_method	'MofGen! by Chris Wilmer'
_symmetry_space_group_name_H-M	'P1'
_symmetry_Int_Tables_number	1
_symmetry_cell_setting	triclinic
loop_
_symmetry_equiv_pos_as_xyz
  x,y,z
_cell_length_a	16.959455
_cell_length_b	25.639240
_cell_length_c	16.959447
_cell_angle_alpha	90.040258
_cell_angle_beta	90.020374
_cell_angle_gamma	90.029777
loop_
_atom_site_label
_atom_site_type_symbol
_atom_site_fract_x
_atom_site_fract_y
_atom_site_fract_z
Zn1	Zn	1.208314	-0.208182	0.446982
Zn2	Zn	1.708314	0.291818	0.946982
Zn3	Zn	1.208207	-0.295623	0.314780
Zn4	Zn	1.708207	0.204377	0.814780
Zn5	Zn	1.076143	-0.208199	0.314805
Zn6	Zn	1.576143	0.291801	0.814805
Zn7	Zn	1.076078	-0.295584	0.446905
Zn8	Zn	1.576078	0.204416	0.946905
O9	O	1.142186	-0.251897	0.380868
O10	O	1.642186	0.248103	0.880868
O11	O	1.318911	-0.219791	0.429467
O12	O	1.818911	0.280209	0.929467
O13	O	1.190671	-0.284049	0.204173
O14	O	1.690671	0.215951	0.704173
O15	O	1.093747	-0.135031	0.332381
O16	O	1.593747	0.364969	0.832381
O17	O	1.318832	-0.284033	0.332339
O18	O	1.818832	0.215967	0.832339
O19	O	1.190853	-0.135019	0.429491
O20	O	1.690853	0.364981	0.929491
O21	O	1.093644	-0.219819	0.204191
O22	O	1.593644	0.280181	0.704191
O23	O	0.965523	-0.219781	0.332307
O24	O	1.465523	0.280219	0.832307
O25	O	1.093637	-0.283966	0.557526
O26	O	1.593637	0.216034	1.057526
O27	O	0.965476	-0.283982	0.429360
O28	O	1.465476	0.216018	0.929360
O29	O	1.190790	-0.219753	0.557582
O30	O	1.690790	0.280247	1.057582
O31	O	1.190608	-0.368783	0.332264
O32	O	1.690608	0.131217	0.832264
O33	O	1.093534	-0.368754	0.429336
O34	O	1.593534	0.131246	0.929336
C35	C	0.936819	-0.251880	0.380828
C36	C	1.436819	0.248120	0.880828
C37	C	0.848963	-0.251885	0.380830
C38	C	1.348963	0.248115	0.880830
C39	C	0.477436	-0.285315	0.330268
C40	C	0.977436	0.214685	0.830268
C41	C	0.477539	-0.218522	0.431564
C42	C	0.977539	0.281478	0.931564
C43	C	0.560084	-0.218514	0.431545
C44	C	1.060084	0.281486	0.931545
C45	C	0.601310	-0.251907	0.380887
C46	C	1.101310	0.248093	0.880887
C47	C	0.559989	-0.285308	0.330249
C48	C	1.059989	0.214692	0.830249
C49	C	0.601411	-0.185117	0.482189
C50	C	1.101411	0.314883	0.982189
C51	C	0.683962	-0.185107	0.482172
C52	C	1.183962	0.314893	0.982172
C53	C	0.725189	-0.218498	0.431510
C54	C	1.225189	0.281502	0.931510
C55	C	0.683863	-0.251900	0.380868
C56	C	1.183863	0.248100	0.880868
C57	C	0.725089	-0.285293	0.330210
C58	C	1.225089	0.214707	0.830210
C59	C	0.683764	-0.318693	0.279564
C60	C	1.183764	0.181307	0.779564
C61	C	0.601216	-0.318699	0.279586
C62	C	1.101216	0.181301	0.779586
C63	C	0.807737	-0.218492	0.431488
C64	C	1.307737	0.281508	0.931488
C65	C	0.807642	-0.285286	0.330191
C66	C	1.307642	0.214714	0.830191
C67	C	1.142074	-0.387739	0.380806
C68	C	1.642074	0.112261	0.880806
C69	C	1.142098	-0.445853	0.380806
C70	C	1.642098	0.054147	0.880806
C71	C	1.192774	-0.806172	0.431524
C72	C	1.692774	-0.306172	0.931524
C73	C	1.192797	-0.860776	0.431540
C74	C	1.692797	-0.360776	0.931540
O75	O	1.235750	-0.888975	0.474599
O76	O	1.735750	-0.388975	0.974599
N77	N	1.142295	-0.888136	0.380944
N78	N	1.642295	-0.388136	0.880944
C79	C	1.091761	-0.860889	0.330335
C80	C	1.591761	-0.360889	0.830335
O81	O	1.048807	-0.889174	0.287301
O82	O	1.548807	-0.389174	0.787301
C83	C	1.091734	-0.806285	0.330323
C84	C	1.591734	-0.306285	0.830323
C85	C	1.142245	-0.778928	0.380917
C86	C	1.642245	-0.278928	0.880917
C87	C	1.243280	-0.778814	0.482114
C88	C	1.743280	-0.278814	0.982114
C89	C	1.243257	-0.724214	0.482097
C90	C	1.743257	-0.224214	0.982097
C91	C	1.192729	-0.696971	0.431490
C92	C	1.692729	-0.196971	0.931490
C93	C	1.142223	-0.724328	0.380900
C94	C	1.642223	-0.224328	0.880900
C95	C	1.041197	-0.779039	0.279719
C96	C	1.541197	-0.279039	0.779719
C97	C	1.041174	-0.724432	0.279712
C98	C	1.541174	-0.224432	0.779712
C99	C	1.091685	-0.697075	0.330305
C100	C	1.591685	-0.197075	0.830305
C101	C	1.091672	-0.642484	0.330275
C102	C	1.591672	-0.142484	0.830275
N103	N	1.142174	-0.615124	0.380871
N104	N	1.642174	-0.115124	0.880871
C105	C	1.192702	-0.642367	0.431478
C106	C	1.692702	-0.142367	0.931478
C107	C	1.091820	-0.975559	0.330364
C108	C	1.591820	-0.475559	0.830364
C109	C	1.091850	-1.030161	0.330371
C110	C	1.591850	-0.530161	0.830371
C111	C	1.192885	-1.030045	0.431577
C112	C	1.692885	-0.530045	0.931577
C113	C	1.192859	-0.975442	0.431566
C114	C	1.692859	-0.475442	0.931566
C115	C	1.142322	-0.948199	0.380960
C116	C	1.642322	-0.448199	0.880960
C117	C	1.192651	-0.527702	0.431437
C118	C	1.692651	-0.027702	0.931437
C119	C	1.192627	-0.473097	0.431413
C120	C	1.692627	0.026903	0.931413
C121	C	1.091589	-0.473218	0.330210
C122	C	1.591589	0.026782	0.830210
C123	C	1.091617	-0.527819	0.330231
C124	C	1.591617	-0.027819	0.830231
C125	C	1.142150	-0.555059	0.380851
C126	C	1.642150	-0.055059	0.880851
O127	O	1.048738	-0.614250	0.287241
O128	O	1.548738	-0.114250	0.787241
O129	O	1.235642	-0.614075	0.474512
O130	O	1.735642	-0.114075	0.974512
C131	C	1.348354	-0.251914	0.380908
C132	C	1.848354	0.248086	0.880908
C133	C	1.436210	-0.251922	0.380926
C134	C	1.936210	0.248078	0.880926
C135	C	1.142218	-0.251853	0.587036
C136	C	1.642218	0.248147	1.087036
C137	C	1.142232	-0.251835	0.674893
C138	C	1.642232	0.248165	1.174893
C139	C	1.142319	-0.115524	0.380947
C140	C	1.642319	0.384476	0.880947
C141	C	1.142376	-0.057410	0.380981
C142	C	1.642376	0.442590	0.880981
C143	C	1.142198	-0.251902	0.175502
C144	C	1.642198	0.248098	0.675502
C145	C	1.142337	-0.251773	0.087646
C146	C	1.642337	0.248227	0.587646
C147	C	1.091744	-0.285213	1.046342
C148	C	1.591744	0.214787	1.546342
C149	C	1.192910	-0.218347	1.046396
C150	C	1.692910	0.281653	1.546396
C151	C	1.192889	-0.218358	0.963850
C152	C	1.692889	0.281642	1.463850
C153	C	1.142295	-0.251798	0.922546
C154	C	1.642295	0.248202	1.422546
C155	C	1.091723	-0.285226	0.963788
C156	C	1.591723	0.214774	1.463788
C157	C	1.243467	-0.184934	0.922601
C158	C	1.743467	0.315066	1.422601
C159	C	1.243448	-0.184944	0.840050
C160	C	1.743448	0.315056	1.340050
C161	C	1.192850	-0.218381	0.798745
C162	C	1.692850	0.281619	1.298745
C163	C	1.142274	-0.251811	0.839993
C164	C	1.642274	0.248189	1.339993
C165	C	1.091681	-0.285250	0.798689
C166	C	1.591681	0.214750	1.298689
C167	C	1.041101	-0.318678	0.839935
C168	C	1.541101	0.181322	1.339935
C169	C	1.041124	-0.318664	0.922483
C170	C	1.541124	0.181336	1.422483
C171	C	1.192826	-0.218395	0.716197
C172	C	1.692826	0.281605	1.216197
C173	C	1.091660	-0.285264	0.716135
C174	C	1.591660	0.214736	1.216135
H175	H	0.717341	-0.345884	0.238323
H176	H	1.217341	0.154116	0.738323
C177	C	1.036009	-0.443243	0.274550
C178	C	1.536009	0.056757	0.774550
H179	H	1.043227	-0.406806	0.281797
H180	H	1.543227	0.093194	0.781797
H181	H	1.047606	-0.452212	0.221452
H182	H	1.547606	0.047788	0.721452
H183	H	0.982895	-0.452213	0.286078
H184	H	1.482895	0.047787	0.786078
C185	C	1.248554	-0.181564	1.091827
C186	C	1.748554	0.318436	1.591827
H187	H	1.241320	-0.186341	1.146898
H188	H	1.741320	0.313659	1.646898
H189	H	1.301654	-0.189216	1.078300
H190	H	1.801654	0.310784	1.578300
H191	H	1.237005	-0.146434	1.078323
H192	H	1.737005	0.353566	1.578323
C193	C	1.299076	-0.148172	0.794687
C194	C	1.799076	0.351828	1.294687
H195	H	1.329206	-0.128252	0.831110
H196	H	1.829206	0.371748	1.331110
H197	H	1.333488	-0.168177	0.762469
H198	H	1.833488	0.331823	1.262469
H199	H	1.268845	-0.125391	0.762503
H200	H	1.768845	0.374609	1.262503
H201	H	1.234010	-0.191181	0.682618
H202	H	1.734010	0.308819	1.182618
C203	C	0.852984	-0.322022	0.274470
C204	C	1.352984	0.177978	0.774470
H205	H	0.816548	-0.341915	0.244318
H206	H	1.316548	0.158085	0.744318
H207	H	0.885183	-0.301994	0.240082
H208	H	1.385183	0.198006	0.740082
H209	H	0.885184	-0.344828	0.304640
H210	H	1.385184	0.155172	0.804640
C211	C	1.036112	-0.321982	1.091707
C212	C	1.536112	0.178018	1.591707
H213	H	1.043371	-0.317188	1.146786
H214	H	1.543371	0.182812	1.646786
H215	H	0.983008	-0.314329	1.078175
H216	H	1.483008	0.185671	1.578175
H217	H	1.047650	-0.357116	1.078155
H218	H	1.547650	0.142884	1.578155
H219	H	0.443968	-0.191338	0.472812
H220	H	0.943968	0.308662	0.972812
C221	C	1.298817	-0.694128	0.537753
C222	C	1.798817	-0.194128	1.037753
H223	H	1.328904	-0.718180	0.567895
H224	H	1.828904	-0.218180	1.067895
H225	H	1.333270	-0.672826	0.507550
H226	H	1.833270	-0.172826	1.007550
H227	H	1.268547	-0.672825	0.572164
H228	H	1.768547	-0.172825	1.072164
H229	H	1.050728	-1.052431	0.289164
H230	H	1.550728	-0.552431	0.789164
H231	H	1.284662	-0.157712	0.956237
H232	H	1.784662	0.342288	1.456237
C233	C	0.985498	-0.355433	0.967854
C234	C	1.485498	0.144567	1.467854
H235	H	0.992765	-0.350639	1.022932
H236	H	1.492765	0.149361	1.522932
H237	H	0.932392	-0.347781	0.954330
H238	H	1.432392	0.152219	1.454330
H239	H	0.997035	-0.390567	0.954301
H240	H	1.497035	0.109433	1.454301
H241	H	0.567840	-0.157933	0.523437
H242	H	1.067840	0.342067	1.023437
C243	C	0.555759	-0.355438	0.223888
C244	C	1.055759	0.144562	0.723888
H245	H	0.500692	-0.350663	0.231163
H246	H	1.000692	0.149337	0.731163
H247	H	0.569255	-0.347745	0.170797
H248	H	1.069255	0.152255	0.670797
H249	H	0.569274	-0.390578	0.235357
H250	H	1.069274	0.109422	0.735357
H251	H	0.443786	-0.312507	0.289031
H252	H	0.943786	0.187493	0.789031
C253	C	0.729412	-0.148364	0.537872
C254	C	1.229412	0.351636	1.037872
H255	H	0.693036	-0.128475	0.568039
H256	H	1.193036	0.371525	1.068039
H257	H	0.761628	-0.168386	0.572246
H258	H	1.261628	0.331614	1.072246
H259	H	0.761604	-0.125554	0.507685
H260	H	1.261604	0.374446	1.007685
C261	C	1.248184	-0.443007	0.487075
C262	C	1.748184	0.056993	0.987075
H263	H	1.278271	-0.467056	0.517223
H264	H	1.778271	0.032944	1.017223
H265	H	1.282638	-0.421704	0.456874
H266	H	1.782638	0.078296	0.956874
H267	H	1.217907	-0.421704	0.521481
H268	H	1.717907	0.078296	1.021481
H269	H	1.000066	-0.801304	0.238520
H270	H	1.500066	-0.301304	0.738520
H271	H	0.841380	-0.191299	0.472725
H272	H	1.341380	0.308701	0.972725
C273	C	1.298871	-0.808774	0.537782
C274	C	1.798871	-0.308774	1.037782
H275	H	1.328946	-0.784653	0.567901
H276	H	1.828946	-0.284653	1.067901
H277	H	1.268635	-0.830075	0.572203
H278	H	1.768635	-0.330075	1.072203
H279	H	1.333347	-0.830069	0.507579
H280	H	1.833347	-0.330069	1.007579
H281	H	1.050493	-0.550094	0.289027
H282	H	1.550493	-0.050094	0.789027
C283	C	1.248244	-0.557659	0.487111
C284	C	1.748244	-0.057659	0.987111
H285	H	1.278322	-0.533540	0.517228
H286	H	1.778322	-0.033540	1.017228
H287	H	1.218005	-0.578958	0.521533
H288	H	1.718005	-0.078958	1.021533
H289	H	1.282718	-0.578957	0.456908
H290	H	1.782718	-0.078957	0.956908
H291	H	1.234027	-1.052237	0.472786
H292	H	1.734027	-0.552237	0.972786
C293	C	1.248406	-0.945354	0.487232
C294	C	1.748406	-0.445354	0.987232
H295	H	1.278494	-0.969404	0.517376
H296	H	1.778494	-0.469404	1.017376
H297	H	1.282859	-0.924046	0.457039
H298	H	1.782859	-0.424046	0.957039
H299	H	1.218124	-0.924056	0.521641
H300	H	1.718124	-0.424056	1.021641
H301	H	1.050669	-0.953381	0.289148
H302	H	1.550669	-0.453381	0.789148
H303	H	0.999911	-0.345907	0.806294
H304	H	1.499911	0.154093	1.306294
C305	C	0.985584	-0.694468	0.224042
C306	C	1.485584	-0.194468	0.724042
H307	H	0.955513	-0.718585	0.193912
H308	H	1.455513	-0.218585	0.693912
H309	H	0.951116	-0.673167	0.254236
H310	H	1.451116	-0.173167	0.754236
H311	H	1.015836	-0.673173	0.189619
H312	H	1.515836	-0.173173	0.689619
H313	H	1.050452	-0.312490	0.682511
H314	H	1.550452	0.187510	1.182511
