data_functionalizedCrystal
_audit_creation_method	'MofGen! by Chris Wilmer'
_symmetry_space_group_name_H-M	'P1'
_symmetry_Int_Tables_number	1
_symmetry_cell_setting	triclinic
loop_
_symmetry_equiv_pos_as_xyz
  x,y,z
_cell_length_a	14.971482
_cell_length_b	15.944493
_cell_length_c	14.048226
_cell_angle_alpha	89.999441
_cell_angle_beta	89.994098
_cell_angle_gamma	83.543826
loop_
_atom_site_label
_atom_site_type_symbol
_atom_site_fract_x
_atom_site_fract_y
_atom_site_fract_z
O1	O	1.186807	0.109451	-0.079136
O2	O	0.926389	0.122563	-0.079139
O3	O	1.063736	-0.006264	-0.079145
O4	O	1.049459	0.238279	-0.079129
O5	O	1.063720	-0.006272	0.079176
O6	O	0.926373	0.122556	0.079183
O7	O	1.186790	0.109444	0.079186
Zn8	Zn	1.056579	0.115999	0.104321
Zn9	Zn	1.056600	0.116009	-0.104274
O10	O	1.049443	0.238271	0.079192
C11	C	0.893057	0.121974	0.000021
C12	C	0.793762	0.120218	0.000020
C13	C	0.747109	0.119387	0.086321
C14	C	0.653813	0.117724	0.086322
C15	C	0.607170	0.116898	0.000020
C16	C	0.653830	0.117727	-0.086288
C17	C	0.747125	0.119384	-0.086288
C18	C	0.459372	0.114275	-0.086282
C19	C	0.366070	0.112620	-0.086283
C20	C	0.366060	0.112616	0.086328
C21	C	0.459356	0.114273	0.086328
C22	C	0.506008	0.115103	0.000019
C23	C	1.063145	-0.037563	0.000012
C24	C	1.061395	-0.130813	-0.000000
C25	C	1.142241	-0.366497	0.000019
C26	C	1.098652	-0.417103	-0.078042
C27	C	1.058154	-0.301538	0.000011
C28	C	1.098616	-0.417086	0.078050
C29	C	1.055029	-0.466450	0.000027
C30	C	1.014587	-0.350915	-0.078114
C31	C	1.014564	-0.350895	0.078049
C32	C	0.970913	-0.401467	-0.000031
C33	C	1.059956	-0.206536	0.000001
C34	C	1.053219	-0.561449	0.000029
C35	C	1.220122	0.110033	0.000024
C36	C	1.319417	0.111789	0.000019
C37	C	1.050035	0.269570	0.000033
C38	C	1.051784	0.362821	0.000039
N39	N	1.056570	0.115991	0.246682
N40	N	1.056616	0.116009	-0.246635
C41	C	1.117407	0.058970	0.296497
C42	C	1.117413	0.058970	0.396155
C43	C	1.056586	0.115995	0.445995
C44	C	0.995743	0.173019	0.396173
C45	C	0.995734	0.173015	0.296517
C46	C	0.995769	0.173025	0.603887
C47	C	0.995779	0.173031	0.703550
C48	C	1.117448	0.058980	0.703525
C49	C	1.117439	0.058976	0.603869
C50	C	1.056597	0.116001	0.554054
H51	H	0.785108	0.120062	-0.156564
F52	F	1.236911	-0.345979	-0.000080
H53	H	0.946193	0.219446	0.255959
F54	F	0.968193	-0.313071	0.164312
F55	F	1.145075	-0.454892	-0.164301
F56	F	0.604164	0.116851	0.178177
F57	F	1.145043	-0.454860	0.164305
H58	H	1.166988	0.012548	0.744090
F59	F	0.968210	-0.313288	-0.164468
H60	H	0.946222	0.219458	0.563331
F61	F	0.931001	0.233707	0.449218
F62	F	0.796741	0.120272	0.178178
H63	H	0.328071	0.111940	0.156604
F64	F	0.508993	0.115160	0.178180
H65	H	0.898426	-0.417001	-0.000075
H66	H	0.328096	0.111948	-0.156557
H67	H	0.946247	0.219466	0.744125
H68	H	0.497354	0.114952	-0.156564
F69	F	1.182153	-0.001722	0.243462
F70	F	1.182161	-0.001720	0.449172
H71	H	0.615846	0.117048	-0.156557
H72	H	1.166973	0.012545	0.563289
