data_functionalizedCrystal
_audit_creation_method	'MofGen! by Chris Wilmer'
_symmetry_space_group_name_H-M	'P1'
_symmetry_Int_Tables_number	1
_symmetry_cell_setting	triclinic
loop_
_symmetry_equiv_pos_as_xyz
  x,y,z
_cell_length_a	16.109301
_cell_length_b	9.130307
_cell_length_c	16.109301
_cell_angle_alpha	90.004715
_cell_angle_beta	83.461481
_cell_angle_gamma	89.998800
loop_
_atom_site_label
_atom_site_type_symbol
_atom_site_fract_x
_atom_site_fract_y
_atom_site_fract_z
O1	O	1.103128	0.121711	0.106866
O2	O	0.861066	0.121735	0.120165
O3	O	0.988747	0.121708	-0.007516
O4	O	0.975448	0.121739	0.234546
O5	O	0.988743	-0.121891	-0.007517
O6	O	0.861062	-0.121864	0.120164
O7	O	1.103124	-0.121888	0.106865
Cu8	Cu	0.982093	-0.144118	0.113514
Cu9	Cu	0.982098	0.143966	0.113516
O10	O	0.975444	-0.121860	0.234545
C11	C	0.830090	-0.000061	0.119626
C12	C	0.737794	-0.000053	0.118011
N13	N	0.982096	-0.346741	0.113513
C14	C	0.515522	-0.000060	0.190018
C15	C	0.428801	-0.000070	0.188494
C16	C	0.448676	-0.000083	0.037006
C17	C	0.535394	-0.000084	0.038530
C18	C	0.568815	-0.000065	0.115039
C19	C	0.395376	-0.000074	0.111990
C20	C	0.301350	-0.000084	0.110337
C21	C	0.662847	-0.000058	0.116693
C22	C	1.095203	-0.346755	0.000484
C23	C	1.151762	-0.423429	-0.056028
C24	C	1.151770	-0.576763	-0.056029
C25	C	1.095211	-0.653426	0.000487
C26	C	1.038652	-0.576752	0.056999
C27	C	1.038652	-0.423415	0.056995
C28	C	0.925543	-0.576737	0.170022
C29	C	0.925537	-0.423404	0.170028
C30	C	0.868984	-0.653400	0.226538
C31	C	0.812428	-0.576727	0.283056
C32	C	0.812423	-0.423384	0.283055
C33	C	0.868978	-0.346730	0.226540
C34	C	1.134101	-0.000088	0.107404
C35	C	1.226397	-0.000087	0.109019
C36	C	0.988206	-0.000092	-0.038491
C37	C	0.986591	-0.000094	-0.130786
N38	N	0.982102	0.346589	0.113510
C39	C	1.058599	-0.000078	-0.353059
C40	C	1.057075	-0.000066	-0.439779
C41	C	0.905586	-0.000057	-0.419905
C42	C	0.907111	-0.000058	-0.333186
C43	C	0.983620	-0.000077	-0.299766
C44	C	0.980571	-0.000063	-0.473205
C45	C	0.978918	-0.000050	-0.567231
C46	C	0.985273	-0.000087	-0.205734
C47	C	0.975984	-0.000057	0.265521
C48	C	0.977600	-0.000045	0.357816
H49	H	0.542730	-0.000056	0.252317
H50	H	0.868990	-0.778253	0.226532
F51	F	1.140026	-0.000096	-0.317493
H52	H	0.766362	-0.360964	0.329070
F53	F	1.136878	-0.000065	-0.496495
F54	F	1.095209	-0.183564	0.000488
H55	H	0.868982	-0.221878	0.226537
H56	H	0.843295	-0.000045	-0.447127
F57	F	0.827304	-0.000046	-0.276464
H58	H	0.385413	-0.000069	0.249550
F59	F	1.211951	-0.341832	-0.116177
F60	F	0.413100	-0.000097	-0.044416
H61	H	0.578788	-0.000092	-0.022530
H62	H	1.197822	-0.639191	-0.102049
H63	H	1.095215	-0.778278	0.000476
F64	F	0.752236	-0.658322	0.343193
