data_functionalizedCrystal
_audit_creation_method	'MofGen! by Chris Wilmer'
_symmetry_space_group_name_H-M	'P1'
_symmetry_Int_Tables_number	1
_symmetry_cell_setting	triclinic
loop_
_symmetry_equiv_pos_as_xyz
  x,y,z
_cell_length_a	17.699097
_cell_length_b	14.044190
_cell_length_c	16.176319
_cell_angle_alpha	89.988653
_cell_angle_beta	89.988988
_cell_angle_gamma	88.240103
loop_
_atom_site_label
_atom_site_type_symbol
_atom_site_fract_x
_atom_site_fract_y
_atom_site_fract_z
O1	O	1.012347	0.119911	-0.068825
O2	O	0.793045	0.135491	-0.068813
O3	O	0.899401	-0.010277	-0.068803
O4	O	0.905990	0.265678	-0.068835
O5	O	0.899384	-0.010286	0.068691
O6	O	0.793028	0.135481	0.068680
O7	O	1.012330	0.119902	0.068668
Cu8	Cu	0.902677	0.127691	0.081228
Cu9	Cu	0.902697	0.127702	-0.081373
O10	O	0.905973	0.265669	0.068658
C11	C	0.764801	0.134926	-0.000065
C12	C	0.680667	0.133244	-0.000059
C13	C	0.164247	0.122945	-0.075039
C14	C	0.243300	0.124518	-0.075035
C15	C	0.282811	0.125301	-0.000084
C16	C	0.243266	0.124501	0.074868
C17	C	0.164215	0.122921	0.074863
C18	C	0.562069	0.130871	0.074889
C19	C	0.641126	0.132454	0.074888
C20	C	0.641154	0.132468	-0.075009
C21	C	0.562103	0.130888	-0.075014
C22	C	0.522565	0.130083	-0.000063
C23	C	0.436847	0.128376	-0.000068
C24	C	0.368527	0.127015	-0.000078
C25	C	0.896510	-0.045589	-0.000053
C26	C	0.887912	-0.150796	-0.000046
C27	C	0.933172	-0.401184	-0.000081
C28	C	0.872205	-0.343418	-0.000072
C29	C	0.880947	-0.236234	-0.000057
C30	C	0.924432	-0.508379	-0.000095
C31	C	1.040574	0.120467	-0.000082
C32	C	1.124707	0.122148	-0.000093
C33	C	0.908864	0.300981	-0.000093
C34	C	0.917462	0.406188	-0.000106
N35	N	0.902669	0.127682	0.195594
N36	N	0.902711	0.127702	-0.195738
C37	C	0.949781	0.063163	0.238862
C38	C	0.949785	0.063162	0.325409
C39	C	0.902680	0.127686	0.368686
C40	C	0.855563	0.192208	0.325411
C41	C	0.855556	0.192204	0.238866
C42	C	0.855590	0.192226	0.674440
C43	C	0.855602	0.192227	0.760991
C44	C	0.949819	0.063184	0.760983
C45	C	0.949812	0.063180	0.674438
C46	C	0.902692	0.127698	0.631170
C47	C	0.902688	0.127697	0.537326
C48	C	0.902688	0.127692	0.462529
H49	H	0.673356	0.133119	-0.136038
Cl50	Cl	0.796340	0.273321	0.379814
H51	H	0.673294	0.133092	0.135925
Cl52	Cl	0.512436	0.129908	-0.169242
Cl53	Cl	0.796359	0.273336	0.620052
Cl54	Cl	0.114508	0.121911	0.169085
H55	H	0.991928	-0.370142	-0.000075
Cl56	Cl	0.796323	0.273315	0.184472
H57	H	0.988142	0.010624	0.203632
Cl58	Cl	0.114583	0.121967	-0.169269
H59	H	0.988146	0.010625	0.360639
Cl60	Cl	0.796379	0.273348	0.815395
H61	H	0.275490	0.125161	-0.136064
Cl62	Cl	0.512374	0.129886	0.169113
Cl63	Cl	0.781482	-0.391343	-0.000068
Cl64	Cl	0.292937	0.125484	0.169092
Cl65	Cl	1.009034	-0.017935	0.620036
H66	H	0.988184	0.010646	0.796221
