data_functionalizedCrystal
_audit_creation_method	'MofGen! by Chris Wilmer'
_symmetry_space_group_name_H-M	'P1'
_symmetry_Int_Tables_number	1
_symmetry_cell_setting	triclinic
loop_
_symmetry_equiv_pos_as_xyz
  x,y,z
_cell_length_a	15.944493
_cell_length_b	19.188930
_cell_length_c	15.021413
_cell_angle_alpha	89.998889
_cell_angle_beta	89.993251
_cell_angle_gamma	83.309913
loop_
_atom_site_label
_atom_site_type_symbol
_atom_site_fract_x
_atom_site_fract_y
_atom_site_fract_z
O1	O	1.114223	0.089846	-0.074030
O2	O	0.869625	0.100990	-0.074036
O3	O	0.998983	-0.006221	-0.074016
O4	O	0.984865	0.197057	-0.074051
O5	O	0.998962	-0.006205	0.074048
O6	O	0.869604	0.101005	0.074028
O7	O	1.114202	0.089861	0.074034
Zn8	Zn	0.991900	0.095436	0.097539
Zn9	Zn	0.991927	0.095416	-0.097542
O10	O	0.984845	0.197072	0.074013
C11	C	0.838322	0.100542	-0.000004
C12	C	0.745078	0.099177	-0.000006
C13	C	0.998515	-0.032225	0.000019
C14	C	0.997143	-0.109733	0.000027
C15	C	0.509082	0.162283	-0.000017
C16	C	0.458641	0.128260	0.072996
C17	C	0.574367	0.096646	-0.000004
C18	C	0.458666	0.128229	-0.072984
C19	C	0.409466	0.094207	-0.000005
C20	C	0.525154	0.062641	0.073070
C21	C	0.525182	0.062620	-0.072976
C22	C	0.474774	0.028548	0.000055
C23	C	0.669361	0.098053	-0.000002
C24	C	0.314474	0.092795	-0.000001
C25	C	1.073046	-0.154474	0.000033
C26	C	1.071756	-0.227301	0.000018
C27	C	0.994560	-0.255384	0.000016
C28	C	0.918647	-0.210633	0.000005
C29	C	0.919939	-0.137808	0.000010
N30	N	0.935545	-0.363526	0.050404
N31	N	0.934324	-0.432707	0.050400
C32	C	0.990664	-0.474802	-0.000002
N33	N	1.048285	-0.445102	-0.050390
N34	N	1.049509	-0.375915	-0.050383
C35	C	0.993151	-0.334349	0.000009
C36	C	1.065174	-0.598510	-0.000013
C37	C	1.063882	-0.671338	-0.000033
C38	C	0.910770	-0.654669	-0.000037
C39	C	0.912065	-0.581842	-0.000026
C40	C	0.989269	-0.553768	-0.000010
C41	C	1.145506	0.090309	0.000000
C42	C	1.238749	0.091675	-0.000004
C43	C	0.985312	0.223076	-0.000023
C44	C	0.986685	0.300584	-0.000037
N45	N	0.991888	0.095449	0.230677
N46	N	0.991946	0.095397	-0.230679
C47	C	0.932064	0.145000	0.470351
C48	C	1.007916	0.158542	0.529684
C49	C	0.991909	0.095432	0.412284
C50	C	0.916078	0.081906	0.529692
C51	C	0.991923	0.095416	0.587708
C52	C	1.067799	0.109005	0.470311
C53	C	0.975912	0.032341	0.470314
C54	C	1.051819	0.045856	0.529620
C55	C	0.991900	0.095442	0.311226
C56	C	0.991941	0.095405	0.688763
H57	H	0.524494	0.218823	0.000041
H58	H	1.021459	0.211889	0.555762
Br59	Br	1.174722	0.128164	0.427026
H60	H	1.102489	0.003928	0.555480
Br61	Br	0.816919	-0.077083	-0.000000
H62	H	0.962345	-0.020989	0.444215
Br63	Br	0.573354	0.016478	0.176056
H64	H	0.855793	-0.233502	0.000001
H65	H	1.128039	-0.575651	-0.000004
H66	H	0.847916	-0.677533	-0.000044
H67	H	0.851943	0.070472	0.555778
Br68	Br	1.174774	-0.288032	0.000023
H69	H	0.850257	-0.545413	-0.000026
H70	H	1.125694	-0.707766	-0.000033
H71	H	0.429591	0.155986	0.134712
H72	H	0.459520	-0.028034	0.000107
Br73	Br	0.573630	0.016449	-0.175846
H74	H	0.429632	0.155956	-0.134702
H75	H	0.881505	0.186952	0.444327
Br76	Br	1.177822	-0.116376	0.000030
