data_functionalizedCrystal
_audit_creation_method	'MofGen! by Chris Wilmer'
_symmetry_space_group_name_H-M	'P1'
_symmetry_Int_Tables_number	1
_symmetry_cell_setting	triclinic
loop_
_symmetry_equiv_pos_as_xyz
  x,y,z
_cell_length_a	10.723024
_cell_length_b	14.519731
_cell_length_c	9.198806
_cell_angle_alpha	89.995832
_cell_angle_beta	89.996352
_cell_angle_gamma	84.078361
loop_
_atom_site_label
_atom_site_type_symbol
_atom_site_fract_x
_atom_site_fract_y
_atom_site_fract_z
O1	O	1.655992	0.129346	-0.120887
O2	O	1.292725	0.141727	-0.120892
O3	O	1.483976	0.001349	-0.120876
O4	O	1.464740	0.269725	-0.120903
O5	O	1.483961	0.001348	0.120909
O6	O	1.292710	0.141727	0.120893
O7	O	1.655976	0.129346	0.120898
Cu8	Cu	1.474342	0.135536	0.142973
Cu9	Cu	1.474360	0.135537	-0.142966
O10	O	1.464725	0.269724	0.120882
C11	C	1.246226	0.140826	0.000000
C12	C	1.107697	0.138130	-0.000002
C13	C	0.916714	0.054394	0.000004
C14	C	1.059891	0.057179	0.000006
C15	C	1.483067	-0.033016	0.000017
C16	C	1.480366	-0.135410	0.000018
C17	C	1.478172	-0.218565	0.000014
C18	C	1.475429	-0.322888	0.000003
C19	C	1.473253	-0.406038	-0.000006
C20	C	1.470511	-0.510367	-0.000015
C21	C	1.702475	0.130247	0.000003
C22	C	1.841005	0.132943	-0.000005
C23	C	1.465634	0.304089	-0.000014
C24	C	1.468335	0.406483	-0.000024
N25	N	1.474338	0.135535	0.344087
N26	N	1.474373	0.135530	-0.344080
C27	C	1.554641	0.076335	0.416290
C28	C	1.554661	0.076331	0.583703
H29	H	0.882186	0.202252	-0.000003
H30	H	1.124946	-0.010065	0.000004
H31	H	1.405597	0.186214	0.406209
Cl32	Cl	0.853145	-0.052620	0.000024
Cl33	Cl	1.368224	0.213794	0.560070
Cl34	Cl	1.660488	-0.002126	0.320389
H35	H	1.623416	0.025650	0.645795
Cl36	Cl	1.007271	0.241959	-0.000024
