data_functionalizedCrystal
_audit_creation_method	'MofGen! by Chris Wilmer'
_symmetry_space_group_name_H-M	'P1'
_symmetry_Int_Tables_number	1
_symmetry_cell_setting	triclinic
loop_
_symmetry_equiv_pos_as_xyz
  x,y,z
_cell_length_a	14.908571
_cell_length_b	25.639240
_cell_length_c	14.908308
_cell_angle_alpha	93.255449
_cell_angle_beta	90.175053
_cell_angle_gamma	86.728305
loop_
_atom_site_label
_atom_site_type_symbol
_atom_site_fract_x
_atom_site_fract_y
_atom_site_fract_z
Zn1	Zn	1.345200	-0.272845	-0.587486
Zn2	Zn	1.353751	-0.355542	-0.437097
Zn3	Zn	1.203518	-0.262803	-0.428487
Zn4	Zn	1.194779	-0.354921	-0.578749
O5	O	1.274312	-0.311527	-0.507955
O6	O	1.472158	-0.288277	-0.574796
O7	O	1.341059	-0.339297	-0.310132
O8	O	1.222392	-0.190974	-0.449632
O9	O	1.478441	-0.349035	-0.464306
O10	O	1.326484	-0.198352	-0.566448
O11	O	1.230683	-0.271162	-0.303806
O12	O	1.076535	-0.270560	-0.441160
O13	O	1.207496	-0.347976	-0.705731
O14	O	1.070114	-0.338238	-0.551557
O15	O	1.318010	-0.287675	-0.712150
O16	O	1.332584	-0.428620	-0.455834
O17	O	1.215788	-0.428164	-0.559905
C18	C	1.040699	-0.303242	-0.494477
C19	C	0.940758	-0.299711	-0.488732
C20	C	1.274189	-0.447363	-0.507877
C21	C	1.274217	-0.505478	-0.507879
C22	C	0.746328	-0.363648	-0.592738
C23	C	0.652423	-0.360332	-0.587344
C24	C	0.659043	-0.289760	-0.472553
C25	C	0.752947	-0.293077	-0.477948
C26	C	0.796586	-0.330022	-0.538041
C27	C	0.890492	-0.333341	-0.543431
C28	C	0.897110	-0.262767	-0.428646
C29	C	0.803205	-0.259451	-0.423251
C30	C	1.328536	-0.869655	-0.568886
C31	C	1.328561	-0.924260	-0.568906
O32	O	1.374598	-0.955732	-0.620696
N33	N	1.274432	-0.947774	-0.508049
C34	C	1.220267	-0.916678	-0.447174
O35	O	1.174227	-0.941692	-0.395413
C36	C	1.220237	-0.862073	-0.447159
C37	C	1.274377	-0.838563	-0.508014
C38	C	1.382670	-0.846144	-0.629737
C39	C	1.382646	-0.791542	-0.629716
C40	C	1.328487	-0.760450	-0.568844
C41	C	1.274352	-0.783961	-0.507993
C42	C	1.166068	-0.830978	-0.386290
C43	C	1.166042	-0.776370	-0.386281
C44	C	1.220182	-0.752860	-0.447135
C45	C	1.220169	-0.698267	-0.447100
N46	N	1.274298	-0.674754	-0.507957
C47	C	1.328457	-0.705846	-0.568829
C48	C	1.220332	-1.031352	-0.447211
C49	C	1.220366	-1.085956	-0.447221
C50	C	1.328659	-1.093534	-0.568954
C51	C	1.328629	-1.038930	-0.568939
C52	C	1.274461	-1.007839	-0.508068
C53	C	1.328402	-0.591177	-0.568779
C54	C	1.328376	-0.536570	-0.568750
C55	C	1.220079	-0.528996	-0.447021
C56	C	1.220109	-0.583598	-0.447046
C57	C	1.274273	-0.614688	-0.507933
O58	O	1.174153	-0.666763	-0.395339
O59	O	1.374480	-0.680825	-0.620589
C60	C	1.508837	-0.319845	-0.521486
C61	C	1.608777	-0.323390	-0.527252
C62	C	1.260824	-0.318876	-0.742477
C63	C	1.255077	-0.322008	-0.842417
C64	C	1.274459	-0.175163	-0.508054
C65	C	1.274521	-0.117052	-0.508096
C66	C	1.359351	-0.265089	-1.036900
C67	C	1.353954	-0.268030	-1.130802
C68	C	1.238880	-0.330827	-1.124126
C69	C	1.244277	-0.327886	-1.030223
C70	C	1.304516	-0.295017	-0.986614
C71	C	1.309918	-0.292079	-0.892710
C72	C	1.194840	-0.354873	-0.886035
C73	C	1.189442	-0.357814	-0.979937
C74	C	1.287799	-0.304171	-0.274347
C75	C	1.293721	-0.300898	-0.174419
H76	H	0.926022	-0.363425	-0.592361
H77	H	0.767661	-0.229369	-0.374327
H78	H	0.611506	-0.387713	-0.631886
H79	H	1.189836	-0.357588	-1.159649
H80	H	1.140396	-0.384574	-1.015457
H81	H	0.623495	-0.259678	-0.423634
H82	H	1.150191	-0.379244	-0.845082
H83	H	0.938040	-0.235387	-0.384105
H84	H	0.781860	-0.393734	-0.641664
H85	H	1.372466	-0.517430	-0.618306
H86	H	1.121982	-0.850111	-0.336735
N87	N	1.383732	-0.622921	-0.630980
N88	N	1.432059	-0.601914	-0.685302
H89	H	1.471139	-0.624333	-0.729229
N90	N	1.371442	-0.258497	-0.848175
N91	N	1.364916	-0.210372	-0.858355
H92	H	1.408367	-0.186652	-0.826906
H93	H	1.176032	-0.602741	-0.397487
N94	N	1.420893	-0.231519	-0.992363
N95	N	1.469855	-0.204803	-1.037273
H96	H	1.513320	-0.181093	-1.005821
H97	H	1.426728	-0.772404	-0.679271
N98	N	1.437998	-0.877890	-0.691931
N99	N	1.486321	-0.856881	-0.746254
H100	H	1.525404	-0.879299	-0.790181
N101	N	1.110709	-0.744605	-0.324111
N102	N	1.051557	-0.713112	-0.352384
H103	H	1.012478	-0.690678	-0.308477
N104	N	1.409967	-0.237453	-1.182155
N105	N	1.463740	-0.208106	-1.143202
H106	H	1.503301	-0.186508	-1.179469
H107	H	1.175987	-0.503673	-0.397457
H108	H	1.372714	-1.019791	-0.618493
N109	N	1.383981	-1.125307	-0.631126
N110	N	1.383993	-1.174060	-0.631124
H111	H	1.423063	-1.196502	-0.675028
N112	N	1.165075	-1.109959	-0.385038
N113	N	1.116730	-1.082186	-0.330691
H114	H	1.077677	-1.099136	-0.286773
H115	H	1.176225	-1.006040	-0.397635
