data_functionalizedCrystal
_audit_creation_method	'MofGen! by Chris Wilmer'
_symmetry_space_group_name_H-M	'P1'
_symmetry_Int_Tables_number	1
_symmetry_cell_setting	triclinic
loop_
_symmetry_equiv_pos_as_xyz
  x,y,z
_cell_length_a	16.992694
_cell_length_b	15.021413
_cell_length_c	16.974813
_cell_angle_alpha	93.650548
_cell_angle_beta	92.975366
_cell_angle_gamma	89.997805
loop_
_atom_site_label
_atom_site_type_symbol
_atom_site_fract_x
_atom_site_fract_y
_atom_site_fract_z
O1	O	-1.040216	0.085996	0.167637
O2	O	-0.706883	0.419329	0.500971
O3	O	-0.373549	0.752662	0.834304
O4	O	-0.811933	0.085889	0.165798
O5	O	-0.478599	0.419223	0.499131
O6	O	-0.145266	0.752556	0.832465
O7	O	-0.932438	0.077674	0.052018
O8	O	-0.599104	0.411007	0.385351
O9	O	-0.265771	0.744341	0.718684
O10	O	-0.919711	0.094211	0.281418
O11	O	-0.586377	0.427544	0.614751
O12	O	-0.253044	0.760878	0.948085
O13	O	-0.932418	-0.070389	0.052034
O14	O	-0.599085	0.262944	0.385367
O15	O	-0.265752	0.596278	0.718700
O16	O	-0.811913	-0.062174	0.165814
O17	O	-0.478580	0.271160	0.499148
O18	O	-0.145247	0.604493	0.832481
O19	O	-1.040197	-0.062067	0.167654
O20	O	-0.706863	0.271266	0.500987
O21	O	-0.373530	0.604599	0.834320
Zn22	Zn	-0.926052	-0.085629	0.166736
Zn23	Zn	-0.592719	0.247705	0.500070
Zn24	Zn	-0.259385	0.581038	0.833403
Zn25	Zn	-0.926077	0.109451	0.166715
Zn26	Zn	-0.592744	0.442784	0.500049
Zn27	Zn	-0.259411	0.776117	0.833382
O28	O	-0.919692	-0.053852	0.281434
O29	O	-0.586358	0.279481	0.614767
O30	O	-0.253025	0.612815	0.948101
C31	C	-0.782713	0.011691	0.163440
C32	C	-0.449380	0.345024	0.496774
C33	C	-0.116046	0.678357	0.830107
C34	C	-0.695676	0.011192	0.156381
C35	C	-0.362343	0.344525	0.489714
C36	C	-0.029010	0.677859	0.823047
C37	C	-0.931944	0.001519	0.022537
C38	C	-0.598610	0.334852	0.355870
C39	C	-0.265277	0.668186	0.689204
C40	C	-0.930491	-0.004809	-0.065331
C41	C	-0.597158	0.328525	0.268002
C42	C	-0.263824	0.661858	0.601336
C43	C	-1.069416	0.012133	0.170012
C44	C	-0.736083	0.345467	0.503345
C45	C	-0.402750	0.678800	0.836678
C46	C	-1.156453	0.012638	0.177071
C47	C	-0.823120	0.345971	0.510404
C48	C	-0.489786	0.679304	0.843738
C49	C	-0.645363	0.016102	0.224496
C50	C	-0.312029	0.349435	0.557829
C51	C	0.021304	0.682768	0.891162
C52	C	-0.563583	0.015611	0.217858
C53	C	-0.230250	0.348944	0.551191
C54	C	0.103083	0.682278	0.884524
C55	C	-0.532119	0.010217	0.143104
C56	C	-0.198786	0.343550	0.476437
C57	C	0.134548	0.676884	0.809771
C58	C	-0.582439	0.005304	0.074984
C59	C	-0.249106	0.338638	0.408317
C60	C	0.084228	0.671971	0.741651
C61	C	-0.664217	0.005789	0.081623
C62	C	-0.330884	0.339122	0.414956
C63	C	0.002450	0.672455	0.748289
C64	C	-0.288551	0.008210	0.115590
C65	C	0.044783	0.341543	0.448923
C66	C	0.378116	0.674876	0.782256
C67	C	-0.206766	0.007728	0.108956
C68	C	0.126567	0.341062	0.442289
C69	C	0.459900	0.674395	0.775623
C70	C	-0.187916	0.018033	0.251831
C71	C	0.145417	0.351366	0.585164
C72	C	0.478750	0.684700	0.918497
C73	C	-0.269697	0.018522	0.258463
C74	C	0.063637	0.351856	0.591796
C75	C	0.396970	0.685189	0.925129
C76	C	-0.320010	0.013605	0.190342
C77	C	0.013324	0.346939	0.523676
C78	C	0.346657	0.680272	0.857009
N79	N	-0.448527	0.009718	0.136317
N80	N	-0.115194	0.343051	0.469651
N81	N	0.218139	0.676385	0.802984
N82	N	-0.403599	0.014098	0.197130
N83	N	-0.070266	0.347431	0.530463
N84	N	0.263067	0.680765	0.863797
N85	N	-0.926040	-0.218765	0.166751
N86	N	-0.592707	0.114568	0.500084
N87	N	-0.259374	0.447901	0.833418
C88	C	-0.870310	-0.454652	0.219336
C89	C	-0.536977	-0.121318	0.552669
C90	C	-0.203644	0.212015	0.886003
C91	C	-0.941141	-0.512566	0.239158
C92	C	-0.607807	-0.179232	0.572491
C93	C	-0.274474	0.154101	0.905825
C94	C	-0.926061	-0.400374	0.166732
C95	C	-0.592727	-0.067040	0.500066
C96	C	-0.259394	0.266293	0.833399
C97	C	-0.855250	-0.519200	0.146929
C98	C	-0.521916	-0.185867	0.480262
C99	C	-0.188583	0.147467	0.813596
C100	C	-0.926074	-0.575799	0.166716
C101	C	-0.592740	-0.242465	0.500049
C102	C	-0.259407	0.090868	0.833383
C103	C	-0.996926	-0.456978	0.186592
C104	C	-0.663593	-0.123645	0.519926
C105	C	-0.330260	0.209688	0.853259
C106	C	-0.910989	-0.463610	0.094329
C107	C	-0.577656	-0.130276	0.427663
C108	C	-0.244322	0.203057	0.760996
C109	C	-0.981870	-0.521499	0.114124
C110	C	-0.648537	-0.188166	0.447458
C111	C	-0.315204	0.145168	0.780791
C112	C	-0.926052	-0.299315	0.166744
C113	C	-0.592719	0.034018	0.500077
C114	C	-0.259385	0.367351	0.833410
C115	C	-0.926090	-0.676855	0.166704
C116	C	-0.592757	-0.343522	0.500038
C117	C	-0.259424	-0.010188	0.833371
N118	N	-0.926095	0.242587	0.166695
N119	N	-0.592762	0.575920	0.500028
N120	N	-0.259428	0.909254	0.833362
C121	C	-0.929821	0.072927	-0.106616
C122	C	-0.596488	0.406260	0.226718
C123	C	-0.263154	0.739594	0.560051
C124	C	-0.928451	0.066979	-0.189176
C125	C	-0.595118	0.400312	0.144157
C126	C	-0.261784	0.733645	0.477490
C127	C	-0.927757	-0.016706	-0.230451
C128	C	-0.594424	0.316627	0.102882
C129	C	-0.261090	0.649960	0.436215
C130	C	-0.928425	-0.094448	-0.189161
C131	C	-0.595091	0.238885	0.144173
C132	C	-0.261758	0.572219	0.477506
C133	C	-0.929789	-0.088499	-0.106601
C134	C	-0.596456	0.244835	0.226732
C135	C	-0.263122	0.578168	0.560066
C136	C	-0.923670	-0.043154	-0.477367
C137	C	-0.590337	0.290180	-0.144034
C138	C	-0.257004	0.623513	0.189299
C139	C	-0.922308	-0.049097	-0.559933
C140	C	-0.588975	0.284236	-0.226599
C141	C	-0.255642	0.617569	0.106734
C142	C	-0.922333	0.112330	-0.559943
C143	C	-0.589000	0.445664	-0.226609
C144	C	-0.255666	0.778997	0.106724
C145	C	-0.923702	0.118272	-0.477382
C146	C	-0.590369	0.451605	-0.144048
C147	C	-0.257035	0.784939	0.189285
C148	C	-0.924366	0.040530	-0.436098
C149	C	-0.591032	0.373864	-0.102765
C150	C	-0.257699	0.707197	0.230569
N151	N	-0.926359	-0.022789	-0.314842
N152	N	-0.593026	0.310545	0.018492
N153	N	-0.259692	0.643878	0.351825
N154	N	-0.925758	0.046614	-0.351709
N155	N	-0.592425	0.379947	-0.018375
N156	N	-0.259091	0.713280	0.314958
C157	C	-0.920186	0.022305	0.310915
C158	C	-0.586852	0.355638	0.644248
C159	C	-0.253519	0.688972	0.977582
C160	C	-0.921638	0.028639	0.398783
C161	C	-0.588305	0.361972	0.732116
C162	C	-0.254971	0.695305	1.065449
H163	H	-0.670974	0.020495	0.285368
H164	H	-0.337641	0.353828	0.618701
H165	H	-0.004307	0.687161	0.952035
H166	H	-1.029073	-0.550564	0.069632
H167	H	-0.695740	-0.217230	0.402966
H168	H	-0.362407	0.116103	0.736299
H169	H	-0.556814	0.000900	0.014118
H170	H	-0.223481	0.334233	0.347451
H171	H	0.109852	0.667566	0.680785
H172	H	-0.898207	-0.441912	0.033124
H173	H	-0.564874	-0.108579	0.366458
H174	H	-0.231540	0.224754	0.699791
H175	H	-0.921791	0.175623	-0.593565
H176	H	-0.588458	0.508956	-0.260231
H177	H	-0.255125	0.842289	0.073102
H178	H	-0.181152	0.003336	0.048080
H179	H	0.152181	0.336670	0.381413
H180	H	0.485515	0.670003	0.714746
H181	H	-0.146943	0.022035	0.307290
H182	H	0.186390	0.355368	0.640623
H183	H	0.519723	0.688701	0.973956
H184	H	-0.930390	0.141072	-0.073016
H185	H	-0.597057	0.474406	0.260318
H186	H	-0.263724	0.807739	0.593651
H187	H	-0.921739	-0.117247	-0.593536
H188	H	-0.588406	0.216086	-0.260203
H189	H	-0.255072	0.549420	0.073130
H190	H	-0.924226	-0.106457	-0.443765
H191	H	-0.590893	0.226877	-0.110432
H192	H	-0.257560	0.560210	0.222902
H193	H	-0.927909	0.130279	-0.222787
H194	H	-0.594575	0.463613	0.110547
H195	H	-0.261242	0.796946	0.443880
H196	H	-0.924268	0.186417	-0.443781
H197	H	-0.590935	0.519751	-0.110448
H198	H	-0.257602	0.853084	0.222885
H199	H	-0.927855	-0.162586	-0.222773
H200	H	-0.594522	0.170747	0.110560
H201	H	-0.261188	0.504080	0.443894
H202	H	-0.930324	-0.151800	-0.072987
H203	H	-0.596990	0.181534	0.260346
H204	H	-0.263657	0.514867	0.593679
H205	H	-0.795361	-0.546485	0.130188
H206	H	-0.462027	-0.213151	0.463521
H207	H	-0.128694	0.120182	0.796854
H208	H	-1.056828	-0.429800	0.203407
H209	H	-0.723495	-0.096467	0.536741
H210	H	-0.390162	0.236867	0.870074
H211	H	-0.295308	0.022925	0.319335
H212	H	0.038025	0.356258	0.652668
H213	H	0.371358	0.689592	0.986001
H214	H	-0.522621	0.019610	0.273324
H215	H	-0.189287	0.352943	0.606658
H216	H	0.144046	0.686276	0.939991
H217	H	-0.329506	0.004205	0.060121
H218	H	0.003827	0.337538	0.393454
H219	H	0.337161	0.670872	0.726788
H220	H	-0.705182	0.001791	0.026156
H221	H	-0.371849	0.335125	0.359489
H222	H	-0.038515	0.668458	0.692823
H223	H	-0.823212	-0.425421	0.263863
H224	H	-0.489879	-0.092088	0.597196
H225	H	-0.156545	0.241245	0.930529
H226	H	-0.953900	-0.534241	0.300381
H227	H	-0.620567	-0.200908	0.633714
H228	H	-0.287233	0.132425	0.967048
