data_functionalizedCrystal
_audit_creation_method	'MofGen! by Chris Wilmer'
_symmetry_space_group_name_H-M	'P1'
_symmetry_Int_Tables_number	1
_symmetry_cell_setting	triclinic
loop_
_symmetry_equiv_pos_as_xyz
  x,y,z
_cell_length_a	14.853568
_cell_length_b	15.944551
_cell_length_c	13.330367
_cell_angle_alpha	89.994404
_cell_angle_beta	90.004747
_cell_angle_gamma	96.433037
loop_
_atom_site_label
_atom_site_type_symbol
_atom_site_fract_x
_atom_site_fract_y
_atom_site_fract_z
O1	O	-1.196228	0.109667	-0.083360
O2	O	-0.933751	0.122730	-0.083377
O3	O	-1.072157	-0.006068	-0.083359
O4	O	-1.057822	0.238465	-0.083378
O5	O	-1.072137	-0.006071	0.083488
O6	O	-0.933731	0.122727	0.083470
O7	O	-1.196208	0.109664	0.083487
Cu8	Cu	-1.064968	0.116195	0.098713
Cu9	Cu	-1.064991	0.116199	-0.098603
O10	O	-1.057802	0.238463	0.083469
C11	C	-0.900154	0.122137	0.000045
C12	C	-0.800072	0.120363	0.000038
C13	C	-0.387646	0.036354	0.000069
C14	C	-0.366169	0.189370	0.000056
C15	C	-0.460200	0.191038	0.000052
C16	C	-0.517959	0.115363	0.000055
C17	C	-0.481687	0.038020	0.000062
C18	C	-0.496480	0.268380	0.000035
C19	C	-0.590517	0.270051	0.000031
C20	C	-0.648278	0.194375	0.000041
C21	C	-0.612000	0.117029	0.000049
C22	C	-0.669759	0.041354	0.000052
C23	C	-0.633483	-0.035993	0.000067
C24	C	-0.539448	-0.037656	0.000072
C25	C	-0.742313	0.196038	0.000035
C26	C	-0.763800	0.043020	0.000045
C27	C	-1.071552	-0.037364	0.000065
C28	C	-1.069768	-0.130612	0.000065
C29	C	-0.979713	-0.345570	0.000045
C30	C	-1.021522	-0.406542	0.082314
C31	C	-1.066540	-0.301342	0.000057
C32	C	-1.021562	-0.406522	-0.082184
C33	C	-1.063416	-0.466258	0.000045
C34	C	-1.108373	-0.361086	0.082393
C35	C	-1.108401	-0.361060	-0.082179
C36	C	-1.150273	-0.422014	0.000110
C37	C	-1.068337	-0.206337	0.000065
C38	C	-1.061626	-0.561261	0.000044
C39	C	-0.229806	0.110257	0.000064
C40	C	-0.329887	0.112029	0.000066
C41	C	-1.058407	0.269759	0.000043
C42	C	-1.060191	0.363007	0.000036
N43	N	-1.064958	0.116193	0.237494
N44	N	-1.065009	0.116195	-0.237385
C45	C	-1.003703	0.173208	0.710109
C46	C	-1.126304	0.059183	0.710093
C47	C	-1.126294	0.059180	0.605075
C48	C	-1.064988	0.116193	0.552569
C49	C	-1.003692	0.173209	0.605081
C50	C	-1.187595	0.002171	0.552555
C51	C	-1.187588	0.002167	0.447530
C52	C	-1.126277	0.059177	0.395022
C53	C	-1.064978	0.116194	0.447541
C54	C	-1.003672	0.173207	0.395035
C55	C	-0.942368	0.230222	0.447552
C56	C	-0.942381	0.230219	0.552574
C57	C	-1.126264	0.059179	0.290000
C58	C	-1.003662	0.173208	0.290007
H59	H	-0.509903	-0.100628	0.000108
H60	H	-0.680523	-0.097607	0.000063
H61	H	-0.319136	0.250981	0.000045
H62	H	-0.892471	0.276639	0.595339
H63	H	-0.953787	0.219626	0.752871
H64	H	-0.620044	0.333032	0.000018
O65	O	-1.185808	0.003685	0.760988
C66	C	-1.171123	-0.079488	0.735362
H67	H	-1.136375	-0.079443	0.659112
H68	H	-1.238879	-0.120749	0.731772
H69	H	-1.126243	-0.105530	0.794479
O70	O	-0.977741	-0.430674	-0.165084
C71	C	-0.977404	-0.519064	-0.164421
H72	H	-0.986337	-0.543442	-0.084237
H73	H	-0.910225	-0.535830	-0.195585
H74	H	-1.035376	-0.549396	-0.212903
H75	H	-0.771845	0.259012	0.000025
H76	H	-0.358106	-0.026620	0.000085
O77	O	-0.893721	-0.305961	0.000309
C78	C	-0.848260	-0.329012	0.087195
H79	H	-0.900006	-0.350946	0.147521
H80	H	-0.801883	-0.272279	0.115901
H81	H	-0.806130	-0.382448	0.068423
O82	O	-1.152308	-0.337101	-0.165119
C83	C	-1.241711	-0.377570	-0.165816
H84	H	-1.245381	-0.437334	-0.118353
H85	H	-1.262586	-0.394827	-0.246153
H86	H	-1.289461	-0.333275	-0.133507
H87	H	-0.449447	0.329990	0.000023
H88	H	-1.237504	-0.044257	0.404777
O89	O	-0.882784	0.285685	0.396699
C90	C	-0.828660	0.335992	0.465562
H91	H	-0.865617	0.337007	0.540425
H92	H	-0.814907	0.403049	0.435209
H93	H	-0.761692	0.308602	0.476738
H94	H	-0.984789	-0.426692	0.151861
O95	O	-1.247094	-0.053328	0.603455
C96	C	-1.232411	-0.136500	0.577820
H97	H	-1.197674	-0.136453	0.501563
H98	H	-1.300168	-0.177762	0.574240
H99	H	-1.187522	-0.162543	0.636927
H100	H	-0.953735	0.219633	0.247263
O101	O	-1.185718	0.003697	0.239019
C102	C	-1.171102	-0.079487	0.264700
H103	H	-1.098934	-0.080039	0.293596
H104	H	-1.181464	-0.121614	0.195627
H105	H	-1.221087	-0.104074	0.325642
H106	H	-0.810822	-0.018605	0.000052
O107	O	-1.152223	-0.337107	0.165358
C108	C	-1.227930	-0.296986	0.136009
H109	H	-1.217095	-0.271240	0.056618
H110	H	-1.236618	-0.242819	0.189683
H111	H	-1.291294	-0.344452	0.137994
O112	O	-1.236339	-0.461446	0.000344
C113	C	-1.281763	-0.438266	0.087182
H114	H	-1.229998	-0.416420	0.147527
H115	H	-1.328278	-0.494905	0.115897
H116	H	-1.323743	-0.384732	0.068342
