data_functionalizedCrystal
_audit_creation_method	'MofGen! by Chris Wilmer'
_symmetry_space_group_name_H-M	'P1'
_symmetry_Int_Tables_number	1
_symmetry_cell_setting	triclinic
loop_
_symmetry_equiv_pos_as_xyz
  x,y,z
_cell_length_a	13.897449
_cell_length_b	17.077402
_cell_length_c	17.077384
_cell_angle_alpha	90.089817
_cell_angle_beta	89.944994
_cell_angle_gamma	89.975837
loop_
_atom_site_label
_atom_site_type_symbol
_atom_site_fract_x
_atom_site_fract_y
_atom_site_fract_z
Zn1	Zn	1.474994	0.312016	-0.443814
Zn2	Zn	1.474777	0.443429	-0.312545
Zn3	Zn	1.313587	0.312184	-0.312564
Zn4	Zn	1.313650	0.443247	-0.443771
O5	O	1.394252	0.377719	-0.378174
O6	O	1.609947	0.329454	-0.426411
O7	O	1.453277	0.426165	-0.202700
O8	O	1.335062	0.202315	-0.330001
O9	O	1.609788	0.426002	-0.329968
O10	O	1.453647	0.202191	-0.426430
O11	O	1.334852	0.329740	-0.202715
O12	O	1.178614	0.329564	-0.329959
O13	O	1.335171	0.425693	-0.553624
O14	O	1.178660	0.425855	-0.426357
O15	O	1.453709	0.329278	-0.553656
O16	O	1.453339	0.553252	-0.329926
O17	O	1.334960	0.553118	-0.426338
C18	C	1.143638	0.377708	-0.378156
C19	C	1.036424	0.377723	-0.378167
C20	C	1.394159	0.581667	-0.378143
C21	C	1.394207	0.668917	-0.378155
C22	C	1.394471	0.377446	-0.582919
C23	C	1.394565	0.377330	-0.670169
C24	C	0.840129	0.377726	-0.378187
C25	C	0.949361	0.377722	-0.378174
C26	C	1.645845	0.377730	-0.378192
C27	C	1.753059	0.377735	-0.378200
C28	C	1.394372	0.172975	-0.378222
C29	C	1.394423	0.085725	-0.378243
C30	C	1.455910	0.709950	-0.328008
C31	C	1.455958	0.791931	-0.328028
C32	C	1.394296	0.832876	-0.378192
C33	C	1.332591	0.791837	-0.428345
C34	C	1.332549	0.709858	-0.428328
C35	C	1.332680	0.962707	-0.428375
C36	C	1.332720	1.044691	-0.428391
C37	C	1.456089	1.044779	-0.328074
C38	C	1.456047	0.962800	-0.328058
C39	C	1.394340	0.921767	-0.378210
C40	C	1.394089	0.377934	-0.174226
C41	C	1.394183	0.377829	-0.086976
C42	C	1.332421	0.327544	0.288793
C43	C	1.332342	0.327644	0.206813
C44	C	1.394410	0.377528	0.165872
C45	C	1.456556	0.427321	0.206916
C46	C	1.456631	0.427223	0.288895
C47	C	1.456399	0.427519	0.036047
C48	C	1.456326	0.427615	-0.045938
C49	C	1.332110	0.327940	-0.046035
C50	C	1.332184	0.327842	0.035943
C51	C	1.394332	0.377634	0.076982
H52	H	1.506118	0.676618	-0.287155
Br53	Br	1.248188	0.259834	0.344348
H54	H	1.506868	0.468235	-0.079270
Br55	Br	1.247956	0.260134	0.091506
Br56	Br	1.539707	0.847616	-0.259972
Br57	Br	1.247949	0.260117	0.151121
Br58	Br	1.540736	0.495099	0.091741
H59	H	1.507089	0.467941	0.173576
H60	H	1.282305	0.676449	-0.469165
H61	H	1.281508	0.287397	-0.079453
H62	H	1.506251	0.929463	-0.287206
Br63	Br	1.539821	1.100466	-0.260000
Br64	Br	1.540964	0.494800	0.344591
H65	H	1.282528	1.078027	-0.469253
H66	H	1.282435	0.929300	-0.469217
H67	H	1.282389	0.825181	-0.469193
