data_functionalizedCrystal
_audit_creation_method	'MofGen! by Chris Wilmer'
_symmetry_space_group_name_H-M	'P1'
_symmetry_Int_Tables_number	1
_symmetry_cell_setting	triclinic
loop_
_symmetry_equiv_pos_as_xyz
  x,y,z
_cell_length_a	18.215407
_cell_length_b	21.295416
_cell_length_c	18.215399
_cell_angle_alpha	89.970321
_cell_angle_beta	90.019833
_cell_angle_gamma	89.969221
loop_
_atom_site_label
_atom_site_type_symbol
_atom_site_fract_x
_atom_site_fract_y
_atom_site_fract_z
Zn1	Zn	1.125044	0.250608	0.416107
Zn2	Zn	1.458377	0.583941	0.749440
Zn3	Zn	1.791711	0.917275	1.082774
Zn4	Zn	1.124941	0.355879	0.293037
Zn5	Zn	1.458274	0.689213	0.626370
Zn6	Zn	1.791607	1.022546	0.959704
Zn7	Zn	1.001977	0.250629	0.293054
Zn8	Zn	1.335310	0.583962	0.626388
Zn9	Zn	1.668643	0.917295	0.959721
Zn10	Zn	1.001931	0.355844	0.416062
Zn11	Zn	1.335264	0.689178	0.749395
Zn12	Zn	1.668598	1.022511	1.082729
O13	O	1.063473	0.303240	0.354565
O14	O	1.396806	0.636573	0.687898
O15	O	1.730140	0.969907	1.021232
O16	O	1.228015	0.264579	0.399793
O17	O	1.561348	0.597912	0.733126
O18	O	1.894681	0.931245	1.066460
O19	O	1.108605	0.341941	0.190055
O20	O	1.441939	0.675274	0.523388
O21	O	1.775272	1.008608	0.856722
O22	O	1.018364	0.162537	0.309404
O23	O	1.351698	0.495870	0.642737
O24	O	1.685031	0.829203	0.976070
O25	O	1.227939	0.341921	0.309374
O26	O	1.561272	0.675254	0.642707
O27	O	1.894605	1.008588	0.976041
O28	O	1.108781	0.162521	0.399810
O29	O	1.442115	0.495855	0.733143
O30	O	1.775448	0.829188	1.066477
O31	O	1.018264	0.264614	0.190068
O32	O	1.351597	0.597947	0.523401
O33	O	1.684931	0.931280	0.856734
O34	O	0.898986	0.264580	0.309360
O35	O	1.232320	0.597913	0.642693
O36	O	1.565653	0.931246	0.976027
O37	O	1.018286	0.341861	0.519052
O38	O	1.351619	0.675195	0.852386
O39	O	1.684953	1.008528	1.185719
O40	O	0.898953	0.341881	0.399733
O41	O	1.232286	0.675214	0.733066
O42	O	1.565619	1.008548	1.066400
O43	O	1.108737	0.264545	0.519085
O44	O	1.442070	0.597878	0.852419
O45	O	1.775404	0.931211	1.185752
O46	O	1.108561	0.443964	0.309330
O47	O	1.441894	0.777297	0.642664
O48	O	1.775228	1.110631	0.975997
O49	O	1.018186	0.443938	0.399716
O50	O	1.351519	0.777272	0.733050
O51	O	1.684853	1.110605	1.066383
C52	C	0.872267	0.303229	0.354544
C53	C	1.205600	0.636563	0.687877
C54	C	1.538934	0.969896	1.021211
C55	C	0.790468	0.303240	0.354552
C56	C	1.123801	0.636573	0.687886
C57	C	1.457135	0.969907	1.021219
C58	C	1.063377	0.466792	0.354533
C59	C	1.396711	0.800125	0.687866
C60	C	1.730044	1.133458	1.021199
C61	C	1.063404	0.536760	0.354543
C62	C	1.396737	0.870093	0.687877
C63	C	1.730070	1.203427	1.021210
C64	C	0.602276	0.343554	0.401551
C65	C	0.935609	0.676887	0.734884
C66	C	1.268942	1.010221	1.068217
C67	C	0.525417	0.343556	0.401560
C68	C	0.858750	0.676889	0.734893
C69	C	1.192084	1.010223	1.068226
C70	C	0.525422	0.262938	0.307596
C71	C	0.858756	0.596271	0.640929
C72	C	1.192089	0.929604	0.974262
C73	C	0.602280	0.262933	0.307591
C74	C	0.935613	0.596266	0.640924
C75	C	1.268946	0.929600	0.974257
C76	C	0.640704	0.303245	0.354567
C77	C	0.974038	0.636578	0.687900
C78	C	1.307371	0.969911	1.021234
C79	C	0.486988	0.303251	0.354581
C80	C	0.820322	0.636585	0.687915
C81	C	1.153655	0.969918	1.021248
C82	C	0.403655	0.303253	0.354591
C83	C	0.736988	0.636587	0.687924
C84	C	1.070321	0.969920	1.021257
C85	C	0.724043	0.303242	0.354559
C86	C	1.057377	0.636576	0.687892
C87	C	1.390710	0.969909	1.021225
C88	C	1.110504	0.569619	0.307529
C89	C	1.443837	0.902952	0.640863
C90	C	1.777170	1.236286	0.974196
C91	C	1.110538	0.635361	0.307549
C92	C	1.443872	0.968695	0.640882
C93	C	1.777205	1.302028	0.974216
C94	C	1.063460	0.668242	0.354575
C95	C	1.396793	1.001576	0.687909
C96	C	1.730127	1.334909	1.021242
C97	C	1.016356	0.635375	0.401598
C98	C	1.349690	0.968709	0.734932
C99	C	1.683023	1.302042	1.068265
C100	C	1.016328	0.569634	0.401582
C101	C	1.349662	0.902967	0.734916
C102	C	1.682995	1.236301	1.068249
N103	N	0.999082	0.771508	0.360184
N104	N	1.332415	1.104842	0.693517
N105	N	1.665748	1.438175	1.026850
N106	N	0.999110	0.833960	0.360195
N107	N	1.332444	1.167293	0.693528
N108	N	1.665777	1.500627	1.026861
C109	C	1.063543	0.866317	0.354627
C110	C	1.396876	1.199650	0.687961
C111	C	1.730210	1.532984	1.021294
N112	N	1.127947	0.833863	0.349035
N113	N	1.461280	1.167197	0.682368
N114	N	1.794614	1.500530	1.015701
N115	N	1.127917	0.771406	0.349020
N116	N	1.461251	1.104740	0.682353
N117	N	1.794584	1.438073	1.015687
C118	C	1.063485	0.739528	0.354598
C119	C	1.396819	1.072861	0.687932
C120	C	1.730152	1.406194	1.021265
C121	C	1.110685	0.970462	0.307632
C122	C	1.444018	1.303795	0.640966
C123	C	1.777351	1.637128	0.974299
C124	C	1.110721	1.036205	0.307658
C125	C	1.444054	1.369539	0.640991
C126	C	1.777387	1.702872	0.974324
C127	C	1.016532	1.036218	0.401703
C128	C	1.349866	1.369551	0.735036
C129	C	1.683199	1.702885	1.068370
C130	C	1.016503	0.970475	0.401682
C131	C	1.349836	1.303809	0.735015
C132	C	1.683169	1.637142	1.068349
C133	C	1.063578	0.937601	0.354643
C134	C	1.396911	1.270935	0.687976
C135	C	1.730245	1.604268	1.021309
C136	C	1.255426	0.303251	0.354587
C137	C	1.588759	0.636585	0.687920
C138	C	1.922093	0.969918	1.021253
C139	C	1.337225	0.303256	0.354596
C140	C	1.670558	0.636590	0.687929
C141	C	2.003892	0.969923	1.021263
C142	C	1.063518	0.303197	0.546518
C143	C	1.396851	0.636530	0.879851
C144	C	1.730185	0.969863	1.213185
C145	C	1.063537	0.303178	0.628317
C146	C	1.396870	0.636512	0.961650
C147	C	1.730204	0.969845	1.294984
C148	C	1.063590	1.139050	0.354626
C149	C	1.396924	1.472383	0.687960
C150	C	1.730257	1.805716	1.021293
C151	C	1.063643	1.069082	0.354685
C152	C	1.396976	1.402415	0.688018
C153	C	1.730309	1.735748	1.021352
C154	C	1.063471	0.303238	0.163359
C155	C	1.396804	0.636571	0.496692
C156	C	1.730137	0.969905	0.830026
C157	C	1.063594	0.303079	0.081560
C158	C	1.396928	0.636412	0.414894
C159	C	1.730261	0.969746	0.748227
C160	C	1.110652	0.262882	0.816529
C161	C	1.443985	0.596215	1.149863
C162	C	1.777318	0.929549	1.483196
C163	C	1.110660	0.262863	0.893388
C164	C	1.443994	0.596197	1.226722
C165	C	1.777327	0.929530	1.560055
C166	C	1.016474	0.343377	0.893343
C167	C	1.349808	0.676711	1.226676
C168	C	1.683141	1.010044	1.560009
C169	C	1.016463	0.343392	0.816485
C170	C	1.349796	0.676725	1.149818
C171	C	1.683129	1.010059	1.483152
C172	C	1.063555	0.303145	0.778081
C173	C	1.396889	0.636479	1.111414
C174	C	1.730222	0.969812	1.444747
C175	C	1.063576	0.303112	0.931797
C176	C	1.396909	0.636445	1.265130
C177	C	1.730243	0.969779	1.598463
C178	C	1.063585	0.303093	1.015130
C179	C	1.396919	0.636426	1.348464
C180	C	1.730252	0.969759	1.681797
C181	C	1.063545	0.303164	0.694742
C182	C	1.396879	0.636497	1.028075
C183	C	1.730212	0.969830	1.361408
H184	H	0.633559	0.376377	0.439804
H185	H	0.966892	0.709710	0.773137
H186	H	1.300225	1.043044	1.106470
F187	F	0.643181	0.220025	0.257586
F188	F	0.976514	0.553358	0.590919
F189	F	1.309848	0.886691	0.924252
F190	F	0.966361	0.386211	0.934222
F191	F	1.299694	0.719544	1.267555
F192	F	1.633027	1.052877	1.600888
H193	H	1.149080	1.062958	0.269374
H194	H	1.482413	1.396292	0.602708
H195	H	1.815747	1.729625	0.936041
H196	H	0.494132	0.376379	0.439820
H197	H	0.827465	0.709712	0.773153
H198	H	1.160798	1.043046	1.106486
H199	H	0.978106	0.376179	0.785179
H200	H	1.311439	0.709512	1.118513
H201	H	1.644772	1.042845	1.451846
F202	F	0.484522	0.220038	0.257602
F203	F	0.817855	0.553372	0.590935
F204	F	1.151188	0.886705	0.924269
F205	F	1.160785	0.935472	0.257570
F206	F	1.494118	1.268806	0.590903
F207	F	1.827452	1.602139	0.924236
H208	H	1.148896	0.662121	0.269265
H209	H	1.482229	0.995454	0.602598
H210	H	1.815562	1.328787	0.935931
H211	H	0.978203	1.062989	0.439996
H212	H	1.311536	1.396322	0.773329
H213	H	1.644870	1.729655	1.106663
H214	H	1.148837	0.542855	0.269229
H215	H	1.482170	0.876188	0.602562
H216	H	1.815504	1.209521	0.935896
H217	H	0.978026	0.662151	0.439889
H218	H	1.311359	0.995484	0.773222
H219	H	1.644693	1.328818	1.106555
H220	H	0.978146	0.943720	0.439962
H221	H	1.311480	1.277053	0.773295
H222	H	1.644813	1.610386	1.106629
F223	F	1.160792	0.220014	0.934305
F224	F	1.494125	0.553347	1.267638
F225	F	1.827459	0.886680	1.600972
H226	H	0.977973	0.542879	0.439868
H227	H	1.311306	0.876213	0.773201
H228	H	1.644640	1.209546	1.106534
F229	F	1.160770	0.220046	0.775659
F230	F	1.494103	0.553379	1.108992
F231	F	1.827437	0.886713	1.442326
