data_functionalizedCrystal
_audit_creation_method	'MofGen! by Chris Wilmer'
_symmetry_space_group_name_H-M	'P1'
_symmetry_Int_Tables_number	1
_symmetry_cell_setting	triclinic
loop_
_symmetry_equiv_pos_as_xyz
  x,y,z
_cell_length_a	10.968094
_cell_length_b	11.026607
_cell_length_c	9.482900
_cell_angle_alpha	101.401054
_cell_angle_beta	87.451690
_cell_angle_gamma	83.620343
loop_
_atom_site_label
_atom_site_type_symbol
_atom_site_fract_x
_atom_site_fract_y
_atom_site_fract_z
O1	O	-1.656908	0.216404	0.294170
O2	O	-1.308282	0.219100	0.206836
O3	O	-1.453701	0.039722	0.243267
O4	O	-1.511489	0.395782	0.257739
O5	O	-1.424196	0.076311	0.477668
O6	O	-1.278777	0.255690	0.441237
O7	O	-1.627404	0.252993	0.528571
Cu8	Cu	-1.450396	0.257682	0.506306
Cu9	Cu	-1.485289	0.214411	0.229100
O10	O	-1.481984	0.432371	0.492140
C11	C	-1.248204	0.234436	0.312682
C12	C	-1.113146	0.225603	0.278849
C13	C	-1.428288	0.012297	0.357794
C14	C	-1.396509	-0.123933	0.349825
C15	C	-1.687482	0.237657	0.422722
C16	C	-1.822542	0.246488	0.456546
C17	C	-0.898050	0.231477	0.350213
C18	C	-1.037639	0.240617	0.385196
N19	N	-1.425863	0.288116	0.701281
C20	C	-1.507398	0.459796	0.377610
C21	C	-1.539178	0.596025	0.385569
C22	C	-1.451428	0.665647	0.363586
C23	C	-1.484272	0.806447	0.371812
N24	N	-1.509830	0.183968	0.034128
C25	C	-1.478043	0.223381	0.786552
C26	C	-1.457642	0.248713	0.948858
H27	H	-1.076329	0.260230	0.502138
C28	C	-1.257897	0.318271	0.946023
C29	C	-1.376935	0.348851	1.012497
H30	H	-1.208073	0.380088	0.985320
H31	H	-1.261028	0.314396	0.845314
H32	H	-1.223853	0.239597	0.962375
H33	H	-1.410983	0.427522	0.996136
H34	H	-1.373808	0.352740	1.113229
C35	C	-1.508559	0.007288	0.746941
C36	C	-1.558751	0.123264	0.722871
H37	H	-1.558387	-0.054515	0.707610
H38	H	-1.505461	0.011151	0.847651
H39	H	-1.427793	-0.013435	0.701861
H40	H	-1.639514	0.143990	0.767960
H41	H	-1.561863	0.119402	0.622142
H42	H	-1.569605	0.109782	0.986979
H43	H	-0.861238	0.266100	0.573479
C44	C	-1.746372	0.600938	0.313167
C45	C	-1.673426	0.656264	0.419192
H46	H	-1.829251	0.638132	0.333922
H47	H	-1.741913	0.514233	0.312066
H48	H	-1.717432	0.612947	0.221610
H49	H	-1.702360	0.644246	0.510748
H50	H	-1.677892	0.742989	0.420308
C51	C	-1.226122	0.357670	0.698451
C52	C	-1.345160	0.388250	0.764926
H53	H	-1.176298	0.419487	0.737749
H54	H	-1.229253	0.353795	0.597743
H55	H	-1.192078	0.278995	0.714803
H56	H	-1.379208	0.466921	0.748564
H57	H	-1.342033	0.392139	0.865658
H58	H	-0.859353	0.211852	0.233279
C59	C	-1.092147	0.084347	0.048950
C60	C	-1.060926	0.199115	0.120978
H61	H	-1.059900	0.067994	-0.048507
H62	H	-1.179093	0.087026	0.051749
H63	H	-1.058603	0.020184	0.094750
H64	H	-1.094478	0.263280	0.075184
H65	H	-0.973963	0.196445	0.118171
C66	C	-1.310627	0.477588	0.328325
C67	C	-1.317179	0.605410	0.329961
H68	H	-1.227744	0.440407	0.307575
H69	H	-1.360119	0.440075	0.256408
H70	H	-1.339558	0.465598	0.419895
H71	H	-1.288257	0.617400	0.238388
H72	H	-1.267669	0.642934	0.401882
C73	C	-1.625078	0.994502	0.407087
C74	C	-1.618526	0.866680	0.405445
H75	H	-1.707958	1.031687	0.427859
H76	H	-1.596161	1.006496	0.315528
H77	H	-1.575570	1.032013	0.479007
H78	H	-1.668027	0.829167	0.333517
H79	H	-1.647459	0.854677	0.497016
H80	H	-1.297061	0.831441	0.324907
