data_functionalizedCrystal
_audit_creation_method	'MofGen! by Chris Wilmer'
_symmetry_space_group_name_H-M	'P1'
_symmetry_Int_Tables_number	1
_symmetry_cell_setting	triclinic
loop_
_symmetry_equiv_pos_as_xyz
  x,y,z
_cell_length_a	12.837943
_cell_length_b	16.109301
_cell_length_c	14.586319
_cell_angle_alpha	89.986216
_cell_angle_beta	89.993677
_cell_angle_gamma	89.145210
loop_
_atom_site_label
_atom_site_type_symbol
_atom_site_fract_x
_atom_site_fract_y
_atom_site_fract_z
O1	O	-1.375385	-0.216139	0.076230
O2	O	-0.875385	0.283861	0.576230
O3	O	-1.073583	-0.205463	0.076235
O4	O	-0.573583	0.294537	0.576235
O5	O	-1.232775	-0.090429	0.076223
O6	O	-0.732775	0.409571	0.576223
O7	O	-1.216193	-0.331174	0.076242
O8	O	-0.716193	0.168826	0.576242
O9	O	-1.232752	-0.090406	-0.076257
O10	O	-0.732752	0.409594	0.423743
O11	O	-1.073561	-0.205440	-0.076245
O12	O	-0.573561	0.294560	0.423755
O13	O	-1.375363	-0.216116	-0.076251
O14	O	-0.875363	0.283884	0.423749
Cu15	Cu	-1.224460	-0.210776	-0.090171
Cu16	Cu	-0.724460	0.289224	0.409829
Cu17	Cu	-1.224486	-0.210803	0.090156
Cu18	Cu	-0.724486	0.289197	0.590156
O19	O	-1.216171	-0.331150	-0.076239
O20	O	-0.716171	0.168850	0.423761
C21	C	-1.232092	-0.059389	-0.000018
C22	C	-0.732092	0.440611	0.499982
C23	C	-1.230078	0.033066	-0.000019
C24	C	-0.730078	0.533066	0.499981
C25	C	-1.034953	-0.201845	-0.000005
C26	C	-0.534953	0.298155	0.499995
C27	C	-0.919879	-0.191088	-0.000003
C28	C	-0.419879	0.308912	0.499997
C29	C	-1.413993	-0.219735	-0.000009
C30	C	-0.913993	0.280265	0.499991
C31	C	-1.529067	-0.230491	-0.000004
C32	C	-1.029067	0.269509	0.499996
C33	C	-0.678877	-0.320405	-0.000006
C34	C	-0.178877	0.179595	0.499994
C35	C	-0.570755	-0.310302	-0.000005
C36	C	-0.070755	0.189698	0.499995
C37	C	-0.595510	-0.160779	-0.000007
C38	C	-0.095510	0.339221	0.499993
C39	C	-0.703632	-0.170882	-0.000008
C40	C	-0.203632	0.329118	0.499992
C41	C	-0.745312	-0.250698	-0.000006
C42	C	-0.245312	0.249302	0.499994
C43	C	-0.853436	-0.260800	-0.000000
C44	C	-0.353436	0.239200	0.500000
C45	C	-0.878189	-0.111278	-0.000009
C46	C	-0.378189	0.388722	0.499991
C47	C	-0.770067	-0.101175	-0.000008
C48	C	-0.270067	0.398825	0.499992
C49	C	-1.216854	-0.362190	0.000004
C50	C	-0.716854	0.137810	0.500004
C51	C	-1.218868	-0.454645	0.000012
C52	C	-0.718868	0.045355	0.500012
N53	N	-1.224448	-0.210757	-0.217002
N54	N	-0.724448	0.289243	0.282998
C55	C	-1.319857	0.248206	-0.000006
C56	C	-0.819857	0.748206	0.499994
C57	C	-1.317957	0.335078	0.000002
C58	C	-0.817957	0.835078	0.500002
C59	C	-1.129081	0.330208	0.000001
C60	C	-0.629081	0.830208	0.500001
C61	C	-1.130983	0.243338	0.000000
C62	C	-0.630983	0.743338	0.500000
C63	C	-1.226374	0.202340	-0.000008
C64	C	-0.726374	0.702340	0.499992
C65	C	-1.222572	0.376081	0.000001
C66	C	-0.722572	0.876081	0.500001
C67	C	-1.220511	0.470271	0.000009
C68	C	-0.720511	0.970271	0.500009
C69	C	-1.228435	0.108144	-0.000014
C70	C	-0.728435	0.608144	0.499986
C71	C	-1.161632	-0.155362	-0.548034
C72	C	-0.661632	0.344638	-0.048034
C73	C	-1.161623	-0.155349	-0.452053
C74	C	-0.661623	0.344651	0.047947
C75	C	-1.287330	-0.266214	-0.451987
C76	C	-0.787330	0.233786	0.048013
C77	C	-1.287343	-0.266222	-0.547967
C78	C	-0.787343	0.233778	-0.047967
C79	C	-1.224488	-0.210796	-0.595988
C80	C	-0.724488	0.289204	-0.095988
C81	C	-1.224466	-0.210777	-0.404027
C82	C	-0.724466	0.289223	0.095973
C83	C	-1.224458	-0.210764	-0.299960
C84	C	-0.724458	0.289236	0.200040
C85	C	-1.224497	-0.210808	-0.700062
C86	C	-0.724497	0.289192	-0.200062
N87	N	-1.224506	-0.210817	0.216987
N88	N	-0.724506	0.289183	0.716987
H89	H	-0.887369	-0.325790	-0.000000
H90	H	-0.387369	0.174210	0.500000
H91	H	-1.054852	0.205992	0.000001
H92	H	-0.554852	0.705992	0.500001
Br93	Br	-0.735448	-0.428722	0.000014
Br94	Br	-0.235448	0.071278	0.500014
H95	H	-1.110452	-0.110230	-0.587130
H96	H	-0.610452	0.389770	-0.087130
H97	H	-0.516666	-0.367065	-0.000007
H98	H	-0.016666	0.132935	0.499993
Br99	Br	-1.076311	-0.080116	-0.386977
Br100	Br	-0.576311	0.419884	0.113023
Br101	Br	-0.713492	0.007140	-0.000016
Br102	Br	-0.213492	0.507140	0.499984
H103	H	-1.338502	-0.311341	-0.412877
H104	H	-0.838502	0.188659	0.087123
Br105	Br	-1.372662	-0.341455	-0.613053
Br106	Br	-0.872662	0.158545	-0.113053
Br107	Br	-0.999629	0.385854	0.000015
Br108	Br	-0.499629	0.885854	0.500015
Br109	Br	-0.538926	-0.052467	-0.000026
Br110	Br	-0.038926	0.447533	0.499974
Br111	Br	-0.968357	-0.016670	0.000010
Br112	Br	-0.468357	0.483330	0.500010
Br113	Br	-1.449315	0.192568	-0.000018
Br114	Br	-0.949315	0.692568	0.499982
Br115	Br	-1.444833	0.397323	0.000010
Br116	Br	-0.944833	0.897323	0.500010
