data_functionalizedCrystal
_audit_creation_method	'MofGen! by Chris Wilmer'
_symmetry_space_group_name_H-M	'P1'
_symmetry_Int_Tables_number	1
_symmetry_cell_setting	triclinic
loop_
_symmetry_equiv_pos_as_xyz
  x,y,z
_cell_length_a	13.032831
_cell_length_b	16.959454
_cell_length_c	13.033109
_cell_angle_alpha	97.156051
_cell_angle_beta	76.665514
_cell_angle_gamma	82.825094
loop_
_atom_site_label
_atom_site_type_symbol
_atom_site_fract_x
_atom_site_fract_y
_atom_site_fract_z
Zn1	Zn	1.700086	-0.555675	-0.806431
Zn2	Zn	1.677413	-0.668626	-0.628819
Zn3	Zn	1.499912	-0.517229	-0.606323
Zn4	Zn	1.522428	-0.668557	-0.783863
O5	O	1.599960	-0.602522	-0.706359
O6	O	1.845714	-0.586777	-0.801730
O7	O	1.634955	-0.632483	-0.477202
O8	O	1.526532	-0.411728	-0.632898
O9	O	1.829056	-0.669762	-0.671239
O10	O	1.673599	-0.439973	-0.779917
O11	O	1.504547	-0.521252	-0.460675
O12	O	1.354264	-0.521184	-0.611014
O13	O	1.564906	-0.669643	-0.935489
O14	O	1.370806	-0.632364	-0.741452
O15	O	1.695431	-0.586710	-0.952070
O16	O	1.656787	-0.779219	-0.649356
O17	O	1.542920	-0.779168	-0.763266
C18	C	1.323995	-0.572595	-0.671344
C19	C	1.205940	-0.559814	-0.656389
C20	C	1.161507	-0.609192	-0.714164
C21	C	1.039490	-0.595984	-0.698709
C22	C	1.599869	-0.807877	-0.706330
C23	C	1.599931	-0.895742	-0.706365
C24	C	1.540767	-1.267233	-0.765677
C25	C	1.659462	-1.267251	-0.647186
C26	C	1.659424	-1.184700	-0.647172
C27	C	1.600055	-1.143412	-0.706410
C28	C	1.540724	-1.184674	-0.765662
C29	C	1.718745	-1.143429	-0.587912
C30	C	1.718708	-1.060873	-0.587894
C31	C	1.659344	-1.019585	-0.647139
C32	C	1.600012	-1.060853	-0.706395
C33	C	1.540643	-1.019564	-0.765632
C34	C	1.481316	-1.060832	-0.824895
C35	C	1.481361	-1.143386	-0.824907
C36	C	1.659300	-0.937031	-0.647127
C37	C	1.540600	-0.937005	-0.765617
C38	C	1.877002	-0.632566	-0.741511
C39	C	1.995061	-0.645369	-0.756491
C40	C	1.635209	-0.632457	-0.983396
C41	C	1.650231	-0.645214	-1.101452
C42	C	1.600083	-0.396371	-0.706415
C43	C	1.600136	-0.308522	-0.706439
C44	C	1.592404	-0.595866	-1.145908
C45	C	1.607928	-0.609050	-1.267926
C46	C	1.564908	-0.572652	-0.430408
C47	C	1.550093	-0.559696	-0.312378
H48	H	1.492259	-0.903394	-0.813861
H49	H	1.432972	-1.027205	-0.873121
F50	F	1.063401	-0.713403	-0.836118
F51	F	1.722424	-0.893112	-0.584049
F52	F	1.418225	-1.187311	-0.887971
F53	F	1.687661	-0.677037	-1.336241
H54	H	1.711230	-0.697223	-1.153725
H55	H	1.213799	-0.661243	-0.775072
H56	H	1.492468	-1.300838	-0.813931
H57	H	1.707791	-1.300871	-0.598951
H58	H	1.153649	-0.507759	-0.595490
H59	H	1.767016	-1.027278	-0.539641
F60	F	1.781929	-1.187376	-0.524876
F61	F	1.470333	-0.491725	-1.244061
H62	H	0.987203	-0.543925	-0.637805
H63	H	1.531399	-0.543861	-1.093635
