data_functionalizedCrystal
_audit_creation_method	'MofGen! by Chris Wilmer'
_symmetry_space_group_name_H-M	'P1'
_symmetry_Int_Tables_number	1
_symmetry_cell_setting	triclinic
loop_
_symmetry_equiv_pos_as_xyz
  x,y,z
_cell_length_a	10.489689
_cell_length_b	16.098546
_cell_length_c	17.019234
_cell_angle_alpha	91.144101
_cell_angle_beta	96.049551
_cell_angle_gamma	87.243931
loop_
_atom_site_label
_atom_site_type_symbol
_atom_site_fract_x
_atom_site_fract_y
_atom_site_fract_z
O1	O	-1.698561	0.077009	0.107199
O2	O	-1.327241	0.077747	0.117651
O3	O	-1.522599	0.069168	-0.001936
O4	O	-1.503203	0.085588	0.226786
O5	O	-1.511232	-0.068844	0.005048
O6	O	-1.315874	-0.060265	0.124635
O7	O	-1.687193	-0.061003	0.114183
Zn8	Zn	-1.499728	-0.082546	0.120518
Zn9	Zn	-1.514706	0.099291	0.111317
O10	O	-1.491835	-0.052424	0.233770
C11	C	-1.274033	0.008684	0.120363
C12	C	-1.132426	0.008512	0.118027
C13	C	-0.949251	0.013681	0.189946
C14	C	-1.047395	0.079149	0.150578
C15	C	-1.036161	-0.056921	0.157444
C16	C	-0.978282	0.073748	0.074455
C17	C	-0.967033	-0.062383	0.081335
C18	C	-1.065152	0.003098	0.041910
N19	N	-1.489516	-0.206644	0.126797
C20	C	-1.441991	-0.729385	0.155776
C21	C	-1.449163	-0.642510	0.151399
C22	C	-1.539280	-0.602863	0.096279
C23	C	-1.622221	-0.650096	0.045529
C24	C	-1.615042	-0.736970	0.049903
C25	C	-1.565279	-0.340751	0.080421
C26	C	-1.572454	-0.253871	0.076052
C27	C	-1.399393	-0.246291	0.181921
C28	C	-1.392227	-0.333166	0.186294
C29	C	-1.475164	-0.380392	0.135540
C30	C	-1.546615	-0.514063	0.091805
C31	C	-1.467821	-0.469191	0.140011
C32	C	-0.740399	0.008059	0.111484
C33	C	-0.881998	0.008225	0.113857
C34	C	-1.515960	-0.001939	-0.027732
C35	C	-1.513099	-0.008199	-0.114999
N36	N	-1.524929	0.223389	0.105031
C37	C	-1.496490	-0.047342	-0.608372
C38	C	-1.499190	-0.041464	-0.526375
C39	C	-1.506747	0.036707	-0.489176
C40	C	-1.511591	0.109005	-0.533976
C41	C	-1.508881	0.103126	-0.615971
C42	C	-1.515232	0.058221	-0.241795
C43	C	-1.517946	0.064094	-0.159794
C44	C	-1.505542	-0.086376	-0.152199
C45	C	-1.502841	-0.092248	-0.234196
C46	C	-1.507678	-0.019950	-0.278989
C47	C	-1.509512	0.042717	-0.405362
C48	C	-1.504903	-0.025961	-0.362800
C49	C	-1.498474	0.018685	0.259566
C50	C	-1.501337	0.024950	0.346833
H51	H	-1.368613	-0.761659	0.200664
H52	H	-1.331868	-0.207832	0.223241
H53	H	-1.495262	-0.100332	-0.489908
H54	H	-1.619992	-0.481775	0.046927
H55	H	-0.898881	0.018238	0.252487
H56	H	-1.496693	-0.155903	-0.264478
H57	H	-1.501603	-0.145236	-0.115719
H58	H	-1.645843	-0.221595	0.031165
H59	H	-1.632812	-0.379196	0.039096
H60	H	-1.394444	-0.501474	0.184887
H61	H	-1.695592	-0.617811	0.000645
H62	H	-1.682577	-0.775421	0.008580
H63	H	-1.381627	-0.604058	0.192719
H64	H	-1.490341	-0.110997	-0.638654
H65	H	-1.524098	0.127753	-0.129510
H66	H	-0.952569	0.129033	0.039376
H67	H	-1.519181	0.117091	-0.278256
H68	H	-1.115298	-0.001361	-0.020694
H69	H	-1.517737	0.172654	-0.503682
H70	H	-1.318847	-0.365445	0.231176
H71	H	-1.512821	0.161995	-0.652442
H72	H	-1.498743	-0.089607	-0.393090
H73	H	-1.082776	0.138987	0.179864
H74	H	-0.931623	-0.122224	0.052078
H75	H	-1.062026	-0.112136	0.192563
H76	H	-1.515672	0.106364	-0.375066
