data_functionalizedCrystal
_audit_creation_method	'MofGen! by Chris Wilmer'
_symmetry_space_group_name_H-M	'P1'
_symmetry_Int_Tables_number	1
_symmetry_cell_setting	triclinic
loop_
_symmetry_equiv_pos_as_xyz
  x,y,z
_cell_length_a	10.908878
_cell_length_b	12.811415
_cell_length_c	9.482900
_cell_angle_alpha	94.039455
_cell_angle_beta	83.038437
_cell_angle_gamma	72.120565
loop_
_atom_site_label
_atom_site_type_symbol
_atom_site_fract_x
_atom_site_fract_y
_atom_site_fract_z
O1	O	1.719027	-0.178002	-0.097402
O2	O	1.347342	-0.097856	-0.107976
O3	O	1.539296	-0.289079	-0.082755
O4	O	1.527073	0.013220	-0.122623
O5	O	1.500310	-0.250109	0.153898
O6	O	1.308356	-0.058886	0.128677
O7	O	1.680041	-0.139032	0.139251
Cu8	Cu	1.490638	-0.095401	0.155572
Cu9	Cu	1.536745	-0.141487	-0.124297
O10	O	1.488087	0.052191	0.114030
C11	C	1.280211	-0.070881	0.009362
C12	C	1.138265	-0.048575	0.006419
C13	C	1.517923	-0.307687	0.040592
C14	C	1.512306	-0.421192	0.055552
C15	C	1.087044	-0.129965	0.017152
C16	C	0.940336	-0.106913	0.014110
C17	C	1.544237	-0.676953	-0.174366
C18	C	1.538960	-0.783602	-0.160317
C19	C	1.496468	-0.741137	0.097698
C20	C	1.501745	-0.634488	0.083649
C21	C	1.525631	-0.602402	-0.052388
C22	C	1.530917	-0.495753	-0.066435
C23	C	1.488416	-0.453288	0.191578
C24	C	1.483139	-0.559937	0.205627
C25	C	1.747172	-0.166008	0.021910
C26	C	1.889120	-0.188315	0.024844
C27	C	1.509460	0.070799	-0.009320
C28	C	1.515079	0.184301	-0.024289
N29	N	1.458219	-0.062988	0.352417
N30	N	1.569174	-0.173910	-0.321141
C31	C	1.527173	-0.131931	0.433710
C32	C	1.500209	-0.104957	0.597569
H33	H	1.151806	-0.216714	0.028586
F34	F	1.558759	-0.862941	-0.290143
H35	H	1.463686	-0.586076	0.316384
H36	H	1.379217	0.016004	0.404129
F37	F	1.569676	-0.642806	-0.319143
H38	H	1.073506	0.038171	-0.005028
H39	H	0.875580	-0.020161	0.002662
H40	H	1.550371	-0.469632	-0.177203
H41	H	1.473270	-0.392577	0.290902
F42	F	0.973756	-0.301712	0.039784
F43	F	1.396942	-0.001702	0.665148
F44	F	1.471017	-0.775297	0.242464
H45	H	1.606166	-0.210929	0.382001
H46	H	1.648171	-0.252913	0.627155
