data_functionalizedCrystal
_audit_creation_method	'MofGen! by Chris Wilmer'
_symmetry_space_group_name_H-M	'P1'
_symmetry_Int_Tables_number	1
_symmetry_cell_setting	triclinic
loop_
_symmetry_equiv_pos_as_xyz
  x,y,z
_cell_length_a	11.026607
_cell_length_b	19.188930
_cell_length_c	9.482900
_cell_angle_alpha	99.297616
_cell_angle_beta	78.636152
_cell_angle_gamma	95.865399
loop_
_atom_site_label
_atom_site_type_symbol
_atom_site_fract_x
_atom_site_fract_y
_atom_site_fract_z
O1	O	1.627581	0.283622	-0.120957
O2	O	1.274451	0.250352	-0.120952
O3	O	1.461202	0.166632	-0.120926
O4	O	1.440830	0.367342	-0.120983
O5	O	1.423268	0.183725	0.120861
O6	O	1.236517	0.267445	0.120835
O7	O	1.589648	0.300715	0.120830
Cu8	Cu	1.409619	0.285641	0.142910
Cu9	Cu	1.454480	0.265426	-0.143032
O10	O	1.402896	0.384435	0.120804
C11	C	1.210306	0.252761	-0.000057
C12	C	1.075688	0.234464	-0.000054
C13	C	1.001617	0.284984	-0.000069
C14	C	0.862482	0.266075	-0.000066
C15	C	1.441575	0.149084	-0.000029
C16	C	1.439592	0.071328	-0.000016
C17	C	1.549173	0.040370	-0.000011
C18	C	1.547315	-0.032693	-0.000034
C19	C	1.435865	-0.074793	-0.000033
C20	C	1.326271	-0.043828	-0.000047
C21	C	1.328134	0.029233	-0.000038
N22	N	1.337766	-0.187838	0.082253
N23	N	1.336003	-0.257242	0.082248
C24	C	1.430246	-0.294921	-0.000063
N25	N	1.526334	-0.260572	-0.082349
N26	N	1.528099	-0.191161	-0.082338
C27	C	1.433833	-0.154016	-0.000044
C28	C	1.537820	-0.405101	-0.000085
C29	C	1.535959	-0.478166	-0.000117
C30	C	1.314910	-0.489299	-0.000115
C31	C	1.316776	-0.416236	-0.000098
C32	C	1.428234	-0.374141	-0.000075
C33	C	1.653793	0.298306	-0.000068
C34	C	1.788412	0.316602	-0.000081
C35	C	1.422524	0.401983	-0.000097
C36	C	1.424509	0.479738	-0.000119
N37	N	1.378075	0.299859	0.344025
N38	N	1.486034	0.251204	-0.344148
C39	C	1.445167	0.269615	0.416234
C40	C	1.418931	0.281452	0.583648
H41	H	1.041206	0.342235	-0.000077
H42	H	1.522028	0.234957	0.354116
H43	H	1.342057	0.316106	0.645762
C44	C	1.204086	-0.586690	-0.124420
C45	C	1.192401	-0.535567	-0.000120
H46	H	1.128453	-0.615258	-0.124421
H47	H	1.222630	-0.563906	-0.208714
H48	H	1.269088	-0.615583	-0.124409
H49	H	1.127405	-0.506671	-0.000137
H50	H	1.173842	-0.558353	0.084196
C51	C	1.215450	-0.141230	-0.124336
C52	C	1.203764	-0.090103	-0.000044
H53	H	1.139819	-0.169800	-0.124332
H54	H	1.233992	-0.118450	-0.208636
H55	H	1.280454	-0.170121	-0.124320
H56	H	1.138766	-0.061209	-0.000066
H57	H	1.185207	-0.112885	0.084277
C58	C	1.109452	0.010889	-0.000037
C59	C	1.207671	0.063267	-0.000030
H60	H	1.035082	0.031903	-0.000020
H61	H	1.126548	-0.023324	-0.084356
H62	H	1.100102	-0.011427	0.084278
H63	H	1.217028	0.085579	-0.084350
H64	H	1.190571	0.097492	0.084298
H65	H	1.628576	-0.370826	-0.000073
C66	C	1.754634	-0.459817	-0.000078
C67	C	1.656421	-0.512198	-0.000107
H68	H	1.829000	-0.480828	-0.000061
H69	H	1.764001	-0.437504	-0.084384
H70	H	1.737515	-0.425600	0.084250
H71	H	1.673536	-0.546412	-0.084441
H72	H	1.647054	-0.534521	0.084207
C73	C	1.098096	-0.434579	-0.000076
C74	C	1.196316	-0.382201	-0.000078
H75	H	1.023725	-0.413565	-0.000057
H76	H	1.115190	-0.468793	-0.084393
H77	H	1.088750	-0.456893	0.084241
H78	H	1.205668	-0.359890	-0.084400
H79	H	1.179218	-0.347974	0.084248
H80	H	1.562899	0.216543	0.593739
C81	C	1.186263	0.306521	0.515424
C82	C	1.274307	0.346643	0.427875
H83	H	1.122205	0.335407	0.567193
H84	H	1.151901	0.267874	0.456061
H85	H	1.224971	0.289083	0.582412
H86	H	1.235600	0.364077	0.360880
H87	H	1.308671	0.385303	0.487244
C88	C	0.681568	0.185010	-0.000056
C89	C	0.809058	0.188782	-0.000052
H90	H	0.648590	0.137292	-0.000058
H91	H	0.641598	0.213540	0.084251
H92	H	0.668059	0.201629	-0.084383
H93	H	0.822567	0.172167	0.084281
H94	H	0.849040	0.160242	-0.084368
H95	H	1.639931	0.074639	0.000002
H96	H	0.827994	0.373857	-0.000087
C97	C	1.081211	0.115123	-0.124317
C98	C	1.022261	0.157175	-0.000034
H99	H	1.048234	0.067407	-0.124298
H100	H	1.067678	0.131739	-0.208623
H101	H	1.167702	0.117698	-0.124302
H102	H	0.935772	0.154604	-0.000055
H103	H	1.035785	0.140555	0.084293
H104	H	1.636553	-0.057905	-0.000036
