data_functionalizedCrystal
_audit_creation_method	'MofGen! by Chris Wilmer'
_symmetry_space_group_name_H-M	'P1'
_symmetry_Int_Tables_number	1
_symmetry_cell_setting	triclinic
loop_
_symmetry_equiv_pos_as_xyz
  x,y,z
_cell_length_a	16.974885
_cell_length_b	14.853559
_cell_length_c	16.053802
_cell_angle_alpha	92.571272
_cell_angle_beta	91.069328
_cell_angle_gamma	83.511792
loop_
_atom_site_label
_atom_site_type_symbol
_atom_site_fract_x
_atom_site_fract_y
_atom_site_fract_z
O1	O	1.049190	0.114949	0.001401
O2	O	1.549190	0.614949	0.501401
O3	O	0.819746	0.128744	-0.014089
O4	O	1.319746	0.628744	0.485911
O5	O	0.940600	-0.009378	-0.005930
O6	O	1.440600	0.490622	0.494070
O7	O	0.928336	0.253070	-0.006759
O8	O	1.428336	0.753070	0.493241
O9	O	0.933948	-0.001807	0.132480
O10	O	1.433948	0.498193	0.632480
O11	O	0.813093	0.136315	0.124320
O12	O	1.313093	0.636315	0.624320
O13	O	1.042538	0.122520	0.139810
O14	O	1.542538	0.622520	0.639810
Zn15	Zn	0.926760	0.130619	0.154041
Zn16	Zn	1.426760	0.630619	0.654041
Zn17	Zn	0.935524	0.120644	-0.028320
Zn18	Zn	1.435524	0.620644	0.471680
O19	O	0.921683	0.260642	0.131651
O20	O	1.421683	0.760642	0.631651
C21	C	0.787056	0.131865	0.053133
C22	C	1.287056	0.631865	0.553133
C23	C	0.699562	0.129875	0.047226
C24	C	1.199562	0.629875	0.547226
C25	C	0.207459	0.118196	0.005821
C26	C	0.707459	0.618196	0.505821
C27	C	0.289669	0.120067	0.011382
C28	C	0.789669	0.620067	0.511382
C29	C	0.327138	0.125136	0.089611
C30	C	0.827138	0.625136	0.589611
C31	C	0.282395	0.128325	0.162283
C32	C	0.782395	0.628325	0.662283
C33	C	0.200188	0.126448	0.156721
C34	C	0.700188	0.626448	0.656721
C35	C	0.572612	0.131187	0.114336
C36	C	1.072612	0.631187	0.614336
C37	C	0.654825	0.133067	0.119893
C38	C	1.154825	0.633067	0.619893
C39	C	0.662092	0.124806	-0.031008
C40	C	1.162092	0.624806	0.468992
C41	C	0.579883	0.122935	-0.036564
C42	C	1.079883	0.622935	0.463436
C43	C	0.535148	0.126120	0.036108
C44	C	1.035148	0.626120	0.536108
N45	N	0.411169	0.127051	0.095297
N46	N	0.911169	0.627051	0.595297
N47	N	0.451119	0.124198	0.030421
N48	N	0.951119	0.624198	0.530421
C49	C	0.936720	-0.039182	0.063236
C50	C	1.436720	0.460818	0.563236
C51	C	0.935058	-0.139268	0.063120
C52	C	1.435058	0.360732	0.563120
C53	C	0.931635	-0.566577	-0.012804
C54	C	1.431635	-0.066577	0.487196
C55	C	0.924382	-0.558317	0.138096
C56	C	1.424382	-0.058317	0.638096
C57	C	0.925950	-0.464282	0.138203
C58	C	1.425950	0.035718	0.638203
C59	C	0.930359	-0.421390	0.062805
C60	C	1.430359	0.078610	0.562805
C61	C	0.933201	-0.472533	-0.012700
C62	C	1.433201	0.027467	0.487300
C63	C	0.923101	-0.413131	0.213705
C64	C	1.423101	0.086869	0.713705
C65	C	0.924668	-0.319090	0.213815
C66	C	1.424668	0.180910	0.713815
C67	C	0.929083	-0.276198	0.138416
C68	C	1.429083	0.223802	0.638416
C69	C	0.931925	-0.327347	0.062909
C70	C	1.431925	0.172653	0.562909
C71	C	0.936334	-0.284455	-0.012489
C72	C	1.436334	0.215545	0.487511
C73	C	0.939182	-0.335603	-0.087997
C74	C	1.439182	0.164397	0.412003
C75	C	0.937615	-0.429640	-0.088098
C76	C	1.437615	0.070360	0.411902
C77	C	0.930649	-0.182160	0.138517
C78	C	1.430649	0.317840	0.638517
C79	C	0.937900	-0.190411	-0.012385
C80	C	1.437900	0.309589	0.487615
C81	C	1.075228	0.119398	0.072586
C82	C	1.575228	0.619398	0.572586
C83	C	1.162722	0.121388	0.078487
C84	C	1.662722	0.621388	0.578487
C85	C	0.925564	0.290445	0.062483
C86	C	1.425564	0.790445	0.562483
C87	C	0.927226	0.390531	0.062594
C88	C	1.427226	0.890531	0.562594
N89	N	0.920784	0.137427	0.278498
N90	N	1.420784	0.637427	0.778498
N91	N	0.941506	0.113830	-0.152776
N92	N	1.441506	0.613830	0.347224
C93	C	0.972226	0.078677	0.325665
C94	C	1.472226	0.578677	0.825665
C95	C	0.968054	0.083447	0.412790
C96	C	1.468054	0.583447	0.912790
C97	C	0.912441	0.146973	0.452746
C98	C	1.412441	0.646973	0.952746
C99	C	0.860993	0.205725	0.405573
C100	C	1.360993	0.705725	0.905573
C101	C	0.865163	0.200950	0.318449
C102	C	1.365163	0.700950	0.818449
C103	C	0.894228	0.167807	0.712926
C104	C	1.394228	0.667807	1.212926
C105	C	0.890064	0.172580	0.800056
C106	C	1.390064	0.672580	1.300056
C107	C	0.997123	0.050300	0.807268
C108	C	1.497123	0.550300	1.307268
C109	C	1.001291	0.045534	0.720142
C110	C	1.501291	0.545534	1.220142
C111	C	0.949840	0.104283	0.672976
C112	C	1.449840	0.604283	1.172976
N113	N	0.908176	0.151852	0.541802
N114	N	1.408176	0.651852	1.041802
N115	N	0.954102	0.099398	0.583922
N116	N	1.454102	0.599398	1.083922
H117	H	0.698525	0.122213	-0.090174
H118	H	1.198525	0.622213	0.409826
H119	H	0.941494	-0.155496	-0.073783
H120	H	1.441494	0.344504	0.426217
F121	F	0.525010	0.134595	0.191681
F122	F	1.025010	0.634595	0.691681
H123	H	0.919507	-0.448061	0.275089
H124	H	1.419507	0.051939	0.775089
H125	H	1.017515	0.026952	0.293139
H126	H	1.517515	0.526952	0.793139
H127	H	0.922352	-0.277454	0.275298
H128	H	1.422352	0.222546	0.775298
H129	H	0.928312	-0.140517	0.199993
H130	H	1.428312	0.359483	0.699993
F131	F	0.810408	0.263478	0.268251
F132	F	1.310408	0.763478	0.768251
F133	F	0.943876	-0.289943	-0.168238
F134	F	1.443876	0.210057	0.331762
H135	H	1.009942	0.035608	0.451193
H136	H	1.509942	0.535608	0.951193
F137	F	0.801802	0.273331	0.448098
F138	F	1.301802	0.773331	0.948098
F139	F	1.060480	-0.022076	0.677619
F140	F	1.560480	0.477924	1.177619
H141	H	0.685329	0.137201	0.183599
H142	H	1.185329	0.637201	0.683599
F143	F	0.152577	0.129839	0.234063
F144	F	0.652577	0.629839	0.734063
H145	H	1.039011	0.002468	0.845678
H146	H	1.539011	0.502468	1.345678
F147	F	0.540011	0.117541	-0.119825
F148	F	1.040011	0.617541	0.380175
H149	H	0.844775	0.224313	0.832584
H150	H	1.344775	0.724313	1.332584
H151	H	0.852336	0.215644	0.674530
H152	H	1.352336	0.715644	1.174530
F153	F	0.337279	0.116666	-0.065960
F154	F	0.837279	0.616666	0.434040
F155	F	0.919678	-0.603967	0.218334
F156	F	1.419678	-0.103967	0.718334
F157	F	0.940649	-0.484082	-0.168451
F158	F	1.440649	0.015918	0.331549
H159	H	0.176957	0.114075	-0.057881
H160	H	0.676957	0.614075	0.442119
F161	F	0.322276	0.133718	0.245540
F162	F	0.822276	0.633718	0.745540
H163	H	0.933957	-0.608226	-0.074280
H164	H	1.433957	-0.108226	0.425720
