data_functionalizedCrystal
_audit_creation_method	'MofGen! by Chris Wilmer'
_symmetry_space_group_name_H-M	'P1'
_symmetry_Int_Tables_number	1
_symmetry_cell_setting	triclinic
loop_
_symmetry_equiv_pos_as_xyz
  x,y,z
_cell_length_a	10.654550
_cell_length_b	12.376457
_cell_length_c	10.654551
_cell_angle_alpha	78.610119
_cell_angle_beta	84.485132
_cell_angle_gamma	101.407184
loop_
_atom_site_label
_atom_site_type_symbol
_atom_site_fract_x
_atom_site_fract_y
_atom_site_fract_z
O1	O	1.691740	0.094093	0.152514
O2	O	1.326257	0.094074	0.169324
O3	O	1.517401	0.094084	-0.021820
O4	O	1.500596	0.094082	0.343658
O5	O	1.469631	-0.093931	0.025900
O6	O	1.278487	-0.093941	0.217045
O7	O	1.643970	-0.093922	0.200234
Zn8	Zn	1.453644	-0.123783	0.216216
Zn9	Zn	1.516583	0.123935	0.153342
O10	O	1.452826	-0.093933	0.391379
C11	C	1.255573	0.000064	0.191951
C12	C	1.116128	0.000057	0.188261
C13	C	1.036647	0.000073	0.300799
C14	C	0.905631	0.000093	0.297317
C15	C	0.933592	0.000085	0.068750
C16	C	1.064603	0.000057	0.072235
C17	C	1.088172	0.000073	0.416825
C18	C	1.008690	0.000090	0.529372
C19	C	0.877674	0.000109	0.525890
C20	C	0.826141	0.000112	0.409862
N21	N	1.410700	-0.292844	0.259126
C22	C	1.659225	-0.647815	0.010793
C23	C	1.689275	-0.529474	-0.019240
C24	C	1.619633	-0.470310	0.050349
C25	C	1.519938	-0.529500	0.149975
C26	C	1.489891	-0.647853	0.180017
C27	C	1.450300	-0.470348	0.219574
C28	C	1.350604	-0.529538	0.319200
C29	C	1.320562	-0.647880	0.349237
C30	C	1.390203	-0.707043	0.279648
C31	C	1.480346	-0.351995	0.189531
C32	C	1.311012	-0.352033	0.358756
C33	C	1.280962	-0.470375	0.388789
C34	C	1.714654	0.000090	0.177607
C35	C	1.854101	0.000104	0.181295
N36	N	1.559537	0.292995	0.110423
C37	C	1.492283	0.000079	-0.044759
C38	C	1.488592	0.000087	-0.184204
C39	C	1.512899	0.102571	-0.275728
C40	C	1.509417	0.102566	-0.406747
C41	C	1.457326	-0.102418	-0.354704
C42	C	1.460799	-0.102411	-0.223687
C43	C	1.540692	0.205070	-0.236244
C44	C	1.565002	0.307563	-0.327771
C45	C	1.561521	0.307557	-0.458790
C46	C	1.533729	0.205059	-0.498282
C47	C	1.477945	0.000075	0.414317
C48	C	1.481638	0.000075	0.553760
H49	H	1.050656	0.000078	0.623840
H50	H	1.543533	0.205085	-0.129566
Cl51	Cl	1.605672	-0.277600	0.064290
Cl52	Cl	1.529341	0.205056	-0.662993
H53	H	1.581302	0.391012	-0.533307
H54	H	1.434700	-0.185867	-0.386871
H55	H	0.812960	0.000112	0.617534
H56	H	1.644105	-0.373951	0.025891
H57	H	1.587617	0.391013	-0.295605
Cl58	Cl	1.252878	0.000054	0.421208
H59	H	1.440979	-0.185863	-0.149161
Cl60	Cl	0.661429	0.000120	0.405494
Cl61	Cl	1.746775	-0.722192	-0.076670
Cl62	Cl	0.868806	0.000094	-0.077105
Cl63	Cl	1.164529	0.000035	-0.069243
H64	H	1.365734	-0.803406	0.304096
Cl65	Cl	1.814600	-0.455066	-0.144477
Cl66	Cl	1.195245	-0.722291	0.474495
Cl67	Cl	1.223462	-0.277664	0.446249
Cl68	Cl	1.155634	-0.544797	0.514032
