data_functionalizedCrystal
_audit_creation_method	'MofGen! by Chris Wilmer'
_symmetry_space_group_name_H-M	'P1'
_symmetry_Int_Tables_number	1
_symmetry_cell_setting	triclinic
loop_
_symmetry_equiv_pos_as_xyz
  x,y,z
_cell_length_a	6.394984
_cell_length_b	10.654550
_cell_length_c	9.130313
_cell_angle_alpha	90.000276
_cell_angle_beta	89.997013
_cell_angle_gamma	94.509859
loop_
_atom_site_label
_atom_site_type_symbol
_atom_site_fract_x
_atom_site_fract_y
_atom_site_fract_z
O1	O	0.293442	-1.670944	-0.121685
O2	O	0.321400	-1.305761	-0.121711
O3	O	0.003431	-1.493540	-0.121693
O4	O	0.611411	-1.483165	-0.121702
O5	O	0.003422	-1.493526	0.121906
O6	O	0.321390	-1.305748	0.121888
O7	O	0.293433	-1.670930	0.121914
Cu8	Cu	0.307411	-1.488338	0.144144
Cu9	Cu	0.307422	-1.488354	-0.143940
O10	O	0.611402	-1.483152	0.121896
C11	C	0.319342	-1.258935	0.000085
C12	C	0.313201	-1.119426	0.000075
C13	C	0.925578	-1.491470	0.000110
C14	C	0.689250	-1.485218	0.000107
C15	C	0.295491	-1.717757	0.000115
C16	C	0.301632	-1.857265	0.000116
N17	N	0.307402	-1.488336	0.346766
N18	N	0.307414	-1.488365	-0.346563
C19	C	0.500415	-1.041921	0.000076
C20	C	0.494632	-0.910839	0.000102
C21	C	0.114403	-0.934780	0.000119
C22	C	0.120188	-1.065860	0.000103
C23	C	0.166665	-1.571514	0.423426
C24	C	0.166666	-1.571526	0.576763
C25	C	0.448158	-1.405178	0.576767
C26	C	0.448146	-1.405161	0.423433
H27	H	0.647082	-0.847739	0.000106
C28	C	-0.111554	-1.735961	0.561347
C29	C	0.011972	-1.662963	0.661027
H30	H	-0.207050	-1.792416	0.613371
H31	H	-0.187521	-1.682488	0.501557
H32	H	-0.023858	-1.782500	0.501526
H33	H	-0.075723	-1.616416	0.720841
H34	H	0.087944	-1.716443	0.720842
C35	C	-0.211468	-0.914829	0.125359
C36	C	-0.097750	-0.875895	0.000133
H37	H	-0.342439	-0.878471	0.125365
H38	H	-0.234810	-1.003977	0.125343
H39	H	-0.134286	-0.888423	0.210297
H40	H	-0.174925	-0.902309	-0.084806
H41	H	-0.074415	-0.786728	0.000136
H42	H	0.562751	-1.337461	0.639204
C43	C	-0.202125	-1.126631	-0.125124
C44	C	-0.085613	-1.151066	0.000096
H45	H	-0.329163	-1.179240	-0.125126
H46	H	-0.233196	-1.040911	-0.125103
H47	H	-0.123038	-1.143191	-0.210066
H48	H	-0.164693	-1.134497	0.085039
H49	H	-0.054546	-1.236807	0.000088
H50	H	0.657578	-1.085531	0.000064
C51	C	0.726418	-1.240738	0.438826
C52	C	0.602862	-1.313728	0.339156
H53	H	0.821931	-1.184298	0.386793
H54	H	0.638759	-1.194192	0.498644
H55	H	0.802386	-1.294225	0.498619
H56	H	0.526882	-1.260241	0.279370
H57	H	0.690532	-1.360277	0.279313
H58	H	0.052060	-1.639238	0.361008
