data_functionalizedCrystal
_audit_creation_method	'MofGen! by Chris Wilmer'
_symmetry_space_group_name_H-M	'P1'
_symmetry_Int_Tables_number	1
_symmetry_cell_setting	triclinic
loop_
_symmetry_equiv_pos_as_xyz
  x,y,z
_cell_length_a	14.519731
_cell_length_b	17.038272
_cell_length_c	12.996460
_cell_angle_alpha	89.993697
_cell_angle_beta	89.994327
_cell_angle_gamma	87.400204
loop_
_atom_site_label
_atom_site_type_symbol
_atom_site_fract_x
_atom_site_fract_y
_atom_site_fract_z
O1	O	1.231705	0.102582	-0.085570
O2	O	1.565039	0.435916	0.247763
O3	O	1.898372	0.769249	0.581096
O4	O	0.964153	0.114636	-0.085572
O5	O	1.297487	0.447969	0.247761
O6	O	1.630820	0.781303	0.581095
O7	O	1.096339	-0.005209	-0.085563
O8	O	1.429673	0.328124	0.247770
O9	O	1.763006	0.661458	0.581104
O10	O	1.099519	0.222427	-0.085579
O11	O	1.432853	0.555761	0.247754
O12	O	1.766186	0.889094	0.581087
O13	O	1.096324	-0.005216	0.085571
O14	O	1.429657	0.328118	0.418904
O15	O	1.762991	0.661451	0.752237
O16	O	0.964138	0.114629	0.085562
O17	O	1.297471	0.447963	0.418895
O18	O	1.630805	0.781296	0.752229
O19	O	1.231690	0.102576	0.085564
O20	O	1.565023	0.435909	0.418897
O21	O	1.898357	0.769242	0.752230
Cu22	Cu	1.097913	0.108602	0.101189
Cu23	Cu	1.431246	0.441935	0.434522
Cu24	Cu	1.764579	0.775269	0.767855
Cu25	Cu	1.097931	0.108610	-0.101197
Cu26	Cu	1.431264	0.441943	0.232136
Cu27	Cu	1.764597	0.775276	0.565470
O28	O	1.099504	0.222421	0.085555
O29	O	1.432838	0.555754	0.418888
O30	O	1.766171	0.889087	0.752221
C31	C	0.929743	0.114068	-0.000005
C32	C	1.263076	0.447401	0.333328
C33	C	1.596410	0.780734	0.666661
C34	C	0.827233	0.112375	-0.000006
C35	C	1.160567	0.445709	0.333328
C36	C	1.493900	0.779042	0.666661
C37	C	0.743984	0.111000	-0.000010
C38	C	1.077317	0.444334	0.333324
C39	C	1.410651	0.777667	0.666657
C40	C	0.639544	0.109282	-0.000010
C41	C	0.972877	0.442615	0.333323
C42	C	1.306210	0.775949	0.666657
C43	C	0.556300	0.107918	-0.000010
C44	C	0.889634	0.441251	0.333324
C45	C	1.222967	0.774585	0.666657
C46	C	0.451854	0.106200	-0.000012
C47	C	0.785187	0.439533	0.333321
C48	C	1.118520	0.772867	0.666655
C49	C	1.093439	-0.034345	0.000004
C50	C	1.426772	0.298988	0.333337
C51	C	1.760106	0.632321	0.666670
C52	C	1.084809	-0.121153	0.000003
C53	C	1.418142	0.212181	0.333337
C54	C	1.751476	0.545514	0.666670
C55	C	1.164041	-0.171133	0.000005
C56	C	1.497375	0.162200	0.333338
C57	C	1.830708	0.495533	0.666672
C58	C	1.155927	-0.252698	-0.000005
C59	C	1.489261	0.080636	0.333329
C60	C	1.822594	0.413969	0.666662
C61	C	1.068580	-0.284280	-0.000009
C62	C	1.401913	0.049054	0.333325
C63	C	1.735247	0.382387	0.666658
C64	C	0.989342	-0.234293	-0.000013
C65	C	1.322675	0.099041	0.333320
C66	C	1.656008	0.432374	0.666653
C67	C	0.997457	-0.152730	-0.000011
C68	C	1.330790	0.180603	0.333322
C69	C	1.664123	0.513937	0.666656
C70	C	1.039911	-0.530086	-0.000023
C71	C	1.373244	-0.196753	0.333310
C72	C	1.706578	0.136581	0.666644
C73	C	1.031802	-0.611655	-0.000022
C74	C	1.365135	-0.278322	0.333311
C75	C	1.698469	0.055012	0.666644
C76	C	1.198388	-0.630054	-0.000016
C77	C	1.531722	-0.296721	0.333318
C78	C	1.865055	0.036612	0.666651
C79	C	1.206496	-0.548489	-0.000007
C80	C	1.539829	-0.215156	0.333326
C81	C	1.873162	0.118177	0.666660
C82	C	1.127257	-0.498509	-0.000017
C83	C	1.460591	-0.165176	0.333316
C84	C	1.793924	0.168157	0.666650
C85	C	1.060284	-0.367651	-0.000016
C86	C	1.393617	-0.034318	0.333318
C87	C	1.726951	0.299016	0.666651
C88	C	1.135554	-0.415140	-0.000018
C89	C	1.468888	-0.081806	0.333316
C90	C	1.802221	0.251527	0.666649
C91	C	1.266100	0.103144	-0.000005
C92	C	1.599434	0.436477	0.333328
C93	C	1.932767	0.769811	0.666661
C94	C	1.368610	0.104836	-0.000012
C95	C	1.701943	0.438170	0.333322
C96	C	2.035277	0.771503	0.666655
C97	C	1.102404	0.251557	-0.000014
C98	C	1.435738	0.584890	0.333319
C99	C	1.769071	0.918224	0.666652
C100	C	1.111034	0.338364	-0.000021
C101	C	1.444368	0.671698	0.333312
C102	C	1.777701	1.005031	0.666646
N103	N	1.097907	0.108596	0.243536
N104	N	1.431240	0.441929	0.576869
N105	N	1.764573	0.775263	0.910202
N106	N	1.097944	0.108610	-0.243544
N107	N	1.431277	0.441943	0.089789
N108	N	1.764610	0.775276	0.423123
C109	C	1.097930	0.108611	0.663350
C110	C	1.431263	0.441944	0.996683
C111	C	1.764596	0.775277	1.330017
C112	C	1.097921	0.108609	0.546545
C113	C	1.431254	0.441942	0.879878
C114	C	1.764587	0.775276	1.213212
C115	C	1.097919	0.108604	0.453447
C116	C	1.431252	0.441937	0.786780
C117	C	1.764585	0.775271	1.120113
C118	C	1.097909	0.108601	0.336634
C119	C	1.431242	0.441935	0.669967
C120	C	1.764575	0.775268	1.003301
H121	H	1.235169	-0.145426	0.000015
H122	H	1.568502	0.187907	0.333348
H123	H	1.901836	0.521240	0.666681
H124	H	0.932937	-0.112036	-0.000013
H125	H	1.266270	0.221298	0.333321
H126	H	1.599604	0.554631	0.666654
H127	H	1.220447	-0.293389	-0.000001
H128	H	1.553780	0.039944	0.333332
H129	H	1.887114	0.373277	0.666665
H130	H	0.989165	-0.393374	-0.000017
H131	H	1.322499	-0.060041	0.333317
H132	H	1.655832	0.273292	0.666650
H133	H	1.277623	-0.522782	-0.000004
H134	H	1.610956	-0.189449	0.333330
H135	H	1.944290	0.143885	0.666663
H136	H	1.206672	-0.389422	-0.000037
H137	H	1.540005	-0.056089	0.333296
H138	H	1.873339	0.277245	0.666630
H139	H	1.262899	-0.670756	-0.000009
H140	H	1.596233	-0.337423	0.333324
H141	H	1.929566	-0.004090	0.666657
H142	H	0.960670	-0.637365	-0.000009
H143	H	1.294003	-0.304032	0.333324
H144	H	1.627337	0.029302	0.666658
H145	H	0.975389	-0.489401	-0.000031
H146	H	1.308722	-0.156068	0.333302
H147	H	1.642056	0.177265	0.666636
H148	H	0.918222	-0.260013	-0.000023
H149	H	1.251555	0.073320	0.333310
H150	H	1.584888	0.406654	0.666643
