data_functionalizedCrystal
_audit_creation_method	'MofGen! by Chris Wilmer'
_symmetry_space_group_name_H-M	'P1'
_symmetry_Int_Tables_number	1
_symmetry_cell_setting	triclinic
loop_
_symmetry_equiv_pos_as_xyz
  x,y,z
_cell_length_a	12.759394
_cell_length_b	14.908618
_cell_length_c	12.759387
_cell_angle_alpha	93.315916
_cell_angle_beta	89.968668
_cell_angle_gamma	93.290508
loop_
_atom_site_label
_atom_site_type_symbol
_atom_site_fract_x
_atom_site_fract_y
_atom_site_fract_z
Zn1	Zn	-0.511084	-1.379280	-0.686631
Zn2	Zn	-0.686794	-1.379190	-0.510943
Zn3	Zn	-0.500977	-1.228410	-0.500835
Zn4	Zn	-0.676562	-1.228399	-0.676455
O5	O	-0.593854	-1.303820	-0.593716
O6	O	-0.542904	-1.505514	-0.671814
O7	O	-0.662197	-1.359155	-0.362579
O8	O	-0.355300	-1.248465	-0.525511
O9	O	-0.671997	-1.505448	-0.542737
O10	O	-0.362725	-1.359309	-0.662014
O11	O	-0.525678	-1.248378	-0.355153
O12	O	-0.515757	-1.102162	-0.515643
O13	O	-0.654559	-1.248447	-0.824828
O14	O	-0.644759	-1.102154	-0.644670
O15	O	-0.532983	-1.359299	-0.832305
O16	O	-0.832455	-1.359145	-0.532869
O17	O	-0.824938	-1.248359	-0.654470
C18	C	-0.578052	-1.069424	-0.577956
C19	C	-0.571317	-0.969148	-0.571239
C20	C	-0.866818	-1.303765	-0.593687
C21	C	-0.983599	-1.303825	-0.593715
C22	C	-0.693199	-0.780760	-0.692791
C23	C	-0.686874	-0.686543	-0.686483
C24	C	-0.552338	-0.686494	-0.552321
C25	C	-0.558663	-0.780711	-0.558629
C26	C	-0.629097	-0.827841	-0.628865
C27	C	-0.635426	-0.922061	-0.635167
C28	C	-0.500885	-0.922010	-0.501011
C29	C	-0.494560	-0.827792	-0.494703
C30	C	-0.991379	-1.419272	-0.467199
C31	C	-1.050131	-1.477019	-0.403954
C32	C	-1.159856	-1.477072	-0.403986
C33	C	-1.210831	-1.419373	-0.467272
C34	C	-1.152079	-1.361626	-0.530516
C35	C	-1.042352	-1.361578	-0.530475
C36	C	-1.144299	-1.246185	-0.657037
C37	C	-1.034574	-1.246126	-0.657001
C38	C	-1.195275	-1.188487	-0.720323
C39	C	-1.136522	-1.130734	-0.783563
C40	C	-1.026790	-1.130682	-0.783527
C41	C	-0.975822	-1.188379	-0.720245
C42	C	-0.319826	-1.303899	-0.593770
C43	C	-0.203052	-1.303932	-0.593793
C44	C	-0.593757	-1.303882	-0.867754
C45	C	-0.593716	-1.303908	-0.984532
C46	C	-0.609711	-0.539130	-0.609530
C47	C	-0.616447	-0.639406	-0.616250
C48	C	-0.467048	-1.419395	-1.211765
C49	C	-0.403769	-1.477099	-1.160795
C50	C	-0.403802	-1.477073	-1.051071
C51	C	-0.467124	-1.419340	-0.992315
C52	C	-0.530403	-1.361637	-1.043286
C53	C	-0.530361	-1.361667	-1.153012
C54	C	-0.656995	-1.246205	-1.035503
C55	C	-0.656958	-1.246225	-1.145226
C56	C	-0.720317	-1.188472	-0.976747
C57	C	-0.783592	-1.130763	-1.027716
C58	C	-0.783556	-1.130790	-1.137447
C59	C	-0.720237	-1.188522	-1.196196
C60	C	-0.593879	-1.303809	-0.320748
C61	C	-0.593636	-1.303958	-0.203982
H62	H	-0.750555	-0.819135	-0.749975
N63	N	-0.335465	-1.539361	-1.224161
H64	H	-0.356135	-1.603811	-1.209396
H65	H	-0.345066	-1.530547	-1.301381
H66	H	-0.494987	-0.648104	-0.495145
H67	H	-0.352277	-1.524062	-1.009572
N68	N	-0.467167	-1.419307	-0.873971
H69	H	-0.540366	-1.435858	-0.848643
H70	H	-0.417428	-1.464616	-0.850678
H71	H	-0.739071	-0.648213	-0.738541
N72	N	-0.418617	-0.776957	-0.418930
H73	H	-0.424343	-0.710126	-0.424625
H74	H	-0.436020	-0.793403	-0.344980
H75	H	-0.720344	-1.188459	-0.887405
H76	H	-0.448690	-0.960353	-0.448955
N77	N	-0.873032	-1.419202	-0.467150
H78	H	-0.849655	-1.464512	-0.417462
H79	H	-0.847715	-1.435718	-0.540371
H80	H	-1.008618	-1.523999	-0.352430
N81	N	-1.223233	-1.539359	-0.335782
H82	H	-1.174296	-1.575905	-0.295688
H83	H	-1.266362	-1.502675	-0.284679
H84	H	-0.835090	-1.083804	-1.178940
N85	N	-0.720203	-1.188560	-1.314540
H86	H	-0.769899	-1.143248	-1.337918
H87	H	-0.646972	-1.172034	-1.339793
N88	N	-1.329177	-1.419438	-0.467321
H89	H	-1.358662	-1.464779	-0.417658
H90	H	-1.351435	-1.357541	-0.443835
H91	H	-0.835149	-1.083766	-0.979869
H92	H	-1.284619	-1.188538	-0.720349
N93	N	-0.711395	-0.972898	-0.710912
H94	H	-0.751041	-0.928772	-0.750453
H95	H	-0.671310	-1.012016	-0.762222
H96	H	-0.978959	-1.083661	-0.835033
N97	N	-1.191499	-1.068512	-0.851820
H98	H	-1.269924	-1.077313	-0.842248
H99	H	-1.168063	-1.004077	-0.831072
N100	N	-0.857476	-1.188323	-0.720197
H101	H	-0.835140	-1.250192	-0.743709
H102	H	-0.828069	-1.142947	-0.769852
H103	H	-0.467000	-1.419410	-1.301107
