data_functionalizedCrystal
_audit_creation_method	'MofGen! by Chris Wilmer'
_symmetry_space_group_name_H-M	'P1'
_symmetry_Int_Tables_number	1
_symmetry_cell_setting	triclinic
loop_
_symmetry_equiv_pos_as_xyz
  x,y,z
_cell_length_a	8.597340
_cell_length_b	19.188924
_cell_length_c	7.088929
_cell_angle_alpha	83.795552
_cell_angle_beta	103.954719
_cell_angle_gamma	84.245364
loop_
_atom_site_label
_atom_site_type_symbol
_atom_site_fract_x
_atom_site_fract_y
_atom_site_fract_z
O1	O	2.100691	0.095889	0.187050
O2	O	1.635928	0.107287	0.110485
O3	O	1.881730	-0.000059	0.151001
O4	O	1.854889	0.203235	0.146534
O5	O	1.914579	-0.014437	0.474391
O6	O	1.668777	0.092909	0.433874
O7	O	2.133540	0.081511	0.510440
Cu8	Cu	1.904158	0.085897	0.501685
Cu9	Cu	1.865310	0.102901	0.119239
O10	O	1.887739	0.188857	0.469924
C11	C	1.592892	0.099675	0.262384
C12	C	1.415720	0.098406	0.233197
C13	C	1.897287	-0.033260	0.312555
C14	C	1.894685	-0.110767	0.312131
C15	C	1.875564	-0.139329	0.135651
C16	C	1.873093	-0.212153	0.135229
C17	C	1.889777	-0.256414	0.311303
C18	C	1.908892	-0.227844	0.487806
C19	C	1.911346	-0.155020	0.488219
N20	N	1.990080	-0.381848	0.456830
N21	N	1.987752	-0.451027	0.456425
C22	C	1.882383	-0.475828	0.310067
N23	N	1.779447	-0.428836	0.164102
N24	N	1.781783	-0.359651	0.164502
C25	C	1.887118	-0.335380	0.310874
C26	C	1.860580	-0.583353	0.133117
C27	C	1.858100	-0.656178	0.132701
C28	C	1.893916	-0.671869	0.485285
C29	C	1.896378	-0.599044	0.485693
C30	C	1.879717	-0.554791	0.309605
C31	C	2.176575	0.089123	0.358536
C32	C	2.353747	0.090393	0.387710
C33	C	1.872181	0.222058	0.308366
C34	C	1.874782	0.299566	0.308777
N35	N	1.931493	0.073937	0.770679
N36	N	1.837988	0.114855	-0.149752
H37	H	1.857512	-0.235412	-0.008488
H38	H	1.436233	0.084498	0.542332
O39	O	1.317213	0.105557	0.048750
C40	C	1.089741	0.173735	-0.189607
C41	C	1.201202	0.165729	0.019304
H42	H	0.995898	0.222372	-0.213466
H43	H	1.164798	0.180020	-0.301332
H44	H	1.025940	0.124700	-0.208637
H45	H	1.265027	0.214746	0.038525
H46	H	1.126060	0.159410	0.130925
O47	O	2.047328	0.023420	0.887083
C48	C	2.331352	-0.020551	0.995340
C49	C	2.200344	0.036713	0.863460
H50	H	2.455092	-0.009832	0.976255
H51	H	2.329271	-0.019573	1.155230
H52	H	2.306655	-0.074678	0.952062
H53	H	2.224952	0.090868	0.906562
H54	H	2.202457	0.035673	0.703602
H55	H	1.842521	-0.679431	-0.011018
H56	H	1.861992	-0.103302	-0.007735
H57	H	1.922472	-0.263885	0.631166
O58	O	1.930133	-0.127203	0.659575
C59	C	2.091990	-0.062127	0.887502
C60	C	2.070883	-0.093581	0.693381
H61	H	2.205799	-0.034950	0.914916
H62	H	1.982446	-0.021922	0.878150
H63	H	2.103402	-0.106276	1.013232
H64	H	2.059514	-0.049482	0.567550
H65	H	2.180434	-0.133804	0.702901
O66	O	1.844286	-0.540456	-0.038115
C67	C	1.808590	-0.532583	-0.387852
C68	C	1.826990	-0.581239	-0.194082
H69	H	1.794636	-0.565538	-0.513997
H70	H	1.697136	-0.491646	-0.415004
H71	H	1.920505	-0.504543	-0.377976
H72	H	1.715163	-0.609327	-0.203816
H73	H	1.938511	-0.622132	-0.167000
H74	H	1.741080	0.157259	0.752628
H75	H	1.907488	-0.707905	0.628646
O76	O	1.915178	-0.571225	0.657042
C77	C	2.077035	-0.506144	0.884953
C78	C	2.055923	-0.537600	0.690835
H79	H	2.190841	-0.478964	0.912356
H80	H	1.967489	-0.465940	0.875605
H81	H	2.088456	-0.550291	1.010688
H82	H	2.044546	-0.493501	0.564999
H83	H	2.165476	-0.577821	0.700351
