data_functionalizedCrystal
_audit_creation_method	'MofGen! by Chris Wilmer'
_symmetry_space_group_name_H-M	'P1'
_symmetry_Int_Tables_number	1
_symmetry_cell_setting	triclinic
loop_
_symmetry_equiv_pos_as_xyz
  x,y,z
_cell_length_a	17.077404
_cell_length_b	25.639240
_cell_length_c	17.077396
_cell_angle_alpha	89.961743
_cell_angle_beta	89.978556
_cell_angle_gamma	90.031004
loop_
_atom_site_label
_atom_site_type_symbol
_atom_site_fract_x
_atom_site_fract_y
_atom_site_fract_z
Zn1	Zn	1.200001	-0.208175	-0.443830
Zn2	Zn	1.199885	-0.295613	-0.312542
Zn3	Zn	1.068733	-0.208191	-0.312574
Zn4	Zn	1.068678	-0.295579	-0.443761
O5	O	1.134324	-0.251889	-0.378176
O6	O	1.309832	-0.219782	-0.426430
O7	O	1.182462	-0.284037	-0.202699
O8	O	1.086217	-0.135023	-0.330027
O9	O	1.309747	-0.284022	-0.329973
O10	O	1.182659	-0.135012	-0.426461
O11	O	1.086105	-0.219808	-0.202722
O12	O	0.958878	-0.219775	-0.329960
O13	O	1.086124	-0.283964	-0.553617
O14	O	0.958838	-0.283979	-0.426343
O15	O	1.182606	-0.219749	-0.553668
O16	O	1.182409	-0.368774	-0.329906
O17	O	1.086012	-0.368749	-0.426312
C18	C	0.930376	-0.251875	-0.378148
C19	C	0.843126	-0.251882	-0.378154
C20	C	0.467353	-0.218514	-0.428510
C21	C	0.549334	-0.218510	-0.428502
C22	C	0.590278	-0.251900	-0.378196
C23	C	0.549237	-0.285300	-0.327902
C24	C	0.467258	-0.285306	-0.327915
C25	C	0.720107	-0.285284	-0.327876
C26	C	0.802091	-0.285278	-0.327862
C27	C	0.802183	-0.218489	-0.428463
C28	C	0.720204	-0.218495	-0.428477
C29	C	0.679169	-0.251894	-0.378181
C30	C	1.134213	-0.387732	-0.378115
C31	C	1.134238	-0.445846	-0.378115
C32	C	1.184567	-0.806165	-0.428480
C33	C	1.184590	-0.860769	-0.428496
O34	O	1.227249	-0.888968	-0.471255
N35	N	1.134433	-0.888128	-0.378252
C36	C	1.084244	-0.860881	-0.327995
O37	O	1.041584	-0.889166	-0.285261
C38	C	1.084218	-0.806277	-0.327984
C39	C	1.134383	-0.778921	-0.378225
C40	C	1.234727	-0.778808	-0.478718
C41	C	1.234705	-0.724207	-0.478701
C42	C	1.184522	-0.696964	-0.428446
C43	C	1.134361	-0.724320	-0.378208
C44	C	1.034026	-0.779031	-0.277731
C45	C	1.034003	-0.724424	-0.277724
C46	C	1.084169	-0.697067	-0.327966
C47	C	1.084156	-0.642476	-0.327936
N48	N	1.134312	-0.615116	-0.378179
C49	C	1.184495	-0.642360	-0.428434
C50	C	1.084303	-0.975551	-0.328024
C51	C	1.084333	-1.030154	-0.328031
C52	C	1.184677	-1.030038	-0.428533
C53	C	1.184651	-0.975435	-0.428521
C54	C	1.134460	-0.948192	-0.378268
C55	C	1.184445	-0.527695	-0.428394
C56	C	1.184421	-0.473090	-0.428370
C57	C	1.084074	-0.473210	-0.327871
C58	C	1.084101	-0.527811	-0.327892
C59	C	1.134289	-0.555052	-0.378160
O60	O	1.041516	-0.614242	-0.285201
O61	O	1.227141	-0.614068	-0.471169
C62	C	1.339068	-0.251904	-0.378206
C63	C	1.426318	-0.251910	-0.378218
C64	C	1.134372	-0.251851	-0.582921
C65	C	1.134392	-0.251834	-0.670171
C66	C	1.134457	-0.115516	-0.378255
C67	C	1.134513	-0.057402	-0.378289
C68	C	1.184632	-0.218395	-0.711189
C69	C	1.184641	-0.218377	-0.793169
C70	C	1.134414	-0.251803	-0.834130
C71	C	1.084168	-0.285244	-0.793107
C72	C	1.084156	-0.285258	-0.711128
C73	C	1.084200	-0.285212	-0.963977
C74	C	1.084214	-0.285199	-1.045961
C75	C	1.184686	-0.218332	-1.046018
C76	C	1.184673	-0.218346	-0.964039
C77	C	1.134428	-0.251788	-0.923021
C78	C	1.134322	-0.251890	-0.174229
C79	C	1.134454	-0.251759	-0.086979
H80	H	0.582580	-0.312489	-0.286945
H81	H	1.043273	-0.312436	-0.930582
C82	C	1.239833	-0.945348	-0.483793
N83	N	1.281397	-0.922689	-0.525428
H84	H	1.043258	-0.550086	-0.286975
H85	H	0.835598	-0.191293	-0.469415
H86	H	1.275552	-0.701937	-0.519614
H87	H	1.225554	-0.191149	-0.826562
C88	C	1.289944	-0.808768	-0.534001
N89	N	1.331544	-0.831330	-0.575637
C90	C	1.028889	-0.322045	-0.666008
N91	N	0.987259	-0.349753	-0.632025
C92	C	0.847128	-0.322014	-0.272531
N93	N	0.881049	-0.349685	-0.230857
H94	H	1.043270	-0.312457	-0.826464
C95	C	1.239660	-0.557653	-0.483686
N96	N	1.281253	-0.580216	-0.525327
C97	C	1.239874	-1.060017	-0.483821
N98	N	1.281445	-1.082598	-0.525462
C99	C	0.674970	-0.322025	-0.272547
N100	N	0.640973	-0.349695	-0.230870
H101	H	0.434023	-0.191321	-0.469470
H102	H	0.582741	-0.191318	-0.469458
C103	C	1.029153	-1.060240	-0.272755
N104	N	0.987586	-1.082899	-0.231123
C105	C	1.028872	-0.443231	-0.272597
N106	N	0.987288	-0.420650	-0.230968
C107	C	1.029088	-0.945589	-0.272734
N108	N	0.987498	-0.923024	-0.231091
C109	C	0.422119	-0.322043	-0.272587
N110	N	0.388122	-0.349715	-0.230914
C111	C	0.675167	-0.181763	-0.483814
N112	N	0.641246	-0.154098	-0.525497
H113	H	1.225535	-0.191178	-0.677844
C114	C	1.239611	-0.443001	-0.483639
N115	N	1.281179	-0.420340	-0.525267
H116	H	0.993176	-0.801295	-0.236819
C117	C	1.239924	-0.181576	-0.918984
N118	N	1.281537	-0.153877	-0.885048
H119	H	0.993129	-0.702245	-0.236802
C120	C	1.239955	-0.181545	-1.091140
N121	N	1.281585	-0.153840	-1.125129
H122	H	1.043312	-0.312415	-1.079310
