data_functionalizedCrystal
_audit_creation_method	'MofGen! by Chris Wilmer'
_symmetry_space_group_name_H-M	'P1'
_symmetry_Int_Tables_number	1
_symmetry_cell_setting	triclinic
loop_
_symmetry_equiv_pos_as_xyz
  x,y,z
_cell_length_a	12.645331
_cell_length_b	13.897448
_cell_length_c	13.897441
_cell_angle_alpha	89.969401
_cell_angle_beta	90.022081
_cell_angle_gamma	89.983329
loop_
_atom_site_label
_atom_site_type_symbol
_atom_site_fract_x
_atom_site_fract_y
_atom_site_fract_z
Zn1	Zn	1.620725	0.384010	0.545416
Zn2	Zn	1.620609	0.545332	0.384117
Zn3	Zn	1.443441	0.384050	0.384130
Zn4	Zn	1.443421	0.545262	0.545366
O5	O	1.532049	0.464664	0.464757
O6	O	1.769057	0.405423	0.524035
O7	O	1.597067	0.523983	0.249137
O8	O	1.467016	0.249063	0.405552
O9	O	1.768971	0.523945	0.405529
O10	O	1.597265	0.249034	0.524047
O11	O	1.466903	0.405490	0.249147
O12	O	1.295092	0.405422	0.405503
O13	O	1.466981	0.523826	0.680354
O14	O	1.295077	0.523864	0.523962
O15	O	1.597246	0.405355	0.680391
O16	O	1.597047	0.680304	0.405481
O17	O	1.466868	0.680253	0.523950
C18	C	1.531972	0.715278	0.464729
C19	C	1.532036	0.822492	0.464750
C20	C	1.256619	0.464641	0.464729
C21	C	1.138789	0.464654	0.464740
C22	C	1.532124	0.464578	0.716350
C23	C	1.532156	0.464542	0.823564
C24	C	0.971199	0.389800	0.390629
C25	C	1.093759	0.389993	0.390302
C26	C	1.094269	0.566268	0.436969
C27	C	0.971671	0.565859	0.436463
C28	C	0.971639	0.438862	0.566909
C29	C	1.094245	0.436592	0.566342
C30	C	1.808554	0.464687	0.464786
C31	C	1.926384	0.464697	0.464798
C32	C	1.532156	0.213071	0.464807
C33	C	1.532201	0.105857	0.464827
C34	C	1.532147	1.018787	0.464810
C35	C	1.532082	0.909554	0.464780
C36	C	1.532035	0.464679	0.214143
C37	C	1.532209	0.464444	0.106930
C38	C	1.532185	0.464477	1.019860
C39	C	1.532166	0.464516	0.910627
H40	H	0.941735	0.314222	0.407850
H41	H	1.124902	0.487165	0.624560
O42	O	1.134857	0.595793	0.339145
H43	H	1.186724	0.538266	0.310149
H44	H	0.942659	0.493415	0.622172
O45	O	1.132905	0.642167	0.506277
H46	H	1.100325	0.713253	0.485064
H47	H	0.940742	0.366059	0.592165
O48	O	1.133644	0.290179	0.413328
H49	H	1.065366	0.241335	0.424795
O50	O	0.930375	0.412175	0.290976
H51	H	0.878302	0.476408	0.294043
O52	O	1.132558	0.412567	0.290064
H53	H	1.063754	0.423404	0.241637
O54	O	0.933713	0.594864	0.337583
H55	H	1.002923	0.609046	0.290574
O56	O	1.132794	0.337546	0.594095
H57	H	1.183473	0.308418	0.535779
H58	H	0.942026	0.623553	0.488129
