data_functionalizedCrystal
_audit_creation_method	'MofGen! by Chris Wilmer'
_symmetry_space_group_name_H-M	'P1'
_symmetry_Int_Tables_number	1
_symmetry_cell_setting	triclinic
loop_
_symmetry_equiv_pos_as_xyz
  x,y,z
_cell_length_a	13.635800
_cell_length_b	11.168121
_cell_length_c	17.078481
_cell_angle_alpha	84.865581
_cell_angle_beta	99.306161
_cell_angle_gamma	71.491504
loop_
_atom_site_label
_atom_site_type_symbol
_atom_site_fract_x
_atom_site_fract_y
_atom_site_fract_z
V1	V	2.002596	-0.174410	0.247368
O2	O	1.983386	0.008684	0.242653
O3	O	1.991097	-0.346117	0.245683
O4	O	1.967913	-0.171594	0.355251
O5	O	2.006731	-0.167047	0.132326
V6	V	2.244123	-0.152525	0.233607
O7	O	2.133740	-0.222415	0.277554
O8	O	2.338077	-0.104520	0.203422
O9	O	2.144019	0.019182	0.235293
O10	O	2.322031	-0.335620	0.238323
O11	O	2.298687	-0.159888	0.348650
O12	O	2.167203	-0.155341	0.125725
V13	V	2.502596	-0.174410	0.247368
O14	O	2.483386	0.008684	0.242653
O15	O	2.491097	-0.346117	0.245683
O16	O	2.467913	-0.171594	0.355251
O17	O	2.506731	-0.167047	0.132326
V18	V	2.744123	-0.152525	0.233607
O19	O	2.633740	-0.222415	0.277554
O20	O	2.838077	-0.104520	0.203422
O21	O	2.644019	0.019182	0.235293
O22	O	2.822031	-0.335620	0.238323
O23	O	2.798687	-0.159888	0.348650
O24	O	2.667203	-0.155341	0.125725
C25	C	1.917026	-0.387980	0.241782
C26	C	1.948197	-0.528352	0.241123
C27	C	1.907689	-0.729903	0.236386
C28	C	1.875470	-0.584821	0.237067
C29	C	1.887452	-0.165357	0.381546
C30	C	1.899820	-0.164190	0.469741
C31	C	2.049762	0.061038	0.239191
C32	C	2.008209	0.201409	0.239855
C33	C	2.079336	-0.161583	0.099425
C34	C	2.056586	-0.162742	0.011230
C35	C	2.417026	-0.387980	0.241782
C36	C	2.448197	-0.528352	0.241123
C37	C	2.387452	-0.165357	0.381546
C38	C	2.399820	-0.164190	0.469741
C39	C	1.996763	-0.169946	0.515217
C40	C	2.008378	-0.168849	0.598085
C41	C	1.923052	-0.162006	0.635477
C42	C	1.826100	-0.156247	0.589994
C43	C	1.814484	-0.157334	0.507127
C44	C	1.948018	-0.158070	0.882880
C45	C	1.959643	-0.156987	0.965754
C46	C	2.141921	-0.169587	0.973839
C47	C	2.130298	-0.170682	0.890970
C48	C	2.033346	-0.164915	0.845494
N49	N	1.934923	-0.160889	0.720181
N50	N	2.021474	-0.166023	0.760790
C51	C	2.549762	0.061038	0.239191
C52	C	2.508209	0.201409	0.239855
C53	C	2.579336	-0.161583	0.099425
C54	C	2.556586	-0.162742	0.011230
C55	C	2.496768	-0.169934	0.515202
C56	C	2.508400	-0.168821	0.598070
C57	C	2.423084	-0.161975	0.635475
C58	C	2.326127	-0.156228	0.590007
C59	C	2.314495	-0.157331	0.507141
C60	C	2.459668	-0.169574	-0.026155
C61	C	2.438274	-0.170649	-0.109025
C62	C	2.513802	-0.164901	-0.154508
C63	C	2.610727	-0.158065	-0.117118
C64	C	2.632117	-0.156981	-0.034250
C65	C	2.548718	-0.597040	0.244593
C66	C	2.580937	-0.742122	0.243912
H67	H	1.845483	-0.778506	0.232916
H68	H	1.789356	-0.525773	0.234094
H69	H	2.711040	-0.151425	-0.003818
H70	H	2.496377	-0.165800	-0.221982
O71	O	1.853867	-0.152746	0.838813
C72	C	1.827453	-0.258517	0.867447
H73	H	1.902273	-0.338646	0.900086
H74	H	1.771525	-0.229142	0.910637
C75	C	1.681186	-0.207077	0.756202
C76	C	1.773082	-0.305498	0.796285
H77	H	1.647643	-0.236055	0.712308
H78	H	1.698978	-0.135814	0.736913
H79	H	1.634591	-0.182607	0.792202
H80	H	1.819680	-0.329955	0.760288
H81	H	1.755296	-0.376766	0.815567
H82	H	2.610925	-0.548440	0.248071
H83	H	2.034310	-0.587389	0.244084
O84	O	2.220308	-0.151597	0.462918
C85	C	2.181974	-0.042053	0.403931
H86	H	2.218875	0.031551	0.423642
H87	H	2.203584	-0.069438	0.344660
C88	C	2.015741	-0.075229	0.368725
C89	C	2.061056	0.015177	0.392938
H90	H	1.941152	-0.039929	0.361940
H91	H	2.041567	-0.149034	0.408464
H92	H	2.033759	-0.098042	0.319335
H93	H	2.043048	0.037976	0.442331
H94	H	2.035224	0.088987	0.353206
H95	H	2.432570	-0.161078	0.702951
H96	H	2.587355	-0.173507	0.635079
H97	H	2.667048	-0.801167	0.246872
H98	H	2.359348	-0.176215	-0.139456
O99	O	2.082501	-0.740737	0.243893
C100	C	2.131309	-0.759708	0.177110
H101	H	2.122167	-0.848009	0.152526
H102	H	2.092455	-0.672663	0.128569
C103	C	2.260690	-0.670281	0.233136
C104	C	2.249469	-0.778740	0.202945
H105	H	2.333576	-0.682015	0.249069
H106	H	2.227805	-0.657495	0.278127
H107	H	2.228305	-0.597754	0.192679
H108	H	2.281843	-0.851262	0.243404
H109	H	2.282362	-0.791539	0.157960
H110	H	2.566249	-0.175512	0.484759
O111	O	2.386395	-0.175374	0.018072
C112	C	2.428951	-0.284958	0.077028
H113	H	2.496153	-0.358508	0.057294
H114	H	2.460321	-0.257610	0.136314
C115	C	2.259743	-0.251913	0.112236
C116	C	2.342276	-0.342253	0.087995
H117	H	2.206278	-0.287254	0.119005
H118	H	2.231072	-0.178082	0.072519
H119	H	2.285898	-0.229131	0.161639
H120	H	2.316122	-0.365022	0.038589
H121	H	2.370940	-0.416090	0.127705
O122	O	1.720285	-0.151532	0.462891
C123	C	1.682002	-0.041949	0.403935
H124	H	1.718957	0.031592	0.423679
H125	H	1.703595	-0.069303	0.344654
C126	C	1.515708	-0.074964	0.368693
C127	C	1.561089	0.015365	0.392946
H128	H	1.441123	-0.039612	0.361911
H129	H	1.541500	-0.148795	0.408410
H130	H	1.533712	-0.097751	0.319294
H131	H	1.543095	0.038138	0.442348
H132	H	1.535291	0.089201	0.353236
H133	H	2.422094	-0.739551	0.236883
H134	H	2.385992	-0.576955	0.237654
O135	O	2.684055	-0.152265	-0.161291
C136	C	2.706414	-0.038342	-0.154265
H137	H	2.637139	0.035074	-0.136641
H138	H	2.780594	-0.058630	-0.106258
C139	C	2.809300	-0.075832	-0.256891
C140	C	2.724210	0.014341	-0.235252
H141	H	2.820282	-0.043337	-0.306847
H142	H	2.794239	-0.152588	-0.261624
H143	H	2.871106	-0.092732	-0.216879
H144	H	2.662403	0.031227	-0.275259
H145	H	2.739261	0.091101	-0.230529
H146	H	2.066250	-0.175527	0.484780
H147	H	2.199782	-0.176253	0.860532
O148	O	2.102631	-0.174487	0.642145
C149	C	2.175442	-0.180725	0.591370
H150	H	2.150002	-0.219834	0.535056
H151	H	2.178016	-0.081012	0.573815
C152	C	2.317111	-0.221370	0.704855
C153	C	2.285870	-0.269415	0.635693
H154	H	2.385230	-0.276073	0.732196
H155	H	2.268057	-0.217163	0.739064
H156	H	2.319249	-0.138277	0.690216
H157	H	2.283721	-0.352499	0.650333
H158	H	2.334927	-0.273638	0.601487
H159	H	2.220855	-0.174280	1.010874
H160	H	1.890153	-0.151411	0.996194
H161	H	1.756625	-0.150668	0.620444
O162	O	2.243297	-0.149420	0.626425
C163	C	2.218436	-0.038542	0.663333
H164	H	2.290590	-0.007206	0.675642
H165	H	2.150672	0.041062	0.621874
C166	C	2.096727	-0.105772	0.727908
C167	C	2.185351	-0.067292	0.743032
H168	H	2.076314	-0.123503	0.777069
H169	H	2.113473	-0.180471	0.703040
H170	H	2.040268	-0.039429	0.693357
H171	H	2.241812	-0.133640	0.777575
H172	H	2.168614	0.007396	0.767908
