data_functionalizedCrystal
_audit_creation_method	'MofGen! by Chris Wilmer'
_symmetry_space_group_name_H-M	'P1'
_symmetry_Int_Tables_number	1
_symmetry_cell_setting	triclinic
loop_
_symmetry_equiv_pos_as_xyz
  x,y,z
_cell_length_a	6.817900
_cell_length_b	16.417825
_cell_length_c	10.992410
_cell_angle_alpha	93.844433
_cell_angle_beta	108.764651
_cell_angle_gamma	103.385495
loop_
_atom_site_label
_atom_site_type_symbol
_atom_site_fract_x
_atom_site_fract_y
_atom_site_fract_z
V1	V	-4.086898	-0.115885	-0.401043
O2	O	-4.073690	0.005569	-0.392946
O3	O	-4.037597	-0.229781	-0.398746
O4	O	-4.064911	-0.114103	-0.575749
O5	O	-4.046187	-0.110910	-0.214718
V6	V	-4.567220	-0.101358	-0.378703
O7	O	-4.355178	-0.147752	-0.450048
O8	O	-4.749138	-0.069491	-0.329698
O9	O	-4.393315	0.012538	-0.381000
O10	O	-4.697825	-0.222812	-0.386801
O11	O	-4.725329	-0.106333	-0.565029
O12	O	-4.366001	-0.103141	-0.203998
C13	C	-3.881523	-0.257547	-0.392534
C14	C	-3.922676	-0.350658	-0.391821
C15	C	-3.959422	-0.552922	-0.272499
C16	C	-3.998114	-0.640411	-0.271838
C17	C	-4.114079	-0.664322	-0.507262
C18	C	-4.075402	-0.576834	-0.507922
C19	C	-3.998062	-0.521136	-0.390536
C20	C	-4.075431	-0.696113	-0.389216
C21	C	-4.117383	-0.790973	-0.388500
C22	C	-3.956111	-0.426270	-0.391251
C23	C	-3.916364	-0.109986	-0.618317
C24	C	-3.979665	-0.109282	-0.761143
C25	C	-3.848301	-0.102870	-0.956242
C26	C	-3.782497	-0.103949	-0.807762
C27	C	-4.158190	-0.191868	-0.838568
C28	C	-4.222676	-0.191137	-0.987132
C29	C	-4.138183	-0.031223	-0.948479
C30	C	-4.067567	-0.030831	-0.799464
C31	C	-4.212730	0.040299	-0.387209
C32	C	-4.150817	0.133409	-0.387931
C33	C	-4.177889	-0.107260	-0.161422
C34	C	-4.093826	-0.107960	-0.018595
H35	H	-3.896448	-0.507574	-0.176915
H36	H	-4.177049	-0.709681	-0.602833
H37	H	-4.209909	-0.029861	-0.766949
F38	F	-4.352625	-0.200869	-0.800961
H39	H	-4.106882	-0.550955	-0.604048
H40	H	-3.648056	-0.044567	-0.754191
F41	F	-3.899167	0.049024	-0.730728
H42	H	-4.050070	0.031491	-0.968593
F43	F	-3.713532	-0.024654	-0.980376
F44	F	-4.080417	-0.268002	-0.805397
F45	F	-4.371199	-0.035142	-1.001878
F46	F	-3.798692	-0.174938	-1.019244
H47	H	-3.712123	-0.159851	-0.783165
F48	F	-3.956994	-0.674236	-0.146207
H49	H	-4.193401	-0.249241	-1.033628
H50	H	-4.402983	-0.198318	-1.029791
