data_functionalizedCrystal
_audit_creation_method	'MofGen! by Chris Wilmer'
_symmetry_space_group_name_H-M	'P1'
_symmetry_Int_Tables_number	1
_symmetry_cell_setting	triclinic
loop_
_symmetry_equiv_pos_as_xyz
  x,y,z
_cell_length_a	15.944545
_cell_length_b	15.944493
_cell_length_c	8.965430
_cell_angle_alpha	90.006294
_cell_angle_beta	89.998976
_cell_angle_gamma	83.485608
loop_
_atom_site_label
_atom_site_type_symbol
_atom_site_fract_x
_atom_site_fract_y
_atom_site_fract_z
O1	O	1.114505	0.108304	-0.123923
O2	O	0.869952	0.121666	-0.123945
O3	O	0.998932	-0.007294	-0.123946
O4	O	0.985525	0.237263	-0.123922
O5	O	0.998921	-0.007285	0.124133
O6	O	0.869941	0.121674	0.124134
O7	O	1.114494	0.108312	0.124156
Cu8	Cu	0.992216	0.114994	0.146796
Cu9	Cu	0.992229	0.114984	-0.146586
O10	O	0.985514	0.237272	0.124157
C11	C	0.838652	0.121116	0.000091
C12	C	0.745406	0.119456	0.000082
C13	C	0.474791	0.034560	0.000090
C14	C	0.525359	0.075494	0.122413
C15	C	0.409764	0.113535	0.000107
C16	C	0.525350	0.075507	-0.122173
C17	C	0.574677	0.116440	0.000092
C18	C	0.459103	0.154448	0.122532
C19	C	0.459091	0.154449	-0.122165
C20	C	0.509626	0.195442	0.000189
C21	C	0.314762	0.111860	0.000117
C22	C	0.669676	0.118122	0.000093
C23	C	0.998378	-0.038584	0.000087
C24	C	0.996735	-0.131833	0.000068
C25	C	1.072656	-0.367594	0.000103
C26	C	1.031720	-0.418166	-0.122216
C27	C	0.993691	-0.302554	0.000086
C28	C	1.031691	-0.418133	0.122371
C29	C	0.990757	-0.467463	0.000110
C30	C	0.952777	-0.351897	-0.122334
C31	C	0.952759	-0.351861	0.122363
C32	C	0.911766	-0.402400	0.000014
C33	C	0.995384	-0.207554	0.000071
C34	C	0.989058	-0.562460	0.000114
C35	C	1.145793	0.108862	0.000116
C36	C	1.239039	0.110522	0.000116
C37	C	0.986067	0.268562	0.000120
C38	C	0.987710	0.361811	0.000130
N39	N	0.992213	0.115001	0.353146
N40	N	0.992239	0.114971	-0.352935
C41	C	0.932546	0.174621	0.450452
C42	C	1.008447	0.190922	0.549875
C43	C	0.916344	0.098706	0.549850
C44	C	1.068153	0.131340	0.450379
C45	C	0.976000	0.039091	0.450346
C46	C	1.051956	0.055360	0.549724
H47	H	0.554292	0.042144	0.225821
H48	H	1.140674	-0.351967	-0.000014
N49	N	0.422764	0.196266	-0.251871
N50	N	0.431762	0.272046	-0.274872
H51	H	0.406104	0.301576	-0.366487
H52	H	1.022178	0.255105	0.593591
H53	H	0.919453	-0.323080	-0.225855
H54	H	0.554279	0.042137	-0.225581
H55	H	1.102480	0.004926	0.593039
N56	N	1.148667	0.148733	0.395808
N57	N	1.176343	0.216632	0.428767
H58	H	1.233204	0.228920	0.390222
N59	N	0.958757	-0.041406	0.395473
N60	N	0.945817	-0.098710	0.484853
H61	H	0.933632	-0.155562	0.446099
N62	N	0.835840	0.081444	0.604672
N63	N	0.771046	0.129801	0.572869
H64	H	0.714187	0.117619	0.611587
H65	H	0.882133	0.225085	0.406864
H66	H	0.459152	-0.033454	0.000202
H67	H	0.430282	0.187780	0.226057
N68	N	0.529052	0.280827	0.000242
N69	N	0.503697	0.329412	-0.103782
H70	H	0.517419	0.389714	-0.103744
H71	H	1.065051	-0.447062	0.225775
N72	N	1.073572	-0.454490	-0.251920
N73	N	1.136284	-0.508564	-0.238324
H74	H	1.165848	-0.534216	-0.329923
N75	N	0.826370	-0.421794	-0.000085
N76	N	0.778172	-0.397393	-0.105206
H77	H	0.717861	-0.411091	-0.105284
H78	H	0.919436	-0.322896	0.225773
