data_functionalizedCrystal
_audit_creation_method	'MofGen! by Chris Wilmer'
_symmetry_space_group_name_H-M	'P1'
_symmetry_Int_Tables_number	1
_symmetry_cell_setting	triclinic
loop_
_symmetry_equiv_pos_as_xyz
  x,y,z
_cell_length_a	12.759401
_cell_length_b	13.897441
_cell_length_c	12.759399
_cell_angle_alpha	89.970767
_cell_angle_beta	90.015542
_cell_angle_gamma	89.981179
loop_
_atom_site_label
_atom_site_type_symbol
_atom_site_fract_x
_atom_site_fract_y
_atom_site_fract_z
Zn1	Zn	1.606254	-0.545341	-0.418221
Zn2	Zn	1.606147	-0.384046	-0.593931
Zn3	Zn	1.430556	-0.384065	-0.418268
Zn4	Zn	1.430544	-0.545304	-0.593860
O5	O	1.518375	-0.464689	-0.506070
O6	O	1.753261	-0.523953	-0.441539
O7	O	1.582814	-0.249067	-0.570679
O8	O	1.453913	-0.405482	-0.271241
O9	O	1.753182	-0.405450	-0.570633
O10	O	1.582998	-0.523971	-0.271206
O11	O	1.453808	-0.249081	-0.441620
O12	O	1.283533	-0.405446	-0.441551
O13	O	1.453892	-0.680291	-0.570511
O14	O	1.283524	-0.523908	-0.570557
O15	O	1.582986	-0.680318	-0.441470
O16	O	1.582803	-0.405414	-0.740943
O17	O	1.453788	-0.523890	-0.740890
C18	C	1.245408	-0.464676	-0.506052
C19	C	1.128631	-0.464693	-0.506070
C20	C	1.073811	-0.526492	-0.438972
C21	C	0.964087	-0.526498	-0.438983
C22	C	0.964013	-0.402903	-0.573198
C23	C	1.073735	-0.402893	-0.573181
C24	C	1.518450	-0.716282	-0.505977
C25	C	1.518482	-0.823496	-0.505938
C26	C	1.518510	-1.019792	-0.505867
C27	C	1.518491	-0.910559	-0.505909
C28	C	1.792408	-0.464703	-0.506089
C29	C	1.909185	-0.464709	-0.506097
C30	C	1.518311	-0.464667	-0.779037
C31	C	1.518379	-0.464690	-0.895814
C32	C	1.518361	-0.214075	-0.506087
C33	C	1.518533	-0.106861	-0.505830
C34	C	1.585634	-0.403070	-0.950668
C35	C	1.585702	-0.403102	-1.060392
C36	C	1.451251	-0.526378	-1.060398
C37	C	1.451189	-0.526349	-0.950676
C38	C	1.518468	-0.464732	-0.232037
C39	C	1.518508	-0.464751	-0.115260
H40	H	0.919457	-0.576820	-0.384343
H41	H	1.396545	-0.576577	-1.105080
Br42	Br	1.148141	-0.319002	-0.664234
Br43	Br	1.676986	-0.319477	-1.134834
Br44	Br	1.676821	-0.319391	-0.876216
H45	H	1.396422	-0.576532	-0.906010
H46	H	1.118504	-0.576810	-0.384322
H47	H	0.919303	-0.352589	-0.627838
