data_functionalizedCrystal
_audit_creation_method	'MofGen! by Chris Wilmer'
_symmetry_space_group_name_H-M	'P1'
_symmetry_Int_Tables_number	1
_symmetry_cell_setting	triclinic
loop_
_symmetry_equiv_pos_as_xyz
  x,y,z
_cell_length_a	17.699083
_cell_length_b	14.519709
_cell_length_c	16.176319
_cell_angle_alpha	89.992256
_cell_angle_beta	89.998611
_cell_angle_gamma	83.481580
loop_
_atom_site_label
_atom_site_type_symbol
_atom_site_fract_x
_atom_site_fract_y
_atom_site_fract_z
O1	O	1.004413	0.116624	-0.068632
O2	O	0.784078	0.131798	-0.068660
O3	O	0.900087	-0.010052	-0.068638
O4	O	0.888403	0.258474	-0.068654
O5	O	0.900071	-0.010061	0.068855
O6	O	0.784062	0.131789	0.068833
O7	O	1.004397	0.116615	0.068861
Cu8	Cu	0.894228	0.124201	0.081401
Cu9	Cu	0.894247	0.124212	-0.081200
O10	O	0.888387	0.258465	0.068839
C11	C	0.755871	0.131249	0.000083
C12	C	0.671848	0.129618	0.000073
C13	C	0.623466	0.212881	0.000068
C14	C	0.544518	0.211343	0.000079
C15	C	0.513954	0.126541	0.000089
C16	C	0.562343	0.043272	0.000096
C17	C	0.641289	0.044811	0.000091
C18	C	0.243962	0.037064	0.000117
C19	C	0.165010	0.035531	0.000119
C20	C	0.147191	0.203596	0.000105
C21	C	0.226137	0.205135	0.000100
C22	C	0.274519	0.121866	0.000112
C23	C	0.360123	0.123535	0.000102
C24	C	0.428352	0.124872	0.000093
C25	C	0.899534	-0.044414	0.000109
C26	C	0.897903	-0.146789	0.000109
C27	C	0.891896	-0.521659	0.000087
C28	C	0.893564	-0.417358	0.000093
C29	C	0.894899	-0.334227	0.000099
C30	C	0.896568	-0.229920	0.000104
C31	C	1.032603	0.117164	0.000116
C32	C	1.116626	0.118795	0.000121
C33	C	0.888940	0.292827	0.000090
C34	C	0.890572	0.395202	0.000085
N35	N	0.894220	0.124193	0.195767
N36	N	0.894260	0.124213	-0.195565
C37	C	0.945604	0.061408	0.239040
C38	C	0.945608	0.061407	0.325588
C39	C	0.894231	0.124196	0.368859
C40	C	0.842841	0.186985	0.325579
C41	C	0.842834	0.186981	0.239034
C42	C	0.842867	0.187002	0.674608
C43	C	0.842879	0.187003	0.761159
C44	C	0.945641	0.061428	0.761161
C45	C	0.945634	0.061424	0.674616
C46	C	0.894242	0.124209	0.631343
C47	C	0.894237	0.124208	0.537499
C48	C	0.894238	0.124202	0.462702
H49	H	0.680683	-0.022990	0.000095
C50	C	0.283446	-0.105711	-0.070556
C51	C	0.297135	-0.054466	0.000121
H52	H	0.316278	-0.162218	-0.070555
H53	H	0.232059	-0.118753	-0.070548
H54	H	0.292729	-0.070919	-0.118500
H55	H	0.287847	-0.089255	0.048065
H56	H	0.348534	-0.041426	0.000120
C57	C	0.449238	-0.033715	0.000103
C58	C	0.528750	-0.049945	0.000105
H59	H	0.428502	-0.091266	0.000101
H60	H	0.432644	0.000550	0.048045
H61	H	0.432646	0.000565	-0.047849
H62	H	0.545342	-0.084220	0.048061
H63	H	0.545351	-0.084225	-0.047842
H64	H	0.987445	0.010281	0.203814
H65	H	0.987449	0.010281	0.360821
C66	C	0.711927	0.241340	0.787829
C67	C	0.786395	0.256018	0.808728
H68	H	0.677060	0.283941	0.817202
H69	H	0.704568	0.250330	0.730101
H70	H	0.703647	0.179797	0.802027
H71	H	0.794676	0.317559	0.794525
H72	H	0.793756	0.247035	0.866469
H73	H	0.987473	0.010298	0.639387
C74	C	0.989881	-0.098300	0.787818
C75	C	1.002125	-0.007599	0.808729
H76	H	1.024755	-0.140911	0.817181
H77	H	0.939365	-0.108232	0.802012
H78	H	0.997232	-0.107273	0.730081
H79	H	0.994768	0.001375	0.866466
H80	H	1.052653	0.002336	0.794541
C81	C	0.107688	0.346380	-0.070591
C82	C	0.094006	0.295128	0.000099
H83	H	0.074851	0.402883	-0.070597
H84	H	0.159073	0.359428	-0.070590
H85	H	0.098405	0.311589	-0.118526
H86	H	0.103294	0.329917	0.048034
H87	H	0.042608	0.282082	0.000106
H88	H	0.505128	0.279144	0.000074
C89	C	0.597914	0.378856	0.000063
C90	C	0.657057	0.306100	0.000060
H91	H	0.618652	0.436406	0.000065
H92	H	0.567493	0.374765	-0.047879
H93	H	0.567494	0.374747	0.048015
H94	H	0.687474	0.310205	-0.047896
H95	H	0.687490	0.310193	0.048007
H96	H	0.801023	0.238125	0.639382
C97	C	0.086570	-0.063708	-0.070546
C98	C	0.131415	-0.057691	0.000134
H99	H	0.065834	-0.121259	-0.070539
H100	H	0.046461	-0.014344	-0.070547
H101	H	0.117007	-0.059618	-0.118488
H102	H	0.100976	-0.061775	0.048076
H103	H	0.171529	-0.107070	0.000142
C104	C	0.797226	0.242759	0.458245
C105	C	0.786366	0.256007	0.373142
H106	H	0.762364	0.285378	0.487604
H107	H	0.788925	0.181230	0.472437
H108	H	0.847753	0.252699	0.472409
H109	H	0.735841	0.246060	0.358976
H110	H	0.794662	0.317550	0.358944
C111	C	0.798601	0.346703	0.212359
C112	C	0.786354	0.255999	0.191462
H113	H	0.763733	0.389310	0.182986
H114	H	0.791249	0.355687	0.270087
H115	H	0.849125	0.356629	0.198163
H116	H	0.735832	0.246071	0.205664
H117	H	0.793700	0.247011	0.133721
C118	C	0.304565	0.304373	-0.070609
C119	C	0.259725	0.298355	0.000079
H120	H	0.325293	0.361929	-0.070624
H121	H	0.344679	0.255015	-0.070599
H122	H	0.274126	0.300273	-0.118546
H123	H	0.290166	0.302449	0.048015
H124	H	0.219606	0.347727	0.000076
