data_functionalizedCrystal
_audit_creation_method	'MofGen! by Chris Wilmer'
_symmetry_space_group_name_H-M	'P1'
_symmetry_Int_Tables_number	1
_symmetry_cell_setting	triclinic
loop_
_symmetry_equiv_pos_as_xyz
  x,y,z
_cell_length_a	17.638336
_cell_length_b	29.839131
_cell_length_c	17.639514
_cell_angle_alpha	78.798717
_cell_angle_beta	109.616347
_cell_angle_gamma	78.805439
loop_
_atom_site_label
_atom_site_type_symbol
_atom_site_fract_x
_atom_site_fract_y
_atom_site_fract_z
Zn1	Zn	1.353557	-0.417513	0.720054
Zn2	Zn	1.853557	0.082487	1.220054
Zn3	Zn	1.325617	-0.473569	0.582237
Zn4	Zn	1.825617	0.026431	1.082237
Zn5	Zn	1.187973	-0.379416	0.554480
Zn6	Zn	1.687973	0.120584	1.054480
Zn7	Zn	1.215678	-0.473538	0.692176
Zn8	Zn	1.715678	0.026462	1.192176
O9	O	1.270706	-0.436009	0.637237
O10	O	1.770706	0.063991	1.137237
O11	O	1.465158	-0.440905	0.725055
O12	O	1.965158	0.059095	1.225055
O13	O	1.284070	-0.445149	0.463252
O14	O	1.784070	0.054851	0.963252
O15	O	1.210037	-0.321620	0.576494
O16	O	1.710037	0.178380	1.076494
O17	O	1.444630	-0.482089	0.623802
O18	O	1.944630	0.017911	1.123802
O19	O	1.331691	-0.349609	0.698140
O20	O	1.831691	0.150391	1.198140
O21	O	1.182944	-0.375975	0.442859
O22	O	1.682944	0.124025	0.942859
O23	O	1.076341	-0.375945	0.549462
O24	O	1.576341	0.124055	1.049462
O25	O	1.257256	-0.482036	0.811177
O26	O	1.757256	0.017964	1.311177
O27	O	1.096696	-0.445096	0.650627
O28	O	1.596696	0.054904	1.150627
O29	O	1.358555	-0.440875	0.831658
O30	O	1.858555	0.059125	1.331658
O31	O	1.310935	-0.536415	0.596771
O32	O	1.810935	-0.036415	1.096771
O33	O	1.230163	-0.536392	0.677542
O34	O	1.730163	-0.036392	1.177542
C35	C	1.056621	-0.406383	0.594008
C36	C	1.556621	0.093617	1.094008
C37	C	0.965038	-0.393723	0.575534
C38	C	1.465038	0.106277	1.075534
C39	C	0.825352	-0.339843	0.496906
C40	C	1.325352	0.160157	0.996906
C41	C	0.911409	-0.351743	0.514272
C42	C	1.411409	0.148257	1.014272
C43	C	0.932623	-0.423820	0.619453
C44	C	1.432623	0.076180	1.119453
C45	C	0.846565	-0.411927	0.602093
C46	C	1.346565	0.088073	1.102093
C47	C	0.792936	-0.369937	0.540820
C48	C	1.292936	0.130063	1.040820
C49	C	0.814150	-0.442021	0.646007
C50	C	1.314150	0.057979	1.146007
C51	C	0.728100	-0.430128	0.628652
C52	C	1.228100	0.069872	1.128652
C53	C	0.674466	-0.388139	0.567383
C54	C	1.174466	0.111861	1.067383
C55	C	0.706886	-0.358043	0.523465
C56	C	1.206886	0.141957	1.023465
C57	C	0.867782	-0.484009	0.707284
C58	C	1.367782	0.015991	1.207284
C59	C	0.835366	-0.514104	0.751198
C60	C	1.335366	-0.014104	1.251198
C61	C	0.749314	-0.502212	0.733839
C62	C	1.249314	-0.002212	1.233839
C63	C	0.695680	-0.460224	0.672570
C64	C	1.195680	0.039776	1.172570
C65	C	0.716894	-0.532308	0.777757
C66	C	1.216894	-0.032308	1.277757
C67	C	0.630844	-0.520414	0.760402
C68	C	1.130844	-0.020414	1.260402
C69	C	0.609630	-0.448330	0.655215
C70	C	1.109630	0.051670	1.155215
C71	C	1.270549	-0.552705	0.637166
C72	C	1.770549	-0.052705	1.137166
C73	C	1.270563	-0.602643	0.637178
C74	C	1.770563	-0.102643	1.137178
C75	C	1.312875	-0.912332	0.595275
C76	C	1.812875	-0.412332	1.095275
C77	C	1.312983	-1.100024	0.595328
C78	C	1.812983	-0.600024	1.095328
O79	O	1.348834	-1.124307	0.559645
O80	O	1.848834	-0.624307	1.059645
N81	N	1.270890	-1.123483	0.637333
N82	N	1.770890	-0.623483	1.137333
C83	C	1.228770	-1.100018	0.679333
C84	C	1.728770	-0.600018	1.179333
O85	O	1.192977	-1.124279	0.715070
O86	O	1.692977	-0.624279	1.215070
C87	C	1.228668	-0.912328	0.679285
C88	C	1.728668	-0.412328	1.179285
C89	C	1.270757	-0.888870	0.637270
C90	C	1.770757	-0.388870	1.137270
C91	C	1.354962	-0.888874	0.553264
C92	C	1.854962	-0.388874	1.053264
C93	C	1.354931	-0.841953	0.553248
C94	C	1.854931	-0.341953	1.053248
C95	C	1.312813	-0.818490	0.595242
C96	C	1.812813	-0.318490	1.095242
C97	C	1.270726	-0.841949	0.637253
C98	C	1.770726	-0.341949	1.137253
C99	C	1.186554	-0.888865	0.721290
C100	C	1.686554	-0.388865	1.221290
C101	C	1.186534	-0.841940	0.721276
C102	C	1.686534	-0.341940	1.221276
C103	C	1.228623	-0.818481	0.679261
C104	C	1.728623	-0.318481	1.179261
C105	C	1.228577	-0.771565	0.679232
C106	C	1.728577	-0.271565	1.179232
N107	N	1.270670	-0.748106	0.637226
N108	N	1.770670	-0.248106	1.137226
C109	C	1.312788	-0.771568	0.595231
C110	C	1.812788	-0.271568	1.095231
C111	C	1.228826	-1.198557	0.679354
C112	C	1.728826	-0.698557	1.179354
C113	C	1.228850	-1.245479	0.679365
C114	C	1.728850	-0.745479	1.179365
C115	C	1.313065	-1.245482	0.595361
C116	C	1.813065	-0.745482	1.095361
C117	C	1.313035	-1.198558	0.595345
C118	C	1.813035	-0.698558	1.095345
C119	C	1.270920	-1.175098	0.637349
C120	C	1.770920	-0.675098	1.137349
C121	C	1.312719	-0.673031	0.595199
C122	C	1.812719	-0.173031	1.095199
C123	C	1.312681	-0.626105	0.595184
C124	C	1.812681	-0.126105	1.095184
C125	C	1.228471	-0.626107	0.679191
C126	C	1.728471	-0.126107	1.179191
C127	C	1.228504	-0.673028	0.679204
C128	C	1.728504	-0.173028	1.179204
C129	C	1.270635	-0.696489	0.637206
C130	C	1.770635	-0.196489	1.137206
O131	O	1.192752	-0.747254	0.714903
O132	O	1.692752	-0.247254	1.214903
O133	O	1.348592	-0.747302	0.559516
O134	O	1.848592	-0.247302	1.059516
C135	C	1.312907	-0.959253	0.595292
C136	C	1.812907	-0.459253	1.095292
C137	C	1.270820	-0.982711	0.637303
C138	C	1.770820	-0.482711	1.137303
C139	C	1.228702	-0.959249	0.679298
C140	C	1.728702	-0.459249	1.179298
C141	C	1.270844	-1.029633	0.637314
C142	C	1.770844	-0.529633	1.137314
C143	C	1.312962	-1.053096	0.595319
C144	C	1.812962	-0.553096	1.095319
C145	C	1.355056	-1.029637	0.553314
C146	C	1.855056	-0.529637	1.053314
C147	C	1.355025	-0.982716	0.553297
C148	C	1.855025	-0.482716	1.053297
C149	C	1.186608	-0.982708	0.721303
C150	C	1.686608	-0.482708	1.221303
C151	C	1.186642	-1.029629	0.721316
C152	C	1.686642	-0.529629	1.221316
C153	C	1.228760	-1.053092	0.679321
C154	C	1.728760	-0.553092	1.179321
C155	C	1.485628	-0.465750	0.680635
C156	C	1.985628	0.034250	1.180635
C157	C	1.577215	-0.478424	0.699128
C158	C	2.077215	0.021576	1.199128
C159	C	1.314113	-0.465702	0.852150
C160	C	1.814113	0.034298	1.352150
C161	C	1.332610	-0.478355	0.943734
C162	C	1.832610	0.021645	1.443734
C163	C	1.270890	-0.318862	0.637330
C164	C	1.770890	0.181138	1.137330
C165	C	1.270968	-0.268941	0.637370
C166	C	1.770968	0.231059	1.137370
C167	C	1.130216	-0.339919	1.191881
C168	C	1.630216	0.160081	1.691881
C169	C	1.147616	-0.351821	1.277941
C170	C	1.647616	0.148179	1.777941
C171	C	1.252907	-0.423844	1.299155
C172	C	1.752907	0.076156	1.799155
C173	C	1.235519	-0.411947	1.213095
C174	C	1.735519	0.088053	1.713095
C175	C	1.174172	-0.369984	1.159464
C176	C	1.674172	0.130016	1.659464
C177	C	1.279476	-0.442012	1.180678
C178	C	1.779476	0.057988	1.680678
C179	C	1.262086	-0.430117	1.094626
C180	C	1.762086	0.069883	1.594626
C181	C	1.200740	-0.388157	1.040989
C182	C	1.700740	0.111843	1.540989
C183	C	1.156783	-0.358089	1.073412
C184	C	1.656783	0.141911	1.573412
C185	C	1.340818	-0.483977	1.234310
C186	C	1.840818	0.016023	1.734310
C187	C	1.384775	-0.514042	1.201893
C188	C	1.884775	-0.014042	1.701893
C189	C	1.367389	-0.502145	1.115839
C190	C	1.867389	-0.002145	1.615839
C191	C	1.306043	-0.460185	1.062203
C192	C	1.806043	0.039815	1.562203
C193	C	1.411347	-0.532213	1.083417
C194	C	1.911347	-0.032213	1.583417
C195	C	1.393957	-0.520318	0.997364
C196	C	1.893957	-0.020318	1.497364
C197	C	1.288654	-0.448290	0.976151
C198	C	1.788654	0.051710	1.476151
C199	C	1.227458	-0.406438	1.423157
C200	C	1.727458	0.093562	1.923157
C201	C	1.208947	-0.393776	1.331571
C202	C	1.708947	0.106224	1.831571
H203	H	1.346955	-0.607006	0.560967
H204	H	1.846955	-0.107006	1.060967
O205	O	1.471028	-0.572928	1.135572
O206	O	1.971028	-0.072928	1.635572
C207	C	1.534333	-0.561606	1.196134
C208	C	2.034333	-0.061606	1.696134
H209	H	1.534244	-0.523354	1.171267
H210	H	2.034244	-0.023354	1.671267
H211	H	1.597916	-0.586761	1.209897
H212	H	2.097916	-0.086761	1.709897
H213	H	1.522031	-0.565549	1.256208
H214	H	2.022031	-0.065549	1.756208
O215	O	1.395791	-0.911714	0.512455
O216	O	1.895791	-0.411714	1.012455
C217	C	1.338219	-0.925062	0.449728
C218	C	1.838219	-0.425062	0.949728
H219	H	1.281583	-0.927470	0.466080
H220	H	1.781583	-0.427470	0.966080
H221	H	1.369608	-0.961176	0.445563
H222	H	1.869608	-0.461176	0.945563
H223	H	1.316912	-0.897334	0.386820
H224	H	1.816912	-0.397334	0.886820
H225	H	1.354977	-0.493659	1.304379
H226	H	1.854977	0.006341	1.804379
O227	O	1.145741	-1.052351	0.762204
O228	O	1.645741	-0.552351	1.262204
C229	C	1.108547	-1.021571	0.799247
C230	C	1.608547	-0.521571	1.299247
H231	H	1.142856	-0.993168	0.808919
H232	H	1.642856	-0.493168	1.308919
H233	H	1.112831	-1.042861	0.862384
H234	H	1.612831	-0.542861	1.362384
H235	H	1.039882	-1.003794	0.756394
H236	H	1.539882	-0.503794	1.256394
O237	O	0.654724	-0.317300	0.463854
O238	O	1.154724	0.182700	0.963854
C239	C	0.594123	-0.328578	0.400517
C240	C	1.094123	0.171422	0.900517
H241	H	0.618965	-0.366812	0.400514
H242	H	1.118965	0.133188	0.900514
H243	H	0.580334	-0.303380	0.336966
H244	H	1.080334	0.196620	0.836966
H245	H	0.534066	-0.324660	0.412853
H246	H	1.034066	0.175340	0.912853
H247	H	0.604452	-0.544919	0.796163
H248	H	1.104452	-0.044919	1.296163
O249	O	1.444364	-0.554774	1.254114
O250	O	1.944364	-0.054774	1.754114
C251	C	1.450271	-0.558834	1.337015
C252	C	1.950271	-0.058834	1.837015
H253	H	1.425712	-0.522066	1.343357
H254	H	1.925712	-0.022066	1.843357
H255	H	1.518594	-0.574940	1.382174
H256	H	2.018594	-0.074940	1.882174
H257	H	1.411286	-0.582780	1.352551
H258	H	1.911286	-0.082780	1.852551
H259	H	1.152276	-0.907955	0.755499
H260	H	1.652276	-0.407955	1.255499
O261	O	1.183839	-0.376682	0.957396
O262	O	1.683839	0.123318	1.457396
C263	C	1.156778	-0.412817	0.924327
C264	C	1.656778	0.087183	1.424327
H265	H	1.180839	-0.447490	0.976730
H266	H	1.680839	0.052510	1.476730
H267	H	1.182293	-0.417982	0.874245
H268	H	1.682293	0.082018	1.374245
H269	H	1.085323	-0.402199	0.895264
H270	H	1.585323	0.097801	1.395264
O271	O	1.395764	-0.819200	0.512320
O272	O	1.895764	-0.319200	1.012320
C273	C	1.361233	-0.816856	0.426562
C274	C	1.861233	-0.316856	0.926562
H275	H	1.329216	-0.846316	0.418442
H276	H	1.829216	-0.346316	0.918442
H277	H	1.413285	-0.821579	0.401687
H278	H	1.913285	-0.321579	0.901687
H279	H	1.313276	-0.780777	0.390210
H280	H	1.813276	-0.280777	0.890210
O281	O	0.557468	-0.407586	0.595604
O282	O	1.057468	0.092414	1.095604
C283	C	0.496867	-0.418864	0.532267
C284	C	0.996867	0.081136	1.032267
H285	H	0.521709	-0.457099	0.532264
H286	H	1.021709	0.042901	1.032264
H287	H	0.483078	-0.393666	0.468716
H288	H	0.983078	0.106334	0.968716
H289	H	0.436810	-0.414947	0.544603
H290	H	0.936810	0.085053	1.044603
H291	H	1.152240	-0.822841	0.755483
H292	H	1.652240	-0.322841	1.255483
O293	O	0.590908	-0.376592	0.550677
O294	O	1.090908	0.123408	1.050677
C295	C	0.578160	-0.372053	0.623893
C296	C	1.078160	0.127947	1.123893
H297	H	0.637329	-0.393189	0.681326
H298	H	1.137329	0.106811	1.181326
H299	H	0.523504	-0.386368	0.626855
H300	H	1.023504	0.113632	1.126855
H301	H	0.563340	-0.332933	0.622702
H302	H	1.063340	0.167067	1.122702
O303	O	1.187606	-0.695755	0.720085
O304	O	1.687606	-0.195755	1.220085
C305	C	1.150405	-0.664977	0.757126
C306	C	1.650405	-0.164977	1.257126
H307	H	1.184707	-0.636571	0.766799
H308	H	1.684707	-0.136571	1.266799
H309	H	1.154688	-0.686268	0.820262
H310	H	1.654688	-0.186268	1.320262
H311	H	1.081739	-0.647203	0.714271
H312	H	1.581739	-0.147203	1.214271
O313	O	1.436754	-0.549566	0.966012
O314	O	1.936754	-0.049566	1.466012
C315	C	1.494613	-0.589160	1.031796
C316	C	1.994613	-0.089160	1.531796
H317	H	1.509901	-0.579639	1.093732
H318	H	2.009901	-0.079639	1.593732
H319	H	1.554496	-0.599499	1.020022
H320	H	2.054496	-0.099499	1.520022
H321	H	1.466230	-0.620358	1.034828
H322	H	1.966230	-0.120358	1.534828
O323	O	0.773310	-0.299073	0.437289
O324	O	1.273310	0.200927	0.937289
C325	C	0.777684	-0.300373	0.359358
C326	C	1.277684	0.199627	0.859358
H327	H	0.839788	-0.326025	0.370177
H328	H	1.339788	0.173975	0.870177
H329	H	0.773197	-0.263237	0.323117
H330	H	1.273197	0.236763	0.823117
H331	H	0.723604	-0.312907	0.321763
H332	H	1.223604	0.187093	0.821763
O333	O	0.942983	-0.322579	0.471587
O334	O	1.442983	0.177421	0.971587
C335	C	0.981934	-0.347619	0.428298
C336	C	1.481934	0.152381	0.928298
H337	H	1.000638	-0.387466	0.459836
H338	H	1.500638	0.112534	0.959836
H339	H	1.040246	-0.336162	0.429528
H340	H	1.540246	0.163838	0.929528
H341	H	0.936416	-0.339475	0.360526
H342	H	1.436416	0.160525	0.860526
O343	O	0.768883	-0.573100	0.837331
O344	O	1.268883	-0.073100	1.337331
C345	C	0.721816	-0.597119	0.872355
C346	C	1.221816	-0.097119	1.372355
H347	H	0.661080	-0.570650	0.862897
H348	H	1.161080	-0.070650	1.362897
H349	H	0.759795	-0.614370	0.942275
H350	H	1.259795	-0.114370	1.442275
H351	H	0.706514	-0.625760	0.840215
H352	H	1.206514	-0.125760	1.340215
H353	H	1.111820	-0.327334	1.304331
H354	H	1.611820	0.172666	1.804331
H355	H	1.194175	-0.606996	0.713380
H356	H	1.694175	-0.106996	1.213380
H357	H	1.302853	-0.458011	1.342831
H358	H	1.802853	0.041989	1.842831
O359	O	1.229116	-0.407533	0.923936
O360	O	1.729116	0.092467	1.423936
C361	C	1.223181	-0.403491	0.841030
C362	C	1.723181	0.096509	1.341030
H363	H	1.284371	-0.425377	0.842101
H364	H	1.784371	0.074623	1.342101
H365	H	1.211043	-0.364557	0.807228
H366	H	1.711043	0.135443	1.307228
H367	H	1.169332	-0.417268	0.806723
H368	H	1.669332	0.082732	1.306723
H369	H	0.879043	-0.548291	0.801088
H370	H	1.379043	-0.048291	1.301088
O371	O	1.187847	-1.268254	0.720037
O372	O	1.687847	-0.768254	1.220037
C373	C	1.125207	-1.281601	0.662361
C374	C	1.625207	-0.781601	1.162361
H375	H	1.107051	-1.257815	0.596439
H376	H	1.607051	-0.757815	1.096439
H377	H	1.067781	-1.277494	0.679305
H378	H	1.567781	-0.777494	1.179305
H379	H	1.150133	-1.320286	0.664702
H380	H	1.650133	-0.820286	1.164702
H381	H	1.347028	-0.692128	0.561003
H382	H	1.847028	-0.192128	1.061003
H383	H	1.194529	-1.179458	0.713559
H384	H	1.694529	-0.679458	1.213559
O385	O	1.070571	-0.299149	1.139889
O386	O	1.570571	0.200851	1.639889
C387	C	1.035516	-0.275153	1.186954
C388	C	1.535516	0.224847	1.686954
H389	H	1.045030	-0.301630	1.247705
H390	H	1.545030	0.198370	1.747705
H391	H	0.965579	-0.257944	1.148991
H392	H	1.465579	0.242056	1.648991
H393	H	1.067591	-0.246481	1.202222
H394	H	1.567591	0.253519	1.702222
H395	H	1.389298	-0.963619	0.519085
H396	H	1.889298	-0.463619	1.019085
H397	H	0.937849	-0.493689	0.721418
H398	H	1.437849	0.006311	1.221418
O399	O	0.984821	-0.464563	0.679028
O400	O	1.484821	0.035437	1.179028
C401	C	1.045387	-0.453283	0.742394
C402	C	1.545387	0.046717	1.242394
H403	H	1.052459	-0.416998	0.716061
H404	H	1.552459	0.083002	1.216061
H405	H	1.108100	-0.481470	0.765573
H406	H	1.608100	0.018530	1.265573
H407	H	1.024580	-0.452261	0.796789
H408	H	1.524580	0.047739	1.296789
H409	H	1.152311	-0.963609	0.755502
H410	H	1.652311	-0.463609	1.255502
O411	O	1.353996	-1.175850	0.554525
O412	O	1.853996	-0.675850	1.054525
C413	C	1.391150	-1.206621	0.517443
C414	C	1.891150	-0.706621	1.017443
H415	H	1.400806	-1.245114	0.551776
H416	H	1.900806	-0.745114	1.051776
H417	H	1.454309	-1.200810	0.521810
H418	H	1.954309	-0.700810	1.021810
H419	H	1.348382	-1.198823	0.448760
H420	H	1.848382	-0.698823	0.948760
O421	O	1.354145	-1.268323	0.554740
O422	O	1.854145	-0.768323	1.054740
C423	C	1.416808	-1.309263	0.612488
C424	C	1.916808	-0.809263	1.112488
H425	H	1.434866	-1.304756	0.678388
H426	H	1.934866	-0.804756	1.178388
H427	H	1.474278	-1.314425	0.595616
H428	H	1.974278	-0.814425	1.095616
H429	H	1.391951	-1.341714	0.610158
H430	H	1.891951	-0.841714	1.110158
O431	O	1.396104	-1.052480	0.512670
O432	O	1.896104	-0.552480	1.012670
C433	C	1.458768	-1.093427	0.570394
C434	C	1.958768	-0.593427	1.070394
H435	H	1.476873	-1.088924	0.636298
H436	H	1.976873	-0.588924	1.136298
H437	H	1.516214	-1.098596	0.553482
H438	H	2.016214	-0.598596	1.053482
H439	H	1.433891	-1.125871	0.568077
H440	H	1.933891	-0.625871	1.068077
H441	H	1.106836	-0.323916	1.029744
H442	H	1.606836	0.176084	1.529744
