data_functionalizedCrystal
_audit_creation_method	'MofGen! by Chris Wilmer'
_symmetry_space_group_name_H-M	'P1'
_symmetry_Int_Tables_number	1
_symmetry_cell_setting	triclinic
loop_
_symmetry_equiv_pos_as_xyz
  x,y,z
_cell_length_a	10.654550
_cell_length_b	9.065218
_cell_length_c	7.540329
_cell_angle_alpha	90.003038
_cell_angle_beta	89.997570
_cell_angle_gamma	95.249606
loop_
_atom_site_label
_atom_site_type_symbol
_atom_site_fract_x
_atom_site_fract_y
_atom_site_fract_z
O1	O	0.184158	-1.959392	-0.147482
O2	O	0.199263	-1.530024	-0.147484
O3	O	0.009010	-1.754580	-0.147477
O4	O	0.374410	-1.734836	-0.147490
O5	O	0.009008	-1.754567	0.147489
O6	O	0.199261	-1.530011	0.147481
O7	O	0.184155	-1.959378	0.147483
Cu8	Cu	0.191708	-1.744693	0.174415
Cu9	Cu	0.191711	-1.744709	-0.174416
O10	O	0.374408	-1.734823	0.147475
C11	C	0.197810	-1.475039	-0.000002
C12	C	0.193469	-1.311220	-0.000003
C13	C	-0.037795	-1.753124	0.000004
C14	C	-0.177255	-1.748786	-0.000002
N15	N	0.191705	-1.744693	0.419763
C16	C	-0.256217	-1.881001	0.000004
C17	C	-0.387254	-1.876917	-0.000009
C18	C	-0.360354	-1.608391	-0.000026
C19	C	-0.229320	-1.612477	-0.000026
C20	C	-0.204153	-2.017310	0.000027
C21	C	-0.283116	-2.149536	0.000035
C22	C	-0.414153	-2.145452	0.000023
C23	C	-0.466226	-2.009142	0.000003
C24	C	0.421213	-1.736279	-0.000009
C25	C	0.560673	-1.740616	-0.000014
C26	C	0.185608	-2.014364	-0.000003
C27	C	0.189949	-2.178183	-0.000014
N28	N	0.191703	-1.744721	-0.419764
H29	H	-0.097457	-2.020651	0.000043
O30	O	-0.410788	-1.475899	0.000203
C31	C	-0.370615	-1.395224	0.152987
H32	H	-0.279300	-1.436361	0.203917
H33	H	-0.353829	-1.272542	0.118625
H34	H	-0.446229	-1.411532	0.259961
O35	O	-0.232330	-2.281813	0.000125
C36	C	-0.099743	-2.257072	0.000091
H37	H	-0.070290	-2.142242	0.055933
H38	H	-0.058538	-2.344366	0.085733
H39	H	-0.063186	-2.264604	-0.141416
H40	H	-0.478442	-2.253116	0.000011
H41	H	-0.572927	-2.005827	-0.000026
O42	O	-0.152428	-1.484185	-0.000100
C43	C	-0.025610	-1.517025	-0.000056
H44	H	-0.019277	-1.632973	-0.055896
H45	H	0.032786	-1.432841	-0.085694
H46	H	0.012209	-1.511815	0.141454
