data_functionalizedCrystal
_audit_creation_method	'MofGen! by Chris Wilmer'
_symmetry_space_group_name_H-M	'P1'
_symmetry_Int_Tables_number	1
_symmetry_cell_setting	triclinic
loop_
_symmetry_equiv_pos_as_xyz
  x,y,z
_cell_length_a	12.759401
_cell_length_b	16.120484
_cell_length_c	12.759393
_cell_angle_alpha	92.862621
_cell_angle_beta	89.982620
_cell_angle_gamma	92.925560
loop_
_atom_site_label
_atom_site_type_symbol
_atom_site_fract_x
_atom_site_fract_y
_atom_site_fract_z
Zn1	Zn	1.584960	-0.331851	-0.615146
Zn2	Zn	1.575915	-0.471289	-0.448359
Zn3	Zn	1.409262	-0.331895	-0.439488
Zn4	Zn	1.400312	-0.471225	-0.623996
O5	O	1.492612	-0.401565	-0.531747
O6	O	1.730780	-0.350357	-0.593029
O7	O	1.553768	-0.452844	-0.300164
O8	O	1.440101	-0.215224	-0.455373
O9	O	1.724135	-0.452801	-0.470492
O10	O	1.569185	-0.215192	-0.584428
O11	O	1.431330	-0.350432	-0.293646
O12	O	1.261055	-0.350369	-0.463955
O13	O	1.424845	-0.452691	-0.769840
O14	O	1.254478	-0.452734	-0.599512
O15	O	1.560505	-0.350294	-0.763338
O16	O	1.545089	-0.587946	-0.479074
O17	O	1.416074	-0.587899	-0.608114
C18	C	1.219646	-0.401550	-0.531732
C19	C	1.102868	-0.401563	-0.531751
C20	C	1.044604	-0.454950	-0.602230
C21	C	0.934879	-0.454961	-0.602242
C22	C	0.941693	-0.348196	-0.461287
C23	C	1.051416	-0.348181	-0.461281
C24	C	1.096056	-0.508332	-0.672701
C25	C	1.037792	-0.561724	-0.743185
C26	C	0.928067	-0.561734	-0.743197
C27	C	0.876607	-0.508353	-0.672725
C28	C	1.478657	-0.618172	-0.545539
C29	C	1.472783	-0.710838	-0.551475
C30	C	1.462065	-0.880498	-0.562333
C31	C	1.523347	-0.921791	-0.501178
C32	C	1.517384	-1.016197	-0.507219
C33	C	1.468028	-0.786085	-0.556293
C34	C	1.766644	-0.401581	-0.531763
C35	C	1.883421	-0.401588	-0.531770
C36	C	1.492686	-0.401480	-0.805775
C37	C	1.492717	-0.401444	-0.922549
C38	C	1.506650	-0.184112	-0.517924
C39	C	1.512632	-0.091447	-0.512033
C40	C	1.428993	-0.348108	-0.974023
C41	C	1.429026	-0.348083	-1.083746
C42	C	1.556517	-0.454733	-1.090511
C43	C	1.556478	-0.454761	-0.980791
C44	C	1.365232	-0.294791	-0.915782
C45	C	1.301503	-0.241450	-0.967256
C46	C	1.301536	-0.241426	-1.076978
C47	C	1.365299	-0.294742	-1.135227
C48	C	1.492603	-0.401590	-0.258781
C49	C	1.492790	-0.401391	-0.141992
H50	H	1.185399	-0.508331	-0.672697
F51	F	1.597775	-0.875330	-0.426809
F52	F	1.365326	-0.294716	-1.252005
H53	H	1.079698	-0.605179	-0.800566
H54	H	1.608383	-0.498181	-0.938879
F55	F	1.387639	-0.926960	-0.636693
H56	H	0.899785	-0.304736	-0.403912
H57	H	1.365200	-0.294804	-0.826440
H58	H	1.249584	-0.198047	-0.919823
H59	H	1.608432	-0.498138	-1.137946
F60	F	0.866061	-0.618551	-0.818218
F61	F	0.759827	-0.508361	-0.672749
F62	F	1.233693	-0.184671	-1.131758
F63	F	1.113428	-0.291361	-0.386269
