data_functionalizedCrystal
_audit_creation_method	'MofGen! by Chris Wilmer'
_symmetry_space_group_name_H-M	'P1'
_symmetry_Int_Tables_number	1
_symmetry_cell_setting	triclinic
loop_
_symmetry_equiv_pos_as_xyz
  x,y,z
_cell_length_a	27.732048
_cell_length_b	17.699083
_cell_length_c	16.776229
_cell_angle_alpha	90.001114
_cell_angle_beta	89.988391
_cell_angle_gamma	97.037165
loop_
_atom_site_label
_atom_site_type_symbol
_atom_site_fract_x
_atom_site_fract_y
_atom_site_fract_z
O1	O	0.061127	-1.003540	-0.066185
O2	O	0.069080	-0.783091	-0.066212
O3	O	-0.005269	-0.900162	-0.066183
O4	O	0.135475	-0.886469	-0.066215
O5	O	-0.005273	-0.900147	0.066394
O6	O	0.069075	-0.783076	0.066364
O7	O	0.061122	-1.003524	0.066391
Zn8	Zn	0.065098	-0.893298	0.087427
Zn9	Zn	0.065104	-0.893318	-0.087248
O10	O	0.135471	-0.886453	0.066362
C11	C	0.068792	-0.754889	0.000073
C12	C	0.067938	-0.670878	0.000063
C13	C	-0.023279	-0.899867	0.000108
C14	C	-0.076937	-0.899001	0.000114
N15	N	0.065094	-0.893289	0.206638
C16	C	-0.415523	-0.962734	0.000081
C17	C	-0.617194	-0.959522	0.000070
O18	O	-0.648240	-1.017801	0.000042
N19	N	-0.636567	-0.890104	0.000062
C20	C	-0.605520	-0.821484	0.000051
O21	O	-0.626625	-0.762366	0.000036
C22	C	-0.403849	-0.824696	0.000057
C23	C	-0.384479	-0.894119	0.000073
C24	C	-0.396152	-1.032151	0.000096
C25	C	-0.345737	-1.032953	0.000103
C26	C	-0.314693	-0.964338	0.000095
C27	C	-0.334064	-0.894921	0.000080
C28	C	-0.372802	-0.756076	0.000041
C29	C	-0.322382	-0.756886	0.000041
C30	C	-0.303012	-0.826308	0.000057
C31	C	-0.252605	-0.827108	0.000080
N32	N	-0.233232	-0.896526	0.000088
C33	C	-0.264276	-0.965141	0.000095
C34	C	-0.711400	-0.819802	0.000050
C35	C	-0.761817	-0.818999	0.000050
C36	C	-0.773488	-0.957038	0.000067
C37	C	-0.723070	-0.957840	0.000072
C38	C	-0.692026	-0.889220	0.000058
C39	C	-0.158401	-0.966820	0.000111
C40	C	-0.107981	-0.967616	0.000122
C41	C	-0.096314	-0.829578	0.000101
C42	C	-0.146730	-0.828781	0.000095
C43	C	-0.177772	-0.897409	0.000097
O44	O	-0.221531	-0.768860	0.000099
O45	O	-0.243161	-1.024251	0.000093
C46	C	-0.465938	-0.961931	0.000074
C47	C	-0.485309	-0.892514	0.000059
C48	C	-0.454265	-0.823899	0.000051
C49	C	-0.535726	-0.891711	0.000059
C50	C	-0.566770	-0.960326	0.000067
C51	C	-0.547397	-1.029744	0.000074
C52	C	-0.496982	-1.030546	0.000082
C53	C	-0.473638	-0.754481	0.000043
C54	C	-0.524053	-0.753685	0.000037
C55	C	-0.555097	-0.822300	0.000045
C56	C	0.153481	-0.886748	0.000069
C57	C	0.207139	-0.887614	0.000058
C58	C	0.061410	-1.031726	0.000105
C59	C	0.062264	-1.115737	0.000109
C60	C	0.111579	-0.621873	0.000053
C61	C	0.110772	-0.542936	0.000064
C62	C	0.066325	-0.513007	0.000078
C63	C	0.022680	-0.562019	0.000090
C64	C	0.023487	-0.640954	0.000085
C65	C	0.019426	-0.243685	0.000111
C66	C	0.018623	-0.164744	0.000113
C67	C	0.106712	-0.145667	0.000089
C68	C	0.107518	-0.224602	0.000084
C69	C	0.063874	-0.273607	0.000100
C70	C	0.064749	-0.359199	0.000090
C71	C	0.065450	-0.427418	0.000082
N72	N	0.065105	-0.893332	-0.206459
C73	C	0.032186	-0.945144	0.248368
C74	C	0.032185	-0.945148	0.331821
C75	C	0.065095	-0.893301	0.373541
C76	C	0.098005	-0.841441	0.331805
C77	C	0.098003	-0.841433	0.248354
C78	C	0.098015	-0.841468	0.668352
C79	C	0.098015	-0.841481	0.751809
C80	C	0.032197	-0.945182	0.751819
C81	C	0.032195	-0.945175	0.668368
C82	C	0.065102	-0.893313	0.626639
C83	C	0.065102	-0.893308	0.536151
C84	C	0.065099	-0.893309	0.464028
H85	H	-0.092213	-1.024151	0.000137
C86	C	-0.004017	-1.002178	0.202480
C87	C	0.014821	-1.059834	0.145097
C88	C	-0.021385	-1.116868	0.099212
C89	C	-0.076428	-1.116246	0.110710
C90	C	-0.095268	-1.058587	0.168096
C91	C	-0.059063	-1.001553	0.213981
H92	H	0.055569	-1.060297	0.136583
H93	H	-0.007437	-1.159551	0.056731
H94	H	-0.103229	-1.158466	0.076743
H95	H	-0.136017	-1.058125	0.176609
H96	H	-0.073010	-0.958871	0.256462
C97	C	0.158778	-0.489030	0.000046
C98	C	0.157895	-0.402204	0.000054
C99	C	0.205904	-0.348297	0.000035
C100	C	0.254795	-0.381216	0.000008
C101	C	0.255680	-0.468047	-0.000000
C102	C	0.207672	-0.521954	0.000019
H103	H	0.121701	-0.377831	0.000073
H104	H	0.205248	-0.284020	0.000041
H105	H	0.290334	-0.341312	-0.000006
H106	H	0.291874	-0.492420	-0.000020
H107	H	0.208327	-0.586231	0.000013
C108	C	-0.028581	-0.297584	0.000115
C109	C	-0.077471	-0.264660	0.000120
C110	C	-0.125481	-0.318563	0.000120
C111	C	-0.124601	-0.405390	0.000115
C112	C	-0.075709	-0.438318	0.000109
C113	C	-0.027699	-0.384415	0.000109
H114	H	-0.078124	-0.200382	0.000124
H115	H	-0.161674	-0.294187	0.000124
H116	H	-0.160140	-0.445292	0.000115
H117	H	-0.075056	-0.502596	0.000106
H118	H	0.008494	-0.408791	0.000106
C119	C	-0.004007	-1.002228	0.797721
C120	C	-0.003262	-1.088400	0.786237
C121	C	-0.039464	-1.145445	0.832136
C122	C	-0.076411	-1.116318	0.889521
C123	C	-0.077158	-1.030142	0.901008
C124	C	-0.040956	-0.973097	0.855109
H125	H	0.024090	-1.109965	0.743755
H126	H	-0.038911	-1.209239	0.823632
H127	H	-0.103209	-1.158547	0.923499
H128	H	-0.104509	-1.008577	0.943490
H129	H	-0.041509	-0.909303	0.863612
H130	H	0.005389	-0.987371	0.365797
H131	H	0.147773	-0.646234	0.000041
C132	C	-0.288235	-0.681401	0.000027
C133	C	-0.290344	-0.624363	-0.068827
C134	C	-0.256197	-0.548879	-0.068838
C135	C	-0.219941	-0.530434	0.000005
C136	C	-0.217831	-0.587474	0.068864
C137	C	-0.251977	-0.662957	0.068875
H138	H	-0.317184	-0.638016	-0.119793
H139	H	-0.257760	-0.506655	-0.119813
H140	H	-0.194664	-0.474557	-0.000004
H141	H	-0.190990	-0.573820	0.119830
H142	H	-0.250414	-0.705181	0.119850
C143	C	-0.677257	-0.744313	0.000045
C144	C	-0.679372	-0.687265	-0.068799
C145	C	-0.645232	-0.611775	-0.068798
C146	C	-0.608977	-0.593333	0.000047
C147	C	-0.606860	-0.650382	0.068896
C148	C	-0.641000	-0.725872	0.068895
H149	H	-0.706211	-0.700916	-0.119766
H150	H	-0.646799	-0.569544	-0.119765
H151	H	-0.583704	-0.537450	0.000047
H152	H	-0.580021	-0.636731	0.119863
H153	H	-0.639433	-0.768103	0.119862
H154	H	-0.017574	-0.140380	0.000126
C155	C	-0.475679	-1.106914	0.000091
C156	C	-0.487443	-1.163737	0.068938
C157	C	-0.466145	-1.240109	0.068945
C158	C	-0.433084	-1.259658	0.000105
C159	C	-0.421318	-1.202834	-0.068747
C160	C	-0.442616	-1.126462	-0.068754
H161	H	-0.511919	-1.149266	0.119902
H162	H	-0.474855	-1.282174	0.119914
H163	H	-0.417318	-1.316193	0.000110
H164	H	-0.396843	-1.217304	-0.119712
H165	H	-0.433906	-1.084397	-0.119724
C166	C	-0.004008	-1.002206	0.622475
C167	C	-0.040210	-1.059244	0.668375
C168	C	-0.076414	-1.116274	0.622483
C169	C	-0.076416	-1.116266	0.530690
C170	C	-0.040213	-1.059226	0.484785
C171	C	-0.004009	-1.002196	0.530677
H172	H	-0.040209	-1.059252	0.736330
H173	H	-0.103214	-1.158499	0.656466
H174	H	-0.103217	-1.158482	0.496718
H175	H	-0.040213	-1.059217	0.416830
H176	H	0.022792	-0.959971	0.496695
H177	H	0.124816	-0.799257	0.785776
C178	C	0.134215	-0.784428	0.622453
C179	C	0.170431	-0.727421	0.668340
C180	C	0.206633	-0.670380	0.622435
C181	C	0.206619	-0.670348	0.530643
C182	C	0.170401	-0.727358	0.484750
C183	C	0.134199	-0.784398	0.530656
H184	H	0.170443	-0.727443	0.736295
H185	H	0.233444	-0.628177	0.656408
H186	H	0.233418	-0.628123	0.496661
H187	H	0.170389	-0.727336	0.416796
H188	H	0.107388	-0.826601	0.496683
C189	C	-0.581551	-1.105222	0.000081
C190	C	-0.617831	-1.123639	0.068919
C191	C	-0.651988	-1.199111	0.068920
C192	C	-0.649866	-1.256168	0.000083
C193	C	-0.613584	-1.237753	-0.068761
C194	C	-0.579427	-1.162280	-0.068762
H195	H	-0.619404	-1.081401	0.119882
H196	H	-0.678846	-1.212743	0.119883
H197	H	-0.675151	-1.312037	0.000083
H198	H	-0.612012	-1.279990	-0.119724
H199	H	-0.552569	-1.148648	-0.119725
H200	H	-0.013510	-0.537645	0.000113
H201	H	0.124800	-0.799222	0.365779
C202	C	0.134203	-0.784394	0.202449
C203	C	0.170421	-0.727388	0.248337
C204	C	0.206621	-0.670344	0.202432
C205	C	0.206603	-0.670305	0.110640
C206	C	0.170384	-0.727312	0.064747
C207	C	0.134184	-0.784357	0.110651
H208	H	0.170436	-0.727415	0.316292
H209	H	0.233433	-0.628143	0.236406
H210	H	0.233401	-0.628077	0.076659
H211	H	0.170370	-0.727285	-0.003208
H212	H	0.107372	-0.826557	0.076677
C213	C	-0.439495	-0.678998	0.000043
C214	C	-0.441605	-0.621949	-0.068801
C215	C	-0.407465	-0.546460	-0.068795
C216	C	-0.371214	-0.528019	0.000056
C217	C	-0.369102	-0.585069	0.068905
C218	C	-0.403243	-0.660559	0.068899
H219	H	-0.468442	-0.635599	-0.119773
H220	H	-0.409028	-0.504228	-0.119762
H221	H	-0.345941	-0.472137	0.000061
H222	H	-0.342266	-0.571420	0.119877
H223	H	-0.401679	-0.702791	0.119866
H224	H	-0.183670	-1.022703	0.000110
H225	H	-0.329971	-1.089484	0.000113
H226	H	-0.421424	-1.088028	0.000099
H227	H	-0.388565	-0.699545	0.000024
H228	H	-0.707302	-1.014370	0.000085
H229	H	-0.012050	-0.680855	0.000093
H230	H	0.143712	-0.248965	0.000069
H231	H	-0.798773	-1.012907	0.000073
H232	H	-0.162502	-0.772252	0.000104
H233	H	-0.777584	-0.762468	0.000051
H234	H	-0.071029	-0.773714	0.000098
H235	H	-0.539820	-0.697148	0.000031
H236	H	0.142249	-0.105758	0.000080
