data_functionalizedCrystal
_audit_creation_method	'MofGen! by Chris Wilmer'
_symmetry_space_group_name_H-M	'P1'
_symmetry_Int_Tables_number	1
_symmetry_cell_setting	triclinic
loop_
_symmetry_equiv_pos_as_xyz
  x,y,z
_cell_length_a	20.299480
_cell_length_b	20.298645
_cell_length_c	20.294903
_cell_angle_alpha	60.007695
_cell_angle_beta	60.015306
_cell_angle_gamma	59.991039
loop_
_atom_site_label
_atom_site_type_symbol
_atom_site_fract_x
_atom_site_fract_y
_atom_site_fract_z
O1	O	0.091305	-0.962534	0.804873
O2	O	0.591305	-0.462534	1.304873
O3	O	0.034397	-0.749399	0.648508
O4	O	0.534397	-0.249399	1.148508
O5	O	0.169355	-0.884263	0.648401
O6	O	0.669355	-0.384263	1.148401
O7	O	-0.043654	-0.827670	0.804979
O8	O	0.456346	-0.327670	1.304979
O9	O	0.214132	-0.839502	0.693072
O10	O	0.714132	-0.339502	1.193072
O11	O	0.079173	-0.704639	0.693178
O12	O	0.579173	-0.204639	1.193178
O13	O	0.136081	-0.917774	0.849544
O14	O	0.636081	-0.417774	1.349544
Zn15	Zn	0.114736	-0.804099	0.778453
Zn16	Zn	0.614736	-0.304099	1.278453
Zn17	Zn	0.055742	-0.863073	0.719598
Zn18	Zn	0.555742	-0.363073	1.219598
O19	O	0.001122	-0.782910	0.849650
O20	O	0.501122	-0.282910	1.349650
N21	N	0.155000	-0.763857	0.818624
N22	N	0.655000	-0.263857	1.318624
N23	N	0.015485	-0.903322	0.679427
N24	N	0.515485	-0.403322	1.179427
C25	C	0.179343	-0.615641	0.842971
C26	C	0.679343	-0.115641	1.342971
C27	C	0.179443	-0.739552	0.966834
C28	C	0.679443	-0.239552	1.466834
C29	C	0.303264	-0.739536	0.842917
C30	C	0.803264	-0.239536	1.342917
C31	C	0.179356	-0.739528	0.842952
C32	C	0.679356	-0.239528	1.342952
C33	C	0.210353	-0.708565	0.873918
C34	C	0.710353	-0.208565	1.373918
C35	C	-0.132622	-0.927446	0.654695
C36	C	0.367378	-0.427446	1.154695
C37	C	-0.008595	-0.927622	0.530981
C38	C	0.491405	-0.427622	1.030981
C39	C	-0.008820	-1.051459	0.654914
C40	C	0.491180	-0.551459	1.154914
C41	C	-0.008800	-0.927618	0.654995
C42	C	0.491200	-0.427618	1.154995
C43	C	-0.039709	-0.958538	0.623897
C44	C	0.460291	-0.458538	1.123897
N45	N	0.376268	-0.763873	0.818558
N46	N	0.876268	-0.263873	1.318558
O47	O	0.652281	-0.777347	0.619856
O48	O	1.152281	-0.277347	1.119856
O49	O	0.652556	-0.934198	0.832777
O50	O	1.152556	-0.434198	1.332777
O51	O	0.652445	-0.933836	0.697731
O52	O	1.152445	-0.433836	1.197731
O53	O	0.652392	-0.777709	0.754902
O54	O	1.152392	-0.277709	1.254902
O55	O	0.518259	-0.889182	0.742556
O56	O	1.018259	-0.389182	1.242556
O57	O	0.518369	-0.889544	0.877602
O58	O	1.018369	-0.389544	1.377602
O59	O	0.518095	-0.732693	0.664680
O60	O	1.018095	-0.232693	1.164680
Zn61	Zn	0.496927	-0.804029	0.778258
Zn62	Zn	0.996927	-0.304029	1.278258
Zn63	Zn	0.673724	-0.862862	0.719200
Zn64	Zn	1.173724	-0.362862	1.219200
O65	O	0.518205	-0.733055	0.799726
O66	O	1.018205	-0.233055	1.299726
N67	N	0.794383	-0.903019	0.678891
N68	N	1.294383	-0.403019	1.178891
N69	N	0.154981	-0.542636	0.818657
N70	N	0.654981	-0.042636	1.318657
O71	O	-0.043628	-0.266455	0.805024
O72	O	0.456372	0.233545	1.305024
O73	O	0.169291	-0.266451	0.648191
O74	O	0.669291	0.233549	1.148191
O75	O	0.034217	-0.266468	0.648577
O76	O	0.534217	0.233532	1.148577
O77	O	0.091446	-0.266438	0.804638
O78	O	0.591446	0.233562	1.304638
O79	O	0.078998	-0.400670	0.693303
O80	O	0.578998	0.099330	1.193303
O81	O	0.214071	-0.400653	0.692918
O82	O	0.714071	0.099347	1.192918
O83	O	0.001152	-0.400657	0.849750
O84	O	0.501152	0.099343	1.349750
Zn85	Zn	0.114722	-0.421963	0.778435
Zn86	Zn	0.614722	0.078037	1.278435
Zn87	Zn	0.055722	-0.245145	0.719506
Zn88	Zn	0.555722	0.254855	1.219506
O89	O	0.136226	-0.400640	0.849364
O90	O	0.636226	0.099360	1.349364
N91	N	0.015453	-0.124472	0.679286
N92	N	0.515453	0.375528	1.179286
N93	N	0.155155	-0.763898	1.039838
N94	N	0.655155	-0.263898	1.539838
O95	O	0.141555	-0.962488	1.315987
O96	O	0.641555	-0.462488	1.815987
O97	O	-0.015254	-0.749480	1.316022
O98	O	0.484746	-0.249480	1.816022
O99	O	-0.014890	-0.884527	1.315962
O100	O	0.485110	-0.384527	1.815962
O101	O	0.141192	-0.827441	1.316047
O102	O	0.641192	-0.327441	1.816047
O103	O	0.029815	-0.839777	1.181768
O104	O	0.529815	-0.339777	1.681768
O105	O	0.029452	-0.704730	1.181828
O106	O	0.529452	-0.204730	1.681828
O107	O	0.186261	-0.917739	1.181793
O108	O	0.686261	-0.417739	1.681793
Zn109	Zn	0.114954	-0.804130	1.160504
Zn110	Zn	0.614954	-0.304130	1.660504
Zn111	Zn	0.056053	-0.863089	1.337311
Zn112	Zn	0.556053	-0.363089	1.837311
O113	O	0.185897	-0.782692	1.181853
O114	O	0.685897	-0.282692	1.681853
N115	N	0.015850	-0.903330	1.457977
N116	N	0.515850	-0.403330	1.957977
C117	C	0.051451	-0.700162	0.649301
C118	C	0.551451	-0.200162	1.149301
C119	C	0.218580	-0.867175	0.649169
C120	C	0.718580	-0.367175	1.149169
C121	C	0.119026	-0.967011	0.848750
C122	C	0.619026	-0.467011	1.348750
C123	C	-0.048103	-0.799998	0.848882
C124	C	0.451897	-0.299998	1.348882
C125	C	0.585495	-0.933471	0.882014
C126	C	1.085495	-0.433471	1.382014
C127	C	0.585361	-0.933023	0.714775
C128	C	1.085361	-0.433023	1.214775
C129	C	0.585151	-0.733419	0.615444
C130	C	1.085151	-0.233419	1.115444
C131	C	0.585291	-0.733869	0.782682
C132	C	1.085291	-0.233869	1.282682
C133	C	0.218449	-0.333386	0.648902
C134	C	0.718449	0.166614	1.148902
C135	C	0.051232	-0.333573	0.649435
C136	C	0.551232	0.166427	1.149435
C137	C	-0.048061	-0.333556	0.848984
C138	C	0.451939	0.166444	1.348984
C139	C	0.119212	-0.333537	0.848507
C140	C	0.619212	0.166463	1.348507
C141	C	-0.014496	-0.700269	1.248929
C142	C	0.485504	-0.200269	1.748929
C143	C	-0.014037	-0.867500	1.248828
C144	C	0.485963	-0.367500	1.748828
C145	C	0.185503	-0.966949	1.248886
C146	C	0.685503	-0.466949	1.748886
C147	C	0.185054	-0.799709	1.248957
C148	C	0.685054	-0.299709	1.748957
H149	H	0.039295	-0.638935	0.600193
H150	H	0.539295	-0.138935	1.100193
H151	H	-0.063051	-0.879692	1.248749
H152	H	0.436949	-0.379692	1.748749
H153	H	0.131184	-1.028235	0.897860
H154	H	0.631184	-0.528235	1.397860
H155	H	0.585279	-0.684826	0.794916
H156	H	1.085279	-0.184826	1.294916
O157	O	0.291316	-0.333047	0.590114
O158	O	0.791316	0.166953	1.090114
C159	C	0.434965	-0.401937	0.550638
C160	C	0.934965	0.098063	1.050638
C161	C	0.352496	-0.402409	0.617286
C162	C	0.852496	0.097591	1.117286
H163	H	0.484449	-0.458018	0.572575
H164	H	0.984449	0.041982	1.072575
H165	H	0.446523	-0.345684	0.535580
H166	H	0.946523	0.154316	1.035580
H167	H	0.434965	-0.401781	0.494387
H168	H	0.934965	0.098219	0.994387
H169	H	0.352435	-0.402593	0.673579
H170	H	0.852435	0.097407	1.173579
H171	H	0.340971	-0.458656	0.632275
H172	H	0.840971	0.041344	1.132275
H173	H	-0.109285	-0.787936	0.898049
H174	H	0.390715	-0.287936	1.398049
H175	H	0.279759	-0.879241	0.599998
H176	H	0.779759	-0.379241	1.099998
H177	H	0.585565	-0.982710	0.943168
H178	H	1.085565	-0.482710	1.443168
O179	O	0.036506	-0.333641	0.591050
O180	O	0.536506	0.166359	1.091050
C181	C	-0.059386	-0.333662	0.554173
C182	C	0.440614	0.166338	1.054173
C183	C	-0.042816	-0.333587	0.620365
C184	C	0.457184	0.166413	1.120365
H185	H	-0.123522	-0.333601	0.577844
H186	H	0.376478	0.166399	1.077844
H187	H	-0.014760	-0.389852	0.536563
H188	H	0.485240	0.110148	1.036563
H189	H	-0.052154	-0.277524	0.499081
H190	H	0.447846	0.222476	0.999081
H191	H	-0.050058	-0.389687	0.675500
H192	H	0.449942	0.110313	1.175500
H193	H	-0.087439	-0.277361	0.637907
H194	H	0.412561	0.222639	1.137907
H195	H	0.585383	-0.982069	0.702538
H196	H	1.085383	-0.482069	1.202538
H197	H	-0.109209	-0.333558	0.898221
H198	H	0.390791	0.166442	1.398221
H199	H	0.585062	-0.684173	0.554297
H200	H	1.085062	-0.184173	1.054297
O201	O	0.133974	-0.333578	0.906928
O202	O	0.633974	0.166422	1.406928
C203	C	0.229861	-0.333542	0.943800
C204	C	0.729861	0.166458	1.443800
C205	C	0.213255	-0.333507	0.877572
C206	C	0.713255	0.166493	1.377572
H207	H	0.293953	-0.333468	0.920085
H208	H	0.793953	0.166532	1.420085
H209	H	0.222733	-0.389724	0.998868
H210	H	0.722733	0.110276	1.498868
H211	H	0.185162	-0.277396	0.961464
H212	H	0.685162	0.222604	1.461464
H213	H	0.257940	-0.389615	0.859840
H214	H	0.757940	0.110385	1.359840
H215	H	0.220355	-0.277289	0.822548
H216	H	0.720355	0.222711	1.322548
O217	O	0.243480	-0.785000	1.248939
O218	O	0.743480	-0.285000	1.748939
C219	C	0.280366	-0.689169	1.249031
C220	C	0.780366	-0.189169	1.749031
C221	C	0.214134	-0.705712	1.249032
C222	C	0.714134	-0.205712	1.749032
H223	H	0.256658	-0.625072	1.249123
H224	H	0.756658	-0.125072	1.749123
H225	H	0.335428	-0.696335	1.192856
H226	H	0.835428	-0.196335	1.692856
H227	H	0.298030	-0.733884	1.305177
H228	H	0.798030	-0.233884	1.805177
H229	H	0.196401	-0.661013	1.192925
H230	H	0.696401	-0.161013	1.692925
H231	H	0.159116	-0.698574	1.305244
H232	H	0.659116	-0.198574	1.805244
H233	H	-0.063726	-0.639093	1.248939
H234	H	0.436274	-0.139093	1.748939
O235	O	0.244139	-1.039985	1.248907
O236	O	0.744139	-0.539985	1.748907
C237	C	0.281672	-1.172888	1.248801
C238	C	0.781672	-0.672888	1.748801
C239	C	0.215189	-1.090219	1.248799
C240	C	0.715189	-0.590219	1.748799
H241	H	0.258296	-1.213520	1.248696
H242	H	0.758296	-0.713520	1.748696
H243	H	0.299273	-1.201936	1.304982
H244	H	0.799273	-0.701936	1.804982
H245	H	0.336694	-1.164386	1.192662
H246	H	0.836694	-0.664386	1.692662
H247	H	0.160124	-1.098651	1.304900
H248	H	0.660124	-0.598651	1.804900
H249	H	0.197656	-1.061200	1.192580
H250	H	0.697656	-0.561200	1.692580
