data_functionalizedCrystal
_audit_creation_method	'MofGen! by Chris Wilmer'
_symmetry_space_group_name_H-M	'P1'
_symmetry_Int_Tables_number	1
_symmetry_cell_setting	triclinic
loop_
_symmetry_equiv_pos_as_xyz
  x,y,z
_cell_length_a	10.540510
_cell_length_b	10.540539
_cell_length_c	18.366186
_cell_angle_alpha	89.995944
_cell_angle_beta	89.990723
_cell_angle_gamma	84.519401
loop_
_atom_site_label
_atom_site_type_symbol
_atom_site_fract_x
_atom_site_fract_y
_atom_site_fract_z
O1	O	1.685917	0.178722	-0.060550
O2	O	1.316500	0.195618	-0.060551
O3	O	1.509637	0.002463	-0.060550
O4	O	1.492780	0.371877	-0.060551
O5	O	1.509603	0.002453	0.060550
O6	O	1.316466	0.195608	0.060549
O7	O	1.685884	0.178712	0.060549
Zn8	Zn	1.501170	0.187158	0.079776
Zn9	Zn	1.501214	0.187172	-0.079778
O10	O	1.492747	0.371867	0.060548
C11	C	1.269179	0.194354	-0.000001
C12	C	1.128229	0.190587	-0.000001
C13	C	1.508356	-0.044845	-0.000001
C14	C	1.504574	-0.185793	-0.000005
C15	C	0.910774	0.324771	-0.000280
C16	C	1.057370	0.328789	-0.000003
C17	C	1.083451	0.119835	0.069151
C18	C	0.936690	0.116796	0.069205
C19	C	0.936921	0.113929	-0.068508
C20	C	1.083263	0.120484	-0.069417
C21	C	1.359655	-0.369204	-0.000277
C22	C	1.363489	-0.222587	-0.000004
C23	C	1.572451	-0.247464	0.069149
C24	C	1.567636	-0.394007	0.069207
C25	C	1.570544	-0.394515	-0.068506
C26	C	1.571843	-0.247533	-0.069420
C27	C	1.733204	0.179976	-0.000002
C28	C	1.874154	0.183743	-0.000007
C29	C	1.494028	0.419175	-0.000002
C30	C	1.497810	0.560123	-0.000003
N31	N	1.501149	0.187149	0.188667
N32	N	1.501244	0.187171	-0.188669
C33	C	1.586699	0.101663	0.226768
C34	C	1.586707	0.101657	0.302996
C35	C	1.501178	0.187160	0.341120
C36	C	1.415612	0.272652	0.303010
C37	C	1.415598	0.272647	0.226783
C38	C	1.485594	0.302626	0.461880
C39	C	1.485617	0.302633	0.538105
C40	C	1.501214	0.187176	0.576227
C41	C	1.516815	0.071707	0.538116
C42	C	1.516801	0.071702	0.461890
C43	C	1.501183	0.187174	0.423775
C44	C	1.586777	0.101676	0.696983
C45	C	1.586776	0.101669	0.773212
C46	C	1.415687	0.272676	0.773225
C47	C	1.415682	0.272672	0.696997
C48	C	1.501233	0.187174	0.658881
H49	H	1.086729	0.384139	-0.049576
C50	C	1.147472	-0.017605	0.072635
H51	H	1.202216	-0.033093	0.031851
H52	H	1.083924	-0.075715	0.071993
H53	H	1.195801	-0.028788	0.116209
C54	C	1.680888	0.007631	0.815124
H55	H	1.731842	-0.043276	0.781503
H56	H	1.634762	-0.045656	0.844870
H57	H	1.734144	0.053821	0.844848
C58	C	1.710805	-0.214838	-0.075063
H59	H	1.729703	-0.162882	-0.034977
H60	H	1.721975	-0.170248	-0.119200
H61	H	1.766476	-0.291226	-0.074475
H62	H	1.472870	0.396651	0.430846
H63	H	1.346042	0.342289	0.804265
H64	H	1.303937	-0.397794	-0.049868
H65	H	1.346024	0.342288	0.665973
C66	C	1.284653	-0.409990	0.066344
H67	H	1.337170	-0.469898	0.094326
H68	H	1.211244	-0.447857	0.050445
H69	H	1.259295	-0.337371	0.095371
H70	H	1.132332	0.019587	-0.073593
C71	C	1.680788	0.007605	0.184844
H72	H	1.731732	-0.043317	0.218457
H73	H	1.734037	0.053768	0.155093
H74	H	1.634632	-0.045685	0.155123
C75	C	1.680818	0.007626	0.344919
H76	H	1.668567	0.019872	0.395776
H77	H	1.765658	0.022228	0.332413
H78	H	1.666268	-0.077240	0.332438
C79	C	1.290799	-0.166160	0.067073
H80	H	1.292884	-0.076254	0.067465
H81	H	1.329826	-0.201411	0.110091
H82	H	1.204824	-0.185988	0.065038
C83	C	1.708202	-0.458335	-0.069142
H84	H	1.721338	-0.512371	-0.027888
H85	H	1.766127	-0.394657	-0.067625
H86	H	1.722052	-0.507381	-0.112301
C87	C	0.854127	0.397524	-0.067275
H88	H	0.877333	0.482416	-0.066424
H89	H	0.763903	0.398843	-0.066366
H90	H	0.886221	0.356203	-0.110373
C91	C	0.852004	0.397083	0.066339
H92	H	0.805251	0.341700	0.094320
H93	H	0.796537	0.467998	0.050440
H94	H	0.917981	0.426141	0.095368
C95	C	0.906989	-0.026239	-0.069145
H96	H	0.856491	-0.042189	-0.027892
H97	H	0.984338	-0.080387	-0.067625
H98	H	0.861639	-0.042604	-0.112305
H99	H	1.517444	-0.422206	0.120901
C100	C	1.468465	0.429641	0.580020
H101	H	1.459153	0.498401	0.546400
H102	H	1.541069	0.437384	0.609742
H103	H	1.394572	0.431502	0.609769
C104	C	1.291319	-0.165011	-0.066963
H105	H	1.259384	-0.231224	-0.094576
H106	H	1.347653	-0.121615	-0.096224
H107	H	1.222367	-0.106689	-0.051395
H108	H	1.085760	0.384467	0.049651
C109	C	1.704696	-0.458836	0.073464
H110	H	1.702684	-0.548753	0.073527
H111	H	1.744016	-0.433322	0.116915
H112	H	1.751938	-0.434438	0.032571
H113	H	1.676060	-0.225121	0.071720
H114	H	1.345970	0.342268	0.334054
H115	H	0.894387	0.157516	-0.120922
C116	C	1.508710	-0.189937	0.138671
H117	H	1.440742	-0.128353	0.125701
H118	H	1.569681	-0.150373	0.166652
H119	H	1.476351	-0.255607	0.166543
H120	H	1.529501	-0.022317	0.430862
C121	C	1.121942	0.190012	-0.138532
H122	H	1.094472	0.147154	-0.180339
H123	H	1.211978	0.190602	-0.139805
H124	H	1.083218	0.275176	-0.138096
H125	H	1.524896	-0.426058	-0.120920
H126	H	1.345931	0.342261	0.195761
C127	C	1.504852	-0.192217	-0.138534
H128	H	1.436176	-0.131742	-0.125150
H129	H	1.473075	-0.259053	-0.165688
H130	H	1.563976	-0.151699	-0.167397
C131	C	0.882333	0.182115	0.139029
H132	H	0.949975	0.210261	0.167094
H133	H	0.839298	0.123242	0.166678
H134	H	0.824208	0.253167	0.126390
H135	H	0.913694	0.013429	0.072347
H136	H	1.529515	-0.022309	0.569154
C137	C	1.125095	0.186204	0.138675
H138	H	1.169757	0.257020	0.125707
H139	H	1.179222	0.127729	0.166655
H140	H	1.051982	0.214837	0.166547
H141	H	1.656435	0.032055	0.665948
