data_functionalizedCrystal
_audit_creation_method	'MofGen! by Chris Wilmer'
_symmetry_space_group_name_H-M	'P1'
_symmetry_Int_Tables_number	1
_symmetry_cell_setting	triclinic
loop_
_symmetry_equiv_pos_as_xyz
  x,y,z
_cell_length_a	16.974800
_cell_length_b	9.198806
_cell_length_c	16.974813
_cell_angle_alpha	93.657744
_cell_angle_beta	83.627081
_cell_angle_gamma	86.347127
loop_
_atom_site_label
_atom_site_type_symbol
_atom_site_fract_x
_atom_site_fract_y
_atom_site_fract_z
O1	O	1.049039	0.009272	0.100721
O2	O	0.818818	0.037882	0.113569
O3	O	0.940347	0.009273	-0.007965
O4	O	0.927511	0.037882	0.222256
O5	O	0.940337	-0.232511	-0.007966
O6	O	0.818809	-0.203901	0.113569
O7	O	1.049029	-0.232512	0.100721
Cu8	Cu	0.933918	-0.240283	0.107145
Cu9	Cu	0.933929	0.045654	0.107145
O10	O	0.927501	-0.203902	0.222256
C11	C	0.789355	-0.079599	0.113083
C12	C	0.701580	-0.069439	0.111623
C13	C	0.660343	-0.196466	0.110935
C14	C	0.577870	-0.186926	0.109551
C15	C	0.536636	-0.050356	0.108860
C16	C	0.577879	0.076680	0.109546
C17	C	0.660351	0.067137	0.110924
C18	C	0.289983	-0.007684	0.104732
C19	C	0.207505	0.001850	0.103355
C20	C	0.207502	-0.261757	0.103359
C21	C	0.289974	-0.271287	0.104742
C22	C	0.331211	-0.144252	0.105424
N23	N	0.452335	-0.040600	0.107448
N24	N	0.415511	-0.154010	0.106830
N25	N	0.933916	-0.441397	0.107144
C26	C	0.984944	-0.525633	0.055893
C27	C	0.984957	-0.693047	0.055890
C28	C	1.078492	-0.115027	0.101208
C29	C	1.166267	-0.125177	0.102668
N30	N	0.933938	0.246767	0.107140
C31	C	0.939853	-0.115026	-0.037423
C32	C	0.938389	-0.125176	-0.125198
C33	C	0.937708	0.001851	-0.166431
C34	C	0.936327	-0.007690	-0.248904
C35	C	0.935632	-0.144260	-0.290144
C36	C	0.936311	-0.271296	-0.248906
C37	C	0.937686	-0.261753	-0.166433
C38	C	0.931513	-0.186933	-0.536800
C39	C	0.930140	-0.196467	-0.619279
C40	C	0.930154	0.067140	-0.619271
C41	C	0.931534	0.076670	-0.536798
C42	C	0.932209	-0.050365	-0.495566
N43	N	0.934223	-0.154016	-0.374446
N44	N	0.933612	-0.040607	-0.411265
C45	C	0.927994	-0.079600	0.251714
C46	C	0.929459	-0.069440	0.339489
H47	H	0.323542	-0.382497	0.105301
Cl48	Cl	0.155657	-0.421449	0.102499
Cl49	Cl	0.935472	0.152009	-0.300736
H50	H	0.693925	0.170577	0.111486
H51	H	1.028620	-0.473813	0.012013
Cl52	Cl	0.526046	0.248365	0.108648
H53	H	1.028647	-0.765440	0.012014
H54	H	0.890251	-0.680849	0.151024
Cl55	Cl	0.155668	0.173551	0.102490
H56	H	0.890235	-0.493220	0.151018
H57	H	0.693909	-0.307675	0.111504
Cl58	Cl	0.938586	0.173547	-0.114595
Cl59	Cl	0.932409	0.248365	-0.484959
H60	H	0.929603	0.170565	-0.652851
H61	H	0.323548	0.095758	0.105284
Cl62	Cl	0.929271	-0.368169	-0.671124
H63	H	0.932078	-0.290377	-0.503242
Cl64	Cl	0.935428	-0.442984	-0.300750
H65	H	0.544300	-0.290366	0.108977
Cl66	Cl	0.938541	-0.421451	-0.114598
