data_functionalizedCrystal
_audit_creation_method	'MofGen! by Chris Wilmer'
_symmetry_space_group_name_H-M	'P1'
_symmetry_Int_Tables_number	1
_symmetry_cell_setting	triclinic
loop_
_symmetry_equiv_pos_as_xyz
  x,y,z
_cell_length_a	10.489741
_cell_length_b	23.532407
_cell_length_c	9.565339
_cell_angle_alpha	89.995586
_cell_angle_beta	89.999100
_cell_angle_gamma	83.693926
loop_
_atom_site_label
_atom_site_type_symbol
_atom_site_fract_x
_atom_site_fract_y
_atom_site_fract_z
O1	O	1.691382	0.080340	-0.116190
O2	O	1.319936	0.087882	-0.116213
O3	O	1.516860	0.001253	-0.116175
O4	O	1.494458	0.166968	-0.116228
O5	O	1.516844	0.001259	0.116345
O6	O	1.319920	0.087887	0.116307
O7	O	1.691366	0.080345	0.116330
Zn8	Zn	1.505641	0.084117	0.153236
Zn9	Zn	1.505661	0.084110	-0.153119
O10	O	1.494442	0.166974	0.116293
C11	C	1.272415	0.087315	0.000045
C12	C	1.130842	0.085611	0.000037
C13	C	1.064535	0.030491	0.000067
C14	C	0.971550	0.056527	-0.114582
C15	C	0.971568	0.056545	0.114664
C16	C	1.039722	0.111668	-0.114708
C17	C	1.039750	0.111679	0.114642
C18	C	0.946792	0.137754	-0.000036
C19	C	1.516282	-0.019964	0.000089
C20	C	1.514566	-0.083192	0.000099
C21	C	1.620344	-0.481594	0.000029
C22	C	1.618751	-0.541005	0.000019
O23	O	1.716808	-0.577100	-0.000027
N24	N	1.501680	-0.564407	0.000012
C25	C	1.386194	-0.528395	0.000002
O26	O	1.286470	-0.553755	-0.000005
C27	C	1.387789	-0.468985	0.000003
C28	C	1.504868	-0.445587	0.000024
C29	C	1.737414	-0.458195	0.000048
C30	C	1.739007	-0.398788	0.000062
C31	C	1.623530	-0.362781	0.000056
C32	C	1.506460	-0.386180	0.000037
C33	C	1.272305	-0.432974	-0.000017
C34	C	1.273909	-0.373561	-0.000017
C35	C	1.390988	-0.350162	0.000003
C36	C	1.392576	-0.290766	0.000045
N37	N	1.509648	-0.267364	0.000051
C38	C	1.625125	-0.303371	0.000057
C39	C	1.382854	-0.653160	-0.000002
C40	C	1.381258	-0.712568	0.000008
C41	C	1.613816	-0.725174	0.000021
C42	C	1.615410	-0.665765	0.000022
C43	C	1.499926	-0.629758	0.000005
C44	C	1.628461	-0.178612	0.000086
C45	C	1.630043	-0.119200	0.000105
C46	C	1.397486	-0.106599	0.000084
C47	C	1.395903	-0.166006	0.000072
C48	C	1.511401	-0.202012	0.000068
O49	O	1.294571	-0.254636	0.000084
O50	O	1.724833	-0.278003	0.000046
C51	C	1.738887	0.080912	0.000070
C52	C	1.880460	0.082616	0.000069
C53	C	1.495021	0.188191	0.000026
C54	C	1.496736	0.251419	0.000006
N55	N	1.505636	0.084122	0.362316
N56	N	1.505676	0.084101	-0.362198
C57	C	1.414538	0.124171	0.453501
C58	C	1.529652	0.135693	0.546683
C59	C	1.390572	0.072603	0.546689
C60	C	1.620808	0.095670	0.453446
C61	C	1.481652	0.032557	0.453444
C62	C	1.596850	0.044059	0.546584
H63	H	1.725387	-0.100152	0.000125
O64	O	0.879333	0.197838	-0.000109
H65	H	0.906621	0.220573	-0.095368
O66	O	1.741685	-0.640528	0.000018
H67	H	1.821708	-0.675553	0.000010
H68	H	1.718153	0.105455	0.412660
O69	O	1.258289	-0.614323	0.000017
H70	H	1.176623	-0.640582	0.000030
H71	H	1.115731	-0.014820	-0.000062
O72	O	1.079874	0.142547	0.243014
H73	H	1.052918	0.119581	0.338055
O74	O	1.079553	0.142523	-0.243254
H75	H	1.031180	0.186908	-0.243574
O76	O	1.312577	0.169069	0.399357
H77	H	1.312855	0.168409	0.283330
O78	O	0.931558	0.025651	0.243071
H79	H	0.979207	-0.018860	0.242833
O80	O	1.556524	0.193434	0.601022
H81	H	1.480748	0.226614	0.563781
O82	O	0.931477	0.025635	-0.242951
H83	H	0.979095	-0.018882	-0.242702
O84	O	1.699018	-0.000819	0.600395
H85	H	1.697762	-0.000760	0.716425
H86	H	1.293248	0.062870	0.587651
O87	O	1.753029	-0.217443	0.000102
H88	H	1.834692	-0.191183	0.000134
O89	O	1.865291	-0.373560	0.000044
H90	H	1.920751	-0.387996	0.094803
O91	O	1.861974	-0.497028	0.000074
H92	H	1.943634	-0.470767	0.000102
O93	O	1.738373	-0.764016	0.000013
H94	H	1.717585	-0.809257	-0.000008
O95	O	1.254982	-0.737804	0.000004
H96	H	1.174959	-0.702779	-0.000006
H97	H	1.300568	-0.185058	0.000094
O98	O	1.146026	-0.458203	-0.000044
H99	H	1.066009	-0.423175	-0.000065
O100	O	1.149348	-0.334723	-0.000019
H101	H	1.067678	-0.360979	-0.000019
O102	O	1.272938	-0.067758	0.000076
H103	H	1.293727	-0.022517	0.000072
H104	H	1.461303	-0.011026	0.412456
