data_functionalizedCrystal
_audit_creation_method	'MofGen! by Chris Wilmer'
_symmetry_space_group_name_H-M	'P1'
_symmetry_Int_Tables_number	1
_symmetry_cell_setting	triclinic
loop_
_symmetry_equiv_pos_as_xyz
  x,y,z
_cell_length_a	12.594517
_cell_length_b	12.594516
_cell_length_c	15.296720
_cell_angle_alpha	80.350397
_cell_angle_beta	80.328623
_cell_angle_gamma	90.007702
loop_
_atom_site_label
_atom_site_type_symbol
_atom_site_fract_x
_atom_site_fract_y
_atom_site_fract_z
Zn1	Zn	1.523127	-0.527938	0.509880
Zn2	Zn	1.553850	-0.675147	0.359033
Zn3	Zn	1.375944	-0.497177	0.359064
Zn4	Zn	1.345129	-0.705859	0.509866
O5	O	1.449513	-0.601530	0.434460
O6	O	1.676150	-0.547486	0.489862
O7	O	1.556004	-0.625812	0.232796
O8	O	1.395506	-0.352315	0.379089
O9	O	1.698722	-0.655640	0.379036
O10	O	1.503641	-0.374916	0.489893
O11	O	1.425297	-0.495058	0.232819
O12	O	1.222909	-0.524838	0.379075
O13	O	1.342988	-0.707985	0.636109
O14	O	1.200270	-0.678157	0.489868
O15	O	1.473762	-0.577267	0.636119
O16	O	1.526125	-0.828163	0.379022
O17	O	1.372778	-0.850727	0.489838
C18	C	1.172969	-0.601493	0.434474
C19	C	1.054658	-0.601507	0.434501
C20	C	1.449466	-0.878068	0.434445
C21	C	1.449538	-0.996378	0.434468
C22	C	0.973146	-0.685012	0.494646
C23	C	0.897797	-0.592497	0.516833
C24	C	0.919211	-0.694099	0.412294
C25	C	0.980859	-0.508948	0.456732
C26	C	1.002287	-0.610608	0.352155
C27	C	0.926976	-0.518019	0.374311
C28	C	1.533012	-1.053333	0.374259
C29	C	1.542201	-1.140844	0.456596
C30	C	1.440471	-1.119677	0.352184
C31	C	1.458768	-1.082339	0.516848
C32	C	1.357004	-1.061156	0.412380
C33	C	1.366144	-1.148646	0.494774
C34	C	1.727136	-0.601569	0.434447
C35	C	1.845443	-0.601585	0.434442
C36	C	1.401510	-0.649483	0.669762
C37	C	1.381055	-0.669917	0.770033
C38	C	1.449584	-0.323917	0.434496
C39	C	1.449614	-0.205614	0.434511
C40	C	1.497389	-0.553688	0.200074
C41	C	1.518051	-0.532953	0.099803
C42	C	1.595752	-0.455295	1.052704
C43	C	1.614977	-0.436098	0.958494
C44	C	1.556498	-0.494551	0.911374
C45	C	1.478790	-0.572205	0.958474
C46	C	1.459569	-0.591410	1.052693
C47	C	1.420315	-0.630666	0.911363
C48	C	1.342607	-0.708320	0.958463
C49	C	1.323389	-0.727521	1.052673
C50	C	1.381868	-0.669068	1.099792
C51	C	1.439537	-0.611460	0.817144
C52	C	1.303354	-0.747575	0.817133
C53	C	1.284128	-0.766773	0.911343
H54	H	0.852456	-0.584823	0.586446
O55	O	1.431412	-1.139765	0.269081
C56	C	1.519563	-1.090842	0.205805
H57	H	1.554596	-1.021728	0.232545
H58	H	1.583986	-1.152897	0.194061
C59	C	1.438480	-1.131821	0.083588
C60	C	1.481501	-1.046928	0.116427
H61	H	1.415004	-1.104737	0.028453
H62	H	1.379092	-1.164786	0.126217
H63	H	1.492172	-1.183527	0.073808
H64	H	1.427805	-0.995231	0.126216
H65	H	1.540879	-1.013954	0.073796
H66	H	1.620486	-1.175704	0.475302
H67	H	0.993811	-0.755527	0.545573
O68	O	1.056469	-0.619607	0.269108
C69	C	1.126456	-0.529171	0.235842
H70	H	1.096232	-0.459121	0.270826
H71	H	1.210902	-0.549883	0.249536
C72	C	1.166780	-0.583069	0.090777
C73	C	1.129654	-0.497029	0.133740
H74	H	1.168757	-0.563244	0.027795
H75	H	1.119632	-0.644000	0.113190
H76	H	1.237148	-0.600321	0.102198
H77	H	1.059282	-0.479788	0.122327
H78	H	1.176790	-0.436095	0.111322
H79	H	1.678250	-0.372874	0.920152
H80	H	1.603604	-1.011900	0.323389
H81	H	1.366218	-0.684695	1.176506
H82	H	0.891970	-0.772369	0.393539
O83	O	1.013338	-0.415644	0.479235
C84	C	1.125326	-0.416737	0.479010
H85	H	1.152624	-0.503582	0.488929
H86	H	1.169340	-0.371315	0.411920
C87	C	1.117795	-0.255308	0.543810
C88	C	1.151322	-0.361973	0.556000
H89	H	1.133833	-0.221523	0.591298
H90	H	1.042347	-0.254569	0.543959
H91	H	1.154477	-0.217471	0.487899
H92	H	1.114630	-0.399811	0.611905
H93	H	1.226765	-0.362717	0.555863
H94	H	1.502807	-0.548233	0.778805
O95	O	1.468113	-1.062092	0.599846
C96	C	1.467978	-0.949941	0.598817
H97	H	1.494537	-0.906016	0.526930
H98	H	1.383265	-0.925114	0.625555
C99	C	1.513765	-0.974254	0.746977
C100	C	1.546394	-0.920305	0.658684
H101	H	1.562131	-0.955973	0.783908
H102	H	1.513852	-1.049813	0.747672
H103	H	1.443170	-0.953559	0.769245
H104	H	1.616981	-0.941011	0.636413
H105	H	1.546320	-0.844749	0.657986
O106	O	1.263543	-1.019677	0.390143
C107	C	1.175619	-1.070053	0.452856
H108	H	1.200335	-1.151929	0.486372
H109	H	1.150035	-1.017547	0.506204
C110	C	1.050390	-0.984847	0.362857
C111	C	1.080744	-1.085413	0.404016
H112	H	0.991864	-0.994318	0.332732
H113	H	1.109625	-0.950904	0.320607
H114	H	1.029077	-0.941102	0.407321
H115	H	1.102068	-1.129151	0.359551
H116	H	1.021509	-1.119364	0.446258
H117	H	0.906502	-0.447366	0.323424
O118	O	1.282049	-1.197854	0.555726
C119	C	1.292059	-1.179163	0.642354
H120	H	1.379996	-1.159713	0.644122
H121	H	1.240626	-1.108417	0.659062
C122	C	1.145675	-1.304474	0.709850
C123	C	1.253683	-1.280595	0.712024
H124	H	1.121999	-1.367039	0.752827
H125	H	1.138928	-1.317064	0.651488
H126	H	1.102828	-1.245511	0.723771
H127	H	1.296529	-1.339551	0.698092
H128	H	1.260436	-1.268017	0.770386
O129	O	1.575267	-0.475732	0.819859
C130	C	1.656410	-0.394677	0.788392
H131	H	1.660263	-0.343566	0.842696
H132	H	1.737418	-0.433489	0.771661
C133	C	1.625680	-0.385528	0.636565
C134	C	1.630406	-0.322746	0.703259
H135	H	1.609644	-0.341160	0.584049
H136	H	1.571015	-0.440139	0.657764
H137	H	1.693189	-0.417868	0.622633
H138	H	1.562894	-0.290419	0.717198
H139	H	1.685059	-0.268128	0.682061
H140	H	1.260122	-0.790761	1.091018
H141	H	1.220857	-0.829999	0.949705
O142	O	1.652427	-0.398590	1.098614
C143	C	1.618821	-0.432220	1.191868
H144	H	1.534041	-0.469680	1.204731
H145	H	1.676481	-0.494368	1.218587
C146	C	1.722873	-0.288391	1.224468
C147	C	1.618741	-0.334392	1.240266
H148	H	1.722828	-0.228048	1.254323
H149	H	1.745518	-0.265735	1.161641
H150	H	1.770911	-0.340191	1.246734
H151	H	1.570708	-0.282596	1.217990
H152	H	1.596088	-0.357036	1.303091
O153	O	1.246479	-0.804491	0.771511
C154	C	1.173760	-0.877137	0.833283
H155	H	1.203653	-0.894519	0.900440
H156	H	1.090887	-0.840192	0.843311
C157	C	1.129180	-0.961567	0.714010
C158	C	1.165900	-0.982923	0.796491
H159	H	1.124327	-1.026820	0.691314
H160	H	1.178169	-0.912622	0.672392
H161	H	1.060123	-0.930778	0.722378
H162	H	1.234961	-1.013699	0.788120
H163	H	1.116923	-1.031876	0.838107
