data_functionalizedCrystal
_audit_creation_method	'MofGen! by Chris Wilmer'
_symmetry_space_group_name_H-M	'P1'
_symmetry_Int_Tables_number	1
_symmetry_cell_setting	triclinic
loop_
_symmetry_equiv_pos_as_xyz
  x,y,z
_cell_length_a	8.559649
_cell_length_b	8.559648
_cell_length_c	7.088929
_cell_angle_alpha	95.334324
_cell_angle_beta	84.674985
_cell_angle_gamma	69.778664
loop_
_atom_site_label
_atom_site_type_symbol
_atom_site_fract_x
_atom_site_fract_y
_atom_site_fract_z
O1	O	-2.108184	0.036317	-0.158966
O2	O	-1.632700	-0.047463	-0.158955
O3	O	-1.912327	0.232164	-0.159008
O4	O	-1.828557	-0.243309	-0.158912
O5	O	-1.949706	0.269609	0.158960
O6	O	-1.670079	-0.010018	0.159013
O7	O	-2.145563	0.073762	0.159002
Cu8	Cu	-1.911234	0.035291	0.188041
Cu9	Cu	-1.867029	-0.008992	-0.187993
O10	O	-1.865936	-0.205865	0.159056
C11	C	-1.591081	-0.035089	0.000029
C12	C	-1.411382	-0.053988	0.000030
C13	C	-1.937364	0.311194	-0.000041
C14	C	-1.956257	0.490887	-0.000089
N15	N	-1.942337	0.066439	0.452523
C16	C	-2.187182	0.061388	0.000014
C17	C	-2.366879	0.080286	0.000000
C18	C	-1.840893	0.715099	0.000030
C19	C	-1.821979	0.535385	-0.000093
N20	N	-1.835941	-0.040126	-0.452475
H21	H	-1.311995	-0.183415	0.000046
H22	H	-1.725675	-0.150559	0.465899
O23	O	-1.485301	0.234803	0.000224
C24	C	-1.620748	0.516255	0.164955
C25	C	-1.486541	0.341353	0.164920
H26	H	-1.621819	0.602440	0.298118
H27	H	-1.590492	0.571314	0.031961
H28	H	-1.749386	0.504451	0.164866
H29	H	-1.357852	0.353013	0.165077
H30	H	-1.516942	0.286358	0.297902
H31	H	-1.692562	0.436010	-0.000068
O32	O	-2.073832	0.198383	0.549690
C33	C	-2.210261	0.499321	0.611323
C34	C	-2.061289	0.350052	0.501128
H35	H	-2.200151	0.621983	0.572132
H36	H	-2.333122	0.489794	0.572018
H37	H	-2.207734	0.496682	0.771522
H38	H	-2.063655	0.352597	0.340904
H39	H	-1.938494	0.359633	0.540592
O40	O	-2.110742	0.609420	0.000232
C41	C	-2.392225	0.744747	0.164878
C42	C	-2.217344	0.610481	0.164777
H43	H	-2.478471	0.745625	0.297878
H44	H	-2.380588	0.873472	0.164987
H45	H	-2.447114	0.714460	0.031747
H46	H	-2.162356	0.640610	0.297886
H47	H	-2.229088	0.481797	0.164569
