data_functionalizedCrystal
_audit_creation_method	'MofGen! by Chris Wilmer'
_symmetry_space_group_name_H-M	'P1'
_symmetry_Int_Tables_number	1
_symmetry_cell_setting	triclinic
loop_
_symmetry_equiv_pos_as_xyz
  x,y,z
_cell_length_a	10.967926
_cell_length_b	10.967829
_cell_length_c	10.065875
_cell_angle_alpha	86.921207
_cell_angle_beta	93.120479
_cell_angle_gamma	87.248880
loop_
_atom_site_label
_atom_site_type_symbol
_atom_site_fract_x
_atom_site_fract_y
_atom_site_fract_z
O1	O	1.622282	0.210055	0.218659
O2	O	1.272392	0.213494	0.135556
O3	O	1.449083	0.036855	0.218663
O4	O	1.445591	0.386694	0.135552
O5	O	1.415397	0.070679	0.429772
O6	O	1.238705	0.247319	0.346665
O7	O	1.588596	0.243879	0.429769
Zn8	Zn	1.408302	0.250969	0.421735
Zn9	Zn	1.452685	0.206404	0.143589
O10	O	1.411904	0.420519	0.346662
C11	C	1.210630	0.227600	0.231205
C12	C	1.076785	0.219225	0.201695
C13	C	0.999662	0.233013	0.297899
C14	C	0.861326	0.224357	0.267401
C15	C	1.429441	0.008854	0.334121
C16	C	1.421085	-0.124975	0.363625
C17	C	1.434811	-0.202155	0.267417
C18	C	1.426176	-0.340474	0.297910
C19	C	1.650358	0.229773	0.334116
C20	C	1.784204	0.238147	0.363619
C21	C	1.431547	0.448519	0.231201
C22	C	1.439904	0.582346	0.201688
N23	N	1.378021	0.281383	0.611565
N24	N	1.482976	0.175981	-0.046236
C25	C	1.442142	0.216978	0.709574
C26	C	1.418846	0.240395	0.855754
H27	H	0.820583	0.256356	0.468570
C28	C	1.281631	0.377866	0.643887
C29	C	1.167402	0.348135	0.589405
C30	C	1.078574	0.436978	0.619164
H31	H	1.301803	0.455397	0.607104
H32	H	1.278675	0.380751	0.737825
H33	H	1.170360	0.345263	0.495486
H34	H	1.147192	0.270619	0.626179
H35	H	1.075619	0.439864	0.713103
H36	H	1.098758	0.514504	0.582380
H37	H	1.001059	0.416813	0.582214
H38	H	1.402934	-0.161298	0.468565
C39	C	0.812737	0.200322	0.127420
C40	C	0.732690	0.297715	0.078549
C41	C	0.687917	0.275626	-0.050400
H42	H	0.770387	0.126764	0.129556
H43	H	0.879024	0.192852	0.070954
H44	H	0.666413	0.305172	0.135000
H45	H	0.775012	0.371284	0.076380
H46	H	0.754204	0.268156	-0.106866
H47	H	0.645573	0.202066	-0.048251
H48	H	0.633609	0.341708	-0.083580
C49	C	1.028526	0.194875	0.061689
C50	C	1.126488	0.183805	-0.021148
C51	C	1.082084	0.161359	-0.150129
H52	H	0.974191	0.260788	0.028144
H53	H	0.986301	0.121224	0.063933
H54	H	1.168693	0.257447	-0.023397
H55	H	1.180831	0.117890	0.012355
H56	H	1.039859	0.087708	-0.147885
H57	H	1.027750	0.227276	-0.183661
H58	H	1.148545	0.153834	-0.206347
C59	C	1.458766	-0.153772	0.127402
C60	C	1.364964	-0.186460	0.038331
C61	C	1.386985	-0.141896	-0.090659
H62	H	1.534780	-0.187896	0.102274
H63	H	1.461298	-0.067234	0.125446
H64	H	1.362445	-0.272982	0.040282
H65	H	1.288940	-0.152339	0.063416
H66	H	1.389517	-0.055358	-0.092615
H67	H	1.463000	-0.176023	-0.115774
H68	H	1.323339	-0.164059	-0.151107
C69	C	1.401913	-0.388644	0.437920
C70	C	1.390894	-0.290631	0.520762
C71	C	1.368527	-0.334958	0.649740
H72	H	1.467846	-0.442959	0.471465
H73	H	1.328260	-0.430870	0.435672
H74	H	1.464538	-0.248425	0.523015
H75	H	1.324960	-0.236308	0.487259
H76	H	1.294875	-0.377184	0.647492
H77	H	1.434464	-0.389273	0.683272
H78	H	1.361037	-0.268463	0.705961
C79	C	1.463821	-0.369345	0.061629
C80	C	1.369984	-0.402097	-0.027360
C81	C	1.391951	-0.357626	-0.156400
H82	H	1.539822	-0.403490	0.036492
H83	H	1.466352	-0.282804	0.059595
H84	H	1.367465	-0.488621	-0.025331
H85	H	1.293973	-0.367954	-0.002265
H86	H	1.394482	-0.271085	-0.158434
H87	H	1.467954	-0.391774	-0.181524
H88	H	1.328281	-0.379832	-0.216793
H89	H	1.514280	0.144497	0.685266
C90	C	1.322452	0.336883	0.888069
C91	C	1.208223	0.307152	0.833587
C92	C	1.119395	0.395995	0.863346
H93	H	1.342624	0.414414	0.851286
H94	H	1.319496	0.339768	0.982007
H95	H	1.211181	0.304280	0.739668
H96	H	1.188012	0.229636	0.870361
H97	H	1.116439	0.398881	0.957284
H98	H	1.139579	0.473521	0.826562
H99	H	1.041879	0.375830	0.826396
H100	H	1.036049	0.251219	0.402843
H101	H	1.555119	0.103496	0.929461
