data_functionalizedCrystal
_audit_creation_method	'MofGen! by Chris Wilmer'
_symmetry_space_group_name_H-M	'P1'
_symmetry_Int_Tables_number	1
_symmetry_cell_setting	triclinic
loop_
_symmetry_equiv_pos_as_xyz
  x,y,z
_cell_length_a	23.532407
_cell_length_b	10.723024
_cell_length_c	9.198806
_cell_angle_alpha	90.003396
_cell_angle_beta	89.991922
_cell_angle_gamma	96.341727
loop_
_atom_site_label
_atom_site_type_symbol
_atom_site_fract_x
_atom_site_fract_y
_atom_site_fract_z
O1	O	0.079871	-1.654699	-0.120900
O2	O	0.087516	-1.291308	-0.120906
O3	O	0.000833	-1.483962	-0.120876
O4	O	0.166554	-1.462046	-0.120930
O5	O	0.000832	-1.483948	0.120909
O6	O	0.087516	-1.291294	0.120879
O7	O	0.079870	-1.654685	0.120885
Cu8	Cu	0.083693	-1.472988	0.142959
Cu9	Cu	0.083694	-1.473005	-0.142980
O10	O	0.166553	-1.462032	0.120855
C11	C	-0.020387	-1.483397	0.000020
C12	C	-0.083615	-1.481719	0.000031
C13	C	0.086960	-1.244819	-0.000014
C14	C	0.085295	-1.106317	-0.000015
C15	C	0.080427	-1.701174	-0.000010
C16	C	0.082092	-1.839677	-0.000018
C17	C	-0.482046	-1.585203	-0.000046
C18	C	-0.541457	-1.583644	-0.000058
O19	O	-0.577579	-1.679575	-0.000109
N20	N	-0.564826	-1.469112	-0.000059
C21	C	-0.528782	-1.356131	-0.000063
O22	O	-0.554114	-1.258569	-0.000067
C23	C	-0.469373	-1.357691	-0.000063
C24	C	-0.446007	-1.472230	-0.000047
C25	C	-0.458680	-1.699733	-0.000032
C26	C	-0.399274	-1.701291	-0.000019
C27	C	-0.363234	-1.588319	-0.000019
C28	C	-0.386600	-1.473789	-0.000033
C29	C	-0.433329	-1.244711	-0.000078
C30	C	-0.373917	-1.246281	-0.000078
C31	C	-0.350551	-1.360821	-0.000062
C32	C	-0.291154	-1.362374	-0.000020
N33	N	-0.267785	-1.476907	-0.000019
C34	C	-0.303825	-1.589879	-0.000018
C35	C	-0.653545	-1.352863	-0.000067
C36	C	-0.712953	-1.351302	-0.000057
C37	C	-0.725625	-1.578816	-0.000054
C38	C	-0.666215	-1.580376	-0.000054
C39	C	-0.630176	-1.467395	-0.000066
C40	C	-0.179067	-1.593143	0.000012
C41	C	-0.119655	-1.594691	0.000032
C42	C	-0.106989	-1.367178	0.000021
C43	C	-0.166396	-1.365629	0.000009
C44	C	-0.202434	-1.478622	-0.000001
O45	O	-0.254997	-1.266494	0.000026
O46	O	-0.278484	-1.687425	-0.000034
C47	C	0.187774	-1.462597	-0.000044
C48	C	0.251001	-1.464275	-0.000065
N49	N	0.083692	-1.472986	0.344073
C50	C	0.133798	-1.029823	-0.000032
C51	C	0.132079	-0.886673	-0.000033
N52	N	0.083690	-1.473018	-0.344094
C53	C	0.047217	-1.554075	0.583687
C54	C	0.047218	-1.554058	0.416274
H55	H	-0.100634	-1.687967	0.000048
H56	H	-0.185421	-1.272361	0.000036
Br57	Br	-0.004828	-1.669778	0.687188
Br58	Br	-0.367573	-1.856746	-0.000038
H59	H	-0.077635	-1.275199	0.000026
Br60	Br	0.201291	-0.777133	-0.000075
Br61	Br	-0.004835	-1.669720	0.312769
H62	H	0.114919	-1.403614	0.593798
Br63	Br	0.135737	-1.357300	0.447569
Br64	Br	-0.744657	-1.195849	-0.000044
H65	H	-0.488018	-1.791734	-0.000037
Br66	Br	-0.227966	-1.746491	-0.000003
Br67	Br	-0.634511	-1.735827	-0.000029
Br68	Br	-0.604640	-1.199517	-0.000072
H69	H	0.040567	-0.905395	-0.000013
H70	H	0.176597	-1.070312	-0.000038
Br71	Br	-0.465024	-1.089254	-0.000105
H72	H	0.042497	-1.065828	-0.000039
H73	H	-0.754979	-1.670804	-0.000060
H74	H	-0.344576	-1.154276	-0.000090
