data_functionalizedCrystal
_audit_creation_method	'MofGen! by Chris Wilmer'
_symmetry_space_group_name_H-M	'P1'
_symmetry_Int_Tables_number	1
_symmetry_cell_setting	triclinic
loop_
_symmetry_equiv_pos_as_xyz
  x,y,z
_cell_length_a	16.120530
_cell_length_b	18.050590
_cell_length_c	18.050582
_cell_angle_alpha	89.975956
_cell_angle_beta	87.087467
_cell_angle_gamma	87.114013
loop_
_atom_site_label
_atom_site_type_symbol
_atom_site_fract_x
_atom_site_fract_y
_atom_site_fract_z
Zn1	Zn	1.274544	-0.353355	-0.477408
Zn2	Zn	1.274465	-0.477536	-0.353213
Zn3	Zn	1.135137	-0.347062	-0.346943
Zn4	Zn	1.135104	-0.471200	-0.471074
O5	O	1.204812	-0.412288	-0.412159
O6	O	1.391200	-0.375113	-0.466208
O7	O	1.255964	-0.460247	-0.248455
O8	O	1.153676	-0.243974	-0.364276
O9	O	1.391142	-0.466349	-0.374962
O10	O	1.256098	-0.248598	-0.460128
O11	O	1.153599	-0.364388	-0.243849
O12	O	1.018466	-0.358244	-0.358134
O13	O	1.153620	-0.455550	-0.575840
O14	O	1.018442	-0.449448	-0.449333
O15	O	1.256066	-0.368969	-0.580493
O16	O	1.255932	-0.580618	-0.368820
O17	O	1.153544	-0.575963	-0.455413
C18	C	0.988204	-0.402476	-0.402366
C19	C	0.895538	-0.398296	-0.398195
C20	C	1.204748	-0.605238	-0.412127
C21	C	1.204797	-0.687786	-0.412141
C22	C	0.725876	-0.390647	-0.390584
C23	C	0.684589	-0.433984	-0.433788
C24	C	0.590183	-0.429728	-0.429554
C25	C	0.820291	-0.394902	-0.394818
C26	C	1.260592	-0.889746	-0.365127
C27	C	1.280952	-0.940005	-0.433825
C28	C	1.204845	-0.838918	-0.412173
C29	C	1.184569	-0.935745	-0.343509
C30	C	1.204892	-0.984905	-0.412198
C31	C	1.225244	-0.888091	-0.480909
C32	C	1.128826	-0.883826	-0.390545
C33	C	1.149157	-0.934061	-0.459289
C34	C	1.204819	-0.754819	-0.412158
C35	C	1.204917	-1.069003	-0.412220
C36	C	1.422267	-0.422140	-0.421991
C37	C	1.514933	-0.426338	-0.426180
C38	C	1.204849	-0.412255	-0.605867
C39	C	1.204864	-0.412240	-0.688413
C40	C	1.204900	-0.218587	-0.412209
C41	C	1.204937	-0.136043	-0.412230
C42	C	1.149206	-0.459244	-0.934711
C43	C	1.128829	-0.390585	-0.884404
C44	C	1.204934	-0.412134	-0.985537
C45	C	1.225237	-0.480840	-0.888758
C46	C	1.204898	-0.412190	-0.839550
C47	C	1.184518	-0.343437	-0.936316
C48	C	1.280962	-0.433740	-0.940676
C49	C	1.260614	-0.365035	-0.890393
C50	C	1.204953	-0.412103	-1.069636
C51	C	1.204879	-0.412213	-0.755453
C52	C	1.204825	-0.412271	-0.219208
C53	C	1.204971	-0.412083	-0.136669
H54	H	0.720143	-0.474281	-0.473957
C55	C	1.367817	-0.458429	-0.973941
N56	N	1.433236	-0.477033	-0.998998
H57	H	0.690325	-0.350353	-0.350419
C58	C	1.324257	-0.311181	-0.864172
N59	N	1.372189	-0.270616	-0.844419
C60	C	1.041947	-0.365921	-0.851168
N61	N	0.976506	-0.347348	-0.826138
C62	C	1.324301	-0.863340	-0.311443
N63	N	1.372289	-0.843448	-0.271013
C64	C	1.161192	-0.264947	-0.964450
N65	N	1.143618	-0.205830	-0.985643
C66	C	1.085493	-0.960273	-0.513115
N67	N	1.037544	-0.980017	-0.553658
C68	C	1.248460	-0.559305	-0.860496
N69	N	1.265946	-0.618405	-0.839212
H70	H	1.242348	-0.867217	-0.539034
H71	H	1.345260	-0.964570	-0.452134
C72	C	1.161371	-0.964060	-0.265046
N73	N	1.143904	-0.985385	-0.205946
C74	C	1.041978	-0.850608	-0.365781
N75	N	0.976564	-0.825586	-0.347120
C76	C	1.085512	-0.512957	-0.961114
N77	N	1.037536	-0.553410	-0.981003
