data_functionalizedCrystal
_audit_creation_method	'MofGen! by Chris Wilmer'
_symmetry_space_group_name_H-M	'P1'
_symmetry_Int_Tables_number	1
_symmetry_cell_setting	triclinic
loop_
_symmetry_equiv_pos_as_xyz
  x,y,z
_cell_length_a	17.019330
_cell_length_b	15.500227
_cell_length_c	9.065218
_cell_angle_alpha	87.127904
_cell_angle_beta	95.793898
_cell_angle_gamma	83.284530
loop_
_atom_site_label
_atom_site_type_symbol
_atom_site_fract_x
_atom_site_fract_y
_atom_site_fract_z
O1	O	-1.055597	0.150595	0.173703
O2	O	-0.555597	0.650595	0.673703
O3	O	-0.825240	0.133432	0.199282
O4	O	-0.325240	0.633432	0.699282
O5	O	-0.945180	0.142367	-0.028312
O6	O	-0.445180	0.642367	0.471688
O7	O	-0.935657	0.141661	0.401297
O8	O	-0.435657	0.641661	0.901297
O9	O	-0.937901	-0.002064	-0.014555
O10	O	-0.437901	0.497936	0.485445
O11	O	-0.817962	-0.010999	0.213039
O12	O	-0.317962	0.489001	0.713039
O13	O	-1.048318	0.006164	0.187460
O14	O	-0.548318	0.506164	0.687460
Cu15	Cu	-0.932476	-0.015605	0.201506
Cu16	Cu	-0.432476	0.484395	0.701506
Cu17	Cu	-0.941083	0.155201	0.185236
Cu18	Cu	-0.441083	0.655201	0.685236
O19	O	-0.928379	-0.002770	0.415054
O20	O	-0.428379	0.497230	0.915054
C21	C	-0.792095	0.059018	0.205459
C22	C	-0.292095	0.559018	0.705459
C23	C	-0.704176	0.052468	0.203349
C24	C	-0.204176	0.552468	0.703349
C25	C	-0.206721	0.011472	0.191840
C26	C	0.293279	0.511472	0.691840
C27	C	-0.289330	0.017629	0.193822
C28	C	0.210670	0.517629	0.693822
C29	C	-0.334604	0.099438	0.187303
C30	C	0.165396	0.599438	0.687303
C31	C	-0.297262	0.175095	0.178816
C32	C	0.202738	0.675095	0.678816
C33	C	-0.214654	0.168938	0.176845
C34	C	0.285346	0.668938	0.676845
C35	C	-0.584226	0.121968	0.192890
C36	C	-0.084226	0.621968	0.692890
C37	C	-0.666840	0.128120	0.194858
C38	C	-0.166840	0.628120	0.694858
C39	C	-0.658903	-0.029347	0.209867
C40	C	-0.158903	0.470653	0.709867
C41	C	-0.576293	-0.035498	0.207886
C42	C	-0.076293	0.464502	0.707886
C43	C	-0.538959	0.040160	0.199407
C44	C	-0.038959	0.540160	0.699407
C45	C	-0.419044	0.105733	0.189324
C46	C	0.080956	0.605733	0.689324
C47	C	-0.454519	0.033864	0.197396
C48	C	0.045481	0.533864	0.697396
N49	N	-0.926427	-0.135740	0.212948
N50	N	-0.426427	0.364260	0.712948
C51	C	-0.977268	-0.177230	0.116543
C52	C	-0.477268	0.322770	0.616543
C53	C	-0.972701	-0.268143	0.125210
C54	C	-0.472701	0.231857	0.625210
C55	C	-0.917296	-0.317565	0.230290
C56	C	-0.417296	0.182435	0.730290
C57	C	-0.866450	-0.276069	0.326698
C58	C	-0.366450	0.223931	0.826698
C59	C	-0.871014	-0.185158	0.318023
C60	C	-0.371014	0.314842	0.818023
C61	C	-0.900856	-0.592256	0.261516
C62	C	-0.400856	-0.092256	0.761516
C63	C	-0.896297	-0.683173	0.270187
C64	C	-0.396297	-0.183173	0.770187
C65	C	-1.002548	-0.675241	0.068696
C66	C	-0.502548	-0.175241	0.568696
C67	C	-1.007110	-0.584328	0.060036
C68	C	-0.507110	-0.084328	0.560036
C69	C	-0.956261	-0.542841	0.156440
C70	C	-0.456261	-0.042841	0.656440
C71	C	-0.912628	-0.410492	0.239154
C72	C	-0.412628	0.089508	0.739154
C73	C	-0.960925	-0.449915	0.147567
C74	C	-0.460925	0.050085	0.647567
C75	C	-0.081465	0.080577	0.181272
C76	C	0.418535	0.580577	0.681272
C77	C	-0.169386	0.087124	0.183349
C78	C	0.330614	0.587124	0.683349
C79	C	-0.940626	0.070084	-0.076389
C80	C	-0.440626	0.570084	0.423611
C81	C	-0.937889	0.069885	-0.240139
C82	C	-0.437889	0.569885	0.259861
N83	N	-0.947138	0.275337	0.173783
N84	N	-0.447138	0.775337	0.673783
C85	C	-0.932933	0.069514	0.463131
C86	C	-0.432933	0.569514	0.963131
C87	C	-0.935670	0.069719	0.626880
C88	C	-0.435670	0.569719	1.126880
H89	H	-0.184257	0.230541	0.169935
H90	H	0.315743	0.730541	0.669935
H91	H	-0.867518	-0.450739	0.324715
H92	H	-0.367518	0.049261	0.824715
N93	N	-0.160491	-0.072103	0.198516
N94	N	0.339509	0.427897	0.698516
N95	N	-0.160517	-0.124611	0.307753
N96	N	0.339483	0.375389	0.807753
H97	H	-0.127870	-0.183639	0.312474
H98	H	0.372130	0.316361	0.812474
H99	H	-0.703700	0.194742	0.189561
H100	H	-0.203700	0.694742	0.689561
N101	N	-0.327456	-0.059656	0.202470
N102	N	0.172544	0.440344	0.702470
N103	N	-0.287027	-0.132694	0.208260
N104	N	0.212973	0.367306	0.708260
H105	H	-0.313953	-0.187282	0.214357
H106	H	0.186047	0.312718	0.714357
N107	N	-0.819083	-0.142788	0.416524
N108	N	-0.319083	0.357212	0.916524
N109	N	-0.820632	-0.152778	0.553839
N110	N	-0.320632	0.347222	1.053839
H111	H	-0.783952	-0.122856	0.623407
H112	H	-0.283952	0.377144	1.123407
N113	N	-0.546109	0.199256	0.184240
N114	N	-0.046109	0.699256	0.684240
N115	N	-0.586543	0.272292	0.178423
N116	N	-0.086543	0.772292	0.678423
H117	H	-0.559621	0.326881	0.172316
H118	H	-0.059621	0.826881	0.672316
N119	N	-0.465281	0.189304	0.182632
N120	N	0.034719	0.689304	0.682632
N121	N	-0.431943	0.256849	0.175033
N122	N	0.068057	0.756849	0.675033
H123	H	-0.464599	0.315873	0.170307
H124	H	0.035401	0.815873	0.670307
N125	N	-1.054479	-0.717633	-0.029760
N126	N	-0.554479	-0.217633	0.470240
N127	N	-1.050401	-0.798804	-0.022006
N128	N	-0.550401	-0.298804	0.477994
H129	H	-1.087078	-0.828745	-0.091547
H130	H	-0.587078	-0.328745	0.408453
N131	N	-0.343490	0.258670	0.172171
N132	N	0.156510	0.758670	0.672171
N133	N	-0.330368	0.310214	0.270912
N134	N	0.169632	0.810214	0.770912
H135	H	-0.363013	0.369242	0.266217
H136	H	0.136987	0.869242	0.766217
N137	N	-0.408277	-0.049700	0.204086
N138	N	0.091723	0.450300	0.704086
N139	N	-0.354748	-0.071184	0.308652
N140	N	0.145252	0.428816	0.808652
H141	H	-0.322083	-0.130203	0.313375
H142	H	0.177917	0.369797	0.813375
H143	H	-1.022387	-0.136996	0.030983
H144	H	-0.522387	0.363004	0.530983
H145	H	-0.821334	-0.316314	0.412252
H146	H	-0.321334	0.183686	0.912252
H147	H	-1.014099	-0.301923	0.046709
H148	H	-0.514099	0.198077	0.546709
H149	H	-1.052224	-0.544090	-0.025528
H150	H	-0.552224	-0.044090	0.474472
H151	H	-0.859454	-0.558484	0.340015
H152	H	-0.359454	-0.058484	0.840015
N153	N	-0.530063	-0.119071	0.214534
N154	N	-0.030063	0.380929	0.714534
N155	N	-0.563409	-0.186612	0.222110
N156	N	-0.063409	0.313388	0.722110
H157	H	-0.530760	-0.245638	0.226799
H158	H	-0.030760	0.254362	0.726799
N159	N	-0.697052	-0.106616	0.218525
N160	N	-0.197052	0.393384	0.718525
N161	N	-0.770810	-0.101112	0.220281
N162	N	-0.270810	0.398888	0.720281
H163	H	-0.797754	-0.155686	0.226399
H164	H	-0.297754	0.344314	0.726399
H165	H	-1.006033	-0.409673	0.062006
H166	H	-0.506033	0.090327	0.562006
H167	H	-0.851178	-0.723409	0.355761
H168	H	-0.351178	-0.223409	0.855761
