data_functionalizedCrystal
_audit_creation_method	'MofGen! by Chris Wilmer'
_symmetry_space_group_name_H-M	'P1'
_symmetry_Int_Tables_number	1
_symmetry_cell_setting	triclinic
loop_
_symmetry_equiv_pos_as_xyz
  x,y,z
_cell_length_a	18.050591
_cell_length_b	18.050589
_cell_length_c	18.050582
_cell_angle_alpha	90.018205
_cell_angle_beta	90.020922
_cell_angle_gamma	90.024227
loop_
_atom_site_label
_atom_site_type_symbol
_atom_site_fract_x
_atom_site_fract_y
_atom_site_fract_z
Zn1	Zn	1.135293	-0.295786	0.420054
Zn2	Zn	1.635293	0.204214	0.920054
Zn3	Zn	1.135203	-0.419969	0.295873
Zn4	Zn	1.635203	0.080031	0.795873
Zn5	Zn	1.011112	-0.295789	0.295865
Zn6	Zn	1.511112	0.204211	0.795865
Zn7	Zn	1.011060	-0.419930	0.420009
Zn8	Zn	1.511060	0.080070	0.920009
O9	O	1.073167	-0.357868	0.357950
O10	O	1.573167	0.142132	0.857950
O11	O	1.239205	-0.312274	0.403603
O12	O	1.739205	0.187726	0.903603
O13	O	1.118727	-0.403514	0.191948
O14	O	1.618727	0.096486	0.691948
O15	O	1.027644	-0.191864	0.312354
O16	O	1.527644	0.308136	0.812354
O17	O	1.239140	-0.403511	0.312369
O18	O	1.739140	0.096489	0.812369
O19	O	1.118879	-0.191862	0.403595
O20	O	1.618879	0.308138	0.903595
O21	O	1.027557	-0.312279	0.191942
O22	O	1.527557	0.187721	0.691942
O23	O	0.907180	-0.312241	0.312311
O24	O	1.407180	0.187759	0.812311
O25	O	1.027555	-0.403444	0.523940
O26	O	1.527555	0.096556	1.023940
O27	O	0.907142	-0.403447	0.403519
O28	O	1.407142	0.096553	0.903519
O29	O	1.118828	-0.312236	0.523973
O30	O	1.618828	0.187764	1.023973
O31	O	1.118676	-0.523888	0.312325
O32	O	1.618676	-0.023888	0.812325
O33	O	1.027468	-0.523860	0.403527
O34	O	1.527468	-0.023860	0.903527
C35	C	0.880215	-0.357841	0.357909
C36	C	1.380215	0.142159	0.857909
C37	C	0.797669	-0.357847	0.357909
C38	C	1.297669	0.142153	0.857909
C39	C	1.073077	-0.550820	0.357938
C40	C	1.573077	-0.050820	0.857938
C41	C	1.073107	-0.633366	0.357958
C42	C	1.573107	-0.133366	0.857958
C43	C	0.598217	-0.308191	0.308425
C44	C	1.098217	0.191809	0.808425
C45	C	0.548798	-0.375927	0.290154
C46	C	1.048798	0.124073	0.790154
C47	C	0.646539	-0.357869	0.357943
C48	C	1.146539	0.142131	0.857943
C49	C	0.548877	-0.290157	0.376212
C50	C	1.048877	0.209843	0.876212
C51	C	0.500553	-0.357885	0.357974
C52	C	1.000553	0.142115	0.857974
C53	C	0.598206	-0.425641	0.339637
C54	C	1.098206	0.074359	0.839637
C55	C	0.598289	-0.339825	0.425726
C56	C	1.098289	0.160175	0.925726
C57	C	0.548892	-0.407607	0.407481
C58	C	1.048892	0.092393	0.907481
C59	C	0.730637	-0.357859	0.357923
C60	C	1.230637	0.142141	0.857923
C61	C	0.416457	-0.357903	0.357994
C62	C	0.916457	0.142097	0.857994
C63	C	1.023557	-0.832828	0.407536
C64	C	1.523557	-0.332828	0.907536
C65	C	1.005459	-0.882261	0.339767
C66	C	1.505459	-0.382261	0.839767
C67	C	1.073180	-0.784497	0.357967
C68	C	1.573180	-0.284497	0.857967
C69	C	1.091314	-0.882146	0.425744
C70	C	1.591314	-0.382146	0.925744
C71	C	1.073249	-0.930482	0.357983
C72	C	1.573249	-0.430482	0.857983
C73	C	1.055046	-0.832842	0.290162
C74	C	1.555046	-0.332842	0.790162
C75	C	1.140933	-0.832722	0.376186
C76	C	1.640933	-0.332722	0.876186
C77	C	1.122861	-0.882133	0.308370
C78	C	1.622861	-0.382133	0.808370
C79	C	1.073138	-0.700398	0.357959
C80	C	1.573138	-0.200398	0.857959
C81	C	1.073291	-1.014578	0.357983
C82	C	1.573291	-0.514578	0.857983
C83	C	1.266872	-0.357897	0.357992
C84	C	1.766872	0.142103	0.857992
C85	C	1.349418	-0.357909	0.358010
C86	C	1.849418	0.142091	0.858010
C87	C	1.073196	-0.357835	0.551656
C88	C	1.573196	0.142165	1.051656
C89	C	1.073208	-0.357821	0.634202
C90	C	1.573208	0.142179	1.134202
C91	C	1.073277	-0.164163	0.357979
C92	C	1.573277	0.335837	0.857979
C93	C	1.073324	-0.081617	0.357991
C94	C	1.573324	0.418383	0.857991
C95	C	1.073181	-0.357848	0.164998
C96	C	1.573181	0.142152	0.664998
C97	C	1.073312	-0.357652	0.082453
C98	C	1.573312	0.142348	0.582453
C99	C	1.023612	-0.407353	0.833635
C100	C	1.523612	0.092647	1.333635
C101	C	1.091367	-0.425511	0.883034
C102	C	1.591367	0.074489	1.383034
C103	C	1.073245	-0.357765	0.785332
C104	C	1.573245	0.142235	1.285332
C105	C	1.005527	-0.339586	0.883014
C106	C	1.505527	0.160414	1.383014
C107	C	1.073274	-0.357711	0.931317
C108	C	1.573274	0.142289	1.431317
C109	C	1.141036	-0.375958	0.833645
C110	C	1.641036	0.124042	1.333645
C111	C	1.055150	-0.290002	0.833620
C112	C	1.555150	0.209998	1.333620
C113	C	1.122952	-0.308134	0.882998
C114	C	1.622952	0.191866	1.382998
C115	C	1.073227	-0.357797	0.701234
C116	C	1.573227	0.142203	1.201234
C117	C	1.073300	-0.357679	1.015414
C118	C	1.573300	0.142321	1.515414
H119	H	0.619875	-0.266226	0.266503
H120	H	1.119875	0.233774	0.766503
H121	H	1.164855	-0.903645	0.266409
H122	H	1.664855	-0.403645	0.766409
C123	C	1.237063	-0.828160	0.468038
C124	C	1.737063	-0.328160	0.968038
C125	C	1.218218	-0.803318	0.397011
C126	C	1.718218	-0.303318	0.897011
H127	H	1.284774	-0.810001	0.480901
H128	H	1.784774	-0.310001	0.980901
H129	H	1.237542	-0.880774	0.468638
H130	H	1.737542	-0.380774	0.968638
H131	H	1.201659	-0.810540	0.502746
H132	H	1.701659	-0.310540	1.002746
H133	H	1.253619	-0.820943	0.362303
H134	H	1.753619	-0.320943	0.862303
H135	H	1.217745	-0.750693	0.396406
H136	H	1.717745	-0.250693	0.896406
H137	H	0.527060	-0.391202	0.232844
H138	H	1.027060	0.108798	0.732844
C139	C	0.908709	-0.885678	0.248503
C140	C	1.408709	-0.385678	0.748503
C141	C	0.928153	-0.911640	0.318965
C142	C	1.428153	-0.411640	0.818965
H143	H	0.860982	-0.903811	0.235667
H144	H	1.360982	-0.403811	0.735667
H145	H	0.943935	-0.902557	0.213259
H146	H	1.443935	-0.402557	0.713259
H147	H	0.908014	-0.833057	0.248800
H148	H	1.408014	-0.333057	0.748800
H149	H	0.928854	-0.964262	0.318666
H150	H	1.428854	-0.464262	0.818666
H151	H	0.892918	-0.894765	0.354217
H152	H	1.392918	-0.394765	0.854217
C153	C	0.929212	-0.318397	0.989857
C154	C	1.429212	0.181603	1.489857
C155	C	0.928203	-0.318854	0.912291
C156	C	1.428203	0.181146	1.412291
H157	H	0.881473	-0.305606	1.007928
H158	H	1.381473	0.194394	1.507928
H159	H	0.964417	-0.283100	1.006752
H160	H	1.464417	0.216900	1.506752
H161	H	0.942419	-0.366179	1.007494
H162	H	1.442419	0.133821	1.507494
H163	H	0.915001	-0.271069	0.894654
H164	H	1.415001	0.228931	1.394654
H165	H	0.892986	-0.354152	0.895389
H166	H	1.392986	0.145848	1.395389
C167	C	1.176650	-0.497854	0.955034
C168	C	1.676650	0.002146	1.455034
C169	C	1.112051	-0.502835	0.912349
C170	C	1.612051	-0.002835	1.412349
H171	H	1.189416	-0.545592	0.973127
H172	H	1.689416	-0.045592	1.473127
H173	H	1.168439	-0.465335	0.995585
H174	H	1.668439	0.034665	1.495585
H175	H	1.215911	-0.479266	0.925334
H176	H	1.715911	0.020734	1.425334
H177	H	1.072789	-0.521418	0.942051
H178	H	1.572789	-0.021418	1.442051
H179	H	1.120258	-0.535366	0.871792
H180	H	1.620258	-0.035366	1.371792
H181	H	1.039669	-0.811275	0.232834
H182	H	1.539669	-0.311275	0.732834
C183	C	1.217658	-0.396657	0.726929
C184	C	1.717658	0.103343	1.226929
C185	C	1.218384	-0.396784	0.804499
C186	C	1.718384	0.103216	1.304499
H187	H	1.265407	-0.409520	0.708937
H188	H	1.765407	0.090480	1.208937
H189	H	1.204721	-0.348694	0.709604
H190	H	1.704721	0.151306	1.209604
H191	H	1.182360	-0.431680	0.709641
H192	H	1.682360	0.068320	1.209641
H193	H	1.253678	-0.361756	0.821787
H194	H	1.753678	0.138244	1.321787
H195	H	1.231330	-0.444754	0.821831
H196	H	1.731330	0.055246	1.321831
C197	C	1.059910	-0.886487	0.554913
C198	C	1.559910	-0.386487	1.054913
C199	C	1.111989	-0.911380	0.503112
C200	C	1.611989	-0.411380	1.003112
H201	H	1.072674	-0.904530	0.602677
H202	H	1.572674	-0.404530	1.102677
H203	H	1.012151	-0.904181	0.541637
H204	H	1.512151	-0.404181	1.041637
H205	H	1.059594	-0.833865	0.555562
H206	H	1.559594	-0.333865	1.055562
H207	H	1.112301	-0.964002	0.502458
H208	H	1.612301	-0.464002	1.002458
H209	H	1.159760	-0.893690	0.516391
H210	H	1.659760	-0.393690	1.016391
C211	C	0.670586	-0.530862	0.376740
C212	C	1.170586	-0.030862	0.876740
C213	C	0.627330	-0.502976	0.318700
C214	C	1.127330	-0.002976	0.818700
H215	H	0.688570	-0.578601	0.363810
H216	H	1.188570	-0.078601	0.863810
H217	H	0.641313	-0.534351	0.420315
H218	H	1.141313	-0.034351	0.920315
H219	H	0.711220	-0.498547	0.385447
H220	H	1.211220	0.001453	0.885447
H221	H	0.586692	-0.535287	0.309997
H222	H	1.086692	-0.035287	0.809997
H223	H	0.656604	-0.499491	0.275112
H224	H	1.156604	0.000509	0.775112
C225	C	0.545930	-0.446080	0.534768
C226	C	1.045930	0.053920	1.034768
C227	C	0.519834	-0.464392	0.464030
C228	C	1.019834	0.035608	0.964030
H229	H	0.527993	-0.481142	0.569675
H230	H	1.027993	0.018858	1.069675
H231	H	0.528943	-0.398029	0.547844
H232	H	1.028943	0.101971	1.047844
H233	H	0.598553	-0.446664	0.534761
H234	H	1.098553	0.053336	1.034761
H235	H	0.467210	-0.463802	0.464036
H236	H	0.967210	0.036198	0.964036
H237	H	0.536817	-0.512455	0.450952
H238	H	1.036817	-0.012455	0.950952
H239	H	0.527169	-0.232894	0.391625
H240	H	1.027169	0.267106	0.891625
C241	C	0.967841	-0.726027	0.463923
C242	C	1.467841	-0.226027	0.963923
C243	C	0.966830	-0.803594	0.464046
C244	C	1.466830	-0.303594	0.964046
H245	H	0.932823	-0.707980	0.498811
H246	H	1.432823	-0.207980	0.998811
H247	H	0.955451	-0.708426	0.415910
H248	H	1.455451	-0.208426	0.915910
H249	H	1.015935	-0.709071	0.476976
H250	H	1.515935	-0.209071	0.976976
H251	H	0.918738	-0.820550	0.450988
H252	H	1.418738	-0.320550	0.950988
H253	H	0.979216	-0.821202	0.512070
H254	H	1.479216	-0.321202	1.012070
C255	C	0.986153	-0.534931	0.829314
C256	C	1.486153	-0.034931	1.329314
C257	C	0.967004	-0.464032	0.804367
C258	C	1.467004	0.035968	1.304367
H259	H	0.951209	-0.569922	0.811240
H260	H	1.451209	-0.069922	1.311240
H261	H	0.986085	-0.535610	0.881929
H262	H	1.486085	-0.035610	1.381929
H263	H	1.034147	-0.547347	0.811679
H264	H	1.534147	-0.047347	1.311679
H265	H	0.919011	-0.451614	0.822006
H266	H	1.419011	0.048386	1.322006
H267	H	0.967064	-0.463352	0.751741
H268	H	1.467064	0.036648	1.251741
H269	H	1.164986	-0.266177	0.904535
H270	H	1.664986	0.233823	1.404535
C271	C	0.963449	-0.193798	0.829160
C272	C	1.463449	0.306202	1.329160
C273	C	1.034438	-0.212698	0.804285
C274	C	1.534438	0.287302	1.304285
H275	H	0.950655	-0.146076	0.811044
H276	H	1.450655	0.353924	1.311044
H277	H	0.962865	-0.193323	0.881775
H278	H	1.462865	0.306677	1.381775
H279	H	0.928679	-0.229174	0.811521
H280	H	1.428679	0.270826	1.311521
H281	H	1.069208	-0.177325	0.821929
H282	H	1.569208	0.322675	1.321929
H283	H	1.035027	-0.213168	0.751660
H284	H	1.535027	0.286832	1.251660
H285	H	0.620045	-0.324530	0.483019
H286	H	1.120045	0.175470	0.983019
