data_functionalizedCrystal
_audit_creation_method	'MofGen! by Chris Wilmer'
_symmetry_space_group_name_H-M	'P1'
_symmetry_Int_Tables_number	1
_symmetry_cell_setting	triclinic
loop_
_symmetry_equiv_pos_as_xyz
  x,y,z
_cell_length_a	17.019372
_cell_length_b	17.038272
_cell_length_c	9.016244
_cell_angle_alpha	89.997742
_cell_angle_beta	93.869084
_cell_angle_gamma	87.242864
loop_
_atom_site_label
_atom_site_type_symbol
_atom_site_fract_x
_atom_site_fract_y
_atom_site_fract_z
O1	O	1.053348	0.099573	0.011079
O2	O	0.824539	0.112280	-0.018123
O3	O	0.937584	-0.007888	-0.003684
O4	O	0.940304	0.219741	-0.003360
O5	O	0.937566	-0.007885	0.242995
O6	O	0.824522	0.112282	0.228556
O7	O	1.053331	0.099576	0.257758
Cu8	Cu	0.938925	0.105930	0.265680
Cu9	Cu	0.938945	0.105926	-0.026046
O10	O	0.940286	0.219744	0.243319
C11	C	0.795110	0.111800	0.101462
C12	C	0.707444	0.110358	0.090273
C13	C	0.211627	0.102174	0.020150
C14	C	0.293999	0.103529	0.030683
C15	C	0.335166	0.104214	0.170415
C16	C	0.293959	0.103536	0.299623
C17	C	0.211590	0.102175	0.289089
C18	C	0.583868	0.108318	0.208947
C19	C	0.666243	0.109682	0.219471
C20	C	0.666277	0.109674	-0.049470
C21	C	0.583905	0.108317	-0.059991
C22	C	0.542706	0.107635	0.069217
C23	C	0.419363	0.105602	0.181184
C24	C	0.458511	0.106242	0.058446
C25	C	0.935101	-0.037012	0.119340
C26	C	0.927721	-0.123799	0.118397
C27	C	0.995480	-0.173973	0.127047
C28	C	0.988541	-0.255517	0.126147
C29	C	0.913842	-0.286886	0.116609
C30	C	0.846078	-0.236706	0.107954
C31	C	0.853018	-0.155163	0.108843
C32	C	0.889325	-0.532622	0.113459
C33	C	0.882390	-0.614172	0.112575
C34	C	1.024853	-0.632977	0.130765
C35	C	1.031787	-0.551432	0.131663
C36	C	0.964023	-0.501259	0.123000
C37	C	0.906747	-0.370237	0.115693
C38	C	0.971118	-0.417909	0.123905
C39	C	1.082760	0.100056	0.138170
C40	C	1.170426	0.101498	0.149349
C41	C	0.942769	0.248868	0.120292
C42	C	0.950149	0.335655	0.121224
N43	N	0.938916	0.105931	0.470865
N44	N	0.938960	0.105918	-0.231230
C45	C	0.878235	0.170002	0.698147
C46	C	0.878391	0.170238	0.526276
C47	C	1.022414	0.123656	0.543858
C48	C	1.022089	0.124108	0.715762
C49	C	0.916904	0.023921	0.702608
C50	C	0.915044	0.024473	0.530417
H51	H	0.327542	0.104075	-0.074524
C52	C	1.047200	0.204897	0.773120
N53	N	1.066109	0.265751	0.816314
C54	C	0.339244	0.104322	0.453330
N55	N	0.373351	0.104930	0.569105
H56	H	0.845927	-0.395787	0.107930
C57	C	0.763908	-0.271214	0.097474
N58	N	0.702016	-0.297205	0.089591
C59	C	0.794778	0.156004	0.458668
N60	N	0.731796	0.145288	0.407753
C61	C	0.538557	0.107592	0.351081
N62	N	0.504426	0.107052	0.458144
H63	H	0.893041	0.231089	0.486993
C64	C	1.053285	-0.383401	0.134405
N65	N	1.115173	-0.357402	0.142323
C66	C	0.711603	0.110415	-0.191588
N67	N	0.745744	0.110968	-0.298638
H68	H	0.550392	0.107759	-0.173776
H69	H	1.068978	0.079269	0.763333
C70	C	1.113961	-0.516933	0.142158
N71	N	1.175856	-0.490949	0.150068
H72	H	1.080023	-0.673837	0.137815
H73	H	0.857048	0.006854	0.738419
H74	H	0.699759	0.110245	0.333264
H75	H	1.043718	-0.296366	0.133194
H76	H	0.816164	0.159629	0.731620
C77	C	0.166268	0.101435	0.431217
N78	N	0.132133	0.100876	0.538274
H79	H	0.892720	0.230510	0.743183
C80	C	0.413224	0.105488	-0.095255
N81	N	0.379107	0.104925	-0.211023
H82	H	0.178114	0.101622	-0.093635
H83	H	0.452890	0.106161	0.294954
H84	H	1.056308	-0.148439	0.134823
C85	C	1.085222	0.062276	0.496619
N86	N	1.132529	0.016045	0.461034
C87	C	0.800212	-0.648674	0.102070
N88	N	0.738319	-0.674663	0.094158
C89	C	0.814781	-0.477442	0.103922
N90	N	0.758631	-0.435877	0.096734
H91	H	0.797841	-0.114311	0.101800
H92	H	1.041312	0.182772	0.503186
H93	H	0.853594	0.011020	0.481834
C94	C	0.970352	-0.042958	0.479456
N95	N	1.012022	-0.093745	0.441086
C96	C	0.976638	-0.040504	0.765168
N97	N	1.021631	-0.089023	0.812298
