data_functionalizedCrystal
_audit_creation_method	'MofGen! by Chris Wilmer'
_symmetry_space_group_name_H-M	'P1'
_symmetry_Int_Tables_number	1
_symmetry_cell_setting	triclinic
loop_
_symmetry_equiv_pos_as_xyz
  x,y,z
_cell_length_a	10.723023
_cell_length_b	15.995292
_cell_length_c	9.798715
_cell_angle_alpha	90.000045
_cell_angle_beta	89.996449
_cell_angle_gamma	83.968082
loop_
_atom_site_label
_atom_site_type_symbol
_atom_site_fract_x
_atom_site_fract_y
_atom_site_fract_z
O1	O	1.655653	0.117435	-0.113477
O2	O	1.292354	0.128676	-0.113479
O3	O	1.483972	0.001222	-0.113480
O4	O	1.464035	0.244889	-0.113476
O5	O	1.483958	0.001221	0.113502
O6	O	1.292340	0.128676	0.113503
O7	O	1.655639	0.117434	0.113506
Zn8	Zn	1.473987	0.123055	0.149543
Zn9	Zn	1.474006	0.123055	-0.149516
O10	O	1.464020	0.244889	0.113506
C11	C	1.245858	0.127858	0.000011
C12	C	1.107335	0.125411	0.000010
C13	C	1.045585	0.124320	-0.117574
C14	C	0.902415	0.121791	-0.117578
C15	C	1.483154	-0.029979	0.000008
C16	C	1.480721	-0.122946	-0.000003
C17	C	1.471778	-0.460735	0.000010
C18	C	1.610083	-0.436629	0.000518
C19	C	1.612711	-0.339938	0.000001
C20	C	1.476215	-0.293154	0.000005
C21	C	1.407077	-0.322652	-0.129610
C22	C	1.405412	-0.419452	-0.129713
C23	C	1.402572	-0.419326	0.128408
C24	C	1.407697	-0.322804	0.130116
C25	C	1.478716	-0.198444	-0.000003
C26	C	1.469273	-0.555446	0.000008
C27	C	1.702135	0.118252	0.000012
C28	C	1.840657	0.120700	0.000004
C29	C	1.464839	0.276089	0.000016
C30	C	1.467272	0.369056	0.000017
N31	N	1.473983	0.123054	0.353642
N32	N	1.474019	0.123050	-0.353616
C33	C	1.554442	0.069304	0.421419
C34	C	1.554462	0.069301	0.578582
H35	H	1.054208	0.124477	0.100675
H36	H	1.623350	0.023286	0.636866
Cl37	Cl	1.696280	-0.310079	0.143469
Cl38	Cl	1.253872	-0.272789	0.142207
Cl39	Cl	1.469367	-0.462632	0.280086
Cl40	Cl	1.485410	-0.293686	0.278164
H41	H	1.098711	0.125263	-0.218239
Cl42	Cl	1.245398	-0.441830	0.129764
H43	H	1.405110	0.169067	0.411967
Cl44	Cl	1.692387	-0.479381	0.144030
H45	H	1.663102	-0.465342	-0.091912
H46	H	0.849312	0.120850	-0.218246
H47	H	0.893754	0.121634	0.100678
Cl48	Cl	1.696816	-0.311033	-0.143703
H49	H	1.304006	-0.434585	-0.135584
Cl50	Cl	1.660494	-0.001934	0.331380
H51	H	1.405136	0.169073	0.588108
Cl52	Cl	1.479366	-0.460434	-0.279299
Cl53	Cl	1.252003	-0.274338	-0.137060
H54	H	1.455100	-0.302316	-0.226070
