data_functionalizedCrystal
_audit_creation_method	'MofGen! by Chris Wilmer'
_symmetry_space_group_name_H-M	'P1'
_symmetry_Int_Tables_number	1
_symmetry_cell_setting	triclinic
loop_
_symmetry_equiv_pos_as_xyz
  x,y,z
_cell_length_a	19.077105
_cell_length_b	19.077068
_cell_length_c	19.076929
_cell_angle_alpha	85.532199
_cell_angle_beta	90.078300
_cell_angle_gamma	89.884684
loop_
_atom_site_label
_atom_site_type_symbol
_atom_site_fract_x
_atom_site_fract_y
_atom_site_fract_z
Zn1	Zn	1.044032	0.340427	-0.453497
Zn2	Zn	1.043949	0.453583	-0.340339
Zn3	Zn	0.931648	0.331006	-0.330929
Zn4	Zn	0.921785	0.453152	-0.453075
O5	O	0.985354	0.394542	-0.394460
O6	O	1.142180	0.359560	-0.442602
O7	O	1.033146	0.433560	-0.240615
O8	O	0.950719	0.233781	-0.343427
O9	O	1.142120	0.442695	-0.359465
O10	O	1.033287	0.240703	-0.433477
O11	O	0.950638	0.343504	-0.233702
O12	O	0.832180	0.343086	-0.343017
O13	O	0.933908	0.441962	-0.551606
O14	O	0.824934	0.432827	-0.432757
O15	O	1.023722	0.359143	-0.551917
O16	O	1.023581	0.552000	-0.359055
O17	O	0.933828	0.551684	-0.441881
C18	C	0.803105	0.386888	-0.386820
C19	C	0.725137	0.383631	-0.383570
C20	C	0.977644	0.577377	-0.401459
C21	C	0.974409	0.655598	-0.404480
C22	C	0.977724	0.401555	-0.578009
C23	C	0.974473	0.404544	-0.656227
C24	C	0.684753	0.428889	-0.428697
C25	C	0.611494	0.425820	-0.425645
C26	C	0.578621	0.377496	-0.377463
C27	C	0.619010	0.332233	-0.332333
C28	C	0.692268	0.335299	-0.335389
C29	C	0.359927	0.363304	-0.363325
C30	C	0.286664	0.360243	-0.360271
C31	C	0.279153	0.453830	-0.453584
C32	C	0.352413	0.456895	-0.456633
C33	C	0.392795	0.411629	-0.411506
N34	N	0.503738	0.374359	-0.374341
N35	N	0.467676	0.414763	-0.414632
C36	C	1.168313	0.402226	-0.402130
C37	C	1.246280	0.405501	-0.405398
C38	C	0.993112	0.210995	-0.387450
C39	C	0.996418	0.132778	-0.384462
C40	C	1.019652	0.692490	-0.362814
C41	C	1.016613	0.765988	-0.365660
C42	C	0.968327	0.802591	-0.410167
C43	C	0.923082	0.765693	-0.451837
C44	C	0.926124	0.692198	-0.448995
C45	C	0.954215	1.022385	-0.423291
C46	C	0.951175	1.095885	-0.426128
C47	C	1.044708	1.096175	-0.339951
C48	C	1.047743	1.022677	-0.337110
C49	C	1.002500	0.985786	-0.378782
N50	N	0.965218	0.877717	-0.413075
N51	N	1.005613	0.910662	-0.375878
C52	C	0.951156	0.426035	-1.096494
C53	C	0.954209	0.423217	-1.023000
C54	C	1.002500	0.378692	-0.986418
C55	C	1.047737	0.336978	-1.023334
C56	C	1.044681	0.339794	-1.096827
C57	C	1.016653	0.365645	-0.766636
C58	C	1.019708	0.362835	-0.693138
C59	C	0.926178	0.449072	-0.692809
C60	C	0.923129	0.451887	-0.766303
C61	C	0.968363	0.410170	-0.803213
N62	N	1.005623	0.375812	-0.911295
N63	N	0.965236	0.413048	-0.878334
C64	C	0.992996	0.387507	-0.211625
C65	C	0.996391	0.384326	-0.133405
H66	H	0.711513	0.468243	-0.467930
H67	H	1.053455	0.796022	-0.331731
F68	F	1.092819	0.295394	-1.136110
F69	F	0.251679	0.308811	-0.308982
F70	F	1.092858	1.135442	-0.295606
F71	F	0.402896	0.315127	-0.315298
F72	F	0.735247	0.287128	-0.287359
F73	F	0.584022	0.280798	-0.281058
H74	H	0.889283	0.662161	-0.482925
F75	F	1.071041	0.653541	-0.315438
H76	H	1.087061	0.992876	-0.300868
H77	H	0.911862	1.125686	-0.462384
H78	H	0.917376	0.992354	-0.457221
F79	F	0.871695	0.804652	-0.499210
H80	H	0.578617	0.462675	-0.462392
F81	F	0.236170	0.502002	-0.501607
H82	H	0.911835	0.462295	-1.126274
H83	H	0.917381	0.457189	-0.992951
H84	H	0.379173	0.496247	-0.495867
F85	F	0.871737	0.499282	-0.805231
F86	F	0.878038	0.493464	-0.653522
H87	H	1.059032	0.326573	-0.663355
H88	H	1.053489	0.331681	-0.796679
H89	H	1.087054	0.300722	-0.993544
