data_functionalizedCrystal
_audit_creation_method	'MofGen! by Chris Wilmer'
_symmetry_space_group_name_H-M	'P1'
_symmetry_Int_Tables_number	1
_symmetry_cell_setting	triclinic
loop_
_symmetry_equiv_pos_as_xyz
  x,y,z
_cell_length_a	15.995350
_cell_length_b	10.489741
_cell_length_c	14.472310
_cell_angle_alpha	89.999301
_cell_angle_beta	89.990621
_cell_angle_gamma	84.015774
loop_
_atom_site_label
_atom_site_type_symbol
_atom_site_fract_x
_atom_site_fract_y
_atom_site_fract_z
O1	O	1.111988	0.164399	-0.076762
O2	O	0.868335	0.184702	-0.076781
O3	O	0.995706	-0.011125	-0.076766
O4	O	0.984617	0.360226	-0.076777
O5	O	0.995673	-0.011114	0.076916
O6	O	0.868302	0.184713	0.076901
O7	O	1.111955	0.164411	0.076920
Cu8	Cu	0.990125	0.174563	0.090943
Cu9	Cu	0.990164	0.174549	-0.090804
O10	O	0.984584	0.360237	0.076905
C11	C	0.837119	0.183868	0.000058
C12	C	0.744153	0.181352	0.000050
C13	C	0.994852	-0.058639	0.000075
C14	C	0.992346	-0.200234	0.000073
C15	C	0.406351	0.172315	0.000070
C16	C	0.452944	0.032851	0.000417
C17	C	0.549650	0.035368	0.000064
C18	C	0.573939	0.176797	0.000061
C19	C	0.533285	0.245579	-0.087698
C20	C	0.436628	0.242076	-0.087765
C21	C	0.436269	0.244970	0.087001
C22	C	0.533214	0.244937	0.088154
C23	C	0.668651	0.179338	0.000053
C24	C	0.311638	0.169778	0.000072
C25	C	0.911304	-0.267240	0.000060
C26	C	0.949571	-0.359892	0.075836
C27	C	0.949623	-0.359878	-0.075682
C28	C	1.030647	-0.291021	0.075912
C29	C	1.030687	-0.290998	-0.075675
C30	C	1.069013	-0.383624	0.000120
C31	C	1.143171	0.165244	0.000079
C32	C	1.236137	0.167761	0.000080
C33	C	0.985438	0.407752	0.000062
C34	C	0.987944	0.549346	0.000058
N35	N	0.990104	0.174572	0.218774
N36	N	0.990192	0.174531	-0.218635
C37	C	0.990163	0.174544	0.592865
C38	C	0.921777	0.278976	0.553691
C39	C	0.921938	0.279357	0.446603
C40	C	0.990133	0.174558	0.407274
C41	C	1.077673	0.203626	0.446117
C42	C	1.077290	0.204368	0.553238
C43	C	0.971787	0.040735	0.553397
C44	C	0.969789	0.041628	0.446269
C45	C	0.990122	0.174563	0.302386
C46	C	0.990181	0.174542	0.697753
H47	H	0.434072	-0.022892	0.063353
H48	H	0.933437	0.377714	0.580598
H49	H	1.135706	-0.433981	0.000167
H50	H	1.064963	-0.260437	-0.139736
H51	H	1.021649	-0.036979	0.578729
H52	H	1.064894	-0.260664	0.140046
H53	H	1.129811	0.129587	0.420640
H54	H	1.094107	0.300099	0.419278
C55	C	0.937908	0.413495	0.411957
C56	C	0.872073	0.491084	0.350992
C57	C	0.888048	0.625226	0.316345
C58	C	0.969858	0.681779	0.342662
C59	C	1.035699	0.604188	0.403630
C60	C	1.019724	0.470046	0.438277
H61	H	0.811508	0.449221	0.331507
H62	H	0.839308	0.682663	0.271212
H63	H	0.981683	0.781079	0.317014
H64	H	1.096264	0.646051	0.423115
H65	H	1.068464	0.412609	0.483410
H66	H	0.856894	0.262038	0.420342
C67	C	0.903306	-0.401090	-0.162230
C68	C	0.823877	-0.471157	-0.151884
C69	C	0.777555	-0.512363	-0.238426
C70	C	0.810661	-0.483502	-0.335314
C71	C	0.890094	-0.413432	-0.345664
C72	C	0.936416	-0.372226	-0.259122
H73	H	0.799367	-0.492524	-0.080158
H74	H	0.718753	-0.564233	-0.230764
H75	H	0.776370	-0.514006	-0.399378
H76	H	0.914605	-0.392065	-0.417390
H77	H	0.995218	-0.320356	-0.266784
C78	C	0.569676	0.177103	0.175866
C79	C	0.636116	0.060388	0.167581
C80	C	0.672585	-0.007448	0.255291
C81	C	0.642613	0.041431	0.351287
C82	C	0.576170	0.158153	0.359577
C83	C	0.539701	0.225989	0.271867
H84	H	0.658306	0.024198	0.096515
H85	H	0.721771	-0.093853	0.249154
H86	H	0.669610	-0.008785	0.416216
H87	H	0.553980	0.194342	0.430643
H88	H	0.490515	0.312394	0.278004
H89	H	0.909296	0.012784	0.580461
H90	H	0.561385	0.197797	-0.153007
C91	C	1.098994	0.336200	0.586984
C92	C	1.177004	0.345730	0.647932
C93	C	1.198707	0.477566	0.681671
C94	C	1.142401	0.599873	0.654462
C95	C	1.064386	0.590347	0.593511
C96	C	1.042682	0.458511	0.559771
H97	H	1.218690	0.255188	0.668076
H98	H	1.256459	0.484617	0.726791
H99	H	1.158467	0.697466	0.679438
H100	H	1.022700	0.680890	0.573366
H101	H	0.984930	0.451460	0.514651
C102	C	0.882791	0.011814	0.411976
C103	C	0.830444	0.107683	0.348861
C104	C	0.743446	0.077873	0.314560
C105	C	0.708795	-0.047806	0.343375
C106	C	0.761143	-0.143683	0.406494
C107	C	0.848141	-0.113873	0.440794
H108	H	0.856094	0.200726	0.327527
H109	H	0.704695	0.148849	0.267836
H110	H	0.644394	-0.069873	0.317984
H111	H	0.735493	-0.236726	0.427827
H112	H	0.886892	-0.184849	0.487518
H113	H	0.856524	0.261942	0.579474
C114	C	0.408152	0.183383	0.176870
C115	C	0.313986	0.176825	0.195979
C116	C	0.285872	0.115224	0.285844
C117	C	0.351925	0.060180	0.356600
C118	C	0.446097	0.066735	0.337494
C119	C	0.474211	0.128337	0.247629
H120	H	0.265084	0.217574	0.143599
H121	H	0.216159	0.110371	0.299988
H122	H	0.331113	0.014578	0.423124
H123	H	0.494999	0.025987	0.389873
H124	H	0.543924	0.133190	0.233485
H125	H	1.129810	0.131304	0.579150
C126	C	0.554794	0.384276	0.095310
C127	C	0.610018	0.438871	0.020954
C128	C	0.631593	0.578218	0.028099
C129	C	0.597944	0.662971	0.109601
C130	C	0.542717	0.608378	0.183964
C131	C	0.521142	0.469030	0.176818
H132	H	0.634930	0.376131	-0.039384
H133	H	0.672476	0.618631	-0.026949
H134	H	0.613915	0.766124	0.114891
H135	H	0.517805	0.671118	0.244302
H136	H	0.480259	0.428617	0.231866
C137	C	0.426042	-0.042132	-0.084125
C138	C	0.362008	0.022716	-0.153379
C139	C	0.335105	-0.052262	-0.237923
C140	C	0.372236	-0.192090	-0.253213
C141	C	0.436274	-0.256946	-0.183957
C142	C	0.463177	-0.181967	-0.099413
H143	H	0.334518	0.126231	-0.142062
H144	H	0.287700	-0.004251	-0.289191
H145	H	0.352321	-0.247593	-0.315797
H146	H	0.463764	-0.360461	-0.195274
H147	H	0.510582	-0.229978	-0.048145
C148	C	0.586866	-0.038161	-0.085071
C149	C	0.528579	-0.099349	-0.152952
C150	C	0.565795	-0.172876	-0.238094
C151	C	0.661298	-0.185215	-0.255355
C152	C	0.719591	-0.124025	-0.187472
C153	C	0.682375	-0.050498	-0.102330
H154	H	0.457876	-0.090217	-0.140176
H155	H	0.522642	-0.218173	-0.288345
H156	H	0.688847	-0.239644	-0.318382
H157	H	0.790293	-0.133158	-0.200248
H158	H	0.725528	-0.005202	-0.052079
C159	C	1.032629	-0.068279	0.410117
C160	C	1.087320	-0.152834	0.478553
C161	C	1.150172	-0.262734	0.442404
C162	C	1.158333	-0.288079	0.337818
C163	C	1.103641	-0.203522	0.269376
C164	C	1.040789	-0.093622	0.305525
H165	H	1.081280	-0.134073	0.555979
H166	H	1.190659	-0.325328	0.493070
H167	H	1.204860	-0.369434	0.311059
H168	H	1.109681	-0.222283	0.191950
H169	H	1.000302	-0.031028	0.254859
H170	H	0.577739	-0.018699	0.062974
C171	C	0.394200	0.383880	0.087809
C172	C	0.408449	0.474476	0.006894
C173	C	0.366376	0.613380	0.007694
C174	C	0.310055	0.661688	0.089409
C175	C	0.295803	0.571091	0.170329
C176	C	0.337876	0.432187	0.169529
H177	H	0.450143	0.438717	-0.053601
H178	H	0.376926	0.680445	-0.052209
H179	H	0.278910	0.764513	0.090001
H180	H	0.254109	0.606850	0.230825
H181	H	0.327326	0.365121	0.229432
H182	H	0.844671	-0.216656	0.000131
H183	H	0.418031	0.191907	-0.153364
C184	C	0.393885	0.380389	-0.093172
C185	C	0.410681	0.465685	-0.176339
C186	C	0.367940	0.603992	-0.181759
C187	C	0.308403	0.657004	-0.104012
C188	C	0.291604	0.571708	-0.020839
C189	C	0.334346	0.433400	-0.015419
H190	H	0.454756	0.426443	-0.233897
H191	H	0.380375	0.667134	-0.243329
H192	H	0.276763	0.759388	-0.108025
H193	H	0.247529	0.610950	0.036719
H194	H	0.321910	0.370258	0.046151
H195	H	0.548037	0.349484	-0.090963
H196	H	0.915266	-0.390419	0.139894
