data_functionalizedCrystal
_audit_creation_method	'MofGen! by Chris Wilmer'
_symmetry_space_group_name_H-M	'P1'
_symmetry_Int_Tables_number	1
_symmetry_cell_setting	triclinic
loop_
_symmetry_equiv_pos_as_xyz
  x,y,z
_cell_length_a	12.759401
_cell_length_b	25.639240
_cell_length_c	12.759393
_cell_angle_alpha	90.031647
_cell_angle_beta	89.979062
_cell_angle_gamma	89.961053
loop_
_atom_site_label
_atom_site_type_symbol
_atom_site_fract_x
_atom_site_fract_y
_atom_site_fract_z
Zn1	Zn	1.606101	0.208104	-0.594012
Zn2	Zn	1.605922	0.295549	-0.418328
Zn3	Zn	1.430399	0.208132	-0.418347
Zn4	Zn	1.430321	0.295513	-0.593965
O5	O	1.518186	0.251825	-0.506163
O6	O	1.753098	0.219708	-0.570718
O7	O	1.582596	0.283980	-0.271310
O8	O	1.453814	0.134963	-0.441676
O9	O	1.752967	0.283953	-0.441645
O10	O	1.582901	0.134943	-0.570736
O11	O	1.453640	0.219755	-0.271323
O12	O	1.283368	0.219720	-0.441631
O13	O	1.453681	0.283891	-0.740993
O14	O	1.283311	0.283918	-0.570658
O15	O	1.582825	0.219672	-0.741027
O16	O	1.582521	0.368710	-0.441600
O17	O	1.453508	0.368683	-0.570640
C18	C	1.245218	0.251818	-0.506142
C19	C	1.128442	0.251828	-0.506158
C20	C	1.073578	0.285307	-0.573236
C21	C	0.963854	0.285309	-0.573257
C22	C	0.963868	0.218352	-0.439113
C23	C	1.073590	0.218347	-0.439098
C24	C	1.518015	0.387667	-0.506136
C25	C	1.518038	0.445781	-0.506159
C26	C	1.585312	0.696913	-0.573423
C27	C	1.585290	0.642308	-0.573416
O28	O	1.642413	0.614019	-0.630577
N29	N	1.518121	0.615055	-0.506168
C30	C	1.450977	0.642409	-0.438915
O31	O	1.393843	0.614214	-0.381714
C32	C	1.451004	0.697012	-0.438917
C33	C	1.518170	0.724263	-0.506177
C34	C	1.652473	0.724163	-0.640676
C35	C	1.652493	0.778764	-0.640684
C36	C	1.585351	0.806114	-0.573438
C37	C	1.518190	0.778863	-0.506184
C38	C	1.383866	0.724365	-0.371659
C39	C	1.383899	0.778972	-0.371666
C40	C	1.451065	0.806222	-0.438926
C41	C	1.451068	0.860814	-0.438946
N42	N	1.518237	0.888067	-0.506194
C43	C	1.585378	0.860717	-0.573440
C44	C	1.450926	0.527738	-0.438914
C45	C	1.450892	0.473136	-0.438916
C46	C	1.585207	0.473039	-0.573417
C47	C	1.585235	0.527643	-0.573419
C48	C	1.518095	0.554992	-0.506162
C49	C	1.585414	0.975382	-0.573452
C50	C	1.585424	1.029988	-0.573457
C51	C	1.451114	1.030079	-0.438953
C52	C	1.451099	0.975479	-0.438952
C53	C	1.518257	0.948132	-0.506205
O54	O	1.393977	0.889138	-0.381812
O55	O	1.642512	0.888919	-0.630622
C56	C	1.792219	0.251831	-0.506185
C57	C	1.908996	0.251834	-0.506194
C58	C	1.518264	0.251774	-0.780197
C59	C	1.518298	0.251753	-0.896973
C60	C	1.518338	1.115452	-0.506208
C61	C	1.518283	1.057338	-0.506211
C62	C	1.585548	0.218309	-0.951855
C63	C	1.585566	0.218286	-1.061579
C64	C	1.451080	0.285156	-1.061531
C65	C	1.451058	0.285176	-0.951808
C66	C	1.518168	0.251837	-0.233196
C67	C	1.518338	0.251711	-0.116420
H68	H	0.919194	0.191094	-0.384513
H69	H	1.640102	0.953122	-0.628214
H70	H	1.396338	0.312369	-1.106191
C71	C	1.377266	1.060170	-0.364977
C72	C	1.257819	1.052720	-0.373423
C73	C	1.183979	1.082811	-0.299437
C74	C	1.229586	1.120351	-0.217004
C75	C	1.349040	1.127802	-0.208555
C76	C	1.422880	1.097711	-0.282541
H77	H	1.224052	1.024929	-0.434448
H78	H	1.095552	1.077295	-0.305692
H79	H	1.174926	1.142626	-0.162235
H80	H	1.382806	1.155593	-0.147530
H81	H	1.511307	1.103227	-0.276285
C82	C	1.659547	0.181499	-1.121948
C83	C	1.659573	0.181472	-1.242638
C84	C	1.733556	0.144683	-1.303007
C85	C	1.807513	0.107921	-1.242686
C86	C	1.807490	0.107946	-1.121990
C87	C	1.733507	0.144736	-1.061621
H88	H	1.604823	0.208687	-1.287298
H89	H	1.733573	0.144664	-1.392355
H90	H	1.862280	0.080687	-1.287375
H91	H	1.862240	0.080731	-1.077330
H92	H	1.733490	0.144754	-0.972272
C93	C	1.377074	0.321963	-0.891426
C94	C	1.422514	0.363023	-0.815973
C95	C	1.348528	0.399804	-0.755587
C96	C	1.229102	0.395526	-0.770654
C97	C	1.183656	0.354464	-0.846110
C98	C	1.257642	0.317683	-0.906496
H99	H	1.510926	0.366192	-0.804816
H100	H	1.382171	0.430201	-0.699730
H101	H	1.174333	0.422753	-0.725953
H102	H	1.095244	0.351295	-0.857267
H103	H	1.223999	0.287286	-0.962353
H104	H	1.118261	0.191082	-0.384475
H105	H	1.118235	0.312568	-0.627844
C106	C	1.377203	0.945502	-0.364977
C107	C	1.294680	0.907986	-0.410421
C108	C	1.220788	0.878015	-0.336439
C109	C	1.229420	0.885561	-0.217012
C110	C	1.311947	0.923079	-0.171562
C111	C	1.385839	0.953050	-0.245544
H112	H	1.288287	0.902398	-0.498833
H113	H	1.159695	0.850241	-0.370085
H114	H	1.174720	0.863375	-0.162246
H115	H	1.318340	0.928667	-0.083150
H116	H	1.446931	0.980824	-0.211898
H117	H	1.396242	0.550002	-0.384149
H118	H	1.329226	0.801237	-0.316895
C119	C	0.903503	0.322138	-0.647042
C120	C	0.963842	0.358962	-0.720804
C121	C	0.903492	0.395792	-0.794594
C122	C	0.782802	0.395797	-0.794623
C123	C	0.722456	0.358971	-0.720858
C124	C	0.782806	0.322141	-0.647068
H125	H	1.053190	0.358960	-0.720785
H126	H	0.948165	0.423053	-0.849199
H127	H	0.738127	0.423060	-0.849247
H128	H	0.633108	0.358973	-0.720877
H129	H	0.738133	0.294880	-0.592463
H130	H	1.707194	0.800946	-0.695446
C131	C	1.659315	1.059962	-0.647444
C132	C	1.778752	1.052403	-0.638970
C133	C	1.852642	1.082375	-0.712953
C134	C	1.807095	1.119906	-0.795409
C135	C	1.687652	1.127466	-0.803887
C136	C	1.613762	1.097494	-0.729904
H137	H	1.812474	1.024619	-0.577928
H138	H	1.941061	1.076778	-0.706677
H139	H	1.861792	1.142092	-0.850176
H140	H	1.653930	1.155250	-0.864929
H141	H	1.525342	1.103091	-0.736180
H142	H	1.707152	0.701900	-0.695436
H143	H	1.639923	0.549826	-0.628192
C144	C	1.377000	0.443164	-0.364938
C145	C	1.303149	0.473256	-0.290974
C146	C	1.229258	0.443286	-0.216988
C147	C	1.229219	0.383225	-0.216967
C148	C	1.303073	0.353129	-0.290934
C149	C	1.376963	0.383099	-0.364920
H150	H	1.303175	0.517720	-0.290987
H151	H	1.174587	0.465565	-0.162233
H152	H	1.174521	0.361039	-0.162198
H153	H	1.303047	0.308665	-0.290920
H154	H	1.431635	0.360820	-0.419675
H155	H	1.639879	0.450761	-0.628171
H156	H	1.640297	0.191092	-0.907211
H157	H	1.329174	0.702185	-0.316890
