data_functionalizedCrystal
_audit_creation_method	'MofGen! by Chris Wilmer'
_symmetry_space_group_name_H-M	'P1'
_symmetry_Int_Tables_number	1
_symmetry_cell_setting	triclinic
loop_
_symmetry_equiv_pos_as_xyz
  x,y,z
_cell_length_a	10.723023
_cell_length_b	15.944493
_cell_length_c	9.198806
_cell_angle_alpha	90.002690
_cell_angle_beta	89.996513
_cell_angle_gamma	83.971296
loop_
_atom_site_label
_atom_site_type_symbol
_atom_site_fract_x
_atom_site_fract_y
_atom_site_fract_z
O1	O	1.655664	0.117808	-0.120857
O2	O	1.292365	0.129086	-0.120861
O3	O	1.483973	0.001226	-0.120871
O4	O	1.464056	0.245668	-0.120847
O5	O	1.483958	0.001225	0.120914
O6	O	1.292350	0.129085	0.120924
O7	O	1.655648	0.117808	0.120928
Cu8	Cu	1.473998	0.123446	0.143003
Cu9	Cu	1.474016	0.123447	-0.142936
O10	O	1.464041	0.245668	0.120938
C11	C	1.245869	0.128265	0.000031
C12	C	1.107346	0.125810	0.000028
C13	C	0.902433	0.122178	-0.125224
C14	C	1.045604	0.124716	-0.125224
C15	C	1.483151	-0.030074	0.000016
C16	C	1.480711	-0.123337	-0.000003
C17	C	1.593495	-0.358451	0.000026
C18	C	1.532682	-0.409367	-0.119187
C19	C	1.476189	-0.294084	0.000015
C20	C	1.532640	-0.409344	0.119194
C21	C	1.471829	-0.459018	0.000038
C22	C	1.415407	-0.343771	-0.119296
C23	C	1.415382	-0.343744	0.119192
C24	C	1.354483	-0.394628	-0.000050
C25	C	1.478703	-0.199069	-0.000000
C26	C	1.469305	-0.554030	0.000043
C27	C	1.702145	0.118628	0.000033
C28	C	1.840668	0.121083	0.000026
C29	C	1.464862	0.276967	0.000049
C30	C	1.467303	0.370230	0.000058
N31	N	1.473994	0.123446	0.344117
N32	N	1.474029	0.123441	-0.344050
C33	C	1.554448	0.069524	0.416310
C34	C	1.554467	0.069521	0.583722
H35	H	1.098720	0.125662	-0.232456
C36	C	1.305093	-0.369486	-0.339301
C37	C	1.348586	-0.305258	-0.255510
H38	H	1.263839	-0.345707	-0.423388
H39	H	1.373967	-0.408365	-0.367783
H40	H	1.247959	-0.397937	-0.283561
H41	H	1.405728	-0.276811	-0.311247
H42	H	1.279703	-0.266364	-0.227030
C43	C	1.627162	-0.075515	0.630828
C44	C	1.647456	0.007195	0.667519
H45	H	1.684576	-0.113993	0.682558
H46	H	1.543817	-0.084968	0.655725
H47	H	1.639351	-0.083679	0.529315
H48	H	1.635257	0.015361	0.769031
H49	H	1.730821	0.016651	0.642632
C50	C	0.702791	0.118643	-0.241970
C51	C	0.830745	0.120910	-0.269992
H52	H	0.658537	0.117865	-0.331349
H53	H	0.691051	0.069370	-0.187801
H54	H	0.672003	0.167167	-0.187775
H55	H	0.861535	0.072383	-0.324178
H56	H	0.842492	0.170187	-0.324185
H57	H	1.405150	0.169611	0.593877
C58	C	1.304365	0.140844	0.515514
C59	C	1.381024	0.185765	0.427983
H60	H	1.246974	0.179320	0.567292
H61	H	1.259279	0.105741	0.456138
H62	H	1.354858	0.107016	0.582492
H63	H	1.330532	0.219589	0.360998
H64	H	1.426113	0.220883	0.487364
H65	H	1.694540	-0.342244	-0.000093
H66	H	1.054236	0.124873	0.107265
C67	C	1.770297	0.021179	0.369195
C68	C	1.647449	0.007202	0.332490
H69	H	1.827720	-0.017301	0.317467
H70	H	1.784027	0.077288	0.344303
H71	H	1.782462	0.013015	0.470708
H72	H	1.635282	0.015372	0.230978
H73	H	1.633714	-0.048921	0.357372
C74	C	1.001245	0.051598	0.152719
C75	C	0.912358	0.122353	0.144793
H76	H	1.045505	0.052386	0.242092
H77	H	0.959986	0.001811	0.147320
H78	H	1.058540	0.052622	0.074130
H79	H	0.855057	0.121326	0.223377
H80	H	0.953619	0.172153	0.150207
C81	C	1.724645	-0.430181	-0.255025
C82	C	1.599563	-0.448069	-0.255238
H83	H	1.765939	-0.454078	-0.339010
H84	H	1.727365	-0.370831	-0.255566
H85	H	1.765463	-0.453515	-0.170362
H86	H	1.558742	-0.424729	-0.339897
H87	H	1.596836	-0.507431	-0.254711
H88	H	1.253359	-0.410672	-0.000116
H89	H	1.365878	-0.315067	0.219981
C90	C	1.724605	-0.430107	0.255004
C91	C	1.599530	-0.448010	0.255253
H92	H	1.765901	-0.453973	0.339001
H93	H	1.765426	-0.453457	0.170360
H94	H	1.727309	-0.370748	0.255507
H95	H	1.596826	-0.507369	0.254739
H96	H	1.558699	-0.424664	0.339920
