data_functionalizedCrystal
_audit_creation_method	'MofGen! by Chris Wilmer'
_symmetry_space_group_name_H-M	'P1'
_symmetry_Int_Tables_number	1
_symmetry_cell_setting	triclinic
loop_
_symmetry_equiv_pos_as_xyz
  x,y,z
_cell_length_a	6.817900
_cell_length_b	17.982783
_cell_length_c	16.305550
_cell_angle_alpha	95.663698
_cell_angle_beta	103.455250
_cell_angle_gamma	102.448572
loop_
_atom_site_label
_atom_site_type_symbol
_atom_site_fract_x
_atom_site_fract_y
_atom_site_fract_z
V1	V	-4.021167	-0.106056	-0.263384
O2	O	-4.014054	0.004435	-0.258010
O3	O	-3.967657	-0.209654	-0.261929
O4	O	-3.972637	-0.104715	-0.378096
O5	O	-4.009039	-0.101231	-0.141038
V6	V	-4.505474	-0.092806	-0.248708
O7	O	-4.280706	-0.135121	-0.295576
O8	O	-4.696132	-0.063740	-0.216516
O9	O	-4.335777	0.010793	-0.250163
O10	O	-4.629984	-0.203296	-0.254082
O11	O	-4.634999	-0.097630	-0.371054
O12	O	-4.330797	-0.094147	-0.133995
C13	C	-3.811419	-0.234900	-0.257863
C14	C	-3.848954	-0.319596	-0.257439
C15	C	-3.827008	-0.348316	-0.179947
C16	C	-3.862296	-0.427897	-0.179551
C17	C	-3.919515	-0.478756	-0.256647
C18	C	-3.941467	-0.450030	-0.334144
C19	C	-3.906194	-0.370451	-0.334540
C20	C	-4.083724	-0.770965	-0.332550
C21	C	-4.118991	-0.850548	-0.332148
C22	C	-4.039827	-0.828410	-0.177561
C23	C	-4.004554	-0.748831	-0.177957
C24	C	-4.026519	-0.720113	-0.255454
C25	C	-3.988259	-0.633822	-0.255883
C26	C	-3.957760	-0.565045	-0.256218
C27	C	-3.817771	-0.101038	-0.406045
C28	C	-3.859342	-0.100628	-0.499826
C29	C	-4.010505	-0.099035	-0.840566
C30	C	-3.774684	-0.094308	-0.799622
C31	C	-3.731454	-0.095050	-0.702129
C32	C	-3.935510	-0.099825	-0.671521
C33	C	-4.098940	-0.175069	-0.722397
C34	C	-4.140824	-0.174644	-0.819945
C35	C	-4.068609	-0.029119	-0.794490
C36	C	-4.020708	-0.028524	-0.696646
C37	C	-3.893139	-0.100274	-0.575984
C38	C	-4.052885	-0.098591	-0.936103
C39	C	-4.155357	0.036035	-0.254226
C40	C	-4.097060	0.120730	-0.254656
C41	C	-4.149005	-0.097825	-0.106042
C42	C	-4.086673	-0.098232	-0.012261
H43	H	-3.607548	-0.040950	-0.666926
O44	O	-4.273729	-0.032541	-0.826613
C45	C	-4.364444	-0.097800	-0.890385
H46	H	-4.238347	-0.115623	-0.917226
H47	H	-4.444261	-0.147282	-0.861647
C48	C	-4.680925	-0.056281	-0.929644
C49	C	-4.526053	-0.078166	-0.962615
H50	H	-4.780620	-0.044172	-0.974197
H51	H	-4.619813	-0.012316	-0.886677
H52	H	-4.747415	-0.097519	-0.905696
H53	H	-4.459548	-0.036925	-0.986553
H54	H	-4.587157	-0.122124	-1.005588
H55	H	-3.902326	0.027131	-0.662083
H56	H	-3.671148	-0.039951	-0.811805
O57	O	-3.718376	-0.154299	-0.837470
C58	C	-3.891160	-0.200508	-0.900839
H59	H	-4.040766	-0.191571	-0.886202
H60	H	-3.883993	-0.183578	-0.965837
C61	C	-3.703741	-0.296903	-0.920005
C62	C	-3.887490	-0.285931	-0.902024
H63	H	-3.701475	-0.349596	-0.920739
H64	H	-3.587330	-0.265770	-0.877315
H65	H	-3.697790	-0.282790	-0.974169
H66	H	-3.893426	-0.300035	-0.847857
H67	H	-4.003903	-0.317068	-0.944705
H68	H	-3.662595	-0.145862	-0.686005
H69	H	-4.102144	-0.227572	-0.850502
O70	O	-3.927502	-0.342423	-0.409741
C71	C	-3.884056	-0.261278	-0.393559
H72	H	-3.908401	-0.242250	-0.328650
H73	H	-3.715817	-0.235796	-0.393621
C74	C	-4.001073	-0.256138	-0.543203
C75	C	-4.030992	-0.232767	-0.463484
H76	H	-4.091701	-0.238549	-0.586337
H77	H	-4.030336	-0.310806	-0.554107
H78	H	-3.860869	-0.234901	-0.543243
H79	H	-4.171185	-0.254012	-0.463442
H80	H	-4.001755	-0.178101	-0.452582
H81	H	-3.957953	-0.707425	-0.115177
H82	H	-4.314344	-0.181243	-0.847959
H83	H	-4.021953	-0.851802	-0.114459
H84	H	-4.040971	-0.228012	-0.705760
O85	O	-3.962593	0.038832	-0.810261
C86	C	-3.834274	0.024207	-0.863271
H87	H	-3.800860	-0.034685	-0.856781
H88	H	-3.916577	0.024880	-0.932488
C89	C	-3.669102	0.159206	-0.844413
C90	C	-3.628048	0.086877	-0.836436
H91	H	-3.541895	0.197866	-0.827864
H92	H	-3.755558	0.169061	-0.808701
H93	H	-3.737693	0.159756	-0.902094
H94	H	-3.559483	0.086325	-0.778754
H95	H	-3.541575	0.077024	-0.872138
H96	H	-4.168040	-0.027588	-0.675295
O97	O	-4.174670	-0.899850	-0.407123
C98	C	-4.186451	-0.857438	-0.475609
H99	H	-4.212884	-0.798817	-0.454700
H100	H	-4.034775	-0.848957	-0.495711
C101	C	-4.336039	-0.973755	-0.577191
C102	C	-4.368522	-0.901758	-0.551512
H103	H	-4.448342	-1.001094	-0.624014
H104	H	-4.328096	-1.002329	-0.531052
H105	H	-4.209637	-0.966677	-0.593937
H106	H	-4.494909	-0.908837	-0.534757
H107	H	-4.376492	-0.873186	-0.597651
H108	H	-3.780401	-0.306911	-0.117166
H109	H	-4.101586	-0.747592	-0.395653
O110	O	-3.841216	-0.455928	-0.104355
C111	C	-3.884613	-0.537071	-0.120533
H112	H	-3.986580	-0.558796	-0.188383
H113	H	-3.732655	-0.555722	-0.113015
C114	C	-3.874310	-0.544484	0.026627
C115	C	-3.999563	-0.571167	-0.056705
H116	H	-3.945208	-0.565517	0.066001
H117	H	-3.845065	-0.489816	0.037528
H118	H	-3.747686	-0.560028	0.032880
H119	H	-4.126171	-0.555615	-0.062960
H120	H	-4.028832	-0.625834	-0.067605
O121	O	-3.997327	-0.499515	-0.408987
C122	C	-4.192961	-0.549893	-0.417404
H123	H	-4.221503	-0.553437	-0.351571
H124	H	-4.319933	-0.527275	-0.458511
C125	C	-4.161528	-0.626337	-0.540855
C126	C	-4.196577	-0.630695	-0.459997
H127	H	-4.163765	-0.676179	-0.567132
H128	H	-4.029730	-0.592395	-0.535187
H129	H	-4.267344	-0.607485	-0.575100
H130	H	-4.090748	-0.649537	-0.425751
H131	H	-4.328358	-0.664642	-0.465661
H132	H	-4.251798	-0.181284	-0.703505
