data_functionalizedCrystal
_audit_creation_method	'MofGen! by Chris Wilmer'
_symmetry_space_group_name_H-M	'P1'
_symmetry_Int_Tables_number	1
_symmetry_cell_setting	triclinic
loop_
_symmetry_equiv_pos_as_xyz
  x,y,z
_cell_length_a	12.811438
_cell_length_b	13.339070
_cell_length_c	11.295483
_cell_angle_alpha	95.212346
_cell_angle_beta	80.460799
_cell_angle_gamma	99.764946
loop_
_atom_site_label
_atom_site_type_symbol
_atom_site_fract_x
_atom_site_fract_y
_atom_site_fract_z
O1	O	1.445528	0.118932	-0.255114
O2	O	1.142581	0.136009	-0.222402
O3	O	1.259286	-0.019681	-0.235000
O4	O	1.328823	0.274622	-0.242516
O5	O	1.249029	-0.006027	-0.035842
O6	O	1.132324	0.149663	-0.023245
O7	O	1.435271	0.132586	-0.055956
Cu8	Cu	1.282861	0.142371	-0.021415
Cu9	Cu	1.294991	0.126224	-0.256943
O10	O	1.318566	0.288276	-0.043358
C11	C	1.097886	0.142297	-0.118551
C12	C	0.979989	0.140681	-0.105821
C13	C	1.242411	-0.050506	-0.134155
C14	C	1.207399	-0.162695	-0.130379
C15	C	0.808227	0.145845	0.020676
C16	C	0.919002	0.147365	0.008720
C17	C	0.930193	0.132480	-0.208414
C18	C	0.819418	0.130960	-0.196458
C19	C	0.758438	0.137641	-0.081910
C20	C	0.647660	0.136114	-0.069955
C21	C	0.658854	0.121236	-0.287088
C22	C	0.769629	0.122756	-0.299043
C23	C	1.479638	-0.528364	-0.159774
C24	C	1.512537	-0.422956	-0.163315
C25	C	1.436255	-0.357886	-0.155082
C26	C	1.327069	-0.398233	-0.143306
C27	C	1.294166	-0.503651	-0.139755
C28	C	1.250784	-0.333173	-0.135063
C29	C	1.141597	-0.373520	-0.123287
C30	C	1.108700	-0.478927	-0.119738
C31	C	1.184982	-0.543998	-0.127971
C32	C	1.283686	-0.227755	-0.138614
C33	C	1.098215	-0.203042	-0.118595
C34	C	1.065316	-0.308450	-0.115054
C35	C	1.479966	0.126297	-0.159810
C36	C	1.597864	0.127913	-0.172548
C37	C	1.335441	0.319100	-0.144206
C38	C	1.370454	0.431289	-0.147990
N39	N	1.274337	0.153727	0.144241
N40	N	1.303521	0.114860	-0.422600
C41	C	1.364863	0.033054	0.383759
C42	C	1.358431	0.041644	0.509116
C43	C	1.255036	0.179489	0.520318
C44	C	1.261468	0.170900	0.394960
C45	C	1.316384	0.097681	0.326684
C46	C	1.322822	0.089098	0.201323
C47	C	1.219421	0.226937	0.212528
C48	C	1.212989	0.235527	0.337885
H49	H	0.598012	0.141561	0.023316
H50	H	1.463048	-0.272059	-0.157965
H51	H	1.210315	0.239095	0.575925
H52	H	1.019794	-0.511774	-0.110140
H53	H	1.541734	-0.581352	-0.166466
H54	H	0.758577	0.151292	0.113945
C55	C	1.383228	0.008554	0.126222
N56	N	1.428723	-0.052118	0.069660
C57	C	1.403788	-0.183386	-0.151575
N58	N	1.494256	-0.149970	-0.161343
C59	C	0.945212	-0.352845	-0.102084
N60	N	0.854749	-0.386285	-0.092310
C61	C	0.973765	0.156385	0.121572
N62	N	1.015011	0.163178	0.206578
C63	C	1.014298	-0.131469	-0.109541
N64	N	0.951099	-0.077554	-0.102721
H65	H	1.601436	-0.390113	-0.172901
C66	C	1.425277	-0.047481	0.308652
N67	N	1.470781	-0.108143	0.252084
H68	H	1.397906	-0.010983	0.555583
H69	H	0.979863	0.127049	-0.301674
H70	H	1.168273	0.295138	0.393490
C71	C	1.166091	0.298032	0.149736
N72	N	1.125925	0.351580	0.102440
C73	C	0.604078	0.112213	-0.399939
N74	N	0.562819	0.105416	-0.484936
C75	C	0.836718	0.115402	-0.425040
N76	N	0.887247	0.109857	-0.519944
H77	H	1.158201	-0.629831	-0.125093
