data_functionalizedCrystal
_audit_creation_method	'MofGen! by Chris Wilmer'
_symmetry_space_group_name_H-M	'P1'
_symmetry_Int_Tables_number	1
_symmetry_cell_setting	triclinic
loop_
_symmetry_equiv_pos_as_xyz
  x,y,z
_cell_length_a	18.050591
_cell_length_b	18.050589
_cell_length_c	18.050582
_cell_angle_alpha	90.018005
_cell_angle_beta	89.989456
_cell_angle_gamma	89.966462
loop_
_atom_site_label
_atom_site_type_symbol
_atom_site_fract_x
_atom_site_fract_y
_atom_site_fract_z
Zn1	Zn	1.135259	0.295730	-0.419849
Zn2	Zn	1.135156	0.419913	-0.295669
Zn3	Zn	1.011078	0.295739	-0.295683
Zn4	Zn	1.011012	0.419880	-0.419827
O5	O	1.073126	0.357815	-0.357757
O6	O	1.239170	0.312213	-0.403380
O7	O	1.118681	0.403459	-0.191746
O8	O	1.027622	0.191813	-0.312169
O9	O	1.239094	0.403450	-0.312146
O10	O	1.118857	0.191806	-0.403393
O11	O	1.027522	0.312228	-0.191756
O12	O	0.907145	0.312196	-0.312147
O13	O	1.027509	0.403393	-0.523755
O14	O	0.907096	0.403402	-0.403356
O15	O	1.118793	0.312181	-0.523771
O16	O	1.118617	0.523833	-0.312124
O17	O	1.027409	0.523809	-0.403342
C18	C	0.880174	0.357797	-0.357751
C19	C	0.797628	0.357807	-0.357766
C20	C	0.548798	0.407508	-0.407298
C21	C	0.598166	0.425579	-0.339513
C22	C	0.500508	0.357831	-0.357765
C23	C	0.598222	0.339783	-0.425546
C24	C	0.646493	0.357821	-0.357769
C25	C	0.548789	0.375937	-0.289944
C26	C	0.548840	0.290110	-0.376023
C27	C	0.598186	0.308155	-0.308192
C28	C	0.416410	0.357838	-0.357763
C29	C	0.730590	0.357813	-0.357763
C30	C	1.073015	0.550767	-0.357746
C31	C	1.073035	0.633313	-0.357765
C32	C	1.023463	0.832778	-0.407353
C33	C	1.005359	0.882211	-0.339588
C34	C	1.073091	0.784444	-0.357776
C35	C	1.091214	0.882092	-0.425550
C36	C	1.073144	0.930429	-0.357791
C37	C	1.054952	0.832790	-0.289974
C38	C	1.140839	0.832666	-0.375982
C39	C	1.122761	0.882077	-0.308169
C40	C	1.073059	0.700345	-0.357767
C41	C	1.073176	1.014525	-0.357792
C42	C	1.266832	0.357834	-0.357764
C43	C	1.349378	0.357842	-0.357767
C44	C	1.073230	1.164110	-0.357786
C45	C	1.073202	1.081564	-0.357801
C46	C	1.073155	0.357782	-0.551463
C47	C	1.073168	0.357768	-0.634009
C48	C	1.023566	0.407302	-0.833451
C49	C	1.091319	0.425457	-0.882838
C50	C	1.073204	0.357712	-0.785139
C51	C	1.005488	0.339536	-0.882833
C52	C	1.073234	0.357658	-0.931124
C53	C	1.140993	0.375902	-0.833440
C54	C	1.055117	0.289950	-0.833430
C55	C	1.122917	0.308079	-0.882796
C56	C	1.073186	0.357744	-0.701041
C57	C	1.073259	0.357626	-1.015221
C58	C	1.073140	0.357795	-0.164805
C59	C	1.073272	0.357599	-0.082260
H60	H	0.527166	0.391267	-0.232609
H61	H	0.948210	0.324186	-0.904530
H62	H	0.981439	0.811130	-0.449220
H63	H	1.164956	0.266119	-0.904325
H64	H	1.106635	0.482739	-0.904541
C65	C	0.927995	0.911614	-0.318781
C66	C	0.914032	0.995667	-0.314316
C67	C	0.836667	1.025065	-0.293513
C68	C	0.773264	0.970411	-0.277175
C69	C	0.787225	0.886353	-0.281639
C70	C	0.864591	0.856954	-0.302442
H71	H	0.960968	1.036130	-0.326412
H72	H	0.826332	1.087291	-0.290209
H73	H	0.715994	0.992173	-0.261775
H74	H	0.740290	0.845890	-0.269543
H75	H	0.874925	0.794729	-0.305746
C76	C	0.519538	0.212771	-0.396914
C77	C	0.539018	0.178794	-0.472725
C78	C	0.509713	0.101455	-0.493626
C79	C	0.460929	0.058093	-0.438717
C80	C	0.441447	0.092069	-0.362902
C81	C	0.470751	0.169408	-0.342001
H82	H	0.575133	0.210894	-0.513376
H83	H	0.524136	0.076304	-0.549750
H84	H	0.439237	0.000842	-0.454189
H85	H	0.405332	0.059970	-0.322251
H86	H	0.456329	0.194560	-0.285877
C87	C	1.218398	0.396727	-0.804259
C88	C	1.232678	0.400630	-0.720243
C89	C	1.310082	0.421453	-0.691062
C90	C	1.373205	0.438372	-0.745896
C91	C	1.358927	0.434469	-0.829917
C92	C	1.281523	0.413646	-0.859099
H93	H	1.185949	0.388105	-0.679647
H94	H	1.320651	0.424343	-0.628863
H95	H	1.430503	0.453787	-0.724294
H96	H	1.405656	0.446994	-0.870513
H97	H	1.270954	0.410757	-0.921297
H98	H	0.981627	0.449294	-0.811785
H99	H	1.039578	0.811223	-0.232649
H100	H	0.619833	0.482845	-0.324066
H101	H	0.619734	0.266140	-0.266257
H102	H	0.619935	0.324522	-0.482866
C103	C	0.519495	0.464304	-0.463812
C104	C	0.538965	0.546916	-0.455275
C105	C	0.509661	0.603713	-0.511785
C106	C	0.460886	0.577899	-0.576833
C107	C	0.441413	0.495284	-0.585373
C108	C	0.470717	0.438486	-0.528863
H109	H	0.575073	0.566028	-0.407120
H110	H	0.524076	0.664871	-0.505463
H111	H	0.439193	0.619944	-0.618665
H112	H	0.405305	0.476171	-0.633528
H113	H	0.456302	0.377329	-0.535185
C114	C	1.179482	0.911156	-0.251477
C115	C	1.171158	0.891524	-0.168878
C116	C	1.227872	0.920609	-0.112184
C117	C	1.292910	0.969326	-0.138087
C118	C	1.301237	0.988960	-0.220689
C119	C	1.244523	0.959875	-0.277384
H120	H	1.123010	0.855458	-0.149700
H121	H	1.221707	0.906074	-0.051036
H122	H	1.334893	0.990856	-0.096118
H123	H	1.349384	1.025025	-0.239868
H124	H	1.250687	0.974410	-0.338532
C125	C	1.218183	0.803238	-0.396807
C126	C	1.252218	0.822624	-0.472591
C127	C	1.329562	0.793193	-0.493427
C128	C	1.372872	0.744377	-0.438479
C129	C	1.338837	0.724989	-0.362690
C130	C	1.261493	0.754419	-0.341854
H131	H	1.220157	0.858762	-0.513272
H132	H	1.354757	0.807546	-0.549531
H133	H	1.430127	0.722591	-0.453902
H134	H	1.370898	0.688850	-0.322009
H135	H	1.236299	0.740066	-0.285750
H136	H	1.039781	0.232684	-0.811711
C137	C	1.111900	0.911350	-0.502968
C138	C	1.063304	0.891882	-0.570319
C139	C	1.083982	0.921138	-0.647739
C140	C	1.153256	0.969860	-0.657807
C141	C	1.201856	0.989330	-0.590454
C142	C	1.181178	0.960075	-0.513035
H143	H	1.012019	0.855813	-0.562867
H144	H	1.048004	0.906725	-0.697598
H145	H	1.168563	0.991517	-0.715118
H146	H	1.253140	1.025400	-0.597906
H147	H	1.217155	0.974488	-0.463176
