data_functionalizedCrystal
_audit_creation_method	'MofGen! by Chris Wilmer'
_symmetry_space_group_name_H-M	'P1'
_symmetry_Int_Tables_number	1
_symmetry_cell_setting	triclinic
loop_
_symmetry_equiv_pos_as_xyz
  x,y,z
_cell_length_a	6.817900
_cell_length_b	12.000057
_cell_length_c	10.943881
_cell_angle_alpha	88.705973
_cell_angle_beta	108.843448
_cell_angle_gamma	119.141479
loop_
_atom_site_label
_atom_site_type_symbol
_atom_site_fract_x
_atom_site_fract_y
_atom_site_fract_z
V1	V	-4.175687	-0.176828	-0.404730
O2	O	-4.070354	0.008535	-0.394784
O3	O	-4.212755	-0.350656	-0.404118
O4	O	-4.152742	-0.174091	-0.580263
O5	O	-4.130782	-0.169252	-0.217419
V6	V	-4.644942	-0.154658	-0.382064
O7	O	-4.468244	-0.225459	-0.454449
O8	O	-4.802582	-0.106028	-0.332345
O9	O	-4.384667	0.019170	-0.382677
O10	O	-4.867671	-0.340021	-0.392010
O11	O	-4.807243	-0.162234	-0.569375
O12	O	-4.444680	-0.157395	-0.206531
C13	C	-4.077724	-0.393032	-0.398289
C14	C	-4.189487	-0.535138	-0.398959
C15	C	-4.177749	-0.739182	-0.393743
C16	C	-4.062234	-0.592308	-0.393055
C17	C	-4.001170	-0.167805	-0.622979
C18	C	-4.064259	-0.166718	-0.766492
C19	C	-4.295750	-0.172738	-0.857450
C20	C	-4.144924	-0.062856	-0.921833
C21	C	-4.327410	-0.274585	-0.957811
C22	C	-3.912527	-0.056763	-0.828971
C23	C	-4.095120	-0.268588	-0.864958
C24	C	-3.944113	-0.158676	-0.929293
C25	C	-4.183043	0.061539	-0.388502
C26	C	-4.050520	0.203644	-0.387841
C27	C	-4.259595	-0.163685	-0.163809
C28	C	-4.175741	-0.164766	-0.020294
H29	H	-4.443638	-0.178559	-0.825653
H30	H	-4.383930	-0.594916	-0.404500
H31	H	-4.372192	-0.798968	-0.399301
H32	H	-3.856071	-0.736568	-0.382272
O33	O	-3.830111	-0.521020	-0.386184
C34	C	-3.415396	-0.451518	-0.262295
C35	C	-3.678155	-0.532279	-0.269897
H36	H	-3.292470	-0.460614	-0.168298
H37	H	-3.363378	-0.345737	-0.262832
H38	H	-3.395838	-0.488488	-0.350191
H39	H	-3.697908	-0.495421	-0.182021
H40	H	-3.730052	-0.638047	-0.269423
O41	O	-4.171132	0.040817	-0.952191
C42	C	-4.386615	0.150719	-0.950256
C43	C	-4.357205	0.033243	-0.915837
H44	H	-4.537013	0.144649	-0.920853
H45	H	-4.433202	0.151094	-1.060066
H46	H	-4.211252	0.243444	-0.895242
H47	H	-4.532494	-0.059543	-0.970762
H48	H	-4.310501	0.032983	-0.806008
O49	O	-3.702874	0.053253	-0.762428
C50	C	-3.505782	0.245836	-0.603916
C51	C	-3.743369	0.121300	-0.679209
H52	H	-3.538430	0.300874	-0.536595
H53	H	-3.435078	0.309095	-0.676320
H54	H	-3.367895	0.219680	-0.543023
H55	H	-3.881424	0.147338	-0.740104
H56	H	-3.813872	0.058074	-0.606736
H57	H	-4.503429	-0.366624	-1.013691
H58	H	-3.795843	-0.152688	-0.960818
O59	O	-4.069806	-0.372519	-0.834634
C60	C	-4.259068	-0.604803	-0.866551
C61	C	-4.288049	-0.487203	-0.900980
H62	H	-4.435474	-0.697553	-0.920195
H63	H	-4.209299	-0.604187	-0.756500
H64	H	-4.110891	-0.599716	-0.897537
H65	H	-4.436244	-0.492212	-0.870077
H66	H	-4.337691	-0.487860	-1.011031
