data_functionalizedCrystal
_audit_creation_method	'MofGen! by Chris Wilmer'
_symmetry_space_group_name_H-M	'P1'
_symmetry_Int_Tables_number	1
_symmetry_cell_setting	triclinic
loop_
_symmetry_equiv_pos_as_xyz
  x,y,z
_cell_length_a	14.044220
_cell_length_b	9.065218
_cell_length_c	7.540329
_cell_angle_alpha	89.998628
_cell_angle_beta	89.996748
_cell_angle_gamma	90.897619
loop_
_atom_site_label
_atom_site_type_symbol
_atom_site_fract_x
_atom_site_fract_y
_atom_site_fract_z
O1	O	1.260760	-0.356074	0.147280
O2	O	1.760760	0.143926	0.647280
O3	O	0.984680	-0.343225	0.147326
O4	O	1.484680	0.156775	0.647326
O5	O	1.128427	-0.135639	0.147298
O6	O	1.628427	0.364361	0.647298
O7	O	1.117014	-0.563659	0.147308
O8	O	1.617014	-0.063659	0.647308
O9	O	1.128422	-0.135637	-0.147667
O10	O	1.628422	0.364363	0.352333
O11	O	0.984675	-0.343222	-0.147639
O12	O	1.484675	0.156778	0.352361
O13	O	1.260755	-0.356071	-0.147685
O14	O	1.760755	0.143929	0.352315
Cu15	Cu	1.122715	-0.349647	-0.174595
Cu16	Cu	1.622715	0.150353	0.325405
Cu17	Cu	1.122721	-0.349649	0.174236
Cu18	Cu	1.622721	0.150351	0.674236
O19	O	1.117009	-0.563657	-0.147657
O20	O	1.617009	-0.063657	0.352343
C21	C	0.949315	-0.337599	-0.000151
C22	C	1.449315	0.162401	0.499849
C23	C	0.843945	-0.320822	-0.000133
C24	C	1.343945	0.179178	0.499867
C25	C	1.127327	-0.080530	-0.000181
C26	C	1.627327	0.419470	0.499819
C27	C	1.124048	0.083677	-0.000172
C28	C	1.624048	0.583677	0.499828
N29	N	1.122717	-0.349645	-0.419943
N30	N	1.622717	0.150355	0.080057
C31	C	0.651021	-0.290150	-0.000169
C32	C	1.151021	0.209850	0.499831
C33	C	0.594409	-0.409139	-0.000174
C34	C	1.094409	0.090861	0.499826
C35	C	0.487059	-0.392073	-0.000194
C36	C	0.987059	0.107927	0.499806
C37	C	0.758381	-0.307214	-0.000149
C38	C	1.258381	0.192786	0.499851
C39	C	1.296120	-0.361697	-0.000204
C40	C	1.796120	0.138303	0.499796
C41	C	1.401490	-0.378474	-0.000210
C42	C	1.901490	0.121526	0.499790
C43	C	1.118108	-0.618766	-0.000174
C44	C	1.618108	-0.118766	0.499826
C45	C	1.121388	-0.782972	-0.000171
C46	C	1.621388	-0.282972	0.499829
N47	N	1.122725	-0.349641	0.419584
N48	N	1.622725	0.150359	0.919584
H49	H	0.626565	-0.523826	-0.000163
H50	H	1.126565	-0.023826	0.499837
C51	C	0.607581	-0.135223	-0.000168
C52	C	1.107581	0.364777	0.499832
N53	N	0.574852	-0.018533	-0.000159
N54	N	1.074852	0.481467	0.499841
