data_functionalizedCrystal
_audit_creation_method	'MofGen! by Chris Wilmer'
_symmetry_space_group_name_H-M	'P1'
_symmetry_Int_Tables_number	1
_symmetry_cell_setting	triclinic
loop_
_symmetry_equiv_pos_as_xyz
  x,y,z
_cell_length_a	6.817900
_cell_length_b	12.840964
_cell_length_c	10.943632
_cell_angle_alpha	81.927485
_cell_angle_beta	108.838880
_cell_angle_gamma	88.344333
loop_
_atom_site_label
_atom_site_type_symbol
_atom_site_fract_x
_atom_site_fract_y
_atom_site_fract_z
V1	V	-3.926142	0.325184	-0.181645
O2	O	-3.887440	0.319020	0.005626
O3	O	-3.905401	0.322936	-0.357187
O4	O	-3.821514	0.467020	-0.180212
O5	O	-3.971908	0.173938	-0.172574
V6	V	-4.413471	0.307097	-0.159084
O7	O	-4.179050	0.364860	-0.231133
O8	O	-4.610760	0.267421	-0.109595
O9	O	-4.211005	0.309346	0.016458
O10	O	-4.569569	0.313262	-0.346355
O11	O	-4.485101	0.458343	-0.168155
O12	O	-4.294892	0.165262	-0.160517
C13	C	-3.758950	0.317799	-0.399938
C14	C	-3.822904	0.316906	-0.543455
C15	C	-3.647811	0.619723	-0.174202
C16	C	-3.651945	0.501590	-0.174199
C17	C	-4.127793	0.130684	-0.166544
C18	C	-4.110799	0.012553	-0.166552
C19	C	-3.671210	0.310966	-0.620552
C20	C	-3.799075	0.226765	-0.692418
C21	C	-3.809015	0.399526	-0.727313
C22	C	-3.949924	0.232646	-0.613416
C23	C	-3.959838	0.405483	-0.648317
C24	C	-4.087823	0.321266	-0.720145
V25	V	-3.909086	0.811348	-0.181664
O26	O	-3.944242	0.962559	-0.172596
O27	O	-3.814598	0.664163	-0.180228
O28	O	-3.886808	0.852706	-0.357205
O29	O	-3.871532	0.772710	0.005606
V30	V	-4.394473	0.848802	-0.159113
O31	O	-4.163932	0.795809	-0.231157
O32	O	-4.589033	0.887028	-0.109628
O33	O	-4.266147	0.984738	-0.160545
O34	O	-4.476508	0.703508	-0.168183
O35	O	-4.549217	0.893356	-0.346385
O36	O	-4.193937	0.796195	0.016432
C37	C	-4.020800	0.314479	0.059202
C38	C	-3.936082	0.315379	0.202718
C39	C	-3.739907	0.860229	-0.399946
C40	C	-3.802527	0.897183	-0.543461
C41	C	-4.004770	0.771703	0.059186
C42	C	-3.921425	0.733712	0.202704
C43	C	-4.013015	0.919990	-0.617490
C44	C	-4.071880	0.954728	-0.752336
C45	C	-3.920254	0.966651	-0.813152
C46	C	-3.709747	0.943844	-0.739113
C47	C	-3.650885	0.909114	-0.604268
C48	C	-3.709240	0.703445	0.263494
C49	C	-3.630896	0.667761	0.398346
C50	C	-3.764745	0.662337	0.472404
C51	C	-3.976948	0.692610	0.411606
C52	C	-4.055286	0.728301	0.276757
H53	H	-3.494490	0.306512	-0.577027
H54	H	-4.228069	0.752938	0.227272
C55	C	-3.397485	0.634453	0.465203
H56	H	-3.369975	0.612430	0.556124
H57	H	-3.359359	0.577828	0.428019
H58	H	-3.319123	0.692568	0.452727
H59	H	-3.731773	0.151194	-0.712475
C60	C	-4.303436	0.979795	-0.833757
H61	H	-4.385296	0.967699	-0.778221
H62	H	-4.326268	1.051559	-0.874266
H63	H	-4.341604	0.935570	-0.899004
C64	C	-4.029540	0.137270	-0.546660
H65	H	-3.988051	0.138383	-0.455243
H66	H	-4.176920	0.140687	-0.581560
H67	H	-3.972719	0.073892	-0.561973
H68	H	-3.700931	0.633271	0.582205
H69	H	-4.264561	0.325591	-0.763410
C70	C	-4.050633	0.507569	-0.621160
H71	H	-3.999822	0.566784	-0.660441
H72	H	-4.198000	0.511848	-0.656815
H73	H	-4.010038	0.507068	-0.529456
H74	H	-3.750042	0.470029	-0.776886
H75	H	-4.136506	0.910283	-0.567993
C76	C	-3.985043	1.004728	-0.961506
H77	H	-4.132131	1.016555	-0.996885
H78	H	-3.923862	1.068558	-0.977336
H79	H	-3.939148	0.952508	-1.001833
H80	H	-3.586308	0.953558	-0.788650
H81	H	-3.479484	0.890542	-0.544005
C82	C	-3.561975	0.709411	0.182055
H83	H	-3.424387	0.686283	0.237592
H84	H	-3.605415	0.665452	0.116816
H85	H	-3.565235	0.780194	0.141539
H86	H	-4.085910	0.688189	0.471924
