data_functionalizedCrystal
_audit_creation_method	'MofGen! by Chris Wilmer'
_symmetry_space_group_name_H-M	'P1'
_symmetry_Int_Tables_number	1
_symmetry_cell_setting	triclinic
loop_
_symmetry_equiv_pos_as_xyz
  x,y,z
_cell_length_a	19.377372
_cell_length_b	14.560438
_cell_length_c	19.376995
_cell_angle_alpha	52.465634
_cell_angle_beta	75.975458
_cell_angle_gamma	72.112724
loop_
_atom_site_label
_atom_site_type_symbol
_atom_site_fract_x
_atom_site_fract_y
_atom_site_fract_z
Zr1	Zr	0.626011	1.300127	-0.207955
O2	O	0.551691	1.456728	-0.308188
O3	O	0.648794	1.119255	-0.177229
O4	O	0.682649	1.326807	-0.332126
O5	O	0.491131	1.236595	-0.031103
O6	O	0.785950	1.375461	-0.351008
O7	O	0.517836	1.249177	-0.153291
O8	O	0.725391	1.004189	-0.073925
O9	O	0.551690	1.607867	-0.308186
O10	O	0.735603	1.238949	-0.178214
O11	O	0.638581	1.193250	-0.072936
O12	O	0.678440	1.437615	-0.255308
O13	O	0.581417	1.391915	-0.150030
Zr14	Zr	0.748172	1.357658	-0.043193
Zr15	Zr	0.790765	1.377724	-0.238068
Zr16	Zr	0.583419	1.280060	-0.013080
Zr17	Zr	0.626010	1.541175	-0.207952
Zr18	Zr	0.748173	1.116609	-0.043196
O19	O	0.725389	1.538529	-0.073918
O20	O	0.785949	1.567062	-0.351005
O21	O	0.491130	1.428196	-0.031101
O22	O	0.822493	1.201056	0.057040
O23	O	0.883053	1.229588	-0.220046
O24	O	0.588234	1.090723	0.099858
O25	O	0.883052	1.421190	-0.220044
O26	O	0.691534	1.330978	0.080979
O27	O	0.588233	1.282324	0.099860
O28	O	0.856347	1.408608	-0.097857
O29	O	0.682647	1.669546	-0.332122
O30	O	0.691536	0.988238	0.080975
O31	O	0.822493	1.049918	0.057038
O32	O	0.856348	1.065868	-0.097861
O33	O	0.517835	1.591916	-0.153287
O34	O	0.648792	1.653596	-0.177223
O35	O	0.695743	1.220170	0.004160
O36	O	0.792766	1.265869	-0.101118
O37	O	0.735602	1.464535	-0.178211
O38	O	0.638580	1.418835	-0.072934
C39	C	0.687093	1.027378	-0.125577
C40	C	0.687093	0.925046	-0.125579
C41	C	0.737736	0.900826	-0.180534
C42	C	0.737736	0.804668	-0.180527
C43	C	0.636445	0.756962	-0.070608
C44	C	0.636449	0.853113	-0.070611
C45	C	0.796213	0.928371	-0.243997
C46	C	0.796214	0.832213	-0.243991
C47	C	0.481010	1.231830	-0.087907
C48	C	0.411067	1.198888	-0.075123
C49	C	0.031847	1.609041	-0.234289
C50	C	-0.033867	1.578059	-0.222266
C51	C	0.025817	1.370668	-0.141786
C52	C	0.091536	1.401631	-0.153799
C53	C	0.094545	1.520820	-0.200053
C54	C	0.154235	1.313411	-0.119563
C55	C	0.219949	1.344373	-0.131579
C56	C	0.222965	1.463556	-0.177833
C57	C	0.160259	1.551782	-0.212070
C58	C	0.151225	1.194223	-0.073315
C59	C	0.213924	1.106002	-0.039078
C60	C	0.279639	1.136963	-0.051089
C61	C	0.282655	1.256146	-0.097343
C62	C	0.342344	1.048737	-0.016853
C63	C	0.408059	1.079699	-0.028869
C64	C	0.348369	1.287109	-0.109359
C65	C	0.893173	1.425955	-0.163241
C66	C	0.963116	1.458897	-0.176025
C67	C	0.740368	1.353993	-0.369332
C68	C	0.758449	1.362512	-0.452062
C69	C	0.687090	1.630407	-0.125570
C70	C	0.687090	1.732738	-0.125569
C71	C	0.840841	1.401319	-0.579067
C72	C	0.823844	1.393312	-0.501329
C73	C	0.710027	1.339700	-0.480517
C74	C	0.727016	1.347697	-0.558252
C75	C	0.792424	1.378509	-0.607522
C76	C	0.678599	1.324887	-0.586707
C77	C	0.695586	1.332889	-0.664438
C78	C	0.760989	1.363703	-0.713714
C79	C	0.809410	1.386512	-0.685253
C80	C	0.613190	1.294084	-0.537439
C81	C	0.564773	1.271273	-0.565894
C82	C	0.581761	1.279267	-0.643624
C83	C	0.647164	1.310081	-0.692900
C84	C	0.533340	1.256459	-0.672085
C85	C	0.550326	1.264462	-0.749816
C86	C	0.664151	1.318084	-0.770631
C87	C	0.633815	1.303792	0.118185
C88	C	0.615734	1.295273	0.200914
C89	C	0.893175	1.124440	-0.163245
C90	C	0.963118	1.055051	-0.176030
C91	C	0.633817	1.002277	0.118181
C92	C	0.615736	0.891427	0.200909
C93	C	0.839898	1.099340	0.080514
C94	C	0.891760	1.021432	0.150458
C95	C	0.534285	1.558445	-0.331662
C96	C	0.482423	1.636353	-0.401606
C97	C	0.481008	1.533344	-0.087903
C98	C	0.411066	1.602734	-0.075118
C99	C	0.740367	1.655507	-0.369329
C100	C	0.758448	1.766357	-0.452057
C101	C	0.966127	1.008414	-0.222285
C102	C	1.031843	0.943228	-0.234315
C103	C	1.094548	0.924673	-0.200084
C104	C	1.091537	0.971318	-0.153826
C105	C	1.025823	1.036510	-0.141802
C106	C	0.637081	0.853422	0.280011
C107	C	0.620087	0.749278	0.357751
C108	C	0.581753	0.683136	0.356386
C109	C	0.560404	0.721149	0.277277
C110	C	0.577394	0.825296	0.199539
C111	C	0.966766	1.008703	0.128350
C112	C	1.015503	0.935517	0.194061
C113	C	0.989232	0.875055	0.281881
C114	C	0.914219	0.887789	0.303989
C115	C	0.865483	0.960980	0.238278
C116	C	0.407417	1.649093	-0.379497
C117	C	0.358680	1.722309	-0.445209
C118	C	0.384951	1.782776	-0.533028
C119	C	0.459964	1.770036	-0.555137
C120	C	0.508700	1.696828	-0.489426
C121	C	0.408058	1.649382	-0.028870
C122	C	0.342346	1.714597	-0.016862
C123	C	0.279642	1.733155	-0.051096
C124	C	0.282652	1.686505	-0.097350
C125	C	0.348364	1.621298	-0.109363
C126	C	0.796784	1.832469	-0.450665
C127	C	0.813786	1.936618	-0.528392
C128	C	0.792447	1.974658	-0.607510
C129	C	0.754110	1.908536	-0.608900
C130	C	0.737112	1.804384	-0.531174
H131	H	0.595218	0.872816	-0.025851
H132	H	0.892838	0.838550	0.375500
H133	H	0.480082	1.231383	-0.631964
F134	F	0.351572	1.413962	-0.158578
F135	F	0.474786	1.629647	0.007570
H136	H	0.211464	1.008960	-0.001421
H137	H	0.595212	0.698383	-0.025855
F138	F	0.994741	1.073048	0.034889
H139	H	0.386013	1.599859	-0.307994
F140	F	0.642816	0.708839	0.441935
H141	H	0.097716	1.169019	-0.063539
H142	H	0.915078	1.023523	-0.250174
F143	F	0.339133	0.921894	0.032363
H144	H	0.804409	0.971330	0.256292
H145	H	1.034281	0.905254	-0.271981
F146	F	0.696304	1.734038	-0.532668
F147	F	0.278848	1.735849	-0.421662
H148	H	0.851066	0.916373	-0.224674
H149	H	0.339909	1.752570	0.020804
H150	H	0.786268	0.865359	-0.312046
F151	F	0.215910	1.706263	-0.133778
H152	H	-0.084919	1.649908	-0.250151
H153	H	0.894106	1.426397	-0.619181
H154	H	0.717416	1.343161	-0.810744
H155	H	0.529190	0.667282	0.276179
H156	H	0.668294	0.907264	0.281139
F157	F	1.041110	0.797160	0.351808
H158	H	0.350803	1.583315	-0.147019
F159	F	0.333073	1.860687	-0.602956
H160	H	0.560012	0.856227	0.135134
F161	F	0.776238	1.044157	-0.328653
F162	F	0.209710	1.802556	-0.038303
H163	H	0.814163	1.801515	-0.386251
F164	F	0.854584	2.006977	-0.526894
H165	H	0.276476	1.488763	-0.187618
H166	H	0.459108	1.007859	-0.000975
H167	H	0.567924	0.598335	0.419691
F168	F	1.095335	0.921976	0.170514
F169	F	0.879030	1.419289	-0.737686
F170	F	0.863620	0.738765	-0.210799
F171	F	0.588529	1.683272	-0.512969
F172	F	0.487913	1.834396	-0.648606
F173	F	1.022629	1.086133	-0.092564
H174	H	1.148052	0.871586	-0.209880
F175	F	1.158279	0.951557	-0.117397
H176	H	0.162702	1.648835	-0.249707
F177	F	0.810541	2.085510	-0.690226
F178	F	0.779065	1.372227	-0.796446
H179	H	0.034289	1.706093	-0.271927
F180	F	0.022606	1.243823	-0.092563
F181	F	0.640417	1.306914	-0.428076
F182	F	0.875382	1.417597	-0.471053
F183	F	0.595113	1.285575	-0.454713
H184	H	0.736739	1.939524	-0.673328
F185	F	0.495162	1.238487	-0.513454
H186	H	0.510899	1.245888	-0.772984
