data_functionalizedCrystal
_audit_creation_method	'MofGen! by Chris Wilmer'
_symmetry_space_group_name_H-M	'P1'
_symmetry_Int_Tables_number	1
_symmetry_cell_setting	triclinic
loop_
_symmetry_equiv_pos_as_xyz
  x,y,z
_cell_length_a	14.044191
_cell_length_b	13.101039
_cell_length_c	10.654541
_cell_angle_alpha	93.395008
_cell_angle_beta	91.162147
_cell_angle_gamma	93.662449
loop_
_atom_site_label
_atom_site_type_symbol
_atom_site_fract_x
_atom_site_fract_y
_atom_site_fract_z
O1	O	1.264868	0.085164	-0.296681
O2	O	0.988828	0.085177	-0.285737
O3	O	1.133195	0.085164	-0.109108
O4	O	1.120500	0.085177	-0.473310
O5	O	1.122837	-0.085265	-0.121804
O6	O	0.978469	-0.085252	-0.298433
O7	O	1.254510	-0.085265	-0.309377
Zn8	Zn	1.114845	-0.112318	-0.305921
Zn9	Zn	1.128492	0.112230	-0.289193
O10	O	1.110142	-0.085252	-0.486006
C11	C	0.948303	-0.000036	-0.287298
C12	C	0.842983	-0.000031	-0.273019
C13	C	0.593190	-0.000039	-0.348185
C14	C	0.650154	-0.000041	-0.246934
C15	C	0.757454	-0.000035	-0.261451
C16	C	0.485880	-0.000044	-0.333670
N17	N	1.105538	-0.265566	-0.317337
C18	C	1.092876	-0.474607	-0.332880
C19	C	1.150466	-0.525488	-0.262229
C20	C	1.143421	-0.641806	-0.270877
C21	C	1.099920	-0.358279	-0.324233
C22	C	1.295035	-0.000050	-0.307816
C23	C	1.400355	-0.000048	-0.322095
C24	C	1.127085	-0.000050	-0.068564
C25	C	1.124297	-0.000048	0.071160
N26	N	1.137807	0.265477	-0.277768
C27	C	1.116253	-0.000036	-0.526549
C28	C	1.119041	-0.000031	-0.666273
C29	C	1.296928	-0.000069	0.081775
C30	C	1.381929	-0.000082	0.152724
C31	C	1.379305	-0.000079	0.284006
C32	C	1.291669	-0.000060	0.344342
C33	C	1.206667	-0.000047	0.273394
C34	C	1.209301	-0.000053	0.142109
C35	C	1.034039	-0.000019	0.262779
C36	C	1.036662	-0.000029	0.131496
C37	C	0.946404	0.000000	0.323115
C38	C	0.861399	0.000006	0.252165
C39	C	0.864028	0.000001	0.120876
C40	C	0.951660	-0.000017	0.060547
H41	H	0.625005	-0.000032	-0.445762
C42	C	1.223032	-0.466913	-0.172747
C43	C	1.215574	-0.361516	-0.181688
C44	C	1.282320	-0.307521	-0.099163
H45	H	1.210882	-0.484439	-0.089060
H46	H	1.285526	-0.484246	-0.194407
H47	H	1.153095	-0.344191	-0.160020
H48	H	1.227734	-0.343960	-0.265357
H49	H	1.344814	-0.324854	-0.120823
H50	H	1.270164	-0.325055	-0.015481
H51	H	1.277275	-0.236004	-0.105227
H52	H	1.038284	-0.518399	-0.399858
H53	H	0.944273	0.000009	0.430012
C54	C	1.476976	-0.000157	0.086979
C55	C	1.461086	-0.000187	-0.043181
C56	C	1.548618	-0.000268	-0.103781
H57	H	1.515703	0.059253	0.114947
H58	H	1.508398	-0.059620	0.106180
H59	H	1.429678	0.059270	-0.062373
H60	H	1.422374	-0.059592	-0.071185
H61	H	1.580041	-0.059730	-0.084579
H62	H	1.587339	0.059143	-0.075803
H63	H	1.537849	-0.000297	-0.192100
C64	C	1.471691	-0.000142	0.360819
C65	C	1.549000	-0.000180	0.279888
C66	C	1.634119	-0.000251	0.350602
H67	H	1.478001	0.059275	0.416688
H68	H	1.470685	-0.059597	0.407805
H69	H	1.550007	0.059270	0.232924
H70	H	1.542721	-0.059592	0.224019
H71	H	1.633112	-0.059707	0.397588
H72	H	1.640419	0.059167	0.406468
H73	H	1.686582	-0.000287	0.295701
H74	H	0.618342	0.000028	-0.149343
H75	H	1.299073	-0.000086	-0.025122
H76	H	1.289540	-0.000044	0.451240
H77	H	0.790054	0.000028	0.301303
H78	H	0.794809	0.000016	0.063117
H79	H	0.953808	-0.000027	-0.046350
