data_functionalizedCrystal
_audit_creation_method	'MofGen! by Chris Wilmer'
_symmetry_space_group_name_H-M	'P1'
_symmetry_Int_Tables_number	1
_symmetry_cell_setting	triclinic
loop_
_symmetry_equiv_pos_as_xyz
  x,y,z
_cell_length_a	21.295417
_cell_length_b	12.594517
_cell_length_c	12.594509
_cell_angle_alpha	90.007751
_cell_angle_beta	89.963755
_cell_angle_gamma	89.975850
loop_
_atom_site_label
_atom_site_type_symbol
_atom_site_fract_x
_atom_site_fract_y
_atom_site_fract_z
Zn1	Zn	-0.250697	-1.627160	-0.601415
Zn2	Zn	-0.355976	-1.627006	-0.423412
Zn3	Zn	-0.250713	-1.449164	-0.423486
Zn4	Zn	-0.355921	-1.449101	-0.601384
O5	O	-0.303327	-1.538108	-0.512424
O6	O	-0.264679	-1.776085	-0.577784
O7	O	-0.342042	-1.603376	-0.274476
O8	O	-0.162621	-1.472866	-0.447133
O9	O	-0.342027	-1.775972	-0.447006
O10	O	-0.162610	-1.603639	-0.577857
O11	O	-0.264706	-1.472717	-0.274530
O12	O	-0.264652	-1.300210	-0.447103
O13	O	-0.341933	-1.472759	-0.750334
O14	O	-0.341948	-1.300164	-0.577803
O15	O	-0.264626	-1.603578	-0.750357
O16	O	-0.444058	-1.603316	-0.446976
O17	O	-0.444017	-1.472610	-0.577731
C18	C	-0.303296	-1.261567	-0.512458
C19	C	-0.303299	-1.143261	-0.512498
C20	C	-0.345421	-1.074014	-0.583453
C21	C	-0.288024	-1.003230	-0.609650
C22	C	-0.360738	-1.003246	-0.486292
C23	C	-0.245872	-1.074035	-0.538745
C24	C	-0.318624	-1.074058	-0.415342
C25	C	-0.261188	-1.003306	-0.441502
C26	C	-0.466878	-1.537968	-0.512365
C27	C	-0.536846	-1.538006	-0.512376
C28	C	-0.569713	-1.606125	-0.444361
C29	C	-0.635456	-1.606175	-0.444385
C30	C	-0.668329	-1.538087	-0.512412
C31	C	-0.635454	-1.469963	-0.580440
C32	C	-0.569713	-1.469922	-0.580422
N33	N	-0.771588	-1.444976	-0.520538
N34	N	-0.834040	-1.445018	-0.520549
C35	C	-0.866404	-1.538206	-0.512473
N36	N	-0.833957	-1.631353	-0.504365
N37	N	-0.771500	-1.631311	-0.504348
C38	C	-0.739614	-1.538123	-0.512440
C39	C	-0.970556	-1.606385	-0.444481
C40	C	-1.036300	-1.606436	-0.444512
C41	C	-1.036297	-1.470215	-0.580562
C42	C	-0.970554	-1.470173	-0.580536
C43	C	-0.937688	-1.538256	-0.512490
C44	C	-0.139136	-1.538277	-0.512507
C45	C	-0.069168	-1.538349	-0.512542
C46	C	-0.303271	-1.538179	-0.790045
C47	C	-0.303248	-1.538209	-0.908351
C48	C	-0.303352	-0.815728	-0.512407
C49	C	-0.303347	-0.934034	-0.512441
C50	C	-0.345272	-1.467079	-0.977591
C51	C	-0.360658	-1.564193	-1.048355
C52	C	-0.287823	-1.441171	-1.048386
C53	C	-0.318665	-1.635374	-0.977556
C54	C	-0.245803	-1.512287	-0.977581
C55	C	-0.261168	-1.609468	-1.048313
C56	C	-0.303336	-1.538098	-0.235883
C57	C	-0.303182	-1.538274	-0.117578
H58	H	-0.225546	-0.972455	-0.381473
Br59	Br	-0.525105	-1.377469	-0.672736
Br60	Br	-0.404592	-1.366897	-0.925831
Br61	Br	-0.441580	-1.600801	-1.100171
Br62	Br	-0.340463	-1.772237	-0.925927
Br63	Br	-0.404684	-1.125765	-0.683575
Br64	Br	-0.201888	-1.709881	-1.099750
Br65	Br	-0.925947	-1.698777	-0.352132
Br66	Br	-0.680071	-1.698629	-0.352073
Br67	Br	-0.164901	-1.475638	-0.925722
H68	H	-0.662224	-1.414527	-0.635830
Br69	Br	-0.266444	-0.951376	-0.746550
H70	H	-1.063059	-1.661914	-0.389129
H71	H	-0.274804	-1.359080	-1.079499
H72	H	-1.063061	-1.414781	-0.635956
H73	H	-0.331586	-1.105193	-0.333228
Br74	Br	-0.441664	-0.951414	-0.449387
Br75	Br	-0.164918	-1.125636	-0.575804
Br76	Br	-0.525111	-1.698538	-0.352028
H77	H	-0.943792	-1.414699	-0.635916
