data_functionalizedCrystal
_audit_creation_method	'MofGen! by Chris Wilmer'
_symmetry_space_group_name_H-M	'P1'
_symmetry_Int_Tables_number	1
_symmetry_cell_setting	triclinic
loop_
_symmetry_equiv_pos_as_xyz
  x,y,z
_cell_length_a	27.732048
_cell_length_b	23.532407
_cell_length_c	22.610064
_cell_angle_alpha	90.000603
_cell_angle_beta	89.989356
_cell_angle_gamma	97.254334
loop_
_atom_site_label
_atom_site_type_symbol
_atom_site_fract_x
_atom_site_fract_y
_atom_site_fract_z
O1	O	0.641035	-0.067758	-0.049224
O2	O	0.974368	0.265575	0.284110
O3	O	1.307701	0.598908	0.617443
O4	O	0.500257	-0.078062	-0.049218
O5	O	0.833590	0.255271	0.284115
O6	O	1.166924	0.588605	0.617448
O7	O	0.574891	0.010031	-0.049210
O8	O	0.908224	0.343364	0.284123
O9	O	1.241558	0.676697	0.617456
O10	O	0.566401	-0.155851	-0.049232
O11	O	0.899734	0.177482	0.284102
O12	O	1.233067	0.510816	0.617435
O13	O	0.574878	0.010018	0.049159
O14	O	0.908211	0.343351	0.382492
O15	O	1.241545	0.676684	0.715825
O16	O	0.500244	-0.078075	0.049151
O17	O	0.833577	0.255258	0.382484
O18	O	1.166911	0.588592	0.715817
O19	O	0.641022	-0.067771	0.049145
O20	O	0.974355	0.265562	0.382479
O21	O	1.307688	0.598896	0.715812
Zn22	Zn	0.570631	-0.072925	0.064766
Zn23	Zn	0.903964	0.260408	0.398100
Zn24	Zn	1.237297	0.593742	0.731433
Zn25	Zn	0.570648	-0.072908	-0.064839
Zn26	Zn	0.903981	0.260425	0.268494
Zn27	Zn	1.237315	0.593759	0.601827
O28	O	0.566388	-0.155864	0.049137
O29	O	0.899721	0.177470	0.382471
O30	O	1.233054	0.510803	0.715804
C31	C	0.482243	-0.077852	-0.000033
C32	C	0.815577	0.255481	0.333300
C33	C	1.148910	0.588814	0.666634
C34	C	0.428587	-0.077201	-0.000031
C35	C	0.761921	0.256132	0.333303
C36	C	1.095254	0.589466	0.666636
C37	C	0.659035	-0.067981	-0.000041
C38	C	0.992369	0.265352	0.333292
C39	C	1.325702	0.598686	0.666625
C40	C	0.712691	-0.068632	-0.000048
C41	C	1.046025	0.264701	0.333286
C42	C	1.379358	0.598034	0.666619
C43	C	1.051433	-0.020675	-0.000021
C44	C	1.384766	0.312658	0.333312
C45	C	1.718099	0.645991	0.666645
C46	C	1.253096	-0.023092	-0.000020
C47	C	1.586429	0.310241	0.333314
C48	C	1.919763	0.643575	0.666647
O49	O	1.284284	0.020761	0.000011
O50	O	1.617617	0.354095	0.333345
O51	O	1.950951	0.687428	0.666678
N52	N	1.272300	-0.075327	-0.000028
N53	N	1.605633	0.258006	0.333305
N54	N	1.938967	0.591339	0.666639
C55	C	1.241085	-0.126962	-0.000033
C56	C	1.574418	0.206371	0.333300
C57	C	1.907751	0.539705	0.666634
O58	O	1.262046	-0.171447	-0.000034
O59	O	1.595380	0.161886	0.333299
O60	O	1.928713	0.495220	0.666633
C61	C	1.039422	-0.124545	-0.000030
C62	C	1.372756	0.208788	0.333303
C63	C	1.706089	0.542122	0.666636
C64	C	1.020221	-0.072306	-0.000028
C65	C	1.353555	0.261027	0.333305
C66	C	1.686888	0.594360	0.666639
C67	C	1.032231	0.031559	-0.000018
C68	C	1.365564	0.364892	0.333315
C69	C	1.698898	0.698226	0.666649
C70	C	0.981818	0.032163	-0.000022
C71	C	1.315151	0.365496	0.333312
C72	C	1.648485	0.698829	0.666645
C73	C	0.950607	-0.019468	-0.000028
C74	C	1.283940	0.313865	0.333305
C75	C	1.617274	0.647198	0.666638
C76	C	0.969809	-0.071703	-0.000032
C77	C	1.303142	0.261631	0.333302
C78	C	1.636475	0.594964	0.666635
C79	C	1.008208	-0.176179	-0.000031
C80	C	1.341542	0.157154	0.333302
C81	C	1.674875	0.490487	0.666636
C82	C	0.957790	-0.175570	-0.000029
C83	C	1.291123	0.157763	0.333304
C84	C	1.624457	0.491096	0.666638
C85	C	0.938589	-0.123332	-0.000027
C86	C	1.271922	0.210002	0.333307
C87	C	1.605256	0.543335	0.666640
C88	C	0.888184	-0.122730	-0.000042
C89	C	1.221518	0.210603	0.333291
C90	C	1.554851	0.543937	0.666625
N91	N	0.868980	-0.070495	-0.000034
N92	N	1.202314	0.262839	0.333300
N93	N	1.535647	0.596172	0.666633
C94	C	0.900192	-0.018864	-0.000027
C95	C	1.233525	0.314469	0.333307
C96	C	1.566858	0.647803	0.666640
C97	C	1.346961	-0.128227	-0.000036
C98	C	1.680294	0.205106	0.333298
C99	C	2.013628	0.538439	0.666631
C100	C	1.397376	-0.128832	-0.000037
C101	C	1.730710	0.204502	0.333296
C102	C	2.064043	0.537835	0.666629
C103	C	1.409384	-0.024961	-0.000023
C104	C	1.742717	0.308372	0.333311
C105	C	2.076051	0.641705	0.666644
C106	C	1.358968	-0.024358	-0.000025
C107	C	1.692301	0.308976	0.333308
C108	C	2.025634	0.642309	0.666641
C109	C	1.327757	-0.075992	-0.000027
C110	C	1.661090	0.257341	0.333306
C111	C	1.994423	0.590675	0.666640
C112	C	0.794320	-0.017600	-0.000035
C113	C	1.127654	0.315733	0.333298
C114	C	1.460987	0.649066	0.666632
C115	C	0.743903	-0.017001	-0.000041
C116	C	1.077236	0.316332	0.333292
C117	C	1.410569	0.649665	0.666626
C118	C	0.731899	-0.120871	-0.000052
C119	C	1.065233	0.212462	0.333281
C120	C	1.398566	0.545795	0.666614
C121	C	0.782313	-0.121471	-0.000049
C122	C	1.115646	0.211863	0.333284
C123	C	1.448979	0.545196	0.666617
C124	C	0.813523	-0.069831	-0.000039
C125	C	1.146856	0.263503	0.333295
C126	C	1.480189	0.596836	0.666628
O127	O	0.856968	-0.166560	-0.000066
O128	O	1.190301	0.166774	0.333267
O129	O	1.523634	0.500107	0.666600
O130	O	0.879221	0.025614	-0.000013
O131	O	1.212554	0.358948	0.333321
O132	O	1.545887	0.692281	0.666654
C133	C	1.101845	-0.021279	-0.000018
C134	C	1.435179	0.312054	0.333316
C135	C	1.768512	0.645388	0.666649
C136	C	1.121047	-0.073513	-0.000021
C137	C	1.454380	0.259820	0.333313
C138	C	1.787714	0.593153	0.666646
C139	C	1.089836	-0.125144	-0.000027
C140	C	1.423169	0.208189	0.333306
C141	C	1.756503	0.541522	0.666639
C142	C	1.171462	-0.074118	-0.000022
C143	C	1.504796	0.259215	0.333311
C144	C	1.838129	0.592549	0.666644
C145	C	1.202674	-0.022487	-0.000016
C146	C	1.536007	0.310846	0.333318
C147	C	1.869340	0.644180	0.666651
C148	C	1.183470	0.029748	-0.000007
C149	C	1.516803	0.363082	0.333326
C150	C	1.850136	0.696415	0.666659
C151	C	1.133057	0.030352	-0.000011
C152	C	1.466390	0.363685	0.333322
C153	C	1.799723	0.697019	0.666656
C154	C	1.109040	-0.177380	-0.000036
C155	C	1.442373	0.155954	0.333297
C156	C	1.775707	0.489287	0.666631
C157	C	1.159453	-0.177979	-0.000033
C158	C	1.492787	0.155354	0.333300
C159	C	1.826120	0.488688	0.666634
C160	C	1.190665	-0.126348	-0.000026
C161	C	1.523998	0.206985	0.333307
C162	C	1.857331	0.540319	0.666640
C163	C	0.574668	0.031240	-0.000024
C164	C	0.908002	0.364573	0.333309
C165	C	1.241335	0.697906	0.666642
C166	C	0.574018	0.094455	-0.000020
C167	C	0.907352	0.427789	0.333314
C168	C	1.240685	0.761122	0.666647
C169	C	0.566610	-0.177073	-0.000050
C170	C	0.899944	0.156260	0.333283
C171	C	1.233277	0.489594	0.666617
C172	C	0.567260	-0.240289	-0.000059
C173	C	0.900594	0.093045	0.333275
C174	C	1.233927	0.426378	0.666608
N175	N	0.570622	-0.072936	0.153219
N176	N	0.903956	0.260397	0.486552
N177	N	1.237289	0.593730	0.819885
C178	C	0.614108	0.493644	-0.000054
C179	C	0.947441	0.826977	0.333280
C180	C	1.280775	1.160311	0.666613
C181	C	0.613504	0.553043	-0.000058
C182	C	0.946837	0.886376	0.333275
C183	C	1.280171	1.219710	0.666608
O184	O	0.650668	0.589867	-0.000081
O185	O	0.984001	0.923200	0.333252
O186	O	1.317334	1.256534	0.666585
N187	N	0.569134	0.575574	-0.000056
N188	N	0.902468	0.908908	0.333277
N189	N	1.235801	1.242241	0.666611
C190	C	0.525365	0.538703	-0.000056
C191	C	0.858699	0.872037	0.333278
C192	C	1.192032	1.205370	0.666611
O193	O	0.487570	0.563322	-0.000055
O194	O	0.820903	0.896656	0.333279
O195	O	1.154237	1.229989	0.666612
C196	C	0.525970	0.479306	-0.000055
C197	C	0.859303	0.812639	0.333278
C198	C	1.192636	1.145972	0.666611
C199	C	0.570343	0.456778	-0.000051
C200	C	0.903676	0.790111	0.333282
C201	C	1.237009	1.123444	0.666615
C202	C	0.658477	0.471116	-0.000050
C203	C	0.991810	0.804449	0.333283
C204	C	1.325144	1.137782	0.666616
C205	C	0.659081	0.411721	-0.000045
C206	C	0.992414	0.745054	0.333288
C207	C	1.325747	1.078387	0.666622
C208	C	0.615315	0.374854	-0.000043
C209	C	0.948649	0.708188	0.333291
C210	C	1.281982	1.041521	0.666624
C211	C	0.570946	0.397383	-0.000046
C212	C	0.904279	0.730716	0.333288
C213	C	1.237613	1.064050	0.666621
C214	C	0.482201	0.442436	-0.000059
C215	C	0.815535	0.775769	0.333274
C216	C	1.148868	1.109102	0.666608
C217	C	0.482810	0.383035	-0.000059
C218	C	0.816143	0.716368	0.333274
C219	C	1.149476	1.049701	0.666607
C220	C	0.527182	0.360507	-0.000055
C221	C	0.860516	0.693840	0.333278
C222	C	1.193849	1.027173	0.666611
C223	C	0.527784	0.301122	-0.000038
C224	C	0.861118	0.634455	0.333295
C225	C	1.194451	0.967788	0.666629
N226	N	0.572154	0.278590	-0.000040
N227	N	0.905487	0.611924	0.333293
N228	N	1.238821	0.945257	0.666627
C229	C	0.615920	0.315457	-0.000042
C230	C	0.949253	0.648790	0.333291
C231	C	1.282586	0.982123	0.666624
C232	C	0.524100	0.663443	-0.000057
C233	C	0.857433	0.996777	0.333276
C234	C	1.190766	1.330110	0.666610
C235	C	0.523495	0.722840	-0.000053
C236	C	0.856828	1.056173	0.333280
C237	C	1.190161	1.389507	0.666614
C238	C	0.611634	0.737175	-0.000057
C239	C	0.944967	1.070509	0.333277
C240	C	1.278300	1.403842	0.666610
C241	C	0.612238	0.677778	-0.000057
C242	C	0.945571	1.011111	0.333277
C243	C	1.278905	1.344444	0.666610
C244	C	0.568469	0.640912	-0.000059
C245	C	0.901803	0.974245	0.333274
C246	C	1.235136	1.307579	0.666608
C247	C	0.617184	0.190723	-0.000030
C248	C	0.950517	0.524056	0.333303
C249	C	1.283851	0.857389	0.666637
C250	C	0.617784	0.131322	-0.000022
C251	C	0.951117	0.464655	0.333311
C252	C	1.284450	0.797988	0.666645
C253	C	0.529645	0.116991	-0.000021
C254	C	0.862978	0.450325	0.333312
C255	C	1.196312	0.783658	0.666645
C256	C	0.529045	0.176387	-0.000026
C257	C	0.862378	0.509720	0.333307
C258	C	1.195712	0.843054	0.666640
C259	C	0.572818	0.213252	-0.000033
C260	C	0.906152	0.546585	0.333301
C261	C	1.239485	0.879918	0.666634
O262	O	0.490640	0.264263	-0.000017
O263	O	0.823974	0.597596	0.333316
O264	O	1.157307	0.930930	0.666650
O265	O	0.653709	0.290829	-0.000051
O266	O	0.987042	0.624163	0.333282
O267	O	1.320376	0.957496	0.666616
N268	N	0.570660	-0.072892	-0.153292
N269	N	0.903994	0.260441	0.180042
N270	N	1.237327	0.593774	0.513375
C271	C	0.603697	-0.033907	0.561864
C272	C	0.937031	0.299427	0.895197
C273	C	1.270364	0.632760	1.228530
C274	C	0.603700	-0.033902	0.623784
C275	C	0.937033	0.299431	0.957117
C276	C	1.270367	0.632764	1.290450
O277	O	0.631801	-0.000727	0.655805
O278	O	0.965134	0.332607	0.989139
O279	O	1.298468	0.665940	1.322472
N280	N	0.570648	-0.072896	0.654756
N281	N	0.903981	0.260437	0.988089
N282	N	1.237314	0.593770	1.321423
C283	C	0.537588	-0.111893	0.623805
C284	C	0.870921	0.221440	0.957138
C285	C	1.204254	0.554774	1.290472
O286	O	0.509474	-0.145060	0.655835
O287	O	0.842807	0.188274	0.989168
O288	O	1.176141	0.521607	1.322502
C289	C	0.537583	-0.111894	0.561886
C290	C	0.870917	0.221439	0.895220
C291	C	1.204250	0.554773	1.228553
C292	C	0.570641	-0.072901	0.530917
C293	C	0.903974	0.260432	0.864251
C294	C	1.237308	0.593765	1.197584
C295	C	0.636752	0.005083	0.530895
C296	C	0.970085	0.338417	0.864228
C297	C	1.303419	0.671750	1.197561
C298	C	0.636750	0.005078	0.468979
C299	C	0.970083	0.338412	0.802312
C300	C	1.303417	0.671745	1.135646
C301	C	0.603693	-0.033917	0.438032
C302	C	0.937027	0.299417	0.771366
C303	C	1.270360	0.632750	1.104699
C304	C	0.570639	-0.072906	0.469002
C305	C	0.903972	0.260427	0.802335
C306	C	1.237306	0.593760	1.135668
C307	C	0.504521	-0.150887	0.530937
C308	C	0.837855	0.182446	0.864270
C309	C	1.171188	0.515779	1.197603
C310	C	0.504519	-0.150885	0.469014
C311	C	0.837853	0.182449	0.802347
C312	C	1.171186	0.515782	1.135680
C313	C	0.537577	-0.111892	0.438044
C314	C	0.870910	0.221441	0.771378
C315	C	1.204244	0.554774	1.104711
C316	C	0.537580	-0.111906	0.376139
C317	C	0.870914	0.221427	0.709473
C318	C	1.204247	0.554760	1.042806
N319	N	0.570632	-0.072912	0.345167
N320	N	0.903966	0.260421	0.678500
N321	N	1.237299	0.593754	1.011834
C322	C	0.603689	-0.033918	0.376114
C323	C	0.937022	0.299416	0.709447
C324	C	1.270356	0.632749	1.042780
C325	C	0.537599	-0.111887	0.753839
C326	C	0.870932	0.221446	1.087172
C327	C	1.204265	0.554779	1.420505
C328	C	0.537605	-0.111889	0.815756
C329	C	0.870938	0.221444	1.149090
C330	C	1.204272	0.554777	1.482423
C331	C	0.603717	-0.033898	0.815731
C332	C	0.937050	0.299435	1.149064
C333	C	1.270384	0.632769	1.482397
C334	C	0.603713	-0.033899	0.753812
C335	C	0.937046	0.299434	1.087145
C336	C	1.270379	0.632768	1.420478
C337	C	0.570651	-0.072893	0.722866
C338	C	0.903984	0.260440	1.056200
C339	C	1.237318	0.593773	1.389533
C340	C	0.603683	-0.033931	0.246086
C341	C	0.937016	0.299402	0.579420
C342	C	1.270349	0.632735	0.912753
C343	C	0.603679	-0.033941	0.184165
C344	C	0.937012	0.299392	0.517499
C345	C	1.270346	0.632725	0.850832
C346	C	0.537566	-0.111931	0.184196
C347	C	0.870899	0.221403	0.517530
C348	C	1.204232	0.554736	0.850863
C349	C	0.537571	-0.111923	0.246112
C350	C	0.870904	0.221411	0.579445
C351	C	1.204237	0.554744	0.912779
C352	C	0.570631	-0.072918	0.277055
C353	C	0.903964	0.260415	0.610389
C354	C	1.237298	0.593748	0.943722
O355	O	0.509492	-0.145064	0.344078
O356	O	0.842826	0.188270	0.677412
O357	O	1.176159	0.521603	1.010745
O358	O	0.631794	-0.000752	0.344076
O359	O	0.965127	0.332582	0.677409
O360	O	1.298460	0.665915	1.010743
H361	H	0.728272	0.025540	-0.000041
H362	H	1.061606	0.358873	0.333293
H363	H	1.394939	0.692206	0.666626
H364	H	0.630633	-0.002145	0.840938
H365	H	0.963966	0.331188	1.174272
H366	H	1.297299	0.664521	1.507605
F367	F	0.659465	0.653808	-0.000053
F368	F	0.992798	0.987141	0.333281
F369	F	1.326132	1.320474	0.666614
H370	H	0.494012	0.086964	-0.000017
H371	H	0.827346	0.420298	0.333316
H372	H	1.160679	0.753631	0.666649
F373	F	0.671932	0.046582	0.436025
F374	F	1.005265	0.379915	0.769358
F375	F	1.338598	0.713248	1.102692
H376	H	0.630600	-0.002189	0.158952
H377	H	0.963933	0.331144	0.492285
H378	H	1.297267	0.664478	0.825619
H379	H	0.510653	-0.143681	0.158990
H380	H	0.843986	0.189652	0.492323
H381	H	1.177319	0.522985	0.825657
F382	F	0.638869	0.007582	0.279010
F383	F	0.972203	0.340915	0.612343
F384	F	1.305536	0.674248	0.945676
F385	F	0.663773	0.229949	-0.000037
F386	F	0.997106	0.563282	0.333296
F387	F	1.330439	0.896615	0.666630
F388	F	0.671938	0.046591	0.563822
F389	F	1.005271	0.379924	0.897155
F390	F	1.338604	0.713258	1.230488
H391	H	0.630631	-0.002148	0.728600
H392	H	0.963964	0.331186	1.061934
H393	H	1.297297	0.664519	1.395267
F394	F	0.502427	-0.153397	0.848710
F395	F	0.835760	0.179936	1.182043
F396	F	1.169094	0.513269	1.515376
F397	F	0.502411	-0.153397	0.720909
F398	F	0.835744	0.179936	1.054242
F399	F	1.169078	0.513270	1.387576
F400	F	0.469336	-0.192388	0.563885
F401	F	0.802670	0.140945	0.897218
F402	F	1.136003	0.474279	1.230552
F403	F	0.502392	-0.153430	0.279071
F404	F	0.835725	0.179904	0.612404
F405	F	1.169058	0.513237	0.945737
F406	F	0.827529	0.037361	-0.000024
F407	F	1.160863	0.370694	0.333310
F408	F	1.494196	0.704028	0.666643
F409	F	0.961390	0.087763	-0.000024
F410	F	1.294723	0.421096	0.333310
F411	F	1.628056	0.754429	0.666643
F412	F	0.469328	-0.192388	0.436083
F413	F	0.802662	0.140945	0.769417
F414	F	1.135995	0.474278	1.102750
H415	H	1.057639	0.073606	-0.000011
H416	H	1.390972	0.406939	0.333323
H417	H	1.724306	0.740272	0.666656
H418	H	0.653919	0.112983	-0.000017
H419	H	0.987252	0.446317	0.333316
H420	H	1.320586	0.779650	0.666649
F421	F	1.442610	0.029988	-0.000017
F422	F	1.775943	0.363322	0.333316
F423	F	2.109276	0.696655	0.666650
F424	F	1.338537	0.031241	-0.000021
F425	F	1.671870	0.364575	0.333313
F426	F	2.005204	0.697908	0.666646
F427	F	0.706309	0.387753	-0.000054
F428	F	1.039642	0.721086	0.333280
F429	F	1.372975	1.054419	0.666613
H430	H	0.487362	0.741176	-0.000046
H431	H	0.820695	1.074510	0.333287
H432	H	1.154029	1.407843	0.666621
H433	H	1.413005	-0.171370	-0.000048
H434	H	1.746338	0.161964	0.333286
H435	H	2.079672	0.495297	0.666619
H436	H	0.488456	0.633430	-0.000054
H437	H	0.821789	0.966763	0.333279
H438	H	1.155122	1.300096	0.666613
F439	F	1.313749	-0.183188	-0.000041
F440	F	1.647083	0.150146	0.333292
F441	F	1.980416	0.483479	0.666626
H442	H	0.694118	0.501127	-0.000055
H443	H	1.027452	0.834460	0.333279
H444	H	1.360785	1.167794	0.666612
H445	H	0.932380	-0.217619	-0.000028
H446	H	1.265713	0.115715	0.333306
H447	H	1.599047	0.449048	0.666639
F448	F	1.028632	-0.231780	-0.000034
F449	F	1.361965	0.101554	0.333299
F450	F	1.695299	0.434887	0.666633
H451	H	0.492913	0.194730	-0.000013
H452	H	0.826247	0.528063	0.333320
H453	H	1.159580	0.861396	0.666654
H454	H	0.797947	-0.164008	-0.000052
H455	H	1.131280	0.169326	0.333281
H456	H	1.464613	0.502659	0.666615
H457	H	0.706478	-0.162908	-0.000061
H458	H	1.039812	0.170425	0.333272
H459	H	1.373145	0.503759	0.666606
H460	H	1.117428	0.072890	-0.000009
H461	H	1.450762	0.406223	0.333325
H462	H	1.784095	0.739557	0.666658
F463	F	1.216696	0.084698	-0.000003
F464	F	1.550029	0.418031	0.333331
F465	F	1.883362	0.751364	0.666664
H466	H	1.175082	-0.220521	-0.000039
H467	H	1.508415	0.112812	0.333294
H468	H	1.841748	0.446146	0.666627
H469	H	1.083632	-0.219425	-0.000041
H470	H	1.416965	0.113909	0.333293
H471	H	1.750299	0.447242	0.666626
F472	F	0.434973	0.466398	-0.000066
F473	F	0.768306	0.799732	0.333268
F474	F	1.101640	1.133065	0.666601
H475	H	0.647270	0.767203	-0.000061
H476	H	0.980603	1.100537	0.333272
H477	H	1.313937	1.433870	0.666606
F478	F	0.436224	0.343802	-0.000063
F479	F	0.769557	0.677135	0.333270
F480	F	1.102890	1.010469	0.666603
