data_functionalizedCrystal
_audit_creation_method	'MofGen! by Chris Wilmer'
_symmetry_space_group_name_H-M	'P1'
_symmetry_Int_Tables_number	1
_symmetry_cell_setting	triclinic
loop_
_symmetry_equiv_pos_as_xyz
  x,y,z
_cell_length_a	14.446369
_cell_length_b	14.560438
_cell_length_c	14.560438
_cell_angle_alpha	60.000905
_cell_angle_beta	89.999483
_cell_angle_gamma	60.000740
loop_
_atom_site_label
_atom_site_type_symbol
_atom_site_fract_x
_atom_site_fract_y
_atom_site_fract_z
Zr1	Zr	0.891721	1.005325	-0.120554
O2	O	0.743916	1.196920	-0.267192
O3	O	0.937031	0.813726	-0.075605
O4	O	0.937026	1.005330	-0.267206
O5	O	0.743924	1.005314	0.075550
O6	O	1.089355	1.005339	-0.267214
O7	O	0.743921	1.005317	-0.075591
O8	O	1.089363	0.662594	0.075525
O9	O	0.743916	1.348058	-0.267189
O10	O	1.070036	0.892541	-0.056437
O11	O	0.956358	0.892533	0.056363
O12	O	0.956352	1.118122	-0.169222
O13	O	0.842674	1.118114	-0.056421
Zr14	Zr	1.134674	1.005335	0.120485
Zr15	Zr	1.134668	1.005339	-0.120567
Zr16	Zr	0.891727	1.005321	0.120498
Zr17	Zr	0.891721	1.246373	-0.120550
Zr18	Zr	1.134673	0.764287	0.120480
O19	O	1.089364	1.196934	0.075535
O20	O	1.089355	1.196939	-0.267210
O21	O	0.743925	1.196915	0.075553
O22	O	1.282478	0.813739	0.267122
O23	O	1.282470	0.813745	-0.075623
O24	O	0.937039	0.813721	0.267140
O25	O	1.282470	1.005346	-0.075620
O26	O	1.089368	1.005330	0.267136
O27	O	0.937040	1.005321	0.267144
O28	O	1.282474	1.005343	0.075521
O29	O	0.937027	1.348069	-0.267199
O30	O	1.089368	0.662591	0.267129
O31	O	1.282478	0.662601	0.267119
O32	O	1.282473	0.662605	0.075515
O33	O	0.743921	1.348055	-0.075585
O34	O	0.937032	1.348066	-0.075595
O35	O	1.070042	0.892538	0.169152
O36	O	1.183720	0.892546	0.056351
O37	O	1.070037	1.118127	-0.056433
O38	O	0.956358	1.118118	0.056368
C39	C	1.013197	0.703816	-0.000041
C40	C	1.013196	0.601485	-0.000042
C41	C	1.072533	0.553413	-0.058923
C42	C	1.072537	0.457254	-0.058913
C43	C	0.953860	0.457251	0.058861
C44	C	0.953862	0.553402	0.058856
C45	C	0.709308	1.005313	-0.000019
C46	C	0.606171	1.005308	-0.000013
C47	C	0.531190	0.863049	0.070751
C48	C	0.638518	0.862953	0.071156
C49	C	0.531612	1.075975	0.051879
C50	C	0.424753	1.075072	0.052390
C51	C	0.423175	1.078004	-0.122784
C52	C	0.531847	1.075323	-0.122583
C53	C	1.317087	1.005346	-0.000051
C54	C	1.420224	1.005352	-0.000056
C55	C	1.013189	1.005335	-0.301554
C56	C	1.013187	1.005337	-0.403887
C57	C	1.013198	1.306844	-0.000029
C58	C	1.013198	1.409175	-0.000027
C59	C	0.953846	1.123085	-0.510836
C60	C	0.953860	1.123079	-0.606985
C61	C	1.072555	0.887565	-0.489223
C62	C	1.072548	0.887573	-0.393076
C63	C	1.013205	1.005325	0.301485
C64	C	1.013208	1.005323	0.403818
C65	C	1.317086	0.703833	-0.000057
C66	C	1.420223	0.601507	-0.000064
C67	C	1.013204	0.703811	0.301479
C68	C	1.013207	0.601478	0.403810
C69	C	1.317094	0.703828	0.301463
C70	C	1.420233	0.601500	0.403788
C71	C	0.709301	1.306832	-0.301533
C72	C	0.606161	1.409159	-0.403858
C73	C	0.709308	1.306827	-0.000013
C74	C	0.606171	1.409153	-0.000006
C75	C	1.013190	1.306849	-0.301549
C76	C	1.013188	1.409182	-0.403880
C77	C	1.409338	0.553430	-0.058939
C78	C	1.506250	0.457292	-0.058950
C79	C	1.624929	0.457314	0.058799
C80	C	1.528018	0.553456	0.058802
C81	C	1.072549	0.553402	0.510760
C82	C	1.072538	0.457259	0.606907
C83	C	0.953842	0.457272	0.489140
C84	C	0.953847	0.553420	0.392996
C85	C	1.528028	0.553429	0.392983
C86	C	1.624934	0.457290	0.489133
C87	C	1.506239	0.457299	0.606889
C88	C	1.409335	0.553443	0.510741
H89	H	0.905551	0.418091	0.106813
H90	H	1.536889	0.592605	0.106746
H91	H	0.905518	0.592567	0.305906
Cl92	Cl	1.273828	0.613841	-0.132950
H93	H	1.120884	0.791686	-0.480434
Cl94	Cl	1.492559	0.396858	-0.132971
Cl95	Cl	1.760445	0.396894	0.132804
H96	H	1.321558	0.592586	0.519547
H97	H	1.120848	0.592559	-0.106880
Cl98	Cl	1.760447	0.396863	0.475542
H99	H	1.120879	0.592533	0.519571
H100	H	0.905543	0.592541	0.106809
H101	H	1.536907	0.592557	0.305901
Cl102	Cl	1.147140	0.396828	0.741358
Cl103	Cl	0.879226	0.396845	0.475556
H104	H	1.497379	0.418157	0.693980
H105	H	1.120856	0.418115	-0.106857
Cl106	Cl	0.425169	0.997530	0.191823
H107	H	0.905511	1.218976	-0.519645
H108	H	0.692781	0.807528	0.036333
Cl109	Cl	0.534801	0.776809	0.017289
Cl110	Cl	0.879258	1.271113	-0.741434
Cl111	Cl	0.492425	1.235680	-0.210884
H112	H	0.692383	0.806994	0.161701
Cl113	Cl	0.532794	0.777237	0.209687
H114	H	0.346172	1.179477	0.004150
H115	H	0.504380	1.180644	0.002793
H116	H	0.583217	1.026889	0.141337
H117	H	1.120876	0.791682	-0.305988
H118	H	0.419054	1.032470	-0.166135
H119	H	0.344960	1.182835	-0.175787
Cl120	Cl	0.611230	0.995768	-0.182436
