data_functionalizedCrystal
_audit_creation_method	'MofGen! by Chris Wilmer'
_symmetry_space_group_name_H-M	'P1'
_symmetry_Int_Tables_number	1
_symmetry_cell_setting	triclinic
loop_
_symmetry_equiv_pos_as_xyz
  x,y,z
_cell_length_a	17.077404
_cell_length_b	17.077403
_cell_length_c	19.805398
_cell_angle_alpha	90.016265
_cell_angle_beta	89.986476
_cell_angle_gamma	90.005808
loop_
_atom_site_label
_atom_site_type_symbol
_atom_site_fract_x
_atom_site_fract_y
_atom_site_fract_z
Zn1	Zn	-1.200118	-0.312655	0.382785
Zn2	Zn	-1.200093	-0.443927	0.269621
Zn3	Zn	-1.068867	-0.312664	0.269609
Zn4	Zn	-1.068869	-0.443868	0.382767
O5	O	-1.134487	-0.378278	0.326195
O6	O	-1.309962	-0.330089	0.367786
O7	O	-1.182674	-0.426543	0.174903
O8	O	-1.086287	-0.202816	0.284624
O9	O	-1.309943	-0.426534	0.284645
O10	O	-1.182717	-0.202809	0.367774
O11	O	-1.086263	-0.330105	0.174894
O12	O	-0.959020	-0.330048	0.284607
O13	O	-1.086290	-0.426434	0.477486
O14	O	-0.959022	-0.426442	0.367744
O15	O	-1.182719	-0.330032	0.477499
O16	O	-1.182676	-0.553766	0.284628
O17	O	-1.086266	-0.553722	0.367756
C18	C	-0.930539	-0.378240	0.326172
C19	C	-0.843289	-0.378243	0.326179
C20	C	-0.467496	-0.428561	0.369425
C21	C	-0.549476	-0.428554	0.369416
C22	C	-0.590440	-0.378281	0.326197
C23	C	-0.549419	-0.328018	0.282979
C24	C	-0.467440	-0.328030	0.282985
C25	C	-0.720289	-0.327995	0.282971
C26	C	-0.802274	-0.327982	0.282966
C27	C	-0.802325	-0.428519	0.369401
C28	C	-0.720346	-0.428531	0.369407
C29	C	-0.679331	-0.378267	0.326190
C30	C	-1.134490	-0.582226	0.326206
C31	C	-1.134563	-0.669476	0.326233
C32	C	-1.134508	-0.378225	0.502738
C33	C	-1.134517	-0.378203	0.577970
C34	C	-0.339231	-0.378309	0.326215
C35	C	-0.426481	-0.378301	0.326212
C36	C	-1.134505	-0.173534	0.326200
C37	C	-1.134513	-0.086284	0.326202
C38	C	-1.084314	-0.045296	0.282912
C39	C	-1.084320	0.036684	0.282921
C40	C	-1.134529	0.077675	0.326216
C41	C	-1.184730	0.036681	0.369510
C42	C	-1.184720	-0.045298	0.369504
C43	C	-1.184750	0.207551	0.369518
C44	C	-1.184762	0.289536	0.369522
C45	C	-1.084350	0.289533	0.282934
C46	C	-1.084339	0.207554	0.282928
C47	C	-1.134542	0.166566	0.326222
C48	C	-1.134511	-0.378275	0.150339
C49	C	-1.134654	-0.378076	0.075108
C50	C	-1.184842	-0.428293	1.039764
C51	C	-1.184820	-0.428314	0.969075
C52	C	-1.134614	-0.378114	0.933732
C53	C	-1.084421	-0.327895	0.969081
C54	C	-1.084439	-0.327878	1.039768
C55	C	-1.084345	-0.327962	0.684008
C56	C	-1.084332	-0.327981	0.613316
C57	C	-1.184726	-0.428398	0.613315
C58	C	-1.184744	-0.428382	0.684002
C59	C	-1.134549	-0.378166	0.719345
C60	C	-1.134572	-0.378144	0.795993
C61	C	-1.134594	-0.378131	0.857085
H62	H	-0.434149	-0.469495	0.404622
H63	H	-1.225609	0.070061	0.404765
C64	C	-1.239958	0.334625	0.417174
H65	H	-1.269839	0.298475	0.442972
H66	H	-1.274173	0.366606	0.391314
H67	H	-1.209900	0.366604	0.446653
C68	C	-1.029232	-0.272643	1.078650
H69	H	-1.036427	-0.279829	1.125810
H70	H	-1.040715	-0.219904	1.067072
H71	H	-0.976486	-0.284135	1.067061
H72	H	-1.225630	-0.469257	0.712775
H73	H	-0.582867	-0.469483	0.404602
C74	C	-1.239934	-0.483646	0.574439
H75	H	-1.269842	-0.513534	0.605613
H76	H	-1.209898	-0.517851	0.546863
H77	H	-1.274135	-0.453627	0.546866
H78	H	-1.225621	0.174182	0.404780
H79	H	-0.686996	-0.469464	0.404603
H80	H	-0.835724	-0.469444	0.404592
C81	C	-1.029094	-0.272767	0.574439
H82	H	-0.999195	-0.242864	0.605611
H83	H	-1.059111	-0.238574	0.546865
H84	H	-0.994887	-0.302810	0.546863
H85	H	-1.043430	-0.078665	0.247654
H86	H	-1.225729	-0.469169	1.068535
H87	H	-1.225591	-0.078669	0.404760
C88	C	-1.029121	0.334616	0.235318
H89	H	-1.036309	0.389311	0.241528
H90	H	-1.040600	0.321171	0.189841
H91	H	-0.976377	0.321190	0.245222
H92	H	-1.225678	-0.469216	0.940301
H93	H	-1.043459	0.174181	0.247670
C94	C	-0.847333	-0.272679	0.235430
H95	H	-0.811166	-0.242750	0.209688
H96	H	-0.879309	-0.238514	0.261373
H97	H	-0.879314	-0.302658	0.205894
C98	C	-1.029141	-0.272719	0.722876
H99	H	-0.999246	-0.242818	0.691701
H100	H	-0.994939	-0.302728	0.750449
H101	H	-1.059184	-0.238513	0.750452
C102	C	-0.675174	-0.272703	0.235436
H103	H	-0.711310	-0.242753	0.209701
H104	H	-0.643188	-0.302684	0.205904
H105	H	-0.643199	-0.238544	0.261386
C106	C	-0.422320	-0.272743	0.235454
H107	H	-0.367630	-0.279955	0.241642
H108	H	-0.435744	-0.220014	0.245430
H109	H	-0.435742	-0.284165	0.189958
C110	C	-1.029108	0.081768	0.235296
H111	H	-0.999212	0.045614	0.209504
H112	H	-0.994908	0.113763	0.261180
H113	H	-1.059146	0.113732	0.205811
C114	C	-1.029197	-0.272674	0.930206
H115	H	-1.036379	-0.279869	0.883045
H116	H	-0.976456	-0.284147	0.941787
H117	H	-1.040699	-0.219930	0.941796
H118	H	-0.582778	-0.287089	0.247786
