data_functionalizedCrystal
_audit_creation_method	'MofGen! by Chris Wilmer'
_symmetry_space_group_name_H-M	'P1'
_symmetry_Int_Tables_number	1
_symmetry_cell_setting	triclinic
loop_
_symmetry_equiv_pos_as_xyz
  x,y,z
_cell_length_a	15.186229
_cell_length_b	16.109301
_cell_length_c	16.109301
_cell_angle_alpha	83.461481
_cell_angle_beta	89.994833
_cell_angle_gamma	89.999362
loop_
_atom_site_label
_atom_site_type_symbol
_atom_site_fract_x
_atom_site_fract_y
_atom_site_fract_z
O1	O	0.073176	-1.103131	-0.106866
O2	O	0.073190	-0.861069	-0.120165
O3	O	0.073174	-0.988749	0.007515
O4	O	0.073192	-0.975450	-0.234547
O5	O	-0.073284	-0.988741	0.007517
O6	O	-0.073267	-0.861060	-0.120164
O7	O	-0.073282	-1.103122	-0.106864
Zn8	Zn	-0.096528	-0.982090	-0.113514
Zn9	Zn	0.096436	-0.982101	-0.113516
O10	O	-0.073265	-0.975441	-0.234545
C11	C	-0.000037	-0.830090	-0.119626
C12	C	-0.000032	-0.737794	-0.118011
N13	N	-0.228220	-0.982088	-0.113511
C14	C	-0.000056	-0.988206	0.038491
C15	C	-0.000057	-0.986591	0.130786
C16	C	-0.453950	-1.038644	-0.056994
C17	C	-0.546140	-1.038647	-0.056992
C18	C	-0.546135	-0.925547	-0.170032
C19	C	-0.453947	-0.925541	-0.170030
C20	C	-0.407857	-0.982094	-0.113511
C21	C	-0.592235	-0.982103	-0.113512
C22	C	-0.692191	-0.982105	-0.113510
C23	C	-0.307894	-0.982091	-0.113512
N24	N	0.228129	-0.982109	-0.113512
C25	C	-0.000053	-1.134101	-0.107404
C26	C	-0.000052	-1.226397	-0.109019
C27	C	-0.000036	-0.515522	-0.190018
C28	C	-0.000042	-0.428801	-0.188494
C29	C	-0.000050	-0.448676	-0.037006
C30	C	-0.000051	-0.535394	-0.038530
C31	C	-0.000039	-0.568815	-0.115039
C32	C	-0.000045	-0.395376	-0.111990
C33	C	-0.000051	-0.301350	-0.110337
C34	C	-0.000035	-0.662847	-0.116693
C35	C	-0.000034	-0.975984	-0.265521
C36	C	-0.000027	-0.977600	-0.357816
C37	C	-0.000047	-1.058599	0.353059
C38	C	-0.000040	-1.057075	0.439779
C39	C	-0.000034	-0.905586	0.419905
C40	C	-0.000035	-0.907111	0.333186
C41	C	-0.000046	-0.983620	0.299766
C42	C	-0.000038	-0.980571	0.473205
C43	C	-0.000030	-0.978918	0.567231
C44	C	-0.000052	-0.985273	0.205734
H45	H	-0.416426	-1.084692	-0.010972
H46	H	-0.000054	-1.120897	0.325851
O47	O	-0.404221	-0.864548	-0.230993
H48	H	-0.451756	-0.825233	-0.270303
O49	O	-0.000042	-0.823071	0.455956
H50	H	0.059644	-0.818752	0.494994
H51	H	-0.000056	-0.578788	0.022530
H52	H	-0.000039	-1.118130	0.483168
O53	O	-0.000031	-0.551571	-0.272535
H54	H	-0.059722	-0.590610	-0.276844
O55	O	-0.000045	-0.826234	0.275700
H56	H	0.059644	-0.789616	0.287576
O57	O	-0.595851	-1.099653	0.003959
H58	H	-0.578159	-1.089091	0.068778
O59	O	-0.595844	-0.864561	-0.231000
H60	H	-0.667693	-0.874071	-0.221515
O61	O	-0.000042	-0.371324	-0.269368
H62	H	-0.000055	-0.305407	-0.255458
H63	H	-0.000065	-0.421454	0.025285
