data_functionalizedCrystal
_audit_creation_method	'MofGen! by Chris Wilmer'
_symmetry_space_group_name_H-M	'P1'
_symmetry_Int_Tables_number	1
_symmetry_cell_setting	triclinic
loop_
_symmetry_equiv_pos_as_xyz
  x,y,z
_cell_length_a	10.654549
_cell_length_b	9.730217
_cell_length_c	16.974959
_cell_angle_alpha	86.352794
_cell_angle_beta	83.944368
_cell_angle_gamma	90.002441
loop_
_atom_site_label
_atom_site_type_symbol
_atom_site_fract_x
_atom_site_fract_y
_atom_site_fract_z
O1	O	1.666118	0.101986	0.111070
O2	O	1.300476	0.100807	0.121646
O3	O	1.493477	0.114166	0.001314
O4	O	1.473117	0.088627	0.231402
O5	O	1.493471	-0.114414	0.001313
O6	O	1.300470	-0.127773	0.121645
O7	O	1.666112	-0.126594	0.111068
Zn8	Zn	1.483290	-0.163475	0.116356
Zn9	Zn	1.483298	0.137689	0.116358
O10	O	1.473111	-0.139953	0.231401
C11	C	1.253687	-0.013397	0.120868
C12	C	1.114280	-0.013141	0.118542
N13	N	1.483294	-0.369012	0.116355
C14	C	0.822141	-0.028589	0.258066
C15	C	0.872549	-0.036702	0.331106
C16	C	1.003534	-0.036963	0.333294
C17	C	1.084114	-0.029106	0.262434
C18	C	1.033705	-0.020993	0.189394
C19	C	0.902716	-0.020737	0.187214
C20	C	1.063872	-0.005028	0.045502
C21	C	0.932888	-0.004777	0.043313
C22	C	1.144452	0.002829	-0.025357
C23	C	1.094043	0.010932	-0.098399
C24	C	0.963050	0.011191	-0.100584
C25	C	0.882479	0.003336	-0.029727
C26	C	1.654265	-0.357176	0.009832
C27	C	1.739759	-0.423198	-0.043427
C28	C	1.739772	-0.567078	-0.043427
C29	C	1.654279	-0.644939	0.009835
C30	C	1.568785	-0.578917	0.063095
C31	C	1.568784	-0.435033	0.063091
C32	C	1.397810	-0.590752	0.169612
C33	C	1.397801	-0.446873	0.169618
C34	C	1.312317	-0.668613	0.222875
C35	C	1.226827	-0.602591	0.276139
C36	C	1.226818	-0.458703	0.276138
C37	C	1.312307	-0.380850	0.222877
C38	C	1.712901	-0.012386	0.111846
C39	C	1.852308	-0.012634	0.114172
C40	C	1.492695	0.003149	-0.028149
C41	C	1.490359	0.012902	-0.115936
N42	N	1.483304	0.343226	0.116353
C43	C	1.477324	0.081326	-0.610091
C44	C	1.479507	0.072134	-0.527605
C45	C	1.480585	-0.057061	-0.486378
C46	C	1.479493	-0.177072	-0.527643
C47	C	1.477320	-0.167879	-0.610128
C48	C	1.487094	-0.097916	-0.239686
C49	C	1.489264	-0.107100	-0.157194
C50	C	1.489280	0.142108	-0.157162
C51	C	1.487098	0.151289	-0.239649
C52	C	1.486013	0.031278	-0.280907
N53	N	1.482812	-0.066460	-0.402064
N54	N	1.483795	0.040678	-0.365220
C55	C	1.473893	-0.028933	0.260863
C56	C	1.476229	-0.038677	0.348650
H57	H	0.715485	-0.028401	0.256291
N58	N	1.831976	-0.339243	-0.100877
H59	H	1.817613	-0.358061	-0.157077
H60	H	1.818970	-0.238104	-0.092738
H61	H	1.312312	-0.263696	0.222874
H62	H	1.157219	-0.665994	0.319499
H63	H	1.159660	0.017338	-0.156087
N64	N	1.476173	0.220676	-0.654552
H65	H	1.474629	0.208295	-0.713068
H66	H	1.398749	0.272825	-0.634152
N67	N	1.312337	-0.823796	0.222875
H68	H	1.330503	-0.864416	0.276708
H69	H	1.227030	-0.857024	0.210832
N70	N	1.476145	-0.297313	-0.654630
H71	H	1.397440	-0.299720	-0.682886
H72	H	1.553111	-0.298305	-0.694782
N73	N	1.480751	0.201589	-0.483130
H74	H	1.559490	0.203968	-0.454905
H75	H	1.479705	0.284727	-0.521830
H76	H	1.486229	0.256493	-0.273211
N77	N	1.831978	-0.638298	-0.100870
H78	H	1.886136	-0.567148	-0.134612
H79	H	1.887435	-0.701380	-0.070264
H80	H	1.490104	-0.212312	-0.123627
H81	H	1.190767	-0.029303	0.264222
H82	H	1.654285	-0.762093	0.009825
H83	H	1.654274	-0.240022	0.009834
H84	H	1.486212	-0.195638	-0.273268
H85	H	0.775823	0.003535	-0.031500
H86	H	1.480379	-0.282266	-0.494070
H87	H	1.044575	-0.043571	0.392769
N88	N	0.785641	-0.045167	0.407530
H89	H	0.695013	-0.043774	0.395065
H90	H	0.801938	-0.133436	0.439331
N91	N	1.285727	0.002548	-0.023002
H92	H	1.305437	-0.003791	0.034019
H93	H	1.323086	-0.079117	-0.050764
N94	N	0.908684	0.019953	-0.179364
H95	H	0.979609	0.024892	-0.223916
H96	H	0.854985	-0.064330	-0.183408
N97	N	1.490338	0.271541	-0.112655
H98	H	1.491841	0.246119	-0.054142
H99	H	1.567737	0.328300	-0.133008
H100	H	1.157194	-0.404955	0.319505
