data_functionalizedCrystal
_audit_creation_method	'MofGen! by Chris Wilmer'
_symmetry_space_group_name_H-M	'P1'
_symmetry_Int_Tables_number	1
_symmetry_cell_setting	triclinic
loop_
_symmetry_equiv_pos_as_xyz
  x,y,z
_cell_length_a	19.188905
_cell_length_b	16.109301
_cell_length_c	14.586319
_cell_angle_alpha	89.996198
_cell_angle_beta	89.989373
_cell_angle_gamma	83.298070
loop_
_atom_site_label
_atom_site_type_symbol
_atom_site_fract_x
_atom_site_fract_y
_atom_site_fract_z
O1	O	0.926397	0.103697	-0.076391
O2	O	0.723116	0.117692	-0.076360
O3	O	0.830341	-0.010355	-0.076371
O4	O	0.819173	0.231745	-0.076381
O5	O	0.830334	-0.010357	0.076110
O6	O	0.723109	0.117690	0.076121
O7	O	0.926390	0.103695	0.076089
Cu8	Cu	0.824749	0.110693	0.090028
Cu9	Cu	0.824758	0.110695	-0.090299
O10	O	0.819165	0.231743	0.076100
C11	C	0.697100	0.117241	-0.000116
C12	C	0.619592	0.115891	-0.000104
C13	C	0.829885	-0.041330	-0.000131
C14	C	0.828529	-0.133620	-0.000132
C15	C	0.887720	-0.442821	-0.000157
C16	C	0.889001	-0.356105	-0.000151
C17	C	0.761782	-0.335797	-0.000120
C18	C	0.760502	-0.422511	-0.000118
C19	C	0.823473	-0.476021	-0.000141
C20	C	0.826034	-0.302591	-0.000138
C21	C	0.827422	-0.208570	-0.000132
C22	C	0.822084	-0.570049	-0.000145
C23	C	0.583202	0.115244	-0.083223
C24	C	0.510376	0.113966	-0.083235
C25	C	0.473943	0.113319	-0.000122
C26	C	0.510341	0.113971	0.083009
C27	C	0.583165	0.115257	0.083018
N28	N	0.364804	0.063986	0.061734
N29	N	0.295625	0.062762	0.061719
C30	C	0.254527	0.109446	-0.000144
N31	N	0.285225	0.157389	-0.062006
N32	N	0.354411	0.158609	-0.061994
C33	C	0.394977	0.111925	-0.000122
C34	C	0.139171	0.107414	-0.083281
C35	C	0.066343	0.106142	-0.083289
C36	C	0.066310	0.106138	0.082957
C37	C	0.139136	0.107419	0.082962
C38	C	0.175563	0.108053	-0.000159
C39	C	0.952406	0.104146	-0.000157
C40	C	1.029915	0.105496	-0.000175
C41	C	0.819621	0.262717	-0.000142
C42	C	0.820978	0.355008	-0.000147
N43	N	0.824748	0.110690	0.216859
N44	N	0.824764	0.110690	-0.217130
C45	C	0.872243	0.054010	0.451861
C46	C	0.872245	0.054008	0.547842
C47	C	0.777264	0.167373	0.547861
C48	C	0.777260	0.167371	0.451882
C49	C	0.824753	0.110690	0.403884
C50	C	0.824759	0.110691	0.595845
C51	C	0.824761	0.110689	0.699912
C52	C	0.824750	0.110691	0.299810
H53	H	0.938995	-0.486387	-0.000175
O54	O	0.951471	-0.323993	-0.000210
C55	C	1.077519	-0.353293	-0.000192
C56	C	1.006818	-0.389770	-0.000149
H57	H	1.122285	-0.406456	-0.000123
H58	H	1.081346	-0.313228	-0.064020
H59	H	1.081263	-0.313181	0.063606
H60	H	1.003025	-0.429920	-0.063904
H61	H	1.003021	-0.429787	0.063721
O62	O	0.700680	-0.283697	-0.000145
C63	C	0.646269	-0.141109	-0.000084
C64	C	0.715520	-0.200013	-0.000073
H65	H	0.658243	-0.073438	-0.000005
H66	H	0.614642	-0.153087	-0.063904
H67	H	0.614650	-0.153203	0.063722
H68	H	0.747196	-0.187954	-0.063835
H69	H	0.747095	-0.188023	0.063790
O70	O	0.698027	-0.454629	-0.000145
C71	C	0.571978	-0.425342	-0.000057
C72	C	0.642676	-0.388857	-0.000053
H73	H	0.527209	-0.372184	0.000037
H74	H	0.568152	-0.465400	-0.063882
H75	H	0.568240	-0.465463	0.063743
H76	H	0.646462	-0.348698	-0.063810
H77	H	0.646473	-0.348847	0.063815
H78	H	0.910913	0.007856	0.412784
H79	H	0.612857	0.115760	-0.150908
H80	H	0.910914	0.007853	0.586903
O81	O	0.475129	0.113303	-0.164063
C82	C	0.482837	0.113484	-0.328953
C83	C	0.522840	0.114215	-0.237483
H84	H	0.521392	0.114239	-0.388337
H85	H	0.455176	0.054697	-0.333168
H86	H	0.442314	0.171039	-0.333064
H87	H	0.563397	0.056700	-0.233310
H88	H	0.550453	0.173040	-0.233306
H89	H	0.480672	0.113447	0.150680
H90	H	0.612793	0.115785	0.150706
H91	H	0.036646	0.105617	0.150629
H92	H	0.036715	0.105620	-0.150978
H93	H	0.738598	0.213523	0.586950
O94	O	0.731099	0.222515	0.405413
C95	C	0.636863	0.334924	0.415552
C96	C	0.689111	0.272539	0.468292
H97	H	0.602893	0.375373	0.466366
H98	H	0.666958	0.376420	0.370625
H99	H	0.602025	0.299115	0.370608
H100	H	0.723963	0.308281	0.513285
H101	H	0.658973	0.231044	0.513160
H102	H	0.168830	0.107939	-0.150964
H103	H	0.168765	0.107941	0.150648
