data_functionalizedCrystal
_audit_creation_method	'MofGen! by Chris Wilmer'
_symmetry_space_group_name_H-M	'P1'
_symmetry_Int_Tables_number	1
_symmetry_cell_setting	triclinic
loop_
_symmetry_equiv_pos_as_xyz
  x,y,z
_cell_length_a	10.723024
_cell_length_b	10.654551
_cell_length_c	9.198806
_cell_angle_alpha	89.999648
_cell_angle_beta	89.996352
_cell_angle_gamma	84.476616
loop_
_atom_site_label
_atom_site_type_symbol
_atom_site_fract_x
_atom_site_fract_y
_atom_site_fract_z
O1	O	1.657215	0.176147	-0.120873
O2	O	1.294065	0.193007	-0.120877
O3	O	1.483989	0.001837	-0.120876
O4	O	1.467291	0.367317	-0.120874
O5	O	1.483973	0.001836	0.120909
O6	O	1.294050	0.193007	0.120908
O7	O	1.657199	0.176146	0.120912
Cu8	Cu	1.475623	0.184576	0.142987
Cu9	Cu	1.475641	0.184577	-0.142952
O10	O	1.467276	0.367317	0.120911
C11	C	1.247557	0.191780	0.000015
C12	C	1.109003	0.188109	0.000013
C13	C	1.034036	0.295078	0.000012
C14	C	0.890832	0.291286	0.000010
C15	C	1.482755	-0.044961	0.000013
C16	C	1.479086	-0.184404	0.000004
C17	C	1.477373	-0.249915	-0.131791
C18	C	1.473915	-0.380935	-0.131784
C19	C	1.473888	-0.380921	0.131823
C20	C	1.477337	-0.249903	0.131815
C21	C	1.479122	-0.184417	-0.263602
C22	C	1.477410	-0.249928	-0.395407
C23	C	1.473952	-0.380948	-0.395401
C24	C	1.472205	-0.446456	-0.263589
C25	C	1.703707	0.177373	0.000017
C26	C	1.842262	0.181044	0.000009
C27	C	1.468510	0.414115	0.000018
C28	C	1.472179	0.553558	0.000018
N29	N	1.475620	0.184575	0.344101
N30	N	1.475654	0.184568	-0.344066
C31	C	1.555363	0.103954	0.416298
C32	C	1.555382	0.103950	0.583711
H33	H	1.481941	-0.077734	-0.263622
H34	H	1.407358	0.253591	0.406228
C35	C	1.052490	0.060591	0.000012
N36	N	1.009927	-0.035459	0.000010
H37	H	1.478820	-0.196582	-0.502723
H38	H	0.906673	0.089466	0.000000
H39	H	1.623617	0.034929	0.354173
C40	C	1.472108	-0.453012	-0.540387
N41	N	1.470742	-0.507291	-0.649596
C42	C	1.479228	-0.177837	0.276796
N43	N	1.480651	-0.123557	0.385999
C44	C	1.090549	0.422596	0.000019
N45	N	1.133112	0.518646	0.000023
C46	C	1.468401	-0.590583	-0.263590
N47	N	1.465545	-0.699139	-0.263592
H48	H	1.623659	0.034931	0.645797
H49	H	0.826414	0.382860	0.000004
C50	C	1.383415	0.277822	0.572069
N51	N	1.313939	0.348059	0.508892
H52	H	1.472467	-0.434269	0.239138
