data_functionalizedCrystal
_audit_creation_method	'MofGen! by Chris Wilmer'
_symmetry_space_group_name_H-M	'P1'
_symmetry_Int_Tables_number	1
_symmetry_cell_setting	triclinic
loop_
_symmetry_equiv_pos_as_xyz
  x,y,z
_cell_length_a	19.188930
_cell_length_b	19.188924
_cell_length_c	15.186229
_cell_angle_alpha	89.994194
_cell_angle_beta	89.982767
_cell_angle_gamma	83.143372
loop_
_atom_site_label
_atom_site_type_symbol
_atom_site_fract_x
_atom_site_fract_y
_atom_site_fract_z
O1	O	0.926142	0.087167	-0.073516
O2	O	1.426142	0.587167	0.426484
O3	O	0.722830	0.098901	-0.073456
O4	O	1.222830	0.598901	0.426544
O5	O	0.830355	-0.008622	-0.073477
O6	O	1.330355	0.491378	0.426523
O7	O	0.818616	0.194690	-0.073494
O8	O	1.318616	0.694690	0.426506
O9	O	0.830348	-0.008623	0.072980
O10	O	1.330348	0.491377	0.572980
O11	O	0.722823	0.098900	0.073001
O12	O	1.222823	0.598900	0.573001
O13	O	0.926134	0.087166	0.072942
O14	O	1.426134	0.587166	0.572942
Zn15	Zn	0.824478	0.093032	0.096225
Zn16	Zn	1.324478	0.593032	0.596225
Zn17	Zn	0.824487	0.093034	-0.096739
Zn18	Zn	1.324487	0.593034	0.403261
O19	O	0.818609	0.194689	0.072963
O20	O	1.318609	0.694689	0.572963
C21	C	0.696815	0.098521	-0.000219
C22	C	1.196815	0.598521	0.499781
C23	C	0.619311	0.097380	-0.000196
C24	C	1.119311	0.597380	0.499804
C25	C	0.574385	0.160471	-0.000215
C26	C	1.074385	0.660471	0.499785
C27	C	0.501562	0.159399	-0.000225
C28	C	1.001562	0.659399	0.499775
C29	C	0.473667	0.095233	-0.000233
C30	C	0.973667	0.595233	0.499767
C31	C	0.518602	0.032134	-0.000209
C32	C	1.018602	0.532134	0.499791
C33	C	0.591424	0.033207	-0.000190
C34	C	1.091424	0.533207	0.499810
N35	N	0.365690	0.046186	-0.050110
N36	N	0.865690	0.546186	0.449890
N37	N	0.296512	0.045171	-0.050129
N38	N	0.796512	0.545171	0.449871
C39	C	0.254258	0.091995	-0.000287
C40	C	0.754258	0.591995	0.499713
N41	N	0.283795	0.139883	0.049565
N42	N	0.783795	0.639883	0.549565
N43	N	0.352980	0.140901	0.049581
N44	N	0.852980	0.640901	0.549581
C45	C	0.394704	0.094062	-0.000252
C46	C	0.894704	0.594062	0.499748
C47	C	0.130368	0.153928	-0.000315
C48	C	0.630368	0.653928	0.499685
C49	C	0.057543	0.152854	-0.000319
C50	C	0.557543	0.652854	0.499681
C51	C	0.074585	0.025586	-0.000312
C52	C	0.574585	0.525586	0.499688
C53	C	0.147409	0.026663	-0.000299
C54	C	0.647409	0.526663	0.499701
C55	C	0.175295	0.090835	-0.000305
C56	C	0.675295	0.590835	0.499695
C57	C	0.829973	-0.034634	-0.000248
C58	C	1.329973	0.465366	0.499752
C59	C	0.828834	-0.112138	-0.000245
C60	C	1.328834	0.387862	0.499755
C61	C	0.828306	-0.148537	-0.080079
C62	C	1.328306	0.351463	0.419921
C63	C	0.827226	-0.221359	-0.080085
C64	C	1.327226	0.278641	0.419915
C65	C	0.826688	-0.257783	-0.000253
C66	C	1.326688	0.242217	0.499747
C67	C	0.827212	-0.221376	0.079591
C68	C	1.327212	0.278624	0.579591
C69	C	0.828285	-0.148553	0.079596
C70	C	1.328285	0.351447	0.579596
N71	N	0.864733	-0.377447	0.059153
N72	N	1.364733	0.122553	0.559153
N73	N	0.863715	-0.446625	0.059143
N74	N	1.363715	0.053375	0.559143
C75	C	0.823454	-0.477192	-0.000261
C76	C	1.323454	0.022808	0.499739
N77	N	0.784258	-0.435969	-0.059668
N78	N	1.284258	0.064031	0.440332
N79	N	0.785279	-0.366784	-0.059662
N80	N	1.285279	0.133216	0.440338
C81	C	0.825524	-0.336746	-0.000249
C82	C	1.325524	0.163254	0.499751
C83	C	0.821754	-0.592553	-0.080107
C84	C	1.321754	-0.092553	0.419893
C85	C	0.820670	-0.665376	-0.080110
C86	C	1.320670	-0.165376	0.419890
C87	C	0.820663	-0.665392	0.079569
C88	C	1.320663	-0.165392	0.579569
C89	C	0.821740	-0.592569	0.079570
C90	C	1.321740	-0.092569	0.579570
C91	C	0.822289	-0.556154	-0.000271
C92	C	1.322289	-0.056154	0.499729
C93	C	0.952149	0.087546	-0.000297
C94	C	1.452149	0.587546	0.499703
C95	C	1.029654	0.088687	-0.000326
C96	C	1.529654	0.588687	0.499674
C97	C	0.818992	0.220700	-0.000269
C98	C	1.318992	0.720700	0.499731
C99	C	0.820131	0.298205	-0.000277
C100	C	1.320131	0.798205	0.499723
N101	N	0.824476	0.093031	0.227917
N102	N	1.324476	0.593031	0.727917
N103	N	0.824494	0.093031	-0.228432
N104	N	1.324494	0.593031	0.271568
C105	C	0.872105	0.045435	0.453631
C106	C	1.372105	0.545435	0.953631
C107	C	0.872107	0.045434	0.545821
C108	C	1.372107	0.545434	1.045821
C109	C	0.776860	0.140628	0.545849
C110	C	1.276860	0.640628	1.045849
C111	C	0.776855	0.140626	0.453661
C112	C	1.276855	0.640626	0.953661
C113	C	0.824481	0.093030	0.407554
C114	C	1.324481	0.593030	0.907554
C115	C	0.824489	0.093031	0.591932
C116	C	1.324489	0.593031	1.091932
C117	C	0.824491	0.093029	0.691888
C118	C	1.324491	0.593029	1.191888
C119	C	0.824479	0.093031	0.307592
C120	C	1.324479	0.593031	0.807592
H121	H	0.051874	-0.026659	-0.000373
H122	H	0.551874	0.473341	0.499627
C123	C	0.161046	0.224519	-0.000310
C124	C	0.661046	0.724519	0.499690
N125	N	0.184151	0.277688	-0.000305
N126	N	0.684151	0.777688	0.499695
C127	C	0.605056	0.231063	-0.000204
C128	C	1.105056	0.731063	0.499796
N129	N	0.628159	0.284234	-0.000190
N130	N	1.128159	0.784234	0.499810
H131	H	0.910885	0.006677	0.583334
H132	H	1.410885	0.506677	1.083334
C133	C	0.822328	-0.552531	0.167395
C134	C	1.322328	-0.052531	0.667395
N135	N	0.822769	-0.522374	0.233548
N136	N	1.322769	-0.022374	0.733548
C137	C	0.724473	0.192979	0.596574
C138	C	1.224473	0.692979	1.096574
N139	N	0.685014	0.232411	0.634780
N140	N	1.185014	0.732411	1.134780
C141	C	0.828904	-0.108484	-0.167906
C142	C	1.328904	0.391516	0.332094
N143	N	0.829352	-0.078314	-0.234058
N144	N	1.329352	0.421686	0.265942
H145	H	0.183988	-0.024713	-0.000288
H146	H	0.683988	0.475287	0.499712
H147	H	0.020965	0.204232	-0.000330
H148	H	0.520965	0.704232	0.499670
C149	C	0.826642	-0.261405	-0.167912
C150	C	1.326642	0.238595	0.332088
N151	N	0.826200	-0.291565	-0.234064
N152	N	1.326200	0.208435	0.265936
C153	C	0.724495	0.193019	0.402973
C154	C	1.224495	0.693019	0.902973
N155	N	0.685069	0.232489	0.364795
N156	N	1.185069	0.732489	0.864795
C157	C	0.826618	-0.261443	0.167407
C158	C	1.326618	0.238557	0.667407
N159	N	0.826168	-0.291621	0.233552
N160	N	1.326168	0.208379	0.733552
C161	C	0.924489	-0.006927	0.402917
C162	C	1.424489	0.493073	0.902917
N163	N	0.963944	-0.046370	0.364722
N164	N	1.463944	0.453630	0.864722
C165	C	0.828869	-0.108515	0.167423
C166	C	1.328869	0.391485	0.667423
N167	N	0.829312	-0.078357	0.233576
N168	N	1.329312	0.421643	0.733576
H169	H	0.464976	0.210777	-0.000238
H170	H	0.964976	0.710777	0.499762
C171	C	0.820125	-0.705419	-0.167938
C172	C	1.320125	-0.205419	0.332062
N173	N	0.819729	-0.735581	-0.234093
N174	N	1.319729	-0.235581	0.265907
H175	H	0.495885	-0.020111	-0.000228
H176	H	0.995885	0.479889	0.499772
C177	C	0.822348	-0.552493	-0.167932
C178	C	1.322348	-0.052493	0.332068
N179	N	0.822793	-0.522321	-0.234083
N180	N	1.322793	-0.022321	0.265917
H181	H	0.628003	-0.018171	-0.000175
H182	H	1.128003	0.481829	0.499825
C183	C	0.820070	-0.705454	0.167386
C184	C	1.320070	-0.205454	0.667386
N185	N	0.819623	-0.735632	0.233532
N186	N	1.319623	-0.235632	0.733532
