data_functionalizedCrystal
_audit_creation_method	'MofGen! by Chris Wilmer'
_symmetry_space_group_name_H-M	'P1'
_symmetry_Int_Tables_number	1
_symmetry_cell_setting	triclinic
loop_
_symmetry_equiv_pos_as_xyz
  x,y,z
_cell_length_a	19.288862
_cell_length_b	19.288859
_cell_length_c	17.766277
_cell_angle_alpha	89.993887
_cell_angle_beta	90.026014
_cell_angle_gamma	96.865496
loop_
_atom_site_label
_atom_site_type_symbol
_atom_site_fract_x
_atom_site_fract_y
_atom_site_fract_z
O1	O	-0.921352	0.086641	-0.062884
O2	O	-0.421352	0.586641	0.437116
O3	O	-0.719091	0.098332	-0.062822
O4	O	-0.219091	0.598332	0.437178
O5	O	-0.826068	-0.008644	-0.062850
O6	O	-0.326068	0.491356	0.437150
O7	O	-0.814375	0.193617	-0.062856
O8	O	-0.314375	0.693617	0.437144
O9	O	-0.826050	-0.008650	0.062338
O10	O	-0.326050	0.491350	0.562338
O11	O	-0.719072	0.098326	0.062367
O12	O	-0.219072	0.598326	0.562367
O13	O	-0.921333	0.086636	0.062304
O14	O	-0.421333	0.586636	0.562304
Cu15	Cu	-0.820201	0.092481	0.073766
Cu16	Cu	-0.320201	0.592481	0.573766
Cu17	Cu	-0.820223	0.092487	-0.074284
Cu18	Cu	-0.320223	0.592487	0.425716
O19	O	-0.814356	0.193612	0.062333
O20	O	-0.314356	0.693612	0.562333
C21	C	-0.693205	0.097953	-0.000220
C22	C	-0.193205	0.597953	0.499780
C23	C	-0.616102	0.096825	-0.000196
C24	C	-0.116102	0.596825	0.499804
C25	C	-0.571404	0.159593	-0.000207
C26	C	-0.071404	0.659593	0.499793
C27	C	-0.498957	0.158533	-0.000211
C28	C	0.001043	0.658533	0.499789
C29	C	-0.471211	0.094701	-0.000220
C30	C	0.028789	0.594701	0.499780
C31	C	-0.515918	0.031924	-0.000204
C32	C	-0.015918	0.531924	0.499796
C33	C	-0.588364	0.032986	-0.000192
C34	C	-0.088364	0.532986	0.499808
C35	C	-0.362956	0.044525	-0.044097
C36	C	0.137044	0.544525	0.455903
C37	C	-0.290512	0.043465	-0.044114
C38	C	0.209488	0.543465	0.455886
C39	C	-0.247765	0.091423	-0.000253
C40	C	0.252235	0.591423	0.499747
C41	C	-0.277470	0.140452	0.043614
C42	C	0.222530	0.640452	0.543614
C43	C	-0.349915	0.141514	0.043626
C44	C	0.150085	0.641514	0.543626
C45	C	-0.392657	0.093543	-0.000232
C46	C	0.107343	0.593543	0.499768
C47	C	-0.124511	0.153047	-0.000268
C48	C	0.375489	0.653047	0.499732
C49	C	-0.052063	0.151984	-0.000268
C50	C	0.447937	0.651984	0.499732
C51	C	-0.069026	0.025373	-0.000268
C52	C	0.430974	0.525373	0.499732
C53	C	-0.141472	0.026438	-0.000261
C54	C	0.358528	0.526438	0.499739
C55	C	-0.169210	0.090276	-0.000265
C56	C	0.330790	0.590276	0.499735
C57	C	-0.825683	-0.034523	-0.000256
C58	C	-0.325683	0.465477	0.499744
C59	C	-0.824556	-0.111627	-0.000257
C60	C	-0.324556	0.388373	0.499743
C61	C	0.052781	0.087017	-0.000286
C62	C	0.552781	0.587017	0.499714
C63	C	-0.024322	0.088151	-0.000275
C64	C	0.475678	0.588151	0.499725
C65	C	-0.879699	-0.675668	-0.000294
C66	C	-0.379699	-0.175668	0.499706
C67	C	-0.880765	-0.603222	-0.000288
C68	C	-0.380765	-0.103222	0.499712
C69	C	-0.817995	-0.558515	-0.000269
C70	C	-0.317995	-0.058515	0.499731
C71	C	-0.754156	-0.586259	-0.000237
C72	C	-0.254156	-0.086259	0.499763
C73	C	-0.753093	-0.658704	-0.000236
C74	C	-0.253093	-0.158704	0.499764
C75	C	-0.771189	-0.437239	-0.044112
C76	C	-0.271189	0.062761	0.455888
C77	C	-0.772255	-0.364795	-0.044118
C78	C	-0.272255	0.135205	0.455882
C79	C	-0.821273	-0.335069	-0.000269
C80	C	-0.321273	0.164931	0.499731
C81	C	-0.869236	-0.377797	0.043576
C82	C	-0.369236	0.122203	0.543576
C83	C	-0.868173	-0.450242	0.043577
C84	C	-0.368173	0.049758	0.543577
C85	C	-0.819142	-0.479959	-0.000270
C86	C	-0.319142	0.020041	0.499730
C87	C	-0.886263	-0.228778	-0.000289
C88	C	-0.386263	0.271222	0.499711
C89	C	-0.887326	-0.156330	-0.000278
C90	C	-0.387326	0.343670	0.499722
C91	C	-0.760715	-0.139368	-0.000234
C92	C	-0.260715	0.360632	0.499766
C93	C	-0.759655	-0.211815	-0.000238
C94	C	-0.259655	0.288185	0.499762
C95	C	-0.822431	-0.256516	-0.000269
C96	C	-0.322431	0.243484	0.499731
C97	C	-0.814741	0.219491	-0.000263
C98	C	-0.314741	0.719491	0.499737
C99	C	-0.815868	0.296595	-0.000267
C100	C	-0.315868	0.796595	0.499733
N101	N	-0.820191	0.092476	0.177897
N102	N	-0.320191	0.592476	0.677897
N103	N	-0.820239	0.092486	-0.178414
N104	N	-0.320239	0.592486	0.321586
C105	C	-0.867575	0.045130	0.217271
C106	C	-0.367575	0.545130	0.717271
C107	C	-0.867579	0.045127	0.296073
C108	C	-0.367579	0.545127	0.796073
C109	C	-0.820205	0.092481	0.335497
C110	C	-0.320205	0.592481	0.835497
C111	C	-0.772812	0.139831	0.296113
C112	C	-0.272812	0.639831	0.796113
C113	C	-0.772804	0.139828	0.217313
C114	C	-0.272804	0.639828	0.717313
C115	C	-0.810905	0.155769	0.460335
C116	C	-0.310905	0.655769	0.960335
C117	C	-0.810917	0.155773	0.539134
C118	C	-0.310917	0.655773	1.039134
C119	C	-0.820224	0.092489	0.578543
C120	C	-0.320224	0.592489	1.078543
C121	C	-0.829533	0.029200	0.539144
C122	C	-0.329533	0.529200	1.039144
C123	C	-0.829526	0.029197	0.460344
C124	C	-0.329526	0.529197	0.960344
C125	C	-0.820208	0.092489	0.420943
C126	C	-0.320208	0.592489	0.920943
C127	C	-0.867616	0.045136	0.703364
C128	C	-0.367616	0.545136	1.203364
C129	C	-0.867615	0.045132	0.782167
C130	C	-0.367615	0.545132	1.282167
C131	C	-0.772850	0.139842	0.782206
C132	C	-0.272850	0.639842	1.282206
C133	C	-0.772848	0.139840	0.703404
C134	C	-0.272848	0.639840	1.203404
C135	C	-0.820234	0.092488	0.663988
C136	C	-0.320234	0.592488	1.163988
H137	H	-0.374098	0.181433	0.079346
H138	H	0.125902	0.681433	0.579346
H139	H	-0.906167	0.006570	0.328137
H140	H	-0.406167	0.506570	0.828137
Br141	Br	-0.708539	0.204100	0.649962
Br142	Br	-0.208539	0.704100	1.149962
H143	H	-0.937379	-0.265175	-0.000313
H144	H	-0.437379	0.234825	0.499687
Br145	Br	-0.478265	-0.054706	-0.000208
Br146	Br	0.021735	0.445294	0.499792
H147	H	-0.907225	-0.485028	0.079278
H148	H	-0.407225	0.014972	0.579278
H149	H	-0.734238	0.178386	0.328217
H150	H	-0.234238	0.678386	0.828217
Br151	Br	-0.708549	0.204102	0.835704
Br152	Br	-0.208549	0.704102	1.335704
H153	H	-0.734217	0.178383	0.185254
H154	H	-0.234217	0.678383	0.685254
Br155	Br	-0.438284	0.243725	-0.000222
Br156	Br	0.061716	0.743725	0.499778
H157	H	-0.242667	0.179504	0.079330
H158	H	0.257333	0.679504	0.579330
Br159	Br	-0.842152	-0.056691	0.406876
Br160	Br	-0.342152	0.443309	0.906876
Br161	Br	-0.162160	0.239682	-0.000268
Br162	Br	0.337840	0.739682	0.499732
H163	H	-0.930817	-0.712060	-0.000315
H164	H	-0.430817	-0.212060	0.499685
Br165	Br	-0.931922	-0.019129	0.649868
Br166	Br	-0.431922	0.480871	1.149868
H167	H	-0.837111	-0.022332	0.571230
H168	H	-0.337111	0.477668	1.071230
H169	H	-0.707677	-0.234398	-0.000221
H170	H	-0.207677	0.265602	0.499779
Br171	Br	-0.973962	-0.118686	-0.000317
Br172	Br	-0.473962	0.381314	0.499683
Br173	Br	-0.931922	-0.019134	0.835608
Br174	Br	-0.431922	0.480866	1.335608
H175	H	-0.593983	0.211575	-0.000211
H176	H	-0.093983	0.711575	0.499789
H177	H	-0.709607	-0.102968	-0.000212
H178	H	-0.209607	0.397032	0.499788
Br179	Br	-0.798291	0.241664	0.592596
Br180	Br	-0.298291	0.741664	1.092596
Br181	Br	-0.707171	-0.306816	-0.103630
Br182	Br	-0.207171	0.193184	0.396370
H183	H	-0.932745	-0.580634	-0.000310
H184	H	-0.432745	-0.080634	0.499690
H185	H	-0.015670	0.203100	-0.000273
H186	H	0.484330	0.703100	0.499727
Br187	Br	-0.031379	-0.061258	-0.000267
Br188	Br	0.468621	0.438742	0.499733
H189	H	-0.906158	0.006571	0.185180
H190	H	-0.406158	0.506571	0.685180
Br191	Br	-0.202138	-0.058753	-0.000248
Br192	Br	0.297862	0.441247	0.499752
H193	H	-0.909147	-0.353595	0.079287
H194	H	-0.409147	0.146405	0.579287
Br195	Br	-0.798343	0.241663	0.406859
Br196	Br	-0.298343	0.741663	0.906859
H197	H	-0.731264	-0.461434	-0.079814
H198	H	-0.231264	0.038566	0.420186
H199	H	-0.266331	0.003546	-0.079836
H200	H	0.233669	0.503546	0.420164
H201	H	-0.397756	0.005470	-0.079818
H202	H	0.102244	0.505470	0.420182
H203	H	-0.624757	-0.018129	-0.000183
H204	H	-0.124757	0.481871	0.499817
Br205	Br	-0.668968	-0.525587	-0.000204
Br206	Br	-0.168968	-0.025587	0.499796
H207	H	-0.701112	-0.681286	-0.000211
H208	H	-0.201112	-0.181286	0.499789
