data_functionalizedCrystal
_audit_creation_method	'MofGen! by Chris Wilmer'
_symmetry_space_group_name_H-M	'P1'
_symmetry_Int_Tables_number	1
_symmetry_cell_setting	triclinic
loop_
_symmetry_equiv_pos_as_xyz
  x,y,z
_cell_length_a	14.044191
_cell_length_b	14.044190
_cell_length_c	15.186229
_cell_angle_alpha	89.991383
_cell_angle_beta	89.999039
_cell_angle_gamma	93.191777
loop_
_atom_site_label
_atom_site_type_symbol
_atom_site_fract_x
_atom_site_fract_y
_atom_site_fract_z
O1	O	1.277177	0.230199	-0.073204
O2	O	1.000504	0.221887	-0.073215
O3	O	1.134684	0.087707	-0.073192
O4	O	1.142997	0.364379	-0.073227
O5	O	1.134674	0.087704	0.073265
O6	O	1.000494	0.221884	0.073242
O7	O	1.277167	0.230196	0.073253
Zn8	Zn	1.138829	0.226040	0.096501
Zn9	Zn	1.138842	0.226043	-0.096463
O10	O	1.142987	0.364376	0.073231
C11	C	0.964877	0.218249	0.000013
C12	C	0.858734	0.207401	0.000010
C13	C	1.131043	0.052083	0.000039
C14	C	1.120195	-0.054060	0.000046
C15	C	0.613277	0.264502	0.000011
C16	C	0.664400	0.187585	0.000019
C17	C	0.772537	0.198614	0.000014
C18	C	0.505130	0.253475	0.000017
C19	C	1.177296	-0.299517	0.000014
C20	C	1.100379	-0.248394	0.000017
C21	C	1.111408	-0.140257	0.000033
C22	C	1.166269	-0.407664	-0.000003
C23	C	1.312794	0.233834	0.000023
C24	C	1.418937	0.244682	0.000021
C25	C	1.146628	0.400000	-0.000002
C26	C	1.157476	0.506143	-0.000015
N27	N	1.138827	0.226037	0.228194
N28	N	1.138851	0.226039	-0.228155
C29	C	1.198266	0.166646	0.453926
C30	C	1.198269	0.166644	0.546116
C31	C	1.079405	0.285433	0.546105
C32	C	1.079398	0.285429	0.453917
C33	C	1.138834	0.226037	0.407830
C34	C	1.138844	0.226039	0.592208
C35	C	1.138846	0.226037	0.692164
C36	C	1.138830	0.226037	0.307868
H37	H	0.626955	0.113453	-0.000034
H38	H	0.650720	0.338629	-0.000001
H39	H	1.251423	-0.262074	0.000026
H40	H	1.026247	-0.285839	0.000009
O41	O	1.256021	0.108860	0.409293
C42	C	1.373952	-0.008927	0.419038
C43	C	1.308578	0.056457	0.469691
H44	H	1.416476	-0.051297	0.467848
H45	H	1.328740	-0.060193	0.375915
H46	H	1.425089	0.036363	0.375843
H47	H	1.257429	0.011243	0.512935
H48	H	1.353849	0.107727	0.512759
O49	O	1.255864	0.108848	0.590933
C50	C	1.265177	-0.019772	0.695071
C51	C	1.199838	0.045608	0.644356
H52	H	1.219909	-0.070904	0.738290
H53	H	1.307634	-0.062290	0.646332
H54	H	1.316376	0.025529	0.738183
H55	H	1.148584	0.000379	0.601243
H56	H	1.157449	0.088131	0.693143
H57	H	1.031016	0.333790	0.583639
H58	H	1.030997	0.333793	0.416383
