data_functionalizedCrystal
_audit_creation_method	'MofGen! by Chris Wilmer'
_symmetry_space_group_name_H-M	'P1'
_symmetry_Int_Tables_number	1
_symmetry_cell_setting	triclinic
loop_
_symmetry_equiv_pos_as_xyz
  x,y,z
_cell_length_a	14.044191
_cell_length_b	23.532407
_cell_length_c	12.503572
_cell_angle_alpha	93.496478
_cell_angle_beta	86.162165
_cell_angle_gamma	88.020227
loop_
_atom_site_label
_atom_site_type_symbol
_atom_site_fract_x
_atom_site_fract_y
_atom_site_fract_z
O1	O	1.261909	0.134239	-0.089289
O2	O	1.511909	0.384239	0.160711
O3	O	1.761909	0.634239	0.410711
O4	O	2.011909	0.884239	0.660711
O5	O	0.985986	0.129282	-0.089302
O6	O	1.235986	0.379282	0.160698
O7	O	1.485986	0.629282	0.410698
O8	O	1.735986	0.879282	0.660698
O9	O	1.132267	0.049280	-0.089275
O10	O	1.382267	0.299280	0.160725
O11	O	1.632267	0.549280	0.410725
O12	O	1.882267	0.799280	0.660725
O13	O	1.115628	0.214240	-0.089315
O14	O	1.365628	0.464240	0.160685
O15	O	1.615628	0.714240	0.410685
O16	O	1.865628	0.964240	0.660685
O17	O	1.121265	0.055308	0.089365
O18	O	1.371265	0.305308	0.339365
O19	O	1.621265	0.555308	0.589365
O20	O	1.871265	0.805308	0.839365
O21	O	0.974985	0.135309	0.089338
O22	O	1.224985	0.385309	0.339338
O23	O	1.474985	0.635309	0.589338
O24	O	1.724985	0.885309	0.839338
O25	O	1.250907	0.140266	0.089351
O26	O	1.500907	0.390266	0.339351
O27	O	1.750907	0.640266	0.589351
O28	O	2.000907	0.890266	0.839351
Cu29	Cu	1.111942	0.138338	0.105656
Cu30	Cu	1.361942	0.388338	0.355656
Cu31	Cu	1.611942	0.638338	0.605656
Cu32	Cu	1.861942	0.888338	0.855656
Cu33	Cu	1.124952	0.131210	-0.105606
Cu34	Cu	1.374952	0.381210	0.144394
Cu35	Cu	1.624952	0.631210	0.394394
Cu36	Cu	1.874952	0.881210	0.644394
O37	O	1.104627	0.220268	0.089325
O38	O	1.354627	0.470268	0.339325
O39	O	1.604627	0.720268	0.589325
O40	O	1.854627	0.970268	0.839325
C41	C	0.945192	0.130127	0.000017
C42	C	1.195192	0.380127	0.250017
C43	C	1.445192	0.630127	0.500017
C44	C	1.695192	0.880127	0.750017
C45	C	0.840027	0.123660	0.000013
C46	C	1.090027	0.373660	0.250013
C47	C	1.340027	0.623660	0.500013
C48	C	1.590027	0.873660	0.750013
C49	C	0.589420	0.157705	0.000015
C50	C	0.839420	0.407705	0.250015
C51	C	1.089420	0.657705	0.500015
C52	C	1.339420	0.907705	0.750015
C53	C	0.647480	0.111845	0.000025
C54	C	0.897480	0.361845	0.250025
C55	C	1.147480	0.611845	0.500025
C56	C	1.397480	0.861845	0.750025
C57	C	0.754623	0.118420	0.000018
C58	C	1.004623	0.368420	0.250018
C59	C	1.254623	0.618420	0.500018
C60	C	1.504623	0.868420	0.750018
C61	C	0.482267	0.151131	0.000022
C62	C	0.732267	0.401131	0.250022
C63	C	0.982267	0.651131	0.500022
C64	C	1.232267	0.901131	0.750022
C65	C	1.126342	0.031055	0.000048
C66	C	1.376342	0.281055	0.250048
C67	C	1.626342	0.531055	0.500048
C68	C	1.876342	0.781055	0.750048
C69	C	1.125068	-0.032231	0.000056
C70	C	1.375068	0.217769	0.250056
C71	C	1.625068	0.467769	0.500056
C72	C	1.875068	0.717769	0.750056
C73	C	1.203646	-0.427075	0.000001
C74	C	1.453646	-0.177075	0.250001
C75	C	1.703646	0.072925	0.500001
C76	C	1.953646	0.322925	0.750001
C77	C	1.202463	-0.486540	-0.000008
C78	C	1.452463	-0.236540	0.249992
C79	C	1.702463	0.013460	0.499992
C80	C	1.952463	0.263460	0.749992
O81	O	1.275306	-0.519337	-0.000044
O82	O	1.525306	-0.269337	0.249956
O83	O	1.775306	-0.019337	0.499956
O84	O	2.025306	0.230663	0.749956
N85	N	1.115499	-0.513881	-0.000011
N86	N	1.365499	-0.263881	0.249989
N87	N	1.615499	-0.013881	0.499989
N88	N	1.865499	0.236119	0.749989
C89	C	1.029713	-0.481755	-0.000017
C90	C	1.279713	-0.231755	0.249983
C91	C	1.529713	0.018245	0.499983
C92	C	1.779713	0.268245	0.749983
O93	O	0.955634	-0.510471	-0.000021
O94	O	1.205634	-0.260471	0.249979
O95	O	1.455634	-0.010471	0.499979
O96	O	1.705634	0.239529	0.749979
C97	C	1.030897	-0.422292	-0.000016
C98	C	1.280897	-0.172292	0.249984
C99	C	1.530897	0.077708	0.499984
C100	C	1.780897	0.327708	0.749984
C101	C	1.117867	-0.394953	-0.000002
C102	C	1.367867	-0.144953	0.249998
C103	C	1.617867	0.105047	0.499998
C104	C	1.867867	0.355047	0.749998
C105	C	1.290609	-0.399737	0.000013
C106	C	1.540609	-0.149737	0.250013
C107	C	1.790609	0.100263	0.500013
C108	C	2.040609	0.350263	0.750013
C109	C	1.291791	-0.340276	0.000024
C110	C	1.541791	-0.090276	0.250024
C111	C	1.791791	0.159724	0.500024
C112	C	2.041791	0.409724	0.750024
C113	C	1.206011	-0.308154	0.000021
C114	C	1.456011	-0.058154	0.250021
C115	C	1.706011	0.191846	0.500021
C116	C	1.956011	0.441846	0.750021
C117	C	1.119049	-0.335493	0.000008
C118	C	1.369049	-0.085493	0.250008
C119	C	1.619049	0.164507	0.500008
C120	C	1.869049	0.414507	0.750008
C121	C	0.945113	-0.390167	-0.000030
C122	C	1.195113	-0.140167	0.249970
C123	C	1.445113	0.109833	0.499970
C124	C	1.695113	0.359833	0.749970
C125	C	0.946305	-0.330699	-0.000030
C126	C	1.196305	-0.080699	0.249970
C127	C	1.446305	0.169301	0.499970
C128	C	1.696305	0.419301	0.749970
C129	C	1.033274	-0.303361	-0.000016
C130	C	1.283274	-0.053361	0.249984
C131	C	1.533274	0.196639	0.499984
C132	C	1.783274	0.446639	0.749984
C133	C	1.034452	-0.243910	0.000015
C134	C	1.284452	0.006090	0.250015
C135	C	1.534452	0.256090	0.500015
C136	C	1.784452	0.506090	0.750015
N137	N	1.121416	-0.216569	0.000019
N138	N	1.371416	0.033431	0.250019
N139	N	1.621416	0.283431	0.500019
N140	N	1.871416	0.533431	0.750019
C141	C	1.207196	-0.248691	0.000021
C142	C	1.457196	0.001309	0.250021
C143	C	1.707196	0.251309	0.500021
C144	C	1.957196	0.501309	0.750021
C145	C	1.027232	-0.606632	-0.000020
C146	C	1.277232	-0.356632	0.249980
C147	C	1.527232	-0.106632	0.499980
C148	C	1.777232	0.143368	0.749980
C149	C	1.026046	-0.666094	-0.000013
C150	C	1.276046	-0.416094	0.249987
C151	C	1.526046	-0.166094	0.499987
C152	C	1.776046	0.083906	0.749987
C153	C	1.198797	-0.670875	-0.000006
C154	C	1.448797	-0.420875	0.249994
C155	C	1.698797	-0.170875	0.499994
C156	C	1.948797	0.079125	0.749994
C157	C	1.199982	-0.611412	-0.000005
C158	C	1.449982	-0.361412	0.249995
C159	C	1.699982	-0.111412	0.499995
C160	C	1.949982	0.138588	0.749995
C161	C	1.114196	-0.579291	-0.000017
C162	C	1.364196	-0.329291	0.249983
C163	C	1.614196	-0.079291	0.499983
C164	C	1.864196	0.170709	0.749983
C165	C	1.209673	-0.123819	0.000044
C166	C	1.459673	0.126181	0.250044
C167	C	1.709673	0.376181	0.500044
C168	C	1.959673	0.626181	0.750044
C169	C	1.210847	-0.064353	0.000058
C170	C	1.460847	0.185647	0.250058
C171	C	1.710847	0.435647	0.500058
C172	C	1.960847	0.685647	0.750058
C173	C	1.038097	-0.059577	0.000046
C174	C	1.288097	0.190423	0.250046
C175	C	1.538097	0.440423	0.500046
C176	C	1.788097	0.690423	0.750046
C177	C	1.036922	-0.119038	0.000037
C178	C	1.286922	0.130962	0.250037
C179	C	1.536922	0.380962	0.500037
C180	C	1.786922	0.630962	0.750037
C181	C	1.122717	-0.151158	0.000032
C182	C	1.372717	0.098842	0.250032
C183	C	1.622717	0.348842	0.500032
C184	C	1.872717	0.598842	0.750032
O185	O	0.961648	-0.211077	0.000047
O186	O	1.211648	0.038923	0.250047
O187	O	1.461648	0.288923	0.500047
O188	O	1.711648	0.538923	0.750047
O189	O	1.281263	-0.219968	0.000012
O190	O	1.531263	0.030032	0.250012
O191	O	1.781263	0.280032	0.500012
O192	O	2.031263	0.530032	0.750012
C193	C	1.291702	0.139421	0.000030
C194	C	1.541702	0.389421	0.250030
C195	C	1.791702	0.639421	0.500030
C196	C	2.041702	0.889421	0.750030
C197	C	1.396867	0.145888	0.000027
C198	C	1.646867	0.395888	0.250027
C199	C	1.896867	0.645888	0.500027
C200	C	2.146867	0.895888	0.750027
C201	C	1.110552	0.238493	-0.000000
C202	C	1.360552	0.488493	0.250000
C203	C	1.610552	0.738493	0.500000
C204	C	1.860552	0.988493	0.750000
C205	C	1.111827	0.301778	-0.000016
C206	C	1.361827	0.551778	0.249984
C207	C	1.611827	0.801778	0.499984
C208	C	1.861827	1.051778	0.749984
N209	N	1.102798	0.143352	0.254247
N210	N	1.352798	0.393352	0.504247
N211	N	1.602798	0.643352	0.754247
N212	N	1.852798	0.893352	1.004247
N213	N	1.134103	0.126192	-0.254197
N214	N	1.384103	0.376192	-0.004197
N215	N	1.634103	0.626192	0.245803
N216	N	1.884103	0.876192	0.495803
C217	C	1.089347	0.150732	0.473359
C218	C	1.339347	0.400732	0.723359
C219	C	1.589347	0.650732	0.973359
C220	C	1.839347	0.900732	1.223359
C221	C	1.147551	0.118814	0.526697
C222	C	1.397551	0.368814	0.776697
C223	C	1.647551	0.618814	1.026697
C224	C	1.897551	0.868814	1.276697
C225	C	1.140067	0.122920	0.648619
C226	C	1.390067	0.372920	0.898619
C227	C	1.640067	0.622920	1.148619
C228	C	1.890067	0.872920	1.398619
C229	C	1.096830	0.146626	0.351426
C230	C	1.346830	0.396626	0.601426
C231	C	1.596830	0.646626	0.851426
C232	C	1.846830	0.896626	1.101426
H233	H	0.620178	0.201901	0.000001
H234	H	0.870178	0.451901	0.250001
H235	H	1.120178	0.701901	0.500001
H236	H	1.370178	0.951901	0.750001
Cl237	Cl	1.233524	0.072100	0.455833
Cl238	Cl	1.483524	0.322100	0.705833
Cl239	Cl	1.733524	0.572100	0.955833
Cl240	Cl	1.983524	0.822100	1.205833
Cl241	Cl	1.306636	-0.711269	-0.000010
Cl242	Cl	1.556636	-0.461269	0.249990
Cl243	Cl	1.806636	-0.211269	0.499990
Cl244	Cl	2.056636	0.038731	0.749990
Cl245	Cl	1.003742	0.197681	0.544223
Cl246	Cl	1.253742	0.447681	0.794223
Cl247	Cl	1.503742	0.697681	1.044223
Cl248	Cl	1.753742	0.947681	1.294223
H249	H	1.279536	-0.149964	0.000036
H250	H	1.529536	0.100036	0.250036
H251	H	1.779536	0.350036	0.500036
H252	H	2.029536	0.600036	0.750036
Cl253	Cl	0.599994	0.043603	0.000040
Cl254	Cl	0.849994	0.293603	0.250040
Cl255	Cl	1.099994	0.543603	0.500040
Cl256	Cl	1.349994	0.793603	0.750040
H257	H	1.281671	-0.042097	0.000073
H258	H	1.531671	0.207903	0.250073
H259	H	1.781671	0.457903	0.500073
H260	H	2.031671	0.707903	0.750073
Cl261	Cl	1.401132	-0.305918	0.000011
Cl262	Cl	1.651132	-0.055918	0.250011
Cl263	Cl	1.901132	0.194082	0.500011
Cl264	Cl	2.151132	0.444082	0.750011
Cl265	Cl	1.398462	-0.440109	0.000019
Cl266	Cl	1.648462	-0.190109	0.250019
Cl267	Cl	1.898462	0.059891	0.500019
Cl268	Cl	2.148462	0.309891	0.750019
H269	H	0.955226	-0.688347	-0.000006
H270	H	1.205226	-0.438347	0.249994
H271	H	1.455226	-0.188347	0.499994
H272	H	1.705226	0.061653	0.749994
Cl273	Cl	1.309318	-0.577050	0.000011
Cl274	Cl	1.559318	-0.327050	0.250011
Cl275	Cl	1.809318	-0.077050	0.500011
Cl276	Cl	2.059318	0.172950	0.750011
Cl277	Cl	0.835773	-0.424520	-0.000055
Cl278	Cl	1.085773	-0.174520	0.249945
Cl279	Cl	1.335773	0.075480	0.499945
Cl280	Cl	1.585773	0.325480	0.749945
Cl281	Cl	0.919375	-0.566257	-0.000022
Cl282	Cl	1.169375	-0.316257	0.249978
Cl283	Cl	1.419375	-0.066257	0.499978
Cl284	Cl	1.669375	0.183743	0.749978
H285	H	0.876446	-0.304549	-0.000041
H286	H	1.126446	-0.054549	0.249959
H287	H	1.376446	0.195451	0.499959
H288	H	1.626446	0.445451	0.749959
H289	H	0.966102	-0.141297	0.000055
H290	H	1.216102	0.108703	0.250055
H291	H	1.466102	0.358703	0.500055
H292	H	1.716102	0.608703	0.750055
H293	H	0.968257	-0.033412	0.000047
H294	H	1.218257	0.216588	0.250047
H295	H	1.468257	0.466588	0.500047
H296	H	1.718257	0.716588	0.750047
