data_functionalizedCrystal
_audit_creation_method	'MofGen! by Chris Wilmer'
_symmetry_space_group_name_H-M	'P1'
_symmetry_Int_Tables_number	1
_symmetry_cell_setting	triclinic
loop_
_symmetry_equiv_pos_as_xyz
  x,y,z
_cell_length_a	11.026607
_cell_length_b	23.532407
_cell_length_c	9.482900
_cell_angle_alpha	99.270833
_cell_angle_beta	78.636152
_cell_angle_gamma	95.717347
loop_
_atom_site_label
_atom_site_type_symbol
_atom_site_fract_x
_atom_site_fract_y
_atom_site_fract_z
O1	O	1.626299	0.231212	-0.120952
O2	O	1.273319	0.204090	-0.120948
O3	O	1.460449	0.135841	-0.120924
O4	O	1.439169	0.299462	-0.120976
O5	O	1.422438	0.149775	0.120864
O6	O	1.235308	0.218025	0.120840
O7	O	1.588288	0.245146	0.120835
Cu8	Cu	1.408327	0.232858	0.142915
Cu9	Cu	1.453280	0.216379	-0.143027
O10	O	1.401158	0.313396	0.120811
C11	C	1.209163	0.206054	-0.000053
C12	C	1.074628	0.191139	-0.000050
C13	C	1.000328	0.232323	-0.000064
C14	C	0.861279	0.216908	-0.000061
C15	C	1.440901	0.121535	-0.000026
C16	C	1.439269	0.058147	-0.000015
C17	C	1.539801	-0.330388	-0.000096
C18	C	1.538288	-0.389948	-0.000107
O19	O	1.631479	-0.416896	-0.000162
N20	N	1.427037	-0.424275	-0.000104
C21	C	1.317293	-0.399040	-0.000106
O22	O	1.222527	-0.433707	-0.000106
C23	C	1.318809	-0.339482	-0.000105
C24	C	1.430065	-0.305157	-0.000093
C25	C	1.651048	-0.296064	-0.000085
C26	C	1.652560	-0.236507	-0.000072
C27	C	1.542824	-0.211276	-0.000068
C28	C	1.431576	-0.245601	-0.000079
C29	C	1.209068	-0.314249	-0.000117
C30	C	1.210593	-0.254686	-0.000117
C31	C	1.321849	-0.220361	-0.000105
C32	C	1.323351	-0.160813	-0.000062
N33	N	1.434603	-0.126486	-0.000065
C34	C	1.544339	-0.151718	-0.000068
C35	C	1.314120	-0.524117	-0.000109
C36	C	1.312602	-0.583674	-0.000100
C37	C	1.533598	-0.574578	-0.000104
C38	C	1.535113	-0.515019	-0.000103
C39	C	1.425371	-0.489790	-0.000112
C40	C	1.547504	-0.026646	-0.000038
C41	C	1.549005	0.032916	-0.000018
C42	C	1.328011	0.023814	-0.000022
C43	C	1.326508	-0.035742	-0.000034
C44	C	1.436266	-0.060970	-0.000047
O45	O	1.230210	-0.133827	-0.000013
O46	O	1.639093	-0.117045	-0.000087
C47	C	1.652445	0.243183	-0.000063
C48	C	1.786981	0.258098	-0.000075
C49	C	1.420707	0.327702	-0.000090
C50	C	1.422340	0.391089	-0.000110
N51	N	1.376719	0.244449	0.344031
N52	N	1.484898	0.204785	-0.344143
C53	C	1.443948	0.219794	0.416239
C54	C	1.417658	0.229443	0.583653
H55	H	1.639606	0.060862	-0.000004
H56	H	1.561919	0.176529	0.593742
C57	C	1.274110	0.282123	0.427110
C58	C	1.268461	0.284219	0.576643
C59	C	1.173963	0.318926	0.653216
H60	H	1.197037	0.266351	0.402435
H61	H	1.290928	0.320024	0.402308
H62	H	1.251635	0.246326	0.601435
H63	H	1.345510	0.299996	0.601362
H64	H	1.190781	0.356826	0.628414
H65	H	1.096897	0.303151	0.628529
H66	H	1.170125	0.320357	0.754682
C67	C	1.546506	0.182032	0.333462
C68	C	1.521442	0.126233	0.370331
C69	C	1.615887	0.091434	0.294079
H70	H	1.623563	0.197775	0.358234
H71	H	1.550500	0.180526	0.231941
H72	H	1.517462	0.127742	0.471829
H73	H	1.444402	0.110473	0.345555
H74	H	1.619882	0.089927	0.192559
H75	H	1.692938	0.107182	0.318858
H76	H	1.598889	0.053569	0.319074
C77	C	1.191816	-0.620925	-0.000397
C78	C	1.145098	-0.616346	-0.124807
C79	C	1.033839	-0.650657	-0.125150
H80	H	1.133279	-0.608213	0.083823
H81	H	1.206579	-0.660024	-0.000483
H82	H	1.130329	-0.577255	-0.124707
H83	H	1.203602	-0.629061	-0.209047
H84	H	1.048603	-0.689756	-0.125236
H85	H	0.975312	-0.637942	-0.040925
H86	H	1.002133	-0.647559	-0.209567
H87	H	0.821959	0.170231	-0.000083
H88	H	1.340628	0.257694	0.645767
H89	H	0.826303	0.304773	-0.000081
C90	C	1.088266	-0.351520	0.000151
C91	C	1.061335	-0.378811	0.124552
C92	C	0.950049	-0.413144	0.124851
H93	H	1.096209	-0.379839	-0.084075
H94	H	1.023090	-0.327971	0.000221
H95	H	1.126495	-0.402358	0.124469
H96	H	1.053367	-0.350505	0.208798
H97	H	0.884873	-0.389595	0.124921
H98	H	0.958003	-0.441460	0.040620
H99	H	0.931757	-0.431661	0.209261
C100	C	1.666540	-0.054093	0.000183
C101	C	1.652566	-0.080872	0.124554
C102	C	1.762186	-0.106169	0.124807
H103	H	1.733091	-0.025171	0.000268
H104	H	1.683815	-0.082021	-0.084093
H105	H	1.635306	-0.052948	0.208809
H106	H	1.586036	-0.109803	0.124496
H107	H	1.779462	-0.134096	0.040531
H108	H	1.828730	-0.077243	0.124889
H109	H	1.752716	-0.124346	0.209184
H110	H	1.743157	-0.208565	-0.000068
H111	H	1.039658	0.278994	-0.000071
C112	C	1.021975	0.128935	-0.000107
C113	C	0.894534	0.126009	-0.000143
C114	C	0.845997	0.068714	-0.000216
H115	H	1.035443	0.115330	0.084191
H116	H	1.062020	0.105658	-0.084453
H117	H	0.854502	0.149277	0.084195
H118	H	0.881032	0.139602	-0.084435
H119	H	0.886042	0.045438	-0.084563
H120	H	0.859473	0.055114	0.084083
H121	H	0.759526	0.066721	-0.000255
H122	H	1.235908	-0.063688	-0.000003
H123	H	1.740415	-0.316600	-0.000093
H124	H	1.625708	-0.487075	-0.000094
C125	C	1.652876	-0.601915	-0.000349
C126	C	1.739470	-0.591835	-0.124728
C127	C	1.849360	-0.617004	-0.124993
H128	H	1.636219	-0.642308	-0.000431
H129	H	1.685351	-0.585424	0.083922
H130	H	1.707001	-0.608329	-0.208977
H131	H	1.756164	-0.551447	-0.124671
H132	H	1.881835	-0.600512	-0.040722
H133	H	1.832691	-0.657395	-0.125072
H134	H	1.908132	-0.610163	-0.209375
H135	H	1.121226	-0.234148	-0.000126
C136	C	1.195043	-0.496713	-0.000396
C137	C	1.208983	-0.469961	-0.124806
C138	C	1.099312	-0.444721	-0.125131
H139	H	1.177678	-0.468778	0.083824
H140	H	1.128554	-0.525678	-0.000471
H141	H	1.275452	-0.440998	-0.124717
H142	H	1.226330	-0.497883	-0.209046
H143	H	1.032823	-0.473686	-0.125206
H144	H	1.081956	-0.416789	-0.040906
H145	H	1.108752	-0.426571	-0.209548
H146	H	1.238666	0.044369	-0.000014
