data_functionalizedCrystal
_audit_creation_method	'MofGen! by Chris Wilmer'
_symmetry_space_group_name_H-M	'P1'
_symmetry_Int_Tables_number	1
_symmetry_cell_setting	triclinic
loop_
_symmetry_equiv_pos_as_xyz
  x,y,z
_cell_length_a	21.295418
_cell_length_b	19.076915
_cell_length_c	19.077174
_cell_angle_alpha	89.935824
_cell_angle_beta	87.664690
_cell_angle_gamma	87.653381
loop_
_atom_site_label
_atom_site_type_symbol
_atom_site_fract_x
_atom_site_fract_y
_atom_site_fract_z
Zn1	Zn	0.965555	0.295455	-0.386433
Zn2	Zn	1.298889	0.628788	-0.053099
Zn3	Zn	1.632222	0.962122	0.280234
Zn4	Zn	0.957024	0.408254	-0.264197
Zn5	Zn	1.290357	0.741587	0.069136
Zn6	Zn	1.623690	1.074920	0.402469
Zn7	Zn	0.856240	0.290788	-0.268897
Zn8	Zn	1.189573	0.624121	0.064436
Zn9	Zn	1.522906	0.957454	0.397769
Zn10	Zn	0.855847	0.412964	-0.381626
Zn11	Zn	1.189181	0.746297	-0.048293
Zn12	Zn	1.522514	1.079630	0.285040
O13	O	0.908666	0.351865	-0.325288
O14	O	1.242000	0.685198	0.008045
O15	O	1.575333	1.018532	0.341378
O16	O	1.052515	0.310400	-0.370262
O17	O	1.385848	0.643733	-0.036929
O18	O	1.719182	0.977067	0.296404
O19	O	0.940248	0.388747	-0.166487
O20	O	1.273582	0.722080	0.166846
O21	O	1.606915	1.055414	0.500179
O22	O	0.874475	0.193069	-0.288467
O23	O	1.207808	0.526402	0.044866
O24	O	1.541142	0.859736	0.378200
O25	O	1.046247	0.393273	-0.280457
O26	O	1.379580	0.726606	0.052877
O27	O	1.712914	1.059939	0.386210
O28	O	0.954789	0.196498	-0.374820
O29	O	1.288122	0.529831	-0.041486
O30	O	1.621456	0.863165	0.291847
O31	O	0.866203	0.302445	-0.169940
O32	O	1.199536	0.635778	0.163393
O33	O	1.532869	0.969112	0.496726
O34	O	0.768096	0.307012	-0.283806
O35	O	1.101429	0.640346	0.049527
O36	O	1.434763	0.973679	0.382860
O37	O	0.873807	0.401300	-0.480597
O38	O	1.207140	0.734634	-0.147264
O39	O	1.540473	1.067967	0.186069
O40	O	0.767808	0.396775	-0.366628
O41	O	1.101141	0.730108	-0.033295
O42	O	1.434474	1.063441	0.300039
O43	O	0.954409	0.314967	-0.484129
O44	O	1.287742	0.648301	-0.150795
O45	O	1.621075	0.981634	0.182538
O46	O	0.939868	0.507216	-0.275796
O47	O	1.273201	0.840550	0.057537
O48	O	1.606535	1.173883	0.390871
O49	O	0.865534	0.510677	-0.362071
O50	O	1.198867	0.844010	-0.028737
O51	O	1.532201	1.177343	0.304596
C52	C	0.901750	0.534445	-0.317917
C53	C	1.235084	0.867778	0.015416
C54	C	1.568417	1.201112	0.348750
C55	C	0.898850	0.612554	-0.314787
C56	C	1.232183	0.945888	0.018546
C57	C	1.565516	1.279221	0.351880
C58	C	0.745111	0.351899	-0.325206
C59	C	1.078444	0.685232	0.008127
C60	C	1.411777	1.018565	0.341461
C61	C	0.675141	0.351931	-0.325187
C62	C	1.008474	0.685264	0.008147
C63	C	1.341807	1.018597	0.341480
C64	C	0.878022	1.052043	-0.292361
C65	C	1.211355	1.385377	0.040972
C66	C	1.544689	1.718710	0.374305
C67	C	0.880749	0.978651	-0.295302
C68	C	1.214082	1.311985	0.038031
C69	C	1.547415	1.645318	0.371365
C70	C	0.923901	0.943683	-0.341767
C71	C	1.257234	1.277016	-0.008434
C72	C	1.590567	1.610349	0.324900
C73	C	0.964324	0.982110	-0.385299
C74	C	1.297658	1.315443	-0.051966
C75	C	1.630991	1.648777	0.281368
C76	C	0.961594	1.055501	-0.382361
C77	C	1.294928	1.388834	-0.049028
C78	C	1.628261	1.722168	0.284306
C79	C	0.936544	0.724373	-0.355381
C80	C	1.269877	1.057706	-0.022048
C81	C	1.603210	1.391039	0.311285
C82	C	0.939272	0.650976	-0.358314
C83	C	1.272605	0.984310	-0.024981
C84	C	1.605938	1.317643	0.308352
C85	C	0.855695	0.647523	-0.268318
C86	C	1.189028	0.980856	0.065015
C87	C	1.522362	1.314189	0.398349
C88	C	0.852971	0.720915	-0.265381
C89	C	1.186305	1.054248	0.067952
C90	C	1.519638	1.387582	0.401285
C91	C	0.893393	0.759336	-0.308916
C92	C	1.226726	1.092670	0.024417
C93	C	1.560059	1.426003	0.357751
N94	N	0.926690	0.868664	-0.344773
N95	N	1.260023	1.201997	-0.011439
N96	N	1.593357	1.535331	0.321894
N97	N	0.890600	0.834354	-0.305913
N98	N	1.223933	1.167687	0.027420
N99	N	1.557266	1.501020	0.360753
C100	C	0.642136	0.398727	-0.368242
C101	C	0.975469	0.732060	-0.034909
C102	C	1.308803	1.065393	0.298424
C103	C	0.576395	0.398711	-0.368275
C104	C	0.909728	0.732044	-0.034941
C105	C	1.243062	1.065377	0.298392
C106	C	0.543661	0.351905	-0.325238
C107	C	0.876994	0.685239	0.008095
C108	C	1.210328	1.018572	0.341428
C109	C	0.576674	0.305101	-0.282180
C110	C	0.910007	0.638434	0.051153
C111	C	1.243341	0.971767	0.384487
C112	C	0.642414	0.305113	-0.282154
C113	C	0.975747	0.638447	0.051179
C114	C	1.309080	0.971780	0.384513
N115	N	0.438479	0.343947	-0.263999
N116	N	0.771813	0.677281	0.069334
N117	N	1.105146	1.010614	0.402668
N118	N	0.376029	0.343939	-0.264025
N119	N	0.709363	0.677273	0.069308
N120	N	1.042696	1.010606	0.402641
C121	C	0.345591	0.351864	-0.325315
C122	C	0.678924	0.685197	0.008019
C123	C	1.012257	1.018530	0.341352
N124	N	0.379961	0.359810	-0.386577
N125	N	0.713294	0.693143	-0.053244
N126	N	1.046627	1.026476	0.280089
N127	N	0.442417	0.359821	-0.386550
N128	N	0.775750	0.693154	-0.053217
N129	N	1.109083	1.026488	0.280117
C130	C	0.472377	0.351886	-0.325262
C131	C	0.805710	0.685220	0.008071
C132	C	1.139044	1.018553	0.341405
C133	C	0.241302	0.398645	-0.368409
C134	C	0.574636	0.731978	-0.035076
C135	C	0.907969	1.065311	0.298258
C136	C	0.175560	0.398624	-0.368443
C137	C	0.508894	0.731957	-0.035109
C138	C	0.842227	1.065291	0.298224
C139	C	0.175840	0.305017	-0.282342
C140	C	0.509173	0.638351	0.050992
C141	C	0.842507	0.971684	0.384325
C142	C	0.241581	0.305035	-0.282314
C143	C	0.574914	0.638368	0.051019
C144	C	0.908248	0.971701	0.384352
C145	C	0.274308	0.351852	-0.325347
C146	C	0.607641	0.685186	0.007986
C147	C	0.940975	1.018519	0.341320
C148	C	1.072861	0.351832	-0.325371
C149	C	1.406194	0.685165	0.007962
C150	C	1.739528	1.018498	0.341295
C151	C	1.142831	0.351817	-0.325407
C152	C	1.476164	0.685151	0.007926
C153	C	1.809498	1.018484	0.341260
C154	C	0.915015	0.359180	-0.508573
C155	C	1.248349	0.692513	-0.175239
C156	C	1.581682	1.025847	0.158094
C157	C	0.917721	0.362297	-0.586677
C158	C	1.251054	0.695630	-0.253344
C159	C	1.584388	1.028964	0.079989
C160	C	0.915590	1.168573	-0.332710
C161	C	1.248923	1.501906	0.000623
C162	C	1.582256	1.835240	0.333957
C163	C	0.918444	1.090466	-0.335888
C164	C	1.251777	1.423799	-0.002555
C165	C	1.585111	1.757132	0.330778
C166	C	0.880442	0.318830	-0.625169
C167	C	1.213776	0.652163	-0.291835
C168	C	1.547109	0.985496	0.041498
C169	C	0.882982	0.321764	-0.698556
C170	C	1.216315	0.655098	-0.365223
C171	C	1.549649	0.988431	-0.031889
C172	C	0.922804	0.368164	-0.733451
C173	C	1.256137	0.701497	-0.400118
C174	C	1.589471	1.034830	-0.066785
C175	C	0.960084	0.411636	-0.694955
C176	C	1.293417	0.744969	-0.361622
C177	C	1.626751	1.078302	-0.028288
C178	C	0.957541	0.408704	-0.621569
C179	C	1.290874	0.742037	-0.288235
C180	C	1.624208	1.075371	0.045098
C181	C	0.934541	0.381753	-0.952740
C182	C	1.267874	0.715086	-0.619407
C183	C	1.601208	1.048420	-0.286073
C184	C	0.937083	0.384680	-1.026132
C185	C	1.270416	0.718013	-0.692798
C186	C	1.603750	1.051347	-0.359465
C187	C	0.859979	0.294809	-1.029728
C188	C	1.193313	0.628143	-0.696394
C189	C	1.526646	0.961476	-0.363061
C190	C	0.857442	0.291879	-0.956340
C191	C	1.190776	0.625212	-0.623007
C192	C	1.524109	0.958545	-0.289673
C193	C	0.894720	0.335353	-0.917850
C194	C	1.228053	0.668687	-0.584517
C195	C	1.561387	1.002020	-0.251183
N196	N	0.925402	0.371163	-0.808465
N197	N	1.258736	0.704496	-0.475132
N198	N	1.592069	1.037830	-0.141799
N199	N	0.892118	0.332357	-0.842837
N200	N	1.225452	0.665690	-0.509504
N201	N	1.558785	0.999024	-0.176171
C202	C	0.902380	0.344528	-0.142719
C203	C	1.235714	0.677861	0.190614
C204	C	1.569047	1.011194	0.523947
C205	C	0.899804	0.341213	-0.064623
C206	C	1.233137	0.674546	0.268711
C207	C	1.566471	1.007879	0.602044
H208	H	0.842885	1.080509	-0.254522
H209	H	1.176218	1.413843	0.078811
H210	H	1.509552	1.747176	0.412145
H211	H	0.992505	0.449418	-0.723372
H212	H	1.325838	0.782752	-0.390039
H213	H	1.659171	1.116085	-0.056706
H214	H	0.549518	0.436817	-0.403338
H215	H	0.882851	0.770151	-0.070005
H216	H	1.216184	1.103484	0.263328
H217	H	0.268453	0.266932	-0.247250
H218	H	0.601787	0.600265	0.086083
H219	H	0.935120	0.933598	0.419417
H220	H	0.848018	0.281042	-0.596762
H221	H	1.181352	0.614376	-0.263429
H222	H	1.514685	0.947709	0.069904
Br223	Br	0.832351	0.262808	-0.750790
Br224	Br	1.165684	0.596142	-0.417457
Br225	Br	1.499018	0.929475	-0.084123
Br226	Br	0.803399	0.228903	-0.908987
Br227	Br	1.136733	0.562236	-0.575654
Br228	Br	1.470066	0.895569	-0.242320
H229	H	0.829629	0.259415	-1.061074
H230	H	1.162963	0.592749	-0.727741
H231	H	1.496296	0.926082	-0.394407
H232	H	0.969514	0.422465	-1.054541
H233	H	1.302847	0.755798	-0.721208
H234	H	1.636180	1.089131	-0.387875
Br235	Br	0.131423	0.241488	-0.223941
Br236	Br	0.464756	0.574821	0.109392
Br237	Br	0.798089	0.908155	0.442726
H238	H	0.987902	0.444095	-0.590230
H239	H	1.321236	0.777428	-0.256897
H240	H	1.654569	1.110761	0.076436
H241	H	0.974414	0.622509	-0.396154
H242	H	1.307747	0.955842	-0.062820
H243	H	1.641081	1.289175	0.270513
H244	H	0.964888	0.417161	-0.921410
H245	H	1.298221	0.750494	-0.588077
H246	H	1.631555	1.083828	-0.254743
Br247	Br	1.016452	1.107647	-0.441439
Br248	Br	1.349786	1.440980	-0.108106
Br249	Br	1.683119	1.774313	0.225228
Br250	Br	0.825877	0.926510	-0.236239
Br251	Br	1.159210	1.259843	0.097094
Br252	Br	1.492544	1.593176	0.430428
Br253	Br	1.022881	0.934654	-0.448369
Br254	Br	1.356214	1.267987	-0.115035
Br255	Br	1.689547	1.601321	0.218298
Br256	Br	0.794406	0.768368	-0.202319
Br257	Br	1.127740	1.101701	0.131015
Br258	Br	1.461073	1.435034	0.464348
Br259	Br	0.532251	0.241573	-0.223779
Br260	Br	0.865585	0.574906	0.109554
Br261	Br	1.198918	0.908240	0.442888
Br262	Br	0.800839	0.595377	-0.209241
Br263	Br	1.134172	0.928710	0.124093
Br264	Br	1.467505	1.262043	0.457426
Br265	Br	0.991394	0.776507	-0.414473
Br266	Br	1.324727	1.109840	-0.081140
Br267	Br	1.658061	1.443174	0.252194
Br268	Br	0.686548	0.462263	-0.426645
Br269	Br	1.019882	0.795596	-0.093312
Br270	Br	1.353215	1.128929	0.240021
H271	H	0.669286	0.267004	-0.247093
H272	H	1.002619	0.600337	0.086240
H273	H	1.335953	0.933671	0.419574
H274	H	0.267950	0.436763	-0.403452
H275	H	0.601283	0.770096	-0.070119
H276	H	0.934617	1.103430	0.263214
H277	H	0.148689	0.436730	-0.403508
H278	H	0.482023	0.770063	-0.070175
H279	H	0.815356	1.103396	0.263159
