data_functionalizedCrystal
_audit_creation_method	'MofGen! by Chris Wilmer'
_symmetry_space_group_name_H-M	'P1'
_symmetry_Int_Tables_number	1
_symmetry_cell_setting	triclinic
loop_
_symmetry_equiv_pos_as_xyz
  x,y,z
_cell_length_a	12.837943
_cell_length_b	12.837942
_cell_length_c	11.892095
_cell_angle_alpha	85.697431
_cell_angle_beta	85.689438
_cell_angle_gamma	85.171060
loop_
_atom_site_label
_atom_site_type_symbol
_atom_site_fract_x
_atom_site_fract_y
_atom_site_fract_z
O1	O	1.408367	-0.266110	-0.093982
O2	O	1.105234	-0.252667	-0.093989
O3	O	1.250078	-0.107822	-0.093979
O4	O	1.263522	-0.410955	-0.093992
O5	O	1.237999	-0.119879	0.094028
O6	O	1.093155	-0.264723	0.094018
O7	O	1.396288	-0.278167	0.094025
Zn8	Zn	1.242803	-0.273359	0.123871
Zn9	Zn	1.258718	-0.257474	-0.123836
O10	O	1.251443	-0.423011	0.094014
C11	C	1.060125	-0.254153	0.000014
C12	C	0.943710	-0.240609	0.000011
C13	C	1.239497	-0.074781	0.000024
C14	C	1.225953	0.041634	0.000022
C15	C	0.718835	-0.403439	0.000020
C16	C	0.609453	-0.390717	0.000019
C17	C	0.615561	-0.202446	0.000015
C18	C	0.724943	-0.215167	0.000017
C19	C	0.776577	-0.315667	0.000017
C20	C	0.885961	-0.328387	0.000011
C21	C	0.892066	-0.140117	0.000015
C22	C	0.782684	-0.127395	0.000014
C23	C	1.441397	-0.276680	0.000020
C24	C	1.557812	-0.290224	0.000015
C25	C	1.262024	-0.456052	0.000009
C26	C	1.275569	-0.572467	0.000004
N27	N	1.231950	-0.284200	0.292925
C28	C	1.388784	0.266509	0.000002
C29	C	1.376062	0.375892	-0.000000
C30	C	1.187791	0.369784	0.000007
C31	C	1.200512	0.260402	0.000009
C32	C	1.301011	0.208768	0.000008
C33	C	1.313731	0.099383	0.000019
C34	C	1.125461	0.093278	0.000018
C35	C	1.112740	0.202660	0.000016
N36	N	1.269579	-0.246626	-0.292889
C37	C	1.345098	-0.171130	0.529580
C38	C	1.337519	-0.178716	0.647922
C39	C	1.209210	-0.306952	0.647951
C40	C	1.216788	-0.299366	0.529610
C41	C	1.284736	-0.231454	0.470428
C42	C	1.292319	-0.223874	0.352085
C43	C	1.164005	-0.352104	0.352116
C44	C	1.156426	-0.359690	0.470458
H45	H	0.928000	-0.410219	0.000013
H46	H	1.470613	0.224468	0.000012
O47	O	0.768831	-0.501134	0.000063
C48	C	0.751240	-0.686526	-0.000023
C49	C	0.694488	-0.575947	-0.000043
H50	H	0.691160	-0.747041	-0.000133
H51	H	0.797211	-0.702305	0.078676
H52	H	0.807380	-0.692085	-0.078685
H53	H	0.638296	-0.570308	0.078566
H54	H	0.648584	-0.560216	-0.078794
H55	H	1.400430	-0.115841	0.481394
O56	O	1.143052	-0.372782	0.705405
C57	C	0.964763	-0.418376	0.741620
C58	C	1.039571	-0.343741	0.676499
H59	H	0.881086	-0.394937	0.718255
H60	H	0.969625	-0.413412	0.836373
H61	H	0.988215	-0.502091	0.718382
H62	H	1.016169	-0.259993	0.699642
H63	H	1.034698	-0.348796	0.581761
O64	O	1.396263	-0.120076	0.705207
C65	C	1.524273	0.007972	0.692685
C66	C	1.457825	-0.058402	0.627669
H67	H	1.574046	0.057869	0.630024
H68	H	1.577558	-0.045915	0.748048
H69	H	1.470340	0.061156	0.748130
H70	H	1.511678	-0.111593	0.572163
H71	H	1.404530	-0.004454	0.572378
H72	H	1.447536	0.422901	-0.000009
H73	H	1.030916	0.244716	0.000012
H74	H	0.573495	-0.120630	0.000108
H75	H	1.101102	-0.414980	0.518656
H76	H	1.105969	0.411844	-0.000004
H77	H	0.740628	-0.045572	0.000026
O78	O	1.040121	0.037312	-0.000126
C79	C	0.889381	0.004820	-0.097544
C80	C	0.985975	0.068290	-0.097516
H81	H	0.845589	0.029826	-0.176287
H82	H	0.835340	0.019808	-0.018915
H83	H	0.915750	-0.082227	-0.097484
H84	H	0.959701	0.155356	-0.097616
H85	H	1.039994	0.053213	-0.176138
O86	O	1.358335	-0.157820	0.294769
C87	C	1.484839	-0.031468	0.307236
C88	C	1.410101	-0.106218	0.372282
H89	H	1.526729	0.010256	0.369877
H90	H	1.438068	0.028932	0.251874
H91	H	1.545109	-0.078316	0.251788
H92	H	1.349817	-0.059458	0.427791
H93	H	1.456943	-0.166619	0.427573
O94	O	1.105478	-0.410868	0.294710
C95	C	1.064398	-0.584489	0.258582
C96	C	1.130755	-0.518062	0.323642
H97	H	1.084794	-0.671167	0.281968
H98	H	1.081491	-0.567501	0.163820
H99	H	0.977717	-0.563961	0.281854
H100	H	1.217456	-0.538551	0.300465
H101	H	1.113573	-0.535059	0.418389
H102	H	1.395563	0.057344	0.000022
O103	O	0.948036	-0.054780	0.000164
C104	C	0.980522	0.095967	0.097589
C105	C	0.917045	-0.000622	0.097554
H106	H	0.955505	0.139769	0.176332
H107	H	0.965551	0.150000	0.018961
H108	H	1.067568	0.069592	0.097531
H109	H	0.829981	0.025659	0.097652
H110	H	0.932105	-0.054632	0.176176
H111	H	0.562444	-0.462191	0.000024
