data_functionalizedCrystal
_audit_creation_method	'MofGen! by Chris Wilmer'
_symmetry_space_group_name_H-M	'P1'
_symmetry_Int_Tables_number	1
_symmetry_cell_setting	triclinic
loop_
_symmetry_equiv_pos_as_xyz
  x,y,z
_cell_length_a	14.044220
_cell_length_b	9.565339
_cell_length_c	14.044220
_cell_angle_alpha	89.999264
_cell_angle_beta	86.811122
_cell_angle_gamma	89.998998
loop_
_atom_site_label
_atom_site_type_symbol
_atom_site_fract_x
_atom_site_fract_y
_atom_site_fract_z
O1	O	1.277167	0.116117	-0.230161
O2	O	1.000495	0.116152	-0.221855
O3	O	1.134678	0.116121	-0.087672
O4	O	1.142984	0.116148	-0.364344
O5	O	1.134667	-0.116399	-0.087680
O6	O	1.000485	-0.116368	-0.221863
O7	O	1.277156	-0.116403	-0.230169
Zn8	Zn	1.138819	-0.153303	-0.226017
Zn9	Zn	1.138833	0.153052	-0.226007
O10	O	1.142973	-0.116372	-0.364352
C11	C	0.964868	-0.000104	-0.218223
C12	C	0.858725	-0.000091	-0.207379
N13	N	1.138816	-0.362383	-0.226025
C14	C	0.664388	-0.000120	-0.187553
C15	C	0.613258	-0.000119	-0.264467
C16	C	0.505122	-0.000135	-0.253435
C17	C	0.772534	-0.000104	-0.198583
C18	C	1.076738	-0.453571	-0.288056
C19	C	1.164577	-0.546759	-0.313875
C20	C	1.051015	-0.546750	-0.200215
C21	C	1.226701	-0.453519	-0.251891
C22	C	1.113080	-0.453501	-0.138189
C23	C	1.200978	-0.546647	-0.163977
C24	C	1.312783	-0.000145	-0.233800
C25	C	1.418926	-0.000148	-0.244645
C26	C	1.131037	-0.000139	-0.052054
C27	C	1.120193	-0.000139	0.054088
N28	N	1.138843	0.362131	-0.225992
C29	C	1.146614	-0.000109	-0.399969
C30	C	1.157459	-0.000100	-0.506112
C31	C	1.100366	-0.000117	0.248426
C32	C	1.177281	-0.000122	0.299556
C33	C	1.166249	-0.000110	0.407692
C34	C	1.111397	-0.000129	0.140280
H35	H	0.650697	-0.000105	-0.338600
H36	H	0.626951	-0.000135	-0.113425
H37	H	1.300987	-0.412738	-0.273794
H38	H	1.186363	-0.587722	-0.388143
H39	H	1.024298	-0.412705	-0.340570
H40	H	1.253548	-0.587258	-0.111507
H41	H	1.091269	-0.412506	-0.063942
H42	H	0.976753	-0.587706	-0.178401
C43	C	1.269064	-0.000173	0.150126
C44	C	1.277361	-0.000156	0.249022
H45	H	1.330847	-0.000206	0.118928
H46	H	1.235380	0.080915	0.132181
H47	H	1.235349	-0.081255	0.132199
H48	H	1.311070	0.080932	0.266950
H49	H	1.311059	-0.081253	0.266974
H50	H	1.026239	-0.000104	0.285863
