data_functionalizedCrystal
_audit_creation_method	'MofGen! by Chris Wilmer'
_symmetry_space_group_name_H-M	'P1'
_symmetry_Int_Tables_number	1
_symmetry_cell_setting	triclinic
loop_
_symmetry_equiv_pos_as_xyz
  x,y,z
_cell_length_a	21.295420
_cell_length_b	21.295417
_cell_length_c	13.032268
_cell_angle_alpha	97.140648
_cell_angle_beta	97.162788
_cell_angle_gamma	90.026289
loop_
_atom_site_label
_atom_site_type_symbol
_atom_site_fract_x
_atom_site_fract_y
_atom_site_fract_z
Zn1	Zn	0.917099	-0.295851	-0.590812
Zn2	Zn	0.930388	-0.387763	-0.416057
Zn3	Zn	0.825206	-0.282507	-0.416089
Zn4	Zn	0.811797	-0.401073	-0.590741
O5	O	0.871122	-0.341799	-0.503425
O6	O	1.006950	-0.308058	-0.567647
O7	O	0.927608	-0.362645	-0.269833
O8	O	0.837446	-0.196191	-0.439310
O9	O	1.016713	-0.375585	-0.439255
O10	O	0.904960	-0.205995	-0.567678
O11	O	0.850332	-0.285314	-0.269857
O12	O	0.735339	-0.298220	-0.439241
O13	O	0.814593	-0.398270	-0.736979
O14	O	0.725488	-0.385331	-0.567557
O15	O	0.891957	-0.320964	-0.737031
O16	O	0.914606	-0.477615	-0.439186
O17	O	0.827478	-0.487394	-0.567525
C18	C	0.707573	-0.341772	-0.503395
C19	C	0.637604	-0.341778	-0.503408
C20	C	0.133051	-0.306741	-0.570403
C21	C	0.198793	-0.306737	-0.570403
C22	C	0.236761	-0.341820	-0.503449
C23	C	0.208980	-0.376922	-0.436510
C24	C	0.143238	-0.376931	-0.436519
N25	N	0.346960	-0.339571	-0.411951
N26	N	0.409412	-0.339559	-0.411945
C27	C	0.434839	-0.341796	-0.503419
N28	N	0.395454	-0.344034	-0.594900
N29	N	0.332996	-0.344042	-0.594905
C30	C	0.308048	-0.341814	-0.503432
C31	C	0.533897	-0.306694	-0.570359
C32	C	0.599641	-0.306694	-0.570361
C33	C	0.609827	-0.376876	-0.436458
C34	C	0.544084	-0.376880	-0.436466
C35	C	0.506123	-0.341786	-0.503415
C36	C	0.871044	-0.505346	-0.503367
C37	C	0.871066	-0.575315	-0.503377
C38	C	0.916464	-0.603074	-0.436619
C39	C	0.916492	-0.668818	-0.436643
C40	C	0.871111	-0.706800	-0.503413
C41	C	0.825709	-0.679034	-0.570184
C42	C	0.825686	-0.613291	-0.570166
N43	N	0.815434	-0.810670	-0.511370
N44	N	0.815458	-0.873122	-0.511381
C45	C	0.871177	-0.904879	-0.503473
N46	N	0.926874	-0.871823	-0.495534
N47	N	0.926850	-0.809365	-0.495518
C48	C	0.871131	-0.778087	-0.503441
C49	C	0.916609	-1.003925	-0.436737
C50	C	0.916637	-1.069671	-0.436768
C51	C	0.825849	-1.079886	-0.570304
C52	C	0.825826	-1.014141	-0.570279
C53	C	0.871205	-0.976165	-0.503490
C54	C	1.035310	-0.341825	-0.503455
C55	C	1.105277	-0.341837	-0.503468
C56	C	0.850297	-0.362591	-0.775980
C57	C	0.841422	-0.371451	-0.892127
C58	C	0.871216	-0.177614	-0.503506
C59	C	0.871256	-0.107649	-0.503540
C60	C	0.875744	-0.337152	-0.943935
C61	C	0.866573	-0.346308	-1.063979
C62	C	0.891903	-0.321042	-0.231930
C63	C	0.900900	-0.312004	-0.115784
H64	H	0.502988	-0.278118	-0.624873
O65	O	0.918981	-0.294070	-0.890953
C66	C	0.979696	-0.309862	-0.917531
H67	H	0.974973	-0.340065	-0.996789
H68	H	1.005537	-0.337577	-0.856115
C69	C	1.023292	-0.211778	-0.825118
C70	C	1.017491	-0.248870	-0.922468
H71	H	1.046608	-0.174156	-0.828159
H72	H	0.982388	-0.201140	-0.807208
H73	H	1.044825	-0.234881	-0.773948
H74	H	0.995953	-0.225770	-0.973633
H75	H	1.058393	-0.259503	-0.940386
H76	H	0.805244	-0.407591	-0.936644
O77	O	0.781598	-0.715836	-0.635143
C78	C	0.741512	-0.677233	-0.694045
H79	H	0.766999	-0.630626	-0.697690
H80	H	0.696648	-0.667365	-0.655707
C81	C	0.692594	-0.768594	-0.800775
C82	C	0.723900	-0.711353	-0.805260
H83	H	0.681728	-0.789642	-0.869377
H84	H	0.719599	-0.794603	-0.761090
H85	H	0.655212	-0.760363	-0.768822
H86	H	0.761286	-0.719586	-0.837200
H87	H	0.696901	-0.685347	-0.844954
O88	O	0.225682	-0.272587	-0.635460
C89	C	0.178077	-0.241630	-0.694575
H90	H	0.134478	-0.236153	-0.651791
H91	H	0.165029	-0.270801	-0.773871
C92	C	0.256147	-0.182536	-0.762373
C93	C	0.202599	-0.175803	-0.709820
H94	H	0.271273	-0.141932	-0.771782
H95	H	0.288219	-0.203393	-0.722550
H96	H	0.245266	-0.206847	-0.828448
H97	H	0.213482	-0.151499	-0.643742
H98	H	0.170529	-0.154940	-0.749633
H99	H	0.788856	-0.991538	-0.624635
H100	H	0.622252	-0.278117	-0.624875
O101	O	0.646796	-0.410901	-0.371455
C102	C	0.710776	-0.403384	-0.385821
H103	H	0.717152	-0.357455	-0.420185
H104	H	0.725180	-0.445007	-0.441357
C105	C	0.744766	-0.457401	-0.237866
C106	C	0.752597	-0.400988	-0.280065
H107	H	0.770564	-0.455925	-0.172633
H108	H	0.701661	-0.462468	-0.228189
H109	H	0.756768	-0.492081	-0.284157
H110	H	0.740587	-0.366310	-0.233781
H111	H	0.795701	-0.395915	-0.289732
H112	H	0.239898	-0.405489	-0.381998
H113	H	0.788717	-0.590690	-0.624530
H114	H	0.120626	-0.405511	-0.382011
H115	H	0.953416	-0.572155	-0.382238
O116	O	0.944134	-0.268919	-1.062796
C117	C	1.004854	-0.284702	-1.089359
H118	H	1.000141	-0.314901	-1.168620
H119	H	1.030693	-0.312418	-1.027942
C120	C	1.048435	-0.186618	-0.996924
C121	C	1.042646	-0.223705	-1.094278
H122	H	1.071748	-0.148993	-0.999954
H123	H	1.007527	-0.175985	-0.979024
H124	H	1.069965	-0.209722	-0.945753
H125	H	1.021109	-0.200604	-1.145444
H126	H	1.083551	-0.234333	-1.112186
H127	H	0.953462	-0.691424	-0.382281
O128	O	0.517207	-0.410978	-0.371336
C129	C	0.564812	-0.441956	-0.312258
H130	H	0.611954	-0.415893	-0.308712
H131	H	0.568878	-0.492707	-0.350378
C132	C	0.489737	-0.474453	-0.205375
C133	C	0.547637	-0.442439	-0.201012
H134	H	0.479142	-0.474754	-0.136754
H135	H	0.457664	-0.453585	-0.245179
H136	H	0.493133	-0.516742	-0.237146
H137	H	0.544238	-0.400149	-0.169253
H138	H	0.579709	-0.463300	-0.161199
H139	H	0.830392	-0.382451	-1.108492
O140	O	0.960631	-0.966937	-0.371905
C141	C	0.950883	-0.902958	-0.386216
H142	H	0.899673	-0.896615	-0.420358
H143	H	0.983929	-0.888503	-0.441918
C144	C	1.027670	-0.868957	-0.238553
C145	C	0.964771	-0.861166	-0.280478
H146	H	1.036239	-0.843176	-0.173331
H147	H	1.034239	-0.912061	-0.228913
H148	H	1.055201	-0.856912	-0.284981
H149	H	0.937242	-0.873218	-0.234057
H150	H	0.958198	-0.818063	-0.290108
O151	O	0.960767	-1.096534	-0.371818
C152	C	1.000821	-1.048915	-0.312887
H153	H	0.975301	-1.001796	-0.309217
H154	H	1.045682	-1.044795	-0.351217
C155	C	1.049794	-1.123989	-0.206201
C156	C	1.018447	-1.066117	-0.201687
H157	H	1.060669	-1.134600	-0.137609
H158	H	1.022811	-1.156071	-0.245907
H159	H	1.087174	-1.120548	-0.238147
H160	H	0.981064	-1.069561	-0.169753
H161	H	1.045425	-1.034036	-0.161973
H162	H	0.102146	-0.278168	-0.624923
O163	O	0.781795	-1.116863	-0.635072
C164	C	0.791561	-1.180845	-0.620798
H165	H	0.818377	-1.183682	-0.540188
H166	H	0.820323	-1.204185	-0.682834
C167	C	0.694217	-1.211890	-0.729301
C168	C	0.727148	-1.215374	-0.630292
H169	H	0.654485	-1.233190	-0.735162
H170	H	0.687638	-1.168784	-0.738922
H171	H	0.718192	-1.231339	-0.780988
H172	H	0.703177	-1.195918	-0.578608
H173	H	0.733722	-1.258477	-0.620663
