data_functionalizedCrystal
_audit_creation_method	'MofGen! by Chris Wilmer'
_symmetry_space_group_name_H-M	'P1'
_symmetry_Int_Tables_number	1
_symmetry_cell_setting	triclinic
loop_
_symmetry_equiv_pos_as_xyz
  x,y,z
_cell_length_a	14.971506
_cell_length_b	14.048226
_cell_length_c	10.654550
_cell_angle_alpha	90.006260
_cell_angle_beta	84.053659
_cell_angle_gamma	90.006763
loop_
_atom_site_label
_atom_site_type_symbol
_atom_site_fract_x
_atom_site_fract_y
_atom_site_fract_z
O1	O	1.187827	0.079167	0.163780
O2	O	0.927536	0.079167	0.183352
O3	O	1.063666	0.079161	-0.009237
O4	O	1.051697	0.079173	0.356369
O5	O	1.063649	-0.079160	-0.009248
O6	O	0.927519	-0.079154	0.183340
O7	O	1.187810	-0.079154	0.163769
Zn8	Zn	1.057662	-0.104291	0.173553
Zn9	Zn	1.057684	0.104304	0.173568
O10	O	1.051680	-0.079148	0.356357
C11	C	0.894198	0.000007	0.182466
C12	C	0.794888	0.000007	0.179830
C13	C	0.357166	0.000020	0.282910
C14	C	0.450480	0.000024	0.285378
C15	C	0.507084	0.000016	0.172224
C16	C	0.470370	0.000014	0.056596
C17	C	0.377058	0.000016	0.054130
C18	C	0.664861	0.000006	0.061744
C19	C	0.758180	0.000002	0.064210
C20	C	0.738283	0.000014	0.292992
C21	C	0.644971	0.000016	0.290526
C22	C	0.608264	0.000012	0.174897
N23	N	1.057654	-0.246652	0.173542
C24	C	1.117952	-0.296472	0.088299
C25	C	1.117958	-0.396130	0.088298
C26	C	1.057670	-0.445965	0.173547
C27	C	0.997365	-0.396137	0.258794
C28	C	0.997356	-0.296482	0.258788
C29	C	0.997391	-0.603852	0.258804
C30	C	0.997402	-0.703514	0.258812
C31	C	1.117993	-0.703500	0.088313
C32	C	1.117984	-0.603844	0.088307
C33	C	1.057680	-0.554023	0.173556
C34	C	1.221148	0.000008	0.164654
C35	C	1.320458	0.000015	0.167291
C36	C	1.062779	0.000001	-0.056031
C37	C	1.060150	0.000003	-0.195447
N38	N	1.057700	0.246665	0.173569
C39	C	1.140301	0.000003	-0.275784
C40	C	1.137825	0.000014	-0.406778
C41	C	0.975039	0.000022	-0.377085
C42	C	0.977516	0.000017	-0.246093
C43	C	1.052567	0.000014	0.403152
C44	C	1.055197	0.000019	0.542567
H45	H	0.804265	0.000003	-0.027929
H46	H	0.347173	0.000014	-0.040019
H47	H	0.907762	0.000031	-0.418339
H48	H	0.516465	0.000013	-0.035535
O49	O	0.485990	-0.000018	0.397800
C50	C	0.456407	0.000041	0.624459
C51	C	0.416075	0.000065	0.497224
H52	H	0.399901	0.000129	0.704877
H53	H	0.499558	-0.066231	0.631413
H54	H	0.499633	0.066283	0.631274
H55	H	0.372809	-0.066132	0.490324
H56	H	0.372977	0.066382	0.490324
H57	H	0.912243	0.000019	-0.180679
H58	H	1.203092	0.000017	-0.472185
H59	H	0.948283	-0.563291	0.328218
O60	O	0.773821	0.000155	0.405400
C61	C	0.785393	0.082224	0.601666
C62	C	0.745071	0.082174	0.474424
H63	H	0.762180	0.148539	0.657497
H64	H	0.762106	0.016015	0.657673
H65	H	0.861807	0.082182	0.583983
H66	H	0.668655	0.082249	0.491992
H67	H	0.768429	0.148377	0.418458
H68	H	0.311085	0.000019	0.375053
O69	O	0.938752	-0.248230	0.341718
C70	C	0.819107	-0.258755	0.510779
C71	C	0.885447	-0.313516	0.416952
H72	H	0.775980	-0.311515	0.571612
H73	H	0.858057	-0.212106	0.573696
H74	H	0.774128	-0.212092	0.456420
H75	H	0.930442	-0.360231	0.471208
H76	H	0.846441	-0.360105	0.354036
O77	O	0.938763	-0.444651	0.341432
C78	C	0.816757	-0.557154	0.367871
C79	C	0.883085	-0.502290	0.274142
H80	H	0.771711	-0.603752	0.313504
H81	H	0.855716	-0.603855	0.430689
H82	H	0.773696	-0.504409	0.428821
H83	H	0.926162	-0.554966	0.213109
H84	H	0.844071	-0.455574	0.211411
H85	H	1.207586	-0.000007	-0.234552
O86	O	0.629307	0.000129	-0.050653
C87	C	0.617719	0.082162	-0.246915
C88	C	0.658062	0.082136	-0.119689
H89	H	0.640937	0.148468	-0.302755
H90	H	0.640985	0.015944	-0.302925
H91	H	0.541306	0.082120	-0.229209
H92	H	0.734477	0.082211	-0.137280
H93	H	0.634726	0.148348	-0.063719
H94	H	1.167094	-0.744070	0.018901
O95	O	1.176550	-0.248214	0.005365
C96	C	1.296193	-0.258730	-0.163700
C97	C	1.229865	-0.313497	-0.069860
H98	H	1.339328	-0.311487	-0.224526
H99	H	1.257232	-0.212117	-0.226622
H100	H	1.341165	-0.212031	-0.109351
H101	H	1.184876	-0.360248	-0.124106
H102	H	1.268881	-0.360050	-0.006939
H103	H	0.598886	0.000017	0.382666
O104	O	1.176413	-0.444563	0.005371
C105	C	1.194430	-0.557125	-0.166053
C106	C	1.128126	-0.502321	-0.072224
H107	H	1.155416	-0.603850	-0.228795
H108	H	1.237506	-0.504425	-0.227063
H109	H	1.239464	-0.603722	-0.111693
H110	H	1.083033	-0.455723	-0.126482
H111	H	1.085112	-0.555072	-0.011214
H112	H	1.167079	-0.563269	0.018897
H113	H	0.948308	-0.744085	0.328229
