data_functionalizedCrystal
_audit_creation_method	'MofGen! by Chris Wilmer'
_symmetry_space_group_name_H-M	'P1'
_symmetry_Int_Tables_number	1
_symmetry_cell_setting	triclinic
loop_
_symmetry_equiv_pos_as_xyz
  x,y,z
_cell_length_a	19.188930
_cell_length_b	11.026607
_cell_length_c	10.065875
_cell_angle_alpha	100.731764
_cell_angle_beta	81.269268
_cell_angle_gamma	95.865398
loop_
_atom_site_label
_atom_site_type_symbol
_atom_site_fract_x
_atom_site_fract_y
_atom_site_fract_z
O1	O	0.953440	0.133450	-0.113942
O2	O	1.453440	0.633450	0.386058
O3	O	0.752719	0.153846	-0.113849
O4	O	1.252719	0.653846	0.386151
O5	O	0.836444	-0.032915	-0.113883
O6	O	1.336444	0.467085	0.386117
O7	O	0.869715	0.320211	-0.113908
O8	O	1.369715	0.820211	0.386092
O9	O	0.820496	0.002841	0.113113
O10	O	1.320496	0.502841	0.613113
O11	O	0.736772	0.189601	0.113146
O12	O	1.236772	0.689601	0.613146
O13	O	0.937493	0.169205	0.113053
O14	O	1.437493	0.669205	0.613053
Zn15	Zn	0.834600	0.185080	0.149140
Zn16	Zn	1.334600	0.685080	0.649140
Zn17	Zn	0.855611	0.137971	-0.149936
Zn18	Zn	1.355611	0.637971	0.350064
O19	O	0.853768	0.355966	0.113087
O20	O	1.353768	0.855966	0.613087
C21	C	0.822332	-0.060215	-0.000384
C22	C	1.322332	0.439785	0.499616
C23	C	0.804035	-0.194832	-0.000380
C24	C	1.304035	0.305168	0.499620
C25	C	0.718650	0.171065	-0.000339
C26	C	1.218650	0.671065	0.499661
C27	C	0.640890	0.169090	-0.000303
C28	C	1.140890	0.669090	0.499697
C29	C	0.854557	-0.268909	-0.000406
C30	C	1.354557	0.231091	0.499594
C31	C	0.835648	-0.408043	-0.000402
C32	C	1.335648	0.091957	0.499598
C33	C	0.609934	0.278667	-0.000333
C34	C	1.109934	0.778667	0.499667
C35	C	0.536874	0.276803	-0.000347
C36	C	1.036874	0.776803	0.499653
C37	C	0.494775	0.165352	-0.000360
C38	C	0.994775	0.665352	0.499640
C39	C	0.525739	0.055761	-0.000323
C40	C	1.025739	0.555761	0.499677
C41	C	0.598796	0.057630	-0.000295
C42	C	1.098796	0.557630	0.499705
N43	N	0.381369	0.067986	-0.077666
N44	N	0.881369	0.567986	0.422334
N45	N	0.311967	0.066217	-0.077696
N46	N	0.811967	0.566217	0.422304
C47	C	0.274655	0.159714	-0.000444
C48	C	0.774655	0.659714	0.499556
N49	N	0.309368	0.255063	0.076823
N50	N	0.809368	0.755063	0.576823
N51	N	0.378776	0.256834	0.076847
N52	N	0.878776	0.756834	0.576847
C53	C	0.415555	0.163313	-0.000391
C54	C	0.915555	0.663313	0.499609
C55	C	0.164479	0.267279	-0.000487
C56	C	0.664479	0.767279	0.499513
C57	C	0.091417	0.265412	-0.000493
C58	C	0.591417	0.765412	0.499507
C59	C	0.080284	0.044364	-0.000483
C60	C	0.580284	0.544364	0.499517
C61	C	0.153344	0.046237	-0.000463
C62	C	0.653344	0.546237	0.499537
C63	C	0.195438	0.157696	-0.000471
C64	C	0.695438	0.657696	0.499529
C65	C	0.971562	0.151985	-0.000459
C66	C	1.471562	0.651985	0.499541
C67	C	1.049322	0.153960	-0.000504
C68	C	1.549322	0.653960	0.499496
C69	C	0.867880	0.383266	-0.000415
C70	C	1.367880	0.883266	0.499585
C71	C	0.886177	0.517881	-0.000427
C72	C	1.386177	1.017881	0.499573
N73	N	0.820266	0.217230	0.353252
N74	N	1.320266	0.717230	0.853252
N75	N	0.869950	0.105812	-0.354047
N76	N	1.369950	0.605812	0.145953
C77	C	0.850619	0.149149	0.421018
C78	C	1.350619	0.649149	0.921018
C79	C	0.839593	0.173902	0.578190
C80	C	1.339593	0.673902	1.078190
H81	H	0.778391	-0.447622	-0.000384
H82	H	1.278391	0.052378	0.499616
N83	N	0.958005	-0.432465	-0.000468
N84	N	1.458005	0.067535	0.499532
N85	N	0.973266	-0.319513	-0.000475
N86	N	1.473266	0.180487	0.499525
H87	H	1.023993	-0.284442	-0.000503
H88	H	1.523993	0.215558	0.499497
N89	N	0.037301	-0.069492	-0.000480
N90	N	0.537301	0.430508	0.499520
N91	N	0.034995	-0.128209	0.095214
N92	N	0.534995	0.371791	0.595214
H93	H	0.004636	-0.208625	0.095223
H94	H	0.504636	0.291375	0.595223
N95	N	0.732214	-0.244498	-0.000364
N96	N	1.232214	0.255502	0.499636
N97	N	0.716955	-0.357451	-0.000368
N98	N	1.216955	0.142549	0.499632
H99	H	0.666230	-0.392528	-0.000358
H100	H	1.166230	0.107472	0.499642
H101	H	0.644203	0.369426	-0.000342
H102	H	1.144203	0.869426	0.499658
H103	H	0.805439	0.250514	0.636525
H104	H	1.305439	0.750514	1.136525
N105	N	0.505253	0.388751	-0.000370
N106	N	1.005253	0.888751	0.499630
N107	N	0.542844	0.488257	-0.000370
N108	N	1.042844	0.988257	0.499630
H109	H	0.520515	0.567322	-0.000386
H110	H	1.020515	1.067322	0.499614
H111	H	0.624000	-0.031604	-0.000272
H112	H	1.124000	0.468396	0.499728
H113	H	0.198752	0.358039	-0.000474
H114	H	0.698752	0.858039	0.499526
N115	N	0.184958	-0.065707	-0.000437
N116	N	0.684958	0.434293	0.499563
N117	N	0.147364	-0.165211	-0.000443
N118	N	0.647364	0.334789	0.499557
H119	H	0.169690	-0.244277	-0.000420
H120	H	0.669690	0.255723	0.499580
H121	H	0.066214	0.354648	-0.000509
H122	H	0.566214	0.854648	0.499491
N123	N	0.893451	0.053034	0.347823
N124	N	1.393451	0.553034	0.847823
N125	N	0.902344	0.033058	0.220250
N126	N	1.402344	0.533058	0.720250
H127	H	0.932594	-0.034826	0.168556
H128	H	1.432594	0.465174	0.668556
H129	H	0.904098	0.029191	0.587618
H130	H	1.404098	0.529191	1.087618
N131	N	0.926388	-0.219290	-0.000446
N132	N	1.426388	0.280710	0.499554
N133	N	0.972559	-0.258305	-0.096147
N134	N	1.472559	0.241695	0.403853
H135	H	1.023292	-0.223267	-0.096176
H136	H	1.523292	0.276733	0.403824
H137	H	0.786114	0.293837	0.411591
H138	H	1.286114	0.793837	0.911591
H139	H	0.491458	-0.034986	-0.000353
H140	H	0.991458	0.465014	0.499647
