data_functionalizedCrystal
_audit_creation_method	'MofGen! by Chris Wilmer'
_symmetry_space_group_name_H-M	'P1'
_symmetry_Int_Tables_number	1
_symmetry_cell_setting	triclinic
loop_
_symmetry_equiv_pos_as_xyz
  x,y,z
_cell_length_a	17.038272
_cell_length_b	10.967926
_cell_length_c	10.065875
_cell_angle_alpha	93.120479
_cell_angle_beta	99.426590
_cell_angle_gamma	87.839574
loop_
_atom_site_label
_atom_site_type_symbol
_atom_site_fract_x
_atom_site_fract_y
_atom_site_fract_z
O1	O	0.136749	1.626878	0.269136
O2	O	0.636749	2.126878	0.769136
O3	O	0.138988	1.277063	0.186859
O4	O	0.638988	1.777063	0.686859
O5	O	0.023993	1.449890	0.227519
O6	O	0.523993	1.949890	0.727519
O7	O	0.251744	1.454051	0.228476
O8	O	0.751744	1.954051	0.728476
O9	O	0.046013	1.416943	0.446756
O10	O	0.546013	1.916943	0.946756
O11	O	0.161008	1.244116	0.406097
O12	O	0.661008	1.744116	0.906097
O13	O	0.158769	1.593931	0.488374
O14	O	0.658769	2.093931	0.988374
Zn15	Zn	0.163385	1.413793	0.482044
Zn16	Zn	0.663385	1.913793	0.982044
Zn17	Zn	0.134372	1.457201	0.193189
Zn18	Zn	0.634372	1.957201	0.693189
O19	O	0.273764	1.421104	0.447714
O20	O	0.773764	1.921104	0.947714
C21	C	0.148171	1.215609	0.285898
C22	C	0.648171	1.715609	0.785898
C23	C	0.142719	1.081581	0.254375
C24	C	0.642719	1.581581	0.754375
C25	C	0.151695	1.004760	0.353893
C26	C	0.651695	1.504760	0.853893
C27	C	0.146059	0.866235	0.321314
C28	C	0.646059	1.366235	0.821314
C29	C	0.005764	1.429634	0.336248
C30	C	0.505764	1.929634	0.836248
C31	C	-0.081360	1.418351	0.333594
C32	C	0.418640	1.918351	0.833594
C33	C	-0.128434	1.521945	0.357961
C34	C	0.371566	2.021945	0.857961
C35	C	-0.210297	1.511337	0.355453
C36	C	0.289703	2.011337	0.855453
C37	C	-0.245084	1.397135	0.328587
C38	C	0.254916	1.897135	0.828587
C39	C	-0.198004	1.293534	0.304215
C40	C	0.301996	1.793534	0.804215
C41	C	-0.116143	1.304144	0.306714
C42	C	0.383857	1.804144	0.806714
C43	C	-0.491944	1.359654	0.319753
C44	C	0.008056	1.859654	0.819753
C45	C	-0.573810	1.349051	0.317260
C46	C	-0.073810	1.849051	0.817260
C47	C	-0.586098	1.566856	0.368496
C48	C	-0.086098	2.066856	0.868496
C49	C	-0.504235	1.577454	0.371000
C50	C	-0.004235	2.077454	0.871000
C51	C	-0.457163	1.473855	0.346621
C52	C	0.042837	1.973855	0.846621
C53	C	-0.328761	1.386289	0.326028
C54	C	0.171239	1.886289	0.826028
C55	C	-0.373488	1.484703	0.349171
C56	C	0.126512	1.984703	0.849171
C57	C	0.291993	1.441360	0.338982
C58	C	0.791993	1.941360	0.838982
C59	C	0.379116	1.452644	0.341627
C60	C	0.879116	1.952644	0.841627
C61	C	0.149585	1.655385	0.389331
C62	C	0.649585	2.155385	0.889331
C63	C	0.155037	1.789414	0.420846
C64	C	0.655037	2.289414	0.920846
N65	N	0.183185	1.384177	0.679182
N66	N	0.683185	1.884177	1.179182
N67	N	0.114566	1.486826	-0.003947
N68	N	0.614566	1.986826	0.496053
C69	C	0.141256	1.446889	0.761714
C70	C	0.641256	1.946889	1.261714
C71	C	0.156501	1.424105	0.913522
C72	C	0.656501	1.924105	1.413522
H73	H	0.163547	1.041545	0.463212
H74	H	0.663547	1.541545	0.963212
H75	H	0.203684	1.353538	0.955241
H76	H	0.703684	1.853538	1.455241
H77	H	0.134200	0.829456	0.211988
H78	H	0.634200	1.329456	0.711988
Cl79	Cl	0.173334	0.846187	0.589641
Cl80	Cl	0.673334	1.346187	1.089641
H81	H	0.130860	1.044797	0.145056
H82	H	0.630860	1.544797	0.645056
Cl83	Cl	0.068224	1.555537	0.697234
Cl84	Cl	0.568224	2.055537	1.197234
H85	H	0.067377	1.557384	0.954332
H86	H	0.567377	2.057384	1.454332
H87	H	-0.357093	1.293304	0.304157
H88	H	0.142907	1.793304	0.804157
H89	H	-0.453627	1.275295	0.299902
H90	H	0.046373	1.775295	0.799902
Cl91	Cl	-0.617539	1.205470	0.283492
Cl92	Cl	-0.117539	1.705470	0.783492
Cl93	Cl	0.256029	1.275232	0.743592
Cl94	Cl	0.756029	1.775232	1.243592
H95	H	-0.100117	1.614939	0.379845
H96	H	0.399883	2.114939	0.879845
H97	H	-0.226334	1.200549	0.282332
H98	H	0.273666	1.700549	0.782332
H99	H	-0.077816	1.219787	0.286871
H100	H	0.422184	1.719787	0.786871
Cl101	Cl	-0.269473	1.641575	0.386091
Cl102	Cl	0.230527	2.141575	0.886091
H103	H	-0.624433	1.651201	0.388342
H104	H	-0.124433	2.151201	0.888342
Cl105	Cl	-0.329756	1.628268	0.382937
Cl106	Cl	0.170244	2.128268	0.882937
Cl107	Cl	-0.460514	1.721036	0.404732
Cl108	Cl	0.039486	2.221036	0.904732
