data_functionalizedCrystal
_audit_creation_method	'MofGen! by Chris Wilmer'
_symmetry_space_group_name_H-M	'P1'
_symmetry_Int_Tables_number	1
_symmetry_cell_setting	triclinic
loop_
_symmetry_equiv_pos_as_xyz
  x,y,z
_cell_length_a	16.120530
_cell_length_b	10.686285
_cell_length_c	10.686551
_cell_angle_alpha	99.084519
_cell_angle_beta	82.496591
_cell_angle_gamma	97.480717
loop_
_atom_site_label
_atom_site_type_symbol
_atom_site_fract_x
_atom_site_fract_y
_atom_site_fract_z
Zn1	Zn	1.341629	0.545926	-0.774571
Zn2	Zn	1.674963	0.879259	-0.441237
Zn3	Zn	2.008296	1.212593	-0.107904
Zn4	Zn	1.341561	0.774501	-0.546064
Zn5	Zn	1.674895	1.107834	-0.212730
Zn6	Zn	2.008228	1.441168	0.120603
Zn7	Zn	1.191183	0.551541	-0.551616
Zn8	Zn	1.524517	0.884875	-0.218283
Zn9	Zn	1.857850	1.218208	0.115050
Zn10	Zn	1.211200	0.748813	-0.748982
Zn11	Zn	1.544534	1.082147	-0.415648
Zn12	Zn	1.877867	1.415480	-0.082315
O13	O	1.271394	0.655195	-0.655308
O14	O	1.604727	0.988529	-0.321975
O15	O	1.938060	1.321862	0.011359
O16	O	1.459139	0.584647	-0.752644
O17	O	1.792472	0.917981	-0.419311
O18	O	2.125806	1.251314	-0.085977
O19	O	1.313208	0.758025	-0.368571
O20	O	1.646541	1.091359	-0.035238
O21	O	1.979874	1.424692	0.298096
O22	O	1.202791	0.372578	-0.594225
O23	O	1.536125	0.705911	-0.260892
O24	O	1.869458	1.039245	0.072442
O25	O	1.459089	0.752580	-0.584761
O26	O	1.792422	1.085914	-0.251428
O27	O	2.125756	1.419247	0.081906
O28	O	1.313323	0.368452	-0.758028
O29	O	1.646657	0.701786	-0.424695
O30	O	1.979990	1.035119	-0.091362
O31	O	1.202726	0.594218	-0.372651
O32	O	1.536059	0.927551	-0.039317
O33	O	1.869392	1.260884	0.294016
O34	O	1.076320	0.569310	-0.569412
O35	O	1.409653	0.902643	-0.236079
O36	O	1.742987	1.235976	0.097255
O37	O	1.236908	0.708800	-0.930605
O38	O	1.570241	1.042133	-0.597272
O39	O	1.903574	1.375466	-0.263938
O40	O	1.091026	0.714245	-0.714415
O41	O	1.424360	1.047578	-0.381082
O42	O	1.757693	1.380911	-0.047749
O43	O	1.332733	0.559739	-0.949405
O44	O	1.666067	0.893072	-0.616072
O45	O	1.999400	1.226406	-0.282739
O46	O	1.332618	0.949312	-0.559948
O47	O	1.665951	1.282645	-0.226615
O48	O	1.999284	1.615979	0.106719
O49	O	1.236842	0.930440	-0.709031
O50	O	1.570175	1.263773	-0.375698
O51	O	1.903509	1.597106	-0.042364
C52	C	1.286919	0.986085	-0.631140
C53	C	1.620252	1.319419	-0.297806
C54	C	1.953585	1.652752	0.035527
C55	C	1.293639	1.127644	-0.620848
C56	C	1.626972	1.460977	-0.287515
C57	C	1.960306	1.794311	0.045818
C58	C	1.053202	0.639600	-0.639740
C59	C	1.386535	0.972933	-0.306407
C60	C	1.719869	1.306266	0.026926
C61	C	0.959862	0.632956	-0.633108
C62	C	1.293195	0.966290	-0.299775
C63	C	1.626528	1.299623	0.033559
C64	C	1.287061	0.630778	-0.987510
C65	C	1.620394	0.964111	-0.654177
C66	C	1.953728	1.297444	-0.320844
C67	C	1.293737	0.620372	-1.129075
C68	C	1.627071	0.953705	-0.795742
C69	C	1.960404	1.287039	-0.462408
C70	C	0.788967	0.620797	-0.621013
C71	C	1.122301	0.954130	-0.287680
C72	C	1.455634	1.287463	0.045654
C73	C	0.754669	0.689681	-0.689689
C74	C	1.088002	1.023015	-0.356356
C75	C	1.421336	1.356348	-0.023023
C76	C	0.659578	0.682916	-0.682960
C77	C	0.992911	1.016249	-0.349626
C78	C	1.326244	1.349582	-0.016293
C79	C	0.884067	0.627561	-0.627741
C80	C	1.217400	0.960894	-0.294408
C81	C	1.550734	1.294228	0.038925
C82	C	1.490437	0.670853	-0.670937
C83	C	1.823771	1.004186	-0.337604
C84	C	2.157104	1.337520	-0.004271
C85	C	1.583781	0.677525	-0.677598
C86	C	1.917114	1.010858	-0.344264
C87	C	2.250447	1.344192	-0.010931
C88	C	1.255832	0.323013	-0.679600
C89	C	1.589165	0.656346	-0.346267
C90	C	1.922499	0.989680	-0.012934
C91	C	1.249201	0.181457	-0.689952
C92	C	1.582534	0.514790	-0.356619
C93	C	1.915867	0.848123	-0.023286
C94	C	1.255831	0.679430	-0.324409
C95	C	1.589164	1.012763	0.008925
C96	C	1.922498	1.346097	0.342258
C97	C	1.249300	0.689488	-0.182882
C98	C	1.582634	1.022821	0.150451
C99	C	1.915967	1.356155	0.483784
H100	H	0.796721	0.753735	-0.753541
H101	H	1.130054	1.087068	-0.420208
H102	H	1.463388	1.420401	-0.086875
H103	H	1.206015	1.119233	-0.756991
H104	H	1.539348	1.452566	-0.423657
H105	H	1.872681	1.785899	-0.090324
N106	N	1.350909	0.531446	-1.211505
N107	N	1.684243	0.864780	-0.878172
N108	N	2.017576	1.198113	-0.544839
H109	H	1.347740	0.536368	-1.304344
H110	H	1.681073	0.869701	-0.971010
H111	H	2.014406	1.203034	-0.637677
H112	H	1.332497	0.441240	-1.194042
H113	H	1.665830	0.774573	-0.860709
H114	H	1.999163	1.107906	-0.527376
H115	H	0.746918	0.556748	-0.557167
H116	H	1.080251	0.890081	-0.223834
H117	H	1.413585	1.223414	0.109500
H118	H	1.336822	1.189876	-0.553797
H119	H	1.670155	1.523210	-0.220464
H120	H	2.003489	1.856543	0.112869
H121	H	1.206151	0.756626	-1.120648
H122	H	1.539484	1.089959	-0.787314
H123	H	1.872818	1.423292	-0.453981
