data_functionalizedCrystal
_audit_creation_method	'MofGen! by Chris Wilmer'
_symmetry_space_group_name_H-M	'P1'
_symmetry_Int_Tables_number	1
_symmetry_cell_setting	triclinic
loop_
_symmetry_equiv_pos_as_xyz
  x,y,z
_cell_length_a	12.759401
_cell_length_b	18.215404
_cell_length_c	18.215399
_cell_angle_alpha	90.027515
_cell_angle_beta	89.982118
_cell_angle_gamma	89.974652
loop_
_atom_site_label
_atom_site_type_symbol
_atom_site_fract_x
_atom_site_fract_y
_atom_site_fract_z
Zn1	Zn	1.606168	0.292962	-0.416080
Zn2	Zn	1.606041	0.416033	-0.293014
Zn3	Zn	1.430476	0.292988	-0.293031
Zn4	Zn	1.430431	0.415995	-0.416044
O5	O	1.518279	0.354494	-0.354542
O6	O	1.753172	0.309293	-0.399763
O7	O	1.582717	0.399738	-0.190032
O8	O	1.453854	0.190001	-0.309376
O9	O	1.753078	0.399713	-0.309347
O10	O	1.582935	0.189981	-0.399779
O11	O	1.453731	0.309338	-0.190045
O12	O	1.283449	0.309300	-0.309341
O13	O	1.453777	0.399647	-0.519033
O14	O	1.283416	0.399672	-0.399718
O15	O	1.582890	0.309255	-0.519059
O16	O	1.582673	0.519012	-0.309312
O17	O	1.453653	0.518984	-0.399701
C18	C	1.245312	0.354485	-0.354528
C19	C	1.128535	0.354499	-0.354539
C20	C	1.518173	0.545701	-0.354517
C21	C	1.518224	0.627500	-0.354531
C22	C	1.518343	0.354444	-0.546495
C23	C	1.518370	0.354422	-0.628294
C24	C	1.073683	0.401628	-0.401524
C25	C	0.963959	0.401631	-0.401538
C26	C	0.963948	0.307375	-0.307577
C27	C	1.073670	0.307369	-0.307566
C28	C	0.814050	0.428046	-0.488298
C29	C	0.759195	0.475186	-0.535277
C30	C	0.794775	0.547007	-0.546444
C31	C	0.885210	0.571703	-0.510622
C32	C	0.940060	0.524568	-0.463638
C33	C	0.904481	0.452736	-0.452485
C34	C	1.223581	0.280960	-0.220806
C35	C	1.278433	0.233828	-0.173818
C36	C	1.242854	0.162005	-0.162643
C37	C	1.152417	0.137312	-0.198452
C38	C	1.097565	0.184444	-0.245440
C39	C	1.133151	0.256266	-0.256616
C40	C	1.792312	0.354504	-0.354557
C41	C	1.909089	0.354508	-0.354564
C42	C	1.585567	0.815684	-0.307562
C43	C	1.585616	0.892543	-0.307584
C44	C	1.451151	0.892553	-0.401629
C45	C	1.451109	0.815696	-0.401610
C46	C	1.518315	0.777263	-0.354572
C47	C	1.518407	0.930979	-0.354613
C48	C	1.518459	1.014313	-0.354637
C49	C	1.518264	0.693924	-0.354549
C50	C	1.518420	1.162542	-0.354597
C51	C	1.518498	1.080743	-0.354654
C52	C	1.585624	0.307311	-0.816503
C53	C	1.585636	0.307290	-0.893362
C54	C	1.451191	0.401419	-0.893323
C55	C	1.451174	0.401436	-0.816466
C56	C	1.518396	0.354383	-0.778058
C57	C	1.518426	0.354345	-0.931774
C58	C	1.518439	0.354322	-1.015108
C59	C	1.518382	0.354405	-0.694719
C60	C	1.518276	0.354492	-0.163336
C61	C	1.518452	0.354306	-0.081538
H62	H	1.118351	0.440003	-0.439774
H63	H	0.685563	0.455072	-0.564443
H64	H	1.640378	0.268958	-0.924661
H65	H	0.914166	0.630191	-0.519712
H66	H	1.013689	0.544675	-0.434472
H67	H	1.640292	0.784394	-0.269262
Br68	Br	1.359969	0.465276	-0.945453
Br69	Br	1.359840	0.763548	-0.465421
H70	H	1.396422	0.439768	-0.785163
H71	H	1.123436	0.078832	-0.189341
H72	H	1.396433	0.923854	-0.439924
Br73	Br	1.317285	0.098044	-0.098859
H74	H	1.640358	0.268996	-0.785234
H75	H	0.785079	0.369561	-0.479217
Br76	Br	0.720330	0.610980	-0.610204
H77	H	0.919264	0.269004	-0.269332
H78	H	1.252564	0.339442	-0.229907
Br79	Br	0.974819	0.150935	-0.294033
Br80	Br	1.401158	0.267346	-0.125205
Br81	Br	1.676897	0.944683	-0.243785
