data_functionalizedCrystal
_audit_creation_method	'MofGen! by Chris Wilmer'
_symmetry_space_group_name_H-M	'P1'
_symmetry_Int_Tables_number	1
_symmetry_cell_setting	triclinic
loop_
_symmetry_equiv_pos_as_xyz
  x,y,z
_cell_length_a	18.215407
_cell_length_b	21.295417
_cell_length_c	18.215399
_cell_angle_alpha	89.967848
_cell_angle_beta	89.980167
_cell_angle_gamma	90.030955
loop_
_atom_site_label
_atom_site_type_symbol
_atom_site_fract_x
_atom_site_fract_y
_atom_site_fract_z
Zn1	Zn	1.125043	-0.250608	-0.416094
Zn2	Zn	1.625043	0.249392	0.083906
Zn3	Zn	1.124940	-0.355879	-0.293019
Zn4	Zn	1.624940	0.144121	0.206981
Zn5	Zn	1.001976	-0.250629	-0.293042
Zn6	Zn	1.501976	0.249371	0.206958
Zn7	Zn	1.001930	-0.355844	-0.416044
Zn8	Zn	1.501930	0.144156	0.083956
O9	O	1.063472	-0.303240	-0.354550
O10	O	1.563472	0.196760	0.145450
O11	O	1.228014	-0.264579	-0.399780
O12	O	1.728014	0.235421	0.100220
O13	O	1.108604	-0.341941	-0.190038
O14	O	1.608604	0.158059	0.309962
O15	O	1.018364	-0.162537	-0.309396
O16	O	1.518364	0.337463	0.190604
O17	O	1.227938	-0.341921	-0.309357
O18	O	1.727938	0.158079	0.190643
O19	O	1.108781	-0.162521	-0.399802
O20	O	1.608781	0.337479	0.100198
O21	O	1.018263	-0.264614	-0.190054
O22	O	1.518263	0.235386	0.309946
O23	O	0.898985	-0.264580	-0.309347
O24	O	1.398985	0.235420	0.190653
O25	O	1.018285	-0.341861	-0.519035
O26	O	1.518285	0.158139	-0.019035
O27	O	0.898951	-0.341881	-0.399716
O28	O	1.398951	0.158119	0.100284
O29	O	1.108736	-0.264545	-0.519072
O30	O	1.608736	0.235455	-0.019072
O31	O	1.108559	-0.443964	-0.309308
O32	O	1.608559	0.056036	0.190692
O33	O	1.018184	-0.443938	-0.399694
O34	O	1.518184	0.056062	0.100306
C35	C	0.872266	-0.303229	-0.354529
C36	C	1.372266	0.196771	0.145471
C37	C	0.790467	-0.303240	-0.354537
C38	C	1.290467	0.196760	0.145463
C39	C	0.602275	-0.343554	-0.401533
C40	C	1.102275	0.156446	0.098467
C41	C	0.525416	-0.343556	-0.401542
C42	C	1.025416	0.156444	0.098458
C43	C	0.525422	-0.262938	-0.307582
C44	C	1.025422	0.237062	0.192418
C45	C	0.602279	-0.262933	-0.307577
C46	C	1.102279	0.237067	0.192423
C47	C	0.640703	-0.303245	-0.354552
C48	C	1.140703	0.196755	0.145448
C49	C	0.486987	-0.303251	-0.354566
C50	C	0.986987	0.196749	0.145434
C51	C	0.403654	-0.303253	-0.354575
C52	C	0.903654	0.196747	0.145425
C53	C	0.724042	-0.303242	-0.354543
C54	C	1.224042	0.196758	0.145457
C55	C	1.063376	-0.466792	-0.354509
C56	C	1.563376	0.033208	0.145491
C57	C	1.063402	-0.536760	-0.354516
C58	C	1.563402	-0.036760	0.145484
C59	C	1.110502	-0.569619	-0.307500
C60	C	1.610502	-0.069619	0.192500
C61	C	1.110536	-0.635361	-0.307517
C62	C	1.610536	-0.135361	0.192483
C63	C	1.063457	-0.668242	-0.354542
C64	C	1.563457	-0.168242	0.145458
C65	C	1.016354	-0.635375	-0.401566
C66	C	1.516354	-0.135375	0.098434
C67	C	1.016326	-0.569634	-0.401554
C68	C	1.516326	-0.069634	0.098446
N69	N	0.999079	-0.771508	-0.360145
N70	N	1.499079	-0.271508	0.139855
N71	N	0.999107	-0.833960	-0.360153
N72	N	1.499107	-0.333960	0.139847
C73	C	1.063540	-0.866317	-0.354584
C74	C	1.563540	-0.366317	0.145416
N75	N	1.127944	-0.833863	-0.348993
N76	N	1.627944	-0.333863	0.151007
N77	N	1.127915	-0.771406	-0.348981
N78	N	1.627915	-0.271406	0.151019
C79	C	1.063483	-0.739528	-0.354561
C80	C	1.563483	-0.239528	0.145439
C81	C	1.110681	-0.970462	-0.307584
C82	C	1.610681	-0.470462	0.192416
C83	C	1.110717	-1.036205	-0.307605
C84	C	1.610717	-0.536205	0.192395
C85	C	1.016528	-1.036218	-0.401651
C86	C	1.516528	-0.536218	0.098349
C87	C	1.016499	-0.970475	-0.401633
C88	C	1.516499	-0.470475	0.098367
C89	C	1.063575	-0.937601	-0.354595
C90	C	1.563575	-0.437601	0.145405
C91	C	1.255425	-0.303251	-0.354571
C92	C	1.755425	0.196749	0.145429
C93	C	1.337224	-0.303256	-0.354581
C94	C	1.837224	0.196744	0.145419
C95	C	1.063517	-0.303197	-0.546503
C96	C	1.563517	0.196803	-0.046503
C97	C	1.063536	-0.303178	-0.628302
C98	C	1.563536	0.196822	-0.128302
C99	C	1.063589	-0.139050	-0.354607
C100	C	1.563589	0.360950	0.145393
C101	C	1.063639	-0.069082	-0.354631
C102	C	1.563639	0.430918	0.145369
C103	C	1.110651	-0.262882	-0.816516
C104	C	1.610651	0.237118	-0.316516
C105	C	1.110660	-0.262863	-0.893375
C106	C	1.610660	0.237137	-0.393375
C107	C	1.016473	-0.343377	-0.893325
C108	C	1.516473	0.156623	-0.393325
C109	C	1.016461	-0.343392	-0.816468
C110	C	1.516461	0.156608	-0.316468
C111	C	1.063554	-0.303145	-0.778065
C112	C	1.563554	0.196855	-0.278065
C113	C	1.063575	-0.303112	-0.931781
C114	C	1.563575	0.196888	-0.431781
C115	C	1.063584	-0.303093	-1.015115
C116	C	1.563584	0.196907	-0.515115
C117	C	1.063544	-0.303164	-0.694726
C118	C	1.563544	0.196836	-0.194726
C119	C	1.063470	-0.303238	-0.163344
C120	C	1.563470	0.196762	0.336656
C121	C	1.063593	-0.303079	-0.081545
C122	C	1.563593	0.196921	0.418455
H123	H	1.148835	-0.542855	-0.269202
H124	H	1.648835	-0.042855	0.230798
C125	C	0.688753	-0.178240	-0.297526
C126	C	1.188753	0.321760	0.202474
C127	C	0.644525	-0.218621	-0.255931
C128	C	1.144525	0.281379	0.244069
H129	H	0.714830	-0.150882	-0.265643
H130	H	1.214830	0.349118	0.234357
H131	H	0.722632	-0.202245	-0.325496
H132	H	1.222632	0.297755	0.174504
H133	H	0.658787	-0.154199	-0.329639
H134	H	1.158787	0.345801	0.170361
H135	H	0.674492	-0.242666	-0.223821
H136	H	1.174492	0.257334	0.276179
H137	H	0.610642	-0.194614	-0.227948
H138	H	1.110642	0.305386	0.272052
H139	H	0.977971	-0.542879	-0.439840
H140	H	1.477971	-0.042879	0.060160
H141	H	0.494130	-0.376379	-0.439801
H142	H	0.994130	0.123621	0.060199
H143	H	0.978133	-0.376146	-0.924602
H144	H	1.478133	0.123854	-0.424602
C145	C	0.923258	-0.628786	-0.494527
C146	C	1.423258	-0.128786	0.005473
C147	C	0.964605	-0.671515	-0.453259
C148	C	1.464605	-0.171515	0.046741
H149	H	0.891315	-0.651098	-0.526446
H150	H	1.391315	-0.151098	-0.026446
H151	H	0.895115	-0.603187	-0.462434
H152	H	1.395115	-0.103187	0.037566
H153	H	0.955305	-0.603101	-0.522699
H154	H	1.455305	-0.103101	-0.022699
H155	H	0.932558	-0.697196	-0.425083
H156	H	1.432558	-0.197196	0.074917
H157	H	0.992750	-0.697124	-0.485356
H158	H	1.492750	-0.197124	0.014644
H159	H	0.494127	-0.230118	-0.269336
H160	H	0.994127	0.269882	0.230664
H161	H	1.149009	-0.230076	-0.924678
H162	H	1.649009	0.269924	-0.424678
H163	H	1.149015	-0.943694	-0.269285
H164	H	1.649015	-0.443694	0.230715
C165	C	1.203619	-0.628752	-0.214540
C166	C	1.703619	-0.128752	0.285460
C167	C	1.162307	-0.671490	-0.255829
C168	C	1.662307	-0.171490	0.244171
H169	H	1.235575	-0.651057	-0.182627
H170	H	1.735575	-0.151057	0.317373
H171	H	1.231746	-0.603073	-0.246620
H172	H	1.731746	-0.103073	0.253380
H173	H	1.171550	-0.603150	-0.186361
H174	H	1.671550	-0.103150	0.313639
H175	H	1.194375	-0.697090	-0.284011
H176	H	1.694375	-0.197090	0.215989
H177	H	1.134177	-0.697181	-0.223744
H178	H	1.634177	-0.197181	0.276256
C179	C	1.203800	-1.029585	-0.214632
C180	C	1.703800	-0.529585	0.285368
C181	C	1.162493	-1.072327	-0.255920
C182	C	1.662493	-0.572327	0.244080
H183	H	1.235761	-1.051887	-0.182720
H184	H	1.735761	-0.551887	0.317280
H185	H	1.231923	-1.003902	-0.246712
H186	H	1.731923	-0.503902	0.253288
H187	H	1.171729	-1.003987	-0.186451
H188	H	1.671729	-0.503987	0.313549
H189	H	1.194564	-1.097923	-0.284105
H190	H	1.694564	-0.597923	0.215895
H191	H	1.134368	-1.098021	-0.223835
H192	H	1.634368	-0.598021	0.276165
H193	H	0.978199	-1.062989	-0.439942
H194	H	1.478199	-0.562989	0.060058
C195	C	0.923395	-0.977093	-0.494582
C196	C	1.423395	-0.477093	0.005418
C197	C	0.964715	-0.934352	-0.453305
C198	C	1.464715	-0.434352	0.046695
H199	H	0.891422	-0.954791	-0.526480
H200	H	1.391422	-0.454791	-0.026480
H201	H	0.955453	-1.002689	-0.522769
H202	H	1.455453	-0.502689	-0.022769
H203	H	0.895279	-1.002780	-0.462488
H204	H	1.395279	-0.502780	0.037512
H205	H	0.992835	-0.908669	-0.485399
H206	H	1.492835	-0.408669	0.014601
H207	H	0.932653	-0.908746	-0.425116
H208	H	1.432653	-0.408746	0.074884
H209	H	1.148995	-0.230109	-0.785251
H210	H	1.648995	0.269891	-0.285251
C211	C	0.980540	-0.449993	-0.792744
C212	C	1.480540	0.050007	-0.292744
C213	C	0.964692	-0.387654	-0.774194
C214	C	1.464692	0.112346	-0.274194
H215	H	0.948583	-0.477315	-0.766642
H216	H	1.448583	0.022685	-0.266642
H217	H	0.973803	-0.455743	-0.844006
H218	H	1.473803	0.044257	-0.344006
H219	H	1.029981	-0.459200	-0.780152
H220	H	1.529981	0.040800	-0.280152
H221	H	0.915252	-0.378446	-0.786792
H222	H	1.415252	0.121554	-0.286792
H223	H	0.971423	-0.381902	-0.722921
H224	H	1.471423	0.118098	-0.222921
C225	C	0.594546	-0.423234	-0.494417
C226	C	1.094546	0.076766	0.005583
C227	C	0.644511	-0.387857	-0.453175
C228	C	1.144511	0.112143	0.046825
H229	H	0.620622	-0.450581	-0.526303
H230	H	1.120622	0.049419	-0.026303
H231	H	0.564546	-0.447282	-0.462305
H232	H	1.064546	0.052718	0.037695
H233	H	0.564593	-0.395831	-0.522622
H234	H	1.064593	0.104169	-0.022622
H235	H	0.674461	-0.415261	-0.424966
H236	H	1.174461	0.084739	0.075034
H237	H	0.674525	-0.363807	-0.485290
H238	H	1.174525	0.136193	0.014710
