data_functionalizedCrystal
_audit_creation_method	'MofGen! by Chris Wilmer'
_symmetry_space_group_name_H-M	'P1'
_symmetry_Int_Tables_number	1
_symmetry_cell_setting	triclinic
loop_
_symmetry_equiv_pos_as_xyz
  x,y,z
_cell_length_a	13.033293
_cell_length_b	16.120484
_cell_length_c	13.032268
_cell_angle_alpha	80.357249
_cell_angle_beta	90.920818
_cell_angle_gamma	100.430752
loop_
_atom_site_label
_atom_site_type_symbol
_atom_site_fract_x
_atom_site_fract_y
_atom_site_fract_z
Zn1	Zn	1.479900	-0.262705	0.795792
Zn2	Zn	1.493069	-0.384050	0.630429
Zn3	Zn	1.330075	-0.258246	0.601725
Zn4	Zn	1.296833	-0.419251	0.782387
O5	O	1.399969	-0.331063	0.702583
O6	O	1.626475	-0.265936	0.791480
O7	O	1.490871	-0.350765	0.481809
O8	O	1.358351	-0.140673	0.621066
O9	O	1.636150	-0.355088	0.669988
O10	O	1.468427	-0.143949	0.763647
O11	O	1.371120	-0.258337	0.460720
O12	O	1.180838	-0.292469	0.608067
O13	O	1.301693	-0.415082	0.928978
O14	O	1.156415	-0.410758	0.740799
O15	O	1.436192	-0.300069	0.938827
O16	O	1.458637	-0.506884	0.656989
O17	O	1.314463	-0.532746	0.768632
C18	C	1.131074	-0.354950	0.669864
C19	C	1.016035	-0.365192	0.655892
C20	C	0.959940	-0.325739	0.709877
C21	C	0.841041	-0.336324	0.695437
C22	C	1.384397	-0.550454	0.714497
C23	C	1.377825	-0.644306	0.719639
C24	C	1.365829	-0.816134	0.729050
C25	C	1.434293	-0.845136	0.676156
C26	C	1.427618	-0.940748	0.681393
C27	C	1.372502	-0.720515	0.723815
C28	C	1.669915	-0.307083	0.735431
C29	C	1.784949	-0.296865	0.749429
C30	C	1.363766	-0.361999	0.972500
C31	C	1.348338	-0.375183	1.087523
C32	C	1.415628	-0.110816	0.690650
C33	C	1.422301	-0.016959	0.685564
C34	C	1.436096	-0.300181	0.433721
C35	C	1.451741	-0.286742	0.318710
C36	C	1.408007	-0.324154	1.143677
C37	C	1.392063	-0.337778	1.262558
H38	H	1.497919	-0.798159	0.626939
H39	H	1.329164	-0.391551	1.302489
H40	H	1.470892	-0.270377	1.103740
N41	N	1.012914	-0.270621	0.785266
H42	H	0.959144	-0.245747	0.819310
H43	H	1.066172	-0.222707	0.746504
N44	N	0.788076	-0.391443	0.620040
H45	H	0.710647	-0.391189	0.620409
H46	H	0.800501	-0.451937	0.641572
N47	N	0.963068	-0.420321	0.580510
H48	H	0.992662	-0.396984	0.508141
H49	H	0.885647	-0.420052	0.580967
N50	N	1.281548	-0.878351	0.794237
H51	H	1.288669	-0.938820	0.788777
H52	H	1.210864	-0.867770	0.768248
H53	H	0.824945	-0.255243	0.806336
H54	H	1.514629	-0.232960	1.278779
N55	N	1.265017	-0.446404	1.140407
H56	H	1.265432	-0.446037	1.217835
H57	H	1.279335	-0.503142	1.126801
