data_functionalizedCrystal
_audit_creation_method	'MofGen! by Chris Wilmer'
_symmetry_space_group_name_H-M	'P1'
_symmetry_Int_Tables_number	1
_symmetry_cell_setting	triclinic
loop_
_symmetry_equiv_pos_as_xyz
  x,y,z
_cell_length_a	17.640280
_cell_length_b	18.050590
_cell_length_c	17.640968
_cell_angle_alpha	101.211534
_cell_angle_beta	114.317439
_cell_angle_gamma	78.792783
loop_
_atom_site_label
_atom_site_type_symbol
_atom_site_fract_x
_atom_site_fract_y
_atom_site_fract_z
Zn1	Zn	-0.234188	1.255744	0.399297
Zn2	Zn	-0.399857	1.255683	0.233658
Zn3	Zn	-0.262037	1.110675	0.261544
Zn4	Zn	-0.371926	1.152423	0.371470
O5	O	-0.317002	1.193631	0.316492
O6	O	-0.256199	1.359662	0.377299
O7	O	-0.404918	1.218950	0.122032
O8	O	-0.143020	1.112473	0.303133
O9	O	-0.377915	1.359617	0.255605
O10	O	-0.122560	1.219054	0.404340
O11	O	-0.303662	1.112414	0.142520
O12	O	-0.276579	1.012287	0.276151
O13	O	-0.330311	1.183626	0.490486
O14	O	-0.357315	1.042959	0.356914
O15	O	-0.229116	1.259535	0.510930
O16	O	-0.511474	1.259431	0.228623
O17	O	-0.490953	1.183567	0.329873
C18	C	-0.316939	1.000676	0.316539
C19	C	-0.316927	0.918135	0.316575
C20	C	-0.531112	1.226046	0.273221
C21	C	-0.622703	1.239985	0.254736
C22	C	-0.361015	0.735389	0.360331
C23	C	-0.281776	0.677662	0.395785
C24	C	-0.316981	0.767005	0.316525
C25	C	-0.396264	0.677657	0.281061
C26	C	-0.317040	0.621022	0.316478
C27	C	-0.237694	0.710365	0.352027
C28	C	-0.352240	0.710367	0.237258
C29	C	-0.272955	0.652650	0.272694
C30	C	-0.316948	0.851103	0.316555
C31	C	-0.317065	0.536925	0.316450
C32	C	-0.870716	1.088087	0.457215
C33	C	-0.956785	1.101183	0.439820
C34	C	-0.978067	1.180256	0.334495
C35	C	-0.891997	1.167170	0.351884
C36	C	-0.838328	1.121084	0.413244
C37	C	-0.859608	1.200167	0.307913
C38	C	-0.773546	1.187079	0.325298
C39	C	-0.719873	1.140993	0.386654
C40	C	-0.752266	1.107996	0.430629
C41	C	-0.913279	1.246248	0.246549
C42	C	-0.880891	1.279245	0.202578
C43	C	-0.794827	1.266161	0.219967
C44	C	-0.741153	1.220076	0.281322
C45	C	-0.762434	1.299159	0.175991
C46	C	-0.676372	1.286070	0.193376
C47	C	-0.655092	1.206988	0.298707
C48	C	-0.102053	1.161113	0.359951
C49	C	-0.010454	1.147256	0.378471
C50	C	-0.273492	1.226244	0.531447
C51	C	-0.254950	1.240142	0.623048
C52	C	-0.317066	1.387340	0.316446
C53	C	-0.317094	1.469887	0.316426
C54	C	-0.360284	1.161179	0.102386
C55	C	-0.378593	1.147390	0.010833
C56	C	-0.457412	1.088269	0.871090
C57	C	-0.439979	1.101342	0.957165
C58	C	-0.334613	1.180380	0.978441
C59	C	-0.352034	1.167310	0.892366
C60	C	-0.413435	1.121255	0.838697
C61	C	-0.308058	1.200296	0.859974
C62	C	-0.325481	1.187231	0.773906
C63	C	-0.386881	1.141180	0.720231
C64	C	-0.430859	1.108190	0.752629
C65	C	-0.246661	1.246356	0.913644
C66	C	-0.202685	1.279342	0.881251
C67	C	-0.220103	1.266272	0.795183
C68	C	-0.281503	1.220221	0.741508
C69	C	-0.176126	1.299262	0.762785
C70	C	-0.193549	1.286197	0.676717
C71	C	-0.298927	1.207156	0.655440
H72	H	-0.398161	0.771172	0.397444
F73	F	-0.224247	0.606043	0.224261
H74	H	-0.232479	1.256994	0.983724
H75	H	-0.611390	1.169467	0.348679
H76	H	-0.649797	1.130332	0.400801
F77	F	-1.004870	1.260200	0.228070
F78	F	-0.364270	1.158131	0.598318
F79	F	-0.150044	0.729389	0.391305
H80	H	-0.401069	1.130546	0.650149
H81	H	-0.463287	0.663014	0.251090
H82	H	-0.708565	1.070475	0.480601
F83	F	-0.486788	1.066228	0.991635
H84	H	-0.507391	1.050746	0.827392
F85	F	-0.269270	1.229396	1.035567
H86	H	-0.650002	1.312939	0.157569
H87	H	-0.251975	0.663018	0.462801
H88	H	-0.480838	1.070666	0.708932
H89	H	-0.924600	1.316765	0.152616
H90	H	-0.126139	1.336766	0.806493
H91	H	-0.152694	1.316842	0.924959
H92	H	-1.021775	1.217776	0.284533
H93	H	-0.806145	1.336675	0.126026
F94	F	-0.391206	0.729514	0.149671
H95	H	-0.157738	1.313056	0.650343
H96	H	-0.827015	1.050566	0.507187
H97	H	-0.983149	1.074319	0.475641
