data_functionalizedCrystal
_audit_creation_method	'MofGen! by Chris Wilmer'
_symmetry_space_group_name_H-M	'P1'
_symmetry_Int_Tables_number	1
_symmetry_cell_setting	triclinic
loop_
_symmetry_equiv_pos_as_xyz
  x,y,z
_cell_length_a	19.188925
_cell_length_b	19.188930
_cell_length_c	9.730217
_cell_angle_alpha	89.991643
_cell_angle_beta	89.997646
_cell_angle_gamma	83.143665
loop_
_atom_site_label
_atom_site_type_symbol
_atom_site_fract_x
_atom_site_fract_y
_atom_site_fract_z
O1	O	0.926144	0.087148	-0.114335
O2	O	1.259478	0.420482	0.218998
O3	O	1.592811	0.753815	0.552332
O4	O	0.722832	0.098887	-0.114333
O5	O	1.056166	0.432220	0.219000
O6	O	1.389499	0.765553	0.552333
O7	O	0.830355	-0.008638	-0.114307
O8	O	1.163689	0.324695	0.219026
O9	O	1.497022	0.658028	0.552359
O10	O	0.818621	0.194673	-0.114361
O11	O	1.151954	0.528006	0.218972
O12	O	1.485288	0.861340	0.552306
O13	O	0.830352	-0.008639	0.114273
O14	O	1.163686	0.324694	0.447606
O15	O	1.497019	0.658027	0.780939
O16	O	0.722829	0.098886	0.114247
O17	O	1.056162	0.432219	0.447580
O18	O	1.389496	0.765552	0.780914
O19	O	0.926141	0.087147	0.114245
O20	O	1.259474	0.420481	0.447579
O21	O	1.592808	0.753814	0.780912
Zn22	Zn	0.824485	0.093016	0.150538
Zn23	Zn	1.157818	0.426350	0.483871
Zn24	Zn	1.491151	0.759683	0.817205
Zn25	Zn	0.824489	0.093018	-0.150626
Zn26	Zn	1.157822	0.426351	0.182707
Zn27	Zn	1.491155	0.759684	0.516041
O28	O	0.818618	0.194672	0.114219
O29	O	1.151951	0.528006	0.447553
O30	O	1.485285	0.861339	0.780886
C31	C	0.696820	0.098507	-0.000043
C32	C	1.030153	0.431840	0.333291
C33	C	1.363486	0.765173	0.666624
C34	C	0.619315	0.097367	-0.000041
C35	C	0.952648	0.430701	0.333293
C36	C	1.285982	0.764034	0.666626
C37	C	0.057545	0.152831	-0.000059
C38	C	0.390878	0.486165	0.333275
C39	C	0.724211	0.819498	0.666608
C40	C	0.130368	0.153908	-0.000066
C41	C	0.463701	0.487241	0.333267
C42	C	0.797035	0.820575	0.666600
C43	C	0.175302	0.090816	-0.000047
C44	C	0.508636	0.424149	0.333286
C45	C	0.841969	0.757482	0.666619
C46	C	0.147408	0.026642	-0.000056
C47	C	0.480742	0.359976	0.333278
C48	C	0.814075	0.693309	0.666611
C49	C	0.074586	0.025568	-0.000062
C50	C	0.407920	0.358901	0.333272
C51	C	0.741253	0.692234	0.666605
N52	N	0.295978	0.045139	0.077775
N53	N	0.629312	0.378473	0.411108
N54	N	0.962645	0.711806	0.744442
N55	N	0.365156	0.046164	0.077784
N56	N	0.698489	0.379498	0.411117
N57	N	1.031822	0.712831	0.744450
C58	C	0.394712	0.094050	-0.000032
C59	C	0.728045	0.427383	0.333302
C60	C	1.061378	0.760716	0.666635
N61	N	0.352475	0.140882	-0.077839
N62	N	0.685809	0.474215	0.255494
N63	N	1.019142	0.807549	0.588827
N64	N	0.283291	0.139859	-0.077842
N65	N	0.616625	0.473192	0.255491
N66	N	0.949958	0.806525	0.588825
C67	C	0.254267	0.091974	-0.000041
C68	C	0.587600	0.425307	0.333292
C69	C	0.920933	0.758641	0.666625
C70	C	0.501561	0.159386	-0.000041
C71	C	0.834894	0.492720	0.333292
C72	C	1.168227	0.826053	0.666625
C73	C	0.574385	0.160460	-0.000058
C74	C	0.907719	0.493794	0.333276
C75	C	1.241052	0.827127	0.666609
C76	C	0.591425	0.033193	-0.000033
C77	C	0.924758	0.366526	0.333300
C78	C	1.258091	0.699859	0.666634
C79	C	0.518601	0.032121	-0.000031
C80	C	0.851934	0.365454	0.333303
C81	C	1.185268	0.698787	0.666636
C82	C	0.473673	0.095220	-0.000028
C83	C	0.807006	0.428553	0.333305
C84	C	1.140340	0.761886	0.666638
C85	C	0.829974	-0.034650	-0.000013
C86	C	1.163307	0.298683	0.333320
C87	C	1.496640	0.632017	0.666653
C88	C	0.828833	-0.112154	-0.000001
C89	C	1.162166	0.221179	0.333332
C90	C	1.495500	0.554512	0.666665
C91	C	0.891924	-0.157079	0.000005
C92	C	1.225257	0.176254	0.333338
C93	C	1.558591	0.509587	0.666671
C94	C	0.890852	-0.229903	-0.000017
C95	C	1.224186	0.103430	0.333316
C96	C	1.557519	0.436763	0.666649
C97	C	0.826686	-0.257799	-0.000018
C98	C	1.160020	0.075535	0.333315
C99	C	1.493353	0.408868	0.666649
C100	C	0.763587	-0.212864	-0.000032
C101	C	1.096920	0.120470	0.333302
C102	C	1.430254	0.453803	0.666635
C103	C	0.764660	-0.140041	-0.000023
C104	C	1.097994	0.193292	0.333310
C105	C	1.431327	0.526625	0.666643
N106	N	0.777638	-0.365803	0.077773
N107	N	1.110971	-0.032470	0.411106
N108	N	1.444304	0.300864	0.744439
N109	N	0.776622	-0.434982	0.077768
N110	N	1.109956	-0.101648	0.411101
N111	N	1.443289	0.231685	0.744434
C112	C	0.823448	-0.477207	-0.000046
C113	C	1.156781	-0.143874	0.333288
C114	C	1.490115	0.189459	0.666621
N115	N	0.871338	-0.447642	-0.077837
N116	N	1.204672	-0.114309	0.255497
N117	N	1.538005	0.219024	0.588830
N118	N	0.872356	-0.378458	-0.077826
N119	N	1.205689	-0.045124	0.255508
N120	N	1.539023	0.288209	0.588841
C121	C	0.825515	-0.336761	-0.000028
C122	C	1.158848	-0.003428	0.333306
C123	C	1.492182	0.329906	0.666639
C124	C	0.885381	-0.601097	-0.000065
C125	C	1.218715	-0.267763	0.333268
C126	C	1.552048	0.065570	0.666601
C127	C	0.884307	-0.673922	-0.000096
C128	C	1.217640	-0.340588	0.333237
C129	C	1.550974	-0.007255	0.666571
C130	C	0.757040	-0.656880	-0.000096
C131	C	1.090373	-0.323547	0.333237
C132	C	1.423706	0.009786	0.666570
C133	C	0.758116	-0.584057	-0.000080
C134	C	1.091449	-0.250724	0.333254
C135	C	1.424782	0.082610	0.666587
C136	C	0.822289	-0.556170	-0.000058
C137	C	1.155622	-0.222837	0.333276
C138	C	1.488955	0.110497	0.666609
C139	C	0.952154	0.087527	-0.000049
C140	C	1.285487	0.420861	0.333285
C141	C	1.618820	0.754194	0.666618
C142	C	1.029658	0.088666	-0.000059
C143	C	1.362992	0.422000	0.333274
C144	C	1.696325	0.755333	0.666607
C145	C	0.819000	0.220684	-0.000078
C146	C	1.152333	0.554017	0.333256
C147	C	1.485666	0.887350	0.666589
C148	C	0.820140	0.298188	-0.000099
C149	C	1.153474	0.631522	0.333235
C150	C	1.486807	0.964855	0.666568
N151	N	0.824487	0.093015	0.356075
N152	N	1.157820	0.426348	0.689408
N153	N	1.491153	0.759682	1.022741
N154	N	0.824492	0.093013	-0.356163
N155	N	1.157826	0.426347	-0.022829
N156	N	1.491159	0.759680	0.310504
C157	C	0.919737	-0.002171	0.356088
C158	C	1.253070	0.331162	0.689422
C159	C	1.586403	0.664496	1.022755
C160	C	0.967366	-0.049762	0.428035
C161	C	1.300700	0.283571	0.761368
C162	C	1.634033	0.616905	1.094702
C163	C	0.967374	-0.049763	0.571915
C164	C	1.300707	0.283571	0.905248
C165	C	1.634040	0.616904	1.238581
C166	C	0.919744	-0.002168	0.643851
C167	C	1.253078	0.331165	0.977184
C168	C	1.586411	0.664498	1.310518
C169	C	0.872115	0.045423	0.571904
C170	C	1.205448	0.378756	0.905238
C171	C	1.538781	0.712089	1.238571
C172	C	0.872114	0.045419	0.428021
C173	C	1.205448	0.378753	0.761355
C174	C	1.538781	0.712086	1.094688
C175	C	0.776862	0.140604	0.571891
C176	C	1.110196	0.473938	0.905224
C177	C	1.443529	0.807271	1.238557
C178	C	0.776858	0.140609	0.428011
C179	C	1.110191	0.473943	0.761344
C180	C	1.443524	0.807276	1.094678
C181	C	0.729233	0.188199	0.643827
C182	C	1.062567	0.521532	0.977160
C183	C	1.395900	0.854865	1.310494
C184	C	0.681606	0.235794	0.571880
C185	C	1.014939	0.569128	0.905214
C186	C	1.348272	0.902461	1.238547
C187	C	0.681601	0.235793	0.427992
C188	C	1.014935	0.569127	0.761325
C189	C	1.348268	0.902460	1.094659
C190	C	0.729228	0.188200	0.356064
C191	C	1.062561	0.521534	0.689398
C192	C	1.395894	0.854867	1.022731
H193	H	0.183999	-0.024728	-0.000044
H194	H	0.517332	0.308606	0.333289
H195	H	0.850665	0.641939	0.666623
H196	H	1.006145	-0.088514	0.369452
H197	H	1.339478	0.244819	0.702785
H198	H	1.672811	0.578152	1.036118
O199	O	0.919753	-0.002169	0.799036
O200	O	1.253086	0.331165	1.132369
O201	O	1.586419	0.664498	1.465703
H202	H	0.908758	-0.054303	0.836991
H203	H	1.242092	0.279031	1.170324
H204	H	1.575425	0.612364	1.503658
H205	H	0.937635	-0.578390	-0.000054
H206	H	1.270968	-0.245057	0.333280
H207	H	1.604301	0.088277	0.666613
O208	O	0.009085	0.220884	-0.000067
O209	O	0.342419	0.554218	0.333266
O210	O	0.675752	0.887551	0.666599
H211	H	0.040716	0.265684	-0.000078
H212	H	0.374049	0.599017	0.333255
H213	H	0.707383	0.932350	0.666588
O214	O	0.958905	-0.278368	0.000003
O215	O	1.292238	0.054965	0.333336
O216	O	1.625572	0.388298	0.666669
H217	H	0.961444	-0.311961	0.093166
H218	H	1.294778	0.021372	0.426499
H219	H	1.628111	0.354705	0.759833
H220	H	1.006155	-0.088518	0.630494
H221	H	1.339489	0.244816	0.963827
H222	H	1.672822	0.578149	1.297161
H223	H	0.706740	-0.547478	-0.000077
H224	H	1.040073	-0.214144	0.333256
H225	H	1.373407	0.119189	0.666590
O226	O	0.952358	-0.722383	-0.000078
O227	O	1.285691	-0.389050	0.333255
O228	O	1.619025	-0.055716	0.666589
H229	H	0.997158	-0.690753	-0.000044
H230	H	1.330492	-0.357420	0.333289
H231	H	1.663825	-0.024087	0.666623
O232	O	0.729241	0.188207	0.799012
O233	O	1.062574	0.521540	1.132345
O234	O	1.395907	0.854874	1.465679
H235	H	0.770367	0.147125	0.836959
H236	H	1.103701	0.480459	1.170293
H237	H	1.437034	0.813792	1.503626
O238	O	0.160459	0.223116	-0.000045
O239	O	0.493793	0.556450	0.333288
O240	O	0.827126	0.889783	0.666621
H241	H	0.116984	0.266811	-0.000033
H242	H	0.450317	0.600145	0.333300
H243	H	0.783650	0.933478	0.666633
H244	H	0.711342	-0.235581	-0.000035
H245	H	1.044676	0.097753	0.333298
H246	H	1.378009	0.431086	0.666632
O247	O	0.630215	0.287116	0.350403
O248	O	0.963548	0.620449	0.683736
O249	O	1.296882	0.953782	1.017070
H250	H	0.638203	0.279117	0.238267
H251	H	0.971536	0.612450	0.571601
H252	H	1.304870	0.945784	0.904934
H253	H	0.642827	0.274539	0.630460
H254	H	0.976160	0.607872	0.963793
H255	H	1.309493	0.941206	1.297127
O256	O	0.687828	-0.686955	-0.000091
O257	O	1.021162	-0.353621	0.333243
O258	O	1.354495	-0.020288	0.666576
H259	H	0.697680	-0.745141	-0.000086
H260	H	1.031013	-0.411807	0.333247
H261	H	1.364347	-0.078474	0.666580
O262	O	0.729216	0.188196	0.200879
O263	O	1.062550	0.521530	0.534213
O264	O	1.395883	0.854863	0.867546
H265	H	0.770331	0.147102	0.162951
H266	H	1.103664	0.480435	0.496284
H267	H	1.436998	0.813769	0.829618
O268	O	0.696610	-0.091579	-0.000006
O269	O	1.029943	0.241754	0.333327
O270	O	1.363277	0.575088	0.666661
H271	H	0.651809	-0.123207	-0.000000
H272	H	0.985142	0.210126	0.333333
H273	H	1.318476	0.543460	0.666666
H274	H	0.464978	0.210765	-0.000042
H275	H	0.798311	0.544098	0.333291
H276	H	1.131645	0.877432	0.666625
O277	O	0.044506	-0.043643	-0.000037
O278	O	0.377839	0.289690	0.333296
O279	O	0.711173	0.623023	0.666630
H280	H	0.062573	-0.073953	-0.093189
H281	H	0.395906	0.259380	0.240144
H282	H	0.729239	0.592714	0.573478
O283	O	0.604468	0.229670	-0.000039
O284	O	0.937802	0.563003	0.333294
O285	O	1.271135	0.896336	0.666628
H286	H	0.560990	0.273362	-0.000019
H287	H	0.894324	0.606695	0.333315
H288	H	1.227657	0.940029	0.666648
O289	O	0.639878	-0.034860	-0.000007
O290	O	0.973211	0.298473	0.333327
O291	O	1.306545	0.631806	0.666660
H292	H	0.695202	-0.023335	0.000007
H293	H	1.028535	0.309999	0.333340
H294	H	1.361868	0.643332	0.666673
O295	O	0.488516	-0.037086	0.000002
O296	O	0.821849	0.296247	0.333335
O297	O	1.155183	0.629581	0.666668
H298	H	0.531994	-0.080779	0.000030
H299	H	0.865327	0.252555	0.333363
H300	H	1.198660	0.585888	0.666696
H301	H	0.919742	-0.002170	0.238934
H302	H	1.253075	0.331164	0.572267
H303	H	1.586408	0.664497	0.905600
H304	H	0.944179	-0.134379	0.000018
H305	H	1.277512	0.198954	0.333351
H306	H	1.610845	0.532288	0.666684
