data_functionalizedCrystal
_audit_creation_method	'MofGen! by Chris Wilmer'
_symmetry_space_group_name_H-M	'P1'
_symmetry_Int_Tables_number	1
_symmetry_cell_setting	triclinic
loop_
_symmetry_equiv_pos_as_xyz
  x,y,z
_cell_length_a	14.908571
_cell_length_b	15.297327
_cell_length_c	14.908694
_cell_angle_alpha	103.447437
_cell_angle_beta	83.592472
_cell_angle_gamma	96.991395
loop_
_atom_site_label
_atom_site_type_symbol
_atom_site_fract_x
_atom_site_fract_y
_atom_site_fract_z
Zn1	Zn	1.335576	-0.474947	-0.669165
Zn2	Zn	1.835576	0.025053	-0.169165
Zn3	Zn	1.303555	-0.616576	-0.540958
Zn4	Zn	1.803555	-0.116576	-0.040958
Zn5	Zn	1.178500	-0.456494	-0.506084
Zn6	Zn	1.678500	0.043506	-0.006084
Zn7	Zn	1.160998	-0.616506	-0.683545
Zn8	Zn	1.660998	-0.116506	-0.183545
O9	O	1.244657	-0.541131	-0.599938
O10	O	1.744657	-0.041131	-0.099938
O11	O	1.456726	-0.501486	-0.660736
O12	O	1.956726	-0.001486	-0.160736
O13	O	1.280889	-0.587648	-0.408409
O14	O	1.780889	-0.087648	0.091591
O15	O	1.220062	-0.332704	-0.507104
O16	O	1.720062	0.167296	-0.007104
O17	O	1.433200	-0.605541	-0.566542
O18	O	1.933200	-0.105541	-0.066542
O19	O	1.335465	-0.346261	-0.626919
O20	O	1.835465	0.153739	-0.126919
O21	O	1.189012	-0.470037	-0.382786
O22	O	1.689012	0.029963	0.117214
O23	O	1.050780	-0.469969	-0.521047
O24	O	1.550780	0.030031	-0.021047
O25	O	1.190233	-0.605421	-0.809561
O26	O	1.690233	-0.105421	-0.309561
O27	O	1.037922	-0.587529	-0.651427
O28	O	1.537922	-0.087529	-0.151427
O29	O	1.318495	-0.501418	-0.798996
O30	O	1.818495	-0.001418	-0.298996
O31	O	1.263919	-0.742805	-0.580486
O32	O	1.763919	-0.242805	-0.080486
O33	O	1.159183	-0.742754	-0.685244
O34	O	1.659183	-0.242754	-0.185244
C35	C	1.011837	-0.526740	-0.584014
C36	C	1.511837	-0.026740	-0.084014
C37	C	0.912233	-0.520606	-0.577226
C38	C	1.412233	-0.020606	-0.077226
C39	C	0.711688	-0.631665	-0.700109
C40	C	1.211688	-0.131665	-0.200109
C41	C	0.618101	-0.625905	-0.693736
C42	C	1.118101	-0.125905	-0.193736
C43	C	0.631470	-0.503322	-0.558110
C44	C	1.131470	-0.003322	-0.058110
C45	C	0.725057	-0.509082	-0.564484
C46	C	1.225057	-0.009082	-0.064484
C47	C	0.765163	-0.573257	-0.635485
C48	C	1.265163	-0.073257	-0.135485
C49	C	0.858751	-0.579020	-0.641854
C50	C	1.358751	-0.079020	-0.141854
C51	C	0.872119	-0.456434	-0.506233
C52	C	1.372119	0.043566	-0.006233
C53	C	0.778532	-0.450674	-0.499859
C54	C	1.278532	0.049326	0.000141
C55	C	1.206202	-0.775514	-0.638231
C56	C	1.706202	-0.275514	-0.138231
C57	C	1.189834	-0.875791	-0.654649
C58	C	1.689834	-0.375791	-0.154649
C59	C	1.362024	-1.158459	-0.482933
C60	C	1.862024	-0.658459	0.017067
C61	C	1.377402	-1.064244	-0.467503
C62	C	1.877402	-0.564244	0.032497
C63	C	1.330512	-1.017126	-0.514288
C64	C	1.830512	-0.517126	-0.014288
C65	C	1.268241	-1.064233	-0.576506
C66	C	1.768241	-0.564233	-0.076506
C67	C	1.252856	-1.158457	-0.591932
C68	C	1.752856	-0.658457	-0.091932
C69	C	1.221344	-1.017124	-0.623288
C70	C	1.721344	-0.517124	-0.123288
C71	C	1.159072	-1.064231	-0.685506
C72	C	1.659072	-0.564231	-0.185506
C73	C	1.143691	-1.158446	-0.700930
C74	C	1.643691	-0.658446	-0.200930
C75	C	1.190582	-1.205564	-0.654144
C76	C	1.690582	-0.705564	-0.154144
C77	C	1.236728	-0.922900	-0.607861
C78	C	1.736728	-0.422900	-0.107861
C79	C	1.127560	-0.922898	-0.716861
C80	C	1.627560	-0.422898	-0.216861
C81	C	1.112182	-1.017114	-0.732291
C82	C	1.612182	-0.517114	-0.232291
C83	C	1.478387	-0.555579	-0.615925
C84	C	1.978387	-0.055579	-0.115925
C85	C	1.577988	-0.561736	-0.622738
C86	C	2.077988	-0.061736	-0.122738
C87	C	1.255984	-0.555470	-0.838375
C88	C	1.755984	-0.055470	-0.338375
C89	C	1.260810	-0.561581	-0.939983
C90	C	1.760810	-0.061581	-0.439983
C91	C	1.283288	-0.305835	-0.561517
C92	C	1.783288	0.194165	-0.061517
C93	C	1.299750	-0.205566	-0.545145
C94	C	1.799750	0.294434	-0.045145
C95	C	1.174186	-0.450595	-1.104235
C96	C	1.674186	0.049405	-0.604235
C97	C	1.178719	-0.456333	-1.199703
C98	C	1.678719	0.043667	-0.699703
C99	C	1.274402	-0.578799	-1.226391
C100	C	1.774402	-0.078799	-0.726391
C101	C	1.269869	-0.573060	-1.130922
C102	C	1.769869	-0.073060	-0.630922
C103	C	1.219761	-0.508956	-1.069847
C104	C	1.719761	-0.008956	-0.569847
C105	C	1.215234	-0.503214	-0.974376
C106	C	1.715234	-0.003214	-0.474376
C107	C	1.310911	-0.625683	-1.001066
C108	C	1.810911	-0.125683	-0.501066
C109	C	1.315444	-0.631421	-1.096535
C110	C	1.815444	-0.131421	-0.596535
C111	C	1.233437	-0.526786	-0.362421
C112	C	1.733437	-0.026786	0.137579
C113	C	1.228826	-0.520432	-0.260784
C114	C	1.728826	-0.020432	0.239216
H115	H	0.915668	-0.408875	-0.453609
H116	H	1.415668	0.091125	0.046391
C117	C	1.413586	-1.210294	-0.431466
C118	C	1.913586	-0.710294	0.068534
N119	N	1.452423	-1.249336	-0.392695
N120	N	1.952423	-0.749336	0.107305
C121	C	0.587339	-0.432727	-0.480023
C122	C	1.087339	0.067273	0.019977
N123	N	0.554099	-0.379553	-0.421208
N124	N	1.054099	0.120447	0.078792
H125	H	1.287429	-0.884554	-0.557203
H126	H	1.787429	-0.384554	-0.057203
C127	C	1.128588	-0.392128	-1.237525
C128	C	1.628588	0.107872	-0.737525
N129	N	1.090828	-0.343764	-1.266012
N130	N	1.590828	0.156236	-0.766012
C131	C	1.043678	-1.068943	-0.800722
C132	C	1.543678	-0.568943	-0.300722
N133	N	0.992079	-1.107981	-0.852261
N134	N	1.492079	-0.607981	-0.352261
C135	C	1.347447	-0.913488	-0.497330
C136	C	1.847447	-0.413488	0.002670
N137	N	1.360213	-0.835425	-0.484562
N138	N	1.860213	-0.335425	0.015438
H139	H	0.891403	-0.631276	-0.699666
H140	H	1.391403	-0.131276	-0.199666
C141	C	1.370327	-0.702121	-1.163747
C142	C	1.870327	-0.202121	-0.663747
N143	N	1.411585	-0.755439	-1.214376
N144	N	1.911585	-0.255439	-0.714376
C145	C	0.559281	-0.690164	-0.764823
C146	C	1.059281	-0.190164	-0.264823
N147	N	0.514977	-0.738569	-0.818368
N148	N	1.014977	-0.238569	-0.318368
C149	C	1.329032	-0.649698	-1.293628
C150	C	1.829032	-0.149698	-0.793628
N151	N	1.370008	-0.703239	-1.344285
N152	N	1.870008	-0.203239	-0.844285
H153	H	1.348025	-0.673202	-0.973058
H154	H	1.848025	-0.173202	-0.473058
C155	C	1.119072	-0.380076	-1.037049
C156	C	1.619072	0.119924	-0.537049
N157	N	1.077558	-0.326961	-0.986446
N158	N	1.577558	0.173039	-0.486446
H159	H	1.428101	-1.025892	-0.416844
H160	H	1.928101	-0.525892	0.083156
C161	C	0.734405	-0.380085	-0.421762
C162	C	1.234405	0.119915	0.078238
N163	N	0.701169	-0.326918	-0.362936
N164	N	1.201169	0.173082	0.137064
C165	C	1.173665	-1.309207	-0.671110
C166	C	1.673665	-0.809207	-0.171110
N167	N	1.160924	-1.387272	-0.683885
N168	N	1.660924	-0.887272	-0.183885
C169	C	0.755806	-0.702260	-0.778207
C170	C	1.255806	-0.202260	-0.278207
N171	N	0.789033	-0.755432	-0.837033
N172	N	1.289033	-0.255432	-0.337033
H173	H	1.089376	-0.884535	-0.754956
H174	H	1.589376	-0.384535	-0.254956
C175	C	1.075183	-1.210261	-0.769363
C176	C	1.575183	-0.710261	-0.269363
N177	N	1.023582	-1.249286	-0.820907
N178	N	1.523582	-0.749286	-0.320907
H179	H	1.174438	-0.451013	-0.924649
H180	H	1.674438	0.048987	-0.424649
