data_functionalizedCrystal
_audit_creation_method	'MofGen! by Chris Wilmer'
_symmetry_space_group_name_H-M	'P1'
_symmetry_Int_Tables_number	1
_symmetry_cell_setting	triclinic
loop_
_symmetry_equiv_pos_as_xyz
  x,y,z
_cell_length_a	19.288864
_cell_length_b	13.339070
_cell_length_c	17.766277
_cell_angle_alpha	89.997794
_cell_angle_beta	89.976791
_cell_angle_gamma	99.382770
loop_
_atom_site_label
_atom_site_type_symbol
_atom_site_fract_x
_atom_site_fract_y
_atom_site_fract_z
O1	O	0.945924	0.126087	-0.062840
O2	O	0.746977	0.143096	-0.062789
O3	O	0.823618	-0.012568	-0.062806
O4	O	0.869283	0.281751	-0.062822
O5	O	0.823598	-0.012576	0.062383
O6	O	0.746957	0.143088	0.062400
O7	O	0.945903	0.126079	0.062349
Cu8	Cu	0.846428	0.134583	0.073805
Cu9	Cu	0.846452	0.134592	-0.074245
O10	O	0.869263	0.281743	0.062366
C11	C	0.720984	0.142544	-0.000188
C12	C	0.643560	0.140901	-0.000168
C13	C	0.616663	0.232238	-0.000185
C14	C	0.543915	0.230694	-0.000193
C15	C	0.498067	0.137809	-0.000200
C16	C	0.524972	0.046461	-0.000178
C17	C	0.597719	0.048007	-0.000163
C18	C	0.375583	0.064794	-0.044080
C19	C	0.302838	0.063252	-0.044100
C20	C	0.273691	0.133037	-0.000245
C21	C	0.317301	0.204382	0.043621
C22	C	0.390047	0.205928	0.043637
C23	C	0.419184	0.136123	-0.000216
C24	C	0.167913	0.222706	-0.000270
C25	C	0.095163	0.221159	-0.000273
C26	C	0.076222	0.036923	-0.000266
C27	C	0.148970	0.038473	-0.000255
C28	C	0.194812	0.131367	-0.000260
C29	C	0.815894	-0.050226	-0.000211
C30	C	0.792901	-0.162423	-0.000208
C31	C	0.971681	-0.528031	-0.000253
C32	C	0.993286	-0.422617	-0.000252
C33	C	0.943192	-0.357563	-0.000241
C34	C	0.871489	-0.397934	-0.000231
C35	C	0.849881	-0.503359	-0.000227
C36	C	0.821392	-0.332891	-0.000215
C37	C	0.749689	-0.373262	-0.000205
C38	C	0.728085	-0.478677	-0.000201
C39	C	0.778180	-0.543730	-0.000212
C40	C	0.842999	-0.227467	-0.000219
C41	C	0.721199	-0.202795	-0.000193
C42	C	0.699594	-0.308209	-0.000195
C43	C	0.971897	0.126630	-0.000254
C44	C	1.049320	0.128273	-0.000278
C45	C	0.876987	0.319401	-0.000231
C46	C	0.899980	0.431598	-0.000238
N47	N	0.846416	0.134575	0.177935
N48	N	0.846468	0.134591	-0.178375
C49	C	0.880375	0.065681	0.217315
C50	C	0.880378	0.065676	0.296116
C51	C	0.846433	0.134583	0.335536
C52	C	0.812467	0.203483	0.296147
C53	C	0.812459	0.203479	0.217347
C54	C	0.855080	0.226676	0.460370
C55	C	0.855093	0.226682	0.539169
C56	C	0.846454	0.134595	0.578582
C57	C	0.837815	0.042500	0.539187
C58	C	0.837807	0.042496	0.460387
C59	C	0.846437	0.134595	0.420982
C60	C	0.880417	0.065690	0.703408
C61	C	0.880415	0.065684	0.782211
C62	C	0.812509	0.203500	0.782240
C63	C	0.812506	0.203497	0.703438
C64	C	0.846463	0.134593	0.664027
H65	H	0.399307	0.007964	-0.079797
H66	H	0.038893	-0.038706	-0.000318
N67	N	0.966489	-0.243866	-0.000253
H68	H	0.947774	-0.213626	0.046155
H69	H	1.019514	-0.228246	-0.000292
H70	H	0.170869	-0.035904	-0.000245
H71	H	0.680408	-0.149828	-0.000180
H72	H	0.293572	0.261207	0.079333
H73	H	0.784805	0.259582	0.185284
H74	H	0.830771	-0.032491	0.428314
N75	N	0.775891	0.277817	0.824747
H76	H	0.724388	0.266349	0.811059
H77	H	0.781100	0.267323	0.880628
H78	H	0.784857	0.259601	0.671374
N79	N	0.650748	-0.522210	-0.000174
H80	H	0.627890	-0.498466	-0.046574
H81	H	0.644715	-0.598856	-0.000140
N82	N	0.514892	0.329210	-0.000213
H83	H	0.554972	0.388292	-0.000213
H84	H	0.485149	0.332572	-0.046631
N85	N	0.916996	-0.008636	0.174807
H86	H	0.938508	-0.052283	0.211716
H87	H	0.881812	-0.053226	0.142135
H88	H	0.641212	-0.341094	-0.000186
N89	N	0.475527	-0.053724	-0.000177
H90	H	0.425360	-0.040845	-0.000190
H91	H	0.484132	-0.093682	-0.046578
N92	N	0.626735	-0.050510	-0.000141
H93	H	0.586654	-0.109589	-0.000143
H94	H	0.656530	-0.053881	-0.046544
N95	N	0.666097	0.332435	-0.000180
H96	H	0.696675	0.337185	0.046234
H97	H	0.696683	0.337132	-0.046611
N98	N	1.025699	-0.598202	-0.000264
H99	H	1.056094	-0.585253	-0.046677
H100	H	1.056024	-0.585226	0.046169
N101	N	0.217362	0.322893	-0.000271
H102	H	0.189281	0.380522	-0.000277
H103	H	0.247935	0.327542	0.046142
N104	N	0.066149	0.319677	-0.000231
H105	H	0.106231	0.378755	-0.000216
H106	H	0.036386	0.323096	-0.046627
H107	H	0.901380	-0.194607	-0.000227
H108	H	0.760592	-0.629568	-0.000216
H109	H	0.862104	0.301669	0.428287
N110	N	0.775849	0.277800	0.338658
H111	H	0.781008	0.267351	0.394554
H112	H	0.797678	0.349474	0.324868
N113	N	0.828499	-0.056831	0.581684
H114	H	0.829811	-0.042859	0.637581
H115	H	0.781801	-0.098782	0.567933
N116	N	1.070619	-0.379090	-0.000274
H117	H	1.082306	-0.335897	-0.046684
H118	H	1.082245	-0.335957	0.046161
H119	H	0.862132	0.301671	0.571239
N120	N	0.917003	-0.008636	0.338603
H121	H	0.938512	-0.052287	0.301678
H122	H	0.955143	0.029955	0.371274
N123	N	0.917026	-0.008626	0.660879
H124	H	0.968530	0.002820	0.674559
H125	H	0.895153	-0.080301	0.674617
N126	N	0.437083	0.282866	0.090949
H127	H	0.407586	0.326844	0.118731
H128	H	0.463419	0.246306	0.128417
N129	N	0.255806	-0.013691	-0.091412
H130	H	0.285306	-0.057674	-0.119184
H131	H	0.221148	-0.057667	-0.057771
H132	H	0.908064	0.009577	0.814274
