data_functionalizedCrystal
_audit_creation_method	'MofGen! by Chris Wilmer'
_symmetry_space_group_name_H-M	'P1'
_symmetry_Int_Tables_number	1
_symmetry_cell_setting	triclinic
loop_
_symmetry_equiv_pos_as_xyz
  x,y,z
_cell_length_a	15.995292
_cell_length_b	15.995292
_cell_length_c	13.930277
_cell_angle_alpha	89.998637
_cell_angle_beta	89.991610
_cell_angle_gamma	83.468616
loop_
_atom_site_label
_atom_site_type_symbol
_atom_site_fract_x
_atom_site_fract_y
_atom_site_fract_z
O1	O	1.110997	0.107697	-0.079850
O2	O	1.610997	0.607697	0.420150
O3	O	0.867212	0.121076	-0.079845
O4	O	1.367212	0.621076	0.420155
O5	O	0.995794	-0.007506	-0.079849
O6	O	1.495794	0.492494	0.420151
O7	O	0.982415	0.236279	-0.079846
O8	O	1.482415	0.736279	0.420154
O9	O	0.995776	-0.007509	0.079813
O10	O	1.495776	0.492491	0.579813
O11	O	0.867194	0.121073	0.079817
O12	O	1.367194	0.621073	0.579817
O13	O	1.110979	0.107694	0.079812
O14	O	1.610979	0.607694	0.579812
Zn15	Zn	0.989084	0.114383	0.105164
Zn16	Zn	1.489084	0.614383	0.605164
Zn17	Zn	0.989107	0.114387	-0.105197
Zn18	Zn	1.489107	0.614387	0.394803
O19	O	0.982397	0.236276	0.079816
O20	O	1.482397	0.736276	0.579816
C21	C	0.836008	0.120530	-0.000014
C22	C	1.336008	0.620530	0.499986
C23	C	0.743055	0.118898	-0.000012
C24	C	1.243055	0.618898	0.499988
C25	C	0.405318	0.112896	-0.000023
C26	C	0.905318	0.612896	0.499977
C27	C	0.428611	0.205703	-0.000379
C28	C	0.928611	0.705703	0.499621
C29	C	0.525286	0.207467	-0.000015
C30	C	1.025286	0.707467	0.499985
C31	C	0.572873	0.115874	-0.000018
C32	C	1.072873	0.615874	0.499982
C33	C	0.543771	0.069473	0.091152
C34	C	1.043771	0.569473	0.591152
C35	C	0.446980	0.068356	0.091225
C36	C	0.946980	0.568356	0.591225
C37	C	0.447146	0.066464	-0.090341
C38	C	0.947146	0.566464	0.409659
C39	C	0.543638	0.069903	-0.091542
C40	C	1.043638	0.569903	0.408458
C41	C	0.667569	0.117552	-0.000013
C42	C	1.167569	0.617552	0.499987
C43	C	0.310622	0.111215	-0.000023
C44	C	0.810622	0.611215	0.499977
C45	C	0.995240	-0.038703	-0.000021
C46	C	1.495240	0.461297	0.499979
C47	C	0.993608	-0.131655	-0.000028
C48	C	1.493608	0.368345	0.499972
C49	C	0.987607	-0.469393	-0.000019
C50	C	1.487607	0.030607	0.499981
C51	C	1.080413	-0.446100	0.000336
C52	C	1.580413	0.053900	0.500336
C53	C	1.082177	-0.349424	-0.000027
C54	C	1.582177	0.150576	0.499973
C55	C	0.990584	-0.301837	-0.000023
C56	C	1.490584	0.198163	0.499977
C57	C	0.944196	-0.330927	-0.091194
C58	C	1.444196	0.169073	0.408806
C59	C	0.943078	-0.427717	-0.091267
C60	C	1.443078	0.072283	0.408733
C61	C	0.941163	-0.427577	0.090299
C62	C	1.441163	0.072423	0.590299
C63	C	0.944602	-0.331085	0.091500
C64	C	1.444602	0.168915	0.591500
C65	C	0.992263	-0.207141	-0.000028
C66	C	1.492263	0.292859	0.499972
C67	C	0.985926	-0.564088	-0.000020
C68	C	1.485926	-0.064088	0.499980
C69	C	1.142183	0.108240	-0.000022
C70	C	1.642183	0.608240	0.499978
C71	C	1.235136	0.109873	-0.000029
C72	C	1.735136	0.609873	0.499971
C73	C	0.982951	0.267473	-0.000015
C74	C	1.482951	0.767473	0.499985
C75	C	0.984583	0.360426	-0.000014
C76	C	1.484583	0.860426	0.499986
N77	N	0.989074	0.114380	0.248730
N78	N	1.489074	0.614380	0.748730
N79	N	0.989124	0.114383	-0.248763
N80	N	1.489124	0.614383	0.251237
C81	C	0.932169	0.171301	0.701001
C82	C	1.432169	0.671301	1.201001
C83	C	1.046069	0.057467	0.700967
C84	C	1.546069	0.557467	1.200967
C85	C	1.046059	0.057464	0.600471
C86	C	1.546059	0.557464	1.100471
C87	C	0.989104	0.114381	0.550236
C88	C	1.489104	0.614381	1.050236
C89	C	0.932159	0.171301	0.600496
C90	C	1.432159	0.671301	1.100496
C91	C	1.103008	0.000551	0.550204
C92	C	1.603008	0.500551	1.050204
C93	C	1.103001	0.000547	0.449702
C94	C	1.603001	0.500547	0.949702
C95	C	1.046041	0.057461	0.399464
C96	C	1.546041	0.557461	0.899464
C97	C	0.989094	0.114382	0.449731
C98	C	1.489094	0.614382	0.949731
C99	C	0.932139	0.171299	0.399495
C100	C	1.432139	0.671299	0.899495
C101	C	0.875187	0.228218	0.449760
C102	C	1.375187	0.728218	0.949760
C103	C	0.875200	0.228215	0.550259
C104	C	1.375200	0.728215	1.050259
C105	C	1.046029	0.057463	0.298965
C106	C	1.546029	0.557463	0.798965
C107	C	0.932129	0.171300	0.298990
C108	C	1.432129	0.671300	0.798990
H109	H	0.544312	0.243801	-0.065372
H110	H	1.044312	0.743801	0.434628
C111	C	1.131260	-0.323732	0.088262
C112	C	1.631260	0.176268	0.588262
N113	N	1.168234	-0.304385	0.154763
N114	N	1.668234	0.195615	0.654763
C115	C	0.848880	-0.446472	0.091143
C116	C	1.348880	0.053528	0.591143
N117	N	0.779376	-0.460712	0.091775
N118	N	1.279376	0.039288	0.591775
C119	C	0.869494	0.233936	0.243739
C120	C	1.369494	0.733936	0.743739
N121	N	0.822326	0.281123	0.202125
N122	N	1.322326	0.781123	0.702125
H123	H	1.092444	0.011130	0.741872
H124	H	1.592444	0.511130	1.241872
C125	C	0.853143	-0.287851	-0.095777
C126	C	1.353143	0.212149	0.404223
N127	N	0.784563	-0.255402	-0.099229
N128	N	1.284563	0.244598	0.400771
C129	C	0.987739	-0.303843	-0.182861
C130	C	1.487739	0.196157	0.317139
N131	N	1.020542	-0.283447	-0.251902
N132	N	1.520542	0.216553	0.248098
H133	H	1.149383	-0.045786	0.591108
H134	H	1.649383	0.454214	1.091108
H135	H	0.970382	-0.455673	0.159406
H136	H	1.470382	0.044327	0.659406
H137	H	1.149373	-0.045800	0.408782
H138	H	1.649373	0.454200	0.908782
H139	H	0.400615	0.241476	-0.065762
H140	H	0.900615	0.741476	0.434238
C141	C	0.389394	0.253761	0.087459
C142	C	0.889394	0.753761	0.587459
N143	N	0.359855	0.289955	0.153620
N144	N	0.859855	0.789955	0.653620
H145	H	1.116178	-0.474105	0.065718
H146	H	1.616178	0.025895	0.565718
C147	C	1.131565	-0.324565	-0.088479
C148	C	1.631565	0.175435	0.411521
N149	N	1.168763	-0.305842	-0.155106
N150	N	1.668763	0.194158	0.344894
H151	H	0.828817	0.274564	0.408847
H152	H	1.328817	0.774564	0.908847
H153	H	0.978380	-0.312528	0.158948
H154	H	1.478380	0.187472	0.658948
C155	C	0.550133	0.256840	0.088439
C156	C	1.050133	0.756840	0.588439
N157	N	0.568848	0.294026	0.155069
N158	N	1.068848	0.794026	0.655069
C159	C	0.570840	0.113006	0.182819
C160	C	1.070840	0.613006	0.682819
N161	N	0.591224	0.145802	0.251861
N162	N	1.091224	0.645802	0.751861
C163	C	0.408983	0.105749	-0.183698
C164	C	0.908983	0.605749	0.316302
N165	N	0.380239	0.135350	-0.254011
N166	N	0.880239	0.635350	0.245989
C167	C	1.128483	-0.485306	-0.087501
C168	C	1.628483	0.014694	0.412499
N169	N	1.164686	-0.514837	-0.153661
N170	N	1.664686	-0.014837	0.346339
C171	C	0.410728	0.111782	0.183289
C172	C	0.910728	0.611782	0.683289
N173	N	0.383427	0.144498	0.252630
N174	N	0.883427	0.644498	0.752630
H175	H	0.828832	0.274557	0.591190
H176	H	1.328832	0.774557	1.091190
H177	H	1.092402	0.011125	0.258045
H178	H	1.592402	0.511125	0.758045
C179	C	0.854281	-0.286530	0.098943
C180	C	1.354281	0.213470	0.598943
N181	N	0.786248	-0.252972	0.104540
N182	N	1.286248	0.247028	0.604540
H183	H	0.432444	0.000310	0.095364
H184	H	0.932444	0.500310	0.595364
C185	C	0.586870	-0.021570	0.095755
C186	C	1.086870	0.478430	0.595755
N187	N	0.619343	-0.090140	0.099227
N188	N	1.119343	0.409860	0.599227
C189	C	0.851154	-0.447358	-0.096871
C190	C	1.351154	0.052642	0.403129
N191	N	0.781917	-0.462147	-0.101101
N192	N	1.281917	0.037853	0.398899
C193	C	0.588189	-0.020418	-0.098980
C194	C	1.088189	0.479582	0.401020
N195	N	0.621743	-0.088453	-0.104573
N196	N	1.121743	0.411547	0.395427
C197	C	0.568732	0.115539	-0.182663
C198	C	1.068732	0.615539	0.317337
N199	N	0.587641	0.149911	-0.251294
N200	N	1.087641	0.649911	0.248706
C201	C	0.428259	-0.025821	-0.091180
C202	C	0.928259	0.474179	0.408820
N203	N	0.414027	-0.095327	-0.091805
N204	N	0.914027	0.404673	0.408195
C205	C	0.986513	-0.463956	-0.183333
C206	C	1.486513	0.036044	0.316667
N207	N	1.019234	-0.491248	-0.252677
N208	N	1.519234	0.008752	0.247323
H209	H	0.885797	0.217641	0.741929
H210	H	1.385797	0.717641	1.241929
