data_functionalizedCrystal
_audit_creation_method	'MofGen! by Chris Wilmer'
_symmetry_space_group_name_H-M	'P1'
_symmetry_Int_Tables_number	1
_symmetry_cell_setting	triclinic
loop_
_symmetry_equiv_pos_as_xyz
  x,y,z
_cell_length_a	11.792241
_cell_length_b	10.868271
_cell_length_c	10.654550
_cell_angle_alpha	90.000241
_cell_angle_beta	84.339159
_cell_angle_gamma	90.000156
loop_
_atom_site_label
_atom_site_type_symbol
_atom_site_fract_x
_atom_site_fract_y
_atom_site_fract_z
O1	O	1.507307	0.102199	0.172129
O2	O	2.007307	0.602199	0.672129
O3	O	1.177007	0.102228	0.189870
O4	O	1.677007	0.602228	0.689870
O5	O	1.349751	0.102208	-0.001761
O6	O	1.849751	0.602208	0.498239
O7	O	1.334562	0.102219	0.363760
O8	O	1.834562	0.602219	0.863760
O9	O	1.349735	-0.102436	-0.001755
O10	O	1.849735	0.397564	0.498245
O11	O	1.176991	-0.102417	0.189876
O12	O	1.676991	0.397583	0.689876
O13	O	1.507291	-0.102445	0.172135
O14	O	2.007291	0.397555	0.672135
Zn15	Zn	1.342138	-0.134923	0.181007
Zn16	Zn	1.842138	0.365077	0.681007
Zn17	Zn	1.342159	0.134705	0.180998
Zn18	Zn	1.842159	0.634705	0.680998
O19	O	1.334547	-0.102426	0.363766
O20	O	1.834547	0.397574	0.863766
C21	C	1.134705	-0.000091	0.188758
C22	C	1.634705	0.499909	0.688758
C23	C	1.008684	-0.000080	0.185423
C24	C	1.508684	0.499920	0.685423
N25	N	1.342133	-0.318937	0.181011
N26	N	1.842133	0.181063	0.681011
C27	C	1.348628	-0.000112	-0.048553
C28	C	1.848628	0.499888	0.451447
C29	C	1.345291	-0.000108	-0.187987
C30	C	1.845291	0.499892	0.312013
C31	C	0.777957	-0.000116	0.179290
C32	C	1.277957	0.499884	0.679290
C33	C	0.906351	-0.000096	0.182697
C34	C	1.406351	0.499904	0.682697
C35	C	1.549592	-0.000124	0.173247
C36	C	2.049592	0.499876	0.673247
C37	C	1.675614	-0.000127	0.176582
C38	C	2.175614	0.499873	0.676582
C39	C	1.342141	-0.430275	0.181012
C40	C	1.842141	0.069725	0.681012
C41	C	1.342156	-0.569952	0.181000
C42	C	1.842156	-0.069952	0.681000
N43	N	1.342174	0.318719	0.180984
N44	N	1.842174	0.818719	0.680984
C45	C	1.447000	-0.000120	-0.267760
C46	C	1.947000	0.499880	0.232240
C47	C	1.443858	-0.000111	-0.398772
C48	C	1.943858	0.499889	0.101228
C49	C	1.237290	-0.000083	-0.370224
C50	C	1.737290	0.499917	0.129776
C51	C	1.240433	-0.000083	-0.239215
C52	C	1.740433	0.499917	0.260785
C53	C	1.551859	-0.000145	-0.216532
C54	C	2.051859	0.499855	0.283468
C55	C	1.653577	-0.000159	-0.296307
C56	C	2.153577	0.499841	0.203693
C57	C	1.650435	-0.000150	-0.427319
C58	C	2.150435	0.499850	0.072681
C59	C	1.545575	-0.000128	-0.478556
C60	C	2.045575	0.499872	0.021444
C61	C	1.335670	-0.000102	0.410558
C62	C	1.835670	0.499898	0.910558
C63	C	1.339006	-0.000099	0.549992
C64	C	1.839006	0.499901	1.049992
H65	H	1.554429	-0.000156	-0.109857
H66	H	2.054429	0.499844	0.390143
H67	H	1.151918	-0.000066	-0.411953
H68	H	1.651918	0.499934	0.088047
Br69	Br	1.102397	-0.000061	-0.130942
Br70	Br	1.602397	0.499939	0.369058
H71	H	1.738949	-0.000147	-0.254580
H72	H	2.238949	0.499853	0.245420
Br73	Br	1.788476	-0.000151	-0.535582
Br74	Br	2.288476	0.499849	-0.035582
H75	H	1.543025	-0.000107	-0.585236
H76	H	2.043025	0.499893	-0.085236
