data_functionalizedCrystal
_audit_creation_method	'MofGen! by Chris Wilmer'
_symmetry_space_group_name_H-M	'P1'
_symmetry_Int_Tables_number	1
_symmetry_cell_setting	triclinic
loop_
_symmetry_equiv_pos_as_xyz
  x,y,z
_cell_length_a	19.077105
_cell_length_b	19.121063
_cell_length_c	19.076919
_cell_angle_alpha	85.393653
_cell_angle_beta	89.923776
_cell_angle_gamma	90.263052
loop_
_atom_site_label
_atom_site_type_symbol
_atom_site_fract_x
_atom_site_fract_y
_atom_site_fract_z
Zn1	Zn	1.043169	-0.339734	0.454309
Zn2	Zn	1.543169	0.160266	0.954309
Zn3	Zn	1.042790	-0.452646	0.341419
Zn4	Zn	1.542790	0.047354	0.841419
Zn5	Zn	0.930805	-0.330327	0.331718
Zn6	Zn	1.430805	0.169673	0.831718
Zn7	Zn	0.920631	-0.452222	0.454155
Zn8	Zn	1.420631	0.047778	0.954155
O9	O	0.984349	-0.393732	0.395400
O10	O	1.484349	0.106268	0.895400
O11	O	1.141268	-0.358826	0.443459
O12	O	1.641268	0.141174	0.943459
O13	O	1.032035	-0.432660	0.241647
O14	O	1.532035	0.067340	0.741647
O15	O	0.950127	-0.233307	0.343985
O16	O	1.450127	0.266693	0.843985
O17	O	1.140989	-0.441782	0.360519
O18	O	1.640989	0.058218	0.860519
O19	O	1.032681	-0.240219	0.434052
O20	O	1.532681	0.259781	0.934052
O21	O	0.949760	-0.342793	0.234520
O22	O	1.449760	0.157207	0.734520
O23	O	0.831307	-0.342382	0.343835
O24	O	1.331307	0.157618	0.843835
O25	O	0.932786	-0.441060	0.552660
O26	O	1.432786	0.058940	1.052660
O27	O	0.823831	-0.431938	0.433788
O28	O	1.323831	0.068062	0.933788
O29	O	1.022815	-0.358416	0.552774
O30	O	1.522815	0.141584	1.052774
O31	O	1.022169	-0.550857	0.360369
O32	O	1.522169	-0.050857	0.860369
O33	O	0.932419	-0.550546	0.443195
O34	O	1.432419	-0.050546	0.943195
C35	C	0.802120	-0.386094	0.387742
C36	C	1.302120	0.113906	0.887742
C37	C	0.724160	-0.382844	0.384484
C38	C	1.224160	0.117156	0.884484
C39	C	0.683661	-0.428009	0.429719
C40	C	1.183661	0.071991	0.929719
C41	C	0.610410	-0.424946	0.426660
C42	C	1.110410	0.075054	0.926660
C43	C	0.577659	-0.376721	0.378362
C44	C	1.077659	0.123279	0.878362
C45	C	0.618164	-0.331551	0.333125
C46	C	1.118164	0.168449	0.833125
C47	C	0.691414	-0.334611	0.336188
C48	C	1.191414	0.165389	0.836188
C49	C	0.359002	-0.362559	0.364190
C50	C	0.859002	0.137441	0.864190
C51	C	0.285746	-0.359503	0.361130
C52	C	0.785746	0.140497	0.861130
C53	C	0.277998	-0.452898	0.454666
C54	C	0.777998	0.047102	0.954666
C55	C	0.351249	-0.455957	0.457722
C56	C	0.851249	0.044043	0.957722
C57	C	0.391747	-0.410784	0.412487
C58	C	0.891747	0.089216	0.912487
N59	N	0.502785	-0.373590	0.375233
N60	N	1.002785	0.126410	0.875233
N61	N	0.466620	-0.413912	0.415620
N62	N	0.966620	0.086088	0.915620
C63	C	0.976167	-0.576182	0.402834
C64	C	1.476167	-0.076182	0.902834
C65	C	0.972730	-0.654239	0.406041
C66	C	1.472730	-0.154239	0.906041
C67	C	1.017877	-0.691052	0.364463
C68	C	1.517877	-0.191052	0.864463
C69	C	1.014648	-0.764395	0.367483
C70	C	1.514648	-0.264395	0.867483
C71	C	0.966269	-0.800923	0.412078
C72	C	1.466269	-0.300923	0.912078
C73	C	0.921120	-0.764105	0.453660
C74	C	1.421120	-0.264105	0.953660
C75	C	0.924353	-0.690764	0.450644
C76	C	1.424353	-0.190764	0.950644
C77	C	0.954173	-1.022359	0.423346
C78	C	1.454173	-0.522359	0.923346
C79	C	0.950942	-1.095705	0.426358
C80	C	1.450942	-0.595705	0.926358
C81	C	1.044471	-1.095990	0.340181
C82	C	1.544471	-0.595990	0.840181
C83	C	1.047697	-1.022647	0.337165
C84	C	1.547697	-0.522647	0.837165
C85	C	1.002551	-0.985836	0.378750
C86	C	1.502551	-0.485836	0.878750
C87	C	0.962966	-0.875891	0.415164
C88	C	1.462966	-0.375891	0.915164
C89	C	1.005857	-0.910869	0.375667
C90	C	1.505857	-0.410869	0.875667
C91	C	1.167289	-0.401401	0.403088
C92	C	1.667289	0.098599	0.903088
C93	C	1.245247	-0.404669	0.406365
C94	C	1.745247	0.095331	0.906365
C95	C	0.976708	-0.400740	0.578967
C96	C	1.476708	0.099260	1.078967
C97	C	0.973452	-0.403726	0.657192
C98	C	1.473452	0.096274	1.157192
C99	C	0.992581	-0.210571	0.387953
C100	C	1.492581	0.289429	0.887953
C101	C	0.996089	-0.132518	0.384780
C102	C	1.496089	0.367482	0.884780
C103	C	0.992003	-0.386702	0.212547
C104	C	1.492003	0.113298	0.712547
C105	C	0.995403	-0.383524	0.134320
C106	C	1.495403	0.116476	0.634320
C107	C	1.018793	-0.362103	0.694003
C108	C	1.518793	0.137897	1.194003
C109	C	1.015725	-0.364906	0.767503
C110	C	1.515725	0.135094	1.267503
C111	C	0.967319	-0.409336	0.804192
C112	C	1.467319	0.090664	1.304192
C113	C	0.921973	-0.450962	0.767376
C114	C	1.421973	0.049038	1.267376
C115	C	0.925038	-0.448154	0.693877
C116	C	1.425038	0.051846	1.193877
C117	C	0.953123	-0.422342	1.024005
C118	C	1.453123	0.077658	1.524005
C119	C	0.950063	-0.425148	1.097510
C120	C	1.450063	0.074852	1.597510
C121	C	1.043814	-0.339090	1.097632
C122	C	1.543814	0.160910	1.597632
C123	C	1.046877	-0.336290	1.024131
C124	C	1.546877	0.163710	1.524131
C125	C	1.001529	-0.377913	0.987321
C126	C	1.501529	0.122087	1.487321
N127	N	0.964183	-0.412204	0.879321
N128	N	1.464183	0.087796	1.379321
N129	N	1.004662	-0.375041	0.912193
N130	N	1.504662	0.124959	1.412193
H131	H	0.259084	-0.320225	0.321804
H132	H	0.759084	0.179775	0.821804
O133	O	0.881072	-0.488698	0.658152
O134	O	1.381072	0.011302	1.158152
C135	C	0.892500	-0.560013	0.679614
C136	C	1.392500	-0.060013	1.179614
H137	H	0.947527	-0.566674	0.702328
H138	H	1.447527	-0.066674	1.202328
H139	H	0.886925	-0.592606	0.632432
H140	H	1.386925	-0.092606	1.132432
H141	H	0.852289	-0.578428	0.721435
H142	H	1.352289	-0.078428	1.221435
O143	O	0.398369	-0.318616	0.320347
O144	O	0.898369	0.181384	0.820347
C145	C	0.441118	-0.276636	0.360416
C146	C	0.941118	0.223364	0.860416
H147	H	0.416937	-0.273577	0.414756
H148	H	0.916937	0.226423	0.914756
H149	H	0.445424	-0.221621	0.332879
H150	H	0.945424	0.278379	0.832879
H151	H	0.495561	-0.300762	0.366012
H152	H	0.995561	0.199238	0.866012
H153	H	0.724388	-0.297829	0.299356
H154	H	1.224388	0.202171	0.799356
O155	O	0.586240	-0.284763	0.286232
O156	O	1.086240	0.215237	0.786232
C157	C	0.512903	-0.291734	0.293240
C158	C	1.012903	0.208266	0.793240
H159	H	0.499517	-0.346423	0.317987
H160	H	0.999517	0.153577	0.817987
H161	H	0.487464	-0.283708	0.239170
H162	H	0.987464	0.216292	0.739170
H163	H	0.492426	-0.250707	0.328227
H164	H	0.992426	0.249293	0.828227
O165	O	1.088302	-1.131859	0.299867
O166	O	1.588302	-0.631859	0.799867
C167	C	1.075069	-1.204424	0.312079
C168	C	1.575069	-0.704424	0.812079
H169	H	1.049345	-1.215546	0.365814
H170	H	1.549345	-0.715546	0.865814
H171	H	1.126582	-1.234271	0.310710
H172	H	1.626582	-0.734271	0.810710
H173	H	1.038580	-1.222134	0.269589
H174	H	1.538580	-0.722134	0.769589
O175	O	0.715360	-0.474876	0.476699
O176	O	1.215360	0.025124	0.976699
C177	C	0.663903	-0.514093	0.515958
C178	C	1.163903	-0.014093	1.015958
H179	H	0.612874	-0.483246	0.515084
H180	H	1.112874	0.016754	1.015084
H181	H	0.682430	-0.524669	0.572590
H182	H	1.182430	-0.024669	1.072590
H183	H	0.654795	-0.566074	0.491945
H184	H	1.154795	-0.066074	0.991945
O185	O	0.874218	-0.799670	0.497022
O186	O	1.374218	-0.299670	0.997022
C187	C	0.910352	-0.845437	0.545939
C188	C	1.410352	-0.345437	1.045939
H189	H	0.964074	-0.857670	0.523846
H190	H	1.464074	-0.357670	1.023846
H191	H	0.879110	-0.896193	0.556267
H192	H	1.379110	-0.396193	1.056267
H193	H	0.917092	-0.819456	0.597260
H194	H	1.417092	-0.319456	1.097260
O195	O	1.065836	-0.318881	0.658474
O196	O	1.565836	0.181119	1.158474
C197	C	1.105207	-0.282757	0.706730
C198	C	1.605207	0.217243	1.206730
H199	H	1.074403	-0.281123	0.757814
H200	H	1.574403	0.218877	1.257814
H201	H	1.116061	-0.226931	0.683561
H202	H	1.616061	0.273069	1.183561
H203	H	1.156994	-0.311003	0.717835
H204	H	1.656994	0.188997	1.217835
O205	O	0.880428	-0.655109	0.491059
O206	O	1.380428	-0.155109	0.991059
C207	C	0.837046	-0.703076	0.531081
C208	C	1.337046	-0.203076	1.031081
H209	H	0.833530	-0.754167	0.504300
H210	H	1.333530	-0.254167	1.004300
H211	H	0.782403	-0.679896	0.535359
H212	H	1.282403	-0.179896	1.035359
H213	H	0.860126	-0.713950	0.585946
H214	H	1.360126	-0.213950	1.085946
H215	H	0.911554	-1.125446	0.462685
H216	H	1.411554	-0.625446	0.962685
H217	H	0.910642	-0.461330	1.127379
H218	H	1.410642	0.038670	1.627379
H219	H	0.577438	-0.461725	0.463495
H220	H	1.077438	0.038275	0.963495
H221	H	1.086296	-0.300112	0.994264
H222	H	1.586296	0.199888	1.494264
H223	H	1.045250	-0.881126	0.339361
H224	H	1.545250	-0.381126	0.839361
O225	O	0.238689	-0.496868	0.498543
O226	O	0.738689	0.003132	0.998543
C227	C	0.254107	-0.566991	0.486666
C228	C	0.754107	-0.066991	0.986666
H229	H	0.276411	-0.569151	0.431417
H230	H	0.776411	-0.069151	0.931417
H231	H	0.204132	-0.599911	0.492081
H232	H	0.704132	-0.099911	0.992081
H233	H	0.294244	-0.588616	0.526894
H234	H	0.794244	-0.088616	1.026894
O235	O	1.064933	-0.655681	0.321126
O236	O	1.564933	-0.155681	0.821126
C237	C	1.104076	-0.703904	0.285063
C238	C	1.604076	-0.203904	0.785063
H239	H	1.102978	-0.757369	0.316145
H240	H	1.602978	-0.257369	0.816145
H241	H	1.160589	-0.684699	0.279048
H242	H	1.660589	-0.184699	0.779048
H243	H	1.080313	-0.708636	0.230838
H244	H	1.580313	-0.208636	0.730838
H245	H	1.052648	-0.331013	0.797471
H246	H	1.552648	0.168987	1.297471
H247	H	0.917412	-0.992393	0.457205
H248	H	1.417412	-0.492393	0.957205
O249	O	0.383025	-0.502730	0.504739
O250	O	0.883025	-0.002730	1.004739
C251	C	0.362887	-0.489434	0.573537
C252	C	0.862887	0.010566	1.073537
H253	H	0.345116	-0.432637	0.574055
H254	H	0.845116	0.067363	1.074055
H255	H	0.409344	-0.498879	0.610562
H256	H	0.909344	0.001121	1.110562
H257	H	0.317918	-0.526034	0.591627
H258	H	0.817918	-0.026034	1.091627
H259	H	0.923575	-0.905641	0.451472
H260	H	1.423575	-0.405641	0.951472
H261	H	1.080733	-0.305203	1.127610
H262	H	1.580733	0.194797	1.627610
H263	H	0.916207	-0.456245	0.994044
H264	H	1.416207	0.043755	1.494044
H265	H	1.051411	-0.794364	0.333625
H266	H	1.551411	-0.294364	0.833625
H267	H	0.882558	-0.487135	0.797254
H268	H	1.382558	0.012865	1.297254
O269	O	1.094761	-0.987276	0.293837
O270	O	1.594761	-0.487276	0.793837
C271	C	1.133907	-1.035495	0.257774
C272	C	1.633907	-0.535495	0.757774
H273	H	1.132806	-1.088964	0.288851
H274	H	1.632806	-0.588964	0.788851
H275	H	1.190422	-1.016291	0.251767
H276	H	1.690422	-0.516291	0.751767
H277	H	1.110151	-1.040222	0.203545
H278	H	1.610151	-0.540222	0.703545
