data_functionalizedCrystal
_audit_creation_method	'MofGen! by Chris Wilmer'
_symmetry_space_group_name_H-M	'P1'
_symmetry_Int_Tables_number	1
_symmetry_cell_setting	triclinic
loop_
_symmetry_equiv_pos_as_xyz
  x,y,z
_cell_length_a	11.792254
_cell_length_b	10.540535
_cell_length_c	10.268362
_cell_angle_alpha	89.993370
_cell_angle_beta	89.995475
_cell_angle_gamma	84.361120
loop_
_atom_site_label
_atom_site_type_symbol
_atom_site_fract_x
_atom_site_fract_y
_atom_site_fract_z
O1	O	1.507351	0.174069	-0.108303
O2	O	1.177058	0.191984	-0.108307
O3	O	1.349743	-0.001705	-0.108292
O4	O	1.334666	0.367758	-0.108318
O5	O	1.349727	-0.001713	0.108309
O6	O	1.177043	0.191976	0.108294
O7	O	1.507336	0.174061	0.108297
Cu8	Cu	1.342188	0.183018	0.128073
Cu9	Cu	1.342206	0.183027	-0.128082
O10	O	1.334651	0.367750	0.108282
C11	C	1.134757	0.190851	-0.000007
C12	C	1.008735	0.187474	-0.000008
C13	C	0.906391	0.184729	-0.000013
C14	C	0.777996	0.181297	-0.000014
C15	C	1.348605	-0.049008	0.000009
C16	C	1.345226	-0.189946	0.000011
C17	C	1.219145	-0.226212	0.000000
C18	C	1.215589	-0.372801	-0.000515
C19	C	1.402789	-0.399450	-0.123467
C20	C	1.405471	-0.252693	-0.123548
C21	C	1.407288	-0.252847	0.122777
C22	C	1.401457	-0.399175	0.124376
C23	C	1.549637	0.175194	-0.000006
C24	C	1.675659	0.178571	-0.000013
C25	C	1.335788	0.415053	-0.000021
C26	C	1.339168	0.555991	-0.000032
N27	N	1.342184	0.183010	0.308239
N28	N	1.342219	0.183025	-0.308248
C29	C	1.342200	0.183025	0.573909
C30	C	1.342187	0.183020	0.426071
H31	H	1.165823	-0.401989	0.087943
H32	H	1.491653	-0.448500	0.132202
H33	H	1.497900	-0.229958	-0.128803
H34	H	1.493778	-0.447098	-0.127711
H35	H	1.500049	-0.230949	0.123981
H36	H	1.359151	-0.430199	-0.215688
H37	H	1.171546	-0.182591	-0.088389
H38	H	1.170723	-0.184098	0.088510
H39	H	1.355160	-0.427643	0.215696
H40	H	1.166095	-0.401084	-0.089531
H41	H	1.362518	-0.212373	-0.216173
H42	H	1.367939	-0.210273	0.216374
