data_functionalizedCrystal
_audit_creation_method	'MofGen! by Chris Wilmer'
_symmetry_space_group_name_H-M	'P1'
_symmetry_Int_Tables_number	1
_symmetry_cell_setting	triclinic
loop_
_symmetry_equiv_pos_as_xyz
  x,y,z
_cell_length_a	12.837939
_cell_length_b	14.044220
_cell_length_c	11.295692
_cell_angle_alpha	85.771259
_cell_angle_beta	94.157927
_cell_angle_gamma	85.991242
loop_
_atom_site_label
_atom_site_type_symbol
_atom_site_fract_x
_atom_site_fract_y
_atom_site_fract_z
O1	O	-1.391626	0.242172	0.099017
O2	O	-0.891626	0.742172	0.599017
O3	O	-1.088685	0.229898	0.099022
O4	O	-0.588685	0.729898	0.599022
O5	O	-1.235609	0.097640	0.099008
O6	O	-0.735609	0.597640	0.599008
O7	O	-1.244702	0.374430	0.099031
O8	O	-0.744702	0.874430	0.599031
O9	O	-1.249206	0.110266	-0.099035
O10	O	-0.749206	0.610266	0.400965
O11	O	-1.102282	0.242523	-0.099021
O12	O	-0.602282	0.742523	0.400979
O13	O	-1.405223	0.254797	-0.099026
O14	O	-0.905223	0.754797	0.400974
Cu15	Cu	-1.254994	0.249813	-0.117107
Cu16	Cu	-0.754994	0.749813	0.382893
Cu17	Cu	-1.238914	0.234882	0.117102
Cu18	Cu	-0.738914	0.734882	0.617102
O19	O	-1.258299	0.387055	-0.099012
O20	O	-0.758299	0.887055	0.400988
C21	C	-1.056480	0.232064	0.000001
C22	C	-0.556480	0.732064	0.500001
C23	C	-0.940259	0.219696	0.000002
C24	C	-0.440259	0.719696	0.500002
C25	C	-1.238427	0.068279	-0.000014
C26	C	-0.738427	0.568279	0.499986
C27	C	-1.226553	-0.038019	-0.000016
C28	C	-0.726553	0.461981	0.499984
C29	C	-0.713049	0.368376	-0.000004
C30	C	-0.213049	0.868376	0.499996
C31	C	-0.603849	0.356761	-0.000004
C32	C	-0.103849	0.856761	0.499996
C33	C	-0.612658	0.184851	-0.000006
C34	C	-0.112658	0.684851	0.499994
C35	C	-0.721858	0.196467	-0.000006
C36	C	-0.221858	0.696467	0.499994
C37	C	-0.772049	0.288232	-0.000003
C38	C	-0.272049	0.788232	0.499997
C39	C	-0.881251	0.299846	0.000005
C40	C	-0.381251	0.799846	0.500005
C41	C	-0.890058	0.127938	-0.000006
C42	C	-0.390058	0.627938	0.499994
C43	C	-0.780858	0.116322	-0.000005
C44	C	-0.280858	0.616322	0.499995
C45	C	-1.204843	-0.232642	0.000002
C46	C	-0.704843	0.267358	0.500002
C47	C	-1.289060	-0.282669	0.000004
C48	C	-0.789060	0.217331	0.500004
C49	C	-1.276980	-0.390964	0.000014
C50	C	-0.776980	0.109036	0.500014
C51	C	-1.216921	-0.124337	-0.000008
C52	C	-0.716921	0.375663	0.499992
C53	C	-0.437429	0.252632	-0.000004
C54	C	0.062571	0.752632	0.499996
C55	C	-0.553649	0.265001	-0.000003
C56	C	-0.053649	0.765001	0.499997
C57	C	-1.255481	0.416416	0.000013
C58	C	-0.755481	0.916416	0.500013
C59	C	-1.267355	0.522714	0.000022
C60	C	-0.767355	1.022714	0.500022
N61	N	-1.266312	0.260314	-0.281836
N62	N	-0.766312	0.760314	0.218164
C63	C	-1.347946	0.335963	-0.468809
C64	C	-0.847946	0.835963	0.031191
C65	C	-1.339360	0.328020	-0.344150
C66	C	-0.839360	0.828020	0.155850
C67	C	-1.201842	0.200550	-0.344190
C68	C	-0.701842	0.700550	0.155810
C69	C	-1.210428	0.208493	-0.468848
C70	C	-0.710428	0.708493	0.031152
C71	C	-1.283483	0.276201	-0.531154
C72	C	-0.783483	0.776201	-0.031154
C73	C	-1.292074	0.284139	-0.655815
C74	C	-0.792074	0.784139	-0.155815
C75	C	-1.154552	0.156674	-0.655852
C76	C	-0.654552	0.656674	-0.155852
C77	C	-1.145966	0.148731	-0.531193
C78	C	-0.645966	0.648731	-0.031193
N79	N	-1.227604	0.224374	0.281832
N80	N	-0.727604	0.724374	0.781832
H81	H	-0.922115	0.374567	0.000005
H82	H	-0.422115	0.874567	0.500005
H83	H	-1.370227	-0.244172	0.000083
H84	H	-0.870227	0.255828	0.500083
H85	H	-1.123677	-0.271143	0.000006
H86	H	-0.623677	0.228857	0.500006
F87	F	-1.369827	0.356196	-0.722123
F88	F	-0.869827	0.856196	-0.222123
F89	F	-1.425706	0.408012	-0.535122
F90	F	-0.925706	0.908012	-0.035122
F91	F	-0.766468	0.466038	0.000013
F92	F	-0.266468	0.966038	0.500013
F93	F	-1.407967	0.391630	-0.277803
F94	F	-0.907967	0.891630	0.222197
F95	F	-1.124088	0.128505	-0.277860
F96	F	-0.624088	0.628505	0.222140
F97	F	-0.541060	0.442062	-0.000008
F98	F	-0.041060	0.942062	0.499992
F99	F	-0.559223	0.087196	-0.000022
F100	F	-0.059223	0.587196	0.499978
F101	F	-1.068216	0.076678	-0.464870
F102	F	-0.568216	0.576678	0.035130
F103	F	-0.727429	0.018664	-0.000012
F104	F	-0.227429	0.518664	0.499988
F105	F	-1.085951	0.093058	-0.722212
F106	F	-0.585951	0.593058	-0.222212
H107	H	-0.938107	0.062678	0.000003
H108	H	-0.438107	0.562678	0.500003
