data_functionalizedCrystal
_audit_creation_method	'MofGen! by Chris Wilmer'
_symmetry_space_group_name_H-M	'P1'
_symmetry_Int_Tables_number	1
_symmetry_cell_setting	triclinic
loop_
_symmetry_equiv_pos_as_xyz
  x,y,z
_cell_length_a	12.811445
_cell_length_b	11.295483
_cell_length_c	10.723024
_cell_angle_alpha	85.864673
_cell_angle_beta	84.255882
_cell_angle_gamma	99.539261
loop_
_atom_site_label
_atom_site_type_symbol
_atom_site_fract_x
_atom_site_fract_y
_atom_site_fract_z
O1	O	1.411685	0.251459	0.146871
O2	O	1.103879	0.218224	0.167947
O3	O	1.264882	0.235604	-0.024266
O4	O	1.250682	0.234079	0.339085
O5	O	1.250740	0.036026	-0.007410
O6	O	1.089738	0.018646	0.184804
O7	O	1.397543	0.051882	0.163728
Cu8	Cu	1.242349	0.017041	0.175805
Cu9	Cu	1.259073	0.253064	0.155870
O10	O	1.236541	0.034502	0.355941
C11	C	1.057396	0.114179	0.175710
C12	C	0.939958	0.101499	0.173711
N13	N	1.230595	-0.148964	0.189825
C14	C	0.734695	0.295272	0.151600
C15	C	0.624352	0.283363	0.149722
C16	C	0.608927	0.065772	0.168086
C17	C	0.719270	0.077682	0.169964
C18	C	0.782150	0.192435	0.161719
C19	C	0.892496	0.204344	0.163588
C20	C	0.877069	-0.013246	0.181961
C21	C	0.766726	-0.025155	0.180083
C22	C	1.355454	-0.384775	0.040844
C23	C	1.346579	-0.510397	0.051448
C24	C	1.203963	-0.525832	0.221631
C25	C	1.212839	-0.400210	0.211027
C26	C	1.288588	-0.329686	0.120632
C27	C	1.297468	-0.204061	0.110034
C28	C	1.154848	-0.219499	0.280210
C29	C	1.145972	-0.345121	0.290814
C30	C	1.444027	0.155929	0.155965
C31	C	1.561465	0.168617	0.157963
C32	C	1.256778	0.135705	-0.062323
C33	C	1.253686	0.135375	-0.200834
N34	N	1.270836	0.419071	0.141840
C35	C	1.343775	0.145104	-0.277082
C36	C	1.340582	0.144764	-0.420241
C37	C	1.244645	0.134403	0.393998
C38	C	1.247737	0.134741	0.532509
H39	H	0.943692	0.297782	0.156873
F40	F	0.699793	-0.147278	0.188863
H41	H	1.423267	0.153680	-0.236376
H42	H	1.174195	0.126800	-0.241541
H43	H	1.142283	-0.583270	0.295220
H44	H	0.915718	-0.096984	0.190198
F45	F	1.436081	-0.309716	-0.055349
H46	H	1.417704	0.153087	-0.485756
H47	H	1.170609	0.126403	-0.401982
H48	H	1.084296	-0.402557	0.364409
F49	F	1.417745	-0.569023	-0.033475
F50	F	0.801620	0.417400	0.142809
H51	H	0.585718	0.367104	0.141486
F52	F	0.541987	-0.056347	0.176880
F53	F	1.378089	-0.129006	0.013832
H54	H	1.100404	-0.174632	0.345182
