data_functionalizedCrystal
_audit_creation_method	'MofGen! by Chris Wilmer'
_symmetry_space_group_name_H-M	'P1'
_symmetry_Int_Tables_number	1
_symmetry_cell_setting	triclinic
loop_
_symmetry_equiv_pos_as_xyz
  x,y,z
_cell_length_a	11.026607
_cell_length_b	14.519709
_cell_length_c	10.065875
_cell_angle_alpha	98.804604
_cell_angle_beta	79.302338
_cell_angle_gamma	96.133081
loop_
_atom_site_label
_atom_site_type_symbol
_atom_site_fract_x
_atom_site_fract_y
_atom_site_fract_z
O1	O	1.628737	0.375708	-0.113512
O2	O	1.275335	0.331718	-0.113511
O3	O	1.461404	0.221020	-0.113499
O4	O	1.442668	0.486407	-0.113524
O5	O	1.425923	0.242237	0.113487
O6	O	1.239855	0.352935	0.113475
O7	O	1.593256	0.396926	0.113475
Zn8	Zn	1.410922	0.378299	0.149514
Zn9	Zn	1.457669	0.350345	-0.149550
O10	O	1.407187	0.507624	0.113463
C11	C	1.212366	0.334211	-0.000018
C12	C	1.077600	0.310019	-0.000017
C13	C	1.003940	0.376818	-0.000024
C14	C	0.864652	0.351815	-0.000024
C15	C	1.442790	0.197125	-0.000006
C16	C	1.440173	0.094312	-0.000005
C17	C	1.430544	-0.282174	-0.000040
C18	C	1.433218	-0.177425	-0.000030
C19	C	1.435358	-0.093934	-0.000021
C20	C	1.438033	0.010822	-0.000014
C21	C	1.656225	0.394432	-0.000022
C22	C	1.790993	0.418624	-0.000031
C23	C	1.425802	0.531519	-0.000034
C24	C	1.428420	0.634330	-0.000043
N25	N	1.379027	0.397378	0.353617
N26	N	1.489574	0.331260	-0.353654
C27	C	1.446564	0.356976	0.421401
C28	C	1.422027	0.371668	0.578566
H29	H	0.824606	0.276108	-0.000052
O30	O	0.838549	0.508993	0.000021
C31	C	0.743020	0.566242	-0.000023
H32	H	0.650172	0.530199	0.042952
H33	H	0.759415	0.636052	0.065871
H34	H	0.742225	0.578768	-0.108923
H35	H	1.346030	0.417134	0.636882
H36	H	1.303036	0.442841	0.411939
H37	H	1.043996	0.452517	-0.000024
H38	H	1.037548	0.234317	-0.000045
O39	O	1.537105	0.302689	0.351656
C40	C	1.484623	0.227373	0.269006
H41	H	1.393089	0.246503	0.247788
H42	H	1.550837	0.211810	0.168444
H43	H	1.467507	0.162904	0.323949
O44	O	1.579955	0.276761	0.576779
C45	C	1.527189	0.201448	0.494372
H46	H	1.435816	0.220770	0.472987
H47	H	1.593381	0.185563	0.393878
H48	H	1.509703	0.137112	0.549613
