data_functionalizedCrystal
_audit_creation_method	'MofGen! by Chris Wilmer'
_symmetry_space_group_name_H-M	'P1'
_symmetry_Int_Tables_number	1
_symmetry_cell_setting	triclinic
loop_
_symmetry_equiv_pos_as_xyz
  x,y,z
_cell_length_a	18.215407
_cell_length_b	13.897448
_cell_length_c	18.215399
_cell_angle_alpha	89.973253
_cell_angle_beta	89.980650
_cell_angle_gamma	90.018140
loop_
_atom_site_label
_atom_site_type_symbol
_atom_site_fract_x
_atom_site_fract_y
_atom_site_fract_z
Zn1	Zn	1.125105	-0.384009	-0.416124
Zn2	Zn	1.125030	-0.545320	-0.293061
Zn3	Zn	1.002039	-0.384042	-0.293072
Zn4	Zn	1.002019	-0.545265	-0.416086
O5	O	1.063548	-0.464659	-0.354586
O6	O	1.228080	-0.405417	-0.399811
O7	O	1.108692	-0.523963	-0.190078
O8	O	1.018404	-0.249056	-0.309415
O9	O	1.228024	-0.523931	-0.309398
O10	O	1.108820	-0.249032	-0.399821
O11	O	1.018331	-0.405473	-0.190086
O12	O	0.899052	-0.405419	-0.309378
O13	O	1.018370	-0.523838	-0.519076
O14	O	0.899037	-0.523869	-0.399757
O15	O	1.108801	-0.405364	-0.519103
O16	O	1.108673	-0.680294	-0.309361
O17	O	1.018297	-0.680254	-0.399747
C18	C	0.872342	-0.464643	-0.354565
C19	C	0.790543	-0.464659	-0.354573
C20	C	0.602361	-0.526433	-0.401574
C21	C	0.525502	-0.526436	-0.401583
C22	C	0.525488	-0.402903	-0.307614
C23	C	0.602345	-0.402896	-0.307609
C24	C	0.640780	-0.464666	-0.354588
C25	C	0.487064	-0.464676	-0.354602
C26	C	0.403730	-0.464679	-0.354612
C27	C	0.724119	-0.464662	-0.354579
C28	C	1.063495	-0.715274	-0.354565
C29	C	1.063539	-0.822487	-0.354580
C30	C	1.063616	-1.018782	-0.354626
C31	C	1.063571	-0.909550	-0.354603
C32	C	1.255501	-0.464676	-0.354607
C33	C	1.337300	-0.464684	-0.354617
C34	C	1.063592	-0.464591	-0.546539
C35	C	1.063610	-0.464562	-0.628338
C36	C	1.063622	-0.213066	-0.354623
C37	C	1.063654	-0.105852	-0.354639
C38	C	1.110724	-0.402789	-0.893411
C39	C	1.110716	-0.402815	-0.816552
C40	C	1.016555	-0.526195	-0.816513
C41	C	1.016568	-0.526173	-0.893370
C42	C	1.063652	-0.464464	-0.931818
C43	C	1.063630	-0.464512	-0.778101
C44	C	1.063620	-0.464541	-0.694768
C45	C	1.063663	-0.464437	-1.015157
C46	C	1.063548	-0.464658	-0.163380
C47	C	1.063672	-0.464415	-0.081581
H48	H	0.633652	-0.576728	-0.439829
H49	H	1.149048	-0.352594	-0.785285
H50	H	0.633626	-0.352592	-0.269347
H51	H	0.978220	-0.576434	-0.785200
Cl52	Cl	0.957391	-0.603720	-0.941657
Cl53	Cl	0.477208	-0.604087	-0.460656
H54	H	0.494185	-0.352613	-0.269364
H55	H	1.149063	-0.352542	-0.924713
