data_functionalizedCrystal
_audit_creation_method	'MofGen! by Chris Wilmer'
_symmetry_space_group_name_H-M	'P1'
_symmetry_Int_Tables_number	1
_symmetry_cell_setting	triclinic
loop_
_symmetry_equiv_pos_as_xyz
  x,y,z
_cell_length_a	12.811439
_cell_length_b	12.837932
_cell_length_c	11.295483
_cell_angle_alpha	94.533169
_cell_angle_beta	88.711249
_cell_angle_gamma	90.588818
loop_
_atom_site_label
_atom_site_type_symbol
_atom_site_fract_x
_atom_site_fract_y
_atom_site_fract_z
O1	O	-1.403250	0.143339	0.052506
O2	O	-1.101287	0.156245	0.019899
O3	O	-1.245572	-0.001190	0.035478
O4	O	-1.258965	0.300775	0.036926
O5	O	-1.232897	0.012616	0.232160
O6	O	-1.088612	0.170052	0.216581
O7	O	-1.390575	0.157146	0.249188
Cu8	Cu	-1.238436	0.164859	0.250843
Cu9	Cu	-1.253426	0.148532	0.018244
O10	O	-1.246290	0.314581	0.233608
C11	C	-1.056031	0.162003	0.114037
C12	C	-0.940066	0.158578	0.101514
C13	C	-0.708334	0.167175	0.292429
C14	C	-0.599374	0.163957	0.280669
C15	C	-0.613184	0.148915	0.066234
C16	C	-0.722144	0.152134	0.077994
C17	C	-0.769715	0.161265	0.191096
C18	C	-0.878677	0.164491	0.202855
C19	C	-0.892485	0.149442	-0.011579
C20	C	-0.783525	0.146224	-0.023339
C21	C	-1.234710	-0.032962	0.133328
C22	C	-1.221218	-0.148200	0.131863
C23	C	-0.435830	0.151392	0.155050
C24	C	-0.551795	0.154828	0.167575
C25	C	-1.108442	-0.299385	0.119686
C26	C	-1.121114	-0.191108	0.121053
C27	C	-1.308658	-0.213578	0.141304
C28	C	-1.295987	-0.321854	0.139938
C29	C	-1.195876	-0.364754	0.129130
C30	C	-1.183205	-0.473032	0.127773
C31	C	-1.370748	-0.495500	0.148015
C32	C	-1.383420	-0.387223	0.149381
C33	C	-1.257152	0.346353	0.135756
C34	C	-1.270644	0.461590	0.137214
N35	N	-1.227901	0.176343	0.414442
N36	N	-1.263968	0.137040	-0.145354
C37	C	-1.339802	0.054318	0.675814
C38	C	-1.331848	0.063004	0.799619
C39	C	-1.204035	0.202394	0.785858
C40	C	-1.211989	0.193708	0.662053
C41	C	-1.279876	0.119669	0.607036
C42	C	-1.287834	0.110989	0.483229
C43	C	-1.160016	0.250374	0.469470
C44	C	-1.152062	0.259059	0.593275
H45	H	-0.917407	0.171933	0.294948
H46	H	-1.380645	0.009787	0.855615
O47	O	-1.101756	0.313972	0.402838
C48	C	-0.974100	0.453105	0.402254
C49	C	-1.040029	0.381161	0.477857
H50	H	-0.924160	0.507430	0.462874
H51	H	-1.027946	0.501520	0.349732
H52	H	-0.921329	0.403564	0.338166
H53	H	-1.092806	0.430621	0.542011
H54	H	-0.986123	0.332740	0.530298
O55	O	-0.754385	0.176005	0.402377
C56	C	-0.729190	0.190658	0.613826
C57	C	-0.676906	0.180636	0.489381
H58	H	-0.666572	0.194427	0.684202
H59	H	-0.782161	0.120055	0.625021
H60	H	-0.777553	0.264991	0.624377
H61	H	-0.628489	0.106344	0.478744
H62	H	-0.623996	0.251292	0.478243
H63	H	-0.744778	0.138784	-0.115423
H64	H	-0.549401	0.168775	0.363185
O65	O	-1.011208	-0.341097	0.109406
C66	C	-0.881524	-0.443205	0.197981
C67	C	-0.991654	-0.396007	0.209787
H68	H	-0.865688	-0.487629	0.279114
H69	H	-0.821157	-0.377917	0.191543
H70	H	-0.876224	-0.499072	0.114488
H71	H	-0.997056	-0.340151	0.293276
H72	H	-1.051969	-0.461349	0.216157
O73	O	-0.566903	0.140226	-0.043595
C74	C	-0.448927	0.217536	-0.181581
C75	C	-0.501290	0.227519	-0.057177
H76	H	-0.395850	0.288091	-0.192593
H77	H	-0.511460	0.213927	-0.252053
H78	H	-0.400649	0.143146	-0.192166
H79	H	-0.549563	0.301904	-0.046477
H80	H	-0.438707	0.231068	0.013233
H81	H	-0.942473	0.144636	-0.094092
O82	O	-1.086025	-0.514842	0.117119
C83	C	-0.969428	-0.631154	0.001881
C84	C	-1.079531	-0.583907	0.013823
H85	H	-0.964134	-0.686986	-0.081642
H86	H	-0.953477	-0.675577	0.082986
H87	H	-0.909130	-0.565809	-0.004579
H88	H	-1.139898	-0.649187	0.020249
H89	H	-1.095393	-0.539457	-0.067285
H90	H	-1.049916	-0.137888	0.113361
O91	O	-1.086208	0.330953	0.646918
C92	C	-1.017264	0.406070	0.831541
C93	C	-1.091900	0.324618	0.770950
H94	H	-1.021825	0.400960	0.931829
H95	H	-1.040670	0.487687	0.809647
H96	H	-0.933977	0.389814	0.797984
H97	H	-1.175210	0.340776	0.804473
H98	H	-1.068405	0.243027	0.792840
H99	H	-1.390159	-0.178624	0.150177
H100	H	-1.464927	-0.352279	0.158185
H101	H	-1.441943	-0.548735	0.155707
O102	O	-1.353792	0.038983	0.429968
C103	C	-1.479764	-0.098320	0.456695
C104	C	-1.405092	-0.016830	0.517158
H105	H	-1.521277	-0.143452	0.527162
H106	H	-1.433362	-0.154860	0.393362
H107	H	-1.539990	-0.056917	0.404790
H108	H	-1.344850	-0.058144	0.569126
H109	H	-1.451564	0.039705	0.580423
O110	O	-1.405765	-0.017682	0.622550
C111	C	-1.531759	-0.154967	0.649266
C112	C	-1.457078	-0.073489	0.709736
H113	H	-1.573282	-0.200095	0.719730
H114	H	-1.485362	-0.211512	0.585934
H115	H	-1.591977	-0.113554	0.597360
H116	H	-1.396845	-0.114813	0.761705
H117	H	-1.503544	-0.016949	0.773001
H118	H	-1.148756	0.262668	0.830669
