data_functionalizedCrystal
_audit_creation_method	'MofGen! by Chris Wilmer'
_symmetry_space_group_name_H-M	'P1'
_symmetry_Int_Tables_number	1
_symmetry_cell_setting	triclinic
loop_
_symmetry_equiv_pos_as_xyz
  x,y,z
_cell_length_a	13.635800
_cell_length_b	10.992723
_cell_length_c	17.982968
_cell_angle_alpha	85.811984
_cell_angle_beta	102.451960
_cell_angle_gamma	71.229715
loop_
_atom_site_label
_atom_site_type_symbol
_atom_site_fract_x
_atom_site_fract_y
_atom_site_fract_z
V1	V	2.021121	-0.178966	0.237542
O2	O	2.000852	0.007362	0.233027
O3	O	2.010174	-0.353669	0.235911
O4	O	1.994207	-0.176757	0.341145
O5	O	2.016930	-0.170775	0.127064
V6	V	2.261570	-0.156615	0.224329
O7	O	2.154631	-0.227995	0.266526
O8	O	2.353158	-0.107586	0.195344
O9	O	2.160913	0.018088	0.225960
O10	O	2.340537	-0.342943	0.228843
O11	O	2.324459	-0.164806	0.334806
O12	O	2.176880	-0.158824	0.120725
V13	V	2.521121	-0.178966	0.237542
O14	O	2.500852	0.007362	0.233027
O15	O	2.510174	-0.353669	0.235911
O16	O	2.494207	-0.176757	0.341145
O17	O	2.516930	-0.170775	0.127064
V18	V	2.761570	-0.156615	0.224329
O19	O	2.654631	-0.227995	0.266526
O20	O	2.853158	-0.107586	0.195344
O21	O	2.660913	0.018088	0.225960
O22	O	2.840537	-0.342943	0.228843
O23	O	2.824459	-0.164806	0.334806
O24	O	2.676880	-0.158824	0.120725
C25	C	1.935987	-0.396240	0.232162
C26	C	1.967661	-0.539065	0.231518
C27	C	2.123113	-0.750023	0.234906
C28	C	2.090329	-0.601549	0.235869
C29	C	1.945498	-0.608635	0.302085
C30	C	1.979168	-0.757305	0.301503
C31	C	1.935565	-0.718293	0.155853
C32	C	1.904420	-0.569571	0.155645
C33	C	1.915618	-0.170570	0.366397
C34	C	1.934343	-0.169919	0.451094
C35	C	2.066773	0.060653	0.229707
C36	C	2.024717	0.203476	0.230355
C37	C	2.087140	-0.165015	0.095469
C38	C	2.058035	-0.165659	0.010772
C39	C	2.435987	-0.396240	0.232162
C40	C	2.467661	-0.539065	0.231518
C41	C	2.415618	-0.170570	0.366397
C42	C	2.434343	-0.169919	0.451094
C43	C	2.034588	-0.176052	0.494765
C44	C	2.052175	-0.175440	0.574346
C45	C	1.969518	-0.168704	0.610254
C46	C	1.869264	-0.162567	0.566577
C47	C	1.851676	-0.163170	0.486997
C48	C	1.940193	-0.160134	0.887514
C49	C	1.957791	-0.159536	0.967100
C50	C	2.140693	-0.172404	0.974863
C51	C	2.123105	-0.173007	0.895283
C52	C	2.022851	-0.166863	0.851611
C53	C	2.003781	-0.167524	0.765321
C54	C	1.988589	-0.168052	0.696544
C55	C	2.566773	0.060653	0.229707
C56	C	2.524717	0.203476	0.230355
C57	C	2.587140	-0.165015	0.095469
C58	C	2.558035	-0.165659	0.010772
C59	C	2.534592	-0.176039	0.494751
C60	C	2.552195	-0.175411	0.574331
C61	C	2.469551	-0.168672	0.610253
C62	C	2.369292	-0.162548	0.566589
C63	C	2.351688	-0.163167	0.487010
C64	C	2.458448	-0.172384	-0.025130
C65	C	2.431081	-0.172973	-0.104713
C66	C	2.503306	-0.166848	-0.148391
C67	C	2.602901	-0.160119	-0.112484
C68	C	2.630263	-0.159520	-0.032903
C69	C	2.402301	-0.734328	0.226313
C70	C	2.369191	-0.585684	0.226680
C71	C	2.513743	-0.577341	0.160469
C72	C	2.545988	-0.725882	0.159720
C73	C	2.589659	-0.765202	0.305369
C74	C	2.554885	-0.616695	0.306908
H75	H	2.110428	-0.554143	0.185432
H76	H	2.481018	-0.167353	-0.213188
H77	H	1.858574	-0.155177	0.851970
H78	H	2.661698	-0.155129	-0.148059
H79	H	2.270054	-0.158186	0.451470
N80	N	2.652490	-0.576736	0.317415
H81	H	2.684552	-0.594360	0.271944
H82	H	2.707006	-0.628195	0.366286
N83	N	2.323669	-0.180255	-0.143426
H84	H	2.317282	-0.179700	-0.200468
H85	H	2.264760	-0.102911	-0.135206
N86	N	1.780115	-0.155316	0.605306
H87	H	1.713940	-0.151521	0.565562
H88	H	1.763866	-0.074733	0.630764
N89	N	2.380541	-0.178999	0.021971
H90	H	2.313304	-0.183344	-0.012860
H91	H	2.361973	-0.098976	0.047765
N92	N	2.210883	-0.822076	0.306104
H93	H	2.277727	-0.871950	0.290565
H94	H	2.187089	-0.884642	0.335390
N95	N	2.610015	-0.537278	0.161540
H96	H	2.638311	-0.562829	0.115355
H97	H	2.667542	-0.582202	0.210347
H98	H	2.483900	-0.168170	0.675052
H99	H	1.770039	-0.158145	0.451437
H100	H	2.190416	-0.178498	0.866051
H101	H	2.302008	-0.157062	0.595849
N102	N	2.431835	-0.505128	0.086538
H103	H	2.413820	-0.569599	0.053787
H104	H	2.462017	-0.449817	0.057455
H105	H	2.222325	-0.177401	1.010429
N106	N	2.574681	-0.831146	0.376591
H107	H	2.600755	-0.928376	0.377372
H108	H	2.496266	-0.799411	0.376045
H109	H	2.159582	-0.774933	0.184167
H110	H	1.906995	-0.788336	0.301308
N111	N	2.123740	-0.183300	0.456039
H112	H	2.097390	-0.182751	0.398998
H113	H	2.186316	-0.266054	0.479039
N114	N	2.737678	-0.152265	0.005815
H115	H	2.779272	-0.148477	-0.033935
H116	H	2.778952	-0.231792	0.046057
N117	N	2.281594	-0.515844	0.154976
H118	H	2.259696	-0.418884	0.154917
H119	H	2.217809	-0.543940	0.154139
N120	N	1.828456	-0.555073	0.301430
H121	H	1.788579	-0.485027	0.255273
H122	H	1.820768	-0.517069	0.350210
N123	N	2.660336	-0.182018	0.621408
H124	H	2.716807	-0.264996	0.616649
H125	H	2.658865	-0.180540	0.677252
N126	N	1.868628	-0.152298	1.005820
H127	H	1.806019	-0.069541	0.982885
H128	H	1.895067	-0.152919	1.062858
H129	H	2.332928	-0.560177	0.277447
N130	N	2.511875	-0.585422	0.376541
H131	H	2.436209	-0.521234	0.359333
H132	H	2.558461	-0.546412	0.411229
N133	N	2.375139	-0.796117	0.293195
H134	H	2.393171	-0.892354	0.291674
H135	H	2.296184	-0.754722	0.289497
N136	N	2.005533	-0.582277	0.376460
H137	H	2.047127	-0.525330	0.364610
H138	H	2.056630	-0.667285	0.408510
N139	N	1.972565	-0.751640	0.084190
H140	H	2.047502	-0.817807	0.099296
H141	H	1.972240	-0.670417	0.053858
H142	H	2.601899	-0.181530	0.465515
N143	N	2.336465	-0.761180	0.154673
H144	H	2.385650	-0.813466	0.124841
H145	H	2.287718	-0.676112	0.121475
N146	N	2.662719	-0.780050	0.159574
H147	H	2.693019	-0.707417	0.159992
H148	H	2.669783	-0.821514	0.111791
H149	H	2.499143	-0.743111	0.103309
N150	N	1.926719	-0.507502	0.086429
H151	H	1.977572	-0.459816	0.104138
H152	H	1.857419	-0.444121	0.052207
H153	H	2.140697	-0.583179	0.290317
N154	N	2.708030	-0.819669	0.310303
H155	H	2.719642	-0.864430	0.264216
H156	H	2.745781	-0.884373	0.359127
H157	H	1.814262	-0.525453	0.148040
N158	N	2.061583	-0.826341	0.375814
H159	H	2.126026	-0.798403	0.380177
H160	H	2.084144	-0.923393	0.376129
H161	H	1.861793	-0.747467	0.151818
H162	H	2.133802	-0.180426	0.609899
