data_functionalizedCrystal
_audit_creation_method	'MofGen! by Chris Wilmer'
_symmetry_space_group_name_H-M	'P1'
_symmetry_Int_Tables_number	1
_symmetry_cell_setting	triclinic
loop_
_symmetry_equiv_pos_as_xyz
  x,y,z
_cell_length_a	17.699083
_cell_length_b	16.992695
_cell_length_c	16.776229
_cell_angle_alpha	89.993259
_cell_angle_beta	89.998886
_cell_angle_gamma	86.975619
loop_
_atom_site_label
_atom_site_type_symbol
_atom_site_fract_x
_atom_site_fract_y
_atom_site_fract_z
O1	O	1.010251	0.099146	-0.066177
O2	O	1.510251	0.599146	0.433823
O3	O	0.790676	0.112045	-0.066203
O4	O	1.290676	0.612045	0.433797
O5	O	0.899583	-0.008546	-0.066184
O6	O	1.399583	0.491454	0.433816
O7	O	0.901344	0.219736	-0.066196
O8	O	1.401344	0.719736	0.433804
O9	O	0.899568	-0.008553	0.066393
O10	O	1.399568	0.491447	0.566393
O11	O	0.790660	0.112037	0.066374
O12	O	1.290660	0.612037	0.566374
O13	O	1.010235	0.099138	0.066400
O14	O	1.510235	0.599138	0.566400
Zn15	Zn	0.900445	0.105587	0.087436
Zn16	Zn	1.400445	0.605587	0.587436
Zn17	Zn	0.900466	0.105596	-0.087239
Zn18	Zn	1.400466	0.605596	0.412761
O19	O	0.901328	0.219729	0.066381
O20	O	1.401328	0.719729	0.566381
C21	C	0.762442	0.111579	0.000082
C22	C	1.262442	0.611579	0.500082
C23	C	0.678338	0.110192	0.000072
C24	C	1.178338	0.610192	0.500072
C25	C	0.634124	0.180976	0.000069
C26	C	1.134124	0.680976	0.500069
C27	C	0.555099	0.179669	0.000079
C28	C	1.055099	0.679669	0.500079
C29	C	0.520290	0.107576	0.000087
C30	C	1.020290	0.607576	0.500087
C31	C	0.564510	0.036787	0.000093
C32	C	1.064510	0.536787	0.500093
C33	C	0.643533	0.038095	0.000089
C34	C	1.143533	0.538095	0.500089
C35	C	0.245818	0.031509	0.000113
C36	C	0.745818	0.531509	0.500113
C37	C	0.166789	0.030206	0.000116
C38	C	0.666789	0.530206	0.500116
C39	C	0.157384	0.173082	0.000104
C40	C	0.657384	0.673082	0.500104
C41	C	0.236408	0.174391	0.000099
C42	C	0.736408	0.674391	0.500099
C43	C	0.280621	0.103602	0.000109
C44	C	0.780621	0.603602	0.500109
C45	C	0.366308	0.105020	0.000099
C46	C	0.866308	0.605020	0.500099
C47	C	0.434604	0.106157	0.000091
C48	C	0.934604	0.606157	0.500091
C49	C	0.897311	-0.037758	0.000104
C50	C	1.397311	0.462242	0.500104
C51	C	0.890554	-0.124789	0.000103
C52	C	1.390554	0.375211	0.500103
C53	C	0.955751	-0.175154	0.000112
C54	C	1.455751	0.324846	0.500112
C55	C	0.949398	-0.256928	0.000104
C56	C	1.449398	0.243072	0.500104
C57	C	0.877846	-0.288336	0.000092
C58	C	1.377846	0.211664	0.500092
C59	C	0.812643	-0.237965	0.000081
C60	C	1.312643	0.262035	0.500081
C61	C	0.818998	-0.156192	0.000084
C62	C	1.318998	0.343808	0.500084
C63	C	0.851510	-0.531884	0.000078
C64	C	1.351510	-0.031884	0.500078
C65	C	0.845160	-0.613663	0.000078
C66	C	1.345160	-0.113663	0.500078
C67	C	0.981915	-0.632621	0.000099
C68	C	1.481915	-0.132621	0.500099
C69	C	0.988263	-0.550845	0.000106
C70	C	1.488263	-0.050845	0.500106
C71	C	0.923061	-0.500481	0.000091
C72	C	1.423061	-0.000481	0.500091
N73	N	0.871350	-0.371923	0.000086
N74	N	1.371350	0.128077	0.500086
N75	N	0.929558	-0.416897	0.000091
N76	N	1.429558	0.083103	0.500091
C77	C	1.038469	0.099604	0.000113
C78	C	1.538469	0.599604	0.500113
C79	C	1.122574	0.100991	0.000118
C80	C	1.622574	0.600991	0.500118
C81	C	0.903601	0.248941	0.000091
C82	C	1.403601	0.748941	0.500091
C83	C	0.910358	0.335972	0.000087
C84	C	1.410358	0.835972	0.500087
N85	N	0.900437	0.105579	0.206647
N86	N	1.400437	0.605579	0.706647
N87	N	0.900481	0.105597	-0.206450
N88	N	1.400481	0.605597	0.293550
C89	C	0.948678	0.052204	0.248373
C90	C	1.448678	0.552204	0.748373
C91	C	0.948682	0.052203	0.331825
C92	C	1.448682	0.552203	0.831825
C93	C	0.900448	0.105582	0.373550
C94	C	1.400448	0.605582	0.873550
C95	C	0.852202	0.158961	0.331819
C96	C	1.352202	0.658961	0.831819
C97	C	0.852194	0.158957	0.248368
C98	C	1.352194	0.658957	0.748368
C99	C	0.852230	0.158976	0.668366
C100	C	1.352230	0.658976	1.168366
C101	C	0.852243	0.158977	0.751822
C102	C	1.352243	0.658977	1.251822
C103	C	0.948718	0.052222	0.751823
C104	C	1.448718	0.552222	1.251823
C105	C	0.948710	0.052219	0.668372
C106	C	1.448710	0.552219	1.168372
C107	C	0.900461	0.105594	0.626648
C108	C	1.400461	0.605594	1.126648
C109	C	0.900456	0.105593	0.536160
C110	C	1.400456	0.605593	1.036160
C111	C	0.900456	0.105588	0.464037
C112	C	1.400456	0.605588	0.964037
H113	H	0.519103	0.237308	0.000075
H114	H	1.019103	0.737308	0.500075
H115	H	0.987963	0.008740	0.365798
H116	H	1.487963	0.508740	0.865798
C117	C	0.799165	0.217692	0.622480
C118	C	1.299165	0.717692	1.122480
H119	H	0.770448	0.249488	0.659284
H120	H	1.270448	0.749488	1.159284
H121	H	0.765953	0.189533	0.589934
H122	H	1.265953	0.689533	1.089934
H123	H	0.828362	0.250296	0.589918
H124	H	1.328362	0.750296	1.089918
C125	C	0.747283	-0.100788	0.000074
C126	C	1.247283	0.399212	0.500074
H127	H	0.761314	-0.047589	0.000069
H128	H	1.261314	0.452411	0.500069
H129	H	0.718137	-0.110297	0.046301
H130	H	1.218137	0.389703	0.546301
H131	H	0.718157	-0.110290	-0.046170
H132	H	1.218157	0.389710	0.453830
H133	H	0.812925	0.202421	0.365796
H134	H	1.312925	0.702421	0.865796
C135	C	1.021115	-0.312326	0.000121
C136	C	1.521115	0.187674	0.500121
H137	H	1.064639	-0.281909	0.000140
H138	H	1.564639	0.218091	0.500140
H139	H	1.021493	-0.344616	-0.046111
H140	H	1.521493	0.155384	0.453889
H141	H	1.021467	-0.344624	0.046360
H142	H	1.521467	0.155376	0.546360
C143	C	0.779789	-0.476494	0.000076
C144	C	1.279789	0.023506	0.500076
H145	H	0.736268	-0.506914	0.000080
H146	H	1.236268	-0.006914	0.500080
H147	H	0.779424	-0.444192	-0.046154
H148	H	1.279424	0.055808	0.453846
H149	H	0.779423	-0.444210	0.046316
H150	H	1.279423	0.055790	0.546316
C151	C	1.001765	-0.006501	0.622479
C152	C	1.501765	0.493499	1.122479
H153	H	1.030491	-0.038296	0.659282
H154	H	1.530491	0.461704	1.159282
H155	H	1.034968	0.021657	0.589913
H156	H	1.534968	0.521657	1.089913
H157	H	0.972558	-0.039105	0.589937
H158	H	1.472558	0.460895	1.089937
C159	C	0.799132	0.217673	0.202470
C160	C	1.299132	0.717673	0.702470
H161	H	0.770412	0.249470	0.239270
H162	H	1.270412	0.749470	0.739270
H163	H	0.765923	0.189510	0.169924
H164	H	1.265923	0.689510	0.669924
H165	H	0.828329	0.250276	0.169908
H166	H	1.328329	0.750276	0.669908
H167	H	0.679531	-0.019545	0.000091
H168	H	1.179531	0.480455	0.500091
H169	H	0.754384	-0.263544	0.000067
H170	H	1.254384	0.236456	0.500067
H171	H	0.662460	0.239682	0.000061
H172	H	1.162460	0.739682	0.500061
H173	H	0.138450	-0.028504	0.000123
H174	H	0.638450	0.471496	0.500123
H175	H	1.014017	-0.149588	0.000126
H176	H	1.514017	0.350412	0.500126
H177	H	0.264745	0.233096	0.000089
H178	H	0.764745	0.733096	0.500089
C179	C	0.108748	0.250950	0.000103
C180	C	0.608748	0.750950	0.500103
H181	H	0.056699	0.239850	0.000116
H182	H	0.556699	0.739850	0.500116
H183	H	0.119764	0.280519	-0.046133
H184	H	0.619764	0.780519	0.453867
H185	H	0.119771	0.280514	0.046338
H186	H	0.619771	0.780514	0.546338
C187	C	1.066971	-0.516302	0.000108
C188	C	1.566971	-0.016302	0.500108
H189	H	1.104891	-0.558010	0.000104
H190	H	1.604891	-0.058010	0.500104
H191	H	1.072290	-0.484800	0.046339
H192	H	1.572290	0.015200	0.546339
H193	H	1.072292	-0.484793	-0.046131
H194	H	1.572292	0.015207	0.453869
C195	C	1.001783	-0.006498	0.797722
C196	C	1.501783	0.493502	1.297722
H197	H	0.994876	0.001140	0.853398
H198	H	1.494876	0.501140	1.353398
H199	H	1.052803	0.001951	0.784039
H200	H	1.552803	0.501951	1.284039
H201	H	0.990397	-0.058815	0.784051
H202	H	1.490397	0.441185	1.284051
C203	C	0.294442	-0.046356	0.000119
C204	C	0.794442	0.453644	0.500119
H205	H	0.262391	-0.089476	0.000116
H206	H	0.762391	0.410524	0.500116
H207	H	0.325465	-0.048821	0.046351
H208	H	0.825465	0.451179	0.546351
H209	H	0.325464	-0.048815	-0.046120
H210	H	0.825464	0.451185	0.453880
C211	C	1.053634	-0.688018	0.000107
C212	C	1.553634	-0.188018	0.500107
H213	H	1.097156	-0.657600	0.000119
H214	H	1.597156	-0.157600	0.500119
H215	H	1.054004	-0.720306	-0.046126
H216	H	1.554004	-0.220306	0.453874
H217	H	1.053993	-0.720317	0.046345
H218	H	1.553993	-0.220317	0.546345
H219	H	0.786891	-0.639232	0.000082
H220	H	1.286891	-0.139232	0.500082
C221	C	0.526222	-0.042513	0.000101
C222	C	1.026222	0.457487	0.500101
H223	H	0.472826	-0.033156	0.000095
H224	H	0.972826	0.466844	0.500095
H225	H	0.541105	-0.071657	0.046334
H226	H	1.041105	0.428343	0.546334
H227	H	0.541106	-0.071647	-0.046137
H228	H	1.041106	0.428353	0.453863
C229	C	1.001740	-0.006507	0.202479
C230	C	1.501740	0.493493	0.702479
H231	H	0.994835	0.001140	0.146802
H232	H	1.494835	0.501140	0.646802
H233	H	0.990367	-0.058823	0.216163
H234	H	1.490367	0.441177	0.716163
H235	H	1.052763	0.001954	0.216152
H236	H	1.552763	0.501954	0.716152
H237	H	0.812962	0.202447	0.785794
H238	H	1.312962	0.702447	1.285794
