data_functionalizedCrystal
_audit_creation_method	'MofGen! by Chris Wilmer'
_symmetry_space_group_name_H-M	'P1'
_symmetry_Int_Tables_number	1
_symmetry_cell_setting	triclinic
loop_
_symmetry_equiv_pos_as_xyz
  x,y,z
_cell_length_a	15.537862
_cell_length_b	11.792241
_cell_length_c	14.750779
_cell_angle_alpha	77.269352
_cell_angle_beta	97.573514
_cell_angle_gamma	65.728925
loop_
_atom_site_label
_atom_site_type_symbol
_atom_site_fract_x
_atom_site_fract_y
_atom_site_fract_z
O1	O	1.227830	-0.335012	-0.079773
O2	O	0.954221	-0.204204	-0.079787
O3	O	1.097667	-0.437566	-0.079772
O4	O	1.084384	-0.101649	-0.079787
O5	O	1.138217	-0.503530	0.079882
O6	O	0.994772	-0.270167	0.079868
O7	O	1.268380	-0.400975	0.079882
Zn8	Zn	1.138014	-0.346044	0.105223
Zn9	Zn	1.084587	-0.259135	-0.105128
O10	O	1.124934	-0.167613	0.079868
C11	C	0.939468	-0.223499	0.000039
C12	C	0.835096	-0.182731	0.000034
C13	C	0.677309	-0.017485	0.000023
C14	C	0.775383	-0.055805	0.000027
C15	C	0.796752	-0.271389	0.000041
C16	C	0.698678	-0.233089	0.000041
C17	C	0.638964	-0.106135	0.000031
C18	C	0.660333	-0.321739	0.000049
C19	C	0.562266	-0.283440	0.000044
C20	C	0.502545	-0.156490	0.000031
C21	C	0.540897	-0.067835	0.000026
C22	C	0.720047	-0.448690	0.000052
C23	C	0.681702	-0.537340	0.000061
C24	C	0.583636	-0.499044	0.000063
C25	C	0.523915	-0.372094	0.000050
C26	C	0.545284	-0.587699	0.000068
C27	C	0.447217	-0.549399	0.000063
C28	C	0.425848	-0.333794	0.000045
C29	C	1.117108	-0.512489	0.000054
C30	C	1.114611	-0.637455	0.000053
C31	C	1.110016	-0.866235	0.000037
C32	C	1.112569	-0.738923	0.000046
C33	C	1.283132	-0.381679	0.000054
C34	C	1.387503	-0.422445	0.000053
C35	C	1.105493	-0.092689	0.000039
C36	C	1.107988	0.032279	0.000034
N37	N	1.174483	-0.405361	0.248783
N38	N	1.048125	-0.199830	-0.248687
C39	C	0.946272	-0.034216	0.600578
C40	C	0.971834	-0.075777	0.701080
C41	C	1.098882	-0.282373	0.701055
C42	C	1.073327	-0.240832	0.600551
C43	C	0.997022	-0.116752	0.550321
C44	C	1.124077	-0.323368	0.550294
C45	C	1.098527	-0.281827	0.449799
C46	C	1.022227	-0.157750	0.399562
C47	C	0.971472	-0.075211	0.449826
C48	C	1.200386	-0.447444	0.600526
C49	C	1.251137	-0.529980	0.550269
C50	C	1.225583	-0.488443	0.449772
C51	C	1.149283	-0.364367	0.399535
C52	C	1.276338	-0.570983	0.399508
C53	C	1.250788	-0.529442	0.299013
C54	C	1.123733	-0.322826	0.299040
H55	H	0.806601	0.016390	0.000032
F56	F	0.824418	-0.489447	0.000052
H57	H	1.001429	-0.123927	0.317732
F58	F	1.357554	-0.703028	0.452978
H59	H	1.221189	-0.481260	0.682356
H60	H	0.730334	-0.640705	0.000065
F61	F	0.477343	0.067278	0.000032
F62	F	0.406407	-0.643753	0.000079
H63	H	0.884130	0.066817	0.559679
F64	F	0.608845	-0.722804	0.000069
H65	H	1.061591	-0.221792	0.258140
F66	F	0.890250	0.056845	0.396365
H67	H	0.422693	-0.125307	0.000024
H68	H	0.628689	0.085888	0.000028
H69	H	0.930501	-0.008554	0.741995
H70	H	1.313268	-0.631006	0.591178
H71	H	1.292116	-0.596651	0.258093
F72	F	1.180092	-0.414424	0.754522
H73	H	0.845383	-0.374755	0.000046
H74	H	0.377228	-0.230421	0.000050
