data_functionalizedCrystal
_audit_creation_method	'MofGen! by Chris Wilmer'
_symmetry_space_group_name_H-M	'P1'
_symmetry_Int_Tables_number	1
_symmetry_cell_setting	triclinic
loop_
_symmetry_equiv_pos_as_xyz
  x,y,z
_cell_length_a	14.519731
_cell_length_b	15.995350
_cell_length_c	12.996460
_cell_angle_alpha	89.996086
_cell_angle_beta	89.994327
_cell_angle_gamma	83.590614
loop_
_atom_site_label
_atom_site_type_symbol
_atom_site_fract_x
_atom_site_fract_y
_atom_site_fract_z
O1	O	1.223657	0.109845	-0.085564
O2	O	0.955159	0.122752	-0.085565
O3	O	1.096748	-0.005578	-0.085563
O4	O	1.082069	0.238175	-0.085565
O5	O	1.096733	-0.005585	0.085571
O6	O	0.955145	0.122745	0.085569
O7	O	1.223642	0.109838	0.085570
Cu8	Cu	1.089392	0.116291	0.101195
Cu9	Cu	1.089410	0.116299	-0.101190
O10	O	1.082054	0.238167	0.085569
C11	C	0.920794	0.122144	0.000002
C12	C	0.818417	0.120331	0.000001
C13	C	0.735275	0.118859	-0.000003
C14	C	0.630970	0.117019	-0.000003
C15	C	0.547834	0.115559	-0.000003
C16	C	0.443521	0.113719	-0.000005
C17	C	1.096134	-0.036777	0.000002
C18	C	1.094314	-0.129730	-0.000004
C19	C	1.087781	-0.467488	-0.000001
C20	C	0.986944	-0.420212	-0.000385
C21	C	0.988764	-0.323519	0.000001
C22	C	1.091021	-0.299922	-0.000003
C23	C	1.140749	-0.340926	0.097721
C24	C	1.138216	-0.437566	0.097803
C25	C	1.140316	-0.437912	-0.096808
C26	C	1.140292	-0.340967	-0.098100
C27	C	1.092858	-0.205222	-0.000001
C28	C	1.085947	-0.562189	0.000004
C29	C	1.258008	0.110446	0.000001
C30	C	1.360385	0.112258	-0.000005
C31	C	1.082668	0.269367	0.000001
C32	C	1.084488	0.362320	0.000000
N33	N	1.089387	0.116284	0.243542
N34	N	1.089422	0.116299	-0.243537
C35	C	1.089408	0.116300	0.663357
C36	C	1.089400	0.116298	0.546552
C37	C	1.089398	0.116293	0.453453
C38	C	1.089388	0.116290	0.336641
H39	H	0.949674	-0.295155	-0.070052
C40	C	1.089203	-0.462374	0.196481
H41	H	1.071020	-0.413411	0.236138
H42	H	1.130399	-0.500281	0.235554
H43	H	1.035933	-0.488719	0.178623
C44	C	0.932496	-0.445322	-0.095052
H45	H	0.871834	-0.416103	-0.093847
H46	H	0.928635	-0.504207	-0.093759
H47	H	0.963424	-0.431132	-0.155963
C48	C	1.095793	-0.465720	-0.196873
H49	H	1.128532	-0.447246	-0.254350
H50	H	1.032974	-0.441756	-0.199875
H51	H	1.098417	-0.525322	-0.198129
C52	C	1.091250	-0.304159	-0.195768
H53	H	1.040960	-0.263941	-0.176852
H54	H	1.068601	-0.348093	-0.234140
H55	H	1.133934	-0.277715	-0.236558
C56	C	0.932730	-0.446758	0.093762
H57	H	0.971282	-0.486525	0.133305
H58	H	0.879645	-0.471385	0.071296
H59	H	0.913833	-0.398736	0.134784
C60	C	0.935600	-0.285959	0.094803
H61	H	0.912812	-0.329805	0.133236
H62	H	0.885133	-0.247065	0.073019
H63	H	0.976068	-0.257844	0.136660
H64	H	1.214662	-0.469557	-0.097468
C65	C	1.241033	-0.320064	-0.106077
H66	H	1.254425	-0.285884	-0.049428
H67	H	1.248850	-0.290704	-0.168450
H68	H	1.281982	-0.370716	-0.105248
H69	H	1.212248	-0.469698	0.102234
H70	H	1.215875	-0.326683	0.101353
H71	H	1.106199	-0.312602	0.170447
