data_functionalizedCrystal
_audit_creation_method	'MofGen! by Chris Wilmer'
_symmetry_space_group_name_H-M	'P1'
_symmetry_Int_Tables_number	1
_symmetry_cell_setting	triclinic
loop_
_symmetry_equiv_pos_as_xyz
  x,y,z
_cell_length_a	12.759401
_cell_length_b	19.077068
_cell_length_c	12.759393
_cell_angle_alpha	92.262348
_cell_angle_beta	89.979062
_cell_angle_gamma	92.328499
loop_
_atom_site_label
_atom_site_type_symbol
_atom_site_fract_x
_atom_site_fract_y
_atom_site_fract_z
Zn1	Zn	1.589374	-0.280138	-0.610771
Zn2	Zn	1.582167	-0.397851	-0.442129
Zn3	Zn	1.413670	-0.280175	-0.435108
Zn4	Zn	1.406569	-0.397802	-0.617763
O5	O	1.497945	-0.338992	-0.526443
O6	O	1.735438	-0.295758	-0.588412
O7	O	1.559771	-0.382278	-0.294179
O8	O	1.442966	-0.181680	-0.452545
O9	O	1.730143	-0.382241	-0.464512
O10	O	1.572054	-0.181652	-0.581604
O11	O	1.435977	-0.295822	-0.289020
O12	O	1.265708	-0.295774	-0.459326
O13	O	1.430863	-0.382158	-0.763855
O14	O	1.260490	-0.382194	-0.593522
O15	O	1.565169	-0.295710	-0.758717
O16	O	1.552885	-0.496336	-0.471292
O17	O	1.423874	-0.496300	-0.600330
C18	C	1.224978	-0.338983	-0.526421
C19	C	1.108201	-0.338996	-0.526438
C20	C	1.486856	-0.521855	-0.537355
C21	C	1.482208	-0.600085	-0.542058
C22	C	1.050645	-0.384064	-0.596212
C23	C	0.940921	-0.384066	-0.596233
C24	C	0.946317	-0.293932	-0.456697
C25	C	1.056040	-0.293927	-0.456682
C26	C	1.547245	-0.636833	-0.477141
C27	C	1.542880	-0.710338	-0.481570
C28	C	1.473471	-0.747094	-0.550913
C29	C	1.408431	-0.710341	-0.615838
C30	C	1.412802	-0.636837	-0.611413
C31	C	1.453194	-0.966927	-0.571352
C32	C	1.448825	-1.040436	-0.575770
C33	C	1.583276	-1.040429	-0.441503
C34	C	1.587637	-0.966923	-0.437080
C35	C	1.522600	-0.930177	-0.502008
N36	N	1.469005	-0.822228	-0.555441
N37	N	1.527073	-0.855044	-0.497485
C38	C	1.771978	-0.339001	-0.526465
C39	C	1.888754	-0.339005	-0.526474
C40	C	1.498028	-0.338924	-0.800472
C41	C	1.498063	-0.338895	-0.917247
C42	C	1.509106	-0.155414	-0.515511
C43	C	1.513862	-0.077184	-0.510853
C44	C	1.568001	-0.293875	-0.969435
C45	C	1.568021	-0.293845	-1.079158
C46	C	1.428160	-0.383861	-1.084494
C47	C	1.428136	-0.383887	-0.974774
C48	C	1.497926	-0.339008	-0.253476
C49	C	1.498106	-0.338839	-0.136690
H50	H	1.093112	-0.420761	-0.653015
C51	C	0.888932	-0.244363	-0.379963
C52	C	0.816865	-0.189151	-0.422342
C53	C	0.759480	-0.139583	-0.345606
C54	C	0.774163	-0.145227	-0.226490
C55	C	0.846234	-0.200441	-0.184105
C56	C	0.903618	-0.250010	-0.260841
H57	H	0.805993	-0.184971	-0.510525
H58	H	0.706129	-0.098709	-0.376983
H59	H	0.731684	-0.108533	-0.169685
H60	H	0.857106	-0.204621	-0.095923
H61	H	0.956970	-0.290883	-0.229464
C62	C	1.351195	-0.433408	-0.917354
C63	C	1.393335	-0.488681	-0.845208
C64	C	1.316393	-0.538193	-0.787784
C65	C	1.197311	-0.532434	-0.802506
C66	C	1.155165	-0.477159	-0.874656
C67	C	1.232107	-0.427646	-0.932079
H68	H	1.481492	-0.492946	-0.834306
H69	H	1.347593	-0.579111	-0.734374
H70	H	1.140354	-0.569086	-0.759998
H71	H	1.067008	-0.472894	-0.885557
H72	H	1.200907	-0.386728	-0.985489
C73	C	1.644910	-0.244380	-0.906154
C74	C	1.602729	-0.189141	-0.827425
C75	C	1.679637	-0.139643	-0.764146
C76	C	1.798727	-0.145384	-0.779597
C77	C	1.840915	-0.200626	-0.858330
C78	C	1.764006	-0.250124	-0.921608
H79	H	1.514566	-0.184888	-0.815984
H80	H	1.648407	-0.098749	-0.705863
H81	H	1.855660	-0.108743	-0.732755
H82	H	1.929077	-0.204878	-0.869771
H83	H	1.795237	-0.291017	-0.979892
C84	C	0.877610	-0.433645	-0.672982
C85	C	0.756920	-0.433652	-0.673010
C86	C	0.693609	-0.483232	-0.749763
C87	C	0.750989	-0.532805	-0.826488
C88	C	0.871686	-0.532799	-0.826464
C89	C	0.934997	-0.483219	-0.749711
H90	H	0.714438	-0.396954	-0.616210
H91	H	0.604261	-0.483236	-0.749780
H92	H	0.704123	-0.569507	-0.883306
H93	H	0.914168	-0.569497	-0.883263
H94	H	1.024345	-0.483215	-0.749693
C95	C	1.663980	-0.926488	-0.360799
C96	C	1.749443	-0.875876	-0.403342
C97	C	1.825778	-0.835438	-0.327054
C98	C	1.816650	-0.845613	-0.208223
C99	C	1.731183	-0.896227	-0.165674
C100	C	1.654848	-0.936665	-0.241962
H101	H	1.756203	-0.868343	-0.491312
H102	H	1.889046	-0.797970	-0.358552
H103	H	1.873157	-0.815678	-0.151750
H104	H	1.724423	-0.903761	-0.077703
H105	H	1.591581	-0.974133	-0.210464
H106	H	1.603761	-0.606911	-0.420670
H107	H	1.624970	-0.257183	-1.121644
H108	H	1.371231	-0.420494	-1.131346
H109	H	1.102903	-0.257223	-0.399863
H110	H	1.636226	-1.070356	-0.388644
H111	H	1.595840	-0.740255	-0.428707
C112	C	1.332083	-0.750772	-0.692119
C113	C	1.246611	-0.801374	-0.649569
C114	C	1.170260	-0.841804	-0.725850
C115	C	1.179382	-0.831632	-0.844681
C116	C	1.264858	-0.781027	-0.887238
C117	C	1.341208	-0.740597	-0.810957
H118	H	1.239855	-0.808906	-0.561597
H119	H	1.106986	-0.879264	-0.694346
H120	H	1.122863	-0.861560	-0.901149
H121	H	1.271613	-0.773495	-0.975210
H122	H	1.404483	-0.703137	-0.842461
H123	H	1.400236	-0.937014	-0.624217
C124	C	1.372472	-1.080870	-0.652055
C125	C	1.300934	-1.040452	-0.723475
C126	C	1.224584	-1.080886	-0.799751
C127	C	1.219771	-1.161737	-0.804608
C128	C	1.291311	-1.202159	-0.733185
C129	C	1.367662	-1.161726	-0.656908
H130	H	1.304495	-0.980597	-0.719882
H131	H	1.171625	-1.050962	-0.852623
H132	H	1.163251	-1.191669	-0.861072
H133	H	1.287751	-1.262014	-0.736777
H134	H	1.420621	-1.191649	-0.604036
H135	H	1.359843	-0.606918	-0.664277
