data_functionalizedCrystal
_audit_creation_method	'MofGen! by Chris Wilmer'
_symmetry_space_group_name_H-M	'P1'
_symmetry_Int_Tables_number	1
_symmetry_cell_setting	triclinic
loop_
_symmetry_equiv_pos_as_xyz
  x,y,z
_cell_length_a	11.169416
_cell_length_b	11.169417
_cell_length_c	16.959455
_cell_angle_alpha	90.003566
_cell_angle_beta	90.003897
_cell_angle_gamma	90.011219
loop_
_atom_site_label
_atom_site_type_symbol
_atom_site_fract_x
_atom_site_fract_y
_atom_site_fract_z
Zn1	Zn	-0.478001	1.834770	0.446893
Zn2	Zn	-0.678647	1.834716	0.314727
Zn3	Zn	-0.477980	1.634113	0.314735
Zn4	Zn	-0.678644	1.634063	0.446871
O5	O	-0.578318	1.734415	0.380807
O6	O	-0.504628	2.002712	0.429366
O7	O	-0.652021	1.808104	0.204117
O8	O	-0.310033	1.660773	0.332279
O9	O	-0.652042	2.002673	0.332265
O10	O	-0.310049	1.808195	0.429374
O11	O	-0.504591	1.660721	0.204123
O12	O	-0.504588	1.466156	0.332258
O13	O	-0.652036	1.660689	0.557485
O14	O	-0.652015	1.466120	0.429337
O15	O	-0.504625	1.808147	0.557501
O16	O	-0.846597	1.808056	0.332244
O17	O	-0.846594	1.660637	0.429329
C18	C	-0.578300	1.422591	0.380796
C19	C	-0.578321	1.289191	0.380811
C20	C	-0.890143	1.734368	0.380801
C21	C	-1.023543	1.734457	0.380824
C22	C	-0.265276	1.734496	0.380830
C23	C	-0.131876	1.734530	0.380840
C24	C	-0.578332	1.734419	0.586975
C25	C	-0.578338	1.734420	0.674831
C26	C	-0.578337	2.047458	0.380817
C27	C	-0.578346	2.180858	0.380822
C28	C	-0.655093	1.657647	0.716098
C29	C	-0.501582	1.811187	0.716118
C30	C	-0.501580	1.811186	0.798664
C31	C	-0.578335	1.734414	0.839931
C32	C	-0.655091	1.657642	0.798652
C33	C	-0.424817	1.887948	0.839948
C34	C	-0.424811	1.887950	0.922499
C35	C	-0.501573	1.811182	0.963768
C36	C	-0.578333	1.734408	0.922484
C37	C	-0.655087	1.657636	0.963751
C38	C	-0.731854	1.580867	0.922469
C39	C	-0.731852	1.580874	0.839921
C40	C	-0.501575	1.811175	1.046317
C41	C	-0.655086	1.657630	1.046305
C42	C	-0.578332	1.734403	1.175440
C43	C	-0.578329	1.734402	1.087584
H44	H	-0.717593	1.595116	1.079899
C45	C	-0.417136	1.895614	1.091723
N46	N	-0.353535	1.959222	1.125923
H47	H	-0.794341	1.518352	0.956080
H48	H	-0.717598	1.595147	0.682483
C49	C	-0.816277	1.496425	0.794504
N50	N	-0.879860	1.432813	0.760293
C51	C	-0.340385	1.972384	0.794550
N52	N	-0.276787	2.035983	0.760352
C53	C	-0.417151	1.895626	0.670721
N54	N	-0.353555	1.959230	0.636525
C55	C	-0.340375	1.972404	0.967902
N56	N	-0.276780	2.036020	1.002101
