data_functionalizedCrystal
_audit_creation_method	'MofGen! by Chris Wilmer'
_symmetry_space_group_name_H-M	'P1'
_symmetry_Int_Tables_number	1
_symmetry_cell_setting	triclinic
loop_
_symmetry_equiv_pos_as_xyz
  x,y,z
_cell_length_a	13.897448
_cell_length_b	16.959455
_cell_length_c	16.959447
_cell_angle_alpha	90.014322
_cell_angle_beta	90.029368
_cell_angle_gamma	90.014639
loop_
_atom_site_label
_atom_site_type_symbol
_atom_site_fract_x
_atom_site_fract_y
_atom_site_fract_z
Zn1	Zn	-0.384074	1.208397	0.446914
Zn2	Zn	0.115926	1.708397	0.946914
Zn3	Zn	-0.545393	1.208325	0.314738
Zn4	Zn	-0.045393	1.708325	0.814738
Zn5	Zn	-0.384105	1.076225	0.314751
Zn6	Zn	0.115895	1.576225	0.814751
Zn7	Zn	-0.545321	1.076195	0.446876
Zn8	Zn	-0.045321	1.576195	0.946876
O9	O	-0.464723	1.142286	0.380820
O10	O	0.035277	1.642286	0.880820
O11	O	-0.405491	1.318998	0.429390
O12	O	0.094509	1.818998	0.929390
O13	O	-0.524040	1.190784	0.204128
O14	O	-0.024040	1.690784	0.704128
O15	O	-0.249119	1.093801	0.332305
O16	O	0.250881	1.593801	0.832305
O17	O	-0.524011	1.318945	0.332281
O18	O	-0.024011	1.818945	0.832281
O19	O	-0.249097	1.190907	0.429404
O20	O	0.250903	1.690907	0.929404
O21	O	-0.405543	1.093731	0.204139
O22	O	0.094457	1.593731	0.704139
O23	O	-0.405473	0.965610	0.332268
O24	O	0.094527	1.465610	0.832268
O25	O	-0.523888	1.093750	0.557492
O26	O	-0.023888	1.593750	1.057492
O27	O	-0.523917	0.965589	0.429340
O28	O	-0.023917	1.465589	0.929340
O29	O	-0.405421	1.190878	0.557520
O30	O	0.094579	1.690878	1.057520
O31	O	-0.680365	1.190755	0.332244
O32	O	-0.180365	1.690755	0.832244
O33	O	-0.680312	1.093680	0.429326
O34	O	-0.180312	1.593680	0.929326
C35	C	-0.464691	0.936919	0.380802
C36	C	0.035309	1.436919	0.880802
C37	C	-0.464701	0.849063	0.380813
C38	C	0.035299	1.349063	0.880813
C39	C	-0.402998	0.477574	0.330380
C40	C	0.097002	0.977574	0.830380
C41	C	-0.526527	0.477600	0.431305
C42	C	-0.026527	0.977600	0.931305
C43	C	-0.526513	0.560146	0.431300
C44	C	-0.026513	1.060146	0.931300
C45	C	-0.464742	0.601410	0.380834
C46	C	0.035258	1.101410	0.880834
C47	C	-0.402985	0.560128	0.330372
C48	C	0.097015	1.060128	0.830372
C49	C	-0.588276	0.601434	0.481754
C50	C	-0.088276	1.101434	0.981754
C51	C	-0.588266	0.683985	0.481751
C52	C	-0.088266	1.183985	0.981751
C53	C	-0.526489	0.725251	0.431288
C54	C	-0.026489	1.225251	0.931288
C55	C	-0.464728	0.683963	0.380825
C56	C	0.035272	1.183963	0.880825
C57	C	-0.402957	0.725227	0.330359
C58	C	0.097043	1.225227	0.830359
C59	C	-0.341191	0.683941	0.279900
C60	C	0.158809	1.183941	0.779900
C61	C	-0.341208	0.601393	0.279909
C62	C	0.158792	1.101393	0.779909
C63	C	-0.526472	0.807799	0.431279
C64	C	-0.026472	1.307799	0.931279
C65	C	-0.402944	0.807781	0.330351
C66	C	0.097056	1.307781	0.830351
C67	C	-0.715337	1.142228	0.380797
C68	C	-0.215337	1.642228	0.880797
C69	C	-0.822551	1.142276	0.380814
C70	C	-0.322551	1.642276	0.880814
C71	C	-1.018846	1.142359	0.380863
C72	C	-0.518846	1.642359	0.880863
C73	C	-0.909614	1.142310	0.380838
C74	C	-0.409614	1.642310	0.880838
C75	C	-0.213130	1.142365	0.380860
C76	C	0.286870	1.642365	0.880860
C77	C	-0.105916	1.142399	0.380877
C78	C	0.394084	1.642399	0.880877
C79	C	-0.464643	1.142319	0.586988
C80	C	0.035357	1.642319	1.086988
C81	C	-0.464609	1.142333	0.674845
C82	C	0.035391	1.642333	1.174845
C83	C	-0.464756	1.348454	0.380838
C84	C	0.035244	1.848454	0.880838
C85	C	-0.464770	1.436310	0.380846
C86	C	0.035230	1.936310	0.880846
C87	C	-0.464733	1.142298	0.175454
C88	C	0.035267	1.642298	0.675454
C89	C	-0.464495	1.142437	0.087597
C90	C	0.035505	1.642437	0.587597
C91	C	-0.526188	1.091857	1.046309
C92	C	-0.026188	1.591857	1.546309
C93	C	-0.402827	1.192997	1.046333
C94	C	0.097173	1.692997	1.546333
C95	C	-0.402848	1.192976	0.963787
C96	C	0.097152	1.692976	1.463787
C97	C	-0.464540	1.142395	0.922498
C98	C	0.035460	1.642395	1.422498
C99	C	-0.526212	1.091836	0.963755
C100	C	-0.026212	1.591836	1.463755
C101	C	-0.341184	1.243540	0.922523
C102	C	0.158816	1.743540	1.422523
C103	C	-0.341203	1.243522	0.839972
C104	C	0.158797	1.743522	1.339972
C105	C	-0.402891	1.192937	0.798682
C106	C	0.097109	1.692937	1.298682
C107	C	-0.464564	1.142375	0.839944
C108	C	0.035436	1.642375	1.339944
C109	C	-0.526257	1.091794	0.798655
C110	C	-0.026257	1.591794	1.298655
C111	C	-0.587926	1.041227	0.839916
C112	C	-0.087926	1.541227	1.339916
C113	C	-0.587900	1.041251	0.922465
C114	C	-0.087900	1.541251	1.422465
C115	C	-0.402917	1.192913	0.716134
C116	C	0.097083	1.692913	1.216134
C117	C	-0.526281	1.091773	0.716102
C118	C	-0.026281	1.591773	1.216102
H119	H	-0.352707	0.443956	0.289300
H120	H	0.147293	0.943956	0.789300
H121	H	-0.576395	1.050685	1.079907
H122	H	-0.076395	1.550685	1.579907
Br123	Br	-0.610380	0.421599	0.499771
Br124	Br	-0.110380	0.921599	0.999771
H125	H	-0.576764	0.841410	0.472360
H126	H	-0.076764	1.341410	0.972360
H127	H	-0.352709	1.234086	0.682543
H128	H	0.147291	1.734086	1.182543
H129	H	-0.290901	0.717549	0.238807
H130	H	0.209099	1.217549	0.738807
Br131	Br	-0.671590	0.972634	0.978465
Br132	Br	-0.171590	1.472634	1.478465
H133	H	-0.290987	1.284696	0.806385
H134	H	0.209013	1.784696	1.306385
H135	H	-0.638559	0.717593	0.522839
H136	H	-0.138559	1.217593	1.022839
H137	H	-0.352606	1.234182	1.079955
H138	H	0.147394	1.734182	1.579955
Br139	Br	-0.257474	1.312189	0.978560
Br140	Br	0.242526	1.812189	1.478560
Br141	Br	-0.671657	0.972592	0.783872
Br142	Br	-0.171657	1.472592	1.283872
H143	H	-0.352635	0.841372	0.289260
H144	H	0.147365	1.341372	0.789260
Br145	Br	-0.257389	0.545358	0.211436
Br146	Br	0.242611	1.045358	0.711436
Br147	Br	-0.672139	0.545431	0.550210
Br148	Br	-0.172139	1.045431	1.050210
H149	H	-0.576511	1.050577	0.682490
H150	H	-0.076511	1.550577	1.182490
