data_functionalizedCrystal
_audit_creation_method	'MofGen! by Chris Wilmer'
_symmetry_space_group_name_H-M	'P1'
_symmetry_Int_Tables_number	1
_symmetry_cell_setting	triclinic
loop_
_symmetry_equiv_pos_as_xyz
  x,y,z
_cell_length_a	14.971486
_cell_length_b	14.971486
_cell_length_c	14.048226
_cell_angle_alpha	89.993360
_cell_angle_beta	89.998499
_cell_angle_gamma	83.614129
loop_
_atom_site_label
_atom_site_type_symbol
_atom_site_fract_x
_atom_site_fract_y
_atom_site_fract_z
O1	O	1.186947	0.116565	-0.079052
O2	O	1.686947	0.616565	0.420948
O3	O	0.926547	0.130523	-0.079078
O4	O	1.426547	0.630523	0.420922
O5	O	1.063726	-0.006656	-0.079057
O6	O	1.563726	0.493344	0.420943
O7	O	1.049768	0.253744	-0.079072
O8	O	1.549768	0.753744	0.420928
O9	O	1.063710	-0.006664	0.079264
O10	O	1.563710	0.493336	0.579264
O11	O	0.926530	0.130515	0.079244
O12	O	1.426530	0.630515	0.579244
O13	O	1.186930	0.116556	0.079270
O14	O	1.686930	0.616556	0.579270
Zn15	Zn	1.056728	0.123535	0.104394
Zn16	Zn	1.556728	0.623535	0.604394
Zn17	Zn	1.056750	0.123545	-0.104202
Zn18	Zn	1.556750	0.623545	0.395798
O19	O	1.049751	0.253736	0.079249
O20	O	1.549751	0.753736	0.579249
C21	C	0.893214	0.129895	0.000080
C22	C	1.393214	0.629895	0.500080
C23	C	0.793917	0.128024	0.000070
C24	C	1.293917	0.628024	0.500070
C25	C	1.063094	-0.039985	0.000103
C26	C	1.563094	0.460015	0.500103
C27	C	1.061223	-0.139282	0.000102
C28	C	1.561223	0.360718	0.500102
C29	C	0.736692	0.208614	0.000067
C30	C	1.236692	0.708614	0.500067
C31	C	0.643392	0.206850	0.000081
C32	C	1.143392	0.706850	0.500081
C33	C	0.607320	0.124497	0.000092
C34	C	1.107320	0.624497	0.500092
C35	C	0.664552	0.043902	0.000098
C36	C	1.164552	0.543902	0.500098
C37	C	0.757850	0.045666	0.000090
C38	C	1.257850	0.545666	0.500090
C39	C	0.470090	0.040231	0.000111
C40	C	0.970090	0.540231	0.500111
C41	C	0.376786	0.038466	0.000117
C42	C	0.876786	0.538466	0.500117
C43	C	0.355632	0.201415	0.000102
C44	C	0.855632	0.701415	0.500102
C45	C	0.448930	0.203179	0.000094
C46	C	0.948930	0.703179	0.500094
C47	C	0.506156	0.122584	0.000099
C48	C	1.006156	0.622584	0.500099
C49	C	1.141812	-0.196507	0.000111
C50	C	1.641812	0.303493	0.500111
C51	C	1.140049	-0.289807	0.000101
C52	C	1.640049	0.210193	0.500101
C53	C	1.057696	-0.325879	0.000089
C54	C	1.557696	0.174121	0.500089
C55	C	0.977101	-0.268646	0.000078
C56	C	1.477101	0.231354	0.500078
C57	C	0.978865	-0.175349	0.000081
C58	C	1.478865	0.324651	0.500081
C59	C	0.973430	-0.463109	0.000074
C60	C	1.473430	0.036891	0.500074
C61	C	0.971665	-0.556413	0.000073
C62	C	1.471665	-0.056413	0.500073
C63	C	1.134614	-0.577567	0.000094
C64	C	1.634614	-0.077567	0.500094
C65	C	1.136378	-0.484269	0.000097
C66	C	1.636378	0.015731	0.500097
C67	C	1.055782	-0.427043	0.000088
C68	C	1.555782	0.072957	0.500088
C69	C	1.220263	0.117185	0.000110
C70	C	1.720263	0.617185	0.500110
C71	C	1.319561	0.119056	0.000114
C72	C	1.819561	0.619056	0.500114
C73	C	1.050384	0.287065	0.000087
C74	C	1.550384	0.787065	0.500087
C75	C	1.052254	0.386362	0.000082
C76	C	1.552254	0.886362	0.500082
N77	N	1.056719	0.123527	0.246754
N78	N	1.556719	0.623527	0.746754
N79	N	1.056765	0.123546	-0.246562
N80	N	1.556765	0.623546	0.253438
C81	C	1.117482	0.062809	0.296581
C82	C	1.617482	0.562809	0.796581
C83	C	1.117488	0.062808	0.396239
C84	C	1.617488	0.562808	0.896239
C85	C	1.056735	0.123531	0.446068
C86	C	1.556735	0.623531	0.946068
C87	C	0.995966	0.184252	0.396234
C88	C	1.495966	0.684252	0.896234
C89	C	0.995957	0.184247	0.296578
C90	C	1.495957	0.684247	0.796578
C91	C	0.995992	0.184258	0.603948
C92	C	1.495992	0.684258	1.103948
C93	C	0.996003	0.184264	0.703611
C94	C	1.496003	0.684264	1.203611
C95	C	1.117523	0.062819	0.703609
C96	C	1.617523	0.562819	1.203609
C97	C	1.117514	0.062815	0.603953
C98	C	1.617514	0.562815	1.103953
C99	C	1.056746	0.123537	0.554126
C100	C	1.556746	0.623537	1.054126
H101	H	0.766054	0.275675	0.000057
H102	H	1.266054	0.775675	0.500057
H103	H	0.946496	0.233690	0.436810
H104	H	1.446496	0.733690	0.936810
H105	H	1.200238	-0.624165	0.000099
H106	H	1.700238	-0.124165	0.500099
H107	H	0.596802	0.272474	0.000077
H108	H	1.096802	0.772474	0.500077
H109	H	0.478296	0.270239	0.000077
H110	H	0.978296	0.770239	0.500077
O111	O	0.930426	0.249739	0.242828
O112	O	1.430426	0.749739	0.742828
H113	H	0.888188	0.291971	0.294217
H114	H	1.388188	0.791971	0.794217
H115	H	0.309033	0.267039	0.000103
H116	H	0.809033	0.767039	0.500103
H117	H	0.904606	-0.585780	0.000079
H118	H	1.404606	-0.085780	0.500079
O119	O	0.337873	-0.050354	0.000141
O120	O	0.837873	0.449646	0.500141
H121	H	0.393338	-0.106102	0.000159
H122	H	0.893338	0.393898	0.500159
O123	O	0.891943	-0.113623	0.000073
O124	O	1.391943	0.386377	0.500073
H125	H	0.888846	-0.070613	0.064599
H126	H	1.388846	0.429387	0.564599
O127	O	1.225199	-0.445356	0.000115
O128	O	1.725199	0.054644	0.500115
H129	H	1.229897	-0.403341	-0.064409
H130	H	1.729897	0.096659	0.435591
O131	O	1.182993	-0.002707	0.242846
O132	O	1.682993	0.497293	0.742846
H133	H	1.172779	0.007487	0.165177
H134	H	1.672779	0.507487	0.665177
H135	H	1.167002	0.013377	0.744184
H136	H	1.667002	0.513377	1.244184
O137	O	1.183040	-0.002664	0.449985
O138	O	1.683040	0.497336	0.949985
H139	H	1.225296	-0.044875	0.398594
H140	H	1.725296	0.455125	0.898594
H141	H	0.907800	-0.416517	0.000064
H142	H	1.407800	0.083483	0.500064
H143	H	1.205673	-0.336396	0.000110
H144	H	1.705673	0.163604	0.500110
H145	H	0.910047	-0.298024	0.000062
H146	H	1.410047	0.201976	0.500062
O147	O	0.930461	0.249737	0.757361
O148	O	1.430461	0.749737	1.257361
H149	H	0.888189	0.291946	0.705973
H150	H	1.388189	0.791946	1.205973
H151	H	0.516682	-0.025399	0.000116
H152	H	1.016682	0.474601	0.500116
H153	H	1.166987	0.013375	0.563383
H154	H	1.666987	0.513375	1.063383
H155	H	0.635175	-0.023152	0.000120
H156	H	1.135175	0.476848	0.500120
H157	H	0.804443	-0.019958	0.000093
H158	H	1.304443	0.480042	0.500093
O159	O	1.230637	-0.157601	0.000114
O160	O	1.730637	0.342399	0.500114
H161	H	1.286378	-0.213072	0.000106
H162	H	1.786378	0.286928	0.500106
O163	O	0.930456	0.249754	0.550200
O164	O	1.430456	0.749754	1.050200
H165	H	0.888220	0.291987	0.601589
H166	H	1.388220	0.791987	1.101589
