data_functionalizedCrystal
_audit_creation_method	'MofGen! by Chris Wilmer'
_symmetry_space_group_name_H-M	'P1'
_symmetry_Int_Tables_number	1
_symmetry_cell_setting	triclinic
loop_
_symmetry_equiv_pos_as_xyz
  x,y,z
_cell_length_a	17.038275
_cell_length_b	17.019380
_cell_length_c	16.098538
_cell_angle_alpha	91.149481
_cell_angle_beta	87.070567
_cell_angle_gamma	92.753252
loop_
_atom_site_label
_atom_site_type_symbol
_atom_site_fract_x
_atom_site_fract_y
_atom_site_fract_z
O1	O	-1.041332	0.167433	0.081128
O2	O	-0.813695	0.164720	0.080961
O3	O	-0.933445	0.052059	0.072872
O4	O	-0.921581	0.280093	0.089217
O5	O	-0.926450	0.058613	-0.065170
O6	O	-0.806700	0.171274	-0.057081
O7	O	-1.034337	0.173986	-0.056915
Zn8	Zn	-0.919407	0.173670	-0.078915
Zn9	Zn	-0.928624	0.165036	0.102962
O10	O	-0.914586	0.286647	-0.048826
C11	C	-0.781062	0.165531	0.011767
C12	C	-0.694249	0.158176	0.011251
C13	C	-0.644325	0.225705	0.016091
C14	C	-0.562754	0.218790	0.015585
C15	C	-0.531110	0.144344	0.010245
C16	C	-0.581041	0.076809	0.005402
C17	C	-0.662610	0.083726	0.005902
C18	C	-0.285283	0.119910	0.008475
C19	C	-0.203708	0.112998	0.007978
C20	C	-0.185427	0.254979	0.018160
C21	C	-0.266998	0.261889	0.018665
C22	C	-0.316921	0.194355	0.013817
C23	C	-0.447733	0.137273	0.009730
C24	C	-0.400297	0.201426	0.014326
C25	C	-0.929359	0.026015	0.001751
C26	C	-0.927594	-0.061354	-0.004505
C27	C	-0.066970	0.173174	0.012285
C28	C	-0.153784	0.180528	0.012818
C29	C	-0.918673	0.312692	0.022297
C30	C	-0.920438	0.400060	0.028559
C31	C	-0.917453	0.444684	-0.043742
C32	C	-0.919102	0.526776	-0.037848
C33	C	-0.923741	0.564244	0.040346
C34	C	-0.926723	0.519614	0.112652
C35	C	-0.925069	0.437523	0.106758
C36	C	-0.928922	0.811926	0.061907
C37	C	-0.930579	0.894022	0.067795
C38	C	-0.922956	0.901179	-0.082705
C39	C	-0.921306	0.819086	-0.088593
C40	C	-0.924285	0.774464	-0.016287
C41	C	-0.925429	0.648155	0.046372
C42	C	-0.922591	0.690554	-0.022313
N43	N	-0.913123	0.179563	-0.203041
C44	C	-0.963969	0.131765	-0.250058
C45	C	-0.959580	0.135895	-0.336951
C46	C	-0.904348	0.187828	-0.376824
C47	C	-0.853497	0.235628	-0.329801
C48	C	-0.857883	0.231494	-0.242910
C49	C	-0.888449	0.202803	-0.638999
C50	C	-0.884069	0.206936	-0.725896
C51	C	-0.990151	0.107201	-0.733040
C52	C	-0.994535	0.103074	-0.646147
C53	C	-0.943681	0.150872	-0.599131
C54	C	-0.899862	0.192053	-0.465642
C55	C	-0.948164	0.146642	-0.510315
N56	N	-0.934915	0.159137	0.227087
H57	H	-0.292757	0.322510	0.023023
C58	C	-0.917487	0.649338	-0.108325
N59	N	-0.913645	0.618287	-0.173109
C60	C	-0.932279	0.762847	0.141446
N61	N	-0.934836	0.725876	0.201358
H62	H	-0.839091	0.249229	-0.758356
H63	H	-0.993131	0.104355	-0.477848
H64	H	-0.930496	0.550127	0.176319
H65	H	-0.927495	0.401192	0.165633
C66	C	-1.024728	0.074633	-0.206206
N67	N	-1.070490	0.031598	-0.173179
C68	C	-0.839104	0.249173	-0.509512
N69	N	-0.793337	0.292191	-0.542558
H70	H	-1.031553	0.068286	-0.771327
H71	H	-0.522109	0.273779	0.019528
H72	H	-0.847044	0.241723	-0.600725
C73	C	-0.916195	0.777879	-0.174612
N74	N	-0.912345	0.746842	-0.239404
H75	H	-0.929210	0.678670	0.110038
H76	H	-1.000982	0.096973	-0.375232
C77	C	-0.792735	0.292748	-0.373665
N78	N	-0.746967	0.335771	-0.406703
C79	C	-0.679125	0.307602	0.021965
N80	N	-0.705333	0.369289	0.026385
H81	H	-0.913679	0.414184	-0.107416
H82	H	-0.555270	0.016194	0.001042
C83	C	-0.130505	0.329262	0.023482
N84	N	-0.089136	0.385215	0.027485
H85	H	-1.039509	0.060786	-0.613684
C86	C	-0.919669	0.950270	-0.162236
N87	N	-0.917188	0.987246	-0.222142
H88	H	-0.703258	0.028736	0.001961
H89	H	-0.816478	0.270415	-0.204630
H90	H	-0.325921	0.064918	0.004527
C91	C	-0.168903	0.031099	0.002104
N92	N	-0.142687	-0.030585	-0.002318
H93	H	-0.426065	0.262040	0.018669
H94	H	-0.421958	0.076660	0.005359
H95	H	-0.916683	0.563105	-0.096723
H96	H	-0.934355	0.924525	0.131474
