data_functionalizedCrystal
_audit_creation_method	'MofGen! by Chris Wilmer'
_symmetry_space_group_name_H-M	'P1'
_symmetry_Int_Tables_number	1
_symmetry_cell_setting	triclinic
loop_
_symmetry_equiv_pos_as_xyz
  x,y,z
_cell_length_a	8.559649
_cell_length_b	14.421503
_cell_length_c	8.559649
_cell_angle_alpha	90.005396
_cell_angle_beta	110.221336
_cell_angle_gamma	90.006248
loop_
_atom_site_label
_atom_site_type_symbol
_atom_site_fract_x
_atom_site_fract_y
_atom_site_fract_z
O1	O	2.126894	0.077097	0.055059
O2	O	1.651409	0.077101	-0.028723
O3	O	1.931042	0.077098	0.250910
O4	O	1.847261	0.077100	-0.224574
O5	O	1.930996	-0.077126	0.250868
O6	O	1.651363	-0.077123	-0.028765
O7	O	2.126848	-0.077126	0.055016
Cu8	Cu	1.889102	-0.091206	0.013122
Cu9	Cu	1.889156	0.091181	0.013172
O10	O	1.847215	-0.077123	-0.224617
C11	C	1.591077	-0.000011	-0.035093
C12	C	1.411378	-0.000009	-0.053992
N13	N	1.889075	-0.219488	0.013089
C14	C	1.759759	-0.469140	-0.116164
C15	C	1.902484	-0.530944	-0.129663
C16	C	1.889120	-0.408649	0.013133
C17	C	1.746428	-0.530939	0.026599
C18	C	1.889149	-0.591370	0.013170
C19	C	2.031910	-0.469092	-0.000430
C20	C	1.875765	-0.469082	0.155883
C21	C	2.018603	-0.530858	0.142460
C22	C	1.889100	-0.303388	0.013107
C23	C	1.889185	-0.696629	0.013199
C24	C	2.187180	-0.000013	0.061387
C25	C	2.366879	-0.000008	0.080286
C26	C	1.937369	-0.000012	0.311198
C27	C	1.956268	-0.000007	0.490898
N28	N	1.889196	0.219462	0.013219
C29	C	1.840889	-0.000011	-0.284904
C30	C	1.821990	-0.000010	-0.464604
H31	H	1.466258	-0.000005	0.209705
Cl32	Cl	1.257940	0.000001	-0.253823
Cl33	Cl	1.591002	-0.427294	-0.285073
Cl34	Cl	1.560105	-0.572885	0.044166
H35	H	1.913808	-0.558115	-0.250365
Cl36	Cl	2.218254	-0.427331	-0.018212
Cl37	Cl	2.187680	-0.572443	0.311325
Cl38	Cl	1.858204	-0.427093	0.342170
H39	H	1.692570	-0.000012	0.436018
H40	H	2.085696	-0.000016	0.590286
