data_functionalizedCrystal
_audit_creation_method	'MofGen! by Chris Wilmer'
_symmetry_space_group_name_H-M	'P1'
_symmetry_Int_Tables_number	1
_symmetry_cell_setting	triclinic
loop_
_symmetry_equiv_pos_as_xyz
  x,y,z
_cell_length_a	12.759401
_cell_length_b	17.637651
_cell_length_c	12.759393
_cell_angle_alpha	101.250165
_cell_angle_beta	90.018496
_cell_angle_gamma	101.219542
loop_
_atom_site_label
_atom_site_type_symbol
_atom_site_fract_x
_atom_site_fract_y
_atom_site_fract_z
Zn1	Zn	1.521690	-0.314720	0.509310
Zn2	Zn	1.486052	-0.446958	0.298053
Zn3	Zn	1.345981	-0.314761	0.333638
Zn4	Zn	1.310465	-0.446897	0.473711
O5	O	1.416047	-0.380834	0.403678
O6	O	1.663982	-0.332270	0.481292
O7	O	1.467420	-0.429465	0.155741
O8	O	1.399068	-0.204114	0.386732
O9	O	1.637798	-0.429425	0.326083
O10	O	1.528160	-0.204083	0.515798
O11	O	1.364511	-0.332340	0.181885
O12	O	1.194251	-0.332281	0.352213
O13	O	1.338535	-0.429321	0.625466
O14	O	1.168157	-0.429361	0.455124
O15	O	1.493722	-0.332211	0.651620
O16	O	1.432982	-0.557592	0.291564
O17	O	1.303978	-0.557547	0.420619
C18	C	1.143084	-0.380820	0.403668
C19	C	1.026304	-0.380832	0.403683
C20	C	1.360787	-0.586258	0.348390
C21	C	1.337243	-0.674139	0.324772
C22	C	0.957860	-0.431463	0.457136
C23	C	0.848133	-0.431473	0.457145
C24	C	0.875304	-0.330220	0.350239
C25	C	0.985029	-0.330206	0.350238
C26	C	0.999135	-0.482089	0.510581
C27	C	0.930690	-0.532724	0.564037
C28	C	0.820963	-0.532734	0.564046
C29	C	0.779681	-0.482109	0.510599
C30	C	1.595593	-0.962796	0.583429
C31	C	1.573436	-1.045373	0.561218
C32	C	1.439101	-1.045512	0.426693
C33	C	1.461250	-0.962933	0.448889
C34	C	1.539496	-0.921581	0.527259
C35	C	1.405154	-0.921718	0.392718
C36	C	1.427298	-0.839146	0.414916
C37	C	1.505538	-0.797788	0.493285
C38	C	1.561640	-0.839009	0.549457
C39	C	1.326903	-0.963072	0.314354
C40	C	1.270807	-0.921857	0.258183
C41	C	1.292955	-0.839283	0.280376
C42	C	1.371196	-0.797926	0.358744
C43	C	1.236853	-0.798063	0.224204
C44	C	1.258997	-0.715491	0.246402
C45	C	1.393339	-0.715354	0.380942
C46	C	1.690076	-0.380849	0.403689
C47	C	1.806851	-0.380856	0.403694
C48	C	1.416142	-0.380754	0.677733
C49	C	1.416183	-0.380720	0.794519
C50	C	1.471551	-0.174608	0.459206
C51	C	1.495204	-0.086727	0.482868
C52	C	1.416028	-0.380857	0.130705
C53	C	1.416251	-0.380668	0.013979
C54	C	1.496999	-0.330150	0.863003
C55	C	1.497031	-0.330122	0.972734
C56	C	1.335427	-0.431240	0.945487
C57	C	1.335391	-0.431264	0.835759
C58	C	1.577790	-0.279606	0.821763
C59	C	1.658614	-0.229032	0.890247
C60	C	1.658646	-0.229004	0.999979
C61	C	1.577856	-0.279549	1.041226
H62	H	0.964311	-0.573936	0.607560
H63	H	1.523566	-0.730553	0.511356
O64	O	1.257086	-0.480427	0.985574
C65	C	1.303184	-0.531469	1.035312
H66	H	1.384604	-0.536362	1.000929
H67	H	1.248812	-0.592315	1.020164
H68	H	1.313412	-0.507006	1.125059
O69	O	1.204578	-0.675328	0.191969
C70	C	1.240920	-0.593581	0.228351
H71	H	1.278321	-0.582247	0.312510
H72	H	1.170635	-0.562238	0.229581
H73	H	1.303190	-0.570153	0.172384
O74	O	0.754619	-0.581990	0.615988
C75	C	0.814587	-0.626652	0.663181
H76	H	0.892060	-0.629341	0.619410
H77	H	0.766138	-0.688960	0.657481
H78	H	0.834055	-0.597771	0.750811
H79	H	1.457063	-0.681683	0.444752
H80	H	1.269570	-0.472431	0.780000
H81	H	1.625364	-0.805338	0.613266
O82	O	1.671479	-0.922651	0.659699
C83	C	1.643076	-0.942797	0.758975
H84	H	1.553046	-0.965544	0.758091
H85	H	1.666657	-0.888458	0.825492
H86	H	1.686558	-0.990676	0.773621
O87	O	1.105701	-0.482155	0.510719
C88	C	1.127454	-0.537709	0.569327
H89	H	1.061257	-0.548845	0.627695
H90	H	1.207284	-0.513882	0.615652
H91	H	1.131413	-0.595319	0.512027
H92	H	1.724385	-0.187876	0.856658
O93	O	1.577892	-0.279508	0.715205
C94	C	1.666543	-0.224070	0.693483
H95	H	1.693714	-0.177860	0.769158
H96	H	1.642898	-0.194083	0.628150
H97	H	1.734700	-0.255436	0.665575
H98	H	1.724450	-0.187819	1.055739
O99	O	0.673091	-0.482123	0.510436
C100	C	0.630920	-0.502364	0.404273
H101	H	0.697754	-0.488793	0.347414
H102	H	0.567088	-0.466696	0.395306
H103	H	0.593817	-0.567968	0.384255
H104	H	0.841682	-0.289004	0.306724
O105	O	1.363024	-1.085772	0.350688
C106	C	1.282305	-1.133522	0.397602
H107	H	1.316006	-1.145830	0.473950
H108	H	1.252674	-1.191617	0.339178
H109	H	1.212965	-1.101731	0.417615
O110	O	1.051364	-0.281007	0.298211
C111	C	0.991410	-0.236320	0.251048
H112	H	0.904484	-0.268706	0.238631
H113	H	1.025368	-0.227817	0.170575
H114	H	0.995896	-0.176303	0.305798
O115	O	1.627765	-1.085453	0.615885
C116	C	1.555086	-1.133222	0.670818
H117	H	1.479005	-1.108367	0.683911
H118	H	1.592793	-1.134108	0.751471
H119	H	1.534689	-1.195819	0.621495
H120	H	1.308866	-1.030307	0.296293
O121	O	1.578072	-0.279448	1.147840
C122	C	1.666711	-0.223958	1.199450
H123	H	1.731051	-0.212901	1.139200
H124	H	1.700181	-0.247803	1.266432
H125	H	1.640576	-0.166299	1.234451
H126	H	1.207096	-0.955537	0.194377
H127	H	1.173138	-0.831744	0.160403
