data_functionalizedCrystal
_audit_creation_method	'MofGen! by Chris Wilmer'
_symmetry_space_group_name_H-M	'P1'
_symmetry_Int_Tables_number	1
_symmetry_cell_setting	triclinic
loop_
_symmetry_equiv_pos_as_xyz
  x,y,z
_cell_length_a	12.811438
_cell_length_b	14.044220
_cell_length_c	11.892095
_cell_angle_alpha	94.243827
_cell_angle_beta	80.666371
_cell_angle_gamma	88.595284
loop_
_atom_site_label
_atom_site_type_symbol
_atom_site_fract_x
_atom_site_fract_y
_atom_site_fract_z
O1	O	1.420301	0.112339	-0.239597
O2	O	1.753635	0.445672	0.093736
O3	O	2.086968	0.779005	0.427069
O4	O	1.113964	0.128242	-0.208198
O5	O	1.447297	0.461575	0.125135
O6	O	1.780630	0.794908	0.458468
O7	O	1.262534	-0.017681	-0.223415
O8	O	1.595867	0.315652	0.109918
O9	O	1.929200	0.648985	0.443251
O10	O	1.271731	0.258262	-0.224380
O11	O	1.605065	0.591595	0.108953
O12	O	1.938398	0.924928	0.442286
O13	O	1.250144	-0.005533	-0.034139
O14	O	1.583478	0.327800	0.299194
O15	O	1.916811	0.661133	0.632528
O16	O	1.101574	0.140390	-0.018922
O17	O	1.434908	0.473723	0.314411
O18	O	1.768241	0.807056	0.647745
O19	O	1.407912	0.124487	-0.050321
O20	O	1.741245	0.457820	0.283012
O21	O	2.074579	0.791153	0.616346
Zn22	Zn	1.252776	0.134367	-0.004570
Zn23	Zn	1.586110	0.467700	0.328764
Zn24	Zn	1.919443	0.801034	0.662097
Zn25	Zn	1.269100	0.118361	-0.253950
Zn26	Zn	1.602433	0.451695	0.079384
Zn27	Zn	1.935766	0.785028	0.412717
O28	O	1.259342	0.270410	-0.035104
O29	O	1.592675	0.603743	0.298229
O30	O	1.926009	0.937077	0.631563
C31	C	1.068328	0.133797	-0.109517
C32	C	1.401661	0.467130	0.223816
C33	C	1.734994	0.800464	0.557149
C34	C	0.950804	0.132240	-0.097471
C35	C	1.284137	0.465573	0.235862
C36	C	1.617470	0.798906	0.569196
C37	C	0.778406	0.136667	0.022676
C38	C	1.111740	0.470000	0.356009
C39	C	1.445073	0.803333	0.689343
C40	C	0.888830	0.138131	0.011363
C41	C	1.222163	0.471464	0.344696
C42	C	1.555497	0.804798	0.678029
C43	C	0.902346	0.124887	-0.194998
C44	C	1.235679	0.458220	0.138335
C45	C	1.569013	0.791554	0.471669
C46	C	0.791922	0.123423	-0.183684
C47	C	1.125255	0.456756	0.149649
C48	C	1.458589	0.790090	0.482982
C49	C	0.729956	0.129312	-0.074844
C50	C	1.063289	0.462645	0.258490
C51	C	1.396623	0.795978	0.591823
C52	C	0.619530	0.127841	-0.063531
C53	C	0.952864	0.461174	0.269802
C54	C	1.286197	0.794507	0.603135
C55	C	0.633048	0.114604	-0.269891
C56	C	0.966381	0.447937	0.063443
C57	C	1.299715	0.781271	0.396776
C58	C	0.743472	0.116068	-0.281204
C59	C	1.076805	0.449401	0.052129
C60	C	1.410138	0.782735	0.385462
C61	C	1.252313	-0.046911	-0.128364
C62	C	1.585647	0.286422	0.204969
C63	C	1.918980	0.619756	0.538303
C64	C	1.240306	-0.152105	-0.127132
C65	C	1.573639	0.181228	0.206201
C66	C	1.906973	0.514562	0.539535
C67	C	1.218355	-0.344709	-0.124898
C68	C	1.551688	-0.011376	0.208435
C69	C	1.885022	0.321958	0.541769
C70	C	1.303517	-0.402569	-0.133631
C71	C	1.636850	-0.069236	0.199703
C72	C	1.970183	0.264098	0.533036
C73	C	1.291303	-0.509740	-0.132388
C74	C	1.624636	-0.176407	0.200946
C75	C	1.957970	0.156926	0.534279
C76	C	1.230567	-0.237527	-0.126141
C77	C	1.563901	0.095806	0.207192
C78	C	1.897234	0.429139	0.540526
C79	C	1.453548	0.118931	-0.149004
C80	C	1.786882	0.452265	0.184329
C81	C	2.120215	0.785598	0.517662
C82	C	1.571073	0.120488	-0.161058
C83	C	1.904406	0.453821	0.172275
C84	C	2.237739	0.787155	0.505608
C85	C	1.269562	0.299639	-0.130158
C86	C	1.602896	0.632973	0.203176
C87	C	1.936229	0.966306	0.536509
C88	C	1.281570	0.404833	-0.131397
C89	C	1.614904	0.738166	0.201936
C90	C	1.948237	1.071499	0.535269
N91	N	1.241644	0.145290	0.165625
N92	N	1.574977	0.478623	0.498958
N93	N	1.908310	0.811957	0.832291
N94	N	1.280240	0.107431	-0.424145
N95	N	1.613573	0.440764	-0.090811
N96	N	1.946906	0.774098	0.242522
C97	C	1.357700	0.031371	0.390386
C98	C	1.691034	0.364704	0.723719
C99	C	2.024367	0.698037	1.057052
C100	C	1.349927	0.039012	0.509524
C101	C	1.683260	0.372346	0.842857
C102	C	2.016594	0.705679	1.176190
C103	C	1.218319	0.168210	0.523041
C104	C	1.551652	0.501544	0.856375
C105	C	1.884986	0.834877	1.189708
C106	C	1.226092	0.160568	0.403903
C107	C	1.559426	0.493902	0.737237
C108	C	1.892759	0.827235	1.070570
C109	C	1.295786	0.092147	0.337579
C110	C	1.629120	0.425481	0.670913
C111	C	1.962453	0.758814	1.004246
C112	C	1.303565	0.084511	0.218439
C113	C	1.636898	0.417844	0.551772
C114	C	1.970231	0.751177	0.885105
C115	C	1.171951	0.213703	0.231959
C116	C	1.505285	0.547037	0.565292
C117	C	1.838618	0.880370	0.898626
C118	C	1.164178	0.221345	0.351097
C119	C	1.497511	0.554679	0.684430
C120	C	1.830845	0.888012	1.017764
H121	H	0.593588	0.108618	-0.349299
H122	H	0.926922	0.441951	-0.015965
H123	H	1.260255	0.775285	0.317368
H124	H	0.727952	0.141467	0.111298
H125	H	1.061285	0.474801	0.444632
H126	H	1.394619	0.808134	0.777965
H127	H	0.928273	0.144123	0.090774
H128	H	1.261607	0.477456	0.424107
H129	H	1.594940	0.810790	0.757440
H130	H	1.136279	-0.375660	-0.116488
H131	H	1.469613	-0.042327	0.216845
H132	H	1.802946	0.291007	0.550178
H133	H	1.360316	0.028801	0.164438
H134	H	1.693649	0.362135	0.497771
H135	H	2.026982	0.695468	0.831105
H136	H	1.161568	0.223911	0.577059
H137	H	1.494901	0.557244	0.910392
H138	H	1.828235	0.890578	1.243725
H139	H	1.414456	-0.024334	0.336383
H140	H	1.747789	0.308999	0.669716
H141	H	2.081122	0.642332	1.003049
H142	H	1.121540	0.263195	0.188951
H143	H	1.454873	0.596528	0.522284
H144	H	1.788207	0.929861	0.855617
H145	H	1.400342	-0.010479	0.552515
H146	H	1.733676	0.322854	0.885848
H147	H	2.067009	0.656188	1.219182
H148	H	0.793939	0.111277	-0.369819
H149	H	1.127273	0.444610	-0.036486
H150	H	1.460606	0.777944	0.296848
H151	H	0.569078	0.132642	0.025092
H152	H	0.902412	0.465975	0.358426
H153	H	1.235745	0.799309	0.691759
H154	H	0.952817	0.120101	-0.283611
H155	H	1.286150	0.453434	0.049723
H156	H	1.619484	0.786768	0.383056
H157	H	1.107431	0.277050	0.405112
H158	H	1.440765	0.610384	0.738445
H159	H	1.774098	0.943717	1.071779
H160	H	1.385604	-0.371621	-0.142120
H161	H	1.718937	-0.038288	0.191213
H162	H	2.052271	0.295045	0.524546
