data_functionalizedCrystal
_audit_creation_method	'MofGen! by Chris Wilmer'
_symmetry_space_group_name_H-M	'P1'
_symmetry_Int_Tables_number	1
_symmetry_cell_setting	triclinic
loop_
_symmetry_equiv_pos_as_xyz
  x,y,z
_cell_length_a	17.699104
_cell_length_b	15.500227
_cell_length_c	17.699083
_cell_angle_alpha	87.178547
_cell_angle_beta	96.712734
_cell_angle_gamma	87.159343
loop_
_atom_site_label
_atom_site_type_symbol
_atom_site_fract_x
_atom_site_fract_y
_atom_site_fract_z
O1	O	-1.007595	0.071980	0.092265
O2	O	-0.507595	0.571980	0.592265
O3	O	-0.787218	0.071975	0.104701
O4	O	-0.287218	0.571975	0.604701
O5	O	-0.903632	0.071970	-0.011706
O6	O	-0.403632	0.571970	0.488294
O7	O	-0.891181	0.071985	0.208671
O8	O	-0.391181	0.571985	0.708671
O9	O	-0.896568	-0.071919	-0.004669
O10	O	-0.396568	0.428081	0.495331
O11	O	-0.780154	-0.071914	0.111737
O12	O	-0.280154	0.428086	0.611737
O13	O	-1.000530	-0.071908	0.099301
O14	O	-0.500530	0.428092	0.599301
Cu15	Cu	-0.889697	-0.085049	0.106161
Cu16	Cu	-0.389697	0.414951	0.606161
Cu17	Cu	-0.898052	0.085115	0.097840
Cu18	Cu	-0.398052	0.585115	0.597840
O19	O	-0.884116	-0.071904	0.215707
O20	O	-0.384116	0.428096	0.715707
C21	C	-0.755489	0.000030	0.107771
C22	C	-0.255489	0.500030	0.607771
C23	C	-0.671472	0.000027	0.106426
C24	C	-0.171472	0.500027	0.606426
C25	C	-0.146601	0.000032	0.167170
C26	C	0.353399	0.500032	0.667170
C27	C	-0.225545	0.000036	0.168428
C28	C	0.274455	0.500036	0.668428
C29	C	-0.274162	0.000031	0.100093
C30	C	0.225838	0.500031	0.600093
C31	C	-0.243833	0.000032	0.030495
C32	C	0.256167	0.500032	0.530495
C33	C	-0.164890	0.000035	0.029236
C34	C	0.335110	0.500035	0.529236
C35	C	-0.562198	0.000024	0.035568
C36	C	-0.062198	0.500024	0.535568
C37	C	-0.641145	0.000019	0.036832
C38	C	-0.141145	0.500019	0.536832
C39	C	-0.622853	0.000025	0.174760
C40	C	-0.122853	0.500025	0.674760
C41	C	-0.543911	0.000027	0.173502
C42	C	-0.043911	0.500027	0.673502
C43	C	-0.513588	0.000033	0.103903
C44	C	-0.013588	0.500033	0.603903
C45	C	-0.427988	0.000030	0.102539
C46	C	0.072012	0.500030	0.602539
C47	C	-0.359761	0.000028	0.101457
C48	C	0.140239	0.500028	0.601457
N49	N	-0.883827	-0.204734	0.112013
N50	N	-0.383827	0.295266	0.612013
C51	C	-0.933173	-0.250013	0.062706
C52	C	-0.433173	0.249987	0.562706
C53	C	-0.928740	-0.340585	0.067139
C54	C	-0.428740	0.159415	0.567139
C55	C	-0.874964	-0.385878	0.120883
C56	C	-0.374964	0.114122	0.620883
C57	C	-0.825613	-0.340593	0.170193
C58	C	-0.325613	0.159407	0.670193
C59	C	-0.830043	-0.250022	0.165756
C60	C	-0.330043	0.249978	0.665756
C61	C	-0.859007	-0.659344	0.136855
C62	C	-0.359007	-0.159344	0.636855
C63	C	-0.854582	-0.749921	0.141290
C64	C	-0.354582	-0.249921	0.641290
C65	C	-0.957708	-0.749908	0.038234
C66	C	-0.457708	-0.249908	0.538234
C67	C	-0.962136	-0.659335	0.033805
C68	C	-0.462136	-0.159335	0.533805
C69	C	-0.912783	-0.614058	0.083112
C70	C	-0.412783	-0.114058	0.583112
C71	C	-0.870434	-0.478457	0.125417
C72	C	-0.370434	0.021543	0.625417
C73	C	-0.917310	-0.521480	0.078574
C74	C	-0.417310	-0.021480	0.578574
C75	C	-0.032259	0.000034	0.096231
C76	C	0.467741	0.500034	0.596231
C77	C	-0.116276	0.000030	0.097576
C78	C	0.383724	0.500030	0.597576
C79	C	-0.899654	0.000026	-0.036385
C80	C	-0.399654	0.500026	0.463615
C81	C	-0.898315	0.000025	-0.120403
C82	C	-0.398315	0.500025	0.379597
N83	N	-0.903928	0.204800	0.091982
N84	N	-0.403928	0.704800	0.591982
C85	C	-0.966648	0.000026	-0.169019
C86	C	-0.466648	0.500026	0.330981
C87	C	-0.965386	0.000033	-0.247962
C88	C	-0.465386	0.500033	0.252038
C89	C	-0.895790	0.000034	-0.278288
C90	C	-0.395790	0.500034	0.221712
C91	C	-0.827453	0.000036	-0.229666
C92	C	-0.327453	0.500036	0.270334
C93	C	-0.828716	0.000035	-0.150725
C94	C	-0.328716	0.500035	0.349275
C95	C	-0.822358	0.000043	-0.548030
C96	C	-0.322358	0.500043	-0.048030
C97	C	-0.821100	0.000042	-0.626978
C98	C	-0.321100	0.500042	-0.126978
C99	C	-0.959028	0.000042	-0.645268
C100	C	-0.459028	0.500042	-0.145268
C101	C	-0.960291	0.000040	-0.566326
C102	C	-0.460291	0.500040	-0.066326
C103	C	-0.891954	0.000047	-0.517711
C104	C	-0.391954	0.500047	-0.017711
C105	C	-0.893323	0.000040	-0.432112
C106	C	-0.393323	0.500040	0.067888
C107	C	-0.894420	0.000035	-0.363886
C108	C	-0.394420	0.500035	0.136114
C109	C	-0.888095	0.000043	0.240386
C110	C	-0.388095	0.500043	0.740386
C111	C	-0.889434	0.000049	0.324404
C112	C	-0.389434	0.500049	0.824404
H113	H	-0.537520	0.000026	-0.021103
H114	H	-0.037520	0.500026	0.478897
C115	C	-0.051997	0.000042	-0.033938
C116	C	0.448003	0.500042	0.466062
C117	C	-0.131553	0.000033	-0.047263
C118	C	0.368447	0.500033	0.452737
H119	H	-0.031420	0.000050	-0.081168
H120	H	0.468580	0.500050	0.418832
H121	H	-0.032841	-0.050131	-0.003362
H122	H	0.467159	0.449869	0.496638
H123	H	-0.037779	0.050224	-0.008258
H124	H	0.462221	0.550224	0.491742
H125	H	-0.145772	-0.050152	-0.072938
H126	H	0.354228	0.449848	0.427062
H127	H	-0.150716	0.050211	-0.077851
H128	H	0.349284	0.550211	0.422149
H129	H	-0.107021	0.000028	0.222816
H130	H	0.392979	0.500028	0.722816
C131	C	-0.757922	0.000043	-0.739871
C132	C	-0.257922	0.500043	-0.239871
C133	C	-0.744595	0.000050	-0.660315
C134	C	-0.244595	0.500050	-0.160315
H135	H	-0.710693	0.000042	-0.760451
H136	H	-0.210693	0.500042	-0.260451
H137	H	-0.788516	0.050214	-0.759012
H138	H	-0.288516	0.550214	-0.259012
H139	H	-0.783585	-0.050141	-0.754104
H140	H	-0.283585	0.449859	-0.254104
H141	H	-0.718937	0.050237	-0.646082
H142	H	-0.218937	0.550237	-0.146082
H143	H	-0.713989	-0.050126	-0.641168
H144	H	-0.213989	0.449874	-0.141168
H145	H	-0.968920	-0.377451	0.026989
H146	H	-0.468920	0.122549	0.526989
H147	H	-1.005924	-0.622460	-0.009958
H148	H	-0.505924	-0.122460	0.490042
H149	H	-0.781824	-0.377475	0.213950
H150	H	-0.281824	0.122525	0.713950
C151	C	-1.034656	-0.259106	-0.038719
C152	C	-0.534656	0.240894	0.461281
C153	C	-0.992284	-0.200232	0.003626
C154	C	-0.492284	0.299768	0.503626
H155	H	-1.071144	-0.228373	-0.075197
H156	H	-0.571144	0.271627	0.424803
H157	H	-1.060092	-0.294414	-0.005516
H158	H	-0.560092	0.205586	0.494484
H159	H	-1.001466	-0.294449	-0.064171
H160	H	-0.501466	0.205551	0.435829
H161	H	-1.025473	-0.164892	0.029084
H162	H	-0.525473	0.335108	0.529084
H163	H	-0.966846	-0.164908	-0.029581
H164	H	-0.466846	0.335092	0.470419
H165	H	-0.997889	-0.786780	-0.001910
H166	H	-0.497889	-0.286780	0.498090
C167	C	-1.095500	0.000036	-0.655417
C168	C	-0.595500	0.500036	-0.155417
C169	C	-1.034150	0.000044	-0.698708
C170	C	-0.534150	0.500044	-0.198708
H171	H	-1.141874	0.000030	-0.688408
H172	H	-0.641874	0.500030	-0.188408
H173	H	-1.095588	0.050208	-0.626697
H174	H	-0.595588	0.550208	-0.126697
H175	H	-1.090650	-0.050147	-0.621794
H176	H	-0.590650	0.449853	-0.121794
H177	H	-1.038996	0.050230	-0.732327
H178	H	-0.538996	0.550230	-0.232327
H179	H	-1.034063	-0.050134	-0.727441
H180	H	-0.534063	0.449866	-0.227441
C181	C	-0.237864	0.074008	0.282768
C182	C	0.262136	0.574008	0.782768
C183	C	-0.258865	0.000040	0.244935
C184	C	0.241135	0.500040	0.744935
H185	H	-0.258426	0.074008	0.330006
H186	H	0.241574	0.574008	0.830006
H187	H	-0.257030	0.124174	0.252188
H188	H	0.242970	0.624174	0.752188
H189	H	-0.183889	0.073995	0.291779
H190	H	0.316111	0.573995	0.791779
H191	H	-0.312839	0.000056	0.235919
H192	H	0.187161	0.500056	0.735919
H193	H	-0.239701	-0.050139	0.275521
H194	H	0.260299	0.449861	0.775521
H195	H	-1.021030	0.000032	-0.287543
H196	H	-0.521030	0.500032	0.212457
H197	H	-0.810789	-0.786794	0.185058
H198	H	-0.310789	-0.286794	0.685058
C199	C	-1.018803	-0.530562	-0.022848
C200	C	-0.518803	-0.030562	0.477152
C201	C	-0.976419	-0.471698	0.019498
C202	C	-0.476419	0.028302	0.519498
H203	H	-1.055292	-0.499821	-0.059320
H204	H	-0.555292	0.000179	0.440680
H205	H	-1.044239	-0.565870	0.010355
H206	H	-0.544239	-0.065870	0.510355
H207	H	-0.985620	-0.565906	-0.048308
H208	H	-0.485620	-0.065906	0.451692
H209	H	-1.009601	-0.436358	0.044962
H210	H	-0.509601	0.063642	0.544962
H211	H	-0.950982	-0.436374	-0.013710
H212	H	-0.450982	0.063626	0.486290
H213	H	-0.826650	-0.515342	0.169178
H214	H	-0.326650	-0.015342	0.669178
C215	C	-1.045356	0.074008	-0.491771
C216	C	-0.545356	0.574008	0.008229
C217	C	-1.036792	0.000042	-0.532991
C218	C	-0.536792	0.500042	-0.032991
H219	H	-1.092583	0.074007	-0.471189
H220	H	-0.592583	0.574007	0.028811
H221	H	-1.044462	0.124175	-0.524638
H222	H	-0.544462	0.624175	-0.024638
H223	H	-1.004834	0.073996	-0.451520
H224	H	-0.504834	0.573996	0.048480
H225	H	-1.077311	0.000057	-0.573245
H226	H	-0.577311	0.500057	-0.073245
H227	H	-1.037693	-0.050138	-0.500121
H228	H	-0.537693	0.449862	-0.000121
C229	C	-0.713133	0.074012	-0.241999
C230	C	-0.213133	0.574012	0.258001
C231	C	-0.750952	0.000042	-0.263002
C232	C	-0.250952	0.500042	0.236998
H233	H	-0.665907	0.074015	-0.262582
H234	H	-0.165907	0.574015	0.237418
H235	H	-0.704105	0.074005	-0.188032
H236	H	-0.204105	0.574005	0.311968
H237	H	-0.743737	0.124182	-0.261150
H238	H	-0.243737	0.624182	0.238850
H239	H	-0.720351	-0.050129	-0.243845
H240	H	-0.220351	0.449871	0.256155
H241	H	-0.759978	0.000040	-0.316979
H242	H	-0.259978	0.500040	0.183021
H243	H	-0.766713	0.000048	-0.508457
H244	H	-0.266713	0.500048	-0.008457
H245	H	-1.023321	0.000020	-0.144334
H246	H	-0.523321	0.500020	0.355666
H247	H	-0.773072	0.000035	-0.111142
H248	H	-0.273072	0.500035	0.388858
H249	H	-0.504329	0.000026	0.229148
H250	H	-0.004329	0.500026	0.729148
C251	C	-0.651304	0.000038	-0.099644
C252	C	-0.151304	0.500038	0.400356
C253	C	-0.694589	0.000026	-0.038288
C254	C	-0.194589	0.500026	0.461712
H255	H	-0.684300	0.000048	-0.146016
H256	H	-0.184300	0.500048	0.353984
H257	H	-0.617670	-0.050135	-0.094823
H258	H	-0.117670	0.449865	0.405177
H259	H	-0.622597	0.050220	-0.099710
H260	H	-0.122597	0.550220	0.400290
H261	H	-0.723292	-0.050159	-0.038219
H262	H	-0.223292	0.449841	0.461781
H263	H	-0.728236	0.050204	-0.043111
H264	H	-0.228236	0.550204	0.456889
H265	H	-0.647551	0.000025	0.231431
H266	H	-0.147551	0.500025	0.731431
H267	H	-0.283424	0.000034	-0.025145
H268	H	0.216576	0.500034	0.474855
H269	H	-0.818822	-0.622486	0.177004
H270	H	-0.318822	-0.122486	0.677004
H271	H	-0.789860	-0.213157	0.205906
H272	H	-0.289860	0.286843	0.705906
