data_functionalizedCrystal
_audit_creation_method	'MofGen! by Chris Wilmer'
_symmetry_space_group_name_H-M	'P1'
_symmetry_Int_Tables_number	1
_symmetry_cell_setting	triclinic
loop_
_symmetry_equiv_pos_as_xyz
  x,y,z
_cell_length_a	14.853567
_cell_length_b	16.109318
_cell_length_c	15.186229
_cell_angle_alpha	90.002030
_cell_angle_beta	89.996484
_cell_angle_gamma	83.551747
loop_
_atom_site_label
_atom_site_type_symbol
_atom_site_fract_x
_atom_site_fract_y
_atom_site_fract_z
O1	O	0.115950	1.103288	0.073148
O2	O	0.449283	1.436621	0.406481
O3	O	0.782617	1.769954	0.739814
O4	O	0.130355	0.861248	0.073165
O5	O	0.463688	1.194581	0.406498
O6	O	0.797022	1.527915	0.739831
O7	O	-0.008087	0.988733	0.073158
O8	O	0.325246	1.322066	0.406492
O9	O	0.658579	1.655400	0.739825
O10	O	0.254393	0.975803	0.073154
O11	O	0.587726	1.309136	0.406487
O12	O	0.921059	1.642469	0.739821
O13	O	-0.008080	0.988718	-0.073299
O14	O	0.325254	1.322051	0.260035
O15	O	0.658587	1.655385	0.593368
O16	O	0.130363	0.861233	-0.073293
O17	O	0.463696	1.194566	0.260041
O18	O	0.797030	1.527900	0.593374
O19	O	0.115958	1.103273	-0.073309
O20	O	0.449291	1.436606	0.260024
O21	O	0.782625	1.769939	0.593357
Zn22	Zn	0.123162	0.982251	-0.096554
Zn23	Zn	0.456495	1.315584	0.236779
Zn24	Zn	0.789828	1.648917	0.570112
Zn25	Zn	0.123151	0.982270	0.096410
Zn26	Zn	0.456485	1.315604	0.429743
Zn27	Zn	0.789818	1.648937	0.763076
O28	O	0.254400	0.975788	-0.073303
O29	O	0.587734	1.309121	0.260030
O30	O	0.921067	1.642454	0.593363
C31	C	0.129773	0.830265	-0.000062
C32	C	0.463106	1.163598	0.333272
C33	C	0.796439	1.496932	0.666605
C34	C	0.128015	0.737968	-0.000055
C35	C	0.461348	1.071301	0.333278
C36	C	0.794682	1.404635	0.666612
C37	C	0.122334	0.438894	0.079764
C38	C	0.455668	0.772228	0.413097
C39	C	0.789001	1.105561	0.746430
C40	C	0.123980	0.525618	0.079769
C41	C	0.457313	0.858951	0.413102
C42	C	0.790646	1.192285	0.746436
C43	C	0.123976	0.525621	-0.079907
C44	C	0.457309	0.858954	0.253427
C45	C	0.790643	1.192287	0.586760
C46	C	0.122324	0.438899	-0.079911
C47	C	0.455657	0.772233	0.253422
C48	C	0.788991	1.105566	0.586755
C49	C	0.121508	0.395538	-0.000073
C50	C	0.454841	0.728871	0.333260
C51	C	0.788175	1.062205	0.666593
C52	C	0.124805	0.568983	-0.000064
C53	C	0.458138	0.902316	0.333270
C54	C	0.791472	1.235649	0.666603
C55	C	0.126589	0.663012	-0.000058
C56	C	0.459923	0.996346	0.333275
C57	C	0.793256	1.329679	0.666608
C58	C	0.119722	0.301503	-0.000078
C59	C	0.453055	0.634836	0.333255
C60	C	0.786389	0.968169	0.666588
C61	C	-0.041671	0.988140	-0.000068
C62	C	0.291662	1.321473	0.333266
C63	C	0.624995	1.654806	0.666599
C64	C	-0.141752	0.986384	-0.000060
C65	C	0.191581	1.319717	0.333274
C66	C	0.524914	1.653051	0.666607
C67	C	-0.554154	0.903233	-0.000071
C68	C	-0.220821	1.236567	0.333263
C69	C	0.112512	1.569900	0.666596
C70	C	-0.575675	1.054689	-0.000081
C71	C	-0.242342	1.388022	0.333252
C72	C	0.090991	1.721355	0.666585
C73	C	-0.481644	1.056339	-0.000076
C74	C	-0.148311	1.389673	0.333257
C75	C	0.185023	1.723006	0.666590
C76	C	-0.423864	0.981436	-0.000070
C77	C	-0.090530	1.314769	0.333264
C78	C	0.242803	1.648103	0.666597
C79	C	-0.460114	0.904882	-0.000068
C80	C	-0.126781	1.238215	0.333265
C81	C	0.206553	1.571549	0.666598
C82	C	-0.445386	1.132892	-0.000087
C83	C	-0.112053	1.466226	0.333247
C84	C	0.221280	1.799559	0.666580
C85	C	-0.351350	1.134546	-0.000082
C86	C	-0.018017	1.467880	0.333251
C87	C	0.315317	1.801213	0.666584
C88	C	-0.293567	1.059642	-0.000070
C89	C	0.039766	1.392975	0.333264
C90	C	0.373099	1.726309	0.666597
C91	C	-0.329823	0.983085	-0.000067
C92	C	0.003510	1.316418	0.333266
C93	C	0.336843	1.649751	0.666599
C94	C	-0.272043	0.908181	-0.000061
C95	C	0.061290	1.241515	0.333272
C96	C	0.394624	1.574848	0.666606
C97	C	-0.308297	0.831623	-0.000052
C98	C	0.025036	1.164956	0.333281
C99	C	0.358370	1.498290	0.666615
C100	C	-0.402332	0.829978	-0.000056
C101	C	-0.068998	1.163311	0.333278
C102	C	0.264335	1.496644	0.666611
C103	C	-0.199533	1.061287	-0.000066
C104	C	0.133801	1.394621	0.333267
C105	C	0.467134	1.727954	0.666600
C106	C	-0.178003	0.909830	-0.000058
C107	C	0.155331	1.243163	0.333275
C108	C	0.488664	1.576497	0.666608
C109	C	0.287984	0.976381	-0.000075
C110	C	0.621318	1.309714	0.333258
C111	C	0.954651	1.643048	0.666591
C112	C	0.388065	0.978137	-0.000077
C113	C	0.721399	1.311470	0.333256
C114	C	1.054732	1.644803	0.666589
C115	C	0.116540	1.134256	-0.000081
C116	C	0.449874	1.467589	0.333252
C117	C	0.783207	1.800922	0.666585
C118	C	0.118298	1.226553	-0.000082
C119	C	0.451631	1.559886	0.333251
C120	C	0.784965	1.893219	0.666584
N121	N	0.123168	0.982243	-0.228247
N122	N	0.456502	1.315576	0.105086
N123	N	0.789835	1.648910	0.438420
C124	C	0.177854	1.032743	-0.453974
C125	C	0.511187	1.366077	-0.120641
C126	C	0.844520	1.699410	0.212692
C127	C	0.177847	1.032752	-0.546164
C128	C	0.511180	1.366086	-0.212831
C129	C	0.844514	1.699419	0.120503
C130	C	0.068446	0.931782	-0.546164
C131	C	0.401779	1.265115	-0.212831
C132	C	0.735113	1.598449	0.120503
C133	C	0.068448	0.931778	-0.453976
C134	C	0.401782	1.265111	-0.120643
C135	C	0.735115	1.598445	0.212691
C136	C	0.123157	0.982257	-0.407884
C137	C	0.456491	1.315590	-0.074550
C138	C	0.789824	1.648924	0.258783
C139	C	0.123149	0.982270	-0.592261
C140	C	0.456482	1.315604	-0.258928
C141	C	0.789815	1.648937	0.074405
C142	C	0.123141	0.982280	-0.692217
C143	C	0.456475	1.315613	-0.358884
C144	C	0.789808	1.648946	-0.025551
C145	C	0.123164	0.982249	-0.307921
C146	C	0.456497	1.315582	0.025412
C147	C	0.789830	1.648916	0.358746
N148	N	0.123138	0.982284	0.228102
N149	N	0.456471	1.315618	0.561435
N150	N	0.789804	1.648951	0.894769
H151	H	0.124642	0.560936	-0.144908
H152	H	0.457976	0.894269	0.188425
H153	H	0.791309	1.227602	0.521759
H154	H	0.023905	0.890683	-0.583703
H155	H	0.357238	1.224016	-0.250370
H156	H	0.690572	1.557349	0.082963
H157	H	0.124651	0.560915	0.144780
H158	H	0.457985	0.894249	0.478114
H159	H	0.791318	1.227582	0.811447
F160	F	-0.116515	0.830105	-0.000045
F161	F	0.216819	1.163439	0.333288
F162	F	0.550152	1.496772	0.666621
H163	H	0.121650	0.403598	-0.144928
H164	H	0.454984	0.736931	0.188405
H165	H	0.788317	1.070264	0.521739
F166	F	0.236061	1.086488	-0.595213
F167	F	0.569394	1.419821	-0.261880
F168	F	0.902728	1.753155	0.071453
H169	H	0.222401	1.073847	-0.416449
H170	H	0.555734	1.407180	-0.083115
H171	H	0.889068	1.740514	0.250218
F172	F	-0.246792	0.751908	-0.000052
F173	F	0.086541	1.085242	0.333281
F174	F	0.419874	1.418575	0.666615
F175	F	-0.440923	0.748506	-0.000044
F176	F	-0.107589	1.081840	0.333290
F177	F	0.225744	1.415173	0.666623
H178	H	0.023903	0.890665	-0.416448
H179	H	0.357237	1.223999	-0.083114
H180	H	0.690570	1.557332	0.250219
H181	H	-0.622725	1.115671	-0.000094
H182	H	-0.289392	1.449005	0.333240
H183	H	0.043941	1.782338	0.666573
F184	F	0.121462	0.392749	0.164734
F185	F	0.454796	0.726083	0.498067
F186	F	0.788129	1.059416	0.831401
H187	H	-0.583677	0.840902	-0.000060
H188	H	-0.250343	1.174235	0.333273
H189	H	0.082990	1.507568	0.666606
H190	H	-0.492437	1.193874	-0.000100
H191	H	-0.159104	1.527208	0.333233
H192	H	0.174229	1.860541	0.666567
H193	H	-0.321840	1.196884	-0.000088
H194	H	0.011493	1.530218	0.333245
H195	H	0.344826	1.863551	0.666578
F196	F	-0.160952	1.142760	-0.000090
F197	F	0.172382	1.476093	0.333244
F198	F	0.505715	1.809427	0.666577
