data_functionalizedCrystal
_audit_creation_method	'MofGen! by Chris Wilmer'
_symmetry_space_group_name_H-M	'P1'
_symmetry_Int_Tables_number	1
_symmetry_cell_setting	triclinic
loop_
_symmetry_equiv_pos_as_xyz
  x,y,z
_cell_length_a	18.050589
_cell_length_b	12.594517
_cell_length_c	12.594502
_cell_angle_alpha	90.041991
_cell_angle_beta	89.936197
_cell_angle_gamma	89.971979
loop_
_atom_site_label
_atom_site_type_symbol
_atom_site_fract_x
_atom_site_fract_y
_atom_site_fract_z
Zn1	Zn	-0.295376	-1.627394	-0.601865
Zn2	Zn	-0.419658	-1.627183	-0.423888
Zn3	Zn	-0.295486	-1.449334	-0.423893
Zn4	Zn	-0.419529	-1.449342	-0.601818
O5	O	-0.357512	-1.538313	-0.512866
O6	O	-0.311871	-1.776312	-0.578273
O7	O	-0.403287	-1.603499	-0.274942
O8	O	-0.191547	-1.473039	-0.447524
O9	O	-0.403180	-1.776157	-0.447514
O10	O	-0.191466	-1.603859	-0.578278
O11	O	-0.312058	-1.472834	-0.274947
O12	O	-0.311933	-1.300389	-0.447478
O13	O	-0.402959	-1.473053	-0.750770
O14	O	-0.403066	-1.300396	-0.578199
O15	O	-0.311745	-1.603867	-0.750805
O16	O	-0.523566	-1.603507	-0.447468
O17	O	-0.523470	-1.472849	-0.578193
C18	C	-0.357498	-1.261772	-0.512835
C19	C	-0.357509	-1.143467	-0.512846
C20	C	-0.550465	-1.538185	-0.512848
C21	C	-0.633010	-1.538227	-0.512876
C22	C	-0.357325	-1.538485	-0.790487
C23	C	-0.357246	-1.538558	-0.908793
C24	C	-0.832436	-1.467245	-0.583939
C25	C	-0.881924	-1.441262	-0.486814
C26	C	-0.784141	-1.538332	-0.512890
C27	C	-0.881734	-1.564368	-0.610026
C28	C	-0.930126	-1.538431	-0.512912
C29	C	-0.832541	-1.512297	-0.415714
C30	C	-0.832348	-1.635449	-0.538991
C31	C	-0.881813	-1.609502	-0.441799
C32	C	-0.700042	-1.538272	-0.512879
C33	C	-1.014222	-1.538491	-0.512912
C34	C	-0.163807	-1.538471	-0.512907
C35	C	-0.081261	-1.538539	-0.512924
C36	C	-0.357528	-1.815934	-0.512898
C37	C	-0.357534	-1.934240	-0.512912
C38	C	-0.307874	-1.074180	-0.441883
C39	C	-0.375628	-1.003339	-0.415704
C40	C	-0.289789	-1.003509	-0.539044
C41	C	-0.425298	-1.074184	-0.486616
C42	C	-0.339414	-1.074361	-0.610001
C43	C	-0.407214	-1.003552	-0.583859
C44	C	-0.357645	-1.538204	-0.236325
C45	C	-0.357516	-1.538337	-0.118019
C46	C	-0.406593	-1.610064	0.022053
C47	C	-0.338800	-1.635376	-0.049064
C48	C	-0.425303	-1.513071	-0.048475
C49	C	-0.289415	-1.563922	0.021648
C50	C	-0.375964	-1.441572	0.022244
C51	C	-0.308124	-1.466846	-0.048841
H52	H	-0.903716	-1.359179	-0.464758
H53	H	-0.323079	-1.717301	-0.080378
H54	H	-0.266461	-1.406275	-0.079762
H55	H	-0.810557	-1.717512	-0.561094
H56	H	-0.482596	-1.105100	-0.464395
H57	H	-0.448156	-1.670674	0.053176
H58	H	-0.811021	-1.490221	-0.333553
O59	O	-0.907428	-1.590474	-0.708094
C60	C	-0.882284	-1.515247	-0.782725
H61	H	-0.830338	-1.474673	-0.751142
H62	H	-0.868879	-1.556952	-0.860786
H63	H	-0.927302	-1.453287	-0.796596
H64	H	-0.391704	-1.359671	0.053581
O65	O	-0.493884	-1.487581	-0.085110
C66	C	-0.545584	-1.563313	-0.049009
H67	H	-0.523282	-1.603722	0.025354
H68	H	-0.600208	-1.522128	-0.029631
H69	H	-0.555067	-1.625327	-0.113557
H70	H	-0.390949	-0.972145	-0.333570
O71	O	-0.806531	-1.395575	-0.655640
C72	C	-0.763453	-1.448406	-0.732772
H73	H	-0.780219	-1.535597	-0.736138
H74	H	-0.772961	-1.410238	-0.813668
H75	H	-0.702345	-1.442102	-0.710883
O76	O	-0.457254	-0.966730	-0.655608
C77	C	-0.420456	-0.905205	-0.732840
H78	H	-0.359588	-0.929170	-0.736177
H79	H	-0.447053	-0.919141	-0.813712
H80	H	-0.424972	-0.817557	-0.711085
O81	O	-0.257930	-1.111134	-0.370064
C82	C	-0.277294	-1.074915	-0.267774
H83	H	-0.338897	-1.055034	-0.265620
H84	H	-0.264871	-1.139593	-0.207062
H85	H	-0.243772	-1.000834	-0.247924
O86	O	-0.320985	-1.111563	-0.707925
C87	C	-0.249504	-1.075597	-0.735217
H88	H	-0.217436	-1.055650	-0.659876
H89	H	-0.219054	-1.140452	-0.780976
H90	H	-0.254222	-1.001608	-0.786867
H91	H	-0.903356	-1.669660	-0.381655
O92	O	-0.221399	-0.966596	-0.565329
C93	C	-0.169240	-1.002559	-0.490249
H94	H	-0.191218	-1.077035	-0.449629
H95	H	-0.114813	-1.021702	-0.532104
H96	H	-0.159510	-0.938022	-0.428303
H97	H	-0.231954	-1.585472	0.052331
