data_functionalizedCrystal
_audit_creation_method	'MofGen! by Chris Wilmer'
_symmetry_space_group_name_H-M	'P1'
_symmetry_Int_Tables_number	1
_symmetry_cell_setting	triclinic
loop_
_symmetry_equiv_pos_as_xyz
  x,y,z
_cell_length_a	18.215405
_cell_length_b	17.077404
_cell_length_c	17.077396
_cell_angle_alpha	89.982756
_cell_angle_beta	89.967575
_cell_angle_gamma	90.025110
loop_
_atom_site_label
_atom_site_type_symbol
_atom_site_fract_x
_atom_site_fract_y
_atom_site_fract_z
Zn1	Zn	-0.292974	1.200026	-0.443826
Zn2	Zn	-0.416049	1.199934	-0.312553
Zn3	Zn	-0.293001	1.068763	-0.312574
Zn4	Zn	-0.416004	1.068721	-0.443776
O5	O	-0.354507	1.134361	-0.378182
O6	O	-0.309307	1.309861	-0.426424
O7	O	-0.399757	1.182513	-0.202708
O8	O	-0.190013	1.086232	-0.330014
O9	O	-0.399730	1.309793	-0.329978
O10	O	-0.189993	1.182670	-0.426444
O11	O	-0.309355	1.086142	-0.202724
O12	O	-0.309310	0.958911	-0.329966
O13	O	-0.399653	1.086160	-0.553630
O14	O	-0.399680	0.958880	-0.426360
O15	O	-0.309263	1.182630	-0.553666
O16	O	-0.519027	1.182472	-0.329930
O17	O	-0.518994	1.086071	-0.426340
C18	C	-0.354494	0.930413	-0.378160
C19	C	-0.354506	0.843164	-0.378170
C20	C	-0.401632	0.802178	-0.428282
C21	C	-0.401634	0.720198	-0.428294
C22	C	-0.354512	0.679204	-0.378190
C23	C	-0.307381	0.720195	-0.328076
C24	C	-0.307376	0.802174	-0.328068
C25	C	-0.307395	0.549325	-0.328095
C26	C	-0.307401	0.467341	-0.328102
C27	C	-0.401653	0.467349	-0.428321
C28	C	-0.401648	0.549327	-0.428313
C29	C	-0.354517	0.590313	-0.378198
C30	C	-0.545713	1.134278	-0.378144
C31	C	-0.627512	1.134315	-0.378154
C32	C	-0.815699	1.184629	-0.328046
C33	C	-0.892558	1.184664	-0.328065
C34	C	-0.892563	1.084194	-0.428374
C35	C	-0.815706	1.084164	-0.428359
C36	C	-0.777276	1.134380	-0.378190
C37	C	-0.930992	1.134445	-0.378225
C38	C	-1.014325	1.134483	-0.378246
C39	C	-0.693937	1.134343	-0.378170
C40	C	-0.162554	1.134466	-0.378237
C41	C	-0.080755	1.134510	-0.378261
C42	C	-0.354450	1.134401	-0.582926
C43	C	-0.354426	1.134417	-0.670176
C44	C	-0.354521	1.339105	-0.378204
C45	C	-0.354527	1.426355	-0.378214
C46	C	-0.307347	1.084253	-0.711174
C47	C	-0.307331	1.084265	-0.793154
C48	C	-0.354389	1.134448	-0.834136
C49	C	-0.401473	1.184615	-0.793132
C50	C	-0.401492	1.184597	-0.711153
C51	C	-0.401427	1.184649	-0.964003
C52	C	-0.401406	1.184667	-1.045987
C53	C	-0.307265	1.084317	-1.046004
C54	C	-0.307285	1.084299	-0.964025
C55	C	-0.354367	1.134468	-0.923027
C56	C	-0.354511	1.134367	-0.174234
C57	C	-0.354328	1.134502	-0.086985
H58	H	-0.269010	0.686812	-0.287284
C59	C	-0.697880	1.229191	-0.283477
C60	C	-0.773455	1.239829	-0.272907
H61	H	-0.671803	1.263268	-0.249432
H62	H	-0.685241	1.240640	-0.336221
H63	H	-0.685340	1.176449	-0.271933
H64	H	-0.785996	1.292569	-0.284457
H65	H	-0.786099	1.228386	-0.220151
H66	H	-0.269021	0.433966	-0.287312
H67	H	-0.269023	1.043393	-0.677813
C68	C	-0.979119	1.195740	-0.222559
C69	C	-0.934822	1.239925	-0.272997
H70	H	-1.005222	1.229869	-0.188581
H71	H	-0.949204	1.161579	-0.192445
H72	H	-1.012983	1.165816	-0.252447
H73	H	-0.900954	1.269845	-0.243109
H74	H	-0.964740	1.274100	-0.303114
H75	H	-0.439725	1.225530	-1.079352
C76	C	-1.010383	1.039623	-0.472931
C77	C	-0.934808	1.028990	-0.483509
H78	H	-1.036460	1.005536	-0.506965
H79	H	-1.022928	1.092354	-0.484476
H80	H	-1.023015	1.028175	-0.420177
H81	H	-0.922175	1.040443	-0.536262
H82	H	-0.922258	0.976247	-0.471969
H83	H	-0.784419	1.043245	-0.469195
H84	H	-0.268998	1.043413	-0.826531
C85	C	-0.214230	0.985106	-0.972271
C86	C	-0.255558	1.029139	-0.918976
H87	H	-0.182300	0.951048	-0.944457
H88	H	-0.186074	1.019327	-1.004256
H89	H	-0.246290	0.955068	-1.004234
H90	H	-0.223497	1.059181	-0.887016
H91	H	-0.283716	0.994914	-0.886977
C92	C	-0.494788	0.793943	-0.527352
C93	C	-0.453428	0.847234	-0.483361
H94	H	-0.526760	0.821759	-0.561361
H95	H	-0.522901	0.761946	-0.493100
H96	H	-0.462751	0.761990	-0.557438
H97	H	-0.485465	0.879183	-0.453270
H98	H	-0.425313	0.879244	-0.517617
H99	H	-0.440026	0.433974	-0.469129
H100	H	-0.268997	0.835544	-0.287266
H101	H	-0.268928	1.043469	-1.079388
H102	H	-0.439760	1.225508	-0.930625
C103	C	-0.411684	1.290220	-0.885327
C104	C	-0.453201	1.239777	-0.838177
H105	H	-0.443620	1.324279	-0.913130
H106	H	-0.383649	1.260346	-0.921474
H107	H	-0.379633	1.320254	-0.853350
H108	H	-0.485248	1.209738	-0.870155
H109	H	-0.481248	1.269654	-0.802025
H110	H	-0.439823	1.225453	-0.677774
C111	C	-0.412002	0.628057	-0.533882
C112	C	-0.453441	0.675152	-0.483378
H113	H	-0.443990	0.600254	-0.567893
H114	H	-0.383947	0.591910	-0.504049
H115	H	-0.379975	0.660072	-0.563964
H116	H	-0.485465	0.643136	-0.453291
H117	H	-0.481509	0.711303	-0.513214
C118	C	-0.208375	0.641547	-0.317360
C119	C	-0.255589	0.594375	-0.273005
H120	H	-0.176392	0.669353	-0.283347
H121	H	-0.236435	0.677691	-0.347191
H122	H	-0.180268	0.609584	-0.351616
H123	H	-0.283700	0.626339	-0.238753
H124	H	-0.227525	0.558226	-0.243160
H125	H	-0.440023	0.582702	-0.469108
