data_functionalizedCrystal
_audit_creation_method	'MofGen! by Chris Wilmer'
_symmetry_space_group_name_H-M	'P1'
_symmetry_Int_Tables_number	1
_symmetry_cell_setting	triclinic
loop_
_symmetry_equiv_pos_as_xyz
  x,y,z
_cell_length_a	13.339070
_cell_length_b	10.489716
_cell_length_c	12.376457
_cell_angle_alpha	101.395919
_cell_angle_beta	75.589755
_cell_angle_gamma	100.079215
loop_
_atom_site_label
_atom_site_type_symbol
_atom_site_fract_x
_atom_site_fract_y
_atom_site_fract_z
O1	O	1.366182	0.623455	-0.094008
O2	O	1.071048	0.539310	-0.094007
O3	O	1.225344	0.398085	-0.094011
O4	O	1.211885	0.764680	-0.094003
O5	O	1.186784	0.433329	0.094002
O6	O	1.032487	0.574554	0.094007
O7	O	1.327621	0.658699	0.094005
Zn8	Zn	1.173932	0.622222	0.123857
Zn9	Zn	1.224737	0.575787	-0.123858
O10	O	1.173325	0.799924	0.094010
C11	C	1.013975	0.542718	0.000000
C12	C	0.901368	0.500349	0.000000
C13	C	0.538954	0.829781	-0.000010
C14	C	0.644755	0.869591	-0.000014
C15	C	0.708913	0.777284	-0.000010
C16	C	0.667261	0.645160	-0.000003
C17	C	0.561451	0.605344	-0.000008
C18	C	0.731410	0.552847	-0.000008
C19	C	0.689758	0.420723	-0.000001
C20	C	0.583959	0.380914	-0.000006
C21	C	0.519800	0.473221	-0.000010
C22	C	0.837220	0.592663	-0.000003
C23	C	0.859717	0.368226	-0.000001
C24	C	0.753916	0.328416	0.000003
C25	C	1.205053	0.367828	-0.000008
C26	C	1.202031	0.225160	-0.000018
C27	C	1.296647	0.159881	-0.000009
C28	C	1.265661	0.048026	-0.092706
C29	C	1.227621	0.082803	0.092661
C30	C	1.171099	0.115170	-0.092792
C31	C	1.133056	0.149972	0.092657
C32	C	1.102004	0.038139	-0.000062
C33	C	1.384694	0.655291	-0.000004
C34	C	1.497303	0.697658	-0.000011
C35	C	1.193616	0.830180	0.000004
C36	C	1.196640	0.972847	0.000007
N37	N	1.139266	0.653915	0.292917
N38	N	1.259411	0.544087	-0.292918
C39	C	1.339882	0.470492	0.647895
C40	C	1.364139	0.448308	0.529555
C41	C	1.307923	0.499707	0.470389
C42	C	1.227445	0.573296	0.529576
C43	C	1.203191	0.595491	0.647928
C44	C	1.171232	0.624706	0.470422
C45	C	1.090754	0.698294	0.529609
C46	C	1.066504	0.720485	0.647950
C47	C	1.122720	0.669085	0.707115
C48	C	1.195486	0.602511	0.352070
C49	C	1.058795	0.727510	0.352103
C50	C	1.034538	0.749694	0.470444
H51	H	0.795061	0.809705	-0.000016
H52	H	0.550052	0.273328	-0.000013
Br53	Br	1.089790	0.699184	0.867728
H54	H	1.077074	0.194520	0.171031
Br55	Br	0.957301	0.820377	0.728278
H56	H	0.719989	0.220836	-0.000001
H57	H	0.969012	0.809612	0.518649
Br58	Br	1.359020	-0.026167	-0.223329
H59	H	0.678662	0.977165	-0.000028
Br60	Br	0.982503	0.797282	0.271816
H61	H	1.147269	0.130100	-0.171247
Br62	Br	1.433851	0.247947	-0.000158
H63	H	1.261011	0.542596	0.303891
H64	H	0.871121	0.700240	-0.000004
Br65	Br	0.451886	0.955034	-0.000040
Br66	Br	1.267435	0.057631	0.223277
H67	H	1.385652	0.428657	0.696075
Br68	Br	1.340842	0.469599	0.309781
Br69	Br	1.473354	0.348448	0.449231
Br70	Br	0.376205	0.419197	0.000002
H71	H	0.911956	0.293061	-0.000003
Br72	Br	0.964742	-0.049597	-0.000137
