data_functionalizedCrystal
_audit_creation_method	'MofGen! by Chris Wilmer'
_symmetry_space_group_name_H-M	'P1'
_symmetry_Int_Tables_number	1
_symmetry_cell_setting	triclinic
loop_
_symmetry_equiv_pos_as_xyz
  x,y,z
_cell_length_a	10.654562
_cell_length_b	14.519731
_cell_length_c	9.130313
_cell_angle_alpha	89.997760
_cell_angle_beta	89.996930
_cell_angle_gamma	84.089478
loop_
_atom_site_label
_atom_site_type_symbol
_atom_site_fract_x
_atom_site_fract_y
_atom_site_fract_z
O1	O	1.666592	0.129583	-0.121899
O2	O	1.300999	0.141911	-0.121881
O3	O	1.493475	0.001560	-0.121878
O4	O	1.474116	0.269934	-0.121903
O5	O	1.493472	0.001564	0.121721
O6	O	1.300996	0.141915	0.121717
O7	O	1.666590	0.129586	0.121700
Cu8	Cu	1.483793	0.135751	0.143951
Cu9	Cu	1.483796	0.135747	-0.144133
O10	O	1.474114	0.269937	0.121696
C11	C	1.254208	0.141006	-0.000080
C12	C	1.114792	0.138290	-0.000072
C13	C	1.049272	0.137025	0.132702
C14	C	0.918274	0.134481	0.132678
C15	C	0.918326	0.134470	-0.132907
C16	C	1.049323	0.137008	-0.132881
C17	C	1.114740	0.138308	0.265511
C18	C	1.049220	0.137044	0.398296
C19	C	0.918222	0.134500	0.398272
C20	C	0.852744	0.133219	0.265462
C21	C	1.492566	-0.032802	-0.000078
C22	C	1.489848	-0.135196	-0.000077
C23	C	1.487640	-0.218352	-0.000080
C24	C	1.484880	-0.322675	-0.000091
C25	C	1.482690	-0.405826	-0.000100
C26	C	1.479930	-0.510155	-0.000109
C27	C	1.713380	0.130492	-0.000106
C28	C	1.852797	0.133208	-0.000122
C29	C	1.475022	0.304300	-0.000107
C30	C	1.477740	0.406694	-0.000118
N31	N	1.483800	0.135754	0.346574
N32	N	1.483798	0.135737	-0.346756
C33	C	1.569050	0.073628	0.423227
C34	C	1.569047	0.073617	0.576564
C35	C	1.398539	0.197866	0.576580
C36	C	1.398537	0.197872	0.423246
C37	C	1.654313	0.011510	0.346555
C38	C	1.739571	-0.050621	0.423209
C39	C	1.739567	-0.050632	0.576546
C40	C	1.654306	0.011488	0.653229
H41	H	1.654326	0.011515	0.221700
H42	H	0.746077	0.131145	0.265453
N43	N	1.306584	0.264862	0.659280
H44	H	1.319523	0.255432	0.768048
H45	H	1.321236	0.330388	0.632480
N46	N	0.847476	0.133079	0.541423
H47	H	0.860145	0.190576	0.599550
H48	H	0.754606	0.131223	0.521020
N49	N	0.847714	0.133102	-0.276147
H50	H	0.880554	0.076475	-0.334191
H51	H	0.754801	0.131341	-0.255899
H52	H	1.808979	-0.101227	0.638956
H53	H	1.102670	0.138042	-0.240998
H54	H	1.221405	0.140382	0.265546
H55	H	1.808981	-0.101202	0.360766
N56	N	1.306586	0.264877	0.340565
H57	H	1.321192	0.330433	0.367243
H58	H	1.319565	0.255371	0.231821
H59	H	1.102542	0.138080	0.506424
N60	N	1.654285	0.011480	0.818613
H61	H	1.635874	-0.051307	0.855544
H62	H	1.739649	0.025521	0.855436
