data_functionalizedCrystal
_audit_creation_method	'MofGen! by Chris Wilmer'
_symmetry_space_group_name_H-M	'P1'
_symmetry_Int_Tables_number	1
_symmetry_cell_setting	triclinic
loop_
_symmetry_equiv_pos_as_xyz
  x,y,z
_cell_length_a	13.033293
_cell_length_b	25.639240
_cell_length_c	13.032268
_cell_angle_alpha	82.864661
_cell_angle_beta	90.920818
_cell_angle_gamma	97.200942
loop_
_atom_site_label
_atom_site_type_symbol
_atom_site_fract_x
_atom_site_fract_y
_atom_site_fract_z
Zn1	Zn	1.498386	-0.162665	0.781409
Zn2	Zn	1.998386	0.337335	1.281409
Zn3	Zn	1.520093	-0.237801	0.609402
Zn4	Zn	2.020093	0.262199	1.109402
Zn5	Zn	1.348247	-0.159904	0.587586
Zn6	Zn	1.848247	0.340096	1.087586
Zn7	Zn	1.326334	-0.259596	0.759432
Zn8	Zn	1.826334	0.240404	1.259432
O9	O	1.423265	-0.204991	0.684457
O10	O	1.923265	0.295009	1.184457
O11	O	1.645188	-0.164666	0.776919
O12	O	2.145188	0.335334	1.276919
O13	O	1.515553	-0.217190	0.462604
O14	O	2.015553	0.282810	0.962604
O15	O	1.368250	-0.087103	0.613364
O16	O	1.868250	0.412897	1.113364
O17	O	1.661136	-0.219868	0.650546
O18	O	2.161136	0.280132	1.150546
O19	O	1.478556	-0.089132	0.755765
O20	O	1.978556	0.410868	1.255765
O21	O	1.389298	-0.159960	0.446576
O22	O	1.889298	0.340040	0.946576
O23	O	1.201418	-0.181094	0.592054
O24	O	1.701418	0.318906	1.092054
O25	O	1.330901	-0.257015	0.906251
O26	O	1.830901	0.242985	1.406251
O27	O	1.185318	-0.254338	0.718309
O28	O	1.685318	0.245662	1.218309
O29	O	1.457307	-0.185800	0.922397
O30	O	1.957307	0.314200	1.422397
O31	O	1.494304	-0.313858	0.629236
O32	O	1.994304	0.186142	1.129236
O33	O	1.351950	-0.329872	0.739463
O34	O	1.851950	0.170128	1.239463
C35	C	1.156050	-0.219782	0.650430
C36	C	1.656050	0.280218	1.150430
C37	C	1.041732	-0.226124	0.635897
C38	C	1.541732	0.273876	1.135897
C39	C	0.982861	-0.201695	0.692041
C40	C	1.482861	0.298305	1.192041
C41	C	0.864707	-0.208249	0.677023
C42	C	1.364707	0.291751	1.177023
C43	C	1.423130	-0.340836	0.684358
C44	C	1.923130	0.159164	1.184358
C45	C	1.423162	-0.398948	0.684362
C46	C	1.923162	0.101052	1.184362
C47	C	1.480719	-0.760335	0.758728
C48	C	1.980719	-0.260335	1.258728
C49	C	1.480747	-0.814940	0.758753
C50	C	1.980747	-0.314940	1.258753
O51	O	1.529521	-0.844051	0.821877
O52	O	2.029521	-0.344051	1.321877
N53	N	1.423395	-0.841230	0.684574
N54	N	1.923395	-0.341230	1.184574
C55	C	1.366004	-0.812913	0.610373
C56	C	1.866004	-0.312913	1.110373
O57	O	1.317223	-0.840289	0.547282
O58	O	1.817223	-0.340289	1.047282
C59	C	1.365971	-0.758311	0.610354
C60	C	1.865971	-0.258311	1.110354
C61	C	1.423334	-0.732023	0.684530
C62	C	1.923334	-0.232023	1.184530
C63	C	1.538077	-0.734047	0.832899
C64	C	2.038077	-0.234047	1.332899
C65	C	1.538050	-0.679447	0.832873
C66	C	2.038050	-0.179447	1.332873
C67	C	1.480666	-0.651134	0.758675
C68	C	1.980666	-0.151134	1.258675
C69	C	1.423308	-0.677422	0.684504
C70	C	1.923308	-0.177422	1.184504
C71	C	1.308574	-0.729997	0.536158
C72	C	1.808574	-0.229997	1.036158
C73	C	1.308546	-0.675391	0.536145
C74	C	1.808546	-0.175391	1.036145
C75	C	1.365909	-0.649103	0.610322
C76	C	1.865909	-0.149103	1.110322
C77	C	1.365897	-0.594510	0.610280
C78	C	1.865897	-0.094510	1.110280
N79	N	1.423249	-0.568219	0.684459
N80	N	1.923249	-0.068219	1.184459
C81	C	1.480633	-0.596532	0.758656
C82	C	1.980633	-0.096532	1.258656
C83	C	1.366076	-0.927583	0.610421
C84	C	1.866076	-0.427583	1.110421
C85	C	1.366114	-0.982183	0.610434
C86	C	1.866114	-0.482183	1.110434
C87	C	1.480855	-0.984206	0.758816
C88	C	1.980855	-0.484206	1.258816
C89	C	1.480822	-0.929603	0.758796
C90	C	1.980822	-0.429603	1.258796
C91	C	1.423427	-0.901293	0.684599
C92	C	1.923427	-0.401293	1.184599
C93	C	1.480574	-0.481867	0.758595
C94	C	1.980574	0.018133	1.258595
C95	C	1.480546	-0.427261	0.758559
C96	C	1.980546	0.072739	1.258559
C97	C	1.365801	-0.425244	0.610182
C98	C	1.865801	0.074756	1.110182
C99	C	1.365833	-0.479844	0.610214
C100	C	1.865833	0.020156	1.110214
C101	C	1.423222	-0.508155	0.684429
C102	C	1.923222	-0.008155	1.184429
O103	O	1.317144	-0.565365	0.547191
O104	O	1.817144	-0.065365	1.047191
O105	O	1.529394	-0.569151	0.821745
O106	O	2.029394	-0.069151	1.321745
C107	C	1.691523	-0.190143	0.718618
C108	C	2.191523	0.309857	1.218618
C109	C	1.805838	-0.183816	0.733175
C110	C	2.305838	0.316184	1.233175
C111	C	1.389238	-0.224147	0.952680
C112	C	1.889238	0.275853	1.452680
C113	C	1.374738	-0.232310	1.066981
C114	C	1.874738	0.267690	1.566981
C115	C	1.423426	-0.068616	0.684582
C116	C	1.923426	0.431384	1.184582
C117	C	1.423494	-0.010501	0.684636
C118	C	1.923494	0.489499	1.184636
C119	C	1.457218	-0.185869	0.417285
C120	C	1.957218	0.314131	0.917285
C121	C	1.471918	-0.177548	0.303010
C122	C	1.971918	0.322452	0.803010
C123	C	1.430817	-0.200713	1.125928
C124	C	1.930817	0.299287	1.625928
C125	C	1.415831	-0.209149	1.244064
C126	C	1.915831	0.290851	1.744064
H127	H	1.004660	-0.251890	0.576709
H128	H	1.504660	0.248110	1.076709
H129	H	1.527262	-0.405859	0.818963
H130	H	2.027262	0.094141	1.318963
H131	H	1.489918	-0.167415	1.088936
H132	H	1.989918	0.332585	1.588936
H133	H	1.527298	-0.504912	0.819034
H134	H	2.027298	-0.004912	1.319034
N135	N	1.596675	-0.652609	0.908640
N136	N	2.096675	-0.152609	1.408640
N137	N	1.692438	-0.652948	0.913965
N138	N	2.192438	-0.152948	1.413965
H139	H	1.733852	-0.634001	0.967481
H140	H	2.233852	-0.134001	1.467481
H141	H	1.356716	-0.242445	1.281051
H142	H	1.856716	0.257555	1.781051
N143	N	1.029344	-0.169361	0.766286
N144	N	1.529344	0.330639	1.266286
N145	N	1.018304	-0.121291	0.758145
N146	N	1.518304	0.378709	1.258145
H147	H	1.051129	-0.098453	0.810581
H148	H	1.551129	0.401547	1.310581
H149	H	1.531021	-0.144247	1.266023
H150	H	2.031021	0.355753	1.766023
H151	H	1.584805	-0.757094	0.893326
H152	H	2.084805	-0.257094	1.393326
H153	H	1.315627	-0.265603	1.103972
H154	H	1.815627	0.234397	1.603972
N155	N	1.539426	-0.902761	0.834570
N156	N	2.039426	-0.402761	1.334570
N157	N	1.590660	-0.928052	0.900805
N158	N	2.090660	-0.428052	1.400805
H159	H	1.632051	-0.909098	0.954325
H160	H	2.132051	-0.409098	1.454325
N161	N	0.818201	-0.240568	0.602762
N162	N	1.318201	0.259432	1.102762
N163	N	0.722286	-0.245844	0.590663
N164	N	1.222286	0.254156	1.090663
H165	H	0.689438	-0.268669	0.538216
H166	H	1.189438	0.231331	1.038216
H167	H	1.261804	-0.652343	0.475725
H168	H	1.761804	-0.152343	0.975725
H169	H	1.319415	-1.003581	0.550023
H170	H	1.819415	-0.503581	1.050023
N171	N	1.539473	-1.013140	0.834598
N172	N	2.039473	-0.513140	1.334598
N173	N	1.539486	-1.061891	0.834597
N174	N	2.039486	-0.561891	1.334597
H175	H	1.580884	-1.082327	0.888113
H176	H	2.080884	-0.582327	1.388113
N177	N	0.852345	-0.151485	0.807417
N178	N	1.352345	0.348515	1.307417
N179	N	0.948260	-0.146203	0.819509
N180	N	1.448260	0.353797	1.319509
H181	H	0.981108	-0.123368	0.871940
H182	H	1.481108	0.376632	1.371940
H183	H	1.319342	-0.904534	0.549992
H184	H	1.819342	-0.404534	1.049992
H185	H	1.319132	-0.501248	0.549806
H186	H	1.819132	-0.001248	1.049806
H187	H	1.319082	-0.402183	0.549768
H188	H	1.819082	0.097817	1.049768
H189	H	1.261863	-0.751391	0.475755
H190	H	1.761863	-0.251391	0.975755
