data_functionalizedCrystal
_audit_creation_method	'MofGen! by Chris Wilmer'
_symmetry_space_group_name_H-M	'P1'
_symmetry_Int_Tables_number	1
_symmetry_cell_setting	triclinic
loop_
_symmetry_equiv_pos_as_xyz
  x,y,z
_cell_length_a	16.956984
_cell_length_b	15.455313
_cell_length_c	16.992695
_cell_angle_alpha	87.152573
_cell_angle_beta	83.360821
_cell_angle_gamma	92.481874
loop_
_atom_site_label
_atom_site_type_symbol
_atom_site_fract_x
_atom_site_fract_y
_atom_site_fract_z
O1	O	1.063364	0.072135	0.028712
O2	O	0.832954	0.072136	0.056128
O3	O	0.947235	0.072129	-0.071662
O4	O	0.949083	0.072143	0.156502
O5	O	0.940698	-0.072133	-0.064383
O6	O	0.826417	-0.072125	0.063407
O7	O	1.056827	-0.072127	0.035992
Cu8	Cu	0.941025	-0.085298	0.050364
Cu9	Cu	0.948756	0.085308	0.041755
O10	O	0.942546	-0.072119	0.163782
C11	C	0.800067	0.000005	0.061171
C12	C	0.711812	0.000006	0.065345
N13	N	0.935594	-0.205293	0.056418
C14	C	0.675280	-0.000000	-0.004440
C15	C	0.592356	0.000006	-0.000514
C16	C	0.545964	0.000012	0.073198
C17	C	0.582501	0.000021	0.142989
C18	C	0.665424	0.000021	0.139062
C19	C	0.297430	0.000020	0.092637
C20	C	0.214501	0.000017	0.096559
C21	C	0.224362	0.000005	-0.046944
C22	C	0.307286	-0.000001	-0.050864
C23	C	0.343816	0.000012	0.018925
N24	N	0.461201	0.000016	0.077213
N25	N	0.428578	0.000014	0.014909
C26	C	0.984164	-0.250691	0.002146
C27	C	0.980064	-0.341498	0.006731
C28	C	0.927397	-0.386907	0.065593
C29	C	0.878822	-0.341503	0.119867
C30	C	0.882919	-0.250697	0.115278
C31	C	0.909715	-0.658487	0.085380
C32	C	0.905624	-0.749300	0.089967
C33	C	1.006865	-0.749288	-0.023171
C34	C	1.010960	-0.658481	-0.027752
C35	C	0.962381	-0.613085	0.026520
N36	N	0.923207	-0.479727	0.070282
N37	N	0.966568	-0.520267	0.021827
C38	C	1.089715	0.000006	0.030948
C39	C	1.177970	0.000012	0.026774
C40	C	0.941590	-0.000002	-0.097081
C41	C	0.934500	-0.000002	-0.183666
N42	N	0.954193	0.205303	0.035695
C43	C	1.002914	-0.000003	-0.238341
C44	C	0.996248	0.000005	-0.319696
C45	C	0.921165	0.000009	-0.346374
C46	C	0.852745	0.000012	-0.291692
C47	C	0.859413	0.000010	-0.210339
C48	C	0.893530	0.000021	-0.588181
C49	C	0.886867	0.000020	-0.669540
C50	C	1.030371	0.000015	-0.697538
C51	C	1.037031	0.000007	-0.616182
C52	C	0.968612	0.000016	-0.561508
N53	N	0.914349	0.000014	-0.429531
N54	N	0.975429	0.000016	-0.478353
C55	C	0.948191	0.000014	0.189201
C56	C	0.955282	0.000019	0.275785
H57	H	0.713047	-0.000009	-0.064464
H58	H	0.870162	-0.621533	0.129572
C59	C	0.820887	-0.391448	0.184617
C60	C	0.816418	-0.491331	0.189707
C61	C	0.758484	-0.541273	0.254460
C62	C	0.705019	-0.491332	0.314124
C63	C	0.709487	-0.391443	0.309037
C64	C	0.767421	-0.341501	0.244283
H65	H	0.855997	-0.528306	0.145538
H66	H	0.755176	-0.615217	0.258226
H67	H	0.662133	-0.528301	0.362059
H68	H	0.669908	-0.354468	0.353205
H69	H	0.770728	-0.267557	0.240517
H70	H	1.053845	-0.621511	-0.075682
C71	C	0.847683	-0.799247	0.154718
C72	C	0.794249	-0.749311	0.214412
C73	C	0.736313	-0.799257	0.279161
C74	C	0.731810	-0.899140	0.284215
C75	C	0.785246	-0.949082	0.224519
C76	C	0.843182	-0.899136	0.159770
H77	H	0.797581	-0.675366	0.210673
H78	H	0.696757	-0.762286	0.323352
H79	H	0.688922	-0.936113	0.332146
H80	H	0.781914	-1.023027	0.228259
H81	H	0.882738	-0.936107	0.115579
H82	H	0.562616	0.000003	-0.057340
H83	H	1.046414	-0.786258	-0.067357
C84	C	0.337613	0.000008	0.169401
C85	C	0.396666	0.074911	0.182668
C86	C	0.436856	0.074890	0.259434
C87	C	0.417994	-0.000032	0.322932
C88	C	0.358939	-0.074940	0.309666
C89	C	0.318749	-0.074920	0.232901
H90	H	0.410631	0.130378	0.135661
H91	H	0.480573	0.130342	0.269254
H92	H	0.447745	-0.000048	0.379758
H93	H	0.344973	-0.130407	0.356673
H94	H	0.275032	-0.130372	0.223081
C95	C	0.818266	0.000014	-0.528049
C96	C	0.761543	0.074918	-0.531465
C97	C	0.686274	0.074907	-0.471330
C98	C	0.667728	-0.000008	-0.407779
C99	C	0.724453	-0.074918	-0.404361
C100	C	0.799722	-0.074907	-0.464495
H101	H	0.775271	0.130380	-0.578512
H102	H	0.644283	0.130361	-0.473861
H103	H	0.612010	-0.000016	-0.363264
H104	H	0.710725	-0.130379	-0.357314
H105	H	0.841713	-0.130360	-0.461964
H106	H	0.345053	-0.000010	-0.110889
H107	H	0.194610	0.000004	-0.103764
C108	C	1.119627	0.000009	-0.586845
C109	C	1.140555	-0.074905	-0.530997
C110	C	1.223152	-0.074906	-0.501662
C111	C	1.284822	0.000006	-0.528176
C112	C	1.263895	0.074925	-0.584027
C113	C	1.181298	0.074927	-0.613362
H114	H	1.094902	-0.130364	-0.511367
H115	H	1.238642	-0.130367	-0.460317
H116	H	1.345965	0.000004	-0.506461
H117	H	1.309548	0.130384	-0.603657
H118	H	1.165808	0.130387	-0.654707
H119	H	0.695167	0.000021	0.195888
H120	H	0.825722	0.000009	-0.691256
H121	H	0.176730	0.000018	0.156588
C122	C	1.042098	-0.200746	-0.062604
C123	C	1.095520	-0.250687	-0.122305
C124	C	1.153454	-0.200746	-0.187058
C125	C	1.157967	-0.100863	-0.192111
C126	C	1.104543	-0.050916	-0.132408
C127	C	1.046609	-0.100857	-0.067655
H128	H	1.092181	-0.324632	-0.118567
H129	H	1.193002	-0.237720	-0.231254
H130	H	1.200853	-0.063893	-0.240046
H131	H	1.107882	0.023029	-0.136146
H132	H	1.007062	-0.063883	-0.023458
H133	H	0.544722	0.000031	0.203006
H134	H	1.019613	-0.378460	-0.037462
H135	H	0.843367	-0.213736	0.159471
H136	H	0.791611	0.000021	-0.313420
H137	H	1.064055	-0.000011	-0.216627
H138	H	1.051959	0.000002	-0.364210
H139	H	1.086074	0.000009	-0.742062
H140	H	0.803702	0.000012	-0.165822
