data_functionalizedCrystal
_audit_creation_method	'MofGen! by Chris Wilmer'
_symmetry_space_group_name_H-M	'P1'
_symmetry_Int_Tables_number	1
_symmetry_cell_setting	triclinic
loop_
_symmetry_equiv_pos_as_xyz
  x,y,z
_cell_length_a	29.839131
_cell_length_b	18.215407
_cell_length_c	18.215399
_cell_angle_alpha	90.020595
_cell_angle_beta	89.969127
_cell_angle_gamma	89.958659
loop_
_atom_site_label
_atom_site_type_symbol
_atom_site_fract_x
_atom_site_fract_y
_atom_site_fract_z
Zn1	Zn	-0.178859	-1.124987	-0.416116
Zn2	Zn	-0.253988	-1.124860	-0.293043
Zn3	Zn	-0.178873	-1.001920	-0.293062
Zn4	Zn	-0.253962	-1.001850	-0.416067
O5	O	-0.216421	-1.063404	-0.354572
O6	O	-0.188830	-1.227955	-0.399803
O7	O	-0.244041	-1.108528	-0.190061
O8	O	-0.116004	-1.018327	-0.309413
O9	O	-0.244027	-1.227861	-0.309382
O10	O	-0.115994	-1.108745	-0.399821
O11	O	-0.188854	-1.018204	-0.190075
O12	O	-0.188829	-0.898926	-0.309365
O13	O	-0.243983	-1.018209	-0.519057
O14	O	-0.243997	-0.898875	-0.399737
O15	O	-0.188805	-1.108677	-0.519094
O16	O	-0.316852	-1.108460	-0.309334
O17	O	-0.316833	-1.018086	-0.399719
C18	C	-0.216412	-0.872198	-0.354548
C19	C	-0.216419	-0.790399	-0.354555
C20	C	-0.333143	-1.063272	-0.354535
C21	C	-0.383078	-1.063282	-0.354544
C22	C	-0.245189	-0.602198	-0.401550
C23	C	-0.245190	-0.525339	-0.401558
C24	C	-0.187655	-0.525363	-0.307596
C25	C	-0.187652	-0.602220	-0.307592
C26	C	-0.216422	-0.640636	-0.354568
C27	C	-0.216425	-0.486920	-0.354580
C28	C	-0.216426	-0.403586	-0.354589
C29	C	-0.216420	-0.723975	-0.354561
C30	C	-0.692718	-1.110548	-0.307577
C31	C	-0.880391	-1.110639	-0.307606
O32	O	-0.904654	-1.150721	-0.267645
N33	N	-0.903863	-1.063557	-0.354627
C34	C	-0.880413	-1.016452	-0.401648
O35	O	-0.904683	-0.976414	-0.441649
C36	C	-0.692741	-1.016366	-0.401623
C37	C	-0.669272	-1.063446	-0.354593
C38	C	-0.669249	-1.157625	-0.260552
C39	C	-0.622334	-1.157599	-0.260542
C40	C	-0.598887	-1.110496	-0.307558
C41	C	-0.622356	-1.063420	-0.354584
C42	C	-0.669292	-0.969265	-0.448647
C43	C	-0.622371	-0.969249	-0.448638
C44	C	-0.598902	-1.016329	-0.401608
C45	C	-0.551994	-1.016291	-0.401590
N46	N	-0.528523	-1.063373	-0.354569
C47	C	-0.551969	-1.110476	-0.307553
C48	C	-0.978944	-1.016500	-0.401657
C49	C	-1.025861	-1.016521	-0.401663
C50	C	-1.025836	-1.110709	-0.307621
C51	C	-0.978918	-1.110684	-0.307612
C52	C	-0.955472	-1.063582	-0.354636
C53	C	-0.453444	-1.110417	-0.307536
C54	C	-0.406524	-1.110385	-0.307528
C55	C	-0.406553	-1.016200	-0.401573
C56	C	-0.453469	-1.016229	-0.401578
C57	C	-0.476913	-1.063344	-0.354557
O58	O	-0.527703	-0.976236	-0.441536
O59	O	-0.527691	-1.150520	-0.267570
C60	C	-0.739634	-1.110574	-0.307587
C61	C	-0.763103	-1.063498	-0.354612
C62	C	-0.739656	-1.016395	-0.401628
C63	C	-0.810020	-1.063518	-0.354618
C64	C	-0.833467	-1.110621	-0.307602
C65	C	-0.809995	-1.157703	-0.260580
C66	C	-0.763080	-1.157677	-0.260571
C67	C	-0.763128	-0.969313	-0.448650
C68	C	-0.810043	-0.969342	-0.448655
C69	C	-0.833490	-1.016445	-0.401639
C70	C	-0.099242	-1.063558	-0.354625
C71	C	-0.049308	-1.063623	-0.354647
C72	C	-0.216390	-1.063449	-0.546525
C73	C	-0.216376	-1.063468	-0.628324
C74	C	-0.216428	-0.255357	-0.354593
C75	C	-0.216428	-0.337156	-0.354593
C76	C	-0.187618	-1.110592	-0.816538
C77	C	-0.187605	-1.110601	-0.893397
C78	C	-0.245065	-1.016397	-0.893348
C79	C	-0.245076	-1.016385	-0.816490
C80	C	-0.216353	-1.063487	-0.778087
C81	C	-0.216329	-1.063507	-0.931804
C82	C	-0.216315	-1.063517	-1.015137
C83	C	-0.216366	-1.063477	-0.694748
C84	C	-0.216419	-1.063402	-0.163366
C85	C	-0.216306	-1.063526	-0.081567
H86	H	-0.268614	-0.633474	-0.439803
F87	F	-0.275808	-0.484434	-0.451565
H88	H	-0.164229	-1.148944	-0.785272
H89	H	-0.603228	-1.195937	-0.222249
F90	F	-0.694196	-1.207764	-0.210508
H91	H	-0.387456	-0.977847	-0.439850
H92	H	-0.472526	-1.148784	-0.269249
F93	F	-0.157038	-0.484472	-0.257603
F94	F	-0.157025	-1.160742	-0.934315
F95	F	-0.953944	-1.160792	-0.257558
H96	H	-0.164223	-0.633517	-0.269334
H97	H	-1.044966	-0.978177	-0.439952
F98	F	-0.275634	-0.966273	-0.934225
F99	F	-0.381549	-1.160495	-0.257470
H100	H	-1.044934	-1.149062	-0.269339
F101	F	-0.478447	-0.966108	-0.451618
F102	F	-0.953997	-0.966364	-0.451709
F103	F	-0.275659	-0.966242	-0.775566
H104	H	-0.688392	-0.930924	-0.486941
H105	H	-0.603284	-0.930894	-0.486933
F106	F	-0.738108	-1.207788	-0.210517
H107	H	-0.829094	-1.196053	-0.222296
F108	F	-0.835016	-0.919228	-0.498712
F109	F	-0.738180	-0.919178	-0.498694
