data_functionalizedCrystal
_audit_creation_method	'MofGen! by Chris Wilmer'
_symmetry_space_group_name_H-M	'P1'
_symmetry_Int_Tables_number	1
_symmetry_cell_setting	triclinic
loop_
_symmetry_equiv_pos_as_xyz
  x,y,z
_cell_length_a	19.076806
_cell_length_b	25.639242
_cell_length_c	19.077271
_cell_angle_alpha	87.709081
_cell_angle_beta	90.108511
_cell_angle_gamma	92.314234
loop_
_atom_site_label
_atom_site_type_symbol
_atom_site_fract_x
_atom_site_fract_y
_atom_site_fract_z
Zn1	Zn	-0.295985	0.778888	0.386055
Zn2	Zn	-0.408748	0.779129	0.263823
Zn3	Zn	-0.291238	0.695124	0.268564
Zn4	Zn	-0.413444	0.688070	0.381287
O5	O	-0.352354	0.735303	0.324932
O6	O	-0.310965	0.852085	0.369853
O7	O	-0.389208	0.771038	0.166122
O8	O	-0.193533	0.709087	0.288128
O9	O	-0.393811	0.852261	0.280049
O10	O	-0.197021	0.770628	0.374449
O11	O	-0.302874	0.709320	0.169605
O12	O	-0.307428	0.621024	0.283505
O13	O	-0.401815	0.697065	0.480250
O14	O	-0.397212	0.615841	0.366323
O15	O	-0.315518	0.763789	0.483753
O16	O	-0.507706	0.764198	0.275426
O17	O	-0.511156	0.697298	0.361726
C18	C	-0.352315	0.599462	0.324911
C19	C	-0.352316	0.541348	0.324918
C20	C	-0.309299	0.290064	0.371772
C21	C	-0.309292	0.344669	0.371768
O22	O	-0.272686	0.372830	0.411601
N23	N	-0.352346	0.372072	0.324941
C24	C	-0.395415	0.344868	0.278119
O25	O	-0.432036	0.373191	0.238289
C26	C	-0.395425	0.290264	0.278126
C27	C	-0.352363	0.262864	0.324952
C28	C	-0.266241	0.262663	0.418594
C29	C	-0.266247	0.208063	0.418597
C30	C	-0.309312	0.180862	0.371777
C31	C	-0.352370	0.208263	0.324955
C32	C	-0.438498	0.263061	0.231309
C33	C	-0.438505	0.208453	0.231321
C34	C	-0.395443	0.181053	0.278146
C35	C	-0.395440	0.126462	0.278138
N36	N	-0.352386	0.099058	0.324965
C37	C	-0.309322	0.126259	0.371785
C38	C	-0.395391	0.459540	0.278107
C39	C	-0.395378	0.514143	0.278095
C40	C	-0.309255	0.513940	0.371746
C41	C	-0.309265	0.459336	0.371754
C42	C	-0.352337	0.432136	0.324934
C43	C	-0.309338	0.011593	0.371786
C44	C	-0.309346	-0.043013	0.371783
C45	C	-0.395471	-0.042805	0.278135
C46	C	-0.395460	0.011796	0.278136
C47	C	-0.352392	0.038994	0.324967
O48	O	-0.432029	0.098266	0.238327
O49	O	-0.272714	0.097929	0.411615
C50	C	-0.534928	0.730022	0.317559
C51	C	-0.613036	0.727810	0.314429
C52	C	-1.052509	0.711908	0.292000
C53	C	-0.979119	0.713987	0.294942
C54	C	-0.944182	0.747045	0.341390
C55	C	-0.982639	0.778020	0.384905
C56	C	-1.056028	0.775938	0.381967
C57	C	-0.724881	0.756704	0.355005
C58	C	-0.651487	0.758785	0.357939
C59	C	-0.647973	0.694751	0.267976
C60	C	-0.721363	0.692674	0.265039
C61	C	-0.759814	0.723647	0.308556
N62	N	-0.869165	0.749172	0.344397
N63	N	-0.834829	0.721517	0.305553
C64	C	-0.169067	0.740618	0.332349
C65	C	-0.090961	0.742883	0.335510
C66	C	-0.359720	0.729613	0.508210
C67	C	-0.362859	0.727188	0.586312
C68	C	-0.352393	0.871674	0.324954
C69	C	-0.352410	0.929787	0.324963
C70	C	-0.319406	0.760787	0.624829
C71	C	-0.322352	0.758503	0.698214
C72	C	-0.368756	0.722621	0.733081
C73	C	-0.412211	0.689019	0.694558
C74	C	-0.409261	0.691302	0.621174
C75	C	-0.382396	0.712068	0.952359
C76	C	-0.385345	0.709789	1.025748
C77	C	-0.295485	0.779272	1.029399
C78	C	-0.292541	0.781554	0.956014
C79	C	-0.335993	0.747949	0.917498
N80	N	-0.371771	0.720287	0.808092
N81	N	-0.332975	0.750282	0.842488
C82	C	-0.345032	0.740965	1.142367
C83	C	-0.341892	0.743388	1.064265
H84	H	-0.231172	0.284804	0.456724
N85	N	-0.439437	0.039781	0.230289
N86	N	-0.477878	0.015486	0.188484
H87	H	-0.508940	0.035246	0.154693
H88	H	-1.080949	0.684991	0.254174
N89	N	-0.482490	0.180672	0.183482
N90	N	-0.455903	0.152302	0.139745
H91	H	-0.486965	0.132682	0.105957
N92	N	-0.946939	0.811784	0.432346
N93	N	-0.904974	0.847043	0.409305
H94	H	-0.879760	0.870889	0.442810
H95	H	-0.430530	-0.064961	0.240013
H96	H	-0.444638	0.663937	0.589814
N97	N	-0.764165	0.788339	0.399446
N98	N	-0.806914	0.767369	0.442561
H99	H	-0.834664	0.789713	0.473948
H100	H	-0.417788	0.684712	0.921007
N101	N	-0.939853	0.682342	0.250495
N102	N	-0.971055	0.652830	0.209024
H103	H	-0.943324	0.630478	0.177632
N104	N	-0.277961	0.792827	0.737548
N105	N	-0.236536	0.824863	0.706409
H106	H	-0.205182	0.849107	0.734188
H107	H	-1.087334	0.801156	0.417403
H108	H	-0.430435	0.536448	0.239958
N109	N	-0.251086	0.813583	1.068745
N110	N	-0.185914	0.812245	1.063172
H111	H	-0.154552	0.836476	1.090960
H112	H	-0.274267	0.033731	0.409921
N113	N	-0.432724	0.673126	1.061378
N114	N	-0.409611	0.639265	1.103322
H115	H	-0.443067	0.613372	1.128492
N116	N	-0.459603	0.652366	0.730182
N117	N	-0.462232	0.650333	0.795702
H118	H	-0.495704	0.624446	0.820862
N119	N	-0.482480	0.291040	0.183470
N120	N	-0.475120	0.287076	0.118832
H121	H	-0.506186	0.306835	0.085043
N122	N	-0.265351	-0.070993	0.419619
N123	N	-0.226906	-0.046696	0.461420
H124	H	-0.195836	-0.066455	0.495205
N125	N	-0.757038	0.658890	0.217605
N126	N	-0.722697	0.631226	0.178773
H127	H	-0.747892	0.607361	0.145277
H128	H	-0.616660	0.669533	0.232547
N129	N	-0.615809	0.792559	0.405388
N130	N	-0.650147	0.820213	0.444237
H131	H	-0.624950	0.844067	0.477745
N132	N	-0.272002	0.797432	0.589207
N133	N	-0.269370	0.799465	0.523686
H134	H	-0.235889	0.825345	0.498528
N135	N	-0.222247	0.180087	0.466425
N136	N	-0.183798	0.204388	0.508216
H137	H	-0.152717	0.184634	0.541996
N138	N	-0.265280	0.431357	0.419594
N139	N	-0.226837	0.455656	0.461393
H140	H	-0.195773	0.435899	0.495186
H141	H	-0.254756	0.810773	0.927631
H142	H	-0.274190	0.536096	0.409869
H143	H	-0.430464	0.437398	0.239975
