data_functionalizedCrystal
_audit_creation_method	'MofGen! by Chris Wilmer'
_symmetry_space_group_name_H-M	'P1'
_symmetry_Int_Tables_number	1
_symmetry_cell_setting	triclinic
loop_
_symmetry_equiv_pos_as_xyz
  x,y,z
_cell_length_a	10.723023
_cell_length_b	19.288840
_cell_length_c	9.198806
_cell_angle_alpha	89.988256
_cell_angle_beta	89.998741
_cell_angle_gamma	83.796782
loop_
_atom_site_label
_atom_site_type_symbol
_atom_site_fract_x
_atom_site_fract_y
_atom_site_fract_z
O1	O	0.155504	0.922371	-0.121131
O2	O	0.655504	1.422371	0.378869
O3	O	0.176535	0.720245	-0.121081
O4	O	0.676535	1.220245	0.378919
O5	O	-0.015656	0.825971	-0.121102
O6	O	0.484344	1.325971	0.378898
O7	O	0.347694	0.816645	-0.121110
O8	O	0.847694	1.316645	0.378890
O9	O	-0.015653	0.825961	0.120683
O10	O	0.484347	1.325961	0.620683
O11	O	0.176537	0.720235	0.120705
O12	O	0.676537	1.220235	0.620705
O13	O	0.155506	0.922361	0.120654
O14	O	0.655506	1.422361	0.620654
Cu15	Cu	0.166022	0.821297	0.142756
Cu16	Cu	0.666022	1.321297	0.642756
Cu17	Cu	0.166019	0.821309	-0.143183
Cu18	Cu	0.666019	1.321309	0.356817
O19	O	0.347696	0.816636	0.120675
O20	O	0.847696	1.316636	0.620675
C21	C	0.175864	0.694359	-0.000182
C22	C	0.675864	1.194359	0.499818
C23	C	0.173849	0.617241	-0.000162
C24	C	0.673849	1.117241	0.499838
C25	C	-0.062140	0.825287	-0.000212
C26	C	0.437860	1.325287	0.499788
C27	C	-0.200651	0.823257	-0.000217
C28	C	0.299349	1.323257	0.499783
C29	C	-0.405550	0.820259	-0.125473
C30	C	0.094450	1.320259	0.374527
C31	C	-0.262392	0.822357	-0.125470
C32	C	0.237608	1.322357	0.374530
C33	C	0.172879	0.581037	-0.131963
C34	C	0.672879	1.081037	0.368037
C35	C	0.170971	0.508577	-0.131981
C36	C	0.670971	1.008577	0.368019
C37	C	0.170008	0.472327	-0.000190
C38	C	0.670008	0.972327	0.499810
C39	C	0.170984	0.508540	0.131628
C40	C	0.670984	1.008540	0.631628
C41	C	0.172905	0.580997	0.131642
C42	C	0.672905	1.080997	0.631642
C43	C	0.093880	0.362500	0.100761
C44	C	0.593880	0.862500	0.600761
C45	C	0.091952	0.290045	0.100742
C46	C	0.591952	0.790045	0.600742
C47	C	0.164090	0.248845	-0.000228
C48	C	0.664090	0.748845	0.499772
C49	C	0.238141	0.280110	-0.101202
C50	C	0.738141	0.780110	0.398798
C51	C	0.240061	0.352567	-0.101188
C52	C	0.740061	0.852567	0.398812
C53	C	0.167926	0.393760	-0.000191
C54	C	0.667926	0.893760	0.499809
C55	C	0.161054	0.134072	-0.132057
C56	C	0.661054	0.634072	0.367943
C57	C	0.159154	0.061611	-0.132069
C58	C	0.659154	0.561611	0.367931
C59	C	0.159154	0.061575	0.131543
C60	C	0.659154	0.561575	0.631543
C61	C	0.161067	0.134034	0.131552
C62	C	0.661067	0.634034	0.631552
C63	C	0.162011	0.170278	-0.000253
C64	C	0.662011	0.670278	0.499747
C65	C	0.394181	0.817319	-0.000219
C66	C	0.894181	1.317319	0.499781
C67	C	0.532692	0.819349	-0.000223
C68	C	1.032692	1.319349	0.499777
C69	C	0.156177	0.948247	-0.000249
C70	C	0.656177	1.448247	0.499751
C71	C	0.158192	1.025365	-0.000278
C72	C	0.658192	1.525365	0.499722
N73	N	0.166023	0.821294	0.343870
N74	N	0.666023	1.321294	0.843870
C75	C	0.084976	0.865685	0.416058
C76	C	0.584976	1.365685	0.916058
C77	C	0.084973	0.865695	0.583470
C78	C	0.584973	1.365695	1.083470
N79	N	0.166018	0.821312	0.655703
N80	N	0.666018	1.321312	1.155703
H81	H	-0.458663	0.819489	-0.232705
H82	H	0.041337	1.319489	0.267295
Cl83	Cl	-0.180399	0.823560	-0.291035
Cl84	Cl	0.319601	1.323560	0.208965
Cl85	Cl	0.273162	0.762634	0.559874
Cl86	Cl	0.773162	1.262634	1.059874
H87	H	0.015586	0.903681	0.353924
H88	H	0.515586	1.403681	0.853924
Cl89	Cl	0.333155	0.391870	-0.228115
Cl90	Cl	0.833155	0.891870	0.271885
Cl91	Cl	-0.385320	0.820549	0.165345
Cl92	Cl	0.114680	1.320549	0.665345
Cl93	Cl	0.174072	0.626597	-0.297659
Cl94	Cl	0.674072	1.126597	0.202341
H95	H	-0.253752	0.822470	0.107020
H96	H	0.246248	1.322470	0.607020
Cl97	Cl	-0.022154	0.924378	0.679308
Cl98	Cl	0.477846	1.424378	1.179308
H99	H	0.235403	0.783294	0.406006
H100	H	0.735403	1.283294	0.906006
Cl101	Cl	0.174122	0.626514	0.297348
Cl102	Cl	0.674122	1.126514	0.797348
H103	H	0.170184	0.479094	-0.239312
H104	H	0.670184	0.979094	0.260688
Cl105	Cl	0.157946	0.016095	-0.297778
Cl106	Cl	0.657946	0.516095	0.202222
Cl107	Cl	0.328842	0.228324	-0.228140
Cl108	Cl	0.828842	0.728324	0.271860
Cl109	Cl	0.162252	0.179638	-0.297750
Cl110	Cl	0.662252	0.679638	0.202250
Cl111	Cl	0.157956	0.016009	0.297225
Cl112	Cl	0.657956	0.516009	0.797225
Cl113	Cl	0.162278	0.179552	0.297254
Cl114	Cl	0.662278	0.679552	0.797254
Cl115	Cl	-0.001109	0.250745	0.227708
Cl116	Cl	0.498891	0.750745	0.727708
H117	H	0.170203	0.479020	0.238933
H118	H	0.670203	0.979020	0.738933
Cl119	Cl	0.003184	0.414287	0.227709
Cl120	Cl	0.503184	0.914287	0.727709
