data_functionalizedCrystal
_audit_creation_method	'MofGen! by Chris Wilmer'
_symmetry_space_group_name_H-M	'P1'
_symmetry_Int_Tables_number	1
_symmetry_cell_setting	triclinic
loop_
_symmetry_equiv_pos_as_xyz
  x,y,z
_cell_length_a	19.188929
_cell_length_b	16.109301
_cell_length_c	15.186229
_cell_angle_alpha	89.999006
_cell_angle_beta	90.025523
_cell_angle_gamma	96.696816
loop_
_atom_site_label
_atom_site_type_symbol
_atom_site_fract_x
_atom_site_fract_y
_atom_site_fract_z
O1	O	-0.089745	1.102833	-0.073223
O2	O	-0.100913	0.860734	-0.073241
O3	O	0.006310	0.988770	-0.073177
O4	O	-0.196968	0.974797	-0.073287
O5	O	0.006312	0.988762	0.073280
O6	O	-0.100912	0.860726	0.073216
O7	O	-0.089743	1.102825	0.073234
Zn8	Zn	-0.095327	0.981774	0.096478
Zn9	Zn	-0.095329	0.981785	-0.096485
O10	O	-0.196967	0.974789	0.073170
C11	C	-0.100460	0.829757	-0.000014
C12	C	-0.099103	0.737466	-0.000018
C13	C	-0.158294	0.428271	-0.000034
C14	C	-0.159575	0.514987	-0.000040
C15	C	-0.032358	0.535282	0.000017
C16	C	-0.031077	0.448568	0.000016
C17	C	-0.094048	0.395064	-0.000005
C18	C	-0.096609	0.568495	-0.000010
C19	C	-0.097997	0.662516	-0.000016
C20	C	-0.092659	0.301037	-0.000000
C21	C	-0.222980	0.975245	-0.000072
C22	C	-0.300487	0.976604	-0.000114
C23	C	-0.345236	0.901476	-0.000102
C24	C	-0.418062	0.902753	-0.000082
C25	C	-0.446138	0.979160	-0.000057
C26	C	-0.401379	1.054297	-0.000074
C27	C	-0.328554	1.053019	-0.000103
N28	N	-0.554242	1.037561	0.049846
N29	N	-0.623423	1.038770	0.049875
C30	C	-0.665555	0.983016	0.000028
N31	N	-0.635893	0.925994	-0.049838
N32	N	-0.566706	0.924783	-0.049863
C33	C	-0.525103	0.980555	-0.000026
C34	C	-0.789271	0.909267	0.000061
C35	C	-0.862099	0.910547	0.000076
C36	C	-0.845414	1.062094	0.000093
C37	C	-0.772588	1.060812	0.000069
C38	C	-0.744521	0.984397	0.000058
C39	C	0.032323	0.988313	0.000063
C40	C	0.109831	0.986955	0.000099
C41	C	-0.090196	1.133802	0.000005
C42	C	-0.091553	1.226093	0.000003
N43	N	-0.095325	0.981772	0.228171
N44	N	-0.095325	0.981793	-0.228178
C45	C	-0.047863	1.038486	0.453922
C46	C	-0.047861	1.038488	0.546112
C47	C	-0.142790	0.925074	0.546064
C48	C	-0.142788	0.925068	0.453876
C49	C	-0.095325	0.981778	0.407808
C50	C	-0.095326	0.981787	0.592185
C51	C	-0.095324	0.981789	0.692141
C52	C	-0.095325	0.981775	0.307845
H53	H	0.021243	0.421531	0.000038
N54	N	0.003344	1.099640	0.404246
H55	H	0.034265	1.067974	0.366024
H56	H	-0.023381	1.136346	0.366024
H57	H	-0.292119	1.114199	-0.000114
N58	N	-0.226209	0.370565	-0.000075
H59	H	-0.215652	0.310592	-0.000070
H60	H	-0.254209	0.381291	0.054204
N61	N	-0.431654	1.136710	-0.000038
H62	H	-0.461534	1.140624	-0.054313
H63	H	-0.461427	1.140560	0.054306
H64	H	-0.211890	0.542020	-0.000065
H65	H	-0.322389	0.839253	-0.000119
N66	N	-0.758992	0.826854	0.000044
H67	H	-0.798394	0.779452	0.000047
H68	H	-0.729168	0.823027	-0.054259
H69	H	-0.898533	0.849366	0.000080
H70	H	-0.009212	1.084663	0.583656
H71	H	-0.181434	0.878902	0.583583
H72	H	0.018910	0.578855	0.000036
N73	N	-0.875680	1.144510	0.000116
H74	H	-0.905554	1.148422	-0.054164
H75	H	-0.905457	1.148368	0.054455
H76	H	-0.454503	0.841573	-0.000070
H77	H	-0.181438	0.878886	0.416327
H78	H	-0.736153	1.121989	0.000065
