data_functionalizedCrystal
_audit_creation_method	'MofGen! by Chris Wilmer'
_symmetry_space_group_name_H-M	'P1'
_symmetry_Int_Tables_number	1
_symmetry_cell_setting	triclinic
loop_
_symmetry_equiv_pos_as_xyz
  x,y,z
_cell_length_a	15.944545
_cell_length_b	15.021413
_cell_length_c	10.723023
_cell_angle_alpha	90.004758
_cell_angle_beta	96.018140
_cell_angle_gamma	90.004532
loop_
_atom_site_label
_atom_site_type_symbol
_atom_site_fract_x
_atom_site_fract_y
_atom_site_fract_z
O1	O	1.115453	0.073973	-0.160881
O2	O	1.615453	0.573973	0.339119
O3	O	0.871016	0.073987	-0.180730
O4	O	1.371016	0.573987	0.319270
O5	O	0.998873	0.073976	0.010842
O6	O	1.498873	0.573976	0.510842
O7	O	0.987596	0.073985	-0.352453
O8	O	1.487596	0.573985	0.147547
O9	O	0.998853	-0.074089	0.010815
O10	O	1.498853	0.425911	0.510815
O11	O	0.870996	-0.074077	-0.180758
O12	O	1.370996	0.425923	0.319242
O13	O	1.115432	-0.074091	-0.160908
O14	O	1.615432	0.425909	0.339092
Zn15	Zn	0.993211	-0.097592	-0.170837
Zn16	Zn	1.493211	0.402408	0.329163
Zn17	Zn	0.993238	0.097489	-0.170801
Zn18	Zn	1.493238	0.597489	0.329199
O19	O	0.987575	-0.074079	-0.352480
O20	O	1.487575	0.425921	0.147520
C21	C	0.839707	-0.000043	-0.179921
C22	C	1.339707	0.499957	0.320079
C23	C	0.746447	-0.000038	-0.177455
C24	C	1.246447	0.499962	0.322545
C25	C	0.475092	-0.000050	-0.051340
C26	C	0.975092	0.499950	0.448660
C27	C	0.526012	-0.073054	-0.112156
C28	C	1.026012	0.426946	0.387844
C29	C	0.410752	-0.000053	-0.168660
C30	C	0.910752	0.499947	0.331340
C31	C	0.526013	0.072925	-0.112160
C32	C	1.026013	0.572925	0.387840
C33	C	0.575691	-0.000044	-0.172975
C34	C	1.075691	0.499956	0.327025
C35	C	0.460444	-0.073117	-0.229444
C36	C	0.960444	0.426883	0.270556
C37	C	0.460441	0.072928	-0.229432
C38	C	0.960441	0.572928	0.270568
C39	C	0.511328	-0.000094	-0.290334
C40	C	1.011328	0.499906	0.209666
C41	C	0.315736	-0.000059	-0.166170
C42	C	0.815736	0.499941	0.333830
C43	C	0.670704	-0.000044	-0.175473
C44	C	1.170704	0.499956	0.324527
N45	N	0.993199	-0.230730	-0.170861
N46	N	1.493199	0.269270	0.329139
C47	C	0.934068	-0.470408	-0.259402
C48	C	1.434068	0.029592	0.240598
C49	C	1.010107	-0.529746	-0.283625
C50	C	1.510107	-0.029746	0.216375
C51	C	0.993220	-0.412337	-0.170830
C52	C	1.493220	0.087663	0.329170
C53	C	0.917201	-0.529740	-0.146635
C54	C	1.417201	-0.029740	0.353365
C55	C	0.993234	-0.587761	-0.170803
C56	C	1.493234	-0.087761	0.329197
C57	C	1.069298	-0.470369	-0.195109
C58	C	1.569298	0.029631	0.304891
C59	C	0.976342	-0.470358	-0.058070
C60	C	1.476342	0.029642	0.441930
C61	C	1.052435	-0.529669	-0.082244
C62	C	1.552435	-0.029669	0.417756
C63	C	0.993211	-0.311280	-0.170849
C64	C	1.493211	0.188720	0.329151
C65	C	0.993252	-0.688816	-0.170783
C66	C	1.493252	-0.188816	0.329217
C67	C	1.146741	-0.000059	-0.161717
C68	C	1.646741	0.499941	0.338283
C69	C	1.240002	-0.000058	-0.164183
C70	C	1.740002	0.499942	0.335817
C71	C	0.998042	-0.000056	0.057318
C72	C	1.498042	0.499944	0.557318
C73	C	0.995587	-0.000053	0.195841
C74	C	1.495587	0.499947	0.695841
N75	N	0.993256	0.230626	-0.170767
N76	N	1.493256	0.730626	0.329233
C77	C	0.994482	-0.076754	0.257591
C78	C	1.494482	0.423246	0.757591
C79	C	0.991945	-0.076753	0.400762
C80	C	1.491945	0.423247	0.900762
C81	C	0.988406	-0.000048	0.601044
C82	C	1.488406	0.499952	1.101044
C83	C	0.990861	-0.000051	0.462521
C84	C	1.490861	0.499949	0.962521
H85	H	0.431786	0.134652	-0.278924
H86	H	0.931786	0.634652	0.221076
H87	H	0.995419	-0.142420	0.204465
H88	H	1.495419	0.357580	0.704465
F89	F	0.957636	-0.436233	0.066517
F90	F	1.457636	0.063767	0.566517
F91	F	0.833167	-0.563830	-0.119900
F92	F	1.333167	-0.063830	0.380100
F93	F	0.990697	-0.162587	0.470166
F94	F	1.490697	0.337413	0.970166
H95	H	0.994659	0.065613	0.248969
H96	H	1.494659	0.565613	0.748969
F97	F	0.532332	-0.000141	-0.422499
F98	F	1.032332	0.499859	0.077501
H99	H	1.102519	-0.555526	-0.007325
H100	H	1.602519	-0.055526	0.492675
H101	H	0.458861	-0.000124	0.049697
H102	H	0.958861	0.499876	0.549697
H103	H	0.554655	0.134641	-0.062582
H104	H	1.054655	0.634641	0.437418
F105	F	0.992097	0.085787	0.393122
F106	F	1.492097	0.585787	0.893122
H107	H	0.554651	-0.134776	-0.062620
H108	H	1.054651	0.365224	0.437380
H109	H	0.884097	-0.444388	-0.334366
H110	H	1.384097	0.055612	0.165634
F111	F	1.028785	-0.563843	-0.408249
F112	F	1.528785	-0.063843	0.091751
F113	F	0.423150	-0.153876	-0.294173
F114	F	0.923150	0.346124	0.205827
H115	H	1.133606	-0.444399	-0.215675
H116	H	1.633606	0.055601	0.284325
