data_functionalizedCrystal
_audit_creation_method	'MofGen! by Chris Wilmer'
_symmetry_space_group_name_H-M	'P1'
_symmetry_Int_Tables_number	1
_symmetry_cell_setting	triclinic
loop_
_symmetry_equiv_pos_as_xyz
  x,y,z
_cell_length_a	34.408637
_cell_length_b	34.407814
_cell_length_c	34.404193
_cell_angle_alpha	60.004510
_cell_angle_beta	60.009006
_cell_angle_gamma	59.994604
loop_
_atom_site_label
_atom_site_type_symbol
_atom_site_fract_x
_atom_site_fract_y
_atom_site_fract_z
O1	O	0.053973	-0.567860	0.474801
O2	O	0.020377	-0.442124	0.382567
O3	O	0.100004	-0.521670	0.382483
O4	O	-0.025653	-0.488314	0.474886
O5	O	0.126426	-0.495253	0.408816
O6	O	0.046800	-0.415707	0.408900
O7	O	0.080396	-0.541443	0.501134
Zn8	Zn	0.067793	-0.474381	0.459198
Zn9	Zn	0.032980	-0.509186	0.424503
O10	O	0.000769	-0.461897	0.501219
N11	N	0.091552	-0.450631	0.482879
N12	N	0.009225	-0.532940	0.400823
C13	C	0.142848	-0.268847	0.534081
C14	C	0.142979	-0.399386	0.664559
C15	C	0.142862	-0.399365	0.534081
C16	C	0.273409	-0.399338	0.533986
C17	C	0.157225	-0.311914	0.548422
C18	C	0.157300	-0.385019	0.621491
C19	C	0.230339	-0.384991	0.548370
C20	C	0.157235	-0.385007	0.548422
C21	C	0.124548	-0.214028	0.515827
C22	C	0.124571	-0.417639	0.515827
C23	C	0.175526	-0.366733	0.566676
C24	C	0.353121	-0.385580	0.491988
C25	C	0.402952	-0.402180	0.475348
C26	C	0.402981	-0.482812	0.506096
C27	C	0.353151	-0.466211	0.522737
C28	C	0.136544	-0.189099	0.466839
C29	C	0.119905	-0.139265	0.450247
C30	C	0.079280	-0.139291	0.531632
C31	C	0.095918	-0.189125	0.548224
C32	C	0.075577	-0.405615	0.527900
C33	C	0.058953	-0.422228	0.511301
C34	C	0.140315	-0.462889	0.470566
C35	C	0.156941	-0.446276	0.487159
C36	C	0.075772	-0.405653	0.744326
C37	C	0.059206	-0.422280	0.794159
C38	C	0.140607	-0.462951	0.794094
C39	C	0.157172	-0.446325	0.744260
C40	C	0.124753	-0.417674	0.719377
C41	C	0.328223	-0.417595	0.515681
C42	C	-0.172390	-0.583988	0.349141
C43	C	-0.041751	-0.584138	0.218783
C44	C	-0.041941	-0.584130	0.349402
C45	C	-0.041957	-0.714607	0.349338
C46	C	-0.129326	-0.598388	0.334853
C47	C	-0.056165	-0.598473	0.261852
C48	C	-0.056282	-0.671535	0.334962
C49	C	-0.056272	-0.598469	0.334999
C50	C	-0.227205	-0.565659	0.367327
C51	C	-0.023703	-0.565882	0.367734
C52	C	-0.074511	-0.616717	0.316667
C53	C	-0.055754	-0.794298	0.391257
C54	C	-0.039181	-0.844132	0.407888
C55	C	0.041447	-0.844215	0.377269
C56	C	0.024873	-0.794381	0.360637
C57	C	-0.252183	-0.577666	0.416302
C58	C	-0.302014	-0.561001	0.432833
C59	C	-0.301886	-0.520329	0.351410
C60	C	-0.252055	-0.536994	0.334880
C61	C	-0.035709	-0.516892	0.355682
C62	C	-0.019129	-0.500308	0.372353
C63	C	0.021465	-0.581700	0.413115
C64	C	0.004884	-0.598286	0.396450
C65	C	-0.035389	-0.516907	0.139026
C66	C	-0.018707	-0.500324	0.089193
C67	C	0.021949	-0.581721	0.089240
C68	C	0.005268	-0.598303	0.139074
C69	C	-0.023402	-0.565894	0.163965
C70	C	-0.023728	-0.769425	0.367633
N71	N	0.427173	-0.450553	0.482630
O72	O	0.589997	-0.458460	0.365361
O73	O	0.590185	-0.550997	0.490963
O74	O	0.590104	-0.550786	0.411309
O75	O	0.590077	-0.458671	0.445016
O76	O	0.510940	-0.524462	0.437777
O77	O	0.511020	-0.524674	0.517432
O78	O	0.510832	-0.432136	0.391830
Zn79	Zn	0.498357	-0.474225	0.458833
Zn80	Zn	0.602660	-0.508908	0.423960
O81	O	0.510913	-0.432348	0.471484
N82	N	0.673844	-0.532580	0.400158
N83	N	0.091520	-0.115070	0.482873
O84	O	-0.025663	0.047841	0.474857
O85	O	0.099940	0.047877	0.382299
O86	O	0.020247	0.047844	0.382560
O87	O	0.054030	0.047874	0.474596
O88	O	0.046674	-0.031326	0.408942
O89	O	0.126367	-0.031293	0.408680
O90	O	0.000764	-0.031329	0.501238
Zn91	Zn	0.067761	-0.043881	0.459148
Zn92	Zn	0.032943	0.060429	0.424389
O93	O	0.080457	-0.031296	0.500977
N94	N	0.009178	0.131618	0.400665
N95	N	0.091852	-0.450680	0.818332
O96	O	0.083862	-0.567845	0.981235
O97	O	-0.008657	-0.442198	0.981276
O98	O	-0.008441	-0.521875	0.981252
O99	O	0.083646	-0.488168	0.981258
O100	O	0.017919	-0.495468	0.902085
O101	O	0.017703	-0.415791	0.902109
O102	O	0.110222	-0.541438	0.902067
Zn103	Zn	0.068148	-0.474422	0.889518
Zn104	Zn	0.033417	-0.509214	0.993825
O105	O	0.110006	-0.461761	0.902091
N106	N	0.009712	-0.532961	1.065011
C107	C	0.030439	-0.413071	0.383027
C108	C	0.129046	-0.511580	0.382922
C109	C	0.070334	-0.570496	0.500675
C110	C	-0.028274	-0.471987	0.500780
C111	C	0.550625	-0.550579	0.520021
C112	C	0.550527	-0.550317	0.421379
C113	C	0.550389	-0.432554	0.362773
C114	C	0.550491	-0.432816	0.461414
C115	C	0.128944	0.008394	0.382712
C116	C	0.030287	0.008256	0.383068
C117	C	-0.028273	0.008252	0.500793
C118	C	0.070417	0.008292	0.500470
C119	C	-0.008218	-0.413165	0.941698
C120	C	-0.007945	-0.511830	0.941653
C121	C	0.109783	-0.570471	0.941646
C122	C	0.109516	-0.471800	0.941673
H123	H	0.019320	-0.412483	0.814467
O124	O	0.021743	0.008180	0.348551
C125	C	0.054371	-0.032828	0.335751
H126	H	0.087371	-0.046483	0.345223
H127	H	0.064996	-0.023611	0.295822
H128	H	0.037129	-0.061549	0.355855
H129	H	0.077653	0.008301	0.529384
H130	H	0.138447	-0.464586	0.941669
H131	H	-0.064365	-0.464880	0.529794
H132	H	0.077514	-0.606615	0.529644
H133	H	0.550540	-0.579254	0.414165
O134	O	0.021964	-0.370003	0.348418
C135	C	0.062850	-0.369888	0.307358
H136	H	0.095558	-0.398036	0.317792
H137	H	0.067053	-0.333357	0.289584
H138	H	0.059002	-0.378176	0.281498
O139	O	0.550565	-0.398307	0.469964
C140	C	0.591524	-0.385452	0.437295
H141	H	0.620187	-0.415932	0.423315
H142	H	0.605305	-0.377729	0.455826
H143	H	0.582200	-0.352300	0.406329
H144	H	0.165136	-0.518689	0.353905
H145	H	-0.064344	0.008241	0.529850
H146	H	0.550674	-0.579628	0.556096
H147	H	0.550329	-0.403500	0.326702
H148	H	0.138832	-0.606554	0.941627
O149	O	-0.042827	-0.370097	0.941733
C150	C	-0.025689	-0.340469	0.941728
H151	H	0.004875	-0.363358	0.956708
H152	H	-0.055600	-0.317668	0.964722
H153	H	-0.012486	-0.316425	0.903750
O154	O	0.171905	0.008692	0.348003
C155	C	0.201521	0.008785	0.365087
H156	H	0.178632	0.023614	0.395756
H157	H	0.224134	0.031961	0.335191
H158	H	0.225747	-0.029143	0.378129
O159	O	-0.042430	-0.520494	0.941674
C160	C	-0.053375	-0.559038	0.982660
H161	H	-0.021920	-0.581837	0.996348
H162	H	-0.060970	-0.581518	0.973404
H163	H	-0.086086	-0.544929	1.011370
O164	O	0.044214	-0.377842	0.720231
C165	C	-0.002570	-0.370786	0.752939
H166	H	-0.002445	-0.400839	0.788451
H167	H	-0.026250	-0.370526	0.738565
H168	H	-0.016847	-0.335290	0.758250
H169	H	0.197059	-0.456117	0.723950
O170	O	0.172163	-0.490791	0.818192
C171	C	0.218948	-0.497826	0.785486
H172	H	0.218826	-0.492246	0.749971
H173	H	0.242628	-0.535621	0.799858
H174	H	0.233223	-0.471301	0.780181
O175	O	-0.070358	-0.868224	0.430846
C176	C	-0.116809	-0.835512	0.433445
H177	H	-0.118743	-0.799997	0.430190
H178	H	-0.143180	-0.849880	0.469032
H179	H	-0.126065	-0.830207	0.403214
H180	H	0.019058	-0.412426	0.521121
O181	O	0.044113	-0.377727	0.555672
C182	C	0.015265	-0.335938	0.530538
H183	H	0.034478	-0.329000	0.490666
H184	H	0.007733	-0.304549	0.539455
H185	H	-0.019744	-0.340474	0.541168
O186	O	0.171784	-0.490638	0.442651
C187	C	0.200569	-0.465462	0.400856
H188	H	0.181310	-0.425595	0.393944
H189	H	0.208083	-0.474369	0.369465
H190	H	0.235591	-0.476064	0.405359
O191	O	0.204519	-0.457894	0.475462
C192	C	0.212253	-0.437101	0.496268
H193	H	0.179549	-0.405119	0.503805
H194	H	0.244534	-0.425001	0.470807
H195	H	0.218929	-0.464370	0.531015
O196	O	0.329040	-0.497374	0.545725
C197	C	0.361733	-0.543843	0.548390
H198	H	0.397237	-0.541936	0.518941
H199	H	0.347330	-0.564302	0.543892
H200	H	0.367067	-0.562867	0.584492
H201	H	0.055974	-0.119015	0.558014
O202	O	0.427270	-0.530018	0.512889
C203	C	0.476591	-0.537805	0.493131
H204	H	0.483371	-0.503505	0.464567
H205	H	0.495523	-0.566918	0.476566
H206	H	0.490761	-0.549289	0.522283
H207	H	0.423225	-0.376108	0.456057
H208	H	0.159856	-0.209371	0.440456
O209	O	0.328978	-0.338341	0.485114
C210	C	0.361643	-0.313644	0.460624
H211	H	0.397178	-0.339216	0.466351
H212	H	0.347252	-0.283593	0.474736
H213	H	0.366912	-0.298153	0.420981
H214	H	0.086148	-0.209418	0.588113
O215	O	0.131616	-0.115120	0.402643
C216	C	0.160444	-0.147786	0.377607
H217	H	0.178592	-0.183309	0.401354
H218	H	0.188611	-0.133371	0.344337
H219	H	0.137440	-0.153094	0.366886
H220	H	-0.028474	-0.460433	0.068892
H221	H	-0.058738	-0.490513	0.159288
H222	H	0.015032	-0.638195	0.159378
O223	O	0.049735	-0.613248	0.065112
C224	C	0.024556	-0.642010	0.077226
H225	H	-0.004490	-0.642466	0.113378
H226	H	0.050105	-0.679818	0.078965
H227	H	0.007694	-0.627007	0.049129
O228	O	-0.063550	-0.485394	0.327865
C229	C	-0.105351	-0.456542	0.352979
H230	H	-0.112334	-0.475774	0.392856
H231	H	-0.136713	-0.448975	0.344000
H232	H	-0.100806	-0.421548	0.342390
O233	O	-0.030721	-0.452715	0.360562
C234	C	-0.013605	-0.432057	0.310652
H235	H	0.017127	-0.460465	0.294633
H236	H	-0.000643	-0.402714	0.301144
H237	H	-0.043459	-0.416287	0.295820
H238	H	0.044746	-0.608091	0.436494
H239	H	0.050956	-0.774133	0.341399
O240	O	0.016526	-0.645886	0.408234
C241	C	-0.000596	-0.666555	0.458143
H242	H	-0.005501	-0.642932	0.475601
H243	H	0.026076	-0.703228	0.469835
H244	H	-0.036208	-0.670221	0.469349
O245	O	0.088673	-0.868436	0.370389
C246	C	0.114443	-0.856282	0.321203
H247	H	0.089998	-0.842562	0.300560
H248	H	0.145405	-0.889077	0.313177
H249	H	0.128764	-0.827381	0.310100
O250	O	-0.102954	-0.769980	0.398030
C251	C	-0.110718	-0.720661	0.378277
H252	H	-0.080271	-0.713887	0.375939
H253	H	-0.145731	-0.701693	0.401808
H254	H	-0.112429	-0.706522	0.341112
O255	O	-0.228100	-0.605559	0.447869
C256	C	-0.240315	-0.647328	0.476655
H257	H	-0.276479	-0.640605	0.477076
H258	H	-0.242079	-0.657832	0.514467
H259	H	-0.212267	-0.677324	0.461699
O260	O	-0.326300	-0.572583	0.480405
C261	C	-0.355129	-0.530697	0.492422
H262	H	-0.340074	-0.500786	0.464350
H263	H	-0.355746	-0.537263	0.528622
H264	H	-0.392880	-0.520172	0.494013
O265	O	-0.325953	-0.492475	0.319827
C266	C	-0.293220	-0.485469	0.273054
H267	H	-0.257714	-0.491074	0.273208
H268	H	-0.307568	-0.447674	0.249362
H269	H	-0.287908	-0.511993	0.258769
H270	H	-0.231721	-0.527215	0.295000
