data_functionalizedCrystal
_audit_creation_method	'MofGen! by Chris Wilmer'
_symmetry_space_group_name_H-M	'P1'
_symmetry_Int_Tables_number	1
_symmetry_cell_setting	triclinic
loop_
_symmetry_equiv_pos_as_xyz
  x,y,z
_cell_length_a	6.817900
_cell_length_b	14.858565
_cell_length_c	17.329378
_cell_angle_alpha	91.531133
_cell_angle_beta	103.025558
_cell_angle_gamma	104.523916
loop_
_atom_site_label
_atom_site_type_symbol
_atom_site_fract_x
_atom_site_fract_y
_atom_site_fract_z
V1	V	-4.014702	-0.109647	-0.245216
V2	V	-3.514702	0.390353	0.254784
O3	O	-3.997102	0.024827	-0.240322
O4	O	-3.497102	0.524827	0.259678
O5	O	-3.971441	-0.236221	-0.243756
O6	O	-3.471441	0.263779	0.256244
O7	O	-3.958697	-0.099379	-0.352064
O8	O	-3.458697	0.400621	0.147936
O9	O	-4.009933	-0.112963	-0.131264
O10	O	-3.509933	0.387037	0.368736
V11	V	-4.498650	-0.094576	-0.231560
V12	V	-3.998650	0.405424	0.268440
O13	O	-4.275030	-0.142706	-0.275171
O14	O	-3.775030	0.357294	0.224829
O15	O	-4.688520	-0.061518	-0.201605
O16	O	-4.188520	0.438482	0.298395
O17	O	-4.318704	0.031998	-0.233020
O18	O	-3.818704	0.531998	0.266980
O19	O	-4.633647	-0.229050	-0.236453
O20	O	-4.133647	0.270950	0.263547
O21	O	-4.620816	-0.091260	-0.345511
O22	O	-4.120816	0.408740	0.154489
O23	O	-4.331448	-0.104844	-0.124712
O24	O	-3.831448	0.395156	0.375288
C25	C	-3.817938	-0.267345	-0.239943
C26	C	-3.317938	0.232655	0.260057
C27	C	-3.863803	-0.370766	-0.239461
C28	C	-3.363803	0.129234	0.260539
C29	C	-3.801681	-0.092788	-0.378100
C30	C	-3.301681	0.407212	0.121900
C31	C	-3.837209	-0.085230	-0.465451
C32	C	-3.337209	0.414770	0.034549
C33	C	-4.031673	-0.749473	-0.237708
C34	C	-3.531673	-0.249473	0.262292
C35	C	-3.984958	-0.644105	-0.238196
C36	C	-3.484958	-0.144105	0.261804
C37	C	-3.947739	-0.560123	-0.238584
C38	C	-3.447739	-0.060123	0.261416
C39	C	-3.901022	-0.454748	-0.239073
C40	C	-3.401022	0.045252	0.260927
C41	C	-3.896741	-0.165963	-0.517854
C42	C	-3.396741	0.334037	-0.017854
C43	C	-3.930131	-0.158860	-0.599929
C44	C	-3.430131	0.341140	-0.099929
C45	C	-3.903973	-0.071024	-0.629598
C46	C	-3.403973	0.428976	-0.129598
C47	C	-3.844441	0.009715	-0.577188
C48	C	-3.344441	0.509715	-0.077188
C49	C	-3.811066	0.002610	-0.495115
C50	C	-3.311066	0.502610	0.004885
C51	C	-4.002611	-0.045358	-0.876837
C52	C	-3.502611	0.454642	-0.376837
C53	C	-4.035985	-0.038259	-0.958917
C54	C	-3.535985	0.461741	-0.458917
C55	C	-4.121677	-0.206835	-0.981652
C56	C	-3.621677	0.293165	-0.481652
C57	C	-4.088286	-0.213931	-0.899576
C58	C	-3.588286	0.286069	-0.399576
C59	C	-4.028768	-0.133193	-0.847173
C60	C	-3.528768	0.366807	-0.347173
C61	C	-3.938095	-0.063761	-0.713492
C62	C	-3.438095	0.436239	-0.213492
C63	C	-3.994661	-0.140457	-0.763282
C64	C	-3.494661	0.359543	-0.263282
C65	C	-4.135550	0.063117	-0.236830
C66	C	-3.635550	0.563117	0.263170
C67	C	-4.068923	0.166537	-0.237317
C68	C	-3.568923	0.666537	0.262683
C69	C	-4.151807	-0.111438	-0.098671
C70	C	-3.651807	0.388562	0.401329
C71	C	-4.095518	-0.118992	-0.011320
C72	C	-3.595518	0.381008	0.488680
H73	H	-3.918031	-0.237488	-0.493704
H74	H	-3.418031	0.262512	0.006296
H75	H	-3.823157	0.081233	-0.601352
H76	H	-3.323157	0.581233	-0.101352
H77	H	-4.109598	-0.285456	-0.875426
H78	H	-3.609598	0.214544	-0.375426
Br79	Br	-4.010939	-0.268431	-0.671047
Br80	Br	-3.510939	0.231569	-0.171047
H81	H	-4.014723	0.033270	-0.983070
H82	H	-3.514723	0.533270	-0.483070
Br83	Br	-4.202497	-0.316402	-1.052774
Br84	Br	-3.702497	0.183598	-0.552774
Br85	Br	-3.921657	0.064221	-0.805725
Br86	Br	-3.421657	0.564221	-0.305725
Br87	Br	-3.730322	0.112179	-0.423995
Br88	Br	-3.230322	0.612179	0.076005
H89	H	-3.916795	0.007756	-0.737657
H90	H	-3.416795	0.507756	-0.237657
H91	H	-4.015967	-0.211973	-0.739122
H92	H	-3.515967	0.288027	-0.239122
