data_functionalizedCrystal
_audit_creation_method	'MofGen! by Chris Wilmer'
_symmetry_space_group_name_H-M	'P1'
_symmetry_Int_Tables_number	1
_symmetry_cell_setting	triclinic
loop_
_symmetry_equiv_pos_as_xyz
  x,y,z
_cell_length_a	23.204082
_cell_length_b	23.204045
_cell_length_c	23.204116
_cell_angle_alpha	120.004941
_cell_angle_beta	89.999984
_cell_angle_gamma	60.000252
loop_
_atom_site_label
_atom_site_type_symbol
_atom_site_fract_x
_atom_site_fract_y
_atom_site_fract_z
O1	O	-0.395329	-0.508360	-0.017162
O2	O	-0.311527	-0.390344	0.017050
O3	O	-0.311523	-0.508358	-0.100969
O4	O	-0.395333	-0.390346	0.100857
O5	O	-0.407378	-0.412500	-0.100957
O6	O	-0.407382	-0.294486	0.017061
O7	O	-0.491184	-0.412503	-0.017150
Cu8	Cu	-0.458035	-0.344742	-0.000044
Cu9	Cu	-0.344676	-0.458104	-0.000057
O10	O	-0.491189	-0.294489	0.100868
C11	C	-0.248535	-0.108440	0.035748
C12	C	-0.284096	-0.037319	0.030850
C13	C	-0.283380	-0.142952	0.036239
C14	C	-0.144178	-0.212796	0.035752
C15	C	-0.068159	-0.253253	0.030858
C16	C	-0.179181	-0.247149	0.036244
C17	C	-0.248538	-0.212794	0.035756
C18	C	-0.284102	-0.253249	0.030865
C19	C	-0.179178	-0.142954	0.036236
C20	C	-0.312833	-0.285934	0.026912
C21	C	-0.312824	0.020138	0.026890
C22	C	-0.006743	-0.285939	0.026903
C23	C	-0.348878	-0.326937	0.021955
C24	C	-0.348866	0.092222	0.021925
C25	C	0.070306	-0.326945	0.021942
C26	C	-0.596421	-0.517030	-0.024946
C27	C	-0.672441	-0.476571	-0.020048
C28	C	-0.561421	-0.482671	-0.025430
C29	C	-0.492058	-0.621397	-0.024959
C30	C	-0.456492	-0.692528	-0.020073
C31	C	-0.457216	-0.586879	-0.025442
C32	C	-0.492063	-0.517029	-0.024946
C33	C	-0.456502	-0.476569	-0.020047
C34	C	-0.561416	-0.586881	-0.025442
C35	C	-0.248530	-0.590063	-0.445874
C36	C	-0.284094	-0.549604	-0.481432
C37	C	-0.179170	-0.659912	-0.480725
C38	C	-0.248531	-0.590062	-0.341515
C39	C	-0.284095	-0.549603	-0.265492
C40	C	-0.179171	-0.659912	-0.376524
C41	C	-0.144167	-0.694428	-0.445885
C42	C	-0.068146	-0.765557	-0.481455
C43	C	-0.283375	-0.555705	-0.376513
C44	C	-0.006728	-0.823022	-0.510191
C45	C	-0.312825	-0.516916	-0.510159
C46	C	-0.312827	-0.516915	-0.204073
C47	C	0.070324	-0.895114	-0.546242
C48	C	-0.348871	-0.475909	-0.546199
C49	C	-0.348872	-0.475907	-0.127019
O50	O	0.298177	-0.412512	-0.017160
O51	O	0.096363	-0.294500	0.017038
O52	O	0.214376	-0.412528	-0.100975
O53	O	0.180164	-0.294483	0.100853
O54	O	0.214373	-0.508374	-0.100968
O55	O	0.096359	-0.390346	0.017045
O56	O	0.298174	-0.508358	-0.017153
Cu57	Cu	0.197266	-0.458103	-0.000054
Cu58	Cu	0.197270	-0.344754	-0.000062
O59	O	0.180160	-0.390329	0.100860
O60	O	-0.491170	0.280977	-0.017186
O61	O	-0.407368	0.113376	0.017024
O62	O	-0.407358	0.113349	-0.100994
O63	O	-0.491180	0.281004	0.100832
O64	O	-0.311506	0.113348	-0.100997
O65	O	-0.311517	0.113374	0.017021
O66	O	-0.395319	0.280976	-0.017189
Cu67	Cu	-0.344666	0.197175	-0.000084
Cu68	Cu	-0.458021	0.197177	-0.000081
O69	O	-0.395329	0.281002	0.100829
O70	O	0.298196	-1.083894	-0.592716
O71	O	0.096378	-0.916268	-0.508895
O72	O	0.214382	-0.916266	-0.508892
O73	O	0.180193	-1.083896	-0.592719
O74	O	0.214384	-0.916269	-0.604744
O75	O	0.096381	-0.916271	-0.604747
O76	O	0.298199	-1.083897	-0.688568
Cu77	Cu	0.197290	-1.000084	-0.655410
Cu78	Cu	0.197287	-1.000081	-0.542054
O79	O	0.180195	-1.083899	-0.688571
O80	O	-0.395338	-0.390342	-0.688497
O81	O	-0.311522	-0.508358	-0.604706
O82	O	-0.311529	-0.390342	-0.604691
O83	O	-0.395331	-0.508358	-0.688513
O84	O	-0.407382	-0.294486	-0.508829
O85	O	-0.407375	-0.412502	-0.508844
O86	O	-0.491191	-0.294486	-0.592636
Cu87	Cu	-0.458035	-0.344742	-0.541987
Cu88	Cu	-0.344678	-0.458102	-0.655355
O89	O	-0.491184	-0.412502	-0.592651
C90	C	-0.596437	-0.181454	0.310639
C91	C	-0.672459	-0.110325	0.346208
C92	C	-0.561435	-0.215970	0.345479
C93	C	-0.492073	-0.285821	0.206270
C94	C	-0.456509	-0.326280	0.130247
C95	C	-0.457230	-0.320178	0.241268
C96	C	-0.492075	-0.285819	0.310629
C97	C	-0.456512	-0.326277	0.346188
C98	C	-0.561433	-0.215971	0.241278
C99	C	0.172385	-0.285785	0.310629
C100	C	0.177278	-0.326235	0.346196
C101	C	0.171900	-0.215939	0.345470
C102	C	0.172383	-0.285801	0.206262
C103	C	0.177274	-0.326267	0.130240
C104	C	0.171898	-0.215954	0.241261
C105	C	0.172388	-0.181432	0.310621
C106	C	0.177286	-0.110306	0.346180
C107	C	0.171895	-0.320150	0.241269
C108	C	-0.492083	0.483020	0.310602
C109	C	-0.456524	0.523483	0.346166
C110	C	-0.561443	0.517382	0.345448
C111	C	-0.492073	0.378641	0.206238
C112	C	-0.456504	0.307502	0.130215
C113	C	-0.561433	0.413161	0.241242
C114	C	-0.596441	0.483019	0.310603
C115	C	-0.672463	0.523481	0.346167
C116	C	-0.457233	0.413162	0.241241
C117	C	0.233072	-0.694476	-0.445880
C118	C	0.228175	-0.765602	-0.481439
C119	C	0.233560	-0.659969	-0.480728
C120	C	0.233077	-0.590107	-0.341521
C121	C	0.228186	-0.549641	-0.265499
C122	C	0.233565	-0.555758	-0.376527
C123	C	0.233075	-0.590122	-0.445887
C124	C	0.228181	-0.549672	-0.481455
C125	C	0.233562	-0.659953	-0.376520
C126	C	0.224225	-0.516992	-0.510189
C127	C	0.224217	-0.823064	-0.510167
C128	C	0.224232	-0.516947	-0.204080
C129	C	0.219264	-0.475994	-0.546237
C130	C	0.219253	-0.895153	-0.546207
C131	C	0.219274	-0.475932	-0.127028
O132	O	0.214366	-0.412424	0.491191
O133	O	0.180169	-0.294437	0.407370
O134	O	0.298176	-0.412447	0.407363
O135	O	0.096359	-0.294414	0.491198
O136	O	0.298171	-0.508308	0.311513
O137	O	0.180164	-0.390299	0.311520
O138	O	0.214361	-0.508285	0.395341
Cu139	Cu	0.197262	-0.458045	0.344679
Cu140	Cu	0.197268	-0.344678	0.458032
O141	O	0.096354	-0.390276	0.395348
C142	C	-0.144131	-0.212902	-0.445913
C143	C	-0.068109	-0.253365	-0.481478
C144	C	-0.179130	-0.247264	-0.480758
C145	C	-0.248499	-0.108524	-0.341548
C146	C	-0.284067	-0.037385	-0.265524
C147	C	-0.283339	-0.143045	-0.376551
C148	C	-0.248490	-0.212902	-0.445912
C149	C	-0.284050	-0.253365	-0.481475
C150	C	-0.179138	-0.143045	-0.376552
C151	C	-0.312778	-0.286056	-0.510206
C152	C	-0.006691	-0.286056	-0.510210
C153	C	-0.312803	0.020087	-0.204105
C154	C	-0.348819	-0.327068	-0.546250
C155	C	0.070361	-0.327067	-0.546257
C156	C	-0.348853	0.092189	-0.127052
H157	H	-0.151081	-0.114063	0.037024
O158	O	-0.145486	-0.314353	-0.548732
C159	C	-0.076634	-0.337417	-0.572123
H160	H	-0.059395	-0.312717	-0.524656
H161	H	-0.076025	-0.311451	-0.602635
C162	C	-0.046709	-0.461392	-0.678876
C163	C	-0.025533	-0.431060	-0.620576
H164	H	-0.015186	-0.519155	-0.708766
H165	H	-0.093096	-0.445852	-0.663119
H166	H	-0.046200	-0.439746	-0.704294
H167	H	-0.026050	-0.452698	-0.595153
H168	H	0.020856	-0.446606	-0.636330
H169	H	0.234343	-0.688834	-0.348416
O170	O	-0.389263	-0.621342	-0.026282
C171	C	-0.385406	-0.621665	0.034206
H172	H	-0.432237	-0.618351	0.055029
H173	H	-0.386668	-0.566797	0.076608
C174	C	-0.258704	-0.704681	-0.010702
C175	C	-0.316221	-0.700618	0.014870
H176	H	-0.216027	-0.753381	-0.022628
H177	H	-0.261303	-0.704462	-0.051453
H178	H	-0.259766	-0.658953	0.024637
H179	H	-0.315163	-0.746340	-0.020472
H180	H	-0.313621	-0.700847	0.055614
O181	O	-0.594950	0.584365	0.413472
C182	C	-0.614524	0.566193	0.456399
H183	H	-0.579300	0.497568	0.429726
H184	H	-0.671937	0.587787	0.464422
C185	C	-0.649196	0.694160	0.561247
C186	C	-0.605929	0.609873	0.528489
H187	H	-0.643897	0.721106	0.605716
H188	H	-0.636011	0.706405	0.532326
H189	H	-0.697036	0.712144	0.567925
H190	H	-0.558089	0.591889	0.521803
H191	H	-0.619106	0.597626	0.557410
H192	H	-0.340332	-0.114144	-0.348448
O193	O	-0.594983	-0.415681	-0.026451
C194	C	-0.614525	-0.433897	-0.087574
H195	H	-0.618276	-0.487428	-0.107290
H196	H	-0.573164	-0.450563	-0.130320
C197	C	-0.682069	-0.293220	-0.045747
C198	C	-0.686682	-0.358964	-0.069960
H199	H	-0.726576	-0.246998	-0.034884
H200	H	-0.668901	-0.280948	-0.004569
H201	H	-0.647598	-0.307120	-0.081373
H202	H	-0.721145	-0.345068	-0.034332
H203	H	-0.699857	-0.371233	-0.111133
O204	O	0.171113	-0.181583	0.413409
C205	C	0.231593	-0.238563	0.417251
H206	H	0.274619	-0.286166	0.363261
H207	H	0.217687	-0.269795	0.434109
C208	C	0.205475	-0.135844	0.537921
C209	C	0.258323	-0.194307	0.471610
H210	H	0.221962	-0.108546	0.571454
H211	H	0.164727	-0.097456	0.535334
H212	H	0.193892	-0.161880	0.551959
H213	H	0.269899	-0.168270	0.457569
H214	H	0.299073	-0.232690	0.474196
O215	O	-0.145723	-0.108442	-0.342986
C216	C	-0.183479	-0.027784	-0.323461
H217	H	-0.240755	-0.004329	-0.319723
H218	H	-0.158768	-0.026419	-0.364827
C219	C	-0.110383	-0.002013	-0.255893
C220	C	-0.180732	0.026797	-0.251296
H221	H	-0.108686	0.031655	-0.211380
H222	H	-0.084944	-0.056355	-0.269049
H223	H	-0.089798	-0.000875	-0.290367
H224	H	-0.201313	0.025648	-0.216829
H225	H	-0.206175	0.081140	-0.238133
H226	H	-0.589521	-0.615763	-0.026225
H227	H	-0.151071	-0.688798	-0.537715
H228	H	-0.589529	0.384267	0.213136
H229	H	-0.340370	-0.114057	0.037034
H230	H	-0.151079	-0.303348	0.037034
O231	O	-0.389205	0.378635	0.207783
C232	C	-0.346316	0.355322	0.245571
H233	H	-0.373013	0.346800	0.278977
H234	H	-0.338306	0.404728	0.281391
C235	C	-0.241431	0.285099	0.152305
C236	C	-0.274219	0.274624	0.193330
H237	H	-0.196957	0.235322	0.120082
H238	H	-0.270326	0.300807	0.126847
H239	H	-0.234764	0.326273	0.182162
H240	H	-0.280894	0.233458	0.163474
H241	H	-0.245323	0.258907	0.218782
O242	O	-0.145745	-0.694273	-0.342903
C243	C	-0.191519	-0.648775	-0.274031
H244	H	-0.248545	-0.613442	-0.271865
H245	H	-0.179877	-0.604259	-0.235217
C246	C	-0.110176	-0.750333	-0.256815
C247	C	-0.180216	-0.706942	-0.254157
H248	H	-0.103202	-0.786212	-0.244554
H249	H	-0.079335	-0.780985	-0.303215
H250	H	-0.100482	-0.713229	-0.224470
H251	H	-0.189906	-0.744045	-0.286508
H252	H	-0.211058	-0.676297	-0.207763
H253	H	0.234346	-0.499550	-0.348423
H254	H	-0.400241	-0.376385	0.213159
O255	O	-0.351355	-0.488638	-0.343075
C256	C	-0.374724	-0.465534	-0.388842
H257	H	-0.341568	-0.520404	-0.445874
H258	H	-0.368998	-0.415096	-0.377201
C259	C	-0.493496	-0.366918	-0.307470
C260	C	-0.452777	-0.434312	-0.377518
H261	H	-0.541644	-0.347656	-0.300483
H262	H	-0.477752	-0.382481	-0.276635
H263	H	-0.488717	-0.324895	-0.297778
H264	H	-0.457550	-0.476338	-0.387206
H265	H	-0.468524	-0.418756	-0.408355
O266	O	0.171054	-0.387266	0.207781
C267	C	0.231542	-0.451616	0.204242
H268	H	0.252370	-0.425605	0.247757
H269	H	0.273937	-0.492762	0.150631
C270	C	0.186634	-0.533409	0.160567
C271	C	0.212211	-0.501462	0.214017
H272	H	0.174711	-0.564159	0.166594
H273	H	0.145882	-0.490057	0.162949
H274	H	0.221967	-0.567692	0.115896
H275	H	0.176875	-0.467171	0.258686
H276	H	0.252956	-0.544809	0.211643
H277	H	0.171117	-0.187078	0.213153
H278	H	0.234350	-0.688869	-0.537720
H279	H	-0.589536	-0.187070	0.402474
O280	O	-0.594935	-0.181413	0.207815
C281	C	-0.614519	-0.100728	0.245592
H282	H	-0.579302	-0.094002	0.279000
H283	H	-0.671934	-0.056895	0.281410
C284	C	-0.649175	-0.089152	0.152314
C285	C	-0.605918	-0.080892	0.193341
H286	H	-0.643874	-0.076913	0.120084
H287	H	-0.635985	-0.143509	0.126863
H288	H	-0.697018	-0.052623	0.182169
H289	H	-0.558077	-0.117427	0.163486
H290	H	-0.619101	-0.026540	0.218785
