data_functionalizedCrystal
_audit_creation_method	'MofGen! by Chris Wilmer'
_symmetry_space_group_name_H-M	'P1'
_symmetry_Int_Tables_number	1
_symmetry_cell_setting	triclinic
loop_
_symmetry_equiv_pos_as_xyz
  x,y,z
_cell_length_a	6.817900
_cell_length_b	11.102237
_cell_length_c	19.453114
_cell_angle_alpha	94.506536
_cell_angle_beta	101.709288
_cell_angle_gamma	108.604801
loop_
_atom_site_label
_atom_site_type_symbol
_atom_site_fract_x
_atom_site_fract_y
_atom_site_fract_z
V1	V	-4.033150	-0.177163	-0.219000
O2	O	-3.993679	0.007152	-0.214830
O3	O	-4.010460	-0.349974	-0.217504
O4	O	-3.975749	-0.175035	-0.314513
O5	O	-4.028630	-0.168998	-0.117149
V6	V	-4.514613	-0.155046	-0.206818
O7	O	-4.298928	-0.225677	-0.245724
O8	O	-4.699033	-0.106531	-0.180095
O9	O	-4.314097	0.017766	-0.208314
O10	O	-4.671482	-0.339360	-0.210988
O11	O	-4.636531	-0.163210	-0.308669
O12	O	-4.348808	-0.157174	-0.111305
C13	C	-3.862006	-0.392083	-0.214050
C14	C	-3.924681	-0.533363	-0.213463
C15	C	-3.991283	-0.618270	-0.277511
C16	C	-4.050164	-0.751017	-0.276959
C17	C	-3.975843	-0.713935	-0.148305
C18	C	-3.916948	-0.581191	-0.148858
C19	C	-3.999015	-0.570442	-0.342115
C20	C	-4.065622	-0.655351	-0.406168
C21	C	-4.124504	-0.788098	-0.405616
C22	C	-4.116779	-0.835935	-0.341011
C23	C	-3.817728	-0.168929	-0.337794
C24	C	-3.852250	-0.168333	-0.415876
C25	C	-4.051199	-0.174432	-0.456133
C26	C	-4.083636	-0.173872	-0.529500
C27	C	-3.917125	-0.167239	-0.562609
C28	C	-3.718144	-0.161131	-0.522342
C29	C	-3.685706	-0.161679	-0.448975
N30	N	-3.867367	-0.234356	-0.681399
N31	N	-3.898195	-0.233839	-0.751094
C32	C	-4.014845	-0.165587	-0.783657
N33	N	-4.099541	-0.097887	-0.743894
N34	N	-4.068719	-0.098410	-0.674193
C35	C	-3.952277	-0.166644	-0.642162
C36	C	-4.248979	-0.171077	-0.903467
C37	C	-4.281405	-0.170509	-0.976834
C38	C	-3.915913	-0.157781	-0.969676
C39	C	-3.883486	-0.158336	-0.896309
C40	C	-4.050030	-0.164991	-0.863210
C41	C	-4.125894	0.059868	-0.211767
C42	C	-4.042457	0.201146	-0.212358
C43	C	-4.170172	-0.163283	-0.088021
C44	C	-4.114888	-0.163873	-0.009938
H45	H	-3.862704	-0.512056	-0.096704
F46	F	-4.195334	-0.878459	-0.473785
F47	F	-3.671743	-0.151862	-0.853464
H48	H	-4.071890	-0.616392	-0.458767
F49	F	-4.179414	-0.977217	-0.340426
H50	H	-3.780330	-0.152368	-0.996631
H51	H	-4.443412	-0.175466	-1.009610
H52	H	-3.969561	-0.752896	-0.095707
F53	F	-4.228450	-0.181509	-0.420910
H54	H	-4.245653	-0.178846	-0.562284
H55	H	-3.951081	-0.462355	-0.342572
F56	F	-3.540930	-0.154068	-0.557579
F57	F	-3.473951	-0.155190	-0.406130
F58	F	-4.426220	-0.178151	-0.868237
