data_functionalizedCrystal
_audit_creation_method	'MofGen! by Chris Wilmer'
_symmetry_space_group_name_H-M	'P1'
_symmetry_Int_Tables_number	1
_symmetry_cell_setting	triclinic
loop_
_symmetry_equiv_pos_as_xyz
  x,y,z
_cell_length_a	10.268362
_cell_length_b	14.853567
_cell_length_c	14.853567
_cell_angle_alpha	96.365070
_cell_angle_beta	89.997551
_cell_angle_gamma	89.998356
loop_
_atom_site_label
_atom_site_type_symbol
_atom_site_fract_x
_atom_site_fract_y
_atom_site_fract_z
O1	O	0.108199	-1.196365	0.117700
O2	O	0.358199	-0.946365	0.367700
O3	O	0.608199	-0.696365	0.617700
O4	O	0.858199	-0.446365	0.867700
O5	O	0.108220	-0.933906	0.131721
O6	O	0.358220	-0.683906	0.381721
O7	O	0.608220	-0.433906	0.631721
O8	O	0.858220	-0.183906	0.881721
O9	O	0.108213	-1.072146	-0.006519
O10	O	0.358213	-0.822146	0.243481
O11	O	0.608213	-0.572146	0.493481
O12	O	0.858213	-0.322146	0.743481
O13	O	0.108206	-1.058125	0.255940
O14	O	0.358206	-0.808125	0.505940
O15	O	0.608206	-0.558125	0.755940
O16	O	0.858206	-0.308125	1.005940
O17	O	-0.108388	-1.072133	-0.006515
O18	O	0.141612	-0.822133	0.243485
O19	O	0.391612	-0.572133	0.493485
O20	O	0.641612	-0.322133	0.743485
O21	O	-0.108380	-0.933893	0.131726
O22	O	0.141620	-0.683893	0.381726
O23	O	0.391620	-0.433893	0.631726
O24	O	0.641620	-0.183893	0.881726
O25	O	-0.108401	-1.196352	0.117704
O26	O	0.141599	-0.946352	0.367704
O27	O	0.391599	-0.696352	0.617704
O28	O	0.641599	-0.446352	0.867704
Cu29	Cu	-0.128168	-1.065121	0.124716
Cu30	Cu	0.121832	-0.815121	0.374716
Cu31	Cu	0.371832	-0.565121	0.624716
Cu32	Cu	0.621832	-0.315121	0.874716
Cu33	Cu	0.127987	-1.065137	0.124710
Cu34	Cu	0.377987	-0.815137	0.374710
Cu35	Cu	0.627987	-0.565137	0.624710
Cu36	Cu	0.877987	-0.315137	0.874710
O37	O	-0.108394	-1.058112	0.255945
O38	O	0.141606	-0.808112	0.505945
O39	O	0.391606	-0.558112	0.755945
O40	O	0.641606	-0.308112	1.005945
C41	C	-0.000077	-0.900311	0.131088
C42	C	0.249923	-0.650311	0.381088
C43	C	0.499923	-0.400311	0.631088
C44	C	0.749923	-0.150311	0.881088
C45	C	-0.000069	-0.800227	0.129184
C46	C	0.249931	-0.550227	0.379184
C47	C	0.499931	-0.300227	0.629184
C48	C	0.749931	-0.050227	0.879184
N49	N	-0.308334	-1.065117	0.124719
N50	N	-0.058334	-0.815117	0.374719
N51	N	0.191666	-0.565117	0.624719
N52	N	0.441666	-0.315117	0.874719
C53	C	-0.426177	-1.065123	0.124719
C54	C	-0.176177	-0.815123	0.374719
C55	C	0.073823	-0.565123	0.624719
C56	C	0.323823	-0.315123	0.874719
C57	C	-0.574014	-1.065135	0.124711
C58	C	-0.324014	-0.815135	0.374711
C59	C	-0.074014	-0.565135	0.624711
C60	C	0.175986	-0.315135	0.874711
C61	C	-0.000083	-1.071504	-0.040106
C62	C	0.249917	-0.821504	0.209894
C63	C	0.499917	-0.571504	0.459894
C64	C	0.749917	-0.321504	0.709894
C65	C	-0.000072	-1.069601	-0.140189
C66	C	0.249928	-0.819601	0.109811
C67	C	0.499928	-0.569601	0.359811
C68	C	0.749928	-0.319601	0.609811
N69	N	0.308153	-1.065148	0.124699
N70	N	0.558153	-0.815148	0.374699
N71	N	0.808153	-0.565148	0.624699
N72	N	1.058153	-0.315148	0.874699
C73	C	-0.000101	-1.229947	0.118337
C74	C	0.249899	-0.979947	0.368337
C75	C	0.499899	-0.729947	0.618337
C76	C	0.749899	-0.479947	0.868337
C77	C	-0.000101	-1.330031	0.120241
C78	C	0.249899	-1.080031	0.370241
C79	C	0.499899	-0.830031	0.620241
C80	C	0.749899	-0.580031	0.870241
C81	C	-0.000096	-0.387693	0.039019
C82	C	0.249904	-0.137693	0.289019
C83	C	0.499904	0.112307	0.539019
C84	C	0.749904	0.362307	0.789019
C85	C	-0.000099	-0.366412	0.203251
C86	C	0.249901	-0.116412	0.453251
C87	C	0.499901	0.133588	0.703251
C88	C	0.749901	0.383588	0.953251
C89	C	-0.000094	-0.460446	0.205042
C90	C	0.249906	-0.210446	0.455042
C91	C	0.499906	0.039554	0.705042
C92	C	0.749906	0.289554	0.955042
C93	C	-0.000089	-0.518108	0.123819
C94	C	0.249911	-0.268108	0.373819
C95	C	0.499911	-0.018108	0.623819
C96	C	0.749911	0.231892	0.873819
C97	C	-0.000088	-0.481736	0.040806
C98	C	0.249912	-0.231736	0.290806
C99	C	0.499912	0.018264	0.540806
C100	C	0.749912	0.268264	0.790806
C101	C	-0.000083	-0.496825	0.288053
C102	C	0.249917	-0.246825	0.538053
C103	C	0.499917	0.003175	0.788053
C104	C	0.749917	0.253175	1.038053
C105	C	-0.000077	-0.590864	0.289846
C106	C	0.249923	-0.340864	0.539846
C107	C	0.499923	-0.090864	0.789846
C108	C	0.749923	0.159136	1.039846
C109	C	-0.000081	-0.648528	0.208623
C110	C	0.249919	-0.398528	0.458623
C111	C	0.499919	-0.148528	0.708623
C112	C	0.749919	0.101472	0.958623
C113	C	-0.000081	-0.612150	0.125607
C114	C	0.249919	-0.362150	0.375607
C115	C	0.499919	-0.112150	0.625607
C116	C	0.749919	0.137850	0.875607
C117	C	-0.000075	-0.669812	0.044384
C118	C	0.249925	-0.419812	0.294384
C119	C	0.499925	-0.169812	0.544384
C120	C	0.749925	0.080188	0.794384
C121	C	-0.000085	-0.633437	-0.038633
C122	C	0.249915	-0.383437	0.211367
C123	C	0.499915	-0.133437	0.461367
C124	C	0.749915	0.116563	0.711367
C125	C	-0.000091	-0.539399	-0.040417
C126	C	0.249909	-0.289399	0.209583
C127	C	0.499909	-0.039399	0.459583
C128	C	0.749909	0.210601	0.709583
C129	C	-0.000074	-0.742565	0.210407
C130	C	0.249926	-0.492565	0.460407
C131	C	0.499926	-0.242565	0.710407
C132	C	0.749926	0.007435	0.960407
C133	C	-0.000067	-0.763855	0.046172
C134	C	0.249933	-0.513855	0.296172
C135	C	0.499933	-0.263855	0.546172
C136	C	0.749933	-0.013855	0.796172
C137	C	-0.000090	-0.979435	-0.552723
C138	C	0.249910	-0.729435	-0.302723
C139	C	0.499910	-0.479435	-0.052723
C140	C	0.749910	-0.229435	0.197277
C141	C	-0.000103	-1.143668	-0.574004
C142	C	0.249897	-0.893668	-0.324004
C143	C	0.499897	-0.643668	-0.074004
C144	C	0.749897	-0.393668	0.175996
C145	C	-0.000095	-1.145458	-0.479971
C146	C	0.249905	-0.895458	-0.229971
C147	C	0.499905	-0.645458	0.020029
C148	C	0.749905	-0.395458	0.270029
C149	C	-0.000087	-1.064235	-0.422309
C150	C	0.249913	-0.814235	-0.172309
C151	C	0.499913	-0.564235	0.077691
C152	C	0.749913	-0.314235	0.327691
C153	C	-0.000086	-0.981223	-0.458680
C154	C	0.249914	-0.731223	-0.208680
C155	C	0.499914	-0.481223	0.041320
C156	C	0.749914	-0.231223	0.291320
C157	C	-0.000109	-1.228469	-0.443591
C158	C	0.249891	-0.978469	-0.193591
C159	C	0.499891	-0.728469	0.056409
C160	C	0.749891	-0.478469	0.306409
C161	C	-0.000103	-1.230262	-0.349552
C162	C	0.249897	-0.980262	-0.099552
C163	C	0.499897	-0.730262	0.150448
C164	C	0.749897	-0.480262	0.400448
C165	C	-0.000085	-1.149039	-0.291889
C166	C	0.249915	-0.899039	-0.041889
C167	C	0.499915	-0.649039	0.208111
C168	C	0.749915	-0.399039	0.458111
C169	C	-0.000083	-1.066023	-0.328266
C170	C	0.249917	-0.816023	-0.078266
C171	C	0.499917	-0.566023	0.171734
C172	C	0.749917	-0.316023	0.421734
C173	C	-0.000075	-0.984800	-0.270604
C174	C	0.249925	-0.734800	-0.020604
C175	C	0.499925	-0.484800	0.229396
C176	C	0.749925	-0.234800	0.479396
C177	C	-0.000063	-0.901783	-0.306979
C178	C	0.249937	-0.651783	-0.056979
C179	C	0.499937	-0.401783	0.193021
C180	C	0.749937	-0.151783	0.443021
C181	C	-0.000068	-0.899999	-0.401017
C182	C	0.249932	-0.649999	-0.151017
C183	C	0.499932	-0.399999	0.098983
C184	C	0.749932	-0.149999	0.348983
C185	C	-0.000080	-1.150823	-0.197851
C186	C	0.249920	-0.900823	0.052149
C187	C	0.499920	-0.650823	0.302149
C188	C	0.749920	-0.400823	0.552149
C189	C	-0.000071	-0.986588	-0.176561
C190	C	0.249929	-0.736588	0.073439
C191	C	0.499929	-0.486588	0.323439
C192	C	0.749929	-0.236588	0.573439
C193	C	-0.000095	-1.058754	0.289531
C194	C	0.249905	-0.808754	0.539531
C195	C	0.499905	-0.558754	0.789531
C196	C	0.749905	-0.308754	1.039531
C197	C	-0.000098	-1.060657	0.389615
C198	C	0.249902	-0.810657	0.639615
C199	C	0.499902	-0.560657	0.889615
C200	C	0.749902	-0.310657	1.139615
H201	H	-0.000068	-0.810798	-0.019971
H202	H	0.249932	-0.560798	0.230029
H203	H	0.499932	-0.310798	0.480029
H204	H	0.749932	-0.060798	0.730029
F205	F	-0.000070	-0.435454	0.374489
F206	F	0.249930	-0.185454	0.624489
F207	F	0.499930	0.064546	0.874489
F208	F	0.749930	0.314546	1.124489
H209	H	-0.000059	-0.920445	-0.129618
H210	H	0.249941	-0.670445	0.120382
H211	H	0.499941	-0.420445	0.370382
H212	H	0.749941	-0.170445	0.620382
H213	H	-0.000120	-1.209795	-0.620958
H214	H	0.249880	-0.959795	-0.370958
H215	H	0.499880	-0.709795	-0.120958
H216	H	0.749880	-0.459795	0.129042
H217	H	-0.000092	-0.319459	0.269379
H218	H	0.249908	-0.069459	0.519379
H219	H	0.499908	0.180541	0.769379
H220	H	0.749908	0.430541	1.019379
H221	H	-0.000075	-0.911844	-0.582344
H222	H	0.249925	-0.661844	-0.332344
H223	H	0.499925	-0.411844	-0.082344
H224	H	0.749925	-0.161844	0.167656
F225	F	-0.000112	-0.348980	-0.049330
F226	F	0.249888	-0.098980	0.200670
F227	F	0.499888	0.151020	0.450670
F228	F	0.749888	0.401020	0.700670
H229	H	-0.000128	-1.294596	-0.490546
H230	H	0.249872	-1.044596	-0.240546
H231	H	0.499872	-0.794596	0.009454
H232	H	0.749872	-0.544596	0.259454
H233	H	-0.000071	-0.680397	-0.104764
H234	H	0.249929	-0.430397	0.145236
H235	H	0.499929	-0.180397	0.395236
H236	H	0.749929	0.069603	0.645236
F237	F	-0.000099	-1.318615	-0.310847
F238	F	0.249901	-1.068615	-0.060847
F239	F	0.499901	-0.818615	0.189153
F240	F	0.749901	-0.568615	0.439153
F241	F	-0.000065	-0.815343	-0.245601
F242	F	0.249935	-0.565343	0.004399
F243	F	0.499935	-0.315343	0.254399
F244	F	0.749935	-0.065343	0.504399
H245	H	-0.000069	-0.620472	0.357443
H246	H	0.249931	-0.370472	0.607443
H247	H	0.499931	-0.120472	0.857443
H248	H	0.749931	0.129528	1.107443
F249	F	-0.000096	-0.500679	-0.128762
F250	F	0.249904	-0.250679	0.121238
F251	F	0.499904	-0.000679	0.371238
F252	F	0.749904	0.249321	0.621238
H253	H	-0.000098	-1.218414	-0.168238
H254	H	0.249902	-0.968414	0.081762
H255	H	0.499902	-0.718414	0.331762
H256	H	0.749902	-0.468414	0.581762
F257	F	-0.000052	-0.811654	-0.439737
F258	F	0.249948	-0.561654	-0.189737
F259	F	0.499948	-0.311654	0.060263
F260	F	0.749948	-0.061654	0.310263
H261	H	-0.000069	-0.772178	0.277998
H262	H	0.249931	-0.522178	0.527998
H263	H	0.499931	-0.272178	0.777998
H264	H	0.749931	-0.022178	1.027998
