data_functionalizedCrystal
_audit_creation_method	'MofGen! by Chris Wilmer'
_symmetry_space_group_name_H-M	'P1'
_symmetry_Int_Tables_number	1
_symmetry_cell_setting	triclinic
loop_
_symmetry_equiv_pos_as_xyz
  x,y,z
_cell_length_a	19.288840
_cell_length_b	17.038272
_cell_length_c	17.766277
_cell_angle_alpha	89.993732
_cell_angle_beta	89.983415
_cell_angle_gamma	87.118786
loop_
_atom_site_label
_atom_site_type_symbol
_atom_site_fract_x
_atom_site_fract_y
_atom_site_fract_z
O1	O	0.927392	0.097420	-0.062722
O2	O	0.725944	0.110595	-0.062696
O3	O	0.825470	-0.009804	-0.062703
O4	O	0.827865	0.217819	-0.062715
O5	O	0.825451	-0.009810	0.062486
O6	O	0.725925	0.110589	0.062493
O7	O	0.927373	0.097414	0.062467
Cu8	Cu	0.826647	0.104001	0.073911
Cu9	Cu	0.826669	0.104008	-0.074139
O10	O	0.827846	0.217813	0.062474
C11	C	0.700031	0.110171	-0.000098
C12	C	0.622849	0.108909	-0.000088
C13	C	0.586618	0.108305	-0.068330
C14	C	0.514097	0.107110	-0.068339
C15	C	0.477811	0.106502	-0.000102
C16	C	0.514050	0.107110	0.068149
C17	C	0.586569	0.108313	0.068156
C18	C	0.365524	0.058808	0.052169
C19	C	0.293007	0.057601	0.052159
C20	C	0.254138	0.102795	-0.000122
C21	C	0.287795	0.149188	-0.052405
C22	C	0.360314	0.150391	-0.052398
C23	C	0.399176	0.105198	-0.000103
C24	C	0.139272	0.100897	-0.068379
C25	C	0.066749	0.099707	-0.068385
C26	C	0.066704	0.099699	0.068105
C27	C	0.139224	0.100897	0.068109
C28	C	0.175504	0.101493	-0.000135
C29	C	0.823283	-0.038928	-0.000108
C30	C	0.816785	-0.125699	-0.000107
C31	C	0.876442	-0.176012	-0.000114
C32	C	0.870332	-0.257542	-0.000121
C33	C	0.804566	-0.288758	-0.000115
C34	C	0.744905	-0.238439	-0.000110
C35	C	0.751015	-0.156910	-0.000109
C36	C	0.782980	-0.534444	-0.000122
C37	C	0.776875	-0.615979	-0.000121
C38	C	0.902303	-0.635077	-0.000133
C39	C	0.908407	-0.553546	-0.000127
C40	C	0.848746	-0.503234	-0.000127
C41	C	0.798320	-0.372095	-0.000119
C42	C	0.854993	-0.419899	-0.000128
C43	C	0.953285	0.097838	-0.000132
C44	C	1.030468	0.099101	-0.000147
C45	C	0.830033	0.246937	-0.000122
C46	C	0.836531	0.333708	-0.000128
N47	N	0.826636	0.103995	0.178041
N48	N	0.826685	0.104007	-0.178270
C49	C	0.870723	0.050709	0.217425
C50	C	0.870727	0.050705	0.296227
C51	C	0.826651	0.104002	0.335641
C52	C	0.782555	0.157292	0.296248
C53	C	0.782548	0.157289	0.217448
C54	C	0.821759	0.175226	0.460476
C55	C	0.821771	0.175230	0.539275
C56	C	0.826670	0.104011	0.578688
C57	C	0.831571	0.032785	0.539292
C58	C	0.831564	0.032782	0.460492
C59	C	0.826654	0.104011	0.421087
C60	C	0.870764	0.050716	0.703518
C61	C	0.870763	0.050711	0.782321
C62	C	0.782595	0.157305	0.782341
C63	C	0.782592	0.157303	0.703539
C64	C	0.826680	0.104009	0.664132
H65	H	0.616067	0.108805	0.123729
H66	H	0.265609	0.019821	0.094727
H67	H	0.397166	0.022003	0.094745
Cl68	Cl	0.815615	0.264770	0.588793
H69	H	0.723317	-0.641391	-0.000104
H70	H	0.744772	-0.397520	-0.000112
Cl71	Cl	0.021093	0.098943	0.153890
Cl72	Cl	0.184774	0.101651	0.153905
Cl73	Cl	0.238939	0.206012	-0.118131
Cl74	Cl	0.184883	0.101653	-0.154169
H75	H	0.484501	0.106617	0.123708
Cl76	Cl	0.727179	0.224301	0.831885
H77	H	0.929996	-0.150603	-0.000115
H78	H	0.906661	0.007319	0.671431
Cl79	Cl	0.945333	-0.320790	-0.000127
Cl80	Cl	0.727169	0.224299	0.654023
H81	H	0.961961	-0.528136	-0.000132
Cl82	Cl	0.937668	-0.380654	-0.000139
Cl83	Cl	0.977300	-0.698330	-0.000136
Cl84	Cl	0.632223	0.109057	-0.154122
H85	H	0.734400	-0.493489	-0.000122
H86	H	0.691357	-0.263861	-0.000110
H87	H	0.746667	0.200686	0.328344
Cl88	Cl	0.926187	-0.016287	0.831835
H89	H	0.746646	0.200682	0.185381
Cl90	Cl	0.676015	-0.093659	-0.000103
Cl91	Cl	0.926144	-0.016291	0.167885
H92	H	0.906629	0.007311	0.328299
H93	H	0.037251	0.099220	-0.123958
Cl94	Cl	0.837717	-0.056755	0.410968
H95	H	0.835560	-0.025208	0.571380
H96	H	0.484592	0.106620	-0.123912
Cl97	Cl	0.402625	0.208714	-0.118118
H98	H	0.817758	0.233224	0.428393
