data_functionalizedCrystal
_audit_creation_method	'MofGen! by Chris Wilmer'
_symmetry_space_group_name_H-M	'P1'
_symmetry_Int_Tables_number	1
_symmetry_cell_setting	triclinic
loop_
_symmetry_equiv_pos_as_xyz
  x,y,z
_cell_length_a	15.995350
_cell_length_b	15.711784
_cell_length_c	14.750779
_cell_angle_alpha	106.501906
_cell_angle_beta	77.354388
_cell_angle_gamma	101.540588
loop_
_atom_site_label
_atom_site_type_symbol
_atom_site_fract_x
_atom_site_fract_y
_atom_site_fract_z
O1	O	-1.132695	-0.130152	-0.079738
O2	O	-0.632695	0.369848	0.420262
O3	O	-0.893131	-0.143916	-0.079757
O4	O	-0.393131	0.356084	0.420243
O5	O	-0.981035	-0.011202	-0.079748
O6	O	-0.481035	0.488798	0.420252
O7	O	-1.044792	-0.262866	-0.079746
O8	O	-0.544792	0.237134	0.420254
O9	O	-1.005885	0.026310	0.079904
O10	O	-0.505885	0.526310	0.579904
O11	O	-0.917982	-0.106403	0.079896
O12	O	-0.417982	0.393597	0.579896
O13	O	-1.157546	-0.092640	0.079915
O14	O	-0.657546	0.407360	0.579915
Zn15	Zn	-1.041709	-0.093566	0.105254
Zn16	Zn	-0.541709	0.406434	0.605254
Zn17	Zn	-1.008968	-0.142990	-0.105096
Zn18	Zn	-0.508968	0.357010	0.394904
O19	O	-1.069642	-0.225353	0.079906
O20	O	-0.569642	0.274647	0.579906
C21	C	-0.874187	-0.124591	0.000067
C22	C	-0.374187	0.375409	0.500067
C23	C	-0.780713	-0.122888	0.000059
C24	C	-0.280713	0.377112	0.500059
C25	C	-0.983045	0.039757	0.000075
C26	C	-0.483045	0.539757	0.500075
C27	C	-0.952000	0.135714	0.000068
C28	C	-0.452000	0.635714	0.500068
C29	C	-1.176490	-0.111965	0.000089
C30	C	-0.676490	0.388035	0.500089
C31	C	-1.269963	-0.113670	0.000090
C32	C	-0.769963	0.386330	0.500090
C33	C	-0.441093	-0.116759	0.000079
C34	C	0.058907	0.383241	0.500079
C35	C	-0.459633	-0.022161	0.000435
C36	C	0.040367	0.477839	0.500435
C37	C	-0.556789	-0.023953	0.000068
C38	C	-0.056789	0.476047	0.500068
C39	C	-0.609583	-0.119799	0.000070
C40	C	-0.109583	0.380201	0.500070
C41	C	-0.568584	-0.187837	-0.091095
C42	C	-0.068584	0.312163	0.408905
C43	C	-0.471211	-0.185479	-0.091165
C44	C	0.028789	0.314521	0.408835
C45	C	-0.499729	-0.144773	0.090390
C46	C	0.000271	0.355227	0.590390
C47	C	-0.596854	-0.144469	0.091588
C48	C	-0.096854	0.355531	0.591588
C49	C	-0.704806	-0.121523	0.000062
C50	C	-0.204806	0.378477	0.500062
C51	C	-0.345869	-0.115039	0.000081
C52	C	0.154131	0.384961	0.500081
C53	C	-1.067632	-0.276314	0.000080
C54	C	-0.567632	0.223686	0.500080
C55	C	-1.098676	-0.372271	0.000081
C56	C	-0.598676	0.127729	0.500081
N57	N	-1.064061	-0.059835	0.248811
N58	N	-0.564061	0.440165	0.748811
C59	C	-0.835129	0.260658	0.000053
C60	C	-0.335129	0.760658	0.500053
C61	C	-0.864308	0.170494	0.000059
C62	C	-0.364308	0.670494	0.500059
C63	C	-1.010547	0.191094	0.000075
C64	C	-0.510547	0.691094	0.500075
C65	C	-0.981380	0.281263	0.000073
C66	C	-0.481380	0.781263	0.500073
C67	C	-0.893670	0.316038	0.000061
C68	C	-0.393670	0.816038	0.500061
C69	C	-1.039921	0.336643	0.000082
C70	C	-0.539921	0.836643	0.500082
C71	C	-1.010756	0.426803	0.000075
C72	C	-0.510756	0.926803	0.500075
C73	C	-0.923049	0.461584	0.000060
C74	C	-0.423049	0.961584	0.500060
C75	C	-0.864504	0.406198	0.000054
C76	C	-0.364504	0.906198	0.500054
C77	C	-1.127630	0.301865	0.000087
C78	C	-0.627630	0.801865	0.500087
C79	C	-1.186172	0.357244	0.000095
C80	C	-0.686172	0.857244	0.500095
C81	C	-1.157007	0.447408	0.000095
C82	C	-0.657007	0.947408	0.500095
C83	C	-1.069300	0.482189	0.000080
C84	C	-0.569300	0.982189	0.500080
C85	C	-1.215552	0.502794	0.000101
C86	C	-0.715552	1.002794	0.500101
C87	C	-1.186386	0.592954	0.000094
C88	C	-0.686386	1.092954	0.500094
C89	C	-1.040135	0.572349	0.000073
C90	C	-0.540135	1.072349	0.500073
N91	N	-0.986621	-0.176714	-0.248654
N92	N	-0.486621	0.323286	0.251346
C93	C	-0.924186	-0.270882	0.600616
C94	C	-0.424186	0.229118	1.100616
C95	C	-0.939856	-0.247251	0.701117
C96	C	-0.439856	0.252749	1.201117
C97	C	-1.017731	-0.129777	0.701087
C98	C	-0.517731	0.370223	1.201087
C99	C	-1.002064	-0.153395	0.600584
C100	C	-0.502064	0.346605	1.100584
C101	C	-0.955291	-0.223949	0.550357
C102	C	-0.455291	0.276051	1.050357
C103	C	-1.033170	-0.106462	0.550325
C104	C	-0.533170	0.393538	1.050325
C105	C	-1.017507	-0.130082	0.449831
C106	C	-0.517507	0.369918	0.949831
C107	C	-0.970739	-0.200635	0.399597
C108	C	-0.470739	0.299365	0.899597
C109	C	-0.939629	-0.247569	0.449863
C110	C	-0.439629	0.252431	0.949863
C111	C	-1.079947	-0.035913	0.600554
C112	C	-0.579947	0.464087	1.100554
C113	C	-1.111053	0.011020	0.550295
C114	C	-0.611053	0.511020	1.050295
C115	C	-1.095385	-0.012595	0.449799
C116	C	-0.595385	0.487405	0.949799
C117	C	-1.048617	-0.083148	0.399565
C118	C	-0.548617	0.416852	0.899565
C119	C	-1.126495	0.034339	0.399533
C120	C	-0.626495	0.534339	0.899533
C121	C	-1.110833	0.010719	0.299039
C122	C	-0.610833	0.510719	0.799039
C123	C	-1.032955	-0.106768	0.299071
C124	C	-0.532955	0.393232	0.799071
H125	H	-0.584166	0.028047	0.065420
H126	H	-0.084166	0.528047	0.565420
H127	H	-1.234056	0.638045	0.000095
H128	H	-0.734056	1.138045	0.500095
H129	H	-0.994860	-0.164214	0.258174
H130	H	-0.494860	0.335786	0.758174
Cl131	Cl	-0.886386	0.574937	0.000082
Cl132	Cl	-0.386386	1.074937	0.500082
H133	H	-1.164585	0.091779	0.440441
H134	H	-0.664585	0.591779	0.940441
Cl135	Cl	-1.169853	0.099712	0.613445
Cl136	Cl	-0.669853	0.599712	1.113445
Cl137	Cl	-1.120807	0.147368	0.000087
Cl138	Cl	-0.620807	0.647368	0.500087
H139	H	-0.886091	-0.328328	0.559719
H140	H	-0.386091	0.171672	1.059719
H141	H	-0.439715	0.030980	0.065813
H142	H	0.060285	0.530980	0.565813
H143	H	-1.055816	-0.072333	0.741994
H144	H	-0.555816	0.427667	1.241994
H145	H	-1.136164	0.048937	0.258117
H146	H	-0.636164	0.548937	0.758117
Cl147	Cl	-0.951053	-0.230332	0.273260
Cl148	Cl	-0.451053	0.269668	0.773260
H149	H	-1.257586	0.328919	0.000109
H150	H	-0.757586	0.828919	0.500109
H151	H	-0.793085	0.434518	0.000066
H152	H	-0.293085	0.934518	0.500066
H153	H	-1.092701	-0.016687	0.682383
H154	H	-0.592701	0.483313	1.182383
Cl155	Cl	-1.164295	0.188518	0.000092
Cl156	Cl	-0.664295	0.688518	0.500092
H157	H	-0.563157	-0.002443	-0.065397
H158	H	-0.063157	0.497557	0.434603
H159	H	-0.914522	-0.285477	0.742033
H160	H	-0.414522	0.214523	1.242033
H161	H	-0.418400	0.000168	-0.064584
H162	H	0.081600	0.500168	0.435416
Cl163	Cl	-0.410486	-0.157713	-0.196381
Cl164	Cl	0.089514	0.342287	0.303619
Cl165	Cl	-0.453237	-0.294111	-0.097553
Cl166	Cl	0.046763	0.205889	0.402447
Cl167	Cl	-0.580770	-0.162462	-0.195851
Cl168	Cl	-0.080770	0.337538	0.304149
H169	H	-1.286965	0.474465	0.000104
H170	H	-0.786965	0.974465	0.500104
Cl171	Cl	-0.622895	-0.297781	-0.096352
Cl172	Cl	-0.122895	0.202219	0.403648
H173	H	-0.480485	-0.097638	0.159491
H174	H	0.019515	0.402362	0.659491
H175	H	-0.624245	-0.094592	0.159032
H176	H	-0.124245	0.405408	0.659032
Cl177	Cl	-0.880816	-0.336259	0.386716
Cl178	Cl	-0.380816	0.163741	0.886716
Cl179	Cl	-0.654947	-0.250388	0.100091
Cl180	Cl	-0.154947	0.249612	0.600091
H181	H	-0.816630	0.125406	0.000054
H182	H	-0.316630	0.625406	0.500054
Cl183	Cl	-0.929871	0.616076	0.000075
Cl184	Cl	-0.429871	1.116076	0.500075
Cl185	Cl	-0.724865	0.304385	0.000055
Cl186	Cl	-0.224865	0.804385	0.500055
Cl187	Cl	-0.483796	-0.252136	0.091346
Cl188	Cl	0.016204	0.247864	0.591346
