data_functionalizedCrystal
_audit_creation_method	'MofGen! by Chris Wilmer'
_symmetry_space_group_name_H-M	'P1'
_symmetry_Int_Tables_number	1
_symmetry_cell_setting	triclinic
loop_
_symmetry_equiv_pos_as_xyz
  x,y,z
_cell_length_a	16.776229
_cell_length_b	16.109301
_cell_length_c	16.109301
_cell_angle_alpha	96.538519
_cell_angle_beta	90.008821
_cell_angle_gamma	90.001518
loop_
_atom_site_label
_atom_site_type_symbol
_atom_site_fract_x
_atom_site_fract_y
_atom_site_fract_z
O1	O	0.066240	-1.103127	0.106871
O2	O	0.066253	-0.861066	0.120170
O3	O	0.066238	-0.988746	-0.007511
O4	O	0.066255	-0.975447	0.234551
O5	O	-0.066338	-0.988744	-0.007522
O6	O	-0.066323	-0.861063	0.120159
O7	O	-0.066336	-1.103125	0.106859
Zn8	Zn	-0.087379	-0.982094	0.113507
Zn9	Zn	0.087296	-0.982097	0.113522
O10	O	-0.066321	-0.975445	0.234540
C11	C	-0.000033	-0.830090	0.119626
C12	C	-0.000029	-0.737794	0.118011
N13	N	-0.206590	-0.982098	0.113497
N14	N	0.206507	-0.982099	0.113526
C15	C	0.248218	-1.038741	0.057101
C16	C	0.331670	-1.038745	0.057099
C17	C	0.373410	-0.982101	0.113519
C18	C	0.331694	-0.925456	0.169950
C19	C	0.248243	-0.925458	0.169956
C20	C	0.668241	-0.925450	0.169930
C21	C	0.751698	-0.925451	0.169919
C22	C	0.751668	-1.038737	0.057073
C23	C	0.668217	-1.038738	0.057079
C24	C	0.626508	-0.982097	0.113513
C25	C	0.536020	-0.982095	0.113515
C26	C	0.463897	-0.982098	0.113513
C27	C	-0.000050	-0.988206	-0.038491
C28	C	-0.000051	-0.986591	-0.130786
C29	C	-0.000048	-1.134101	0.107404
C30	C	-0.000047	-1.226397	0.109019
C31	C	-0.000033	-0.515522	0.190018
C32	C	-0.000038	-0.428801	0.188494
C33	C	-0.000045	-0.448676	0.037006
C34	C	-0.000046	-0.535394	0.038530
C35	C	-0.000036	-0.568815	0.115039
C36	C	-0.000040	-0.395376	0.111990
C37	C	-0.000046	-0.301350	0.110337
C38	C	-0.000031	-0.662847	0.116693
C39	C	-0.000043	-1.058599	-0.353059
C40	C	-0.000036	-1.057075	-0.439779
C41	C	-0.000031	-0.905586	-0.419905
C42	C	-0.000032	-0.907111	-0.333186
C43	C	-0.000042	-0.983620	-0.299766
C44	C	-0.000034	-0.980571	-0.473205
C45	C	-0.000027	-0.978918	-0.567231
C46	C	-0.000047	-0.985273	-0.205734
C47	C	-0.000031	-0.975984	0.265521
C48	C	-0.000025	-0.977600	0.357816
H49	H	0.214239	-1.084864	0.011154
C50	C	-0.000036	-0.821431	-0.456676
N51	N	-0.000045	-0.758043	-0.484371
H52	H	-0.000049	-1.120897	-0.325851
C53	C	0.797555	-1.101043	-0.005008
N54	N	0.832116	-1.147968	-0.051769
C55	C	-0.000027	-0.824624	-0.274560
N56	N	-0.000020	-0.762497	-0.230402
C57	C	0.377548	-1.101052	-0.004978
N58	N	0.412102	-1.147983	-0.051738
C59	C	0.202362	-0.863145	0.232027
N60	N	0.167806	-0.816211	0.278782
C61	C	0.622308	-1.101042	-0.004997
N62	N	0.587730	-1.147970	-0.051754
H63	H	-0.000038	-0.385413	0.249550
H64	H	0.785681	-0.879324	0.215866
H65	H	0.634288	-0.879329	0.215880
H66	H	-0.000030	-0.542730	0.252317
H67	H	-0.000059	-0.421454	-0.025285
C68	C	-0.000044	-1.139558	-0.498398
N69	N	-0.000052	-1.201688	-0.542550
C70	C	-0.000049	-0.594021	-0.043957
N71	N	-0.000053	-0.638178	-0.106083
C72	C	0.377611	-0.863147	0.232013
N73	N	0.412195	-0.816212	0.278758
