data_functionalizedCrystal
_audit_creation_method	'MofGen! by Chris Wilmer'
_symmetry_space_group_name_H-M	'P1'
_symmetry_Int_Tables_number	1
_symmetry_cell_setting	triclinic
loop_
_symmetry_equiv_pos_as_xyz
  x,y,z
_cell_length_a	16.120484
_cell_length_b	10.685972
_cell_length_c	10.686551
_cell_angle_alpha	98.409768
_cell_angle_beta	88.707809
_cell_angle_gamma	82.501195
loop_
_atom_site_label
_atom_site_type_symbol
_atom_site_fract_x
_atom_site_fract_y
_atom_site_fract_z
Zn1	Zn	-0.186909	-1.982415	-0.880041
Zn2	Zn	-0.337943	-1.955183	-0.678516
Zn3	Zn	-0.210108	-1.752181	-0.653149
Zn4	Zn	-0.337858	-1.759313	-0.874415
O5	O	-0.268204	-1.862273	-0.771530
O6	O	-0.197270	-2.157129	-0.866278
O7	O	-0.330730	-1.913873	-0.498211
O8	O	-0.090359	-1.791134	-0.674985
O9	O	-0.308235	-2.137122	-0.718219
O10	O	-0.073314	-1.960286	-0.841682
O11	O	-0.236810	-1.764729	-0.479575
O12	O	-0.236728	-1.574801	-0.669531
O13	O	-0.308089	-1.803289	-1.052101
O14	O	-0.330585	-1.580041	-0.832094
O15	O	-0.197188	-1.967201	-1.056234
O16	O	-0.454604	-1.920788	-0.712764
O17	O	-0.454541	-1.776883	-0.856690
C18	C	-0.286165	-1.531183	-0.747450
C19	C	-0.293867	-1.389542	-0.737180
C20	C	-0.484821	-1.846691	-0.786899
C21	C	-0.577481	-1.840146	-0.793525
C22	C	-0.747132	-1.828204	-0.805648
C23	C	-0.788423	-1.896572	-0.737450
C24	C	-0.882822	-1.889928	-0.744195
C25	C	-0.652724	-1.834847	-0.798904
C26	C	-0.050739	-1.877953	-0.756131
C27	C	0.041932	-1.884634	-0.749569
C28	C	-0.250041	-1.889078	-1.101329
C29	C	-0.242301	-1.900501	-1.241869
C30	C	-0.250169	-1.194656	-0.795699
C31	C	-0.242470	-1.336298	-0.805982
C32	C	-0.286233	-1.835650	-0.443016
C33	C	-0.293724	-1.824491	-0.302477
H34	H	-0.343766	-1.326760	-0.670407
H35	H	-0.752877	-1.960093	-0.673996
H36	H	-0.782675	-1.764686	-0.869095
H37	H	-0.343674	-1.750680	-1.246849
O38	O	-0.182687	-1.988676	-1.308042
C39	C	-0.136416	-2.057027	-1.223472
H40	H	-0.175453	-2.051409	-1.132040
H41	H	-0.076389	-2.013799	-1.201596
C42	C	-0.066281	-2.204572	-1.396449
C43	C	-0.114230	-2.197681	-1.284155
H44	H	-0.052592	-2.291333	-1.433882
H45	H	-0.097452	-2.158521	-1.453426
H46	H	-0.016264	-2.168542	-1.378204
H47	H	-0.164250	-2.233697	-1.302404
H48	H	-0.083067	-2.243743	-1.227182
O49	O	-0.183010	-1.411366	-0.885616
C50	C	-0.188286	-1.540818	-0.878476
H51	H	-0.253904	-1.550870	-0.842760
H52	H	-0.140436	-1.576663	-0.810458
C53	C	-0.089457	-1.607882	-1.054672
C54	C	-0.170052	-1.620228	-1.010815
H55	H	-0.078206	-1.656868	-1.136302
H56	H	-0.085900	-1.520668	-1.059480
H57	H	-0.049591	-1.637751	-0.997979
H58	H	-0.209918	-1.590345	-1.067499
H59	H	-0.173616	-1.707440	-1.006020
