data_functionalizedCrystal
_audit_creation_method	'MofGen! by Chris Wilmer'
_symmetry_space_group_name_H-M	'P1'
_symmetry_Int_Tables_number	1
_symmetry_cell_setting	triclinic
loop_
_symmetry_equiv_pos_as_xyz
  x,y,z
_cell_length_a	17.699097
_cell_length_b	27.732048
_cell_length_c	16.776229
_cell_angle_alpha	90.008366
_cell_angle_beta	90.009351
_cell_angle_gamma	82.965542
loop_
_atom_site_label
_atom_site_type_symbol
_atom_site_fract_x
_atom_site_fract_y
_atom_site_fract_z
O1	O	1.003532	0.061155	0.066363
O2	O	1.503532	0.561155	0.566363
O3	O	0.783085	0.069101	0.066351
O4	O	1.283085	0.569101	0.566351
O5	O	0.900155	-0.005244	0.066342
O6	O	1.400155	0.494756	0.566342
O7	O	0.886462	0.135500	0.066372
O8	O	1.386462	0.635500	0.566372
O9	O	0.900142	-0.005244	-0.066234
O10	O	1.400142	0.494756	0.433766
O11	O	0.783072	0.069101	-0.066225
O12	O	1.283072	0.569101	0.433775
O13	O	1.003519	0.061155	-0.066213
O14	O	1.503519	0.561155	0.433787
Zn15	Zn	0.893293	0.065128	-0.087269
Zn16	Zn	1.393293	0.565128	0.412731
Zn17	Zn	0.893310	0.065128	0.087407
Zn18	Zn	1.393310	0.565128	0.587407
O19	O	0.886449	0.135500	-0.066205
O20	O	1.386449	0.635500	0.433795
C21	C	0.754884	0.068815	0.000061
C22	C	1.254884	0.568815	0.500061
C23	C	0.670874	0.067958	0.000056
C24	C	1.170874	0.567958	0.500056
C25	C	0.899861	-0.023252	0.000052
C26	C	1.399861	0.476748	0.500052
C27	C	0.898995	-0.076910	0.000045
C28	C	1.398995	0.423090	0.500045
C29	C	0.155209	0.062702	0.072355
C30	C	0.655209	0.562702	0.572355
C31	C	0.234146	0.063505	0.072351
C32	C	0.734146	0.563505	0.572351
C33	C	0.273601	0.063907	0.000080
C34	C	0.773601	0.563907	0.500080
C35	C	0.234117	0.063501	-0.072191
C36	C	0.734117	0.563501	0.427809
C37	C	0.155182	0.062695	-0.072187
C38	C	0.655182	0.562695	0.427813
C39	C	0.552452	0.066750	-0.072212
C40	C	1.052452	0.566750	0.427788
C41	C	0.631392	0.067557	-0.072211
C42	C	1.131392	0.567557	0.427789
C43	C	0.631417	0.067560	0.072326
C44	C	1.131417	0.567560	0.572326
C45	C	0.552482	0.066754	0.072331
C46	C	1.052482	0.566754	0.572331
C47	C	0.513004	0.066346	0.000060
C48	C	1.013004	0.566346	0.500060
C49	C	0.427412	0.065475	0.000064
C50	C	0.927412	0.565475	0.500064
C51	C	0.359192	0.064781	0.000074
C52	C	0.859192	0.564781	0.500074
C53	C	0.962727	-0.415494	0.000090
C54	C	1.462727	0.084506	0.500090
C55	C	0.959516	-0.617165	0.000101
C56	C	1.459516	-0.117165	0.500101
O57	O	1.017794	-0.648209	0.000139
O58	O	1.517794	-0.148209	0.500139
N59	N	0.890098	-0.636540	0.000096
N60	N	1.390098	-0.136540	0.500096
C61	C	0.821478	-0.605495	0.000094
C62	C	1.321478	-0.105495	0.500094
O63	O	0.762361	-0.626602	0.000099
O64	O	1.262361	-0.126602	0.500099
C65	C	0.824691	-0.403824	0.000089
C66	C	1.324691	0.096176	0.500089
C67	C	0.894113	-0.384452	0.000085
C68	C	1.394113	0.115548	0.500085
C69	C	1.032144	-0.396121	0.000087
C70	C	1.532144	0.103879	0.500087
C71	C	1.032946	-0.345706	0.000080
C72	C	1.532946	0.154294	0.500080
C73	C	0.964331	-0.314664	0.000075
C74	C	1.464331	0.185336	0.500075
C75	C	0.894915	-0.334037	0.000078
C76	C	1.394915	0.165963	0.500078
C77	C	0.756072	-0.372780	0.000093
C78	C	1.256072	0.127220	0.500093
C79	C	0.756881	-0.322359	0.000093
C80	C	1.256881	0.177641	0.500093
C81	C	0.826303	-0.302987	0.000090
C82	C	1.326303	0.197013	0.500090
C83	C	0.827102	-0.252580	0.000067
C84	C	1.327102	0.247420	0.500067
N85	N	0.896520	-0.233205	0.000071
N86	N	1.396520	0.266795	0.500071
C87	C	0.965135	-0.264247	0.000076
C88	C	1.465135	0.235753	0.500076
C89	C	0.819797	-0.711375	0.000095
C90	C	1.319797	-0.211375	0.500095
C91	C	0.818994	-0.761792	0.000095
C92	C	1.318994	-0.261792	0.500095
C93	C	0.957031	-0.773459	0.000103
C94	C	1.457031	-0.273459	0.500103
C95	C	0.957834	-0.723041	0.000097
C96	C	1.457834	-0.223041	0.500097
C97	C	0.889215	-0.691999	0.000100
C98	C	1.389215	-0.191999	0.500100
C99	C	0.966814	-0.158371	0.000060
C100	C	1.466814	0.341629	0.500060
C101	C	0.967610	-0.107952	0.000050
C102	C	1.467610	0.392048	0.500050
C103	C	0.829572	-0.096289	0.000046
C104	C	1.329572	0.403711	0.500046
C105	C	0.828776	-0.146705	0.000052
C106	C	1.328776	0.353295	0.500052
C107	C	0.897403	-0.177745	0.000062
C108	C	1.397403	0.322255	0.500062
O109	O	0.768855	-0.221508	0.000038
O110	O	1.268855	0.278492	0.500038
O111	O	1.024244	-0.243130	0.000089
O112	O	1.524244	0.256870	0.500089
C113	C	0.961925	-0.465909	0.000097
C114	C	1.461925	0.034091	0.500097
C115	C	0.892509	-0.485282	0.000099
C116	C	1.392509	0.014718	0.500099
C117	C	0.823894	-0.454240	0.000095
C118	C	1.323894	0.045760	0.500095
C119	C	0.891705	-0.535699	0.000099
C120	C	1.391705	-0.035699	0.500099
C121	C	0.960320	-0.566741	0.000104
C122	C	1.460320	-0.066741	0.500104
C123	C	1.029738	-0.547365	0.000108
C124	C	1.529738	-0.047365	0.500108
C125	C	1.030540	-0.496950	0.000101
C126	C	1.530540	0.003050	0.500101
C127	C	0.754476	-0.473615	0.000091
C128	C	1.254476	0.026385	0.500091
C129	C	0.753680	-0.524031	0.000097
C130	C	1.253680	-0.024031	0.500097
C131	C	0.822294	-0.555072	0.000101
C132	C	1.322294	-0.055072	0.500101
C133	C	1.031720	0.061441	0.000078
C134	C	1.531720	0.561441	0.500078
C135	C	1.115730	0.062298	0.000089
C136	C	1.615730	0.562298	0.500089
C137	C	0.886743	0.153508	0.000088
C138	C	1.386743	0.653508	0.500088
C139	C	0.887608	0.207166	0.000100
C140	C	1.387608	0.707166	0.500100
N141	N	0.893287	0.065128	-0.206480
N142	N	1.393287	0.565128	0.293520
C143	C	0.938843	0.094410	-0.248184
C144	C	1.438843	0.594410	0.251816
C145	C	0.938852	0.094408	-0.331637
C146	C	1.438852	0.594408	0.168363
C147	C	0.893299	0.065126	-0.373383
C148	C	1.393299	0.565126	0.126617
C149	C	0.847741	0.035840	-0.331673
C150	C	1.347741	0.535840	0.168327
C151	C	0.847737	0.035840	-0.248222
C152	C	1.347737	0.535840	0.251778
C153	C	0.847756	0.035841	-0.668220
C154	C	1.347756	0.535841	-0.168220
C155	C	0.847762	0.035845	-0.751676
C156	C	1.347762	0.535845	-0.251676
C157	C	0.938871	0.094409	-0.751635
C158	C	1.438871	0.594409	-0.251635
C159	C	0.938867	0.094409	-0.668184
C160	C	1.438867	0.594409	-0.168184
C161	C	0.893312	0.065121	-0.626481
C162	C	1.393312	0.565121	-0.126481
C163	C	0.893305	0.065123	-0.535992
C164	C	1.393305	0.565123	-0.035992
C165	C	0.893302	0.065127	-0.463870
C166	C	1.393302	0.565127	0.036130
N167	N	0.893323	0.065125	0.206618
N168	N	1.393323	0.565125	0.706618
H169	H	0.123090	0.062379	0.131206
H170	H	0.623090	0.562379	0.631206
N171	N	0.276730	0.063934	0.150294
N172	N	0.776730	0.563934	0.650294
H173	H	0.239758	0.063559	0.196078
H174	H	0.739758	0.563559	0.696078
H175	H	0.303002	0.094219	0.153450
H176	H	0.803002	0.594219	0.653450
N177	N	0.798635	0.004254	-0.796702
N178	N	1.298635	0.504254	-0.296702
H179	H	0.831874	-0.019425	-0.831326
H180	H	1.331874	0.480575	-0.331326
H181	H	0.761348	0.025360	-0.831282
H182	H	1.261348	0.525360	-0.331282
N183	N	0.509930	0.066315	0.150280
N184	N	1.009930	0.566315	0.650280
H185	H	0.453935	0.065743	0.139317
H186	H	0.953935	0.565743	0.639317
H187	H	0.517246	0.096407	0.181849
H188	H	1.017246	0.596407	0.681849
H189	H	0.663569	0.067890	0.131173
H190	H	1.163569	0.567890	0.631173
H191	H	0.810663	0.011993	-0.634275
H192	H	1.310663	0.511993	-0.134275
H193	H	1.014364	-0.707271	0.000095
H194	H	1.514364	-0.207271	0.500095
N195	N	0.798613	0.004253	-0.376694
N196	N	1.298613	0.504253	0.123306
H197	H	0.805526	0.008697	-0.435889
H198	H	1.305526	0.508697	0.064111
H199	H	0.743457	0.013844	-0.362116
H200	H	1.243457	0.513844	0.137884
N201	N	0.798605	0.004254	-0.203236
N202	N	1.298605	0.504254	0.296764
H203	H	0.769747	-0.014296	-0.242344
H204	H	1.269747	0.485704	0.257656
H205	H	0.761357	0.025356	-0.168612
H206	H	1.261357	0.525356	0.331388
H207	H	0.698601	-0.448345	0.000089
H208	H	1.198601	0.051655	0.500089
N209	N	0.276673	0.063937	-0.150139
N210	N	0.776673	0.563937	0.349861
H211	H	0.256440	0.093748	-0.181726
H212	H	0.756440	0.593748	0.318274
H213	H	0.269405	0.033824	-0.181677
H214	H	0.769405	0.533824	0.318323
N215	N	1.042493	-0.087061	0.000048
N216	N	1.542493	0.412939	0.500048
H217	H	1.045910	-0.066396	0.049190
H218	H	1.545910	0.433604	0.549190
H219	H	1.045855	-0.066435	-0.049135
H220	H	1.545855	0.433565	0.450865
H221	H	0.663514	0.067885	-0.131066
H222	H	1.163514	0.567885	0.368934
H223	H	0.123037	0.062371	-0.131033
H224	H	0.623037	0.562371	0.368967
H225	H	0.520321	0.066411	-0.131059
H226	H	1.020321	0.566411	0.368941
N227	N	0.987980	0.125989	-0.203158
N228	N	1.487980	0.625989	0.296842
H229	H	0.954751	0.149675	-0.168535
H230	H	1.454751	0.649675	0.331465
H231	H	1.016837	0.144506	-0.242292
H232	H	1.516837	0.644506	0.257708
H233	H	1.022697	-0.183639	0.000071
H234	H	1.522697	0.316361	0.500071
H235	H	1.089477	-0.329938	0.000080
H236	H	1.589477	0.170062	0.500080
N237	N	1.106156	-0.429597	0.000091
N238	N	1.606156	0.070403	0.500091
H239	H	1.150246	-0.409666	0.000088
H240	H	1.650246	0.090334	0.500088
H241	H	1.108826	-0.450772	-0.049060
H242	H	1.608826	0.049228	0.450940
N243	N	1.031039	-0.806944	0.000106
N244	N	1.531039	-0.306944	0.500106
H245	H	1.019989	-0.841822	0.000106
H246	H	1.519989	-0.341822	0.500106
H247	H	1.061320	-0.800678	0.049258
H248	H	1.561320	-0.300678	0.549258
H249	H	0.975966	0.118255	-0.785599
H250	H	1.475966	0.618255	-0.285599
H251	H	0.762463	-0.777560	0.000084
H252	H	1.262463	-0.277560	0.500084
H253	H	0.763915	-0.686105	0.000097
H254	H	1.263915	-0.186105	0.500097
H255	H	0.701001	-0.297087	0.000096
H256	H	1.201001	0.202913	0.500096
N257	N	0.681194	-0.393666	0.000086
N258	N	1.181194	0.106334	0.500086
H259	H	0.637856	-0.366344	0.000085
H260	H	1.137856	0.133656	0.500085
H261	H	0.677852	-0.414326	0.049234
H262	H	1.177852	0.085674	0.549234
H263	H	0.772247	-0.162478	0.000033
H264	H	1.272247	0.337522	0.500033
N265	N	0.755569	-0.062804	0.000020
N266	N	1.255569	0.437196	0.500020
H267	H	0.766618	-0.027926	0.000012
H268	H	1.266618	0.472074	0.500012
H269	H	0.725286	-0.069056	0.049163
H270	H	1.225286	0.430944	0.549163
H271	H	1.087070	-0.481182	0.000098
H272	H	1.587070	0.018818	0.500098
N273	N	1.103745	-0.580851	0.000106
N274	N	1.603745	-0.080851	0.500106
H275	H	1.092694	-0.615728	0.000109
H276	H	1.592694	-0.115728	0.500109
H277	H	1.134031	-0.574584	0.049254
H278	H	1.634031	-0.074584	0.549254
H279	H	0.697144	-0.539798	0.000093
H280	H	1.197144	-0.039798	0.500093
N281	N	0.988025	0.125968	-0.376619
N282	N	1.488025	0.625968	0.123381
H283	H	1.016890	0.144512	-0.337510
H284	H	1.516890	0.644512	0.162490
H285	H	0.954783	0.149629	-0.411267
H286	H	1.454783	0.649629	0.088733
N287	N	0.987998	0.125991	-0.623157
N288	N	1.487998	0.625991	-0.123157
H289	H	1.016863	0.144541	-0.662241
H290	H	1.516863	0.644541	-0.162241
H291	H	1.025241	0.104884	-0.588533
H292	H	1.525241	0.604884	-0.088533
