data_functionalizedCrystal
_audit_creation_method	'MofGen! by Chris Wilmer'
_symmetry_space_group_name_H-M	'P1'
_symmetry_Int_Tables_number	1
_symmetry_cell_setting	triclinic
loop_
_symmetry_equiv_pos_as_xyz
  x,y,z
_cell_length_a	12.970454
_cell_length_b	14.560438
_cell_length_c	14.560438
_cell_angle_alpha	60.000905
_cell_angle_beta	89.999352
_cell_angle_gamma	59.999014
loop_
_atom_site_label
_atom_site_type_symbol
_atom_site_fract_x
_atom_site_fract_y
_atom_site_fract_z
Zr1	Zr	0.993215	1.005281	-0.120534
O2	O	0.828587	1.196884	-0.267175
O3	O	1.043682	0.813680	-0.075584
O4	O	1.043677	1.005284	-0.267184
O5	O	0.828597	1.005277	0.075567
O6	O	1.213343	1.005285	-0.267189
O7	O	0.828592	1.005280	-0.075574
O8	O	1.213352	0.662540	0.075550
O9	O	0.828588	1.348022	-0.267172
O10	O	1.191826	0.892488	-0.056413
O11	O	1.065209	0.892486	0.056385
O12	O	1.065203	1.118075	-0.169200
O13	O	0.938586	1.118072	-0.056402
Zr14	Zr	1.263820	1.005278	0.120510
Zr15	Zr	1.263813	1.005282	-0.120542
Zr16	Zr	0.993222	1.005277	0.120518
Zr17	Zr	0.993215	1.246329	-0.120530
Zr18	Zr	1.263820	0.764231	0.120506
O19	O	1.213353	1.196880	0.075560
O20	O	1.213344	1.196885	-0.267185
O21	O	0.828597	1.196878	0.075570
O22	O	1.428448	0.813676	0.267151
O23	O	1.428438	0.813682	-0.075594
O24	O	1.043691	0.813674	0.267161
O25	O	1.428438	1.005282	-0.075591
O26	O	1.213358	1.005276	0.267160
O27	O	1.043692	1.005275	0.267165
O28	O	1.428443	1.005280	0.075550
O29	O	1.043677	1.348023	-0.267178
O30	O	1.213358	0.662537	0.267154
O31	O	1.428447	0.662538	0.267148
O32	O	1.428442	0.662541	0.075544
O33	O	0.828593	1.348018	-0.075568
O34	O	1.043683	1.348019	-0.075574
O35	O	1.191832	0.892485	0.169176
O36	O	1.318449	0.892487	0.056378
O37	O	1.191826	1.118074	-0.056409
O38	O	1.065209	1.118071	0.056389
C39	C	1.128517	0.703766	-0.000018
C40	C	1.128517	0.601435	-0.000020
C41	C	0.790040	1.005278	-0.000003
C42	C	0.675164	1.005278	0.000000
C43	C	1.194607	0.553360	-0.058899
C44	C	1.194612	0.457201	-0.058889
C45	C	1.062426	0.457203	0.058882
C46	C	1.062429	0.553354	0.058878
C47	C	1.466995	1.005281	-0.000021
C48	C	1.581871	1.005282	-0.000024
C49	C	1.128509	1.005285	-0.301532
C50	C	1.128506	1.005287	-0.403864
C51	C	1.128518	1.306794	-0.000006
C52	C	1.128518	1.409125	-0.000004
C53	C	1.062411	1.123038	-0.510814
C54	C	1.062426	1.123032	-0.606963
C55	C	1.194632	0.887512	-0.489198
C56	C	1.194624	0.887520	-0.393052
C57	C	1.128526	1.005275	0.301507
C58	C	1.128529	1.005273	0.403840
C59	C	1.466994	0.703767	-0.000027
C60	C	1.581870	0.601437	-0.000032
C61	C	1.128526	0.703761	0.301502
C62	C	1.128528	0.601428	0.403833
C63	C	1.467003	0.703762	0.301492
C64	C	1.581882	0.601430	0.403820
C65	C	0.790032	1.306797	-0.301517
C66	C	0.675153	1.409129	-0.403844
C67	C	0.790041	1.306792	0.000003
C68	C	0.675165	1.409123	0.000008
C69	C	1.128510	1.306799	-0.301526
C70	C	1.128507	1.409131	-0.403857
C71	C	1.635821	0.470104	0.083233
C72	C	1.743748	0.373940	0.083232
C73	C	1.797728	0.409112	-0.000030
C74	C	1.743768	0.540458	-0.083304
C75	C	1.635838	0.636619	-0.083307
C76	C	1.635839	0.470098	0.451872
C77	C	1.743792	0.373931	0.548009
C78	C	1.797781	0.409099	0.596097
C79	C	1.743819	0.540444	0.548037
C80	C	1.635873	0.636608	0.451897
C81	C	0.621205	1.540461	-0.451905
C82	C	0.513276	1.636628	-0.548063
C83	C	0.459292	1.601460	-0.596155
C84	C	0.513249	1.470115	-0.548090
C85	C	0.621182	1.373951	-0.451938
C86	C	0.621219	1.373910	0.083285
C87	C	0.513291	1.470047	0.083313
C88	C	0.459307	1.601396	0.000058
C89	C	0.513262	1.636608	-0.083224
C90	C	0.621193	1.540472	-0.083246
C91	C	1.194624	0.553349	0.510784
C92	C	1.194613	0.457206	0.606931
C93	C	1.062406	0.457225	0.489162
C94	C	1.062412	0.553373	0.393017
H95	H	1.248421	0.592503	-0.106855
F96	F	1.801160	0.234160	0.171870
F97	F	1.801289	0.577853	0.599232
H98	H	1.591923	0.743555	-0.151110
F99	F	0.678653	1.234124	0.171903
F100	F	1.264987	0.762184	-0.477703
H101	H	1.248430	0.418059	-0.106832
F102	F	0.455867	1.776407	-0.599198
F103	F	1.264989	0.604492	0.522298
F104	F	1.912600	0.306753	-0.000013
H105	H	1.787735	0.569078	-0.151094
H106	H	1.591895	0.441439	0.412732
H107	H	1.787708	0.266992	0.587131
H108	H	1.008610	0.592496	0.106830
H109	H	1.885676	0.330783	0.674382
F110	F	0.992102	0.406019	0.121567
H111	H	1.591945	0.743543	0.412784
F112	F	1.264972	0.762185	-0.279218
H113	H	0.469373	1.441352	0.151131
H114	H	0.665142	1.569121	-0.412759
F115	F	0.992052	1.248376	-0.522326
F116	F	0.455791	1.776407	-0.171826
F117	F	1.578389	0.432642	0.171858
H118	H	0.665104	1.569161	-0.151066
F119	F	0.344418	1.703822	-0.698489
F120	F	0.992081	1.248360	-0.720787
H121	H	0.469278	1.441498	-0.587260
F122	F	0.344435	1.703700	0.000095
F123	F	0.678579	1.234177	-0.400793
H124	H	1.248433	0.418066	0.694012
F125	F	0.992048	0.406070	0.477663
H126	H	1.008582	0.592522	0.305927
