data_functionalizedCrystal
_audit_creation_method	'MofGen! by Chris Wilmer'
_symmetry_space_group_name_H-M	'P1'
_symmetry_Int_Tables_number	1
_symmetry_cell_setting	triclinic
loop_
_symmetry_equiv_pos_as_xyz
  x,y,z
_cell_length_a	11.792241
_cell_length_b	8.965430
_cell_length_c	11.792254
_cell_angle_alpha	89.999752
_cell_angle_beta	84.196007
_cell_angle_gamma	89.999632
loop_
_atom_site_label
_atom_site_type_symbol
_atom_site_fract_x
_atom_site_fract_y
_atom_site_fract_z
O1	O	1.506916	0.123895	0.155558
O2	O	2.006916	0.623895	0.655558
O3	O	1.176575	0.123930	0.171591
O4	O	1.676575	0.623930	0.671591
O5	O	1.349754	0.123901	-0.001595
O6	O	1.849754	0.623901	0.498405
O7	O	1.333736	0.123924	0.328744
O8	O	1.833736	0.623924	0.828744
O9	O	1.349740	-0.124178	-0.001583
O10	O	1.849740	0.375822	0.498417
O11	O	1.176561	-0.124149	0.171603
O12	O	1.676561	0.375851	0.671603
O13	O	1.506901	-0.124184	0.155570
O14	O	2.006901	0.375816	0.655570
Cu15	Cu	1.341729	-0.146818	0.163587
Cu16	Cu	1.841729	0.353182	0.663587
Cu17	Cu	1.341747	0.146564	0.163574
Cu18	Cu	1.841747	0.646564	0.663574
O19	O	1.333722	-0.124155	0.328756
O20	O	1.833722	0.375845	0.828756
C21	C	1.134277	-0.000105	0.170590
C22	C	1.634277	0.499895	0.670590
C23	C	1.008263	-0.000092	0.167576
C24	C	1.508263	0.499908	0.667576
N25	N	1.341726	-0.353167	0.163596
N26	N	1.841726	0.146833	0.663596
C27	C	0.777551	-0.000135	0.162033
C28	C	1.277551	0.499865	0.662033
C29	C	0.905936	-0.000111	0.165112
C30	C	1.405936	0.499889	0.665112
C31	C	1.261611	-0.450459	0.243663
C32	C	1.761611	0.049541	0.743663
C33	C	1.364313	-0.549882	0.266318
C34	C	1.864313	-0.049882	0.766318
C35	C	1.239067	-0.549871	0.140951
C36	C	1.739067	-0.049871	0.640951
C37	C	1.444479	-0.450401	0.186303
C38	C	1.944479	0.049599	0.686303
C39	C	1.319166	-0.450381	0.060891
C40	C	1.819166	0.049619	0.560891
C41	C	1.421941	-0.549759	0.083503
C42	C	1.921941	-0.049759	0.583503
C43	C	1.549199	-0.000145	0.156571
C44	C	2.049199	0.499855	0.656571
C45	C	1.675213	-0.000149	0.159586
C46	C	2.175213	0.499851	0.659586
C47	C	1.348738	-0.000138	-0.043880
C48	C	1.848738	0.499862	0.456120
C49	C	1.345718	-0.000136	-0.169893
C50	C	1.845718	0.499864	0.330107
N51	N	1.341760	0.352913	0.163556
N52	N	1.841760	0.852913	0.663556
C53	C	1.343264	-0.000130	-0.272229
C54	C	1.843264	0.499870	0.227771
C55	C	1.340196	-0.000116	-0.400616
C56	C	1.840196	0.499884	0.099384
C57	C	1.334738	-0.000113	0.371041
C58	C	1.834738	0.499887	0.871041
C59	C	1.337758	-0.000105	0.497054
C60	C	1.837758	0.499895	0.997054
H61	H	1.193924	-0.406860	0.311434
H62	H	1.693924	0.093140	0.811434
H63	H	1.489781	-0.593086	0.015773
H64	H	1.989781	-0.093086	0.515773
H65	H	1.383418	-0.593587	0.353155
H66	H	1.883418	-0.093587	0.853155
C67	C	1.548842	-0.304867	0.311504
C68	C	2.048842	0.195133	0.811504
C69	C	1.561718	-0.391731	0.212355
C70	C	2.061718	0.108269	0.712355
H71	H	1.621217	-0.268669	0.327612
H72	H	2.121217	0.231331	0.827612
H73	H	1.499899	-0.223066	0.300676
H74	H	1.999899	0.276934	0.800676
H75	H	1.516695	-0.363968	0.373470
H76	H	2.016695	0.136032	0.873470
H77	H	1.593858	-0.332627	0.150386
H78	H	2.093858	0.167373	0.650386
H79	H	1.610679	-0.473545	0.223176
H80	H	2.110679	0.026455	0.723176
H81	H	1.300029	-0.406642	-0.025919
H82	H	1.800029	0.093358	0.474081
H83	H	1.152236	-0.593569	0.121816
H84	H	1.652236	-0.093569	0.621816
