data_functionalizedCrystal
_audit_creation_method	'MofGen! by Chris Wilmer'
_symmetry_space_group_name_H-M	'P1'
_symmetry_Int_Tables_number	1
_symmetry_cell_setting	triclinic
loop_
_symmetry_equiv_pos_as_xyz
  x,y,z
_cell_length_a	14.853567
_cell_length_b	12.996460
_cell_length_c	14.853576
_cell_angle_alpha	90.004330
_cell_angle_beta	83.636685
_cell_angle_gamma	90.002610
loop_
_atom_site_label
_atom_site_type_symbol
_atom_site_fract_x
_atom_site_fract_y
_atom_site_fract_z
O1	O	1.196370	0.085492	0.117705
O2	O	0.933911	0.085509	0.131727
O3	O	1.072147	0.085498	-0.006513
O4	O	1.058133	0.085503	0.255945
O5	O	1.072132	-0.085636	-0.006521
O6	O	0.933896	-0.085625	0.131719
O7	O	1.196355	-0.085642	0.117698
Cu8	Cu	1.065124	-0.101259	0.124708
Cu9	Cu	1.065141	0.101126	0.124717
O10	O	1.058119	-0.085631	0.255938
C11	C	0.900315	-0.000056	0.131088
C12	C	0.800231	-0.000049	0.129184
N13	N	1.065119	-0.243607	0.124701
C14	C	0.387694	-0.000074	0.039018
C15	C	0.366418	-0.000070	0.203251
C16	C	0.460452	-0.000067	0.205041
C17	C	0.518111	-0.000065	0.123818
C18	C	0.481737	-0.000068	0.040806
C19	C	0.496834	-0.000054	0.288052
C20	C	0.590873	-0.000049	0.289845
C21	C	0.648534	-0.000056	0.208622
C22	C	0.612154	-0.000059	0.125606
C23	C	0.669814	-0.000058	0.044384
C24	C	0.633436	-0.000069	-0.038633
C25	C	0.539398	-0.000074	-0.040417
C26	C	0.742572	-0.000050	0.210406
C27	C	0.763856	-0.000051	0.046171
C28	C	1.065140	-0.663421	0.124718
C29	C	1.065132	-0.546616	0.124716
C30	C	1.065130	-0.453517	0.124710
C31	C	1.065121	-0.336705	0.124707
C32	C	1.229951	-0.000075	0.118337
C33	C	1.330035	-0.000075	0.120241
C34	C	1.071503	-0.000067	-0.040106
C35	C	1.069596	-0.000062	-0.140189
N36	N	1.065154	0.243473	0.124717
C37	C	1.058763	-0.000064	0.289530
C38	C	1.060669	-0.000062	0.389613
C39	C	1.061575	0.093227	0.436637
C40	C	1.061548	-0.093350	0.436633
C41	C	1.063335	-0.093352	0.530667
C42	C	1.064241	-0.000063	0.577691
C43	C	1.063359	0.093228	0.530680
C44	C	1.064208	-0.186641	0.577686
C45	C	1.065994	-0.186646	0.671726
C46	C	1.066906	-0.093356	0.718750
C47	C	1.066025	-0.000062	0.671734
C48	C	1.066930	0.093227	0.718757
C49	C	1.066056	0.186523	0.671742
C50	C	1.064271	0.186518	0.577705
C51	C	1.068691	-0.093351	0.812788
C52	C	1.068715	0.093228	0.812801
H53	H	0.680394	-0.000061	-0.104764
H54	H	0.509770	-0.000107	-0.108005
N55	N	0.307512	-0.000049	0.286204
N56	N	0.223553	-0.000041	0.284595
H57	H	0.181945	-0.000023	0.343184
H58	H	0.810798	-0.000055	-0.019971
N59	N	0.350526	-0.000094	-0.045769
N60	N	0.266564	-0.000108	-0.047360
H61	H	0.240312	-0.000123	-0.107242
H62	H	0.772186	-0.000043	0.277997
H63	H	1.069456	0.169197	0.851080
N64	N	0.437926	-0.000023	0.371004
N65	N	0.353967	-0.000019	0.369392
H66	H	0.312357	0.000010	0.427980
N67	N	0.628013	-0.000035	0.374647
N68	N	0.576521	-0.000032	0.447159
H69	H	0.602751	-0.000023	0.507053
H70	H	1.060805	-0.169301	0.398341
H71	H	1.066787	0.262479	0.710042
N72	N	1.066876	-0.281940	0.719747
N73	N	1.003168	-0.344394	0.717471
H74	H	1.003792	-0.411696	0.751387
N75	N	1.063373	0.281800	0.529666
N76	N	1.061772	0.281782	0.445706
H77	H	1.061134	0.349074	0.411775
H78	H	1.060867	0.169186	0.398352
H79	H	1.063466	-0.262591	0.539393
H80	H	1.069382	-0.169311	0.851066
