data_functionalizedCrystal
_audit_creation_method	'MofGen! by Chris Wilmer'
_symmetry_space_group_name_H-M	'P1'
_symmetry_Int_Tables_number	1
_symmetry_cell_setting	triclinic
loop_
_symmetry_equiv_pos_as_xyz
  x,y,z
_cell_length_a	16.109301
_cell_length_b	17.666332
_cell_length_c	16.109301
_cell_angle_alpha	89.993365
_cell_angle_beta	96.538468
_cell_angle_gamma	90.006891
loop_
_atom_site_label
_atom_site_type_symbol
_atom_site_fract_x
_atom_site_fract_y
_atom_site_fract_z
O1	O	1.103137	0.062909	-0.106868
O2	O	1.603137	0.562909	0.393132
O3	O	0.861076	0.062920	-0.120167
O4	O	1.361076	0.562920	0.379833
O5	O	0.988756	0.062907	0.007513
O6	O	1.488756	0.562907	0.507513
O7	O	0.975457	0.062923	-0.234549
O8	O	1.475457	0.562923	0.265451
O9	O	0.988734	-0.062990	0.007517
O10	O	1.488734	0.437010	0.507517
O11	O	0.861053	-0.062977	-0.120163
O12	O	1.361053	0.437023	0.379837
O13	O	1.103115	-0.062988	-0.106864
O14	O	1.603115	0.437012	0.393136
Cu15	Cu	0.982082	-0.074477	-0.113513
Cu16	Cu	1.482082	0.425523	0.386487
Cu17	Cu	0.982109	0.074410	-0.113518
Cu18	Cu	1.482109	0.574410	0.386482
O19	O	0.975434	-0.062974	-0.234545
O20	O	1.475434	0.437026	0.265455
C21	C	0.830089	-0.000027	-0.119627
C22	C	1.330089	0.499973	0.380373
C23	C	0.737794	-0.000023	-0.118011
C24	C	1.237794	0.499977	0.381989
C25	C	0.428796	-0.000032	-0.188494
C26	C	0.928796	0.499968	0.311506
C27	C	0.515516	-0.000027	-0.190020
C28	C	1.015516	0.499973	0.309980
C29	C	0.535389	-0.000027	-0.038531
C30	C	1.035389	0.499973	0.461469
C31	C	0.448671	-0.000026	-0.037007
C32	C	0.948671	0.499974	0.462993
C33	C	0.395376	-0.000032	-0.111991
C34	C	0.895376	0.499968	0.388009
C35	C	0.568815	-0.000029	-0.115041
C36	C	1.068815	0.499971	0.384959
C37	C	0.662841	-0.000024	-0.116694
C38	C	1.162841	0.499976	0.383306
C39	C	0.301344	-0.000036	-0.110338
C40	C	0.801344	0.499964	0.389662
N41	N	0.982069	-0.179197	-0.113510
N42	N	1.482069	0.320803	0.386490
C43	C	1.032471	-0.218799	-0.163955
C44	C	1.532471	0.281201	0.336045
C45	C	1.032485	-0.298047	-0.163953
C46	C	1.532485	0.201953	0.336047
C47	C	0.982080	-0.337689	-0.113515
C48	C	1.482080	0.162311	0.386485
C49	C	0.931675	-0.298077	-0.063059
C50	C	1.431675	0.201923	0.436941
C51	C	0.931670	-0.218831	-0.063057
C52	C	1.431670	0.281169	0.436943
N53	N	0.909260	-0.462126	-0.111264
N54	N	1.409260	0.037874	0.388736
N55	N	0.909267	-0.537406	-0.111271
N56	N	1.409267	-0.037406	0.388729
C57	C	0.982096	-0.576453	-0.113518
C58	C	1.482096	-0.076453	0.386482
N59	N	1.054917	-0.537376	-0.115773
N60	N	1.554917	-0.037376	0.384227
N61	N	1.054908	-0.462088	-0.115771
N62	N	1.554908	0.037912	0.384229
C63	C	0.982081	-0.423618	-0.113511
C64	C	1.482081	0.076382	0.386489
C65	C	1.032516	-0.701985	-0.163963
C66	C	1.532516	-0.201985	0.336037
C67	C	1.032531	-0.781234	-0.163955
C68	C	1.532531	-0.281234	0.336045
C69	C	0.931714	-0.781263	-0.063066
C70	C	1.431714	-0.281263	0.436934
C71	C	0.931707	-0.702015	-0.063069
C72	C	1.431707	-0.202015	0.436931
C73	C	0.982107	-0.662381	-0.113522
C74	C	1.482107	-0.162381	0.386478
C75	C	1.134101	-0.000039	-0.107405
C76	C	1.634101	0.499961	0.392595
C77	C	1.226396	-0.000038	-0.109020
C78	C	1.726396	0.499962	0.390980
C79	C	0.988206	-0.000042	0.038490
C80	C	1.488206	0.499958	0.538490
C81	C	0.986591	-0.000043	0.130785
C82	C	1.486591	0.499957	0.630785
N83	N	0.982128	0.179129	-0.113515
N84	N	1.482128	0.679129	0.386485
C85	C	0.975984	-0.000024	-0.265522
C86	C	1.475984	0.499976	0.234478
C87	C	0.977599	-0.000018	-0.357817
C88	C	1.477599	0.499982	0.142183
C89	C	1.058599	-0.000034	0.353058
C90	C	1.558599	0.499966	0.853058
C91	C	1.057075	-0.000028	0.439778
C92	C	1.557075	0.499972	0.939778
C93	C	0.905586	-0.000024	0.419904
C94	C	1.405586	0.499976	0.919904
C95	C	0.907111	-0.000025	0.333185
C96	C	1.407111	0.499975	0.833185
C97	C	0.983620	-0.000034	0.299765
C98	C	1.483620	0.499966	0.799765
C99	C	0.980571	-0.000027	0.473204
C100	C	1.480571	0.499973	0.973204
C101	C	0.978918	-0.000020	0.567230
C102	C	1.478918	0.499980	1.067230
C103	C	0.985273	-0.000039	0.205733
C104	C	1.485273	0.499961	0.705733
H105	H	0.385405	-0.000036	-0.249551
H106	H	0.885405	0.499964	0.250449
O107	O	0.551566	-0.000039	-0.272534
O108	O	1.051566	0.499961	0.227466
H109	H	0.499935	-0.000051	-0.324415
H110	H	0.999935	0.499949	0.175585
O111	O	0.877326	-0.176116	-0.008621
O112	O	1.377326	0.323884	0.491379
H113	H	0.885802	-0.114352	-0.017082
H114	H	1.385802	0.385648	0.482918
H115	H	0.578792	-0.000024	0.022518
H116	H	1.078792	0.499976	0.522518
O117	O	0.823068	-0.000020	0.455950
O118	O	1.323068	0.499980	0.955950
H119	H	0.787033	-0.051331	0.434538
H120	H	1.287033	0.448669	0.934538
H121	H	0.421461	-0.000024	0.025296
H122	H	0.921461	0.499976	0.525296
O123	O	1.086853	-0.340765	-0.218368
O124	O	1.586853	0.159235	0.281632
H125	H	1.131557	-0.376862	-0.178525
H126	H	1.631557	0.123138	0.321475
H127	H	1.073555	-0.669713	-0.205044
H128	H	1.573555	-0.169713	0.294956
O129	O	1.086830	-0.176049	-0.218367
O130	O	1.586830	0.323951	0.281633
H131	H	1.121884	-0.216906	-0.253441
H132	H	1.621884	0.283094	0.246559
O133	O	0.877305	-0.340827	-0.008660
O134	O	1.377305	0.159173	0.491340
H135	H	0.885768	-0.402586	-0.017144
H136	H	1.385768	0.097414	0.482856
H137	H	0.846050	-0.000023	0.289791
H138	H	1.346050	0.499977	0.789791
H139	H	1.118130	-0.000027	0.483167
H140	H	1.618130	0.499973	0.983167
O141	O	1.086896	-0.823954	-0.218366
O142	O	1.586896	-0.323954	0.281634
H143	H	1.121932	-0.783077	-0.253452
H144	H	1.621932	-0.283077	0.246548
H145	H	0.890675	-0.813539	-0.021997
H146	H	1.390675	-0.313539	0.478003
H147	H	1.120897	-0.000040	0.325850
H148	H	1.620897	0.499960	0.825850
O149	O	0.877333	-0.659293	-0.008672
O150	O	1.377333	-0.159293	0.491328
H151	H	0.842279	-0.700170	0.026397
H152	H	1.342279	-0.200170	0.526397
