data_functionalizedCrystal
_audit_creation_method	'MofGen! by Chris Wilmer'
_symmetry_space_group_name_H-M	'P1'
_symmetry_Int_Tables_number	1
_symmetry_cell_setting	triclinic
loop_
_symmetry_equiv_pos_as_xyz
  x,y,z
_cell_length_a	10.540539
_cell_length_b	9.730223
_cell_length_c	10.654551
_cell_angle_alpha	89.997362
_cell_angle_beta	84.505460
_cell_angle_gamma	89.998771
loop_
_atom_site_label
_atom_site_type_symbol
_atom_site_fract_x
_atom_site_fract_y
_atom_site_fract_z
O1	O	1.685822	-0.114219	0.176992
O2	O	1.316403	-0.114236	0.193668
O3	O	1.509606	-0.114224	0.002594
O4	O	1.492620	-0.114231	0.368066
O5	O	1.509593	0.114356	0.002588
O6	O	1.316391	0.114344	0.193662
O7	O	1.685810	0.114361	0.176986
Zn8	Zn	1.501098	0.150644	0.185324
Zn9	Zn	1.501115	-0.150519	0.185330
O10	O	1.492607	0.114349	0.368061
C11	C	1.269095	0.000052	0.192414
C12	C	1.128148	0.000046	0.188673
N13	N	1.501096	0.356181	0.185318
N14	N	1.501127	-0.356056	0.185326
C15	C	0.944772	0.000582	0.045302
C16	C	1.091389	0.000053	0.049094
C17	C	1.066458	-0.130481	0.255847
C18	C	0.919916	-0.130576	0.251083
C19	C	0.919412	0.129362	0.253917
C20	C	1.066393	0.131073	0.255202
C21	C	1.733119	0.000070	0.178240
C22	C	1.874065	0.000067	0.181981
C23	C	1.508352	0.000064	-0.044208
C24	C	1.504620	0.000057	-0.183652
C25	C	1.586676	0.428112	0.100746
C26	C	1.586688	0.571995	0.100747
C27	C	1.415538	0.572003	0.269902
C28	C	1.415520	0.428123	0.269894
C29	C	1.502875	-0.124543	-0.249154
C30	C	1.499357	-0.124545	-0.380175
C31	C	1.499335	0.124666	-0.380183
C32	C	1.502843	0.124666	-0.249162
C33	C	1.493861	0.000058	0.414862
C34	C	1.497594	0.000056	0.554306
H35	H	1.134016	0.093620	-0.003760
H36	H	1.345825	0.369552	0.338763
Cl37	Cl	1.505100	-0.281194	-0.166801
H38	H	0.871911	-0.136502	0.351466
H39	H	1.107368	0.227636	0.206129
H40	H	1.656355	0.369540	0.031878
Cl41	Cl	0.876391	-0.281211	0.174436
H42	H	1.088775	-0.135339	0.358350
H43	H	1.345866	0.630592	0.338763
Cl44	Cl	1.103727	0.143237	0.412322
H45	H	1.504257	0.226136	-0.195829
Cl46	Cl	1.497161	-0.281193	-0.462514
H47	H	1.497891	0.226118	-0.433538
H48	H	0.916201	0.094190	-0.009842
H49	H	0.914589	-0.092503	-0.009604
Cl50	Cl	0.870733	0.282117	0.184167
Cl51	Cl	1.132238	-0.280461	0.183811
Cl52	Cl	0.846444	0.130723	0.409568
Cl53	Cl	1.155842	-0.144902	-0.032719
H54	H	1.656373	0.630557	0.031880
