data_functionalizedCrystal
_audit_creation_method	'MofGen! by Chris Wilmer'
_symmetry_space_group_name_H-M	'P1'
_symmetry_Int_Tables_number	1
_symmetry_cell_setting	triclinic
loop_
_symmetry_equiv_pos_as_xyz
  x,y,z
_cell_length_a	17.699083
_cell_length_b	10.654550
_cell_length_c	16.176319
_cell_angle_alpha	89.994395
_cell_angle_beta	89.998611
_cell_angle_gamma	83.883959
loop_
_atom_site_label
_atom_site_type_symbol
_atom_site_fract_x
_atom_site_fract_y
_atom_site_fract_z
O1	O	1.005088	0.158809	-0.068628
O2	O	1.505088	0.658809	0.431372
O3	O	0.784841	0.179470	-0.068655
O4	O	1.284841	0.679470	0.431345
O5	O	0.900029	-0.013688	-0.068638
O6	O	1.400029	0.486312	0.431362
O7	O	0.889901	0.351967	-0.068646
O8	O	1.389901	0.851967	0.431354
O9	O	0.900013	-0.013701	0.068855
O10	O	1.400013	0.486299	0.568855
O11	O	0.784825	0.179458	0.068838
O12	O	1.284825	0.679458	0.568838
O13	O	1.005072	0.158797	0.068865
O14	O	1.505072	0.658797	0.568865
Cu15	Cu	0.894947	0.169126	0.081406
Cu16	Cu	1.394947	0.669126	0.581406
Cu17	Cu	0.894966	0.169141	-0.081196
Cu18	Cu	1.394966	0.669141	0.418804
O19	O	0.889885	0.351955	0.068848
O20	O	1.389885	0.851955	0.568848
C21	C	0.756632	0.178724	0.000088
C22	C	1.256632	0.678724	0.500088
C23	C	0.672599	0.176503	0.000078
C24	C	1.172599	0.676503	0.500078
C25	C	0.624699	0.289883	0.000076
C26	C	1.124699	0.789883	0.500076
C27	C	0.545743	0.287788	0.000086
C28	C	1.045743	0.787788	0.500086
C29	C	0.514688	0.172313	0.000093
C30	C	1.014688	0.672313	0.500093
C31	C	0.562594	0.058924	0.000098
C32	C	1.062594	0.558924	0.500098
C33	C	0.641549	0.061020	0.000093
C34	C	1.141549	0.561020	0.500093
C35	C	0.244177	0.050470	0.000118
C36	C	0.744177	0.550470	0.500118
C37	C	0.165216	0.048383	0.000121
C38	C	0.665216	0.548383	0.500121
C39	C	0.148371	0.277239	0.000112
C40	C	0.648371	0.777239	0.500112
C41	C	0.227326	0.279334	0.000107
C42	C	0.727326	0.779334	0.500107
C43	C	0.275225	0.165946	0.000116
C44	C	0.775225	0.665946	0.500116
C45	C	0.360839	0.168219	0.000106
C46	C	0.860839	0.668219	0.500106
C47	C	0.429076	0.170039	0.000097
C48	C	0.929076	0.670039	0.500097
C49	C	0.899277	-0.060479	0.000107
C50	C	1.399277	0.439521	0.500107
C51	C	0.897052	-0.199884	0.000104
C52	C	1.397052	0.300116	0.500104
C53	C	0.964873	-0.280557	0.000115
C54	C	1.464873	0.219443	0.500115
C55	C	0.962778	-0.411541	0.000109
C56	C	1.462778	0.088459	0.500109
C57	C	0.825036	-0.381166	0.000085
C58	C	1.325036	0.118834	0.500085
C59	C	0.827132	-0.250185	0.000085
C60	C	1.327132	0.249815	0.500085
C61	C	1.034794	-0.230256	0.000134
C62	C	1.534794	0.269744	0.500134
C63	C	1.102620	-0.310930	0.000146
C64	C	1.602620	0.189070	0.500146
C65	C	1.100525	-0.441914	0.000140
C66	C	1.600525	0.058086	0.500140
C67	C	1.030603	-0.492224	0.000122
C68	C	1.530603	0.007776	0.500122
C69	C	1.033282	0.159543	0.000120
C70	C	1.533282	0.659543	0.500120
C71	C	1.117314	0.161764	0.000125
C72	C	1.617314	0.661764	0.500125
C73	C	0.890637	0.398746	0.000100
C74	C	1.390637	0.898746	0.500100
C75	C	0.892861	0.538151	0.000098
C76	C	1.392861	1.038151	0.500098
N77	N	0.894940	0.169115	0.195771
N78	N	1.394940	0.669115	0.695771
N79	N	0.894980	0.169142	-0.195561
N80	N	1.394980	0.669142	0.304439
C81	C	0.945960	0.083619	0.239042
C82	C	1.445960	0.583619	0.739042
C83	C	0.945964	0.083618	0.325590
C84	C	1.445964	0.583618	0.825590
C85	C	0.894950	0.169120	0.368863
C86	C	1.394950	0.669120	0.868863
C87	C	0.843924	0.254619	0.325586
C88	C	1.343924	0.754619	0.825586
C89	C	0.843917	0.254614	0.239040
C90	C	1.343917	0.754614	0.739040
C91	C	0.843950	0.254643	0.674614
C92	C	1.343950	0.754643	1.174614
C93	C	0.843962	0.254644	0.761165
C94	C	1.343962	0.754644	1.261165
C95	C	0.945997	0.083647	0.761163
C96	C	1.445997	0.583647	1.261163
C97	C	0.945990	0.083642	0.674618
C98	C	1.445990	0.583642	1.174618
C99	C	0.894962	0.169136	0.631348
C100	C	1.394962	0.669136	1.131348
C101	C	0.894957	0.169135	0.537503
C102	C	1.394957	0.669135	1.037503
C103	C	0.894958	0.169128	0.462706
C104	C	1.394958	0.669128	0.962706
H105	H	0.109361	0.369564	0.000109
H106	H	0.609361	0.869564	0.500109
H107	H	0.987505	0.014000	0.203815
H108	H	1.487505	0.514000	0.703815
H109	H	0.139935	-0.045657	0.000127
H110	H	0.639935	0.454343	0.500127
O111	O	0.290591	-0.059787	0.000087
O112	O	0.790591	0.440213	0.500087
C113	C	0.246247	-0.162152	0.000112
C114	C	0.746247	0.337848	0.500112
H115	H	0.187497	-0.130091	-0.025920
H116	H	0.687497	0.369909	0.474080
H117	H	0.274950	-0.241581	-0.039801
H118	H	0.774950	0.258419	0.460199
H119	H	0.240437	-0.197560	0.066077
H120	H	0.740437	0.302440	0.566077
H121	H	1.028903	-0.598881	0.000108
H122	H	1.528903	-0.098881	0.500108
O123	O	0.532305	-0.053141	0.000069
O124	O	1.032305	0.446859	0.500069
C125	C	0.452345	-0.030681	0.000091
C126	C	0.952345	0.469319	0.500091
H127	H	0.434320	0.067377	-0.025942
H128	H	0.934320	0.567377	0.474058
H129	H	0.427719	-0.104556	-0.039823
H130	H	0.927719	0.395444	0.460177
H131	H	0.430339	-0.036704	0.066055
H132	H	0.930339	0.463296	0.566055
H133	H	0.802402	0.324258	0.639390
H134	H	1.302402	0.824258	1.139390
H135	H	0.649978	0.383916	0.000069
H136	H	1.149978	0.883916	0.500069
H137	H	0.768109	-0.422140	0.000072
H138	H	1.268109	0.077860	0.500072
O139	O	1.036730	-0.102997	0.000035
O140	O	1.536730	0.397003	0.500035
C141	C	0.999683	-0.050887	-0.071188
C142	C	1.499683	0.449113	0.428812
H143	H	0.958270	-0.117498	-0.094949
H144	H	1.458270	0.382502	0.405051
H145	H	0.967220	0.044197	-0.055170
H146	H	1.467220	0.544197	0.444830
H147	H	1.043600	-0.037220	-0.121038
H148	H	1.543600	0.462780	0.378962
O149	O	1.166355	-0.520410	0.000255
O150	O	1.666355	-0.020410	0.500255
C151	C	1.169262	-0.597078	0.071472
C152	C	1.669262	-0.097078	0.571472
H153	H	1.109149	-0.603520	0.095202
H154	H	1.609149	-0.103520	0.595202
H155	H	1.196939	-0.695608	0.055458
H156	H	1.696939	-0.195608	0.555458
H157	H	1.204048	-0.554103	0.121343
H158	H	1.704048	-0.054103	0.621343
H159	H	0.802384	0.324232	0.360824
H160	H	1.302384	0.824232	0.860824
H161	H	1.159547	-0.269958	0.000140
H162	H	1.659547	0.230042	0.500140
O163	O	0.688190	-0.049002	0.000128
O164	O	1.188190	0.450998	0.500128
C165	C	0.764537	-0.022392	0.000104
C166	C	1.264537	0.477608	0.500104
H167	H	0.768080	0.076236	0.026130
H168	H	1.268080	0.576236	0.526130
H169	H	0.799926	-0.094678	0.040023
H170	H	1.299926	0.405322	0.540023
H171	H	0.787341	-0.027218	-0.065860
H172	H	1.287341	0.472782	0.434140
O173	O	0.257617	0.391397	0.000054
O174	O	0.757617	0.891397	0.500054
C175	C	0.337576	0.368933	0.000065
C176	C	0.837576	0.868933	0.500065
H177	H	0.355597	0.270872	-0.025955
H178	H	0.855597	0.770872	0.474045
H179	H	0.362200	0.442804	-0.039867
H180	H	0.862200	0.942804	0.460133
H181	H	0.359589	0.374960	0.066023
H182	H	0.859589	0.874960	0.566023
H183	H	0.987533	0.014023	0.639387
H184	H	1.487533	0.514023	1.139387
H185	H	0.771906	-0.184498	0.000077
H186	H	1.271906	0.315502	0.500077
O187	O	0.995527	0.000410	0.803108
O188	O	1.495527	0.500410	1.303108
C189	C	0.982561	-0.123879	0.781984
C190	C	1.482561	0.376121	1.281984
H191	H	0.953387	-0.123662	0.719149
H192	H	1.453387	0.376338	1.219149
H193	H	1.039125	-0.185845	0.779023
H194	H	1.539125	0.314155	1.279023
H195	H	0.944688	-0.162636	0.830698
H196	H	1.444688	0.337364	1.330698
H197	H	0.802370	0.324231	0.203809
H198	H	1.302370	0.824231	0.703809
O199	O	0.995502	0.000404	0.367528
O200	O	1.495502	0.500404	0.867528
C201	C	0.982551	-0.123893	0.346406
C202	C	1.482551	0.376107	0.846406
H203	H	0.953368	-0.123685	0.283576
H204	H	1.453368	0.376315	0.783576
H205	H	1.039122	-0.185839	0.343436
H206	H	1.539122	0.314161	0.843436
H207	H	0.944691	-0.162666	0.395127
H208	H	1.444691	0.337334	0.895127
O209	O	0.499321	0.398042	0.000047
O210	O	0.999321	0.898042	0.500047
C211	C	0.543662	0.500412	0.000055
C212	C	1.043662	1.000412	0.500055
H213	H	0.602411	0.468357	-0.025980
H214	H	1.102411	0.968357	0.474020
H215	H	0.514954	0.579840	-0.039864
H216	H	1.014954	1.079840	0.460136
H217	H	0.549474	0.535817	0.066015
H218	H	1.049474	1.035817	0.566015
O219	O	0.794327	0.337745	0.803075
O220	O	1.294327	0.837745	1.303075
C221	C	0.749296	0.413223	0.746326
C222	C	1.249296	0.913223	1.246326
H223	H	0.748168	0.361737	0.684637
H224	H	1.248168	0.861737	1.184637
H225	H	0.688960	0.432493	0.771343
H226	H	1.188960	0.932493	1.271343
H227	H	0.774347	0.506470	0.737110
H228	H	1.274347	1.006470	1.237110
