data_functionalizedCrystal
_audit_creation_method	'MofGen! by Chris Wilmer'
_symmetry_space_group_name_H-M	'P1'
_symmetry_Int_Tables_number	1
_symmetry_cell_setting	triclinic
loop_
_symmetry_equiv_pos_as_xyz
  x,y,z
_cell_length_a	12.594517
_cell_length_b	21.295417
_cell_length_c	12.594509
_cell_angle_alpha	90.036245
_cell_angle_beta	90.011478
_cell_angle_gamma	90.026394
loop_
_atom_site_label
_atom_site_type_symbol
_atom_site_fract_x
_atom_site_fract_y
_atom_site_fract_z
Zn1	Zn	1.627160	-0.250659	0.601521
Zn2	Zn	2.127160	0.249341	1.101521
Zn3	Zn	1.627006	-0.355938	0.423518
Zn4	Zn	2.127006	0.144062	0.923518
Zn5	Zn	1.449164	-0.250679	0.423580
Zn6	Zn	1.949164	0.249321	0.923580
Zn7	Zn	1.449101	-0.355887	0.601478
Zn8	Zn	1.949101	0.144113	1.101478
O9	O	1.538108	-0.303291	0.512524
O10	O	2.038108	0.196709	1.012524
O11	O	1.776085	-0.264638	0.577900
O12	O	2.276085	0.235362	1.077900
O13	O	1.603377	-0.342005	0.274580
O14	O	2.103377	0.157995	0.774580
O15	O	1.472866	-0.162587	0.447229
O16	O	1.972866	0.337413	0.947229
O17	O	1.775972	-0.341986	0.447122
O18	O	2.275972	0.158014	0.947122
O19	O	1.603639	-0.162573	0.577961
O20	O	2.103639	0.337427	1.077961
O21	O	1.472717	-0.264672	0.274626
O22	O	1.972717	0.235328	0.774626
O23	O	1.300210	-0.264622	0.447187
O24	O	1.800210	0.235378	0.947187
O25	O	1.472759	-0.341899	0.750430
O26	O	1.972759	0.158101	1.250430
O27	O	1.300164	-0.341918	0.577888
O28	O	1.800164	0.158082	1.077888
O29	O	1.603578	-0.264589	0.750461
O30	O	2.103578	0.235411	1.250461
O31	O	1.603316	-0.444021	0.447080
O32	O	2.103316	0.055979	0.947080
O33	O	1.472610	-0.443983	0.577827
O34	O	1.972610	0.056017	1.077827
C35	C	1.261567	-0.303267	0.512540
C36	C	1.761567	0.196733	1.012540
C37	C	1.143261	-0.303272	0.512573
C38	C	1.643261	0.196728	1.012573
C39	C	1.074014	-0.345396	0.583523
C40	C	1.574014	0.154604	1.083523
C41	C	1.003230	-0.288001	0.609715
C42	C	1.503230	0.211999	1.109715
C43	C	1.003246	-0.360714	0.486357
C44	C	1.503246	0.139286	0.986357
C45	C	1.074036	-0.245847	0.538815
C46	C	1.574036	0.254153	1.038815
C47	C	1.074058	-0.318599	0.415412
C48	C	1.574058	0.181401	0.915412
C49	C	1.003306	-0.261165	0.441567
C50	C	1.503306	0.238835	0.941567
C51	C	1.537968	-0.466843	0.512465
C52	C	2.037968	0.033157	1.012465
C53	C	1.538006	-0.536811	0.512476
C54	C	2.038006	-0.036811	1.012476
C55	C	1.606125	-0.569676	0.444466
C56	C	2.106125	-0.069676	0.944466
C57	C	1.606175	-0.635418	0.444489
C58	C	2.106175	-0.135418	0.944489
C59	C	1.538087	-0.668293	0.512512
C60	C	2.038087	-0.168293	1.012512
C61	C	1.469963	-0.635420	0.580536
C62	C	1.969963	-0.135420	1.080536
C63	C	1.469922	-0.569679	0.580517
C64	C	1.969922	-0.069679	1.080517
N65	N	1.444976	-0.771555	0.520632
N66	N	1.944976	-0.271555	1.020632
N67	N	1.445018	-0.834006	0.520643
N68	N	1.945018	-0.334006	1.020643
C69	C	1.538206	-0.866368	0.512573
C70	C	2.038206	-0.366368	1.012573
N71	N	1.631353	-0.833919	0.504471
N72	N	2.131353	-0.333919	1.004471
N73	N	1.631311	-0.771462	0.504454
N74	N	2.131311	-0.271462	1.004454
C75	C	1.538123	-0.739579	0.512540
C76	C	2.038123	-0.239579	1.012540
C77	C	1.606385	-0.970519	0.444586
C78	C	2.106385	-0.470519	0.944586
C79	C	1.606436	-1.036262	0.444617
C80	C	2.106436	-0.536262	0.944617
C81	C	1.470215	-1.036263	0.580658
C82	C	1.970215	-0.536263	1.080658
C83	C	1.470173	-0.970520	0.580632
C84	C	1.970173	-0.470520	1.080632
C85	C	1.538256	-0.937652	0.512590
C86	C	2.038256	-0.437652	1.012590
C87	C	1.815728	-0.303315	0.512509
C88	C	2.315728	0.196685	1.012509
C89	C	1.934034	-0.303326	0.512502
C90	C	2.434034	0.196674	1.012502
C91	C	1.538179	-0.303236	0.790145
C92	C	2.038179	0.196764	1.290145
C93	C	1.538209	-0.303212	0.908451
C94	C	2.038209	0.196788	1.408451
C95	C	1.538277	-0.139101	0.512607
C96	C	2.038277	0.360899	1.012607
C97	C	1.538349	-0.069133	0.512642
C98	C	2.038349	0.430867	1.012642
C99	C	1.538098	-0.303300	0.235983
C100	C	2.038098	0.196700	0.735983
C101	C	1.538274	-0.303147	0.117678
C102	C	2.038274	0.196853	0.617678
C103	C	1.467079	-0.345238	0.977687
C104	C	1.967079	0.154762	1.477687
C105	C	1.564193	-0.360622	1.048457
C106	C	2.064193	0.139378	1.548457
C107	C	1.441171	-0.287790	1.048480
C108	C	1.941171	0.212210	1.548480
C109	C	1.635374	-0.318627	0.977663
C110	C	2.135374	0.181373	1.477663
C111	C	1.512287	-0.245768	0.977679
C112	C	2.012287	0.254232	1.477679
C113	C	1.609468	-0.261131	1.048417
C114	C	2.109468	0.238869	1.548417
H115	H	1.105000	-0.197277	0.561051
H116	H	1.605000	0.302723	1.061051
H117	H	1.661565	-0.542917	0.389065
H118	H	2.161565	-0.042917	0.889065
H119	H	1.414781	-1.063029	0.636048
H120	H	1.914781	-0.563029	1.136048
H121	H	1.717489	-0.331699	0.946686
H122	H	2.217489	0.168301	1.446686
H123	H	1.661649	-0.662182	0.389108
H124	H	2.161649	-0.162182	0.889108
N125	N	1.593282	-0.424933	1.089639
N126	N	2.093282	0.075067	1.589639
H127	H	1.533476	-0.441705	1.134905
H128	H	2.033476	0.058295	1.634905
H129	H	1.660091	-0.421871	1.133708
H130	H	2.160091	0.078129	1.633708
H131	H	0.972455	-0.225524	0.381536
H132	H	1.472455	0.274476	0.881536
H133	H	1.105193	-0.331561	0.333300
H134	H	1.605193	0.168439	0.833300
H135	H	1.406974	-0.380832	0.946631
H136	H	1.906974	0.119168	1.446631
H137	H	0.972147	-0.409270	0.464217
H138	H	1.472147	0.090730	0.964217
H139	H	1.414699	-0.943760	0.636008
H140	H	1.914699	-0.443760	1.136008
N141	N	1.689268	-0.214024	1.089325
N142	N	2.189268	0.285976	1.589325
H143	H	1.762529	-0.225732	1.063431
H144	H	2.262529	0.274268	1.563431
H145	H	1.688318	-0.214027	1.169510
H146	H	2.188318	0.285973	1.669510
H147	H	1.414527	-0.662191	0.635922
H148	H	1.914527	-0.162191	1.135922
N149	N	1.679830	-0.935069	0.371211
N150	N	2.179830	-0.435069	0.871211
H151	H	1.729110	-0.907746	0.414497
H152	H	2.229110	-0.407746	0.914497
H153	H	1.636515	-0.907876	0.321852
H154	H	2.136515	-0.407876	0.821852
N155	N	1.679907	-1.071711	0.371252
N156	N	2.179907	-0.571711	0.871252
H157	H	1.669607	-1.118346	0.381590
H158	H	2.169607	-0.618346	0.881590
H159	H	1.755909	-1.060173	0.387863
H160	H	2.255909	-0.560173	0.887863
N161	N	1.483163	-0.181478	0.936449
N162	N	1.983163	0.318522	1.436449
H163	H	1.409782	-0.169891	0.962159
H164	H	1.909782	0.330109	1.462159
H165	H	1.484105	-0.181937	0.856267
H166	H	1.984105	0.318063	1.356267
N167	N	1.396433	-0.534229	0.653862
N168	N	1.896433	-0.034229	1.153862
H169	H	1.406736	-0.487594	0.643524
H170	H	1.906736	0.012406	1.143524
H171	H	1.412962	-0.545672	0.729897
H172	H	1.912962	-0.045672	1.229897
N173	N	1.332439	-0.270543	1.089692
N174	N	1.832439	0.229457	1.589692
H175	H	1.278748	-0.302344	1.063962
H176	H	1.778748	0.197656	1.563962
H177	H	1.312374	-0.227475	1.062831
H178	H	1.812374	0.272525	1.562831
H179	H	1.105064	-0.380949	0.643601
H180	H	1.605064	0.119051	1.143601
H181	H	0.972119	-0.275056	0.691851
H182	H	1.472119	0.224944	1.191851
