data_functionalizedCrystal
_audit_creation_method	'MofGen! by Chris Wilmer'
_symmetry_space_group_name_H-M	'P1'
_symmetry_Int_Tables_number	1
_symmetry_cell_setting	triclinic
loop_
_symmetry_equiv_pos_as_xyz
  x,y,z
_cell_length_a	12.759401
_cell_length_b	12.759393
_cell_length_c	12.759400
_cell_angle_alpha	89.969548
_cell_angle_beta	89.986894
_cell_angle_gamma	90.020112
loop_
_atom_site_label
_atom_site_type_symbol
_atom_site_fract_x
_atom_site_fract_y
_atom_site_fract_z
Zn1	Zn	-1.606267	-0.593997	-0.418257
Zn2	Zn	-1.606159	-0.418317	-0.593972
Zn3	Zn	-1.430566	-0.418335	-0.418303
Zn4	Zn	-1.430558	-0.593957	-0.593890
O5	O	-1.518388	-0.506152	-0.506105
O6	O	-1.753274	-0.570702	-0.441581
O7	O	-1.582824	-0.271299	-0.570723
O8	O	-1.453922	-0.441661	-0.271276
O9	O	-1.753194	-0.441631	-0.570678
O10	O	-1.583009	-0.570719	-0.271242
O11	O	-1.453817	-0.271311	-0.441660
O12	O	-1.283544	-0.441622	-0.441580
O13	O	-1.453909	-0.740984	-0.570537
O14	O	-1.283538	-0.570651	-0.570583
O15	O	-1.583001	-0.741013	-0.441501
O16	O	-1.582816	-0.441592	-0.740982
O17	O	-1.453803	-0.570634	-0.740922
C18	C	-1.245420	-0.506135	-0.506078
C19	C	-1.128644	-0.506153	-0.506092
C20	C	-0.964075	-0.573238	-0.573377
C21	C	-1.073799	-0.573228	-0.573368
C22	C	-1.073758	-0.439075	-0.438827
C23	C	-0.964036	-0.439080	-0.438842
C24	C	-1.518326	-0.506130	-0.779073
C25	C	-1.518395	-0.506156	-0.895849
C26	C	-1.518466	-0.780185	-0.506005
C27	C	-1.518500	-0.896962	-0.505962
C28	C	-0.792421	-0.506167	-0.506126
C29	C	-0.909197	-0.506168	-0.506115
C30	C	-1.585723	-0.951841	-0.438761
C31	C	-1.585741	-1.061565	-0.438716
C32	C	-1.451309	-1.061522	-0.573080
C33	C	-1.451287	-0.951799	-0.573119
C34	C	-1.518370	-0.233184	-0.506130
C35	C	-1.518540	-0.116408	-0.505877
C36	C	-1.585711	-0.439072	-1.060439
C37	C	-1.585648	-0.439039	-0.950715
C38	C	-1.451194	-0.573303	-0.950713
C39	C	-1.451252	-0.573330	-1.060435
C40	C	-1.518478	-0.506197	-0.232072
C41	C	-1.518517	-0.506216	-0.115295
H42	H	-1.640450	-0.907195	-0.384074
H43	H	-1.396430	-0.627947	-0.906035
H44	H	-0.919429	-0.627864	-0.628155
N45	N	-1.132990	-0.645562	-0.645920
H46	H	-1.081597	-0.688058	-0.688537
H47	H	-1.178543	-0.694253	-0.603209
H48	H	-1.640362	-0.384363	-0.906054
H49	H	-1.396530	-0.628009	-1.105101
H50	H	-1.396538	-0.907116	-0.627841
H51	H	-1.118421	-0.384456	-0.384054
H52	H	-1.640479	-1.106243	-0.383993
H53	H	-1.396589	-1.106184	-0.627760
H54	H	-0.919354	-0.384459	-0.384067
H55	H	-1.640482	-0.384422	-1.105103
