data_functionalizedCrystal
_audit_creation_method	'MofGen! by Chris Wilmer'
_symmetry_space_group_name_H-M	'P1'
_symmetry_Int_Tables_number	1
_symmetry_cell_setting	triclinic
loop_
_symmetry_equiv_pos_as_xyz
  x,y,z
_cell_length_a	15.944551
_cell_length_b	10.489741
_cell_length_c	8.965430
_cell_angle_alpha	90.001157
_cell_angle_beta	89.999468
_cell_angle_gamma	95.981044
loop_
_atom_site_label
_atom_site_type_symbol
_atom_site_fract_x
_atom_site_fract_y
_atom_site_fract_z
O1	O	0.118500	-1.692411	-0.123951
O2	O	0.129624	-1.321061	-0.123974
O3	O	0.001848	-1.516876	-0.123948
O4	O	0.246276	-1.496595	-0.123977
O5	O	0.001857	-1.516860	0.124130
O6	O	0.129633	-1.321044	0.124105
O7	O	0.118509	-1.692394	0.124128
Cu8	Cu	0.124071	-1.506718	0.146768
Cu9	Cu	0.124061	-1.506737	-0.146614
O10	O	0.246285	-1.496578	0.124102
C11	C	0.128788	-1.273532	0.000062
C12	C	0.126275	-1.131938	0.000054
C13	C	-0.029446	-1.516026	0.000091
C14	C	-0.122708	-1.513502	0.000092
C15	C	0.119345	-1.739922	0.000088
C16	C	0.121858	-1.881517	0.000087
C17	C	-0.338330	-1.386093	0.000063
C18	C	-0.398988	-1.445249	0.122385
C19	C	-0.293461	-1.508935	0.000080
C20	C	-0.398979	-1.445294	-0.122201
C21	C	-0.458400	-1.504515	0.000062
C22	C	-0.352890	-1.568126	0.122503
C23	C	-0.352875	-1.568154	-0.122193
C24	C	-0.413515	-1.627399	0.000158
C25	C	-0.198443	-1.511478	0.000092
C26	C	-0.553417	-1.501982	0.000061
C27	C	0.277579	-1.497429	0.000059
C28	C	0.370841	-1.499953	0.000049
N29	N	0.124078	-1.506713	0.353117
C30	C	0.044975	-1.064925	0.000077
C31	C	0.083376	-0.972274	-0.122240
C32	C	0.083403	-0.972291	0.122346
C33	C	0.164709	-1.041152	-0.122364
C34	C	0.164726	-1.041179	0.122332
C35	C	0.203186	-0.948554	-0.000015
N36	N	0.124048	-1.506752	-0.352963
C37	C	0.183150	-1.416127	0.450411
C38	C	0.200146	-1.531388	0.549830
C39	C	0.107089	-1.391501	0.549826
C40	C	0.141112	-1.622032	0.450347
C41	C	0.048022	-1.482069	0.450334
C42	C	0.064986	-1.597413	0.549708
H43	H	-0.305636	-1.284128	0.000179
H44	H	-0.332436	-1.620073	-0.225606
H45	H	-0.016264	-1.461162	0.406597
Cl46	Cl	-0.430511	-1.365024	0.282038
H47	H	-0.419372	-1.393328	-0.225622
Cl48	Cl	0.163394	-1.772522	0.383176
Cl49	Cl	-0.012164	-1.715836	0.616613
Cl50	Cl	-0.058226	-1.143015	-0.000094
H51	H	0.199101	-1.071741	0.225741
H52	H	0.048992	-0.941783	0.225756
H53	H	0.233152	-1.339592	0.406812
Cl54	Cl	0.299428	-1.563614	0.617307
H55	H	0.199079	-1.071510	-0.225891
Cl56	Cl	0.306479	-0.870808	-0.000125
Cl57	Cl	-0.321545	-1.648270	0.282340
H58	H	0.048972	-0.941743	-0.225644
H59	H	-0.446060	-1.729454	0.000234
Cl60	Cl	0.084922	-1.241049	0.617294
