data_functionalizedCrystal
_audit_creation_method	'MofGen! by Chris Wilmer'
_symmetry_space_group_name_H-M	'P1'
_symmetry_Int_Tables_number	1
_symmetry_cell_setting	triclinic
loop_
_symmetry_equiv_pos_as_xyz
  x,y,z
_cell_length_a	17.077404
_cell_length_b	16.625546
_cell_length_c	17.077396
_cell_angle_alpha	89.969785
_cell_angle_beta	89.980499
_cell_angle_gamma	90.022693
loop_
_atom_site_label
_atom_site_type_symbol
_atom_site_fract_x
_atom_site_fract_y
_atom_site_fract_z
Zn1	Zn	1.200057	-0.320997	-0.443833
Zn2	Zn	1.700057	0.179003	0.056167
Zn3	Zn	1.199965	-0.455839	-0.312563
Zn4	Zn	1.699965	0.044161	0.187437
Zn5	Zn	1.068789	-0.321025	-0.312581
Zn6	Zn	1.568789	0.178975	0.187419
Zn7	Zn	1.068758	-0.455792	-0.443787
Zn8	Zn	1.568758	0.044208	0.056213
O9	O	1.134392	-0.388413	-0.378191
O10	O	1.634392	0.111587	0.121809
O11	O	1.309892	-0.338892	-0.426432
O12	O	1.809892	0.161108	0.073568
O13	O	1.182539	-0.437988	-0.202719
O14	O	1.682539	0.062012	0.297281
O15	O	1.086253	-0.208189	-0.330019
O16	O	1.586253	0.291811	0.169981
O17	O	1.309824	-0.437960	-0.329988
O18	O	1.809824	0.062040	0.170012
O19	O	1.182695	-0.208168	-0.426449
O20	O	1.682695	0.291832	0.073551
O21	O	1.086164	-0.338940	-0.202732
O22	O	1.586164	0.161060	0.297268
O23	O	0.958938	-0.338894	-0.329974
O24	O	1.458938	0.161106	0.170026
O25	O	1.086200	-0.437879	-0.553640
O26	O	1.586200	0.062121	-0.053640
O27	O	0.958915	-0.437906	-0.426370
O28	O	1.458915	0.062094	0.073630
O29	O	1.182665	-0.338846	-0.553674
O30	O	1.682665	0.161154	-0.053674
O31	O	1.182509	-0.568666	-0.329943
O32	O	1.682509	-0.068666	0.170057
O33	O	1.086111	-0.568630	-0.426353
O34	O	1.586111	-0.068630	0.073647
C35	C	0.930444	-0.388399	-0.378169
C36	C	1.430444	0.111601	0.121831
C37	C	0.843194	-0.388412	-0.378179
C38	C	1.343194	0.111588	0.121821
C39	C	0.802213	-0.440045	-0.428292
C40	C	1.302213	0.059955	0.071708
C41	C	0.720232	-0.440047	-0.428304
C42	C	1.220232	0.059953	0.071696
C43	C	0.679235	-0.388419	-0.378199
C44	C	1.179235	0.111581	0.121801
C45	C	0.720222	-0.336780	-0.328084
C46	C	1.220222	0.163220	0.171916
C47	C	0.802201	-0.336774	-0.328076
C48	C	1.302201	0.163226	0.171924
C49	C	0.549352	-0.336795	-0.328103
C50	C	1.049352	0.163205	0.171897
C51	C	0.467368	-0.336801	-0.328110
C52	C	0.967368	0.163199	0.171890
C53	C	0.467383	-0.440068	-0.428331
C54	C	0.967383	0.059932	0.071669
C55	C	0.549362	-0.440063	-0.428323
C56	C	1.049362	0.059937	0.071677
C57	C	0.590344	-0.388425	-0.378207
C58	C	1.090344	0.111575	0.121793
C59	C	1.134318	-0.597904	-0.378158
C60	C	1.634318	-0.097904	0.121842
C61	C	1.134358	-0.687525	-0.378170
C62	C	1.634358	-0.187525	0.121830
C63	C	1.134495	-1.015701	-0.378252
C64	C	1.634495	-0.515701	0.121748
C65	C	1.134454	-0.924392	-0.378232
C66	C	1.634454	-0.424392	0.121768
C67	C	1.134426	-0.851616	-0.378211
C68	C	1.634426	-0.351616	0.121789
C69	C	1.134386	-0.760302	-0.378191
C70	C	1.634386	-0.260302	0.121809
C71	C	1.339136	-0.388428	-0.378213
C72	C	1.839136	0.111572	0.121787
C73	C	1.426386	-0.388435	-0.378223
C74	C	1.926386	0.111565	0.121777
C75	C	1.134440	-0.388354	-0.582936
C76	C	1.634440	0.111646	-0.082936
C77	C	1.134460	-0.388329	-0.670185
C78	C	1.634460	0.111671	-0.170185
C79	C	1.134488	-0.178104	-0.378241
C80	C	1.634488	0.321896	0.121759
C81	C	1.134529	-0.088483	-0.378263
C82	C	1.634529	0.411517	0.121737
C83	C	1.184691	-0.336758	-0.711195
C84	C	1.684691	0.163242	-0.211195
C85	C	1.184700	-0.336731	-0.793175
C86	C	1.684700	0.163269	-0.293175
C87	C	1.134482	-0.388280	-0.834145
C88	C	1.634482	0.111720	-0.334145
C89	C	1.084245	-0.439853	-0.793130
C90	C	1.584245	0.060147	-0.293130
C91	C	1.084233	-0.439875	-0.711151
C92	C	1.584233	0.060125	-0.211151
C93	C	1.084277	-0.439804	-0.964000
C94	C	1.584277	0.060196	-0.464000
C95	C	1.084291	-0.439783	-1.045985
C96	C	1.584291	0.060217	-0.545985
C97	C	1.184745	-0.336660	-1.046024
C98	C	1.684745	0.163340	-0.546024
C99	C	1.184732	-0.336682	-0.964045
C100	C	1.684732	0.163318	-0.464045
C101	C	1.134496	-0.388257	-0.923036
C102	C	1.634496	0.111743	-0.423036
C103	C	1.134390	-0.388414	-0.174243
C104	C	1.634390	0.111586	0.325757
C105	C	1.134522	-0.388212	-0.086994
C106	C	1.634522	0.111788	0.413006
H107	H	0.433990	-0.294752	-0.287319
H108	H	0.933990	0.205248	0.212681
H109	H	0.582717	-0.294739	-0.287300
H110	H	1.082717	0.205261	0.212700
H111	H	1.225629	-0.294711	-0.930690
H112	H	1.725629	0.205289	-0.430690
H113	H	1.043354	-0.481822	-0.826494
H114	H	1.543354	0.018178	-0.326494
O115	O	1.233555	-0.286796	-0.671363
O116	O	1.733555	0.213204	-0.171363
C117	C	1.339491	-0.275969	-0.578790
C118	C	1.839491	0.224031	-0.078790
C119	C	1.284217	-0.332648	-0.623862
C120	C	1.784217	0.167352	-0.123862
H121	H	1.380454	-0.313016	-0.540362
H122	H	1.880454	0.186984	-0.040362
H123	H	1.375450	-0.239116	-0.622149
H124	H	1.875450	0.260884	-0.122149
H125	H	1.303444	-0.233803	-0.540451
H126	H	1.803444	0.266197	-0.040451
H127	H	1.320203	-0.374863	-0.662202
H128	H	1.820203	0.125137	-0.162202
H129	H	1.248256	-0.369444	-0.580460
H130	H	1.748256	0.130556	-0.080460
H131	H	1.225647	-0.294665	-1.079418
H132	H	1.725647	0.205335	-0.579418
O133	O	1.035432	-0.489879	-1.085663
O134	O	1.535432	0.010121	-0.585663
C135	C	0.935819	-0.592191	-1.076978
C136	C	1.435819	-0.092191	-0.576978
C137	C	0.991098	-0.535486	-1.031945
C138	C	1.491098	-0.035486	-0.531945
H139	H	0.899972	-0.629091	-1.033566
H140	H	1.399972	-0.129091	-0.533566
H141	H	0.894751	-0.555192	-1.115341
H142	H	1.394751	-0.055192	-0.615341
H143	H	0.971856	-0.634312	-1.115374
H144	H	1.471856	-0.134312	-0.615374
H145	H	0.955123	-0.493354	-0.993506
H146	H	1.455123	0.006646	-0.493506
H147	H	1.032167	-0.572535	-0.993631
H148	H	1.532167	-0.072535	-0.493631
H149	H	0.686869	-0.482093	-0.469111
H150	H	1.186869	0.017907	0.030889
H151	H	1.225605	-0.294739	-0.826561
H152	H	1.725605	0.205261	-0.326561
H153	H	0.582740	-0.482108	-0.469119
H154	H	1.082740	0.017892	0.030881
H155	H	0.835587	-0.482090	-0.469091
H156	H	1.335587	0.017910	0.030909
H157	H	0.434012	-0.482112	-0.469140
H158	H	0.934012	0.017888	0.030860
H159	H	1.043357	-0.481789	-0.930613
H160	H	1.543357	0.018211	-0.430613
O161	O	1.035423	-0.490057	-0.671433
O162	O	1.535423	0.009943	-0.171433
C163	C	0.935774	-0.592324	-0.680041
C164	C	1.435774	-0.092324	-0.180041
C165	C	0.991023	-0.535544	-0.725117
C166	C	1.491023	-0.035544	-0.225117
H167	H	0.899850	-0.629103	-0.723424
H168	H	1.399850	-0.129103	-0.223424
H169	H	0.971760	-0.634548	-0.641683
H170	H	1.471760	-0.134548	-0.141683
H171	H	0.894770	-0.555309	-0.641636
H172	H	1.394770	-0.055309	-0.141636
H173	H	1.032037	-0.572493	-0.763564
H174	H	1.532037	-0.072493	-0.263564
H175	H	0.954988	-0.493318	-0.763426
H176	H	1.454988	0.006682	-0.263426
H177	H	0.686836	-0.294739	-0.287291
H178	H	1.186836	0.205261	0.212709
H179	H	0.835567	-0.294725	-0.287273
H180	H	1.335567	0.205275	0.212727
