data_functionalizedCrystal
_audit_creation_method	'MofGen! by Chris Wilmer'
_symmetry_space_group_name_H-M	'P1'
_symmetry_Int_Tables_number	1
_symmetry_cell_setting	triclinic
loop_
_symmetry_equiv_pos_as_xyz
  x,y,z
_cell_length_a	27.440280
_cell_length_b	14.395555
_cell_length_c	14.395555
_cell_angle_alpha	60.000749
_cell_angle_beta	90.004690
_cell_angle_gamma	60.000070
loop_
_atom_site_label
_atom_site_type_symbol
_atom_site_fract_x
_atom_site_fract_y
_atom_site_fract_z
Zr1	Zr	0.469518	1.016682	-0.121806
O2	O	0.391703	1.210488	-0.270151
O3	O	0.493370	0.822882	-0.076328
O4	O	0.493374	1.016670	-0.270124
O5	O	0.391698	1.016708	0.076512
O6	O	0.573577	1.016652	-0.270105
O7	O	0.391699	1.016701	-0.076355
O8	O	0.573570	0.670002	0.076560
O9	O	0.391705	1.363358	-0.270154
O10	O	0.563400	0.902579	-0.056921
O11	O	0.503545	0.902597	0.057148
O12	O	0.503550	1.130757	-0.171021
O13	O	0.443695	1.130775	-0.056953
Zr14	Zr	0.597431	1.016664	0.122030
Zr15	Zr	0.597432	1.016653	-0.121775
Zr16	Zr	0.469517	1.016693	0.122000
Zr17	Zr	0.469522	1.260491	-0.121810
Zr18	Zr	0.597427	0.772855	0.122034
O19	O	0.573579	1.210463	0.076552
O20	O	0.573580	1.210447	-0.270108
O21	O	0.391701	1.210504	0.076509
O22	O	0.675247	0.822857	0.270375
O23	O	0.675248	0.822842	-0.076285
O24	O	0.493369	0.822898	0.270332
O25	O	0.675251	1.016638	-0.076288
O26	O	0.573575	1.016676	0.270348
O27	O	0.493372	1.016694	0.270329
O28	O	0.675250	1.016645	0.076579
O29	O	0.493380	1.363335	-0.270129
O30	O	0.573569	0.670011	0.270353
O31	O	0.675244	0.669988	0.270378
O32	O	0.675245	0.669979	0.076585
O33	O	0.391704	1.363366	-0.076361
O34	O	0.493379	1.363344	-0.076336
O35	O	0.563399	0.902589	0.171246
O36	O	0.623254	0.902570	0.057177
O37	O	0.563404	1.130748	-0.056924
O38	O	0.503549	1.130767	0.057145
C39	C	0.533470	0.711705	0.000117
C40	C	0.533468	0.608201	0.000118
C41	C	0.500834	0.547619	0.062317
C42	C	0.477183	0.561876	-0.044963
C43	C	0.557105	0.409548	0.107366
C44	C	0.509784	0.623884	-0.107226
C45	C	0.589737	0.471494	0.045181
C46	C	0.566100	0.485798	-0.062163
C47	C	0.373473	1.016709	0.000074
C48	C	0.319170	1.016721	0.000061
C49	C	0.013714	0.897545	0.059703
C50	C	-0.037304	0.897537	0.059713
O51	O	-0.037123	0.796242	0.110401
N52	N	-0.094062	1.016643	0.000152
C53	C	-0.099801	1.135763	-0.059413
O54	O	-0.152763	1.237070	-0.110072
C55	C	-0.048783	1.135769	-0.059415
C56	C	0.007974	1.016656	0.000140
C57	C	0.070469	0.778441	0.119254
C58	C	0.121484	0.778449	0.119242
C59	C	0.115744	0.897560	0.059679
C60	C	0.058989	1.016663	0.000127
C61	C	-0.054523	1.254887	-0.118973
C62	C	-0.003499	1.254883	-0.118970
C63	C	0.053259	1.135770	-0.059415
C64	C	0.104264	1.135782	-0.059448
N65	N	0.161022	1.016677	0.000113
C66	C	0.166762	0.897566	0.059676
C67	C	-0.206940	1.135741	-0.059401
C68	C	-0.257957	1.135737	-0.059405
C69	C	-0.195457	0.897511	0.059722
C70	C	-0.144439	0.897517	0.059720
C71	C	-0.150182	1.016636	0.000160
C72	C	0.273894	0.897591	0.059645
C73	C	0.324911	0.897610	0.059624
C74	C	0.262406	1.135835	-0.059498
C75	C	0.211393	1.135817	-0.059482
C76	C	0.217142	1.016685	0.000098
O77	O	0.104128	1.237026	-0.110106
O78	O	0.219725	0.796276	0.110339
C79	C	0.693476	1.016637	0.000150
C80	C	0.747779	1.016625	0.000163
C81	C	0.533476	1.016659	-0.304852
C82	C	0.533476	1.016654	-0.408353
C83	C	0.533479	1.321641	0.000107
C84	C	0.533481	1.425144	0.000106
C85	C	0.566112	0.892242	-0.406729
C86	C	0.509833	0.954445	-0.499765
C87	C	0.589742	0.954456	-0.499746
C88	C	0.477163	1.078858	-0.500026
C89	C	0.557113	1.078852	-0.499992
C90	C	0.500800	1.141146	-0.593046
C91	C	0.533473	1.016687	0.305076
C92	C	0.533473	1.016691	0.408577
C93	C	0.693471	0.711669	0.000155
C94	C	0.747772	0.608153	0.000169
C95	C	0.533469	0.711718	0.305080
C96	C	0.533467	0.608220	0.408584
C97	C	0.693470	0.711683	0.305118
C98	C	0.747771	0.608172	0.408635
C99	C	0.373479	1.321663	-0.304894
C100	C	0.319179	1.425174	-0.408411
C101	C	0.373478	1.321677	0.000069
C102	C	0.319177	1.425192	0.000055
C103	C	0.533481	1.321627	-0.304856
C104	C	0.533483	1.425126	-0.408360
C105	C	0.742029	0.559546	-0.059392
C106	C	0.793046	0.462295	-0.059401
C107	C	0.849805	0.413648	0.000158
C108	C	0.855547	0.462265	0.059721
C109	C	0.804531	0.559520	0.059723
C110	C	0.804520	0.559552	0.397704
C111	C	0.855546	0.462306	0.494960
C112	C	0.849822	0.413675	0.603144
C113	C	0.793067	0.462304	0.614072
C114	C	0.742042	0.559555	0.516818
C115	C	0.262429	1.473805	-0.397480
C116	C	0.211403	1.571081	-0.494736
C117	C	0.217127	1.619718	-0.602920
C118	C	0.273882	1.571082	-0.613848
C119	C	0.324907	1.473815	-0.516594
C120	C	0.324920	1.473810	0.059606
C121	C	0.273903	1.571087	0.059588
C122	C	0.217144	1.619738	0.000025
C123	C	0.211402	1.571116	-0.059533
C124	C	0.262418	1.473848	-0.059521
C125	C	0.500829	0.547642	0.406962
C126	C	0.557109	0.409532	0.499996
C127	C	0.477202	0.561883	0.499982
C128	C	0.589780	0.471410	0.500254
C129	C	0.509832	0.623835	0.500225
C130	C	0.566146	0.485734	0.593276
H131	H	0.637307	0.434319	0.083333
H132	H	0.165195	1.610664	-0.485816
H133	H	0.809192	0.599134	0.309624
C134	C	0.549848	0.317288	0.294795
C135	C	0.584101	0.285888	0.229821
H136	H	0.566517	0.240953	0.370397
H137	H	0.510112	0.349224	0.262375
H138	H	0.549695	0.382968	0.295693
H139	H	0.584250	0.220214	0.228917
H140	H	0.623847	0.253932	0.262250
H141	H	0.489836	0.901871	-0.500701
H142	H	0.788415	0.422694	0.702169
C143	C	0.430871	1.324746	-0.420420
C144	C	0.387287	1.420382	-0.528619
H145	H	0.469380	1.291779	-0.427853
H146	H	0.426406	1.254923	-0.380024
H147	H	0.426391	1.362687	-0.380011
H148	H	0.391764	1.382439	-0.569026
H149	H	0.391754	1.490217	-0.569032
H150	H	0.175574	1.698919	-0.682102
C151	C	0.224842	1.364508	-0.081593
C152	C	0.256100	1.420396	-0.124969
H153	H	0.220941	1.331507	-0.121997
H154	H	0.186344	1.429405	-0.090126
H155	H	0.246049	1.294693	-0.003241
H156	H	0.234890	1.490218	-0.203319
H157	H	0.294605	1.355493	-0.116446
H158	H	0.257757	1.434211	-0.309400
H159	H	0.278536	1.610695	-0.701944
C160	C	0.378656	1.279722	-0.595866
C161	C	0.412894	1.149797	-0.498941
H162	H	0.338981	1.323513	-0.595187
H163	H	0.378266	1.280185	-0.662074
H164	H	0.395497	1.323588	-0.596056
H165	H	0.396056	1.105928	-0.498756
H166	H	0.413281	1.149327	-0.432715
H167	H	0.175608	1.698941	0.000025
H168	H	0.371131	1.434206	0.108116
C169	C	0.418549	0.759408	0.208147
C170	C	0.387301	0.766673	0.125096
H171	H	0.457065	0.678579	0.248560
H172	H	0.397351	0.764359	0.259541
H173	H	0.422432	0.830350	0.172657
H174	H	0.383414	0.695736	0.160587
H175	H	0.408504	0.761710	0.073694
H176	H	0.788360	0.422723	-0.107904
C177	C	0.340817	1.561236	0.177367
C178	C	0.280224	1.624505	0.125072
H179	H	0.344719	1.594207	0.217800
H180	H	0.359419	1.577170	0.121023
H181	H	0.359406	1.469422	0.228760
H182	H	0.261636	1.716318	0.073673
H183	H	0.261614	1.608582	0.181423
C184	C	0.378874	0.643184	0.404821
C185	C	0.412965	0.612110	0.501194
H186	H	0.339216	0.674198	0.405563
H187	H	0.395888	0.566960	0.405302
H188	H	0.378391	0.709485	0.338238
H189	H	0.413452	0.545800	0.567778
H190	H	0.395947	0.688343	0.500723
C191	C	0.399070	0.530172	-0.015962
C192	C	0.412953	0.612074	-0.096433
H193	H	0.359418	0.561161	-0.047736
H194	H	0.402362	0.530616	0.049475
H195	H	0.426009	0.443195	0.004935
H196	H	0.386017	0.699050	-0.117323
H197	H	0.409655	0.611644	-0.161890
H198	H	0.809215	0.599084	0.108231
H199	H	0.489743	0.715451	-0.197972
H200	H	0.593696	0.458846	-0.114841
C201	C	0.105450	1.720223	-0.112406
C202	C	0.149009	1.624592	-0.124991
H203	H	0.066931	1.753226	-0.152807
H204	H	0.109931	1.790023	-0.141823
H205	H	0.109942	1.682266	-0.034049
H206	H	0.144520	1.662552	-0.203347
H207	H	0.144526	1.554780	-0.095579
H208	H	0.891375	0.334487	0.682326
H209	H	0.901754	0.422722	0.486042
H210	H	0.473161	1.246434	-0.672682
C211	C	0.634710	0.179467	0.598413
C212	C	0.584099	0.285828	0.501279
H213	H	0.651368	0.103105	0.599197
H214	H	0.623741	0.164756	0.664472
H215	H	0.663348	0.198402	0.597433
H216	H	0.555459	0.266897	0.502264
H217	H	0.595066	0.300540	0.435203
H218	H	0.473274	0.574729	0.327197
C219	C	0.178120	0.542981	0.237002
C220	C	0.183868	0.647515	0.184721
H221	H	0.216633	0.462144	0.277436
H222	H	0.156921	0.547933	0.180651
H223	H	0.156915	0.547961	0.288393
H224	H	0.205069	0.642540	0.133324
H225	H	0.205076	0.642560	0.241080
C226	C	0.688070	0.753167	-0.404574
C227	C	0.653981	0.883445	-0.500950
H228	H	0.727729	0.709328	-0.405309
H229	H	0.671057	0.709855	-0.405057
H230	H	0.688550	0.751971	-0.337992
H231	H	0.653498	0.884642	-0.567531
H232	H	0.670998	0.926769	-0.500477
C233	C	0.662339	0.400834	0.701772
C234	C	0.603457	0.449231	0.700790
H235	H	0.685374	0.378287	0.768151
H236	H	0.662800	0.466304	0.636170
H237	H	0.678779	0.325074	0.701680
H238	H	0.587016	0.524997	0.700873
H239	H	0.602994	0.383756	0.766410
H240	H	0.278583	0.800582	0.108162
H241	H	0.695836	0.599128	0.525734
H242	H	0.473200	0.574853	0.114838
H243	H	0.637386	0.434025	0.499441
H244	H	0.593665	0.787042	-0.326961
C245	C	-0.111153	1.490354	-0.236676
C246	C	-0.116903	1.385823	-0.184419
H247	H	-0.149665	1.571192	-0.277071
H248	H	-0.089965	1.485411	-0.288087
H249	H	-0.089936	1.485361	-0.180305
H250	H	-0.138117	1.390811	-0.240792
H251	H	-0.138100	1.390769	-0.133005
H252	H	0.075153	0.681442	0.167764
H253	H	0.489821	0.715493	0.499233
H254	H	0.577124	1.131380	-0.499013
H255	H	-0.098228	0.800524	0.108225
H256	H	-0.304168	1.232731	-0.107916
C257	C	-0.245921	0.791740	0.112641
C258	C	-0.189153	0.766578	0.125213
H259	H	-0.242030	0.710912	0.153077
H260	H	-0.267116	0.840661	0.034301
H261	H	-0.267113	0.840697	0.142039
H262	H	-0.167962	0.717630	0.095807
H263	H	-0.167949	0.717637	0.203569
H264	H	-0.008182	1.351887	-0.167457
C265	C	0.117753	1.273999	-0.208003
C266	C	0.149001	1.266740	-0.124956
H267	H	0.079238	1.354829	-0.248421
H268	H	0.113873	1.203064	-0.172517
H269	H	0.138955	1.269047	-0.259403
H270	H	0.127801	1.271682	-0.073550
H271	H	0.152879	1.337695	-0.160444
C272	C	0.685389	0.549799	-0.177152
C273	C	0.679644	0.613010	-0.124871
H274	H	0.646875	0.582812	-0.217586
H275	H	0.706586	0.457993	-0.120799
H276	H	0.706595	0.565745	-0.228541
H277	H	0.658441	0.597057	-0.073475
H278	H	0.658438	0.704838	-0.181231
H279	H	0.257742	1.232812	-0.107997
C280	C	0.905859	0.194915	0.047157
C281	C	0.905881	0.306731	0.000161
H282	H	0.940478	0.128906	0.047164
H283	H	0.871235	0.216946	0.003158
H284	H	0.905860	0.163049	0.123032
H285	H	0.905875	0.338602	-0.075716
H286	H	0.940514	0.284699	0.044160
H287	H	-0.211624	1.232749	-0.107907
C288	C	0.961499	0.313135	0.112617
C289	C	0.917940	0.408771	0.125197
H290	H	1.000018	0.280100	0.153050
H291	H	0.957020	0.351089	0.034275
H292	H	0.957005	0.243345	0.142013
H293	H	0.922432	0.478566	0.095794
H294	H	0.922421	0.370818	0.203555
