data_functionalizedCrystal
_audit_creation_method	'MofGen! by Chris Wilmer'
_symmetry_space_group_name_H-M	'P1'
_symmetry_Int_Tables_number	1
_symmetry_cell_setting	triclinic
loop_
_symmetry_equiv_pos_as_xyz
  x,y,z
_cell_length_a	16.959455
_cell_length_b	16.625545
_cell_length_c	16.959447
_cell_angle_alpha	90.029927
_cell_angle_beta	90.014322
_cell_angle_gamma	90.022505
loop_
_atom_site_label
_atom_site_type_symbol
_atom_site_fract_x
_atom_site_fract_y
_atom_site_fract_z
Zn1	Zn	1.208354	-0.321051	0.446911
Zn2	Zn	1.208263	-0.455899	0.314733
Zn3	Zn	1.076182	-0.321077	0.314748
Zn4	Zn	1.076134	-0.455839	0.446872
O5	O	1.142233	-0.388466	0.380816
O6	O	1.318953	-0.338954	0.429387
O7	O	1.190725	-0.438050	0.204124
O8	O	1.093773	-0.208241	0.332303
O9	O	1.318886	-0.438026	0.332277
O10	O	1.190879	-0.208222	0.429402
O11	O	1.093685	-0.338997	0.204135
O12	O	0.965565	-0.338939	0.332265
O13	O	1.093691	-0.437923	0.557488
O14	O	0.965530	-0.437947	0.429335
O15	O	1.190832	-0.338895	0.557517
O16	O	1.190678	-0.568723	0.332239
O17	O	1.093604	-0.568679	0.429321
C18	C	0.936867	-0.388440	0.380798
C19	C	0.849010	-0.388448	0.380809
C20	C	0.477529	-0.336870	0.330377
C21	C	0.477541	-0.440129	0.431300
C22	C	0.560087	-0.440117	0.431295
C23	C	0.601358	-0.388482	0.380830
C24	C	0.560082	-0.336859	0.330369
C25	C	0.601368	-0.491746	0.481750
C26	C	0.683919	-0.491737	0.481746
C27	C	0.725191	-0.440097	0.431284
C28	C	0.683911	-0.388471	0.380822
C29	C	0.725182	-0.336836	0.330356
C30	C	0.683903	-0.285205	0.279897
C31	C	0.601355	-0.285219	0.279907
C32	C	0.807740	-0.440083	0.431275
C33	C	0.807735	-0.336824	0.330348
C34	C	1.142147	-0.597957	0.380791
C35	C	1.142183	-0.687578	0.380807
C36	C	1.142214	-0.760361	0.380823
C37	C	1.142260	-0.851669	0.380840
C38	C	1.142301	-0.924446	0.380850
C39	C	1.142346	-1.015760	0.380866
C40	C	1.348402	-0.388494	0.380835
C41	C	1.436258	-0.388505	0.380843
C42	C	1.142266	-0.388400	0.586984
C43	C	1.142280	-0.388371	0.674841
C44	C	1.142341	-0.178157	0.380858
C45	C	1.142387	-0.088536	0.380876
C46	C	1.142246	-0.388475	0.175450
C47	C	1.142385	-0.388276	0.087594
C48	C	1.091798	-0.439845	1.046304
C49	C	1.192952	-0.336727	1.046329
C50	C	1.192931	-0.336744	0.963783
C51	C	1.142343	-0.388313	0.922494
C52	C	1.091777	-0.439866	0.963751
C53	C	1.243502	-0.285199	0.922521
C54	C	1.243483	-0.285214	0.839970
C55	C	1.192891	-0.336780	0.798679
C56	C	1.142322	-0.388334	0.839941
C57	C	1.091735	-0.439903	0.798651
C58	C	1.041161	-0.491453	0.839911
C59	C	1.041185	-0.491431	0.922460
C60	C	1.192868	-0.336802	0.716130
C61	C	1.091714	-0.439923	0.716098
H62	H	0.717516	-0.243167	0.238805
O63	O	1.292572	-0.235141	0.962749
C64	C	1.337474	-0.189460	1.089937
C65	C	1.281845	-0.246177	1.044472
H66	H	1.328833	-0.198374	1.156018
H67	H	1.323634	-0.124425	1.073787
H68	H	1.401188	-0.203634	1.073655
H69	H	1.218112	-0.232075	1.060729
H70	H	1.295752	-0.311195	1.060626
O71	O	1.241905	-0.286619	0.676085
C72	C	1.280381	-0.149482	0.650901
C73	C	1.224783	-0.206225	0.696286
H74	H	1.266569	-0.084472	0.667229
H75	H	1.271672	-0.158282	0.584799
H76	H	1.344108	-0.163694	0.667115
H77	H	1.161035	-0.192049	0.680138
H78	H	1.233561	-0.197414	0.762377
O79	O	0.847803	-0.490144	0.480397
C80	C	0.873060	-0.529489	0.614776
C81	C	0.827654	-0.472731	0.559232
H82	H	0.856774	-0.515443	0.678525
H83	H	0.939159	-0.520606	0.606173
H84	H	0.856821	-0.594485	0.600740
H85	H	0.843827	-0.407714	0.573234
H86	H	0.761567	-0.481684	0.567845
O87	O	0.991917	-0.541516	0.799891
C88	C	0.857444	-0.580633	0.774571
C89	C	0.913117	-0.523896	0.819957
H90	H	0.793721	-0.566396	0.790765
H91	H	0.871236	-0.645656	0.790807
H92	H	0.866162	-0.571812	0.708488
H93	H	0.904429	-0.532644	0.886051
H94	H	0.899311	-0.458893	0.803655
H95	H	1.050620	-0.481814	1.079902
O96	O	0.561217	-0.235184	0.230815
C97	C	0.467930	-0.224210	0.124171
C98	C	0.513357	-0.280965	0.179701
H99	H	0.429212	-0.261200	0.082843
H100	H	0.511563	-0.187308	0.088042
H101	H	0.429342	-0.182093	0.160564
H102	H	0.551947	-0.323131	0.143369
H103	H	0.469682	-0.317811	0.215833
H104	H	1.000013	-0.533403	0.956061
O105	O	0.437332	-0.490210	0.480293
C106	C	0.310163	-0.536028	0.524993
C107	C	0.355604	-0.479255	0.469479
H108	H	0.244078	-0.527203	0.516258
H109	H	0.326355	-0.521944	0.588770
H110	H	0.326422	-0.601015	0.511010
H111	H	0.339370	-0.414249	0.483391
H112	H	0.339408	-0.493409	0.405718
O113	O	1.292629	-0.235061	0.800016
C114	C	1.392993	-0.132809	0.808759
C115	C	1.337367	-0.189556	0.854106
H116	H	1.429191	-0.096016	0.852472
H117	H	1.356751	-0.090598	0.770150
H118	H	1.434261	-0.169852	0.770076
H119	H	1.296089	-0.152578	0.892833
H120	H	1.373659	-0.231770	0.892666
H121	H	1.234142	-0.294746	1.079952
H122	H	0.717521	-0.533777	0.522834
O123	O	0.847701	-0.286640	0.281248
C124	C	0.838976	-0.184187	0.181179
C125	C	0.793619	-0.240991	0.236732
H126	H	0.795271	-0.147253	0.145185
H127	H	0.877574	-0.221112	0.139726
H128	H	0.877673	-0.142103	0.217548
H129	H	0.754879	-0.283086	0.200427
H130	H	0.755071	-0.204016	0.278187
H131	H	1.050512	-0.481911	0.682486
H132	H	0.443916	-0.294831	0.289297
H133	H	0.567760	-0.533790	0.522831
