data_functionalizedCrystal
_audit_creation_method	'MofGen! by Chris Wilmer'
_symmetry_space_group_name_H-M	'P1'
_symmetry_Int_Tables_number	1
_symmetry_cell_setting	triclinic
loop_
_symmetry_equiv_pos_as_xyz
  x,y,z
_cell_length_a	16.625548
_cell_length_b	25.639239
_cell_length_c	25.639234
_cell_angle_alpha	90.024584
_cell_angle_beta	90.018209
_cell_angle_gamma	90.039754
loop_
_atom_site_label
_atom_site_type_symbol
_atom_site_fract_x
_atom_site_fract_y
_atom_site_fract_z
Zn1	Zn	1.232571	-0.208169	0.295620
Zn2	Zn	1.732571	0.291831	0.795620
Zn3	Zn	1.232441	-0.295597	0.208184
Zn4	Zn	1.732441	0.204403	0.708184
Zn5	Zn	1.097738	-0.208179	0.208197
Zn6	Zn	1.597738	0.291821	0.708197
Zn7	Zn	1.097665	-0.295577	0.295587
Zn8	Zn	1.597665	0.204423	0.795587
O9	O	1.165104	-0.251881	0.251897
O10	O	1.665104	0.248119	0.751897
O11	O	1.345386	-0.219771	0.284029
O12	O	1.845386	0.280229	0.784029
O13	O	1.214549	-0.284013	0.135021
O14	O	1.714549	0.215987	0.635021
O15	O	1.115709	-0.135013	0.219813
O16	O	1.615709	0.364987	0.719813
O17	O	1.345291	-0.284004	0.219791
O18	O	1.845291	0.215996	0.719791
O19	O	1.214770	-0.135005	0.284042
O20	O	1.714770	0.364995	0.784042
O21	O	1.115583	-0.219788	0.135030
O22	O	1.615583	0.280212	0.635030
O23	O	0.984896	-0.219768	0.219782
O24	O	1.484896	0.280232	0.719782
O25	O	1.115584	-0.283970	0.368757
O26	O	1.615584	0.216030	0.868757
O27	O	0.984842	-0.283979	0.283987
O28	O	1.484842	0.216021	0.783987
O29	O	1.214699	-0.219752	0.368781
O30	O	1.714699	0.280248	0.868781
O31	O	1.214478	-0.368760	0.219759
O32	O	1.714478	0.131240	0.719759
O33	O	1.115458	-0.368745	0.283974
O34	O	1.615458	0.131255	0.783974
C35	C	0.955613	-0.251873	0.251882
C36	C	1.455613	0.248127	0.751882
C37	C	0.865992	-0.251883	0.251889
C38	C	1.365992	0.248117	0.751889
C39	C	0.537816	-0.251886	0.251911
C40	C	1.037816	0.248114	0.751911
C41	C	0.629125	-0.251884	0.251903
C42	C	1.129125	0.248116	0.751903
C43	C	0.701901	-0.251885	0.251899
C44	C	1.201901	0.248115	0.751899
C45	C	0.793215	-0.251882	0.251892
C46	C	1.293215	0.248118	0.751892
C47	C	1.164968	-0.387723	0.251873
C48	C	1.664968	0.112277	0.751873
C49	C	1.164984	-0.445837	0.251880
C50	C	1.664984	0.054163	0.751880
C51	C	1.216798	-0.806195	0.218517
C52	C	1.716798	-0.306195	0.718517
C53	C	1.216829	-0.860800	0.218524
C54	C	1.716829	-0.360800	0.718524
O55	O	1.260743	-0.889032	0.190132
O56	O	1.760743	-0.389032	0.690132
N57	N	1.165246	-0.888120	0.251932
N58	N	1.665246	-0.388120	0.751932
C59	C	1.113633	-0.860833	0.285338
C60	C	1.613633	-0.360833	0.785338
O61	O	1.069761	-0.889084	0.313755
O62	O	1.569761	-0.389084	0.813755
C63	C	1.113606	-0.806229	0.285333
C64	C	1.613606	-0.306229	0.785333
C65	C	1.165188	-0.778912	0.251920
C66	C	1.665188	-0.278912	0.751920
C67	C	1.268376	-0.778878	0.185107
C68	C	1.768376	-0.278878	0.685107
C69	C	1.268343	-0.724278	0.185100
C70	C	1.768343	-0.224278	0.685100
C71	C	1.216733	-0.696994	0.218502
C72	C	1.716733	-0.196994	0.718502
C73	C	1.165155	-0.724312	0.251912
C74	C	1.665155	-0.224312	0.751912
C75	C	1.061999	-0.778943	0.318742
C76	C	1.561999	-0.278943	0.818742
C77	C	1.061977	-0.724336	0.318734
C78	C	1.561977	-0.224336	0.818734
C79	C	1.113558	-0.697019	0.285321
C80	C	1.613558	-0.197019	0.785321
C81	C	1.113512	-0.642428	0.285307
C82	C	1.613512	-0.142428	0.785307
N83	N	1.165096	-0.615108	0.251900
N84	N	1.665096	-0.115108	0.751900
C85	C	1.216706	-0.642391	0.218498
C86	C	1.716706	-0.142391	0.718498
C87	C	1.113694	-0.975503	0.285346
C88	C	1.613694	-0.475503	0.785346
C89	C	1.113716	-1.030106	0.285349
C90	C	1.613716	-0.530106	0.785349
C91	C	1.216913	-1.030069	0.218536
C92	C	1.716913	-0.530069	0.718536
C93	C	1.216887	-0.975466	0.218531
C94	C	1.716887	-0.475466	0.718531
C95	C	1.165277	-0.948183	0.251939
C96	C	1.665277	-0.448183	0.751939
C97	C	1.216634	-0.527726	0.218484
C98	C	1.716634	-0.027726	0.718484
C99	C	1.216594	-0.473121	0.218478
C100	C	1.716594	0.026879	0.718478
C101	C	1.113400	-0.473162	0.285293
C102	C	1.613400	0.026838	0.785293
C103	C	1.113436	-0.527763	0.285297
C104	C	1.613436	-0.027763	0.785297
C105	C	1.165060	-0.555043	0.251891
C106	C	1.665060	-0.055043	0.751891
O107	O	1.069624	-0.614161	0.313687
O108	O	1.569624	-0.114161	0.813687
O109	O	1.260579	-0.614133	0.190091
O110	O	1.760579	-0.114133	0.690091
C111	C	1.375413	-0.251889	0.251912
C112	C	1.875413	0.248111	0.751912
C113	C	1.465034	-0.251892	0.251918
C114	C	1.965034	0.248108	0.751918
C115	C	1.165148	-0.251858	0.388270
C116	C	1.665148	0.248142	0.888270
C117	C	1.165166	-0.251848	0.446384
C118	C	1.665166	0.248152	0.946384
C119	C	1.165262	-0.115508	0.251933
C120	C	1.665262	0.384492	0.751933
C121	C	1.165329	-0.057394	0.251948
C122	C	1.665329	0.442606	0.751948
C123	C	1.165107	-0.251866	0.116055
C124	C	1.665107	0.248134	0.616055
C125	C	1.165244	-0.251729	0.057941
C126	C	1.665244	0.248271	0.557941
C127	C	1.216719	-0.285247	0.697565
C128	C	1.716719	0.214753	1.197565
C129	C	1.216710	-0.285258	0.642961
C130	C	1.716710	0.214742	1.142961
O131	O	1.260505	-0.313713	0.614713
O132	O	1.760505	0.186287	1.114713
N133	N	1.165184	-0.251822	0.615658
N134	N	1.665184	0.248178	1.115658
C135	C	1.113656	-0.218377	0.642963
C136	C	1.613656	0.281623	1.142963
O137	O	1.069827	-0.189939	0.614726
O138	O	1.569827	0.310061	1.114726
C139	C	1.113661	-0.218370	0.697566
C140	C	1.613661	0.281630	1.197566
C141	C	1.165197	-0.251804	0.724866
C142	C	1.665197	0.248196	1.224866
C143	C	1.268250	-0.318679	0.724865
C144	C	1.768250	0.181321	1.224865
C145	C	1.268259	-0.318667	0.779466
C146	C	1.768259	0.181333	1.279466
C147	C	1.216738	-0.285224	0.806766
C148	C	1.716738	0.214776	1.306766
C149	C	1.165207	-0.251792	0.779466
C150	C	1.665207	0.248208	1.279466
C151	C	1.062130	-0.184928	0.724870
C152	C	1.562130	0.315072	1.224870
C153	C	1.062139	-0.184923	0.779477
C154	C	1.562139	0.315077	1.279477
C155	C	1.113675	-0.218357	0.806776
C156	C	1.613675	0.281643	1.306776
C157	C	1.113694	-0.218337	0.861368
C158	C	1.613694	0.281663	1.361368
N159	N	1.165221	-0.251772	0.888670
N160	N	1.665221	0.248228	1.388670
C161	C	1.216743	-0.285216	0.861370
C162	C	1.716743	0.214784	1.361370
C163	C	1.113649	-0.218397	0.528292
C164	C	1.613649	0.281603	1.028292
C165	C	1.113647	-0.218402	0.473690
C166	C	1.613647	0.281598	0.973690
C167	C	1.216700	-0.285284	0.473692
C168	C	1.716700	0.214716	0.973692
C169	C	1.216705	-0.285276	0.528295
C170	C	1.716705	0.214724	1.028295
C171	C	1.165175	-0.251833	0.555595
C172	C	1.665175	0.248167	1.055595
C173	C	1.216759	-0.285188	0.976035
C174	C	1.716759	0.214812	1.476035
C175	C	1.216766	-0.285172	1.030640
C176	C	1.716766	0.214828	1.530640
C177	C	1.113710	-0.218293	1.030633
C178	C	1.613710	0.281707	1.530633
C179	C	1.113706	-0.218307	0.976033
C180	C	1.613706	0.281693	1.476033
C181	C	1.165233	-0.251759	0.948735
C182	C	1.665233	0.248241	1.448735
O183	O	1.069920	-0.189898	0.889650
O184	O	1.569920	0.310102	1.389650
O185	O	1.260557	-0.313654	0.889613
O186	O	1.760557	0.186346	1.389613
H187	H	1.258672	-0.549931	0.191283
H188	H	1.758672	-0.049931	0.691283
H189	H	1.310407	-0.801086	0.157907
H190	H	1.810407	-0.301086	0.657907
N191	N	1.269334	-0.319438	0.445791
N192	N	1.769334	0.180562	0.945791
N193	N	1.269318	-0.319435	0.397038
N194	N	1.769318	0.180565	0.897038
H195	H	1.306491	-0.343552	0.377331
H196	H	1.806491	0.156448	0.877331
N197	N	1.269291	-0.445215	0.184351
N198	N	1.769291	0.054785	0.684351
N199	N	1.320638	-0.414698	0.202769
N200	N	1.820638	0.085302	0.702769
H201	H	1.357853	-0.394989	0.178668
H202	H	1.857853	0.105011	0.678668
H203	H	1.310223	-0.345894	0.801688
H204	H	1.810223	0.154106	1.301688
N205	N	1.009257	-0.696477	0.352868
N206	N	1.509257	-0.196477	0.852868
N207	N	0.963213	-0.720878	0.382696
N208	N	1.463213	-0.220878	0.882696
H209	H	0.925979	-0.701204	0.406803
H210	H	1.425979	-0.201204	0.906803
H211	H	1.071705	-1.052343	0.312552
H212	H	1.571705	-0.552343	0.812552
H213	H	1.071765	-0.191063	1.052872
H214	H	1.571765	0.308937	1.552872
N215	N	1.009491	-0.150777	0.696986
N216	N	1.509491	0.349223	1.196986
N217	N	1.037877	-0.117460	0.666529
N218	N	1.537877	0.382540	1.166529
H219	H	1.000697	-0.093340	0.646837
H220	H	1.500697	0.406660	1.146837
N221	N	1.321039	-0.696386	0.150966
N222	N	1.821039	-0.196386	0.650966
N223	N	1.367113	-0.720762	0.121148
N224	N	1.867113	-0.220762	0.621148
H225	H	1.404334	-0.701067	0.097040
H226	H	1.904334	-0.201067	0.597040
H227	H	1.258736	-0.312398	1.052865
H228	H	1.758736	0.187602	1.552865
H229	H	1.258722	-0.312425	0.953815
H230	H	1.758722	0.187575	1.453815
N231	N	1.269578	-0.947572	0.184396
N232	N	1.769578	-0.447572	0.684396
N233	N	1.315648	-0.971945	0.154574
N234	N	1.815648	-0.471945	0.654574
H235	H	1.352865	-0.952249	0.130464
H236	H	1.852865	-0.452249	0.630464
N237	N	1.320884	-0.352849	0.696992
N238	N	1.820884	0.147151	1.196992
N239	N	1.366883	-0.382695	0.721384
N240	N	1.866883	0.117305	1.221384
H241	H	1.404064	-0.406828	0.701702
H242	H	1.904064	0.093172	1.201702
N243	N	1.060965	-0.947645	0.319476
N244	N	1.560965	-0.447645	0.819476
N245	N	1.014916	-0.972050	0.349299
N246	N	1.514916	-0.472050	0.849299
H247	H	0.977677	-0.952378	0.373404
H248	H	1.477677	-0.452378	0.873404
N249	N	1.269359	-0.319426	0.556170
N250	N	1.769359	0.180574	1.056170
N251	N	1.315361	-0.349278	0.531782
N252	N	1.815361	0.150722	1.031782
H253	H	1.352552	-0.373398	0.551466
H254	H	1.852552	0.126602	1.051466
N255	N	1.060730	-0.555662	0.319421
N256	N	1.560730	-0.055662	0.819421
N257	N	1.014647	-0.531292	0.349238
N258	N	1.514647	-0.031292	0.849238
H259	H	0.977425	-0.550992	0.373341
H260	H	1.477425	-0.050992	0.873341
N261	N	1.061024	-0.184238	0.445807
N262	N	1.561024	0.315762	0.945807
N263	N	1.066435	-0.135993	0.451920
N264	N	1.566435	0.364007	0.951920
H265	H	1.029266	-0.111864	0.432229
H266	H	1.529266	0.388136	0.932229
N267	N	1.269627	-1.057952	0.184416
N268	N	1.769627	-0.557952	0.684416
N269	N	1.269639	-1.106704	0.184430
N270	N	1.769639	-0.606704	0.684430
H271	H	1.306864	-1.126399	0.160335
H272	H	1.806864	-0.626399	0.660335
H273	H	1.019992	-0.801176	0.345948
H274	H	1.519992	-0.301176	0.845948
N275	N	1.060682	-0.445279	0.319403
N276	N	1.560682	0.054721	0.819403
N277	N	1.060668	-0.396527	0.319388
N278	N	1.560668	0.103473	0.819388
H279	H	1.023437	-0.376832	0.343480
H280	H	1.523437	0.123168	0.843480
H281	H	1.071689	-0.191159	0.550516
H282	H	1.571689	0.308841	1.050516
N283	N	1.061090	-0.184142	0.948140
N284	N	1.561090	0.315858	1.448140
N285	N	1.066508	-0.135896	0.954247
N286	N	1.566508	0.364104	1.454247
H287	H	1.029347	-0.111768	0.934549
H288	H	1.529347	0.388232	1.434549
H289	H	1.020177	-0.157689	0.801701
H290	H	1.520177	0.342311	1.301701
