data_functionalizedCrystal
_audit_creation_method	'MofGen! by Chris Wilmer'
_symmetry_space_group_name_H-M	'P1'
_symmetry_Int_Tables_number	1
_symmetry_cell_setting	triclinic
loop_
_symmetry_equiv_pos_as_xyz
  x,y,z
_cell_length_a	13.339071
_cell_length_b	15.944493
_cell_length_c	11.804783
_cell_angle_alpha	76.699951
_cell_angle_beta	80.564407
_cell_angle_gamma	99.552161
loop_
_atom_site_label
_atom_site_type_symbol
_atom_site_fract_x
_atom_site_fract_y
_atom_site_fract_z
O1	O	1.323993	0.401705	0.098984
O2	O	1.029476	0.346433	0.098989
O3	O	1.184806	0.253670	0.098997
O4	O	1.168663	0.494468	0.098977
O5	O	1.221230	0.292450	-0.099048
O6	O	1.065900	0.385213	-0.099055
O7	O	1.360418	0.440485	-0.099060
Cu8	Cu	1.216485	0.416390	-0.117140
Cu9	Cu	1.173409	0.370528	0.117070
O10	O	1.205088	0.533248	-0.099067
C11	C	1.010000	0.356487	-0.000032
C12	C	0.897703	0.328657	-0.000029
C13	C	0.857020	0.241872	-0.000026
C14	C	0.751511	0.215721	-0.000018
C15	C	0.686675	0.276353	-0.000022
C16	C	0.727359	0.363141	-0.000033
C17	C	0.832877	0.389293	-0.000032
C18	C	0.662532	0.423775	-0.000027
C19	C	0.703216	0.510563	-0.000038
C20	C	0.808724	0.536710	-0.000038
C21	C	0.873560	0.476078	-0.000034
C22	C	0.557014	0.397623	-0.000028
C23	C	0.532871	0.545044	-0.000034
C24	C	0.638381	0.571195	-0.000042
C25	C	1.202357	0.241611	-0.000020
C26	C	1.200376	0.147898	-0.000005
C27	C	1.291812	-0.066552	-0.000029
C28	C	1.224547	-0.147730	0.097617
C29	C	1.196713	-0.023674	-0.000020
C30	C	1.260437	-0.109477	-0.097639
C31	C	1.193182	-0.189404	-0.000039
C32	C	1.129458	-0.103634	0.097707
C33	C	1.165378	-0.065357	-0.097636
C34	C	1.098039	-0.146523	0.000034
C35	C	1.198749	0.071798	-0.000008
C36	C	1.191137	-0.284877	-0.000043
C37	C	1.379893	0.430431	-0.000036
C38	C	1.492189	0.458259	-0.000031
C39	C	1.187536	0.545307	-0.000047
C40	C	1.189516	0.639018	-0.000055
N41	N	1.246790	0.448648	-0.281871
C42	C	1.070302	0.260787	-0.655877
C43	C	1.047357	0.236374	-0.531223
C44	C	1.097213	0.289441	-0.468879
C45	C	1.170019	0.366924	-0.531201
C46	C	1.192972	0.391336	-0.655868
C47	C	1.219883	0.419989	-0.468869
C48	C	1.292689	0.497472	-0.531192
C49	C	1.315638	0.521880	-0.655846
C50	C	1.265782	0.468814	-0.718190
C51	C	1.196930	0.395578	-0.344203
C52	C	1.319599	0.526126	-0.344193
C53	C	1.342545	0.550539	-0.468848
N54	N	1.143112	0.338265	0.281801
H55	H	0.841842	0.607375	-0.000029
H56	H	0.988082	0.173286	-0.480489
O57	O	0.707644	0.122121	-0.000016
H58	H	0.645311	0.090866	0.080709
H59	H	1.140435	-0.029581	-0.180192
O60	O	0.926945	0.176482	-0.000029
H61	H	1.007150	0.209251	-0.000039
H62	H	1.249525	-0.183482	0.180169
H63	H	0.480082	0.594416	-0.000036
H64	H	1.284456	0.488690	-0.819694
O65	O	0.682267	0.664801	-0.000058
H66	H	0.641379	0.679327	0.080653
H67	H	1.016051	-0.181102	0.000089
O68	O	0.987368	0.504294	-0.000070
H69	H	1.025613	0.447553	-0.000075
H70	H	1.373709	-0.031855	0.000067
H71	H	1.074121	-0.100349	0.180348
H72	H	1.315800	-0.112881	-0.180186
H73	H	1.137650	0.332491	-0.293472
H74	H	1.078526	0.269559	-0.367380
H75	H	1.029724	0.217585	-0.706649
O76	O	1.394168	0.605446	-0.723072
H77	H	1.424975	0.638251	-0.658783
H78	H	1.401824	0.613627	-0.519608
H79	H	1.360198	0.569337	-0.293433
H80	H	0.523900	0.326959	-0.000019
H81	H	0.600766	0.255056	-0.000015
