data_functionalizedCrystal
_audit_creation_method	'MofGen! by Chris Wilmer'
_symmetry_space_group_name_H-M	'P1'
_symmetry_Int_Tables_number	1
_symmetry_cell_setting	triclinic
loop_
_symmetry_equiv_pos_as_xyz
  x,y,z
_cell_length_a	12.759401
_cell_length_b	12.759394
_cell_length_c	12.759393
_cell_angle_alpha	90.031775
_cell_angle_beta	90.020473
_cell_angle_gamma	90.016362
loop_
_atom_site_label
_atom_site_type_symbol
_atom_site_fract_x
_atom_site_fract_y
_atom_site_fract_z
Zn1	Zn	1.606261	-0.418167	0.594015
Zn2	Zn	1.606153	-0.593885	0.418333
Zn3	Zn	1.430561	-0.418225	0.418350
Zn4	Zn	1.430551	-0.593809	0.593970
O5	O	1.518381	-0.506021	0.506167
O6	O	1.753267	-0.441484	0.570722
O7	O	1.582819	-0.570638	0.271314
O8	O	1.453917	-0.271196	0.441678
O9	O	1.753188	-0.570583	0.441649
O10	O	1.583003	-0.271154	0.570739
O11	O	1.453812	-0.441582	0.271327
O12	O	1.283538	-0.441509	0.441635
O13	O	1.453900	-0.570455	0.740997
O14	O	1.283531	-0.570510	0.570662
O15	O	1.582993	-0.441411	0.741030
O16	O	1.582809	-0.740896	0.441605
O17	O	1.453795	-0.740840	0.570645
C18	C	1.245414	-0.506009	0.506146
C19	C	1.128637	-0.506028	0.506162
C20	C	1.073799	-0.573302	0.573241
C21	C	0.964075	-0.573306	0.573262
C22	C	0.964037	-0.438760	0.439116
C23	C	1.073759	-0.438752	0.439101
C24	C	0.814178	-0.611003	0.697122
C25	C	0.759336	-0.678293	0.764191
C26	C	0.794933	-0.780823	0.780138
C27	C	0.885371	-0.816085	0.728999
C28	C	0.940207	-0.748801	0.661922
C29	C	0.904611	-0.646256	0.645996
C30	C	1.223658	-0.401065	0.315240
C31	C	1.278496	-0.333786	0.248156
C32	C	1.242901	-0.231253	0.232199
C33	C	1.152460	-0.195995	0.283319
C34	C	1.097622	-0.263275	0.350402
C35	C	1.133225	-0.365806	0.366361
C36	C	1.518318	-0.778989	0.506141
C37	C	1.518387	-0.895766	0.506166
C38	C	1.652830	-0.895770	0.371897
C39	C	1.720079	-0.950633	0.304775
C40	C	1.720141	-1.060354	0.304804
C41	C	1.652948	-1.115215	0.371964
C42	C	1.585700	-1.060353	0.439086
C43	C	1.585643	-0.950628	0.439048
C44	C	1.451263	-1.060348	0.573358
C45	C	1.451195	-0.950627	0.573326
C46	C	1.384071	-1.115210	0.640518
C47	C	1.316815	-1.060347	0.707636
C48	C	1.316756	-0.950619	0.707604
C49	C	1.383946	-0.895764	0.640448
C50	C	1.792414	-0.506035	0.506188
C51	C	1.909191	-0.506041	0.506198
C52	C	1.518458	-0.505918	0.780200
C53	C	1.518490	-0.505874	0.896977
C54	C	1.518473	-0.231988	0.506215
C55	C	1.518512	-0.115211	0.506236
C56	C	1.518366	-0.506049	0.233200
C57	C	1.518536	-0.505797	0.116423
C58	C	1.585736	-0.438630	1.061589
C59	C	1.585715	-0.438671	0.951865
C60	C	1.451288	-0.573048	0.951819
C61	C	1.451314	-0.573012	1.061541
C62	C	1.709598	-0.401191	0.801938
C63	C	1.776788	-0.334008	0.747100
C64	C	1.792963	-0.231482	0.782736
C65	C	1.741932	-0.196119	0.873208
C66	C	1.674735	-0.263297	0.928040
C67	C	1.658580	-0.365836	0.892406
C68	C	1.327430	-0.610481	1.211470
C69	C	1.260226	-0.677654	1.266305
C70	C	1.244041	-0.780181	1.230671
C71	C	1.295053	-0.815540	1.140195
C72	C	1.362257	-0.748367	1.085361
C73	C	1.378444	-0.645842	1.121002
H74	H	0.685702	-0.649572	0.805829
H75	H	1.653014	-1.204556	0.371990
H76	H	0.750273	-0.835611	0.834748
H77	H	1.755097	-0.112628	0.902208
H78	H	1.384130	-1.204551	0.640541
H79	H	1.262118	-1.105024	0.762317
H80	H	1.774906	-1.105023	0.250152
O81	O	1.296317	-0.166020	0.167028
C82	C	1.383754	-0.219132	0.125293
H83	H	1.406231	-0.286570	0.179380
H84	H	1.452462	-0.162438	0.118276
H85	H	1.363274	-0.251335	0.044476
O86	O	0.920062	-0.915673	0.744332
C87	C	1.011654	-0.932356	0.684838
H88	H	1.013885	-0.874542	0.616788
H89	H	1.011684	-1.015846	0.652977
H90	H	1.083455	-0.920170	0.736638
O91	O	1.210502	-0.643293	1.354093
C92	C	1.101168	-0.649664	1.339336
H93	H	1.082783	-0.648711	1.251903
H94	H	1.061705	-0.579923	1.378858
H95	H	1.070606	-0.725508	1.375315
H96	H	1.261998	-0.905955	0.762267
H97	H	1.403794	-0.777166	1.011691
O98	O	1.117731	-0.096461	0.267715
C99	C	1.015690	-0.099296	0.225364
H100	H	1.002336	-0.177889	0.184968
H101	H	1.006289	-0.033303	0.165908
H102	H	0.955934	-0.088989	0.290967
H103	H	1.383897	-0.806423	0.640408
O104	O	0.910564	-0.373512	0.374008
C105	C	0.801960	-0.387924	0.388422
H106	H	0.786973	-0.469049	0.422685
H107	H	0.760222	-0.380700	0.309746
H108	H	0.770866	-0.325679	0.444489
O109	O	1.652929	-0.789187	0.371762
C110	C	1.726628	-0.752530	0.298072
H111	H	1.788056	-0.815718	0.283428
H112	H	1.766437	-0.679060	0.329778
H113	H	1.684987	-0.733169	0.221426
H114	H	1.252655	-0.484553	0.328236
O115	O	1.366240	-0.368189	0.198405
C116	C	1.340846	-0.454822	0.134616
H117	H	1.266365	-0.493531	0.165201
H118	H	1.407938	-0.513779	0.136393
H119	H	1.327701	-0.427212	0.050675
H120	H	1.847671	-0.176782	0.738078
H121	H	1.640472	-0.383899	1.106271
H122	H	1.774789	-0.905955	0.250096
H123	H	1.633174	-0.234500	1.001691
H124	H	0.785193	-0.527511	0.684155
O125	O	1.826534	-0.368281	0.659289
C126	C	1.935864	-0.361921	0.674077
H127	H	1.953929	-0.301450	0.737364
H128	H	1.974881	-0.337476	0.597532
H129	H	1.967189	-0.441690	0.699293
H130	H	1.696445	-0.484678	0.772921
O131	O	1.386138	-0.638381	0.898380
C132	C	1.445926	-0.706272	0.834923
H133	H	1.525555	-0.669222	0.818516
H134	H	1.403118	-0.720369	0.757752
H135	H	1.457452	-0.784120	0.877187
H136	H	1.281876	-0.899027	1.111183
H137	H	1.189347	-0.834884	1.275350
O138	O	1.009878	-0.228920	0.400187
C139	C	1.035229	-0.142243	0.463934
H140	H	1.122331	-0.144270	0.483751
H141	H	0.987465	-0.145738	0.539342
H142	H	1.016390	-0.066632	0.420259
H143	H	1.340609	-0.526997	1.240496
H144	H	1.013839	-0.777511	0.620286
O145	O	1.127062	-0.638531	0.638539
C146	C	1.100285	-0.615709	0.743292
H147	H	1.070143	-0.531785	0.748742
H148	H	1.172465	-0.624813	0.795173
H149	H	1.036597	-0.672072	0.770666
