data_functionalizedCrystal
_audit_creation_method	'MofGen! by Chris Wilmer'
_symmetry_space_group_name_H-M	'P1'
_symmetry_Int_Tables_number	1
_symmetry_cell_setting	triclinic
loop_
_symmetry_equiv_pos_as_xyz
  x,y,z
_cell_length_a	19.288840
_cell_length_b	10.654551
_cell_length_c	18.366186
_cell_angle_alpha	90.001303
_cell_angle_beta	89.986410
_cell_angle_gamma	83.805689
loop_
_atom_site_label
_atom_site_type_symbol
_atom_site_fract_x
_atom_site_fract_y
_atom_site_fract_z
O1	O	0.922387	0.156498	-0.060667
O2	O	0.720262	0.177664	-0.060641
O3	O	0.825971	-0.015758	-0.060655
O4	O	0.816678	0.349921	-0.060653
O5	O	0.825958	-0.015751	0.060444
O6	O	0.720249	0.177671	0.060458
O7	O	0.922373	0.156505	0.060432
Zn8	Zn	0.821309	0.167089	0.079672
Zn9	Zn	0.821327	0.167080	-0.079881
O10	O	0.816664	0.349927	0.060446
C11	C	0.694374	0.176992	-0.000088
C12	C	0.617256	0.174963	-0.000079
C13	C	0.581054	0.173985	-0.066092
C14	C	0.508595	0.172065	-0.066101
C15	C	0.472342	0.171097	-0.000093
C16	C	0.508553	0.172083	0.065929
C17	C	0.581010	0.174016	0.065936
C18	C	0.362507	0.094483	0.050468
C19	C	0.290051	0.092543	0.050458
C20	C	0.248859	0.165142	-0.000112
C21	C	0.280133	0.239665	-0.050684
C22	C	0.352590	0.241598	-0.050677
C23	C	0.393774	0.169002	-0.000093
C24	C	0.134088	0.162084	-0.066139
C25	C	0.061627	0.160171	-0.066145
C26	C	0.061587	0.160177	0.065886
C27	C	0.134046	0.162102	0.065891
C28	C	0.170293	0.163049	-0.000124
C29	C	0.825282	-0.062538	-0.000107
C30	C	0.823240	-0.201937	-0.000112
C31	C	0.822289	-0.267432	-0.066121
C32	C	0.820365	-0.398411	-0.066118
C33	C	0.820344	-0.398389	0.065911
C34	C	0.822264	-0.267411	0.065907
C35	C	0.823266	-0.201958	-0.132140
C36	C	0.822316	-0.267453	-0.198155
C37	C	0.820391	-0.398432	-0.198152
C38	C	0.819416	-0.463916	-0.132133
C39	C	0.948261	0.157178	-0.000122
C40	C	1.025379	0.159206	-0.000137
C41	C	0.817353	0.396707	-0.000103
C42	C	0.819395	0.536106	-0.000104
N43	N	0.821301	0.167094	0.188564
N44	N	0.821339	0.167065	-0.188772
C45	C	0.863830	0.243017	0.773108
C46	C	0.863823	0.243030	0.696880
C47	C	0.821333	0.167066	0.658775
C48	C	0.778834	0.091109	0.696904
C49	C	0.778837	0.091109	0.773130
C50	C	0.818865	0.053845	0.538009
C51	C	0.818866	0.053843	0.461784
C52	C	0.821319	0.167069	0.423667
C53	C	0.823785	0.280300	0.461785
C54	C	0.823788	0.280299	0.538012
C55	C	0.821325	0.167059	0.576120
C56	C	0.863804	0.243042	0.302893
C57	C	0.863792	0.243057	0.226664
C58	C	0.778807	0.091125	0.226689
C59	C	0.778815	0.091121	0.302916
C60	C	0.821318	0.167078	0.341014
H61	H	0.264595	0.031855	0.091634
H62	H	0.378049	0.302280	-0.091853
Br63	Br	0.721166	-0.011976	0.824868
H64	H	0.610485	0.174813	0.119694
H65	H	0.823023	-0.214081	0.119658
Br66	Br	0.921507	0.346108	0.824809
H67	H	0.163601	0.162868	-0.119892
Br68	Br	0.816794	-0.641672	-0.132130
H69	H	0.898423	0.304884	0.665837
H70	H	0.479031	0.171298	0.119673
H71	H	0.825794	0.372496	0.569044
H72	H	0.816861	-0.038363	0.569037
Br73	Br	0.819021	-0.487259	0.155502
H74	H	0.744237	0.029262	0.665874
H75	H	0.824835	-0.095309	-0.132150
H76	H	0.823103	-0.214126	-0.251905
H77	H	0.819611	-0.451753	-0.251904
H78	H	0.825783	0.372500	0.430753
Br79	Br	0.921483	0.346125	0.354601
H80	H	0.246595	0.298788	-0.091861
Br81	Br	0.012492	0.158860	-0.155743
Br82	Br	0.921445	0.346179	0.174928
Br83	Br	0.721133	-0.011956	0.174983
H84	H	0.744218	0.029267	0.333954
H85	H	0.032070	0.159397	0.119632
H86	H	0.816864	-0.038357	0.430754
Br87	Br	0.183182	0.163426	0.155485
H88	H	0.610561	0.174756	-0.119846
H89	H	0.396040	0.035361	0.091652
Br90	Br	0.459451	0.170740	-0.155696
