data_functionalizedCrystal
_audit_creation_method	'MofGen! by Chris Wilmer'
_symmetry_space_group_name_H-M	'P1'
_symmetry_Int_Tables_number	1
_symmetry_cell_setting	triclinic
loop_
_symmetry_equiv_pos_as_xyz
  x,y,z
_cell_length_a	17.699077
_cell_length_b	17.019294
_cell_length_c	16.776229
_cell_angle_alpha	86.114377
_cell_angle_beta	89.993415
_cell_angle_gamma	83.337580
loop_
_atom_site_label
_atom_site_type_symbol
_atom_site_fract_x
_atom_site_fract_y
_atom_site_fract_z
O1	O	1.004150	0.099735	-0.073122
O2	O	0.783780	0.112718	-0.074017
O3	O	0.900112	-0.008619	-0.065683
O4	O	0.887818	0.221071	-0.081457
O5	O	0.900097	-0.008626	0.066894
O6	O	0.783764	0.112711	0.058560
O7	O	1.004135	0.099727	0.059455
Zn8	Zn	0.893947	0.106218	0.080057
Zn9	Zn	0.893967	0.106227	-0.094619
O10	O	0.887802	0.221064	0.051120
C11	C	0.755575	0.112250	-0.007697
C12	C	0.671556	0.110857	-0.007603
C13	C	0.632079	0.110196	0.064711
C14	C	0.553136	0.108874	0.064802
C15	C	0.513669	0.108219	-0.007421
C16	C	0.553151	0.108877	-0.079740
C17	C	0.632094	0.110193	-0.079831
C18	C	0.234784	0.103569	-0.079377
C19	C	0.155836	0.102255	-0.079281
C20	C	0.155826	0.102250	0.065256
C21	C	0.234769	0.103566	0.065165
C22	C	0.274245	0.104220	-0.007153
C23	C	0.359844	0.105651	-0.007251
C24	C	0.428070	0.106793	-0.007324
C25	C	0.899638	-0.038011	0.002622
C26	C	0.898239	-0.125579	0.008631
C27	C	0.897592	-0.166710	-0.060813
C28	C	0.896273	-0.248988	-0.055165
C29	C	0.895606	-0.290135	0.019928
C30	C	0.896251	-0.248998	0.089378
C31	C	0.897565	-0.166720	0.083729
C32	C	0.891634	-0.538561	0.040600
C33	C	0.890322	-0.620845	0.046244
C34	C	0.890343	-0.620830	-0.098300
C35	C	0.891661	-0.538551	-0.103942
C36	C	0.892302	-0.497420	-0.034493
C37	C	0.894260	-0.374238	0.025703
C38	C	0.893643	-0.413319	-0.040269
C39	C	1.032340	0.100195	-0.006867
C40	C	1.116359	0.101589	-0.006966
C41	C	0.888276	0.250456	-0.017187
C42	C	0.889675	0.338024	-0.023201
N43	N	0.893939	0.106211	0.199268
N44	N	0.893982	0.106228	-0.213831
C45	C	0.945466	0.052505	0.244674
C46	C	0.945471	0.052504	0.328127
C47	C	0.893950	0.106214	0.366171
C48	C	0.842417	0.159922	0.320759
C49	C	0.842410	0.159918	0.237309
C50	C	0.842444	0.159938	0.657305
C51	C	0.842457	0.159939	0.740762
C52	C	0.945505	0.052523	0.748123
C53	C	0.945498	0.052519	0.664673
C54	C	0.893963	0.106225	0.619268
C55	C	0.893958	0.106224	0.528780
C56	C	0.893958	0.106219	0.456658
H57	H	0.664234	0.110733	-0.138716
H58	H	0.123676	0.101714	0.124141
Cl59	Cl	1.010243	-0.015017	0.196856
H60	H	0.266916	0.104099	-0.138263
Cl61	Cl	0.777644	0.227440	0.368584
Cl62	Cl	1.010248	-0.015014	0.385210
H63	H	0.894180	-0.379813	-0.101409
Cl64	Cl	0.503540	0.108024	-0.170534
Cl65	Cl	1.010271	-0.015001	0.616849
Cl66	Cl	0.777626	0.227435	0.180227
H67	H	0.664206	0.110736	0.123523
H68	H	0.898139	-0.133214	-0.121962
H69	H	0.895749	-0.282474	-0.111714
Cl70	Cl	1.010291	-0.014997	0.805208
H71	H	0.123705	0.101720	-0.138098
H72	H	0.889776	-0.654344	0.107397
H73	H	0.892205	-0.505055	-0.165091
H74	H	0.800500	0.203677	0.771735
Cl75	Cl	0.503510	0.108058	0.155714
Cl76	Cl	0.892428	-0.486863	0.127909
Cl77	Cl	0.893418	-0.425971	0.120104
Cl78	Cl	0.889536	-0.672541	-0.185602
H79	H	0.895703	-0.282506	0.150520
Cl80	Cl	0.777662	0.227454	0.600230
Cl81	Cl	0.284379	0.104394	0.155963
H82	H	0.898081	-0.133231	0.140278
