data_functionalizedCrystal
_audit_creation_method	'MofGen! by Chris Wilmer'
_symmetry_space_group_name_H-M	'P1'
_symmetry_Int_Tables_number	1
_symmetry_cell_setting	triclinic
loop_
_symmetry_equiv_pos_as_xyz
  x,y,z
_cell_length_a	12.645331
_cell_length_b	18.050589
_cell_length_c	12.645323
_cell_angle_alpha	89.974557
_cell_angle_beta	89.977324
_cell_angle_gamma	90.027200
loop_
_atom_site_label
_atom_site_type_symbol
_atom_site_fract_x
_atom_site_fract_y
_atom_site_fract_z
Zn1	Zn	1.620654	-0.295674	-0.599442
Zn2	Zn	2.120654	0.204326	-0.099442
Zn3	Zn	1.620503	-0.419873	-0.422180
Zn4	Zn	2.120503	0.080127	0.077820
Zn5	Zn	1.443368	-0.295699	-0.422186
Zn6	Zn	1.943368	0.204301	0.077814
Zn7	Zn	1.443317	-0.419824	-0.599396
Zn8	Zn	1.943317	0.080176	-0.099396
O9	O	1.531961	-0.357767	-0.510801
O10	O	2.031961	0.142233	-0.010801
O11	O	1.768981	-0.312159	-0.575945
O12	O	2.268981	0.187841	-0.075945
O13	O	1.596964	-0.403432	-0.273834
O14	O	2.096964	0.096568	0.226166
O15	O	1.466970	-0.191771	-0.445722
O16	O	1.966970	0.308229	0.054278
O17	O	1.768870	-0.403407	-0.445711
O18	O	2.268870	0.096593	0.054289
O19	O	1.597221	-0.191753	-0.575951
O20	O	2.097221	0.308247	-0.075951
O21	O	1.466824	-0.312202	-0.273838
O22	O	1.966824	0.187798	0.226162
O23	O	1.295014	-0.312155	-0.445677
O24	O	1.795014	0.187845	0.054323
O25	O	1.466883	-0.403325	-0.747749
O26	O	1.966883	0.096675	-0.247749
O27	O	1.294977	-0.403349	-0.575872
O28	O	1.794977	0.096651	-0.075872
O29	O	1.597172	-0.312112	-0.747783
O30	O	2.097172	0.187888	-0.247783
O31	O	1.596914	-0.523791	-0.445666
O32	O	2.096914	-0.023791	0.054334
O33	O	1.466737	-0.523755	-0.575866
O34	O	1.966737	-0.023755	-0.075866
C35	C	1.256531	-0.357750	-0.510770
C36	C	1.756531	0.142250	-0.010770
C37	C	1.138701	-0.357760	-0.510783
C38	C	1.638701	0.142240	-0.010783
C39	C	0.971125	-0.300126	-0.429329
C40	C	1.471125	0.199874	0.070671
C41	C	1.093685	-0.300275	-0.428970
C42	C	1.593685	0.199725	0.071030
C43	C	1.094160	-0.435993	-0.480267
C44	C	1.594160	0.064007	0.019733
C45	C	0.971562	-0.435678	-0.479711
C46	C	1.471562	0.064322	0.020289
C47	C	0.971557	-0.337906	-0.623067
C48	C	1.471557	0.162094	-0.123067
C49	C	1.094163	-0.336158	-0.622443
C50	C	1.594163	0.163842	-0.122443
C51	C	1.531833	-0.550720	-0.510784
C52	C	2.031833	-0.050720	-0.010784
C53	C	1.531875	-0.633265	-0.510811
C54	C	2.031875	-0.133265	-0.010811
C55	C	1.461154	-0.832724	-0.581589
C56	C	1.961154	-0.332724	-0.081589
C57	C	1.435307	-0.882166	-0.484854
C58	C	1.935307	-0.382166	0.015146
C59	C	1.531979	-0.784396	-0.510825
C60	C	2.031979	-0.284396	-0.010825
C61	C	1.557878	-0.882035	-0.607571
C62	C	2.057878	-0.382035	-0.107571
C63	C	1.532078	-0.930381	-0.510847
C64	C	2.032078	-0.430381	-0.010847
C65	C	1.506082	-0.832751	-0.414039
C66	C	2.006082	-0.332751	0.085961
C67	C	1.628697	-0.832616	-0.536821
C68	C	2.128697	-0.332616	-0.036821
C69	C	1.602887	-0.882036	-0.440020
C70	C	2.102887	-0.382036	0.059980
C71	C	1.531919	-0.700297	-0.510814
C72	C	2.031919	-0.200297	-0.010814
C73	C	1.532137	-1.014477	-0.510847
C74	C	2.032137	-0.514477	-0.010847
C75	C	1.808466	-0.357786	-0.510832
C76	C	2.308466	0.142214	-0.010832
C77	C	1.926296	-0.357793	-0.510846
C78	C	2.426296	0.142207	-0.010846
C79	C	1.532039	-0.357710	-0.787307
C80	C	2.032039	0.142290	-0.287307
C81	C	1.532072	-0.357686	-0.905137
C82	C	2.032072	0.142314	-0.405137
C83	C	1.532118	-0.164062	-0.510842
C84	C	2.032118	0.335938	-0.010842
C85	C	1.532185	-0.081516	-0.510859
C86	C	2.032185	0.418484	-0.010859
C87	C	1.449855	-0.414797	-1.072679
C88	C	1.949855	0.085203	-0.572679
C89	C	1.450070	-0.415080	-0.950119
C90	C	1.950070	0.084920	-0.450119
C91	C	1.643766	-0.378927	-0.949656
C92	C	2.143766	0.121073	-0.449656
C93	C	1.643315	-0.379285	-1.072254
C94	C	2.143315	0.120715	-0.572254
C95	C	1.503651	-0.279014	-1.072336
C96	C	2.003651	0.220986	-0.572336
C97	C	1.501159	-0.279485	-0.949729
C98	C	2.001159	0.220515	-0.449729
C99	C	1.531944	-0.357771	-0.235371
C100	C	2.031944	0.142229	0.264629
C101	C	1.532116	-0.357586	-0.117542
C102	C	2.032116	0.142414	0.382458
H103	H	1.123282	-0.278587	-0.645454
H104	H	1.623282	0.221413	-0.145454
Br105	Br	1.748866	-0.312801	-1.121728
Br106	Br	2.248866	0.187199	-0.621728
Br107	Br	1.311388	-0.392853	-1.121790
Br108	Br	1.811388	0.107147	-0.621790
Br109	Br	1.764915	-0.796313	-0.573511
Br110	Br	2.264915	-0.296313	-0.073511
H111	H	1.423623	-0.259652	-1.103240
H112	H	1.923623	0.240348	-0.603240
H113	H	1.353563	-0.903947	-0.462887
H114	H	1.853563	-0.403947	0.037113
H115	H	1.124811	-0.453148	-0.399108
H116	H	1.624811	0.046852	0.100892
H117	H	1.484121	-0.811191	-0.332209
H118	H	1.984121	-0.311191	0.167791
Br119	Br	1.143886	-0.203582	-0.460849
Br120	Br	1.643886	0.296418	0.039151
Br121	Br	1.702791	-0.917897	-0.340186
Br122	Br	2.202791	-0.417897	0.159814
H123	H	1.401172	-0.811071	-0.641347
H124	H	1.901172	-0.311071	-0.141347
H125	H	0.941676	-0.241938	-0.448251
H126	H	1.441676	0.258062	0.051749
Br127	Br	1.594320	-0.918124	-0.743919
Br128	Br	2.094320	-0.418124	-0.243919
Br129	Br	0.919680	-0.321773	-0.291540
Br130	Br	1.419680	0.178227	0.208460
H131	H	1.367244	-0.401788	-0.920018
H132	H	1.867244	0.098212	-0.420018
Br133	Br	1.145235	-0.401061	-0.729094
Br134	Br	1.645235	0.098939	-0.229094
H135	H	1.468461	-0.472682	-1.103498
H136	H	1.968461	0.027318	-0.603498
H137	H	1.468859	-0.473329	-0.920805
H138	H	1.968859	0.026671	-0.420805
H139	H	1.122959	-0.313420	-0.345809
H140	H	1.622959	0.186580	0.154191
Br141	Br	1.683533	-0.475018	-1.119946
Br142	Br	2.183533	0.024982	-0.619946
H143	H	1.706699	-0.338575	-0.920522
H144	H	2.206699	0.161425	-0.420522
Br145	Br	1.593739	-0.204681	-0.898711
Br146	Br	2.093739	0.295319	-0.398711
Br147	Br	0.923803	-0.463787	-0.342974
Br148	Br	1.423803	0.036213	0.157026
H149	H	1.668310	-0.435763	-0.918967
H150	H	2.168310	0.064237	-0.418967
H151	H	1.418962	-0.263466	-0.920630
H152	H	1.918962	0.236534	-0.420630
H153	H	0.941905	-0.480100	-0.536495
H154	H	1.441905	0.019900	-0.036495
Br155	Br	1.142737	-0.509524	-0.576128
Br156	Br	1.642737	-0.009524	-0.076128
Br157	Br	0.920090	-0.244481	-0.669323
Br158	Br	1.420090	0.255519	-0.169323
H159	H	0.942567	-0.379909	-0.683804
H160	H	1.442567	0.120091	-0.183804
Br161	Br	1.603513	-0.207970	-1.120690
Br162	Br	2.103513	0.292030	-0.620690
