data_functionalizedCrystal
_audit_creation_method	'MofGen! by Chris Wilmer'
_symmetry_space_group_name_H-M	'P1'
_symmetry_Int_Tables_number	1
_symmetry_cell_setting	triclinic
loop_
_symmetry_equiv_pos_as_xyz
  x,y,z
_cell_length_a	17.038272
_cell_length_b	17.038272
_cell_length_c	16.098547
_cell_angle_alpha	92.920556
_cell_angle_beta	87.069359
_cell_angle_gamma	91.111556
loop_
_atom_site_label
_atom_site_type_symbol
_atom_site_fract_x
_atom_site_fract_y
_atom_site_fract_z
O1	O	1.052033	0.167266	-0.069152
O2	O	0.824223	0.164557	-0.069177
O3	O	0.936774	0.052006	-0.069158
O4	O	0.939482	0.279817	-0.069171
O5	O	0.930196	0.058553	0.069354
O6	O	0.817645	0.171104	0.069335
O7	O	1.045456	0.173813	0.069359
Zn8	Zn	0.930506	0.173498	0.091339
Zn9	Zn	0.939172	0.164872	-0.091156
O10	O	0.932905	0.286364	0.069341
C11	C	0.791641	0.165367	0.000076
C12	C	0.704358	0.158019	0.000067
C13	C	0.658749	0.225482	0.000064
C14	C	0.576737	0.218574	0.000075
C15	C	0.540335	0.144201	0.000085
C16	C	0.585950	0.076733	0.000090
C17	C	0.667961	0.083642	0.000084
C18	C	0.292946	0.119792	0.000108
C19	C	0.210929	0.112887	0.000112
C20	C	0.201722	0.254729	0.000098
C21	C	0.283734	0.261632	0.000088
C22	C	0.329342	0.194164	0.000098
C23	C	0.456505	0.137138	0.000094
C24	C	0.413170	0.201228	0.000094
C25	C	0.931022	0.025987	0.000097
C26	C	0.923674	-0.061297	0.000096
C27	C	0.991137	-0.106906	0.000104
C28	C	0.984229	-0.188918	0.000096
C29	C	0.909856	-0.225320	0.000085
C30	C	0.842388	-0.179705	0.000074
C31	C	0.849297	-0.097694	0.000077
C32	C	0.885446	-0.472708	0.000071
C33	C	0.878541	-0.554725	0.000071
C34	C	1.020383	-0.563932	0.000091
C35	C	1.027286	-0.481920	0.000098
C36	C	0.959818	-0.436312	0.000083
C37	C	0.902792	-0.309149	0.000079
C38	C	0.966882	-0.352485	0.000084
C39	C	1.078037	0.173002	0.000105
C40	C	1.165320	0.180351	0.000108
C41	C	0.938656	0.312383	0.000083
C42	C	0.946005	0.399666	0.000079
N43	N	0.924598	0.179386	0.215887
C44	C	0.972388	0.131634	0.259480
C45	C	0.968263	0.135761	0.346668
C46	C	0.916350	0.187643	0.390262
C47	C	0.868554	0.235397	0.346663
C48	C	0.872676	0.231266	0.259476
C49	C	0.901406	0.202605	0.653510
C50	C	0.897290	0.206734	0.740702
C51	C	0.996998	0.107096	0.740702
C52	C	1.001119	0.102973	0.653513
C53	C	0.953320	0.150724	0.609922
C54	C	0.912134	0.191864	0.479383
C55	C	0.957533	0.146498	0.520803
N56	N	0.945080	0.158982	0.784295
H57	H	0.164579	0.309658	0.000092
H58	H	1.039165	-0.226050	0.000104
H59	H	0.539605	0.273510	0.000072
H60	H	0.181294	0.052321	0.000118
F61	F	0.451913	0.280379	0.000088
F62	F	0.777494	-0.049154	0.000066
H63	H	0.313367	0.322194	0.000070
F64	F	0.341475	0.047985	0.000119
H65	H	1.051699	-0.077274	0.000118
F66	F	0.850538	0.253426	0.607123
F67	F	0.842034	0.261959	0.787093
H68	H	0.426857	0.076584	0.000125
H69	H	0.817975	-0.584359	0.000075
H70	H	0.826281	0.277638	0.382162
H71	H	0.556305	0.016177	0.000110
H72	H	1.027437	-0.322844	0.000074
F73	F	0.716501	0.011838	0.000091
H74	H	0.842238	-0.338796	0.000072
H75	H	1.087848	-0.452287	0.000107
F76	F	0.821808	0.282088	0.213083
F77	F	1.012777	0.091280	0.474407
H78	H	0.830508	-0.435584	0.000059
F79	F	1.027646	0.076417	0.213093
H80	H	0.869866	0.234109	0.514884
H81	H	1.007177	0.096877	0.382161
H82	H	1.075312	-0.601075	0.000101
H83	H	0.688381	0.286045	0.000056
H84	H	0.781832	-0.209350	0.000060
H85	H	1.043390	0.060726	0.618021
F86	F	1.047864	0.056278	0.787100
