data_functionalizedCrystal
_audit_creation_method	'MofGen! by Chris Wilmer'
_symmetry_space_group_name_H-M	'P1'
_symmetry_Int_Tables_number	1
_symmetry_cell_setting	triclinic
loop_
_symmetry_equiv_pos_as_xyz
  x,y,z
_cell_length_a	16.109318
_cell_length_b	19.188924
_cell_length_c	15.186229
_cell_angle_alpha	89.994194
_cell_angle_beta	90.000224
_cell_angle_gamma	83.305264
loop_
_atom_site_label
_atom_site_type_symbol
_atom_site_fract_x
_atom_site_fract_y
_atom_site_fract_z
O1	O	1.102821	0.089802	-0.073159
O2	O	1.602821	0.589802	0.426841
O3	O	0.860724	0.100958	-0.073178
O4	O	1.360724	0.600958	0.426822
O5	O	0.988762	-0.006260	-0.073158
O6	O	1.488762	0.493740	0.426842
O7	O	0.974783	0.197019	-0.073179
O8	O	1.474783	0.697019	0.426821
O9	O	0.988754	-0.006261	0.073300
O10	O	1.488754	0.493739	0.573300
O11	O	0.860716	0.100956	0.073280
O12	O	1.360716	0.600956	0.573280
O13	O	1.102813	0.089800	0.073298
O14	O	1.602813	0.589800	0.573298
Zn15	Zn	0.981763	0.095378	0.096542
Zn16	Zn	1.481763	0.595378	0.596542
Zn17	Zn	0.981774	0.095380	-0.096422
Zn18	Zn	1.481774	0.595380	0.403578
O19	O	0.974775	0.197018	0.073278
O20	O	1.474775	0.697018	0.573278
C21	C	0.829747	0.100503	0.000049
C22	C	1.329747	0.600503	0.500049
C23	C	0.737457	0.099142	0.000042
C24	C	1.237457	0.599142	0.500042
C25	C	0.438402	0.094746	-0.079776
C26	C	0.938402	0.594746	0.420224
C27	C	0.525119	0.096021	-0.079781
C28	C	1.025119	0.596021	0.420219
C29	C	0.525129	0.096009	0.079894
C30	C	1.025129	0.596009	0.579894
C31	C	0.438414	0.094730	0.079899
C32	C	0.938414	0.594730	0.579899
C33	C	0.395053	0.094102	0.000061
C34	C	0.895053	0.594102	0.500061
C35	C	0.568484	0.096656	0.000051
C36	C	1.068484	0.596656	0.500051
C37	C	0.662507	0.098037	0.000046
C38	C	1.162507	0.598037	0.500046
C39	C	0.301024	0.092719	0.000066
C40	C	0.801024	0.592719	0.500066
C41	C	0.988306	-0.032272	0.000072
C42	C	1.488306	0.467728	0.500072
C43	C	0.986950	-0.109780	0.000074
C44	C	1.486950	0.390220	0.500074
C45	C	0.986322	-0.146180	-0.079760
C46	C	1.486322	0.353820	0.420240
C47	C	0.985036	-0.219006	-0.079767
C48	C	1.485036	0.280994	0.420233
C49	C	0.984395	-0.255431	0.000065
C50	C	1.484395	0.244569	0.500065
C51	C	0.985019	-0.219022	0.079910
C52	C	1.485019	0.280978	0.579910
C53	C	0.986296	-0.146197	0.079914
C54	C	1.486296	0.353803	0.579914
N55	N	1.029698	-0.374987	0.059485
N56	N	1.529698	0.125013	0.559485
N57	N	1.028486	-0.444168	0.059476
N58	N	1.528486	0.055832	0.559476
C59	C	0.980544	-0.474849	0.000056
C60	C	1.480544	0.025151	0.500056
N61	N	0.933870	-0.433737	-0.059367
N62	N	1.433870	0.066263	0.440633
N63	N	0.935086	-0.364550	-0.059359
N64	N	1.435086	0.135450	0.440641
C65	C	0.983009	-0.334398	0.000069
C66	C	1.483009	0.165602	0.500069
C67	C	0.978520	-0.590215	-0.079791
C68	C	1.478520	-0.090215	0.420209
C69	C	0.977229	-0.663041	-0.079794
C70	C	1.477229	-0.163041	0.420206
C71	C	0.977220	-0.663057	0.079885
C72	C	1.477220	-0.163057	0.579885
C73	C	0.978503	-0.590231	0.079886
C74	C	1.478503	-0.090231	0.579886
C75	C	0.979157	-0.553815	0.000046
C76	C	1.479157	-0.053815	0.500046
C77	C	1.133790	0.090255	0.000070
C78	C	1.633790	0.590255	0.500070
C79	C	1.226080	0.091616	0.000070
C80	C	1.726080	0.591616	0.500070
C81	C	0.975231	0.223030	0.000046
C82	C	1.475231	0.723030	0.500046
C83	C	0.976587	0.300538	0.000038
C84	C	1.476587	0.800538	0.500038
N85	N	0.981761	0.095376	0.228235
N86	N	1.481761	0.595376	0.728235
N87	N	0.981782	0.095376	-0.228114
N88	N	1.481782	0.595376	0.271886
C89	C	1.038476	0.047916	0.453966
C90	C	1.538476	0.547916	0.953966
C91	C	1.038478	0.047915	0.546156
C92	C	1.538478	0.547915	1.046156
C93	C	0.925062	0.142838	0.546147
C94	C	1.425062	0.642838	1.046147
C95	C	0.925056	0.142836	0.453959
C96	C	1.425056	0.642836	0.953959
C97	C	0.981768	0.095376	0.407871
C98	C	1.481768	0.595376	0.907871
C99	C	0.981776	0.095377	0.592249
C100	C	1.481776	0.595377	1.092249
C101	C	0.981779	0.095375	0.692205
C102	C	1.481779	0.595375	1.192205
C103	C	0.981764	0.095376	0.307909
C104	C	1.481764	0.595376	0.807909
H105	H	0.986852	-0.116534	-0.144772
H106	H	1.486852	0.383466	0.355228
Cl107	Cl	0.984246	-0.264775	-0.180138
Cl108	Cl	1.484246	0.235225	0.319862
Cl109	Cl	0.987085	-0.100435	0.180286
Cl110	Cl	1.487085	0.399565	0.680286
H111	H	0.979048	-0.560563	-0.144801
H112	H	1.479048	-0.060563	0.355199
H113	H	0.878890	0.181480	0.583681
H114	H	1.378890	0.681480	1.083681
H115	H	0.560411	0.096544	-0.144793
H116	H	1.060411	0.596544	0.355207
H117	H	1.084654	0.009268	0.583684
H118	H	1.584654	0.509268	1.083684
Cl119	Cl	1.109767	-0.011750	0.396031
Cl120	Cl	1.609767	0.488250	0.896031
Cl121	Cl	0.853756	0.202501	0.396005
Cl122	Cl	1.353756	0.702501	0.896005
H123	H	0.403118	0.094205	0.144916
H124	H	0.903118	0.594205	0.644916
Cl125	Cl	0.984206	-0.264812	0.180270
Cl126	Cl	1.484206	0.235188	0.680270
H127	H	0.976692	-0.692713	0.144885
H128	H	1.476692	-0.192713	0.644885
H129	H	0.403100	0.094234	-0.144785
H130	H	0.903100	0.594234	0.355215
H131	H	0.560444	0.096522	0.144895
H132	H	1.060444	0.596522	0.644895
H133	H	0.976713	-0.692676	-0.144807
H134	H	1.476713	-0.192676	0.355193
Cl135	Cl	0.979292	-0.544469	0.180255
Cl136	Cl	1.479292	-0.044469	0.680255
