data_functionalizedCrystal
_audit_creation_method	'MofGen! by Chris Wilmer'
_symmetry_space_group_name_H-M	'P1'
_symmetry_Int_Tables_number	1
_symmetry_cell_setting	triclinic
loop_
_symmetry_equiv_pos_as_xyz
  x,y,z
_cell_length_a	15.298068
_cell_length_b	15.299816
_cell_length_c	15.296721
_cell_angle_alpha	69.242875
_cell_angle_beta	91.645299
_cell_angle_gamma	91.634773
loop_
_atom_site_label
_atom_site_type_symbol
_atom_site_fract_x
_atom_site_fract_y
_atom_site_fract_z
Zn1	Zn	1.291023	-0.271051	0.780847
Zn2	Zn	1.333279	-0.393420	0.658523
Zn3	Zn	1.168673	-0.262197	0.607267
Zn4	Zn	1.168603	-0.444499	0.789625
O5	O	1.240394	-0.342792	0.709065
O6	O	1.416750	-0.269612	0.782398
O7	O	1.329158	-0.350931	0.524213
O8	O	1.167248	-0.135866	0.605167
O9	O	1.447796	-0.359516	0.692527
O10	O	1.257138	-0.142371	0.732696
O11	O	1.208222	-0.254522	0.486555
O12	O	1.048542	-0.304052	0.613680
O13	O	1.167128	-0.446573	0.915972
O14	O	1.048490	-0.437988	0.747658
O15	O	1.257070	-0.319141	0.909522
O16	O	1.329089	-0.527701	0.701039
O17	O	1.208102	-0.565229	0.797359
C18	C	1.017370	-0.375603	0.676060
C19	C	0.921959	-0.389665	0.661966
C20	C	0.588359	-0.242511	0.809844
C21	C	0.678002	-0.229302	0.823092
C22	C	0.738995	-0.269391	0.782811
C23	C	0.710338	-0.322693	0.729281
C24	C	0.620686	-0.335909	0.716038
C25	C	0.771322	-0.362790	0.689006
C26	C	0.742665	-0.416091	0.635476
C27	C	0.653021	-0.429305	0.622235
C28	C	0.592028	-0.389215	0.662515
C29	C	0.860974	-0.349573	0.702248
C30	C	0.893301	-0.442971	0.608443
C31	C	0.803658	-0.456180	0.595195
C32	C	1.273194	-0.579526	0.755737
C33	C	1.287300	-0.680797	0.775745
C34	C	1.140096	-0.952956	0.566455
C35	C	1.126838	-0.857808	0.547658
C36	C	1.166952	-0.813551	0.604678
C37	C	1.220327	-0.864450	0.680499
C38	C	1.233581	-0.959609	0.699303
C39	C	1.260438	-0.820204	0.737525
C40	C	1.313812	-0.871103	0.813346
C41	C	1.327064	-0.966253	0.832146
C42	C	1.286949	-1.010510	0.775126
C43	C	1.247184	-0.725045	0.718722
C44	C	1.340669	-0.731698	0.851569
C45	C	1.353927	-0.826846	0.870366
C46	C	1.464290	-0.309853	0.742200
C47	C	1.559701	-0.295817	0.756321
C48	C	1.207377	-0.389542	0.946733
C49	C	1.193308	-0.409465	1.048013
C50	C	1.207487	-0.105133	0.662235
C51	C	1.193464	-0.003857	0.642279
C52	C	1.273323	-0.296150	0.472317
C53	C	1.287524	-0.275946	0.371011
C54	C	1.139866	-0.485171	1.098949
C55	C	1.126648	-0.503894	1.194108
C56	C	1.166866	-0.446909	1.238338
C57	C	1.220304	-0.371197	1.187401
C58	C	1.233528	-0.352476	1.092234
C59	C	1.260528	-0.314214	1.231624
C60	C	1.313966	-0.238502	1.180686
C61	C	1.327187	-0.219785	1.085529
C62	C	1.286970	-0.276770	1.041299
C63	C	1.247303	-0.332935	1.326790
C64	C	1.340966	-0.200240	1.320075
C65	C	1.354183	-0.181517	1.224916
H66	H	0.701328	-0.185907	0.866679
H67	H	1.297723	-0.261525	0.963811
H68	H	1.397693	-0.119872	1.183430
O69	O	1.379935	-0.144943	1.363163
C70	C	1.356817	-0.177710	1.458080
H71	H	1.292899	-0.219855	1.467147
H72	H	1.348159	-0.115717	1.481658
H73	H	1.410698	-0.224052	1.502188
H74	H	0.884298	-0.306173	0.745832
H75	H	0.811986	-0.258630	0.793597
O76	O	0.504956	-0.401943	0.649484
C77	C	0.483857	-0.365678	0.553123
H78	H	0.535219	-0.310886	0.515306
H79	H	0.416910	-0.332137	0.542245
H80	H	0.482381	-0.424685	0.523900
H81	H	1.370709	-0.158142	1.044061
H82	H	1.203725	-0.683611	0.656988
O83	O	1.379606	-0.688563	0.906846
C84	C	1.356448	-0.593669	0.874004
H85	H	1.336359	-0.571023	0.796950
H86	H	1.414827	-0.549207	0.882595
H87	H	1.299433	-0.584044	0.915909
H88	H	1.203794	-0.394580	1.368254
O89	O	1.154238	-0.721100	0.586437
C90	C	1.235326	-0.672541	0.568958
H91	H	1.290220	-0.723120	0.602706
H92	H	1.235976	-0.614696	0.599736
H93	H	1.245353	-0.640543	0.490300
H94	H	1.297745	-1.087986	0.790424
H95	H	1.156100	-0.462158	1.315821
H96	H	1.083140	-0.565540	1.235575
O97	O	0.529028	-0.203726	0.849024
C98	C	0.476247	-0.274905	0.910394
H99	H	0.476869	-0.339539	0.889760
H100	H	0.406357	-0.249527	0.906041
H101	H	0.502832	-0.293206	0.985004
H102	H	0.629692	-0.472714	0.578655
H103	H	0.780312	-0.499580	0.551611
O104	O	0.952624	-0.481973	0.569458
C105	C	1.005455	-0.543459	0.640522
H106	H	1.004855	-0.523043	0.705299
H107	H	1.075332	-0.539014	0.615095
H108	H	0.978900	-0.618038	0.658636
O109	O	1.075006	-0.808493	0.473944
C110	C	1.042428	-0.867961	0.427659
H111	H	1.087465	-0.929970	0.443137
H112	H	1.039480	-0.827722	0.349087
H113	H	0.973996	-0.894276	0.453325
O114	O	1.100954	-0.540526	1.055903
C115	C	1.165639	-0.581364	1.019716
H116	H	1.228219	-0.536851	1.008778
H117	H	1.141682	-0.585546	0.950020
H118	H	1.179322	-0.654718	1.071087
H119	H	1.107436	-0.989001	0.520042
O120	O	1.378838	-1.015625	0.905898
C121	C	1.344151	-1.013006	0.989320
H122	H	1.301270	-0.949175	0.972656
H123	H	1.399928	-1.008605	1.038729
H124	H	1.303207	-1.079119	1.024034
O125	O	1.405687	-0.876233	0.944125
C126	C	1.370985	-0.873619	1.027542
H127	H	1.328118	-0.809776	1.010876
H128	H	1.426755	-0.869240	1.076969
H129	H	1.330023	-0.939723	1.062236
