data_functionalizedCrystal
_audit_creation_method	'MofGen! by Chris Wilmer'
_symmetry_space_group_name_H-M	'P1'
_symmetry_Int_Tables_number	1
_symmetry_cell_setting	triclinic
loop_
_symmetry_equiv_pos_as_xyz
  x,y,z
_cell_length_a	11.026660
_cell_length_b	10.967829
_cell_length_c	16.776229
_cell_angle_alpha	77.865496
_cell_angle_beta	89.993887
_cell_angle_gamma	96.379957
loop_
_atom_site_label
_atom_site_type_symbol
_atom_site_fract_x
_atom_site_fract_y
_atom_site_fract_z
O1	O	1.614528	0.523506	-0.138202
O2	O	1.260727	0.463897	-0.130014
O3	O	1.445784	0.313882	-0.109404
O4	O	1.429471	0.673521	-0.158812
O5	O	1.445759	0.313865	0.023175
O6	O	1.260702	0.463880	0.002565
O7	O	1.614503	0.523489	-0.005623
Zn8	Zn	1.437599	0.493681	0.019521
Zn9	Zn	1.437631	0.493704	-0.155158
O10	O	1.429446	0.673504	-0.026233
C11	C	1.215412	0.452891	-0.062214
C12	C	1.080425	0.420108	-0.057711
C13	C	0.867858	0.476757	-0.065496
C14	C	1.007374	0.510642	-0.070150
C15	C	1.444583	0.267116	-0.036692
C16	C	1.441026	0.127791	-0.017556
C17	C	1.439453	0.065691	-0.077706
C18	C	1.435777	-0.078309	-0.057929
C19	C	1.659818	0.534495	-0.073424
C20	C	1.794805	0.567277	-0.077933
C21	C	1.430647	0.720270	-0.098946
C22	C	1.434204	0.859594	-0.118087
N23	N	1.437585	0.493667	0.138734
N24	N	1.437654	0.493711	-0.274370
C25	C	1.519554	0.427281	0.189572
C26	C	1.519561	0.427281	0.273024
C27	C	1.437603	0.493676	0.305636
C28	C	1.355626	0.560064	0.254792
C29	C	1.355614	0.560056	0.171342
C30	C	1.355670	0.560099	0.591334
C31	C	1.355690	0.560105	0.674790
C32	C	1.519617	0.427325	0.693016
C33	C	1.519605	0.427316	0.609566
C34	C	1.437623	0.493698	0.558731
C35	C	1.437616	0.493695	0.468243
C36	C	1.437616	0.493687	0.396121
H37	H	1.039688	0.317518	-0.043670
C38	C	1.681631	0.296072	0.282652
C39	C	1.609683	0.354331	0.328902
H40	H	1.737278	0.251045	0.317149
H41	H	1.630658	0.239688	0.257866
H42	H	1.725767	0.357980	0.241583
H43	H	1.565540	0.292422	0.369968
H44	H	1.660662	0.410720	0.353701
C45	C	1.681636	0.296051	0.635969
C46	C	1.609691	0.354328	0.573722
H47	H	1.737244	0.250982	0.613840
H48	H	1.725806	0.357942	0.660001
H49	H	1.630649	0.239689	0.676275
H50	H	1.660678	0.410697	0.533418
H51	H	1.565518	0.292430	0.549677
H52	H	1.586367	0.373268	0.734417
H53	H	1.048112	0.613232	-0.084239
H54	H	1.435565	-0.086973	-0.184229
C55	C	1.436072	-0.065479	0.083197
C56	C	1.433917	-0.150432	0.031361
H57	H	1.434916	-0.110009	0.138319
H58	H	1.508147	-0.008037	0.072344
H59	H	1.366599	-0.020791	0.074089
H60	H	1.503395	-0.195114	0.040466
H61	H	1.361834	-0.207896	0.042218
H62	H	0.835549	0.669861	-0.092021
H63	H	1.288865	0.614112	0.129950
C64	C	1.286083	0.760451	0.538129
C65	C	1.265568	0.633083	0.535464
H66	H	1.230459	0.805512	0.503631
H67	H	1.274368	0.769941	0.592492
H68	H	1.367333	0.792282	0.520057
H69	H	1.184320	0.601249	0.553541
H70	H	1.277273	0.623585	0.481089
H71	H	1.440823	0.119131	-0.143842
C72	C	1.544441	0.263004	0.118347
C73	C	1.609614	0.354231	0.153758
H74	H	1.600033	0.217889	0.096245
H75	H	1.493445	0.206699	0.158664
H76	H	1.495659	0.302560	0.076108
H77	H	1.658390	0.314674	0.196001
H78	H	1.660631	0.410544	0.113437
H79	H	1.288946	0.614173	0.701340
H80	H	1.439643	0.074350	0.048581
C81	C	1.190420	0.549936	0.350061
C82	C	1.265537	0.633044	0.290641
H83	H	1.134810	0.594998	0.372194
H84	H	1.146253	0.488056	0.326018
H85	H	1.239256	0.510407	0.392277
H86	H	1.216701	0.672567	0.248422
H87	H	1.309708	0.694947	0.314683
C88	C	0.685302	0.331506	-0.045546
C89	C	0.812868	0.338268	-0.046472
H90	H	0.651359	0.246006	-0.033805
H91	H	0.659007	0.371943	-0.004871
H92	H	0.659028	0.371969	-0.097340
H93	H	0.839144	0.297813	0.005324
H94	H	0.839174	0.297814	-0.087149
