data_functionalizedCrystal
_audit_creation_method	'MofGen! by Chris Wilmer'
_symmetry_space_group_name_H-M	'P1'
_symmetry_Int_Tables_number	1
_symmetry_cell_setting	triclinic
loop_
_symmetry_equiv_pos_as_xyz
  x,y,z
_cell_length_a	13.032831
_cell_length_b	19.121063
_cell_length_c	13.033109
_cell_angle_alpha	99.873837
_cell_angle_beta	76.665514
_cell_angle_gamma	85.565596
loop_
_atom_site_label
_atom_site_type_symbol
_atom_site_fract_x
_atom_site_fract_y
_atom_site_fract_z
Zn1	Zn	1.672168	-0.493728	-0.834129
Zn2	Zn	2.172168	0.006272	-0.334129
Zn3	Zn	1.643819	-0.594088	-0.662147
Zn4	Zn	2.143819	-0.094088	-0.162147
Zn5	Zn	1.473926	-0.459568	-0.632104
Zn6	Zn	1.973926	0.040432	-0.132104
Zn7	Zn	1.488838	-0.594026	-0.817187
Zn8	Zn	1.988838	-0.094026	-0.317187
O9	O	1.569688	-0.535352	-0.736392
O10	O	2.069688	-0.035352	-0.236392
O11	O	1.816233	-0.521363	-0.830978
O12	O	2.316233	-0.021363	-0.330978
O13	O	1.603178	-0.561973	-0.508729
O14	O	2.103178	-0.061973	-0.008729
O15	O	1.505846	-0.365828	-0.653421
O16	O	2.005846	0.134172	-0.153421
O17	O	1.795405	-0.595097	-0.704624
O18	O	2.295405	-0.095097	-0.204624
O19	O	1.651494	-0.390925	-0.801847
O20	O	2.151494	0.109075	-0.301847
O21	O	1.478358	-0.463142	-0.486657
O22	O	1.978358	0.036858	0.013343
O23	O	1.328078	-0.463082	-0.636993
O24	O	1.828078	0.036918	-0.136993
O25	O	1.531262	-0.594991	-0.968868
O26	O	2.031262	-0.094991	-0.468868
O27	O	1.339034	-0.561868	-0.772973
O28	O	1.839034	-0.061868	-0.272973
O29	O	1.665954	-0.521303	-0.981315
O30	O	2.165954	-0.021303	-0.481315
O31	O	1.617638	-0.692351	-0.688196
O32	O	2.117638	-0.192351	-0.188196
O33	O	1.503773	-0.692306	-0.802104
O34	O	2.003773	-0.192306	-0.302104
C35	C	1.295227	-0.508762	-0.699885
C36	C	1.795227	-0.008762	-0.199885
C37	C	1.177813	-0.497406	-0.684294
C38	C	1.677813	0.002594	-0.184294
C39	C	1.130899	-0.541279	-0.744529
C40	C	1.630899	-0.041279	-0.244529
C41	C	1.009547	-0.529543	-0.728416
C42	C	1.509547	-0.029543	-0.228416
C43	C	1.559279	-0.717814	-0.746599
C44	C	2.059279	-0.217814	-0.246599
C45	C	1.554927	-0.795885	-0.751014
C46	C	2.054927	-0.295885	-0.251014
C47	C	1.612225	-0.832573	-0.693846
C48	C	2.112225	-0.332573	-0.193846
C49	C	1.608139	-0.905930	-0.698005
C50	C	2.108139	-0.405930	-0.198005
C51	C	1.546748	-0.942596	-0.759327
C52	C	2.046748	-0.442596	-0.259327
C53	C	1.489449	-0.905903	-0.816502
C54	C	1.989449	-0.405903	-0.316502
C55	C	1.493541	-0.832548	-0.812348
C56	C	1.993541	-0.332548	-0.312348
C57	C	1.531428	-1.164080	-0.774839
C58	C	2.031428	-0.664080	-0.274839
C59	C	1.527337	-1.237439	-0.778986
C60	C	2.027337	-0.737439	-0.278986
C61	C	1.646029	-1.237462	-0.660490
C62	C	2.146029	-0.737462	-0.160490
C63	C	1.650112	-1.164105	-0.656337
C64	C	2.150112	-0.664105	-0.156337
C65	C	1.592816	-1.127419	-0.713516
C66	C	2.092816	-0.627419	-0.213516
C67	C	1.542568	-1.017578	-0.763577
C68	C	2.042568	-0.517578	-0.263577
C69	C	1.597004	-1.052439	-0.709271
C70	C	2.097004	-0.552439	-0.209271
C71	C	1.845220	-0.562047	-0.773042
C72	C	2.345220	-0.062047	-0.273042
C73	C	1.962636	-0.573423	-0.788660
C74	C	2.462636	-0.073423	-0.288660
C75	C	1.603433	-0.561951	-1.014921
C76	C	2.103433	-0.061951	-0.514921
C77	C	1.617814	-0.573285	-1.133613
C78	C	2.117814	-0.073285	-0.633613
C79	C	1.580169	-0.352183	-0.726173
C80	C	2.080169	0.147817	-0.226173
C81	C	1.584635	-0.274128	-0.721818
C82	C	2.084635	0.225872	-0.221818
C83	C	1.562466	-0.529439	-1.175609
C84	C	2.062466	-0.029439	-0.675609
C85	C	1.577328	-0.541153	-1.298284
C86	C	2.077328	-0.041153	-0.798284
C87	C	1.536137	-0.508813	-0.458952
C88	C	2.036137	-0.008813	0.041048
C89	C	1.521973	-0.497300	-0.340276
C90	C	2.021973	0.002700	0.159724
H91	H	1.128138	-0.451154	-0.620799
H92	H	1.628138	0.048846	-0.120799
C93	C	1.430510	-0.792191	-0.875238
C94	C	1.930510	-0.292191	-0.375238
N95	N	1.383035	-0.761796	-0.922612
N96	N	1.883035	-0.261796	-0.422612
C97	C	1.198005	-0.603764	-0.830313
C98	C	1.698005	-0.103764	-0.330313
N99	N	1.248547	-0.650831	-0.894926
N100	N	1.748547	-0.150831	-0.394926
H101	H	1.676200	-0.619496	-1.188479
H102	H	2.176200	-0.119496	-0.688479
C103	C	1.717615	-1.123772	-0.588847
C104	C	2.217615	-0.623772	-0.088847
N105	N	1.768446	-1.093392	-0.537998
N106	N	2.268446	-0.593392	-0.037998
C107	C	1.679757	-0.792247	-0.626383
C108	C	2.179757	-0.292247	-0.126383
N109	N	1.730627	-0.761876	-0.575572
N110	N	2.230627	-0.261876	-0.075572
C111	C	1.443085	-0.434868	-1.266165
C112	C	1.943085	0.065132	-0.766165
N113	N	1.383669	-0.387844	-1.210345
N114	N	1.883669	0.112156	-0.710345
H115	H	0.959875	-0.483288	-0.664917
H116	H	1.459875	0.016712	-0.164917
C117	C	1.671164	-0.946283	-0.635108
C118	C	2.171164	-0.446283	-0.135108
N119	N	1.718636	-0.976676	-0.587729
N120	N	2.218636	-0.476676	-0.087729
C121	C	1.029736	-0.635910	-0.874452
C122	C	1.529736	-0.135910	-0.374452
N123	N	1.080276	-0.682975	-0.939068
N124	N	1.580276	-0.182975	-0.439068
H125	H	1.477361	-1.267293	-0.828942
H126	H	1.977361	-0.767293	-0.328942
C127	C	1.468461	-1.123745	-0.837800
C128	C	1.968461	-0.623745	-0.337800
N129	N	1.421054	-1.093366	-0.885248
N130	N	1.921054	-0.593366	-0.385248
C131	C	1.709054	-1.277823	-0.597601
C132	C	2.209054	-0.777823	-0.097601
N133	N	1.756528	-1.308224	-0.550233
N134	N	2.256528	-0.808224	-0.050233
H135	H	1.439468	-0.935763	-0.866436
H136	H	1.939468	-0.435763	-0.366436
C137	C	1.483595	-0.467004	-1.101494
C138	C	1.983595	0.032996	-0.601494
N139	N	1.424192	-0.419974	-1.045672
N140	N	1.924192	0.080026	-0.545672
H141	H	1.646992	-1.022584	-0.659347
H142	H	2.146992	-0.522584	-0.159347
H143	H	1.492581	-1.047439	-0.813503
H144	H	1.992581	-0.547439	-0.313503
H145	H	1.635718	-0.587367	-1.353146
H146	H	2.135718	-0.087367	-0.853146
