data_functionalizedCrystal
_audit_creation_method	'MofGen! by Chris Wilmer'
_symmetry_space_group_name_H-M	'P1'
_symmetry_Int_Tables_number	1
_symmetry_cell_setting	triclinic
loop_
_symmetry_equiv_pos_as_xyz
  x,y,z
_cell_length_a	14.044220
_cell_length_b	14.971486
_cell_length_c	13.448316
_cell_angle_alpha	89.996136
_cell_angle_beta	89.999800
_cell_angle_gamma	88.401503
loop_
_atom_site_label
_atom_site_type_symbol
_atom_site_fract_x
_atom_site_fract_y
_atom_site_fract_z
O1	O	-1.257952	-0.215660	0.082587
O2	O	-0.981974	-0.207878	0.082612
O3	O	-1.127360	-0.082152	0.082592
O4	O	-1.112566	-0.341386	0.082608
O5	O	-1.127345	-0.082149	-0.082792
O6	O	-0.981960	-0.207876	-0.082771
O7	O	-1.257938	-0.215658	-0.082797
Cu8	Cu	-1.119947	-0.211766	-0.097885
Cu9	Cu	-1.119964	-0.211769	0.097701
O10	O	-1.112552	-0.341384	-0.082776
C11	C	-0.946649	-0.204470	-0.000076
C12	C	-0.841411	-0.194309	-0.000067
C13	C	-1.126691	-0.048774	-0.000100
C14	C	-1.124709	0.050680	-0.000098
C15	C	-1.293263	-0.219065	-0.000106
C16	C	-1.398500	-0.229227	-0.000109
C17	C	-0.648729	-0.175732	-0.000088
C18	C	-0.591177	-0.247799	-0.000088
C19	C	-0.483962	-0.237463	-0.000099
C20	C	-0.755954	-0.186067	-0.000076
C21	C	-1.113220	-0.374762	-0.000083
C22	C	-1.115203	-0.474215	-0.000077
N23	N	-1.119942	-0.211764	-0.235449
C24	C	-1.210119	0.101176	-0.000107
C25	C	-1.208250	0.194623	-0.000097
C26	C	-1.120970	0.237571	-0.000085
C27	C	-1.035554	0.187067	-0.000074
C28	C	-1.037423	0.093623	-0.000077
C29	C	-1.031663	0.381836	-0.000070
C30	C	-1.029793	0.475288	-0.000069
C31	C	-1.202490	0.482837	-0.000090
C32	C	-1.204360	0.389392	-0.000093
C33	C	-1.118942	0.338895	-0.000083
C34	C	-1.177493	-0.270639	-0.287487
C35	C	-1.177505	-0.270636	-0.391591
C36	C	-1.119960	-0.211762	-0.443654
C37	C	-1.062407	-0.152881	-0.391608
C38	C	-1.062401	-0.152880	-0.287507
C39	C	-1.062422	-0.152888	-0.608588
C40	C	-1.062426	-0.152890	-0.712697
C41	C	-1.177526	-0.270644	-0.712672
C42	C	-1.177520	-0.270644	-0.608571
C43	C	-1.119965	-0.211763	-0.556532
N44	N	-1.119977	-0.211765	0.235265
H45	H	-0.617481	-0.106277	-0.000097
N46	N	-0.935657	0.521611	-0.000049
H47	H	-0.898246	0.503698	0.061270
H48	H	-0.947518	0.588457	-0.000089
H49	H	-1.272040	0.523957	-0.000094
H50	H	-1.275430	0.354427	-0.000109
N51	N	-1.239558	-0.334138	-0.231331
H52	H	-1.220933	-0.397722	-0.249445
H53	H	-1.308486	-0.321954	-0.249466
N54	N	-0.945303	0.039153	-0.000062
H55	H	-0.889727	0.080538	-0.000055
H56	H	-0.942308	0.000220	-0.061370
N57	N	-1.239625	-0.334116	-0.768819
H58	H	-1.308569	-0.321995	-0.750690
H59	H	-1.220939	-0.397684	-0.750705
N60	N	-1.239588	-0.334142	-0.552419
H61	H	-1.285936	-0.298917	-0.509227
H62	H	-1.198295	-0.374595	-0.509283
N63	N	-0.632564	-0.339810	-0.000049
H64	H	-0.579215	-0.386467	-0.000043
H65	H	-0.673127	-0.347236	-0.061348
N66	N	-1.304257	0.054857	-0.000129
H67	H	-1.358080	0.101030	-0.000131
H68	H	-1.308802	0.016244	0.061178
N69	N	-0.939536	0.327369	-0.000053
H70	H	-0.883961	0.368754	-0.000048
H71	H	-0.936546	0.288438	-0.061364
H72	H	-1.277800	0.235734	-0.000106
H73	H	-0.964489	0.222043	-0.000058
H74	H	-1.224370	-0.318577	-0.433955
H75	H	-1.015567	-0.104950	-0.755084
H76	H	-1.015556	-0.104940	-0.566222
H77	H	-1.015558	-0.104941	-0.434006
H78	H	-1.015537	-0.104938	-0.245139
