data_functionalizedCrystal
_audit_creation_method	'MofGen! by Chris Wilmer'
_symmetry_space_group_name_H-M	'P1'
_symmetry_Int_Tables_number	1
_symmetry_cell_setting	triclinic
loop_
_symmetry_equiv_pos_as_xyz
  x,y,z
_cell_length_a	12.759401
_cell_length_b	17.637651
_cell_length_c	12.759393
_cell_angle_alpha	78.749777
_cell_angle_beta	89.981504
_cell_angle_gamma	101.219647
loop_
_atom_site_label
_atom_site_type_symbol
_atom_site_fract_x
_atom_site_fract_y
_atom_site_fract_z
Zn1	Zn	1.521691	-0.314717	-0.509312
Zn2	Zn	1.486053	-0.446956	-0.298055
Zn3	Zn	1.345981	-0.314759	-0.333640
Zn4	Zn	1.310465	-0.446895	-0.473712
O5	O	1.416047	-0.380832	-0.403680
O6	O	1.663982	-0.332267	-0.481294
O7	O	1.467421	-0.429462	-0.155743
O8	O	1.399068	-0.204111	-0.386734
O9	O	1.637799	-0.429422	-0.326085
O10	O	1.528161	-0.204081	-0.515800
O11	O	1.364511	-0.332338	-0.181887
O12	O	1.194251	-0.332279	-0.352215
O13	O	1.338535	-0.429319	-0.625468
O14	O	1.168157	-0.429359	-0.455126
O15	O	1.493722	-0.332208	-0.651622
O16	O	1.432982	-0.557590	-0.291565
O17	O	1.303979	-0.557545	-0.420620
C18	C	1.143084	-0.380818	-0.403669
C19	C	1.026304	-0.380831	-0.403684
C20	C	0.848127	-0.431469	-0.457148
C21	C	0.957854	-0.431460	-0.457139
C22	C	0.985021	-0.330212	-0.350226
C23	C	0.875295	-0.330225	-0.350229
C24	C	1.360788	-0.586256	-0.348391
C25	C	1.337243	-0.674137	-0.324774
C26	C	1.595593	-0.962793	-0.583431
C27	C	1.573436	-1.045371	-0.561220
C28	C	1.439101	-1.045510	-0.426695
C29	C	1.461251	-0.962930	-0.448890
C30	C	1.539497	-0.921578	-0.527260
C31	C	1.405154	-0.921716	-0.392720
C32	C	1.427298	-0.839144	-0.414918
C33	C	1.505538	-0.797786	-0.493287
C34	C	1.561641	-0.839006	-0.549459
C35	C	1.326903	-0.963070	-0.314355
C36	C	1.270807	-0.921855	-0.258185
C37	C	1.292956	-0.839281	-0.280377
C38	C	1.371196	-0.797923	-0.358746
C39	C	1.236853	-0.798061	-0.224205
C40	C	1.258997	-0.715489	-0.246404
C41	C	1.393340	-0.715351	-0.380944
C42	C	1.690077	-0.380846	-0.403691
C43	C	1.806852	-0.380853	-0.403696
C44	C	1.416142	-0.380752	-0.677735
C45	C	1.416183	-0.380718	-0.794521
C46	C	1.471552	-0.174606	-0.459207
C47	C	1.495204	-0.086724	-0.482870
C48	C	1.362624	-0.330136	-0.862998
C49	C	1.362655	-0.330111	-0.972729
C50	C	1.469812	-0.431253	-0.945494
C51	C	1.469774	-0.431281	-0.835765
C52	C	1.416029	-0.380854	-0.130706
C53	C	1.416252	-0.380666	-0.013981
H54	H	0.792403	-0.472693	-0.500683
O55	O	1.310651	-0.281052	-0.822761
C56	C	1.322078	-0.291934	-0.711223
H57	H	1.396183	-0.317835	-0.689262
H58	H	1.248418	-0.334044	-0.668742
C59	C	1.242939	-0.180137	-0.703406
C60	C	1.333962	-0.211942	-0.676434
H61	H	1.250266	-0.130796	-0.681944
H62	H	1.235237	-0.172807	-0.778550
H63	H	1.181566	-0.215236	-0.668003
H64	H	1.395332	-0.176848	-0.711847
H65	H	1.341675	-0.219265	-0.601294
O66	O	1.521723	-0.480529	-0.769325
C67	C	1.477542	-0.559323	-0.774893
H68	H	1.436747	-0.560940	-0.854123
H69	H	1.416335	-0.585963	-0.705965
C70	C	1.617178	-0.605239	-0.669746
C71	C	1.567079	-0.607225	-0.767062
H72	H	1.672406	-0.634788	-0.664911
H73	H	1.646942	-0.552154	-0.665990
H74	H	1.566161	-0.627437	-0.612316
H75	H	1.618093	-0.585017	-0.824489
H76	H	1.537326	-0.660307	-0.770827
H77	H	1.308867	-1.030305	-0.296294
O78	O	1.310618	-0.280899	-1.039105
C79	C	1.263289	-0.236296	-0.979162
H80	H	1.307035	-0.233581	-0.901684
H81	H	1.175700	-0.265244	-0.959689
C82	C	1.217084	-0.155468	-1.139812
C83	C	1.270820	-0.152129	-1.044655
H84	H	1.221725	-0.103551	-1.180211
H85	H	1.248967	-0.185520	-1.180197
H86	H	1.144098	-0.179595	-1.123570
H87	H	1.343807	-0.128011	-1.060898
H88	H	1.238949	-0.122071	-1.004274
O89	O	0.997975	-0.480709	-0.508895
C90	C	1.047728	-0.531707	-0.435245
H91	H	1.013334	-0.536527	-0.351193
H92	H	1.137458	-0.507249	-0.438254
C93	C	1.069567	-0.608022	-0.567503
C94	C	1.027317	-0.613947	-0.464270
H95	H	1.056982	-0.658751	-0.585409
H96	H	1.036051	-0.573663	-0.617124
H97	H	1.144339	-0.587638	-0.569997
H98	H	0.952544	-0.634322	-0.461781
H99	H	1.060820	-0.648313	-0.414649
H100	H	1.513444	-0.472419	-0.979090
H101	H	1.457064	-0.681681	-0.444753
O102	O	0.835310	-0.281092	-0.298138
C103	C	0.857449	-0.298297	-0.188760
H104	H	0.928945	-0.328682	-0.178349
H105	H	0.784764	-0.338925	-0.142352
C106	C	0.795430	-0.183848	-0.158826
C107	C	0.883247	-0.221161	-0.146039
H108	H	0.811339	-0.136268	-0.132470
H109	H	0.780510	-0.172257	-0.232514
H110	H	0.734867	-0.217712	-0.120152
H111	H	0.943805	-0.187301	-0.184723
H112	H	0.898178	-0.232744	-0.072355
O113	O	1.526860	-0.717575	-0.514862
C114	C	1.433550	-0.690022	-0.549190
H115	H	1.360271	-0.737643	-0.518378
H116	H	1.435215	-0.675332	-0.640313
C117	C	1.518366	-0.556952	-0.543059
C118	C	1.428363	-0.615438	-0.505208
H119	H	1.515168	-0.510943	-0.515935
H120	H	1.581233	-0.575514	-0.519936
H121	H	1.519743	-0.544720	-0.618994
H122	H	1.426994	-0.627676	-0.429276
H123	H	1.365496	-0.596876	-0.528318
O124	O	1.194663	-0.961993	-0.182180
C125	C	1.095342	-0.941840	-0.210439
H126	H	1.096083	-0.919097	-0.300479
H127	H	1.080758	-0.893955	-0.166957
C128	C	1.004641	-1.043165	-0.067829
C129	C	1.005547	-1.015238	-0.178419
H130	H	0.949249	-1.088439	-0.048074
H131	H	1.071555	-1.056741	-0.048787
H132	H	0.992491	-1.003254	-0.031607
H133	H	1.017711	-1.055146	-0.214639
H134	H	0.938633	-1.001671	-0.197467
H135	H	1.040761	-0.288992	-0.306696
O136	O	1.627765	-1.085450	-0.615887
C137	C	1.555086	-1.133219	-0.670820
H138	H	1.479005	-1.108364	-0.683913
H139	H	1.534689	-1.195816	-0.621497
C140	C	1.699463	-1.164946	-0.763686
C141	C	1.606023	-1.134414	-0.779775
H142	H	1.730883	-1.165686	-0.830893
H143	H	1.748429	-1.132765	-0.726674
H144	H	1.682452	-1.217107	-0.722581
H145	H	1.623036	-1.082251	-0.820869
H146	H	1.557060	-1.166586	-0.816797
O147	O	1.637526	-0.798862	-0.625729
C148	C	1.609124	-0.819007	-0.725005
H149	H	1.519093	-0.841755	-0.724120
H150	H	1.652606	-0.866886	-0.739651
C151	C	1.751555	-0.717668	-0.815945
C152	C	1.640976	-0.745601	-0.814862
H153	H	1.771206	-0.672390	-0.871375
H154	H	1.770693	-0.704098	-0.749061
H155	H	1.787776	-0.757575	-0.828147
H156	H	1.604757	-0.705699	-0.802647
H157	H	1.621832	-0.759164	-0.881747
O158	O	1.671600	-0.922738	-0.659629
C159	C	1.716391	-0.976819	-0.704431
H160	H	1.657574	-1.035703	-0.692199
H161	H	1.793861	-0.985575	-0.663679
C162	C	1.812360	-0.872203	-0.839969
C163	C	1.740116	-0.944523	-0.824953
H164	H	1.827000	-0.852280	-0.914311
H165	H	1.782187	-0.835767	-0.809783
H166	H	1.876910	-0.879509	-0.806001
H167	H	1.675564	-0.937215	-0.858908
H168	H	1.770279	-0.980957	-0.855147
H169	H	1.173139	-0.831742	-0.160404
H170	H	1.213317	-0.681932	-0.200664
H171	H	1.375391	-1.079190	-0.362888
