data_functionalizedCrystal
_audit_creation_method	'MofGen! by Chris Wilmer'
_symmetry_space_group_name_H-M	'P1'
_symmetry_Int_Tables_number	1
_symmetry_cell_setting	triclinic
loop_
_symmetry_equiv_pos_as_xyz
  x,y,z
_cell_length_a	12.759401
_cell_length_b	16.625546
_cell_length_c	12.759393
_cell_angle_alpha	89.964881
_cell_angle_beta	89.979062
_cell_angle_gamma	90.023993
loop_
_atom_site_label
_atom_site_type_symbol
_atom_site_fract_x
_atom_site_fract_y
_atom_site_fract_z
Zn1	Zn	1.606210	-0.320930	-0.593986
Zn2	Zn	1.939543	0.012404	-0.260653
Zn3	Zn	2.272876	0.345737	0.072680
Zn4	Zn	1.606077	-0.455784	-0.418292
Zn5	Zn	1.939410	-0.122451	-0.084959
Zn6	Zn	2.272744	0.210883	0.248374
Zn7	Zn	1.430508	-0.320973	-0.418322
Zn8	Zn	1.763842	0.012361	-0.084988
Zn9	Zn	2.097175	0.345694	0.248345
Zn10	Zn	1.430476	-0.455728	-0.593930
Zn11	Zn	1.763810	-0.122394	-0.260596
Zn12	Zn	2.097143	0.210939	0.072737
O13	O	1.518318	-0.388354	-0.506132
O14	O	1.851651	-0.055020	-0.172799
O15	O	2.184985	0.278313	0.160534
O16	O	1.753213	-0.338824	-0.570692
O17	O	2.086546	-0.005491	-0.237358
O18	O	2.419880	0.327843	0.095975
O19	O	1.582745	-0.437943	-0.271275
O20	O	1.916079	-0.104609	0.062058
O21	O	2.249412	0.228724	0.395392
O22	O	1.453884	-0.208135	-0.441660
O23	O	1.787218	0.125199	-0.108327
O24	O	2.120551	0.458532	0.225007
O25	O	1.753116	-0.437901	-0.441610
O26	O	2.086449	-0.104568	-0.108277
O27	O	2.419782	0.228766	0.225057
O28	O	1.582971	-0.208103	-0.570720
O29	O	1.916305	0.125230	-0.237387
O30	O	2.249638	0.458564	0.095947
O31	O	1.453756	-0.338897	-0.271297
O32	O	1.787089	-0.005564	0.062037
O33	O	2.120422	0.327769	0.395370
O34	O	1.283483	-0.338843	-0.441605
O35	O	1.616816	-0.005509	-0.108271
O36	O	1.950150	0.327824	0.225062
O37	O	1.453830	-0.437805	-0.740958
O38	O	1.787163	-0.104472	-0.407625
O39	O	2.120497	0.228862	-0.074292
O40	O	1.283460	-0.437847	-0.570623
O41	O	1.616793	-0.104513	-0.237290
O42	O	1.950126	0.228820	0.096043
O43	O	1.582940	-0.338770	-0.741000
O44	O	1.916274	-0.005436	-0.407667
O45	O	2.249607	0.327897	-0.074333
O46	O	1.582714	-0.568609	-0.441555
O47	O	1.916048	-0.235276	-0.108222
O48	O	2.249381	0.098058	0.225112
O49	O	1.453701	-0.568568	-0.570595
O50	O	1.787035	-0.235234	-0.237261
O51	O	2.120368	0.098099	0.096072
C52	C	1.245350	-0.388344	-0.506112
C53	C	1.578684	-0.055010	-0.172778
C54	C	1.912017	0.278323	0.160555
C55	C	1.128574	-0.388359	-0.506128
C56	C	1.461907	-0.055026	-0.172794
C57	C	1.795241	0.278308	0.160539
C58	C	1.073727	-0.439989	-0.573202
C59	C	1.407061	-0.106655	-0.239868
C60	C	1.740394	0.226678	0.093465
C61	C	0.964003	-0.439992	-0.573223
C62	C	1.297336	-0.106658	-0.239889
C63	C	1.630670	0.226675	0.093444
C64	C	0.963982	-0.336733	-0.439086
C65	C	1.297315	-0.003400	-0.105753
C66	C	1.630649	0.329934	0.227581
C67	C	1.073704	-0.336726	-0.439071
C68	C	1.407037	-0.003393	-0.105738
C69	C	1.740371	0.329940	0.227595
C70	C	1.518218	-0.597844	-0.506088
C71	C	1.851552	-0.264511	-0.172755
C72	C	2.184885	0.068822	0.160578
C73	C	1.518272	-0.687466	-0.506105
C74	C	1.851605	-0.354132	-0.172771
C75	C	2.184939	-0.020799	0.160562
C76	C	1.518455	-1.015641	-0.506214
C77	C	1.851789	-0.682308	-0.172881
C78	C	2.185122	-0.348974	0.160452
C79	C	1.518401	-0.924333	-0.506187
C80	C	1.851734	-0.590999	-0.172853
C81	C	2.185068	-0.257666	0.160480
C82	C	1.518363	-0.851556	-0.506159
C83	C	1.851696	-0.518223	-0.172826
C84	C	2.185029	-0.184890	0.160508
C85	C	1.518310	-0.760242	-0.506132
C86	C	1.851643	-0.426909	-0.172799
C87	C	2.184977	-0.093575	0.160534
C88	C	1.792351	-0.388364	-0.506154
C89	C	2.125684	-0.055031	-0.172821
C90	C	2.459018	0.278303	0.160513
C91	C	1.909128	-0.388369	-0.506163
C92	C	2.242461	-0.055035	-0.172830
C93	C	2.575794	0.278298	0.160504
C94	C	1.518396	-0.388276	-0.780166
C95	C	1.851730	-0.054943	-0.446833
C96	C	2.185063	0.278391	-0.113499
C97	C	1.518430	-0.388243	-0.896943
C98	C	1.851763	-0.054910	-0.563609
C99	C	2.185097	0.278423	-0.230276
C100	C	1.518446	-0.178045	-0.506200
C101	C	1.851780	0.155289	-0.172866
C102	C	2.185113	0.488622	0.160467
C103	C	1.518501	-0.088424	-0.506228
C104	C	1.851834	0.244910	-0.172895
C105	C	2.185168	0.578243	0.160438
C106	C	1.585663	-0.336667	-0.951828
C107	C	1.918996	-0.003334	-0.618495
C108	C	2.252329	0.329999	-0.285161
C109	C	1.585681	-0.336632	-1.061552
C110	C	1.919014	-0.003299	-0.728219
C111	C	2.252347	0.330034	-0.394886
C112	C	1.451230	-0.439757	-1.061496
C113	C	1.784563	-0.106423	-0.728163
C114	C	2.117896	0.226910	-0.394829
C115	C	1.451208	-0.439787	-0.951774
C116	C	1.784541	-0.106453	-0.618440
C117	C	2.117874	0.226880	-0.285107
C118	C	1.518300	-0.388372	-0.233165
C119	C	1.851633	-0.055039	0.100168
C120	C	2.184967	0.278294	0.433502
C121	C	1.518470	-0.388178	-0.116389
C122	C	1.851803	-0.054845	0.216944
C123	C	2.185137	0.278488	0.550278
H124	H	1.118362	-0.294678	-0.384451
H125	H	1.451695	0.038655	-0.051118
H126	H	1.785028	0.371988	0.282215
N127	N	1.658164	-0.281079	-0.892684
N128	N	1.991497	0.052255	-0.559351
N129	N	2.324830	0.385588	-0.226018
H130	H	1.641891	-0.223460	-0.911788
H131	H	1.975224	0.109873	-0.578454
H132	H	2.308557	0.443207	-0.245121
H133	H	1.647915	-0.288998	-0.814867
H134	H	1.981249	0.044336	-0.481534
H135	H	2.314582	0.377669	-0.148200
N136	N	1.658184	-0.280995	-1.120751
N137	N	1.991517	0.052338	-0.787418
N138	N	2.324850	0.385672	-0.454085
H139	H	1.700758	-0.248347	-1.069363
H140	H	2.034092	0.084986	-0.736030
H141	H	2.367425	0.418320	-0.402697
H142	H	1.706793	-0.313798	-1.166282
H143	H	2.040127	0.019535	-0.832948
H144	H	2.373460	0.352868	-0.499615
N145	N	1.378732	-0.495359	-1.120622
N146	N	1.712065	-0.162025	-0.787288
N147	N	2.045399	0.171308	-0.453955
H148	H	1.303672	-0.482833	-1.101513
H149	H	1.637005	-0.149500	-0.768180
H150	H	1.970339	0.183834	-0.434847
H151	H	1.389028	-0.487498	-1.198443
H152	H	1.722361	-0.154165	-0.865109
H153	H	2.055695	0.179169	-0.531776
H154	H	1.396451	-0.481785	-0.907085
H155	H	1.729784	-0.148452	-0.573751
H156	H	2.063118	0.184881	-0.240418
H157	H	1.118399	-0.482029	-0.627806
H158	H	1.451732	-0.148696	-0.294473
H159	H	1.785066	0.184638	0.038861
N160	N	0.904844	-0.495683	-0.645558
N161	N	1.238177	-0.162350	-0.312225
N162	N	1.571510	0.170984	0.021108
H163	H	0.923985	-0.483236	-0.720653
H164	H	1.257318	-0.149903	-0.387320
H165	H	1.590652	0.183431	-0.053986
H166	H	0.923930	-0.553253	-0.629002
H167	H	1.257263	-0.219920	-0.295668
H168	H	1.590596	0.113414	0.037665
H169	H	0.919294	-0.294697	-0.384490
H170	H	1.252627	0.038636	-0.051156
H171	H	1.585960	0.371970	0.282177
