data_functionalizedCrystal
_audit_creation_method	'MofGen! by Chris Wilmer'
_symmetry_space_group_name_H-M	'P1'
_symmetry_Int_Tables_number	1
_symmetry_cell_setting	triclinic
loop_
_symmetry_equiv_pos_as_xyz
  x,y,z
_cell_length_a	20.919309
_cell_length_b	19.377372
_cell_length_c	19.377625
_cell_angle_alpha	75.978427
_cell_angle_beta	54.523960
_cell_angle_gamma	69.857042
loop_
_atom_site_label
_atom_site_type_symbol
_atom_site_fract_x
_atom_site_fract_y
_atom_site_fract_z
Zr1	Zr	0.612705	-0.268104	0.762278
O2	O	0.720172	-0.347601	0.667660
O3	O	0.488581	-0.239350	0.786525
O4	O	0.577740	-0.374593	0.815119
O5	O	0.664402	-0.110662	0.621924
O6	O	0.569106	-0.400873	0.936850
O7	O	0.631013	-0.212357	0.639066
O8	O	0.409618	-0.158947	0.885700
O9	O	0.823891	-0.352588	0.673073
O10	O	0.539361	-0.251995	0.893461
O11	O	0.570722	-0.156489	0.789822
O12	O	0.675695	-0.315721	0.823487
O13	O	0.707056	-0.220215	0.719848
Zr14	Zr	0.652186	-0.147824	0.929084
Zr15	Zr	0.598935	-0.310017	0.956425
Zr16	Zr	0.665956	-0.105912	0.734938
Zr17	Zr	0.778124	-0.276058	0.770911
Zr18	Zr	0.486767	-0.139871	0.920451
O19	O	0.776309	-0.176578	0.904838
O20	O	0.700593	-0.407195	0.943712
O21	O	0.795889	-0.116984	0.628786
O22	O	0.544719	-0.068328	1.023702
O23	O	0.469002	-0.298944	1.062577
O24	O	0.564298	-0.008733	0.747651
O25	O	0.600489	-0.305266	1.069439
O26	O	0.687151	-0.041335	0.876244
O27	O	0.695785	-0.015055	0.754513
O28	O	0.633878	-0.203571	1.052296
O29	O	0.812945	-0.385902	0.827394
O30	O	0.451946	-0.030026	0.863969
O31	O	0.441000	-0.063341	1.018289
O32	O	0.398672	-0.192262	1.040021
O33	O	0.866218	-0.223666	0.651341
O34	O	0.855273	-0.256981	0.805662
O35	O	0.589196	-0.100207	0.867875
O36	O	0.557835	-0.195713	0.971515
O37	O	0.694169	-0.259439	0.901541
O38	O	0.725530	-0.163933	0.797901
C39	C	0.425531	-0.198015	0.834883
C40	C	0.355306	-0.194639	0.831218
C41	C	0.649670	-0.155538	0.602833
C42	C	0.655515	-0.137745	0.520413
C43	C	0.699055	-0.005086	0.811483
C44	C	0.721662	0.063769	0.799876
C45	C	0.305944	-0.242905	0.883592
C46	C	0.239958	-0.239726	0.880150
C47	C	0.223338	-0.188283	0.824327
C48	C	0.272704	-0.140011	0.771951
C49	C	0.338686	-0.143188	0.775398
C50	C	0.024933	-0.176194	0.811216
C51	C	-0.041053	-0.173023	0.807770
C52	C	-0.073796	-0.272737	0.915971
C53	C	-0.007809	-0.275912	0.919410
C54	C	0.041549	-0.227638	0.867036
C55	C	0.155891	-0.185033	0.820805
C56	C	0.108990	-0.230884	0.870563
C57	C	0.839360	-0.217913	0.856480
C58	C	0.909585	-0.221289	0.860145
C59	C	0.565836	-0.410842	0.879880
C60	C	0.543229	-0.479697	0.891486
C61	C	0.440194	0.456533	0.944362
C62	C	0.461454	0.521222	0.933454
C63	C	0.603776	0.454688	0.860406
C64	C	0.582528	0.389993	0.871305
C65	C	0.500735	0.390921	0.913285
C66	C	0.643069	0.324381	0.840227
C67	C	0.621822	0.259690	0.851129
C68	C	0.540033	0.260612	0.893109
C69	C	0.479488	0.326231	0.924187
C70	C	0.724861	0.323453	0.798253
C71	C	0.785403	0.257841	0.767176
C72	C	0.764156	0.193150	0.778072
C73	C	0.682367	0.194071	0.820052
C74	C	0.824702	0.127531	0.746995
C75	C	0.803454	0.062840	0.757897
C76	C	0.661120	0.129381	0.830954
C77	C	0.582748	-0.359306	0.296545
C78	C	0.588242	-0.342564	0.219098
C79	C	0.625028	-0.230521	0.200232
C80	C	0.619541	-0.247256	0.277677
C81	C	0.598400	-0.311649	0.325828
C82	C	0.635193	-0.199599	0.306960
C83	C	0.629703	-0.216331	0.384400
C84	C	0.608561	-0.280720	0.432558
C85	C	0.592910	-0.328381	0.403269
C86	C	0.656329	-0.135204	0.258811
C87	C	0.671981	-0.087547	0.288094
C88	C	0.666496	-0.104281	0.365532
C89	C	0.645354	-0.168670	0.413689
C90	C	0.682147	-0.056620	0.394821
C91	C	0.676656	-0.073352	0.472262
C92	C	0.639863	-0.185402	0.491130
C93	C	0.615221	-0.260390	1.088529
C94	C	0.609375	-0.278183	1.170950
C95	C	0.408307	-0.250442	1.077731
C96	C	0.332236	-0.264858	1.156486
C97	C	0.492140	0.004863	0.800684
C98	C	0.444522	0.077094	0.785413
C99	C	0.474916	-0.047564	1.043532
C100	C	0.421452	0.006875	1.110681
C101	C	0.789975	-0.368365	0.647830
C102	C	0.843439	-0.422803	0.580681
C103	C	0.856584	-0.165487	0.613632
C104	C	0.932655	-0.151070	0.534876
C105	C	0.772750	-0.420791	0.890678
C106	C	0.820369	-0.493022	0.905950
C107	C	0.286867	-0.301014	1.152729
C108	C	0.215395	-0.314573	1.226723
C109	C	0.189291	-0.291972	1.304474
C110	C	0.234667	-0.255816	1.308229
C111	C	0.306140	-0.242261	1.234237
C112	C	0.431806	0.140400	0.818983
C113	C	0.387075	0.208276	0.804629
C114	C	0.355056	0.212843	0.756711
C115	C	0.367777	0.149530	0.723137
C116	C	0.412512	0.081657	0.737485
C117	C	0.379974	-0.017415	1.196322
C118	C	0.329746	0.033727	1.259424
C119	C	0.320992	0.109160	1.236884
C120	C	0.362477	0.133450	1.151234
C121	C	0.412708	0.082308	1.088134
C122	C	0.884925	-0.398513	0.495041
C123	C	0.935174	-0.449657	0.431940
C124	C	0.943931	-0.525089	0.454480
C125	C	0.902442	-0.549379	0.540129
C126	C	0.852199	-0.498237	0.603229
C127	C	0.978029	-0.114922	0.538635
C128	C	1.049513	-0.101380	0.464644
C129	C	1.075619	-0.123984	0.386895
C130	C	1.030240	-0.160138	0.383138
C131	C	0.958761	-0.173683	0.457129
C132	C	0.852374	-0.497566	0.953872
C133	C	0.897108	-0.565432	0.968238
C134	C	0.909841	-0.628753	0.934675
C135	C	0.877830	-0.624207	0.886750
C136	C	0.833092	-0.556343	0.872391
H137	H	0.319472	-0.284799	0.929045
H138	H	0.341701	0.153260	0.684120
H139	H	0.446475	0.102096	1.018402
F140	F	0.617373	-0.253942	0.542373
F141	F	0.872449	0.256861	0.722502
F142	F	0.910473	-0.212152	0.453115
H143	H	1.051507	-0.178538	0.319824
H144	H	0.946272	-0.684008	0.946374
H145	H	0.142352	-0.143148	0.775355
F146	F	0.875614	-0.318234	0.471033
H147	H	0.199766	-0.279027	0.922798
H148	H	0.888205	-0.675773	0.859427
F149	F	0.911747	0.126551	0.702329
F150	F	0.392435	0.327219	0.968858
H151	H	0.852753	0.009416	0.732590
F152	F	0.602713	-0.298524	0.514980
F153	F	0.314636	-0.325076	1.069989
F154	F	0.570420	-0.396921	0.454511
H155	H	0.457873	0.136696	0.858001
F156	F	0.167112	-0.353052	1.222708
H157	H	0.343074	-0.212816	1.237307
F158	F	0.126678	-0.285630	0.929974
F159	F	0.206873	-0.231764	1.390984
F160	F	0.799040	-0.551517	0.821377
F161	F	0.255007	-0.085253	0.712550
F162	F	0.353152	0.213735	1.127258
F163	F	0.307446	0.285085	0.741447
F164	F	0.979320	-0.423791	0.340791
H165	H	0.005720	-0.317801	0.964864
F166	F	0.113219	-0.306403	1.383217
F167	F	0.373543	0.275649	0.840371
F168	F	0.426035	0.014284	0.701755
F169	F	0.838831	-0.430183	0.989601
H170	H	-0.113990	-0.312039	0.958612
F171	F	0.389283	-0.097694	1.220330
F172	F	0.571578	-0.393293	0.187941
H173	H	1.086450	-0.071940	0.467719
F174	F	0.997407	-0.579513	0.387314
F175	F	0.267527	0.163582	1.304050
H176	H	0.923169	-0.569119	1.007259
H177	H	1.133823	-0.112950	0.326653
F178	F	-0.058736	-0.118269	0.748352
F179	F	0.397009	0.591049	0.966555
H180	H	0.642238	-0.178091	0.161021
H181	H	0.295971	0.013937	1.329159
F182	F	0.808044	-0.524099	0.694374
H183	H	0.065110	-0.136884	0.768572
H184	H	0.909579	-0.610802	0.558473
H185	H	0.956782	-0.096508	0.601935
F186	F	0.560258	-0.427847	0.347788
H187	H	0.594517	0.130140	0.865128
F188	F	0.517419	0.191760	0.904718
F189	F	0.391220	-0.091815	0.719656
F190	F	0.690823	0.453709	0.815733
F191	F	0.747473	0.392304	0.786653
F192	F	0.353141	0.457521	0.989033
F193	F	0.693313	-0.022627	0.503428
H194	H	0.660794	-0.121582	0.195757
F195	F	0.704635	0.011914	0.343573
F196	F	0.694477	-0.019016	0.236844
