data_functionalizedCrystal
_audit_creation_method	'MofGen! by Chris Wilmer'
_symmetry_space_group_name_H-M	'P1'
_symmetry_Int_Tables_number	1
_symmetry_cell_setting	triclinic
loop_
_symmetry_equiv_pos_as_xyz
  x,y,z
_cell_length_a	19.288840
_cell_length_b	18.366186
_cell_length_c	19.288865
_cell_angle_alpha	90.011479
_cell_angle_beta	83.131131
_cell_angle_gamma	90.016271
loop_
_atom_site_label
_atom_site_type_symbol
_atom_site_fract_x
_atom_site_fract_y
_atom_site_fract_z
O1	O	0.921364	0.060680	0.086566
O2	O	0.719101	0.060655	0.098273
O3	O	0.826077	0.060654	-0.008712
O4	O	0.814388	0.060681	0.193550
O5	O	0.826059	-0.060446	-0.008717
O6	O	0.719083	-0.060444	0.098268
O7	O	0.921346	-0.060420	0.086561
Zn8	Zn	0.820211	-0.079659	0.092413
Zn9	Zn	0.820235	0.079895	0.092420
O10	O	0.814370	-0.060418	0.193545
C11	C	0.693215	0.000102	0.097896
C12	C	0.616110	0.000093	0.096774
N13	N	0.820200	-0.188550	0.092408
C14	C	0.579917	0.066106	0.096238
C15	C	0.507470	0.066114	0.095176
C16	C	0.471221	0.000106	0.094636
C17	C	0.507423	-0.065915	0.095176
C18	C	0.579868	-0.065922	0.096245
C19	C	0.361886	-0.050461	0.052256
C20	C	0.289443	-0.050451	0.051183
C21	C	0.247778	0.000125	0.091342
C22	C	0.278565	0.050703	0.132566
C23	C	0.351009	0.050697	0.133635
C24	C	0.392667	0.000107	0.093477
C25	C	0.133029	0.066152	0.089655
C26	C	0.060580	0.066158	0.088598
C27	C	0.060535	-0.065874	0.088591
C28	C	0.132982	-0.065878	0.089656
C29	C	0.169225	0.000137	0.090185
C30	C	0.867584	-0.226651	0.045059
C31	C	0.867589	-0.302879	0.045055
C32	C	0.820215	-0.341003	0.092414
C33	C	0.772822	-0.302893	0.139767
C34	C	0.772814	-0.226666	0.139764
C35	C	0.810917	-0.461755	0.155702
C36	C	0.810930	-0.537980	0.155706
C37	C	0.820235	-0.576110	0.092422
C38	C	0.829543	-0.538006	0.029132
C39	C	0.829535	-0.461780	0.029129
C40	C	0.820218	-0.423658	0.092422
C41	C	0.867627	-0.696866	0.045066
C42	C	0.867627	-0.773096	0.045062
C43	C	0.772863	-0.773108	0.139779
C44	C	0.772860	-0.696880	0.139777
C45	C	0.820246	-0.658764	0.092421
C46	C	0.947232	0.000135	0.086937
C47	C	1.024336	0.000149	0.088059
C48	C	0.825692	0.000102	-0.034591
C49	C	0.824563	0.000095	-0.111694
N50	N	0.820252	0.188786	0.092420
C51	C	0.887331	0.000099	-0.156396
C52	C	0.886270	0.000111	-0.228843
C53	C	0.822438	0.000103	-0.256585
C54	C	0.759661	0.000104	-0.211873
C55	C	0.760723	0.000100	-0.139428
C56	C	0.772251	-0.042321	-0.364870
C57	C	0.771191	-0.042321	-0.437314
C58	C	0.819158	0.000119	-0.480030
C59	C	0.868196	0.042551	-0.450295
C60	C	0.869259	0.042547	-0.377849
C61	C	0.821278	0.000108	-0.335139
C62	C	0.880781	0.000137	-0.603288
C63	C	0.879717	0.000153	-0.675736
C64	C	0.753106	0.000138	-0.658764
C65	C	0.754171	0.000130	-0.586318
C66	C	0.818010	0.000125	-0.558584
C67	C	0.814755	0.000135	0.219424
C68	C	0.815884	0.000147	0.296527
H69	H	0.477995	0.119872	0.094741
H70	H	0.376073	0.091878	0.167202
H71	H	0.395805	-0.091649	0.019552
H72	H	0.734228	-0.195644	0.178322
H73	H	0.244641	0.091885	0.165270
C74	C	0.800678	-0.579304	0.224438
C75	C	0.735948	-0.560792	0.260950
C76	C	0.726475	-0.598849	0.324266
H77	H	0.836851	-0.566818	0.251646
H78	H	0.801976	-0.630170	0.215409
H79	H	0.734655	-0.509938	0.269980
H80	H	0.699763	-0.573280	0.233762
H81	H	0.727773	-0.649715	0.315237
H82	H	0.762651	-0.586359	0.351468
H83	H	0.682552	-0.586299	0.349044
H84	H	0.162452	-0.119633	0.090088
H85	H	0.906209	-0.665831	0.006503
H86	H	0.733189	-0.076885	-0.330095
C87	C	0.947817	0.000047	-0.724357
C88	C	0.950883	-0.062239	-0.766475
C89	C	1.013602	-0.062355	-0.811280
H90	H	0.986045	0.000007	-0.697550
H91	H	0.950047	0.042260	-0.752998
H92	H	0.948660	-0.104441	-0.737836
H93	H	0.912670	-0.062212	-0.793296
H94	H	1.015832	-0.020142	-0.839922
H95	H	1.051825	-0.062394	-0.784468
H96	H	1.015688	-0.104612	-0.839867
C97	C	0.950108	0.000296	-0.573208
C98	C	0.988038	0.062618	-0.595916
C99	C	1.051901	0.062797	-0.568214
H100	H	0.976027	-0.041878	-0.588558
H101	H	0.941779	0.000329	-0.523657
H102	H	0.996370	0.062578	-0.645457
H103	H	0.962140	0.104802	-0.580568
H104	H	1.043571	0.062830	-0.518663
H105	H	1.077813	0.020620	-0.583566
H106	H	1.077641	0.105084	-0.583613
H107	H	0.803327	-0.430716	0.207239
C108	C	0.683871	0.000098	-0.689009
C109	C	0.696373	0.000088	-0.762023
C110	C	0.632609	0.000046	-0.789911
H111	H	0.657990	0.042314	-0.673716
H112	H	0.658020	-0.042152	-0.673701
H113	H	0.722213	0.042334	-0.777325
H114	H	0.722243	-0.042124	-0.777336
H115	H	0.606758	-0.042204	-0.774603
H116	H	0.606733	0.042262	-0.774612
H117	H	0.641083	0.000032	-0.839453
H118	H	0.477905	-0.119660	0.094739
C119	C	0.690406	0.000209	-0.242085
C120	C	0.686117	0.062502	-0.283183
C121	C	0.622332	0.062623	-0.311032
H122	H	0.653113	0.000243	-0.205156
H123	H	0.687346	-0.042000	-0.270041
H124	H	0.689170	0.104699	-0.255229
H125	H	0.723395	0.062481	-0.320124
H126	H	0.619272	0.020415	-0.338988
H127	H	0.585044	0.062655	-0.274098
H128	H	0.619416	0.104885	-0.338925
H129	H	0.609336	-0.119680	0.096683
C130	C	0.920360	0.088654	-0.496548
C131	C	0.963542	0.125796	-0.455003
C132	C	1.011609	0.168261	-0.497591
H133	H	0.896022	0.122829	-0.521595
H134	H	0.948025	0.058085	-0.528566
H135	H	0.935880	0.156364	-0.422997
H136	H	0.987896	0.091640	-0.429957
H137	H	1.039274	0.137691	-0.529610
H138	H	0.987265	0.202431	-0.522636
H139	H	1.040917	0.193461	-0.469410
H140	H	0.906167	-0.195619	0.006497
H141	H	0.734249	-0.333937	0.178326
H142	H	0.709608	0.000096	-0.103030
H143	H	0.837112	-0.430759	-0.022404
H144	H	0.939314	0.000098	-0.133820
C145	C	0.839503	-0.579426	-0.039569
C146	C	0.780940	-0.623196	-0.044932
C147	C	0.790089	-0.661355	-0.108212
H148	H	0.879915	-0.609208	-0.041151
H149	H	0.845010	-0.545835	-0.077277
H150	H	0.775440	-0.656783	-0.007234
H151	H	0.740519	-0.593433	-0.043362
H152	H	0.795596	-0.627764	-0.145920
H153	H	0.830503	-0.691132	-0.109789
H154	H	0.750353	-0.691052	-0.111863
C155	C	0.721344	-0.655467	0.191084
C156	C	0.678927	-0.611744	0.154197
C157	C	0.631454	-0.573591	0.201438
H158	H	0.746156	-0.625656	0.219947
H159	H	0.693089	-0.689063	0.219282
H160	H	0.707178	-0.578152	0.126011
H161	H	0.654098	-0.641537	0.125336
H162	H	0.603199	-0.607186	0.229636
H163	H	0.656272	-0.543784	0.230300
H164	H	0.602664	-0.543925	0.176418
C165	C	0.954498	0.000075	-0.277273
C166	C	1.010631	0.000055	-0.237479
C167	C	1.073492	0.000012	-0.282066
H168	H	0.956823	0.042294	-0.305895
H169	H	0.956740	-0.042171	-0.305884
H170	H	1.008390	0.042297	-0.208880
H171	H	1.008329	-0.042161	-0.208858
H172	H	1.075734	-0.042235	-0.310677
H173	H	1.075810	0.042231	-0.310686
H174	H	1.111586	-0.000009	-0.255072
H175	H	0.703058	0.000122	-0.549920
C176	C	0.919155	-0.814334	-0.006380
C177	C	0.960662	-0.764635	-0.047836
C178	C	1.008146	-0.802597	-0.095224
H179	H	0.894351	-0.844090	-0.035299
H180	H	0.948025	-0.844037	0.018519
H181	H	0.931796	-0.734944	-0.072733
H182	H	0.985482	-0.734877	-0.018936
H183	H	1.037016	-0.832300	-0.070325
H184	H	0.983336	-0.832352	-0.124138
H185	H	1.036318	-0.768882	-0.123353
H186	H	0.731258	-0.076868	-0.461518
C187	C	0.721392	-0.814582	0.191086
C188	C	0.679008	-0.858382	0.154198
C189	C	0.631587	-0.896609	0.201437
H190	H	0.693104	-0.781053	0.219308
H191	H	0.746268	-0.844344	0.219927
H192	H	0.654134	-0.828623	0.125369
H193	H	0.707277	-0.891925	0.125978
H194	H	0.656463	-0.926371	0.230278
H195	H	0.603304	-0.863074	0.229657
H196	H	0.602828	-0.926337	0.176416
H197	H	0.609421	0.119860	0.096669
H198	H	0.162538	0.119905	0.090093
H199	H	0.906176	-0.333907	0.006496
H200	H	0.031112	0.119916	0.088165
H201	H	0.031022	-0.119619	0.088156
H202	H	0.909186	0.077098	-0.353642
H203	H	0.264383	-0.091632	0.017613
