data_functionalizedCrystal
_audit_creation_method	'MofGen! by Chris Wilmer'
_symmetry_space_group_name_H-M	'P1'
_symmetry_Int_Tables_number	1
_symmetry_cell_setting	triclinic
loop_
_symmetry_equiv_pos_as_xyz
  x,y,z
_cell_length_a	17.038272
_cell_length_b	10.654550
_cell_length_c	9.730223
_cell_angle_alpha	90.000043
_cell_angle_beta	89.995299
_cell_angle_gamma	92.201757
loop_
_atom_site_label
_atom_site_type_symbol
_atom_site_fract_x
_atom_site_fract_y
_atom_site_fract_z
O1	O	0.109878	-1.678042	-0.114188
O2	O	0.609878	-1.178042	0.385812
O3	O	0.120346	-1.313535	-0.114214
O4	O	0.620346	-0.813535	0.385786
O5	O	0.001285	-1.493622	-0.114190
O6	O	0.501285	-0.993622	0.385810
O7	O	0.228940	-1.497955	-0.114212
O8	O	0.728940	-0.997955	0.385788
O9	O	0.001281	-1.493609	0.114390
O10	O	0.501281	-0.993609	0.614390
O11	O	0.120343	-1.313523	0.114366
O12	O	0.620343	-0.813523	0.614366
O13	O	0.109875	-1.678029	0.114392
O14	O	0.609875	-1.178029	0.614392
Zn15	Zn	0.115108	-1.495774	0.150671
Zn16	Zn	0.615108	-0.995774	0.650671
Zn17	Zn	0.115113	-1.495791	-0.150493
Zn18	Zn	0.615113	-0.995791	0.349507
O19	O	0.228936	-1.497942	0.114368
O20	O	0.728936	-0.997942	0.614368
C21	C	0.119576	-1.266660	0.000073
C22	C	0.619576	-0.766660	0.500073
C23	C	0.117276	-1.127003	0.000064
C24	C	0.617276	-0.627003	0.500064
N25	N	0.115105	-1.495771	0.356207
N26	N	0.615105	-0.995771	0.856207
C27	C	-0.027867	-1.489675	0.000099
C28	C	0.472133	-0.989675	0.500099
C29	C	-0.114726	-1.477918	0.000098
C30	C	0.385274	-0.977918	0.500098
C31	C	-0.164237	-1.585862	0.000107
C32	C	0.335763	-1.085862	0.500107
C33	C	-0.245849	-1.574808	0.000093
C34	C	0.254151	-1.074808	0.500093
C35	C	-0.277949	-1.455808	0.000080
C36	C	0.222051	-0.955808	0.500080
C37	C	-0.228431	-1.347855	0.000067
C38	C	0.271569	-0.847855	0.500067
C39	C	-0.146820	-1.358911	0.000071
C40	C	0.353180	-0.858911	0.500071
C41	C	-0.523925	-1.416750	0.000059
C42	C	-0.023925	-0.916750	0.500059
C43	C	-0.605542	-1.405702	0.000059
C44	C	-0.105542	-0.905702	0.500059
C45	C	-0.622955	-1.632655	0.000082
C46	C	-0.122955	-1.132655	0.500082
C47	C	-0.541341	-1.643701	0.000094
C48	C	-0.041341	-1.143701	0.500094
C49	C	-0.491831	-1.535748	0.000074
C50	C	0.008169	-1.035748	0.500074
C51	C	-0.361369	-1.444505	0.000070
C52	C	0.138631	-0.944505	0.500070
C53	C	-0.408412	-1.547052	0.000074
C54	C	0.091588	-1.047052	0.500074
C55	C	0.258088	-1.501889	0.000076
C56	C	0.758088	-1.001889	0.500076
C57	C	0.344947	-1.513646	0.000068
C58	C	0.844947	-1.013646	0.500068
C59	C	0.110645	-1.724905	0.000102
C60	C	0.610645	-1.224905	0.500102
C61	C	0.112945	-1.864561	0.000102
C62	C	0.612945	-1.364561	0.500102
C63	C	0.187378	-1.054026	0.000061
C64	C	0.687378	-0.554026	0.500061
C65	C	0.185213	-0.922805	0.000085
C66	C	0.685213	-0.422805	0.500085
C67	C	0.042838	-0.937548	0.000109
C68	C	0.542838	-0.437548	0.500109
C69	C	0.045004	-1.068767	0.000095
C70	C	0.545004	-0.568767	0.500095
N71	N	0.115110	-1.495802	-0.356029
N72	N	0.615110	-0.995802	0.143971
C73	C	0.062407	-1.575545	0.428144
C74	C	0.562407	-1.075545	0.928144
C75	C	0.062407	-1.575558	0.572027
C76	C	0.562407	-1.075558	1.072027
C77	C	0.167810	-1.416020	0.572024
C78	C	0.667810	-0.916020	1.072024
C79	C	0.167806	-1.416002	0.428144
C80	C	0.667806	-0.916002	0.928144
H81	H	-0.138109	-1.682764	0.000126
H82	H	0.361891	-1.182764	0.500126
H83	H	-0.631674	-1.308794	0.000071
H84	H	-0.131674	-0.808794	0.500071
H85	H	-0.663274	-1.720544	0.000096
H86	H	-0.163274	-1.220544	0.500096
H87	H	0.246227	-1.101438	0.000046
H88	H	0.746227	-0.601438	0.500046
H89	H	-0.016004	-0.890116	0.000142
H90	H	0.483996	-0.390116	0.500142
H91	H	-0.382273	-1.643941	0.000054
H92	H	0.117727	-1.143941	0.500054
H93	H	-0.012085	-1.128187	0.000101
H94	H	0.487915	-0.628187	0.500101
H95	H	-0.254573	-1.250963	0.000048
H96	H	0.245427	-0.750963	0.500048
H97	H	0.210719	-1.351034	0.369569
H98	H	0.710719	-0.851034	0.869569
H99	H	0.210719	-1.351074	0.630609
H100	H	0.710719	-0.851074	1.130609
H101	H	-0.483623	-1.328847	0.000043
H102	H	0.016377	-0.828847	0.500043
H103	H	-0.106509	-1.271011	0.000064
H104	H	0.393491	-0.771011	0.500064
H105	H	0.242297	-0.863392	0.000086
H106	H	0.742297	-0.363392	0.500086
H107	H	-0.387514	-1.347615	0.000063
H108	H	0.112486	-0.847615	0.500063
H109	H	-0.286159	-1.662708	0.000103
H110	H	0.213841	-1.162708	0.500103
H111	H	0.019495	-1.640515	0.630593
H112	H	0.519495	-1.140515	1.130593
H113	H	-0.515213	-1.740603	0.000105
H114	H	-0.015213	-1.240603	0.500105
H115	H	0.019494	-1.640497	0.369576
H116	H	0.519494	-1.140497	0.869576
