data_functionalizedCrystal
_audit_creation_method	'MofGen! by Chris Wilmer'
_symmetry_space_group_name_H-M	'P1'
_symmetry_Int_Tables_number	1
_symmetry_cell_setting	triclinic
loop_
_symmetry_equiv_pos_as_xyz
  x,y,z
_cell_length_a	19.188930
_cell_length_b	19.188925
_cell_length_c	9.198806
_cell_angle_alpha	90.001285
_cell_angle_beta	90.011901
_cell_angle_gamma	83.143665
loop_
_atom_site_label
_atom_site_type_symbol
_atom_site_fract_x
_atom_site_fract_y
_atom_site_fract_z
O1	O	-0.087152	-0.926143	-0.120940
O2	O	0.246181	-0.592809	0.212393
O3	O	0.579515	-0.259476	0.545727
O4	O	-0.098890	-0.722831	-0.120938
O5	O	0.234443	-0.389498	0.212395
O6	O	0.567776	-0.056164	0.545728
O7	O	0.008635	-0.830354	-0.120911
O8	O	0.341968	-0.497021	0.212423
O9	O	0.675301	-0.163687	0.545756
O10	O	-0.194677	-0.818620	-0.120967
O11	O	0.138656	-0.485286	0.212366
O12	O	0.471990	-0.151953	0.545699
O13	O	0.008643	-0.830354	0.120874
O14	O	0.341976	-0.497020	0.454208
O15	O	0.675310	-0.163687	0.787541
O16	O	-0.098882	-0.722831	0.120847
O17	O	0.234452	-0.389497	0.454180
O18	O	0.567785	-0.056164	0.787514
O19	O	-0.087144	-0.926142	0.120845
O20	O	0.246190	-0.592809	0.454178
O21	O	0.579523	-0.259476	0.787512
Cu22	Cu	-0.093012	-0.824487	0.142923
Cu23	Cu	0.240321	-0.491153	0.476256
Cu24	Cu	0.573655	-0.157820	0.809590
Cu25	Cu	-0.093022	-0.824487	-0.143016
Cu26	Cu	0.240311	-0.491153	0.190317
Cu27	Cu	0.573645	-0.157820	0.523651
O28	O	-0.194668	-0.818619	0.120818
O29	O	0.138665	-0.485286	0.454151
O30	O	0.471998	-0.151953	0.787484
C31	C	0.034650	-0.829974	-0.000014
C32	C	0.367983	-0.496640	0.333319
C33	C	0.701317	-0.163307	0.666653
C34	C	0.112154	-0.828833	-0.000002
C35	C	0.445488	-0.495500	0.333332
C36	C	0.778821	-0.162166	0.666665
C37	C	-0.098507	-0.696820	-0.000045
C38	C	0.234827	-0.363486	0.333288
C39	C	0.568160	-0.030153	0.666622
C40	C	-0.097367	-0.619315	-0.000043
C41	C	0.235966	-0.285982	0.333290
C42	C	0.569299	0.047352	0.666624
C43	C	-0.220684	-0.819000	-0.000082
C44	C	0.112650	-0.485666	0.333251
C45	C	0.445983	-0.152333	0.666584
C46	C	-0.298188	-0.820140	-0.000104
C47	C	0.035145	-0.486807	0.333229
C48	C	0.368478	-0.153474	0.666562
C49	C	0.157079	-0.891924	0.000005
C50	C	0.490413	-0.558591	0.333338
C51	C	0.823746	-0.225257	0.666672
C52	C	0.229903	-0.890852	-0.000018
C53	C	0.563237	-0.557519	0.333315
C54	C	0.896570	-0.224186	0.666648
C55	C	0.257799	-0.826686	-0.000019
C56	C	0.591132	-0.493353	0.333314
C57	C	0.924465	-0.160020	0.666648
C58	C	0.212864	-0.763587	-0.000033
C59	C	0.546197	-0.430254	0.333300
C60	C	0.879530	-0.096920	0.666633
C61	C	0.140041	-0.764660	-0.000025
C62	C	0.473375	-0.431327	0.333309
C63	C	0.806708	-0.097994	0.666642
N64	N	0.365806	-0.777639	0.082266
N65	N	0.699139	-0.444305	0.415599
N66	N	1.032472	-0.110972	0.748932
N67	N	0.434984	-0.776623	0.082260
N68	N	0.768317	-0.443290	0.415594
N69	N	1.101651	-0.109957	0.748927
C70	C	0.477207	-0.823448	-0.000048
C71	C	0.810541	-0.490115	0.333285
C72	C	1.143874	-0.156781	0.666618
N73	N	0.447640	-0.871337	-0.082333
N74	N	0.780973	-0.538004	0.251000
N75	N	1.114306	-0.204671	0.584333
N76	N	0.378455	-0.872355	-0.082322
N77	N	0.711788	-0.539022	0.251012
N78	N	1.045122	-0.205688	0.584345
C79	C	0.336761	-0.825515	-0.000029
C80	C	0.670094	-0.492182	0.333304
C81	C	1.003428	-0.158848	0.666637
C82	C	0.601097	-0.885381	-0.000069
C83	C	0.934430	-0.552048	0.333264
C84	C	1.267763	-0.218715	0.666597
C85	C	0.673922	-0.884307	-0.000101
C86	C	1.007255	-0.550974	0.333232
C87	C	1.340588	-0.217640	0.666565
C88	C	0.656880	-0.757040	-0.000102
C89	C	0.990214	-0.423706	0.333231
C90	C	1.323547	-0.090373	0.666565
C91	C	0.584057	-0.758116	-0.000084
C92	C	0.917390	-0.424782	0.333249
C93	C	1.250724	-0.091449	0.666582
C94	C	0.556170	-0.822289	-0.000061
C95	C	0.889503	-0.488955	0.333272
C96	C	1.222837	-0.155622	0.666606
C97	C	-0.087527	-0.952154	-0.000051
C98	C	0.245806	-0.618820	0.333282
C99	C	0.579139	-0.285487	0.666615
C100	C	-0.088666	-1.029658	-0.000063
C101	C	0.244667	-0.696325	0.333271
C102	C	0.578000	-0.362992	0.666604
C103	C	-0.152831	-0.057545	-0.000062
C104	C	0.180502	0.275789	0.333271
C105	C	0.513835	0.609122	0.666605
C106	C	-0.153908	-0.130368	-0.000070
C107	C	0.179425	0.202965	0.333263
C108	C	0.512759	0.536299	0.666597
C109	C	-0.090816	-0.175302	-0.000050
C110	C	0.242518	0.158031	0.333283
C111	C	0.575851	0.491364	0.666617
C112	C	-0.026642	-0.147408	-0.000059
C113	C	0.306691	0.185925	0.333274
C114	C	0.640024	0.519258	0.666608
C115	C	-0.025568	-0.074586	-0.000065
C116	C	0.307766	0.258747	0.333268
C117	C	0.641099	0.592080	0.666601
N118	N	-0.045137	-0.295979	0.082268
N119	N	0.288197	0.037354	0.415601
N120	N	0.621530	0.370687	0.748935
N121	N	-0.046162	-0.365157	0.082277
N122	N	0.287171	-0.031823	0.415611
N123	N	0.620505	0.301510	0.748944
C124	C	-0.094050	-0.394712	-0.000034
C125	C	0.239284	-0.061378	0.333300
C126	C	0.572617	0.271955	0.666633
N127	N	-0.140884	-0.352474	-0.082336
N128	N	0.192449	-0.019141	0.250997
N129	N	0.525782	0.314192	0.584331
N130	N	-0.139861	-0.283290	-0.082339
N131	N	0.193472	0.050043	0.250995
N132	N	0.526805	0.383376	0.584328
C133	C	-0.091974	-0.254267	-0.000044
C134	C	0.241359	0.079067	0.333289
C135	C	0.574693	0.412400	0.666623
C136	C	-0.159386	-0.501561	-0.000044
C137	C	0.173947	-0.168227	0.333290
C138	C	0.507280	0.165106	0.666623
C139	C	-0.160460	-0.574385	-0.000061
C140	C	0.172873	-0.241052	0.333272
C141	C	0.506206	0.092281	0.666606
C142	C	-0.033193	-0.591425	-0.000035
C143	C	0.300141	-0.258091	0.333298
C144	C	0.633474	0.075242	0.666632
C145	C	-0.032121	-0.518601	-0.000033
C146	C	0.301213	-0.185268	0.333301
C147	C	0.634546	0.148066	0.666634
C148	C	-0.095220	-0.473673	-0.000030
C149	C	0.238114	-0.140340	0.333303
C150	C	0.571447	0.192994	0.666637
N151	N	-0.093024	-0.824487	-0.344130
N152	N	0.240309	-0.491154	-0.010797
N153	N	0.573643	-0.157821	0.322537
C154	C	-0.138164	-0.779160	-0.583778
C155	C	0.195169	-0.445826	-0.250444
C156	C	0.528503	-0.112493	0.082889
C157	C	-0.138175	-0.779157	-0.416365
C158	C	0.195158	-0.445824	-0.083032
C159	C	0.528492	-0.112490	0.250301
N160	N	-0.093004	-0.824491	0.344037
N161	N	0.240329	-0.491158	0.677370
N162	N	0.573662	-0.157825	1.010703
H163	H	0.134379	-0.944179	0.000019
H164	H	0.467712	-0.610845	0.333352
H165	H	0.801046	-0.277512	0.666686
H166	H	0.266488	-0.942230	-0.000019
H167	H	0.599822	-0.608897	0.333314
H168	H	0.933155	-0.275564	0.666648
F169	F	0.536242	-0.690965	-0.000085
F170	F	0.869576	-0.357631	0.333248
F171	F	1.202909	-0.024298	0.666581
F172	F	0.242553	-0.695297	-0.000043
F173	F	0.575886	-0.361963	0.333290
F174	F	0.909219	-0.028630	0.666623
F175	F	0.092227	-0.697507	-0.000032
F176	F	0.425560	-0.364174	0.333301
F177	F	0.758893	-0.030840	0.666634
H178	H	-0.054352	-0.863303	-0.593825
H179	H	0.278981	-0.529969	-0.260492
H180	H	0.612315	-0.196636	0.072842
F181	F	-0.042476	-0.875210	-0.425255
F182	F	0.290857	-0.541877	-0.091922
F183	F	0.624191	-0.208544	0.241411
H184	H	0.578390	-0.937635	-0.000057
H185	H	0.911723	-0.604301	0.333276
H186	H	1.245057	-0.270968	0.666610
H187	H	-0.204211	-0.020968	-0.000067
H188	H	0.129122	0.312365	0.333266
H189	H	0.462455	0.645698	0.666600
F190	F	0.040505	-0.195232	-0.000043
F191	F	0.373838	0.138102	0.333291
F192	F	0.707171	0.471435	0.666624
H193	H	-0.206160	-0.153078	-0.000056
H194	H	0.127173	0.180256	0.333277
H195	H	0.460506	0.513589	0.666611
H196	H	0.710500	-0.935686	-0.000104
H197	H	1.043833	-0.602352	0.333229
H198	H	1.377166	-0.269019	0.666562
H199	H	0.679592	-0.704794	-0.000110
H200	H	1.012925	-0.371461	0.333224
H201	H	1.346258	-0.038128	0.666557
H202	H	0.026685	-0.051883	-0.000066
H203	H	0.360018	0.281451	0.333267
H204	H	0.693351	0.614784	0.666600
H205	H	0.020129	-0.495896	-0.000024
H206	H	0.353463	-0.162563	0.333309
H207	H	0.686796	0.170770	0.666642
H208	H	-0.210765	-0.464978	-0.000044
H209	H	0.122568	-0.131645	0.333289
H210	H	0.455902	0.201689	0.666622
H211	H	-0.212713	-0.597088	-0.000072
H212	H	0.120620	-0.263755	0.333261
H213	H	0.453954	0.069579	0.666594
H214	H	-0.176822	-0.740353	-0.645914
H215	H	0.156511	-0.407020	-0.312580
H216	H	0.489845	-0.073686	0.020753
F217	F	0.033955	-0.639242	-0.000032
F218	F	0.367289	-0.305909	0.333301
F219	F	0.700622	0.027424	0.666635
H220	H	-0.176835	-0.740344	-0.354289
H221	H	0.156498	-0.407011	-0.020956
H222	H	0.489831	-0.073677	0.312378
