data_functionalizedCrystal
_audit_creation_method	'MofGen! by Chris Wilmer'
_symmetry_space_group_name_H-M	'P1'
_symmetry_Int_Tables_number	1
_symmetry_cell_setting	triclinic
loop_
_symmetry_equiv_pos_as_xyz
  x,y,z
_cell_length_a	16.625539
_cell_length_b	16.625548
_cell_length_c	18.101165
_cell_angle_alpha	90.184977
_cell_angle_beta	89.799111
_cell_angle_gamma	90.020568
loop_
_atom_site_label
_atom_site_type_symbol
_atom_site_fract_x
_atom_site_fract_y
_atom_site_fract_z
Zn1	Zn	-0.454943	-1.233848	-0.294814
Zn2	Zn	0.045057	-0.733848	0.205186
Zn3	Zn	-0.319704	-1.234242	-0.418666
Zn4	Zn	0.180296	-0.734242	0.081334
Zn5	Zn	-0.320123	-1.099010	-0.294842
Zn6	Zn	0.179877	-0.599010	0.205158
Zn7	Zn	-0.454494	-1.099471	-0.418624
Zn8	Zn	0.045506	-0.599471	0.081376
O9	O	-0.387316	-1.166643	-0.356737
O10	O	0.112684	-0.666643	0.143263
O11	O	-0.437016	-1.346733	-0.311249
O12	O	0.062984	-0.846733	0.188751
O13	O	-0.206927	-1.216275	-0.402270
O14	O	0.293073	-0.716275	0.097730
O15	O	-0.338371	-1.116539	-0.191203
O16	O	0.161629	-0.616539	0.308797
O17	O	-0.337656	-1.347022	-0.402243
O18	O	0.162344	-0.847022	0.097757
O19	O	-0.437422	-1.215604	-0.191183
O20	O	0.062578	-0.715604	0.308817
O21	O	-0.207235	-1.116921	-0.311297
O22	O	0.292765	-0.616921	0.188703
O23	O	-0.337936	-0.986239	-0.311256
O24	O	0.162064	-0.486239	0.188744
O25	O	-0.567386	-1.117324	-0.402170
O26	O	-0.067386	-0.617324	0.097830
O27	O	-0.436657	-0.986577	-0.402198
O28	O	0.063343	-0.486577	0.097802
O29	O	-0.567716	-1.216051	-0.311208
O30	O	-0.067716	-0.716051	0.188792
O31	O	-0.337221	-1.216722	-0.522296
O32	O	0.162779	-0.716722	-0.022296
O33	O	-0.436251	-1.117706	-0.522265
O34	O	0.063749	-0.617706	-0.022265
C35	C	-0.387294	-0.957152	-0.356726
C36	C	0.112706	-0.457152	0.143274
C37	C	-0.387303	-0.867531	-0.356739
C38	C	0.112697	-0.367531	0.143261
C39	C	-0.386659	-1.167329	-0.549152
C40	C	0.113341	-0.667329	-0.049152
C41	C	-0.386405	-1.167696	-0.631468
C42	C	0.113595	-0.667696	-0.131468
C43	C	-0.597625	-1.166695	-0.356681
C44	C	-0.097625	-0.666695	0.143319
C45	C	-0.687247	-1.166717	-0.356658
C46	C	-0.187247	-0.666717	0.143342
C47	C	-1.015423	-1.166754	-0.356575
C48	C	-0.515423	-0.666754	0.143425
C49	C	-0.924114	-1.166742	-0.356600
C50	C	-0.424114	-0.666742	0.143400
C51	C	-0.851338	-1.166736	-0.356617
C52	C	-0.351338	-0.666736	0.143383
C53	C	-0.760023	-1.166723	-0.356641
C54	C	-0.260023	-0.666723	0.143359
C55	C	-0.177825	-1.166637	-0.356738
C56	C	0.322175	-0.666637	0.143262
C57	C	-0.088205	-1.166770	-0.356553
C58	C	0.411795	-0.666770	0.143447
C59	C	-0.387339	-1.376952	-0.356748
C60	C	0.112661	-0.876952	0.143252
C61	C	-0.387349	-1.466573	-0.356753
C62	C	0.112651	-0.966573	0.143247
C63	C	-0.387338	-0.539355	-0.356744
C64	C	0.112662	-0.039355	0.143256
C65	C	-0.387325	-0.630664	-0.356741
C66	C	0.112675	-0.130664	0.143259
C67	C	-0.387320	-0.703440	-0.356742
C68	C	0.112680	-0.203440	0.143258
C69	C	-0.387309	-0.794754	-0.356738
C70	C	0.112691	-0.294754	0.143262
C71	C	-0.387993	-1.165976	-0.163570
C72	C	0.112007	-0.665976	0.336430
C73	C	-0.388282	-1.165692	-0.081254
C74	C	0.111718	-0.665692	0.418746
C75	C	-0.387653	-1.166364	0.069450
C76	C	0.112347	-0.666364	0.569450
C77	C	-0.325206	-1.104174	0.100790
C78	C	0.174794	-0.604174	0.600790
C79	C	-0.324604	-1.104739	0.186403
C80	C	0.175396	-0.604739	0.686403
C81	C	-0.387034	-1.167024	0.217828
C82	C	0.112966	-0.667024	0.717828
C83	C	-0.364386	-1.251918	0.186023
C84	C	0.135614	-0.751918	0.686023
C85	C	-0.364291	-1.251176	0.100380
C86	C	0.135709	-0.751176	0.600380
C87	C	-0.472773	-1.144545	0.101730
C88	C	0.027227	-0.644545	0.601730
C89	C	-0.471959	-1.143051	0.187388
C90	C	0.028041	-0.643051	0.687388
C91	C	-0.386685	-1.167402	0.301685
C92	C	0.113315	-0.667402	0.801685
C93	C	-0.388000	-1.165991	-0.014407
C94	C	0.112000	-0.665991	0.485593
H95	H	-0.338740	-1.041788	0.207936
H96	H	0.161260	-0.541788	0.707936
C97	C	-0.344328	-1.018605	0.073693
C98	C	0.155672	-0.518605	0.573693
N99	N	-0.358740	-0.954151	0.053288
N100	N	0.141260	-0.454151	0.553288
C101	C	-0.535609	-1.205744	0.074353
C102	C	-0.035609	-0.705744	0.574353
N103	N	-0.582932	-1.251841	0.053727
N104	N	-0.082932	-0.751841	0.553727
C105	C	-0.239145	-1.124510	0.213385
C106	C	0.260855	-0.624510	0.713385
N107	N	-0.174773	-1.139398	0.233707
N108	N	0.325227	-0.639398	0.733707
C109	C	-0.423702	-1.316496	0.213492
C110	C	0.076298	-0.816496	0.713492
N111	N	-0.468378	-1.365135	0.234184
N112	N	0.031622	-0.865135	0.734184
H113	H	-0.262484	-1.118460	0.078758
H114	H	0.237516	-0.618460	0.578758
H115	H	-0.302065	-1.269668	0.079865
H116	H	0.197935	-0.769668	0.579865
H117	H	-0.302672	-1.270915	0.206936
H118	H	0.197328	-0.770915	0.706936
C119	C	-0.495062	-1.058637	0.215562
C120	C	0.004938	-0.558637	0.715562
N121	N	-0.512463	-0.995057	0.236790
N122	N	-0.012463	-0.495057	0.736790
H123	H	-0.407823	-1.299106	0.079617
H124	H	0.092177	-0.799106	0.579617
C125	C	-0.537895	-1.200012	0.216338
C126	C	-0.037895	-0.700012	0.716338
N127	N	-0.587557	-1.242922	0.238140
N128	N	-0.087557	-0.742922	0.738140
H129	H	-0.493649	-1.083496	0.080677
H130	H	0.006351	-0.583496	0.580677
