data_functionalizedCrystal
_audit_creation_method	'MofGen! by Chris Wilmer'
_symmetry_space_group_name_H-M	'P1'
_symmetry_Int_Tables_number	1
_symmetry_cell_setting	triclinic
loop_
_symmetry_equiv_pos_as_xyz
  x,y,z
_cell_length_a	17.639874
_cell_length_b	12.827893
_cell_length_c	12.827885
_cell_angle_alpha	90.025051
_cell_angle_beta	101.173872
_cell_angle_gamma	78.774889
loop_
_atom_site_label
_atom_site_type_symbol
_atom_site_fract_x
_atom_site_fract_y
_atom_site_fract_z
Zn1	Zn	-1.208361	-0.092759	0.268483
Zn2	Zn	-1.208308	-0.267551	0.093771
Zn3	Zn	-1.076194	-0.128164	0.129020
Zn4	Zn	-1.076210	-0.302808	0.303716
O5	O	-1.142268	-0.197820	0.198748
O6	O	-1.318950	-0.086374	0.215810
O7	O	-1.190754	-0.249122	-0.047781
O8	O	-1.093741	0.022773	0.147526
O9	O	-1.318912	-0.214792	0.087450
O10	O	-1.190844	0.048784	0.249989
O11	O	-1.093690	-0.146715	-0.021885
O12	O	-0.965599	-0.180903	0.181690
O13	O	-1.093769	-0.274883	0.445271
O14	O	-0.965611	-0.309213	0.310039
O15	O	-1.190860	-0.120561	0.419385
O16	O	-1.190770	-0.418468	0.121615
O17	O	-1.093718	-0.444371	0.275861
C18	C	-0.936929	-0.252726	0.253514
C19	C	-0.849084	-0.276241	0.276968
C20	C	-1.142261	-0.469332	0.198753
C21	C	-1.142331	-0.585467	0.198771
C22	C	-1.142322	-0.197706	0.471303
C23	C	-1.142345	-0.197657	0.587451
C24	C	-0.560032	-0.019102	0.020525
C25	C	-0.477488	-0.041218	0.042578
C26	C	-0.477555	-0.175012	0.175997
C27	C	-0.560100	-0.152903	0.153959
C28	C	-0.601332	-0.074948	0.076221
C29	C	-0.601401	-0.208749	0.209655
C30	C	-0.683939	-0.186646	0.187615
C31	C	-0.725177	-0.108697	0.109878
C32	C	-0.683871	-0.052845	0.054180
C33	C	-0.560167	-0.286709	0.287387
C34	C	-0.601468	-0.342555	0.343083
C35	C	-0.684007	-0.320447	0.321049
C36	C	-0.725245	-0.242498	0.243312
C37	C	-0.725314	-0.376299	0.376746
C38	C	-0.807852	-0.354196	0.354706
C39	C	-0.807783	-0.220394	0.221272
C40	C	-0.348409	-0.142688	0.143757
C41	C	-0.436254	-0.119160	0.120296
C42	C	-1.142297	0.074757	0.198759
C43	C	-1.142309	0.190914	0.198764
C44	C	-1.094270	0.229830	0.148069
C45	C	-1.094281	0.349883	0.148073
C46	C	-1.142260	-0.197847	-0.072760
C47	C	-1.142390	-0.197561	-0.188948
C48	C	-1.190394	-0.121280	0.626425
C49	C	-1.190419	-0.121227	0.746468
H50	H	-0.841357	-0.156900	0.157985
H51	H	-0.492959	-0.304703	0.305330
H52	H	-0.792385	-0.090704	0.091932
H53	H	-1.183464	0.381025	0.242171
H54	H	-0.443864	0.004272	-0.002776
H55	H	-0.841480	-0.399670	0.400060
H56	H	-0.567885	-0.406030	0.406375
H57	H	-1.053156	0.383399	0.104666
C58	C	-0.679947	-0.462052	0.462250
N59	N	-0.645777	-0.526643	0.526653
H60	H	-0.717444	0.010650	-0.009106
C61	C	-1.038743	0.154787	0.089352
N62	N	-0.996937	0.098270	0.045095
C63	C	-1.245942	-0.032988	0.551445
N64	N	-1.287783	0.033516	0.494972
H65	H	-1.183443	0.246473	0.242173
H66	H	-1.231558	-0.055841	0.780034
C67	C	-1.086812	-0.285905	0.765718
N68	N	-1.044949	-0.352445	0.731564
H69	H	-1.101222	-0.263002	0.642957
H70	H	-0.593605	0.044393	-0.042762
H71	H	-0.443973	-0.238486	0.239288
