data_functionalizedCrystal
_audit_creation_method	'MofGen! by Chris Wilmer'
_symmetry_space_group_name_H-M	'P1'
_symmetry_Int_Tables_number	1
_symmetry_cell_setting	triclinic
loop_
_symmetry_equiv_pos_as_xyz
  x,y,z
_cell_length_a	14.044220
_cell_length_b	18.266242
_cell_length_c	14.044190
_cell_angle_alpha	90.010750
_cell_angle_beta	93.190328
_cell_angle_gamma	90.003954
loop_
_atom_site_label
_atom_site_type_symbol
_atom_site_fract_x
_atom_site_fract_y
_atom_site_fract_z
O1	O	1.277180	0.060818	0.230170
O2	O	1.527180	0.310818	0.480170
O3	O	1.777180	0.560818	0.730170
O4	O	2.027180	0.810818	0.980170
O5	O	1.000508	0.060836	0.221865
O6	O	1.250508	0.310836	0.471865
O7	O	1.500508	0.560836	0.721865
O8	O	1.750508	0.810836	0.971865
O9	O	1.134688	0.060813	0.087681
O10	O	1.384688	0.310813	0.337681
O11	O	1.634688	0.560813	0.587681
O12	O	1.884688	0.810813	0.837681
O13	O	1.143001	0.060841	0.364354
O14	O	1.393001	0.310841	0.614354
O15	O	1.643001	0.560841	0.864354
O16	O	1.893001	0.810841	1.114354
O17	O	1.134662	-0.060949	0.087672
O18	O	1.384662	0.189051	0.337672
O19	O	1.634662	0.439051	0.587672
O20	O	1.884662	0.689051	0.837672
O21	O	1.000483	-0.060926	0.221855
O22	O	1.250483	0.189074	0.471855
O23	O	1.500483	0.439074	0.721855
O24	O	1.750483	0.689074	0.971855
O25	O	1.277155	-0.060944	0.230161
O26	O	1.527155	0.189056	0.480161
O27	O	1.777155	0.439056	0.730161
O28	O	2.027155	0.689056	0.980161
Zn29	Zn	1.138815	-0.080267	0.226006
Zn30	Zn	1.388815	0.169733	0.476006
Zn31	Zn	1.638815	0.419733	0.726006
Zn32	Zn	1.888815	0.669733	0.976006
Zn33	Zn	1.138848	0.080159	0.226019
Zn34	Zn	1.388848	0.330159	0.476019
Zn35	Zn	1.638848	0.580159	0.726019
Zn36	Zn	1.888848	0.830159	0.976019
O37	O	1.142975	-0.060921	0.364344
O38	O	1.392975	0.189079	0.614344
O39	O	1.642975	0.439079	0.864344
O40	O	1.892975	0.689079	1.114344
C41	C	0.964874	-0.000043	0.218224
C42	C	1.214874	0.249957	0.468224
C43	C	1.464874	0.499957	0.718224
C44	C	1.714874	0.749957	0.968224
C45	C	0.858731	-0.000037	0.207380
C46	C	1.108731	0.249963	0.457380
C47	C	1.358731	0.499963	0.707380
C48	C	1.608731	0.749963	0.957380
N49	N	1.138799	-0.189754	0.225998
N50	N	1.388799	0.060246	0.475998
N51	N	1.638799	0.310246	0.725998
N52	N	1.888799	0.560246	0.975998
C53	C	0.664392	-0.000053	0.187553
C54	C	0.914392	0.249947	0.437553
C55	C	1.164392	0.499947	0.687553
C56	C	1.414392	0.749947	0.937553
C57	C	0.613264	-0.000048	0.264468
C58	C	0.863264	0.249952	0.514468
C59	C	1.113264	0.499952	0.764468
C60	C	1.363264	0.749952	1.014468
C61	C	0.505128	-0.000058	0.253436
C62	C	0.755128	0.249942	0.503436
C63	C	1.005128	0.499942	0.753436
C64	C	1.255128	0.749942	1.003436
C65	C	0.772539	-0.000044	0.198583
C66	C	1.022539	0.249956	0.448583
C67	C	1.272539	0.499956	0.698583
C68	C	1.522539	0.749956	0.948583
C69	C	1.198237	-0.228073	0.166615
C70	C	1.448237	0.021927	0.416615
C71	C	1.698237	0.271927	0.666615
C72	C	1.948237	0.521927	0.916615
C73	C	1.198243	-0.304718	0.166611
C74	C	1.448243	-0.054718	0.416611
C75	C	1.698243	0.195282	0.666611
C76	C	1.948243	0.445282	0.916611
C77	C	1.138821	-0.343041	0.226007
C78	C	1.388821	-0.093041	0.476007
C79	C	1.638821	0.156959	0.726007
C80	C	1.888821	0.406959	0.976007
C81	C	1.079370	-0.304713	0.285394
C82	C	1.329370	-0.054713	0.535394
C83	C	1.579370	0.195287	0.785394
C84	C	1.829370	0.445287	1.035394
C85	C	1.079359	-0.228069	0.285389
C86	C	1.329359	0.021931	0.535389
C87	C	1.579359	0.271931	0.785389
C88	C	1.829359	0.521931	1.035389
N89	N	1.133814	-0.463365	0.309457
N90	N	1.383814	-0.213365	0.559457
N91	N	1.633814	0.036635	0.809457
N92	N	1.883814	0.286635	1.059457
N93	N	1.133829	-0.536173	0.309459
N94	N	1.383829	-0.286173	0.559459
N95	N	1.633829	-0.036173	0.809459
N96	N	1.883829	0.213827	1.059459
C97	C	1.138848	-0.573964	0.226023
C98	C	1.388848	-0.323964	0.476023
C99	C	1.638848	-0.073964	0.726023
C100	C	1.888848	0.176036	0.976023
N101	N	1.143870	-0.536196	0.142584
N102	N	1.393870	-0.286196	0.392584
N103	N	1.643870	-0.036196	0.642584
N104	N	1.893870	0.213804	0.892584
N105	N	1.143859	-0.463381	0.142584
N106	N	1.393859	-0.213381	0.392584
N107	N	1.643859	0.036619	0.642584
N108	N	1.893859	0.286619	0.892584
C109	C	1.138825	-0.426148	0.226018
C110	C	1.388825	-0.176148	0.476018
C111	C	1.638825	0.073852	0.726018
C112	C	1.888825	0.323852	0.976018
C113	C	1.198296	-0.695390	0.166631
C114	C	1.448296	-0.445390	0.416631
C115	C	1.698296	-0.195390	0.666631
C116	C	1.948296	0.054610	0.916631
C117	C	1.198295	-0.772036	0.166625
C118	C	1.448295	-0.522036	0.416625
C119	C	1.698295	-0.272036	0.666625
C120	C	1.948295	-0.022036	0.916625
C121	C	1.079428	-0.772029	0.285417
C122	C	1.329428	-0.522029	0.535417
C123	C	1.579428	-0.272029	0.785417
C124	C	1.829428	-0.022029	1.035417
C125	C	1.079424	-0.695384	0.285414
C126	C	1.329424	-0.445384	0.535414
C127	C	1.579424	-0.195384	0.785414
C128	C	1.829424	0.054616	1.035414
C129	C	1.138863	-0.657069	0.226022
C130	C	1.388863	-0.407069	0.476022
C131	C	1.638863	-0.157069	0.726022
C132	C	1.888863	0.092931	0.976022
C133	C	1.312789	-0.000064	0.233801
C134	C	1.562789	0.249936	0.483801
C135	C	1.812789	0.499936	0.733801
C136	C	2.062789	0.749936	0.983801
C137	C	1.418932	-0.000065	0.244646
C138	C	1.668932	0.249935	0.494646
C139	C	1.918932	0.499935	0.744646
C140	C	2.168932	0.749935	0.994646
C141	C	1.131039	-0.000070	0.052054
C142	C	1.381039	0.249930	0.302054
C143	C	1.631039	0.499930	0.552054
C144	C	1.881039	0.749930	0.802054
C145	C	1.120191	-0.000076	-0.054089
C146	C	1.370191	0.249924	0.195911
C147	C	1.620191	0.499924	0.445911
C148	C	1.870191	0.749924	0.695911
N149	N	1.138871	0.189646	0.226021
N150	N	1.388871	0.439646	0.476021
N151	N	1.638871	0.689646	0.726021
N152	N	1.888871	0.939646	0.976021
C153	C	1.177292	-0.000051	-0.299547
C154	C	1.427292	0.249949	-0.049547
C155	C	1.677292	0.499949	0.200453
C156	C	1.927292	0.749949	0.450453
C157	C	1.100375	-0.000051	-0.248422
C158	C	1.350375	0.249949	0.001578
C159	C	1.600375	0.499949	0.251578
C160	C	1.850375	0.749949	0.501578
C161	C	1.111404	-0.000065	-0.140285
C162	C	1.361404	0.249935	0.109715
C163	C	1.611404	0.499935	0.359715
C164	C	1.861404	0.749935	0.609715
C165	C	1.166265	-0.000037	-0.407694
C166	C	1.416265	0.249963	-0.157694
C167	C	1.666265	0.499963	0.092306
C168	C	1.916265	0.749963	0.342306
C169	C	1.146624	-0.000036	0.399971
C170	C	1.396624	0.249964	0.649971
C171	C	1.646624	0.499964	0.899971
C172	C	1.896624	0.749964	1.149971
C173	C	1.157472	-0.000026	0.506114
C174	C	1.407472	0.249974	0.756114
C175	C	1.657472	0.499974	1.006114
C176	C	1.907472	0.749974	1.256114
H177	H	0.650706	-0.000037	0.338602
H178	H	0.900706	0.249963	0.588602
H179	H	1.150706	0.499963	0.838602
H180	H	1.400706	0.749963	1.088602
H181	H	1.026243	-0.000042	-0.285865
H182	H	1.276243	0.249958	-0.035865
H183	H	1.526243	0.499958	0.214135
H184	H	1.776243	0.749958	0.464135
H185	H	1.251418	-0.000063	-0.262106
H186	H	1.501418	0.249937	-0.012106
H187	H	1.751418	0.499937	0.237894
H188	H	2.001418	0.749937	0.487894
H189	H	1.246694	-0.803236	0.118263
H190	H	1.496694	-0.553236	0.368263
H191	H	1.746694	-0.303236	0.618263
H192	H	1.996694	-0.053236	0.868263
F193	F	1.261493	-0.187297	0.103403
F194	F	1.511493	0.062703	0.353403
F195	F	1.761493	0.312703	0.603403
F196	F	2.011493	0.562703	0.853403
H197	H	0.626954	-0.000065	0.113425
H198	H	0.876954	0.249935	0.363425
H199	H	1.126954	0.499935	0.613425
H200	H	1.376954	0.749935	0.863425
H201	H	1.246693	-0.664192	0.118268
H202	H	1.496693	-0.414192	0.368268
H203	H	1.746693	-0.164192	0.618268
H204	H	1.996693	0.085808	0.868268
H205	H	1.030986	-0.335919	0.333753
H206	H	1.280986	-0.085919	0.583753
H207	H	1.530986	0.164081	0.833753
H208	H	1.780986	0.414081	1.083753
F209	F	1.261509	-0.345507	0.103404
F210	F	1.511509	-0.095507	0.353404
F211	F	1.761509	0.154493	0.603404
F212	F	2.011509	0.404493	0.853404
H213	H	1.030956	-0.196869	0.333746
H214	H	1.280956	0.053131	0.583746
H215	H	1.530956	0.303131	0.833746
H216	H	1.780956	0.553131	1.083746
H217	H	1.031041	-0.803231	0.333774
H218	H	1.281041	-0.553231	0.583774
H219	H	1.531041	-0.303231	0.833774
H220	H	1.781041	-0.053231	1.083774
F221	F	1.016165	-0.654599	0.348622
F222	F	1.266165	-0.404599	0.598622
F223	F	1.516165	-0.154599	0.848622
F224	F	1.766165	0.095401	1.098622
