data_functionalizedCrystal
_audit_creation_method	'MofGen! by Chris Wilmer'
_symmetry_space_group_name_H-M	'P1'
_symmetry_Int_Tables_number	1
_symmetry_cell_setting	triclinic
loop_
_symmetry_equiv_pos_as_xyz
  x,y,z
_cell_length_a	12.759395
_cell_length_b	29.839126
_cell_length_c	29.839131
_cell_angle_alpha	89.975848
_cell_angle_beta	90.042957
_cell_angle_gamma	89.982477
loop_
_atom_site_label
_atom_site_type_symbol
_atom_site_fract_x
_atom_site_fract_y
_atom_site_fract_z
Zn1	Zn	1.606043	-0.253980	-0.178869
Zn2	Zn	2.106043	0.246020	0.321131
Zn3	Zn	1.605860	-0.178850	-0.253990
Zn4	Zn	2.105860	0.321150	0.246010
Zn5	Zn	1.430350	-0.178865	-0.178877
Zn6	Zn	1.930350	0.321135	0.321123
Zn7	Zn	1.430251	-0.253954	-0.253975
Zn8	Zn	1.930251	0.246046	0.246025
O9	O	1.518126	-0.216412	-0.216428
O10	O	2.018126	0.283588	0.283572
O11	O	1.753040	-0.244018	-0.188837
O12	O	2.253040	0.255982	0.311163
O13	O	1.582544	-0.115985	-0.244035
O14	O	2.082544	0.384015	0.255965
O15	O	1.453773	-0.188847	-0.116009
O16	O	1.953773	0.311153	0.383991
O17	O	1.752906	-0.188820	-0.244028
O18	O	2.252906	0.311180	0.255972
O19	O	1.582854	-0.244033	-0.116003
O20	O	2.082854	0.255967	0.383997
O21	O	1.453597	-0.115996	-0.188850
O22	O	1.953597	0.384004	0.311150
O23	O	1.283316	-0.188822	-0.188835
O24	O	1.783316	0.311178	0.311165
O25	O	1.453605	-0.316825	-0.244003
O26	O	1.953605	0.183175	0.255997
O27	O	1.283243	-0.243989	-0.244010
O28	O	1.783243	0.256011	0.255990
O29	O	1.582758	-0.316844	-0.188823
O30	O	2.082758	0.183156	0.311177
O31	O	1.582448	-0.188795	-0.316855
O32	O	2.082448	0.311205	0.183145
O33	O	1.453429	-0.243974	-0.316844
O34	O	1.953429	0.256026	0.183156
C35	C	1.245159	-0.216405	-0.216422
C36	C	1.745159	0.283595	0.283578
C37	C	1.128382	-0.216412	-0.216431
C38	C	1.628382	0.283588	0.283569
C39	C	1.128345	-0.273765	-0.273977
C40	C	1.628345	0.226235	0.226023
C41	C	1.073466	-0.302442	-0.302753
C42	C	1.573466	0.197558	0.197247
C43	C	0.963744	-0.302448	-0.302759
C44	C	1.463744	0.197552	0.197241
C45	C	0.908899	-0.273774	-0.273984
C46	C	1.408899	0.226226	0.226016
C47	C	0.963778	-0.245096	-0.245207
C48	C	1.463778	0.254904	0.254793
C49	C	1.073503	-0.245093	-0.245206
C50	C	1.573503	0.254907	0.254794
C51	C	0.963815	-0.187746	-0.187659
C52	C	1.463815	0.312254	0.312341
C53	C	1.073537	-0.187738	-0.187656
C54	C	1.573537	0.312262	0.312344
C55	C	0.908971	-0.159072	-0.158884
C56	C	1.408971	0.340928	0.341116
C57	C	0.963850	-0.130391	-0.130109
C58	C	1.463850	0.369609	0.369891
C59	C	1.073578	-0.130386	-0.130105
C60	C	1.573578	0.369614	0.369895
C61	C	1.128416	-0.159060	-0.158879
C62	C	1.628416	0.340940	0.341121
C63	C	1.518191	-0.333591	-0.216410
C64	C	2.018191	0.166409	0.283590
C65	C	1.518219	-0.383525	-0.216403
C66	C	2.018219	0.116475	0.283597
C67	C	1.451097	-0.693177	-0.187623
C68	C	1.951097	-0.193177	0.312377
C69	C	1.451127	-0.880851	-0.187592
C70	C	1.951127	-0.380851	0.312408
O71	O	1.394005	-0.905123	-0.163167
O72	O	1.894005	-0.405123	0.336833
N73	N	1.518269	-0.904310	-0.216319
N74	N	2.018269	-0.404310	0.283681
C75	C	1.585403	-0.880849	-0.245058
C76	C	2.085403	-0.380849	0.254942
O77	O	1.642504	-0.905109	-0.269494
O78	O	2.142504	-0.405109	0.230506
C79	C	1.585367	-0.693177	-0.245091
C80	C	2.085367	-0.193177	0.254909
C81	C	1.518228	-0.669719	-0.216359
C82	C	2.018228	-0.169719	0.283641
C83	C	1.383963	-0.669720	-0.158894
C84	C	1.883963	-0.169720	0.341106
C85	C	1.383961	-0.622804	-0.158900
C86	C	1.883961	-0.122804	0.341100
C87	C	1.451092	-0.599346	-0.187636
C88	C	1.951092	-0.099346	0.312364
C89	C	1.518226	-0.622804	-0.216365
C90	C	2.018226	-0.122804	0.283635
C91	C	1.652495	-0.669716	-0.273831
C92	C	2.152495	-0.169716	0.226169
C93	C	1.652478	-0.622795	-0.273838
C94	C	2.152478	-0.122795	0.226162
C95	C	1.585340	-0.599338	-0.245106
C96	C	2.085340	-0.099338	0.254894
C97	C	1.585354	-0.552430	-0.245107
C98	C	2.085354	-0.052430	0.254893
N99	N	1.518213	-0.528971	-0.216380
N100	N	2.018213	-0.028971	0.283620
C101	C	1.451081	-0.552429	-0.187645
C102	C	1.951081	-0.052429	0.312355
C103	C	1.585418	-0.979380	-0.245038
C104	C	2.085418	-0.479380	0.254962
C105	C	1.585429	-1.026298	-0.245029
C106	C	2.085429	-0.526298	0.254971
C107	C	1.451151	-1.026296	-0.187564
C108	C	1.951151	-0.526296	0.312436
C109	C	1.451147	-0.979377	-0.187571
C110	C	1.951147	-0.479377	0.312429
C111	C	1.518277	-0.955920	-0.216311
C112	C	2.018277	-0.455920	0.283689
C113	C	1.451081	-0.453903	-0.187660
C114	C	1.951081	0.046097	0.312340
C115	C	1.451088	-0.406983	-0.187668
C116	C	1.951088	0.093017	0.312332
C117	C	1.585361	-0.406989	-0.245134
C118	C	2.085361	0.093011	0.254866
C119	C	1.585359	-0.453904	-0.245125
C120	C	2.085359	0.046096	0.254875
C121	C	1.518211	-0.477360	-0.216386
C122	C	2.018211	0.022640	0.283614
O123	O	1.642438	-0.528129	-0.269523
O124	O	2.142438	-0.028129	0.230477
O125	O	1.393972	-0.528160	-0.163219
O126	O	1.893972	-0.028160	0.336781
C127	C	1.451100	-0.740093	-0.187617
C128	C	1.951100	-0.240093	0.312383
C129	C	1.518234	-0.763550	-0.216346
C130	C	2.018234	-0.263550	0.283654
C131	C	1.585365	-0.740092	-0.245082
C132	C	2.085365	-0.240092	0.254918
C133	C	1.518244	-0.810468	-0.216337
C134	C	2.018244	-0.310468	0.283663
C135	C	1.451113	-0.833926	-0.187602
C136	C	1.951113	-0.333926	0.312398
C137	C	1.383971	-0.810466	-0.158875
C138	C	1.883971	-0.310466	0.341125
C139	C	1.383969	-0.763551	-0.158881
C140	C	1.883969	-0.263551	0.341119
C141	C	1.652507	-0.763552	-0.273809
C142	C	2.152507	-0.263552	0.226191
C143	C	1.652505	-0.810468	-0.273799
C144	C	2.152505	-0.310468	0.226201
C145	C	1.585374	-0.833926	-0.245064
C146	C	2.085374	-0.333926	0.254936
C147	C	1.792159	-0.216420	-0.216434
C148	C	2.292159	0.283580	0.283566
C149	C	1.908936	-0.216424	-0.216436
C150	C	2.408936	0.283576	0.283564
C151	C	1.517936	-0.216390	-0.333150
C152	C	2.017936	0.283610	0.166850
C153	C	1.517951	-0.216395	-0.383085
C154	C	2.017951	0.283605	0.116915
C155	C	1.518122	-0.099690	-0.216412
C156	C	2.018122	0.400310	0.283588
C157	C	1.518298	-0.049756	-0.216293
C158	C	2.018298	0.450244	0.283707
C159	C	1.585429	-0.187723	-0.692721
C160	C	2.085429	0.312277	-0.192721
C161	C	1.585558	-0.187740	-0.880394
C162	C	2.085558	0.312260	-0.380394
O163	O	1.642779	-0.163344	-0.904653
O164	O	2.142779	0.336656	-0.404653
N165	N	1.518344	-0.216446	-0.903870
N166	N	2.018344	0.283554	-0.403870
C167	C	1.451097	-0.245152	-0.880424
C168	C	1.951097	0.254848	-0.380424
O169	O	1.393938	-0.269572	-0.904698
O170	O	1.893938	0.230428	-0.404698
C171	C	1.450974	-0.245136	-0.692752
C172	C	1.950974	0.254864	-0.192752
C173	C	1.518185	-0.216425	-0.669279
C174	C	2.018185	0.283575	-0.169279
C175	C	1.652635	-0.159014	-0.669248
C176	C	2.152635	0.340986	-0.169248
C177	C	1.652598	-0.159008	-0.622332
C178	C	2.152598	0.340992	-0.122332
C179	C	1.585354	-0.187711	-0.598890
C180	C	2.085354	0.312289	-0.098890
C181	C	1.518148	-0.216420	-0.622363
C182	C	2.018148	0.283580	-0.122363
C183	C	1.383733	-0.273844	-0.669307
C184	C	1.883733	0.226156	-0.169307
C185	C	1.383710	-0.273839	-0.622386
C186	C	1.883710	0.226161	-0.122386
C187	C	1.450921	-0.245127	-0.598913
C188	C	1.950921	0.254873	-0.098913
C189	C	1.450867	-0.245116	-0.552006
C190	C	1.950867	0.254884	-0.052006
N191	N	1.518081	-0.216410	-0.528530
N192	N	2.018081	0.283590	-0.028530
C193	C	1.585325	-0.187708	-0.551972
C194	C	2.085325	0.312292	-0.051972
C195	C	1.451165	-0.245157	-0.978955
C196	C	1.951165	0.254843	-0.478955
C197	C	1.451195	-0.245161	-1.025873
C198	C	1.951195	0.254839	-0.525873
C199	C	1.585658	-0.187749	-1.025839
C200	C	2.085658	0.312251	-0.525839
C201	C	1.585622	-0.187744	-0.978921
C202	C	2.085622	0.312256	-0.478921
C203	C	1.518380	-0.216451	-0.955479
C204	C	2.018380	0.283549	-0.455479
C205	C	1.585241	-0.187697	-0.453447
C206	C	2.085241	0.312303	0.046553
C207	C	1.585195	-0.187693	-0.406527
C208	C	2.085195	0.312307	0.093473
C209	C	1.450737	-0.245106	-0.406564
C210	C	1.950737	0.254894	0.093436
C211	C	1.450778	-0.245109	-0.453480
C212	C	1.950778	0.254891	0.046520
C213	C	1.518039	-0.216403	-0.476920
C214	C	2.018039	0.283597	0.023080
O215	O	1.393684	-0.269503	-0.527718
O216	O	1.893684	0.230497	-0.027718
O217	O	1.642492	-0.163298	-0.527691
O218	O	2.142492	0.336702	-0.027691
C219	C	1.585466	-0.187728	-0.739637
C220	C	2.085466	0.312272	-0.239637
C221	C	1.518259	-0.216437	-0.763110
C222	C	2.018259	0.283563	-0.263110
C223	C	1.451015	-0.245140	-0.739668
C224	C	1.951015	0.254860	-0.239668
C225	C	1.518289	-0.216440	-0.810028
C226	C	2.018289	0.283560	-0.310028
C227	C	1.585532	-0.187738	-0.833470
C228	C	2.085532	0.312262	-0.333470
C229	C	1.652747	-0.159032	-0.809994
C230	C	2.152747	0.340968	-0.309994
C231	C	1.652709	-0.159026	-0.763079
C232	C	2.152709	0.340974	-0.263079
C233	C	1.383801	-0.273846	-0.763143
C234	C	1.883801	0.226154	-0.263143
C235	C	1.383843	-0.273849	-0.810059
C236	C	1.883843	0.226151	-0.310059
C237	C	1.451087	-0.245146	-0.833501
C238	C	1.951087	0.254854	-0.333501
C239	C	1.518345	-0.216444	-0.099249
C240	C	2.018345	0.283556	0.400751
C241	C	1.518439	-0.216458	-0.049315
C242	C	2.018439	0.283542	0.450685
H243	H	1.118254	-0.107036	-0.106669
H244	H	1.618254	0.392964	0.393331
C245	C	1.377247	-0.276741	-1.051688
C246	C	1.877247	0.223259	-0.551688
N247	N	1.321551	-0.300530	-1.071130
N248	N	1.821551	0.199470	-0.571130
C249	C	1.659562	-0.156161	-0.953105
C250	C	2.159562	0.343839	-0.453105
N251	N	1.715259	-0.132372	-0.933662
N252	N	2.215259	0.367628	-0.433662
H253	H	1.217686	-0.273760	-0.273979
H254	H	1.717686	0.226240	0.226021
C255	C	0.788274	-0.159083	-0.158887
C256	C	1.288274	0.340917	0.341113
N257	N	0.697363	-0.159091	-0.158888
N258	N	1.197363	0.340909	0.341112
C259	C	1.659220	-0.479708	-0.276729
C260	C	2.159220	0.020292	0.223271
N261	N	1.714847	-0.499141	-0.300537
N262	N	2.214847	0.000859	0.199463
H263	H	0.919187	-0.107049	-0.106681
H264	H	1.419187	0.392951	0.393319
H265	H	1.328997	-0.297222	-0.688411
H266	H	1.828997	0.202778	-0.188411
C267	C	1.377300	-1.052108	-0.155957
C268	C	1.877300	-0.552108	0.344043
N269	N	1.321673	-1.071552	-0.132154
N270	N	1.821673	-0.571552	0.367846
C271	C	1.377224	-0.381183	-0.156060
C272	C	1.877224	0.118817	0.343940
N273	N	1.321589	-0.361751	-0.132255
N274	N	1.821589	0.138249	0.367745
C275	C	1.133803	-0.333981	-0.334406
C276	C	1.633803	0.166019	0.165594
N277	N	1.179246	-0.357735	-0.358248
N278	N	1.679246	0.142265	0.141752
H279	H	1.707496	-0.135660	-0.829089
H280	H	2.207496	0.364340	-0.329089
C281	C	1.310114	-0.695516	-0.127276
C282	C	1.810114	-0.195516	0.372724
N283	N	1.254494	-0.714943	-0.103457
N284	N	1.754494	-0.214943	0.396543
H285	H	1.329102	-0.297228	-0.829167
H286	H	1.829102	0.202772	-0.329167
C287	C	1.249113	-0.159054	-0.158880
C288	C	1.749113	0.340946	0.341120
N289	N	1.340024	-0.159052	-0.158882
N290	N	1.840024	0.340948	0.341118
C291	C	0.903375	-0.333994	-0.334415
C292	C	1.403375	0.166006	0.165585
N293	N	0.857905	-0.357754	-0.358258
N294	N	1.357905	0.142246	0.141742
H295	H	1.395984	-0.268474	-0.387470
H296	H	1.895984	0.231526	0.112530
C297	C	1.377283	-0.953578	-0.155966
C298	C	1.877283	-0.453578	0.344034
N299	N	1.321643	-0.934149	-0.132162
N300	N	1.821643	-0.434149	0.367838
H301	H	1.707399	-0.135641	-0.688330
H302	H	2.207399	0.364359	-0.188330
H303	H	0.819558	-0.273785	-0.273987
H304	H	1.319558	0.226215	0.226013
H305	H	1.396404	-0.472995	-0.164258
H306	H	1.896404	0.027005	0.335742
H307	H	1.329285	-0.603710	-0.135506
H308	H	1.829285	-0.103710	0.364494
H309	H	1.707330	-0.135631	-0.603223
H310	H	2.207330	0.364369	-0.103223
C311	C	1.726394	-0.737755	-0.305408
C312	C	2.226394	-0.237755	0.194592
N313	N	1.782066	-0.718326	-0.329204
N314	N	2.282066	-0.218326	0.170796
H315	H	1.639926	-0.164311	-0.387417
H316	H	2.139926	0.335689	0.112583
H317	H	1.640014	-0.164323	-0.472526
H318	H	2.140014	0.335677	0.027474
H319	H	1.640410	-0.164379	-1.044934
H320	H	2.140410	0.335621	-0.544934
C321	C	1.377216	-0.276752	-0.953175
C322	C	1.877216	0.223248	-0.453175
N323	N	1.321525	-0.300552	-0.933760
N324	N	1.821525	0.199448	-0.433760
H325	H	1.328954	-0.297217	-0.603303
H326	H	1.828954	0.202783	-0.103303
H327	H	1.640084	-0.960285	-0.268444
H328	H	2.140084	-0.460285	0.231556
H329	H	1.707151	-0.603699	-0.297239
H330	H	2.207151	-0.103699	0.202761
C331	C	1.659295	-1.052095	-0.276633
C332	C	2.159295	-0.552095	0.223367
N333	N	1.714928	-1.071525	-0.300440
N334	N	2.214928	-0.571525	0.199560
H335	H	1.707439	-0.135647	-0.743970
H336	H	2.207439	0.364353	-0.243970
H337	H	1.707166	-0.688807	-0.297229
H338	H	2.207166	-0.188807	0.202771
C339	C	1.659198	-0.381176	-0.276743
C340	C	2.159198	0.118824	0.223257
N341	N	1.714807	-0.361733	-0.300554
N342	N	2.214807	0.138267	0.199446
C343	C	1.310126	-0.836279	-0.127266
C344	C	1.810126	-0.336279	0.372734
N345	N	1.254504	-0.855724	-0.103462
N346	N	1.754504	-0.355724	0.396538
C347	C	1.726367	-0.836265	-0.305409
C348	C	2.226367	-0.336265	0.194591
N349	N	1.781992	-0.855695	-0.329221
N350	N	2.281992	-0.355695	0.170779
C351	C	1.376839	-0.276691	-0.479301
C352	C	1.876839	0.223309	0.020699
N353	N	1.321155	-0.300482	-0.498747
N354	N	1.821155	0.199518	0.001253
C355	C	1.309852	-0.305435	-0.737363
C356	C	1.809852	0.194565	-0.237363
N357	N	1.254155	-0.329233	-0.717948
N358	N	1.754155	0.170767	-0.217948
H359	H	1.329298	-0.744456	-0.135485
H360	H	1.829298	-0.244456	0.364515
