data_functionalizedCrystal
_audit_creation_method	'MofGen! by Chris Wilmer'
_symmetry_space_group_name_H-M	'P1'
_symmetry_Int_Tables_number	1
_symmetry_cell_setting	triclinic
loop_
_symmetry_equiv_pos_as_xyz
  x,y,z
_cell_length_a	14.044191
_cell_length_b	14.044220
_cell_length_c	13.596369
_cell_angle_alpha	89.993157
_cell_angle_beta	89.997249
_cell_angle_gamma	93.190327
loop_
_atom_site_label
_atom_site_type_symbol
_atom_site_fract_x
_atom_site_fract_y
_atom_site_fract_z
O1	O	1.277174	0.230202	-0.081748
O2	O	1.527174	0.480202	0.168252
O3	O	1.777174	0.730202	0.418252
O4	O	2.027174	0.980202	0.668252
O5	O	1.000501	0.221889	-0.081761
O6	O	1.250501	0.471889	0.168239
O7	O	1.500501	0.721889	0.418239
O8	O	1.750501	0.971889	0.668239
O9	O	1.134685	0.087709	-0.081745
O10	O	1.384685	0.337709	0.168255
O11	O	1.634685	0.587709	0.418255
O12	O	1.884685	0.837709	0.668255
O13	O	1.142990	0.364381	-0.081764
O14	O	1.392990	0.614381	0.168236
O15	O	1.642990	0.864381	0.418236
O16	O	1.892990	1.114381	0.668236
O17	O	1.134669	0.087700	0.081838
O18	O	1.384669	0.337700	0.331838
O19	O	1.634669	0.587700	0.581838
O20	O	1.884669	0.837700	0.831838
O21	O	1.000486	0.221880	0.081822
O22	O	1.250486	0.471880	0.331822
O23	O	1.500486	0.721880	0.581822
O24	O	1.750486	0.971880	0.831822
O25	O	1.277158	0.230193	0.081835
O26	O	1.527158	0.480193	0.331835
O27	O	1.777158	0.730193	0.581835
O28	O	2.027158	0.980193	0.831835
Zn29	Zn	1.138820	0.226035	0.107801
Zn30	Zn	1.388820	0.476035	0.357801
Zn31	Zn	1.638820	0.726035	0.607801
Zn32	Zn	1.888820	0.976035	0.857801
Zn33	Zn	1.138840	0.226047	-0.107727
Zn34	Zn	1.388840	0.476047	0.142273
Zn35	Zn	1.638840	0.726047	0.392273
Zn36	Zn	1.888840	0.976047	0.642273
O37	O	1.142975	0.364372	0.081819
O38	O	1.392975	0.614372	0.331819
O39	O	1.642975	0.864372	0.581819
O40	O	1.892975	1.114372	0.831819
C41	C	0.964872	0.218248	0.000029
C42	C	1.214872	0.468248	0.250029
C43	C	1.464872	0.718248	0.500029
C44	C	1.714872	0.968248	0.750029
C45	C	0.858728	0.207401	0.000025
C46	C	1.108728	0.457401	0.250025
C47	C	1.358728	0.707401	0.500025
C48	C	1.608728	0.957401	0.750025
C49	C	0.613270	0.264501	0.000031
C50	C	0.863270	0.514501	0.250031
C51	C	1.113270	0.764501	0.500031
C52	C	1.363270	1.014501	0.750031
C53	C	0.664395	0.187585	0.000035
C54	C	0.914395	0.437585	0.250035
C55	C	1.164395	0.687585	0.500035
C56	C	1.414395	0.937585	0.750035
C57	C	0.772532	0.198613	0.000029
C58	C	1.022532	0.448613	0.250029
C59	C	1.272532	0.698613	0.500029
C60	C	1.522532	0.948613	0.750029
C61	C	0.505123	0.253474	0.000036
C62	C	0.755123	0.503474	0.250036
C63	C	1.005123	0.753474	0.500036
C64	C	1.255123	1.003474	0.750036
C65	C	1.131041	0.052083	0.000047
C66	C	1.381041	0.302083	0.250047
C67	C	1.631041	0.552083	0.500047
C68	C	1.881041	0.802083	0.750047
C69	C	1.120197	-0.054060	0.000048
C70	C	1.370197	0.195940	0.250048
C71	C	1.620197	0.445940	0.500048
C72	C	1.870197	0.695940	0.750048
C73	C	1.100370	-0.248398	0.000033
C74	C	1.350370	0.001602	0.250033
C75	C	1.600370	0.251602	0.500033
C76	C	1.850370	0.501602	0.750033
C77	C	1.177285	-0.299526	0.000033
C78	C	1.427285	-0.049526	0.250033
C79	C	1.677285	0.200474	0.500033
C80	C	1.927285	0.450474	0.750033
C81	C	1.166253	-0.407663	0.000025
C82	C	1.416253	-0.157663	0.250025
C83	C	1.666253	0.092337	0.500025
C84	C	1.916253	0.342337	0.750025
C85	C	1.111400	-0.140252	0.000041
C86	C	1.361400	0.109748	0.250041
C87	C	1.611400	0.359748	0.500041
C88	C	1.861400	0.609748	0.750041
C89	C	1.312788	0.233834	0.000043
C90	C	1.562788	0.483834	0.250043
C91	C	1.812788	0.733834	0.500043
C92	C	2.062788	0.983834	0.750043
C93	C	1.418931	0.244681	0.000040
C94	C	1.668931	0.494681	0.250040
C95	C	1.918931	0.744681	0.500040
C96	C	2.168931	0.994681	0.750040
C97	C	1.146618	0.399998	0.000025
C98	C	1.396618	0.649998	0.250025
C99	C	1.646618	0.899998	0.500025
C100	C	1.896618	1.149998	0.750025
C101	C	1.157463	0.506142	0.000018
C102	C	1.407463	0.756142	0.250018
C103	C	1.657463	1.006142	0.500018
C104	C	1.907463	1.256142	0.750018
N105	N	1.138813	0.226027	0.254893
N106	N	1.388813	0.476027	0.504893
N107	N	1.638813	0.726027	0.754893
N108	N	1.888813	0.976027	1.004893
N109	N	1.138853	0.226048	-0.254819
N110	N	1.388853	0.476048	-0.004819
N111	N	1.638853	0.726048	0.245181
N112	N	1.888853	0.976048	0.495181
C113	C	1.138839	0.226048	0.656184
C114	C	1.388839	0.476048	0.906184
C115	C	1.638839	0.726048	1.156184
C116	C	1.888839	0.976048	1.406184
C117	C	1.138829	0.226045	0.544532
C118	C	1.388829	0.476045	0.794532
C119	C	1.638829	0.726045	1.044532
C120	C	1.888829	0.976045	1.294532
C121	C	1.138826	0.226038	0.455542
C122	C	1.388826	0.476038	0.705542
C123	C	1.638826	0.726038	0.955542
C124	C	1.888826	0.976038	1.205542
C125	C	1.138816	0.226034	0.343883
C126	C	1.388816	0.476034	0.593883
C127	C	1.638816	0.726034	0.843883
C128	C	1.888816	0.976034	1.093883
H129	H	0.626952	0.113452	-0.000030
H130	H	0.876952	0.363452	0.249970
H131	H	1.126952	0.613452	0.499970
H132	H	1.376952	0.863452	0.749970
C133	C	0.663845	0.364645	0.000004
C134	C	0.913845	0.614645	0.250004
C135	C	1.163845	0.864645	0.500004
C136	C	1.413845	1.114645	0.750004
C137	C	0.773554	0.375674	-0.000015
C138	C	1.023554	0.625674	0.249985
C139	C	1.273554	0.875674	0.499985
C140	C	1.523554	1.125674	0.749985
C141	C	0.824143	0.475817	-0.000050
C142	C	1.074143	0.725817	0.249950
C143	C	1.324143	0.975817	0.499950
C144	C	1.574143	1.225817	0.749950
C145	C	0.765023	0.564931	-0.000068
C146	C	1.015023	0.814931	0.249932
C147	C	1.265023	1.064931	0.499932
C148	C	1.515023	1.314931	0.749932
C149	C	0.655309	0.553905	-0.000049
C150	C	0.905309	0.803905	0.249951
C151	C	1.155309	1.053905	0.499951
C152	C	1.405309	1.303905	0.749951
C153	C	0.604720	0.453762	-0.000014
C154	C	0.854720	0.703762	0.249986
C155	C	1.104720	0.953762	0.499986
C156	C	1.354720	1.203762	0.749986
H157	H	0.817323	0.309703	-0.000002
H158	H	1.067323	0.559703	0.249998
H159	H	1.317323	0.809703	0.499998
H160	H	1.567323	1.059703	0.749998
H161	H	0.905361	0.483978	-0.000064
H162	H	1.155361	0.733978	0.249936
H163	H	1.405361	0.983978	0.499936
H164	H	1.655361	1.233978	0.749936
H165	H	0.802472	0.639062	-0.000094
H166	H	1.052472	0.889062	0.249906
H167	H	1.302472	1.139062	0.499906
H168	H	1.552472	1.389062	0.749906
H169	H	0.611539	0.619875	-0.000062
H170	H	0.861539	0.869875	0.249938
H171	H	1.111539	1.119875	0.499938
H172	H	1.361539	1.369875	0.749938
H173	H	0.523501	0.445601	0.000000
H174	H	0.773501	0.695601	0.250000
H175	H	1.023501	0.945601	0.500000
H176	H	1.273501	1.195601	0.750000
C177	C	1.277438	-0.248954	0.000053
C178	C	1.527438	0.001046	0.250053
C179	C	1.777438	0.251046	0.500053
C180	C	2.027438	0.501046	0.750053
C181	C	1.288480	-0.139246	0.000071
C182	C	1.538480	0.110754	0.250071
C183	C	1.788480	0.360754	0.500071
C184	C	2.038480	0.610754	0.750071
C185	C	1.388628	-0.088669	0.000097
C186	C	1.638628	0.161331	0.250097
C187	C	1.888628	0.411331	0.500097
C188	C	2.138628	0.661331	0.750097
C189	C	1.477735	-0.147800	0.000106
C190	C	1.727735	0.102200	0.250106
C191	C	1.977735	0.352200	0.500106
C192	C	2.227735	0.602200	0.750106
C193	C	1.466696	-0.257514	0.000089
C194	C	1.716696	-0.007514	0.250089
C195	C	1.966696	0.242486	0.500089
C196	C	2.216696	0.492486	0.750089
C197	C	1.366547	-0.308091	0.000063
C198	C	1.616547	-0.058091	0.250063
C199	C	1.866547	0.191909	0.500063
C200	C	2.116547	0.441909	0.750063
H201	H	1.222515	-0.095469	0.000064
H202	H	1.472515	0.154531	0.250064
H203	H	1.722515	0.404531	0.500064
H204	H	1.972515	0.654531	0.750064
H205	H	1.396800	-0.007452	0.000109
H206	H	1.646800	0.242548	0.250109
H207	H	1.896800	0.492548	0.500109
H208	H	2.146800	0.742548	0.750109
H209	H	1.551871	-0.110360	0.000125
H210	H	1.801871	0.139640	0.250125
H211	H	2.051871	0.389640	0.500125
H212	H	2.301871	0.639640	0.750125
H213	H	1.532660	-0.301292	0.000095
H214	H	1.782660	-0.051292	0.250095
H215	H	2.032660	0.198708	0.500095
H216	H	2.282660	0.448708	0.750095
H217	H	1.358376	-0.389309	0.000050
H218	H	1.608376	-0.139309	0.250050
H219	H	1.858376	0.110691	0.500050
H220	H	2.108376	0.360691	0.750050
H221	H	1.026242	-0.285837	0.000027
H222	H	1.276242	-0.035837	0.250027
H223	H	1.526242	0.214163	0.500027
H224	H	1.776242	0.464163	0.750027
