data_functionalizedCrystal
_audit_creation_method	'MofGen! by Chris Wilmer'
_symmetry_space_group_name_H-M	'P1'
_symmetry_Int_Tables_number	1
_symmetry_cell_setting	triclinic
loop_
_symmetry_equiv_pos_as_xyz
  x,y,z
_cell_length_a	23.532407
_cell_length_b	23.532357
_cell_length_c	15.186229
_cell_angle_alpha	89.990735
_cell_angle_beta	89.999328
_cell_angle_gamma	82.838519
loop_
_atom_site_label
_atom_site_type_symbol
_atom_site_fract_x
_atom_site_fract_y
_atom_site_fract_z
O1	O	0.755246	0.069136	-0.073184
O2	O	0.589381	0.079140	-0.073199
O3	O	0.677330	-0.008796	-0.073173
O4	O	0.667297	0.157072	-0.073210
O5	O	0.677324	-0.008797	0.073285
O6	O	0.589375	0.079138	0.073258
O7	O	0.755240	0.069135	0.073274
Zn8	Zn	0.672307	0.074136	0.096519
Zn9	Zn	0.672315	0.074138	-0.096444
O10	O	0.667291	0.157070	0.073247
C11	C	0.568162	0.078884	0.000028
C12	C	0.504945	0.078118	0.000023
C13	C	0.677076	-0.030013	0.000059
C14	C	0.676322	-0.093232	0.000067
C15	C	0.238788	0.022922	0.000059
C16	C	0.298188	0.023633	0.000059
O17	O	0.334940	-0.020154	0.000099
N18	N	0.320805	0.075911	0.000041
C19	C	0.284018	0.127480	0.000033
O20	O	0.308710	0.172012	0.000019
C21	C	0.224619	0.126768	0.000040
C22	C	0.202006	0.074487	0.000048
C23	C	0.216174	-0.029355	0.000069
C24	C	0.156778	-0.030066	0.000068
C25	C	0.119996	0.021499	0.000057
C26	C	0.142610	0.073776	0.000047
C27	C	0.187833	0.178337	0.000037
C28	C	0.128431	0.177620	0.000045
C29	C	0.105818	0.125339	0.000054
C30	C	0.046431	0.124630	0.000035
N31	N	0.023815	0.072353	0.000052
C32	C	0.060597	0.020787	0.000063
C33	C	0.408760	0.128971	0.000020
C34	C	0.468158	0.129684	0.000007
C35	C	0.482324	0.025837	0.000035
C36	C	0.422925	0.025125	0.000042
C37	C	0.386143	0.076694	0.000038
C38	C	-0.064140	0.019297	0.000060
C39	C	-0.123542	0.018591	0.000055
C40	C	-0.137702	0.122438	0.000032
C41	C	-0.078306	0.123145	0.000032
C42	C	-0.041525	0.071570	0.000049
O43	O	0.009644	0.168394	-0.000002
O44	O	0.035897	-0.023737	0.000089
C45	C	0.671588	-0.485242	-0.079815
C46	C	0.670871	-0.544642	-0.079820
O47	O	0.670483	-0.575357	-0.147716
N48	N	0.670512	-0.574354	0.000013
C49	C	0.670865	-0.544662	0.079856
O50	O	0.670493	-0.575388	0.147759
C51	C	0.671578	-0.485263	0.079860
C52	C	0.671942	-0.455555	0.000022
C53	C	0.671952	-0.455534	-0.159646
C54	C	0.672670	-0.396139	-0.159641
C55	C	0.673025	-0.366452	-0.079804
C56	C	0.672661	-0.396160	0.000027
C57	C	0.671926	-0.455572	0.159702
C58	C	0.672639	-0.396169	0.159699
C59	C	0.673004	-0.366461	0.079861
C60	C	0.673733	-0.307078	0.079870
N61	N	0.674092	-0.277366	0.000037
C62	C	0.673738	-0.307053	-0.079800
C63	C	0.669366	-0.669404	0.079841
C64	C	0.668657	-0.728802	0.079838
C65	C	0.668662	-0.728777	-0.079838
C66	C	0.669375	-0.669378	-0.079834
C67	C	0.669725	-0.639692	0.000008
C68	C	0.675247	-0.182319	-0.079783
C69	C	0.675967	-0.122919	-0.079770
C70	C	0.675959	-0.122948	0.079906
C71	C	0.675242	-0.182343	0.079894
C72	C	0.674883	-0.212027	0.000042
O73	O	0.674119	-0.276324	0.147731
O74	O	0.674102	-0.276318	-0.147692
C75	C	0.776459	0.069390	0.000045
C76	C	0.839676	0.070156	0.000044
C77	C	0.667545	0.178288	0.000014
C78	C	0.668300	0.241506	0.000000
N79	N	0.672306	0.074135	0.228212
N80	N	0.672320	0.074135	-0.228137
C81	C	0.711263	0.035210	0.453946
C82	C	0.711265	0.035209	0.546136
C83	C	0.633359	0.113062	0.546122
C84	C	0.633355	0.113060	0.453934
C85	C	0.672310	0.074135	0.407849
C86	C	0.672316	0.074135	0.592226
C87	C	0.672318	0.074134	0.692182
C88	C	0.672308	0.074135	0.307886
H89	H	-0.141950	-0.023984	0.000060
C90	C	0.671587	-0.488184	-0.247481
N91	N	0.671325	-0.512773	-0.313644
H92	H	0.601632	0.144757	0.416399
C93	C	0.674846	-0.215024	0.167719
N94	N	0.674542	-0.239634	0.233871
H95	H	0.601643	0.144754	0.583654
H96	H	0.512283	-0.016151	0.000044
H97	H	0.676266	-0.098733	-0.144786
H98	H	0.672965	-0.371956	-0.224653
C99	C	0.674863	-0.214963	-0.167623
N100	N	0.674580	-0.239552	-0.233784
H101	H	-0.034199	-0.022700	0.000074
H102	H	0.138372	-0.072639	0.000079
H103	H	0.246117	-0.071348	0.000081
H104	H	0.669671	-0.645194	-0.144845
C105	C	0.398056	-0.032388	0.000061
N106	N	0.379329	-0.075709	0.000080
C107	C	0.673026	-0.363518	0.247535
N108	N	0.673320	-0.338926	0.313692
C109	C	0.493025	0.187197	-0.000010
N110	N	0.511753	0.230518	-0.000015
C111	C	0.368305	0.185706	0.000007
N112	N	0.337836	0.228438	-0.000002
C113	C	0.676343	-0.090280	0.167722
N114	N	0.676627	-0.065672	0.233866
H115	H	0.669652	-0.645237	0.144862
H116	H	-0.059893	0.165716	0.000024
C117	C	0.212694	0.235851	0.000042
N118	N	0.231417	0.279174	0.000052
C119	C	0.087974	0.234352	0.000038
N120	N	0.057503	0.277082	0.000030
H121	H	0.668372	-0.752959	-0.144846
C122	C	0.754110	-0.007613	0.403256
N123	N	0.786382	-0.039871	0.365078
C124	C	0.754111	-0.007616	0.596840
N125	N	0.786383	-0.039875	0.635029
C126	C	0.671518	-0.488237	0.247532
N127	N	0.671207	-0.512838	0.313691
C128	C	-0.178174	0.179157	0.000026
N129	N	-0.208659	0.221878	0.000029
C130	C	0.668262	-0.761475	0.167666
N131	N	0.667960	-0.786081	0.233821
