data_functionalizedCrystal
_audit_creation_method	'MofGen! by Chris Wilmer'
_symmetry_space_group_name_H-M	'P1'
_symmetry_Int_Tables_number	1
_symmetry_cell_setting	triclinic
loop_
_symmetry_equiv_pos_as_xyz
  x,y,z
_cell_length_a	16.109302
_cell_length_b	11.792241
_cell_length_c	10.868271
_cell_angle_alpha	89.994719
_cell_angle_beta	89.993741
_cell_angle_gamma	83.827598
loop_
_atom_site_label
_atom_site_type_symbol
_atom_site_fract_x
_atom_site_fract_y
_atom_site_fract_z
O1	O	1.103818	0.145891	-0.102378
O2	O	1.603818	0.645891	0.397622
O3	O	0.861841	0.164046	-0.102368
O4	O	1.361841	0.664046	0.397632
O5	O	0.988702	-0.010254	-0.102365
O6	O	1.488702	0.489746	0.397635
O7	O	0.976957	0.320190	-0.102382
O8	O	1.476957	0.820190	0.397618
O9	O	0.988691	-0.010260	0.102280
O10	O	1.488691	0.489740	0.602280
O11	O	0.861831	0.164039	0.102276
O12	O	1.361831	0.664039	0.602276
O13	O	1.103807	0.145885	0.102267
O14	O	1.603807	0.645885	0.602267
Zn15	Zn	0.982817	0.154961	0.134763
Zn16	Zn	1.482817	0.654961	0.634763
Zn17	Zn	0.982831	0.154970	-0.134865
Zn18	Zn	1.482831	0.654970	0.365135
O19	O	0.976947	0.320184	0.102263
O20	O	1.476947	0.820184	0.602263
C21	C	0.830858	0.163307	-0.000045
C22	C	1.330858	0.663307	0.499955
C23	C	0.738552	0.161102	-0.000041
C24	C	1.238552	0.661102	0.499959
C25	C	0.526181	0.155999	0.111499
C26	C	1.026181	0.655999	0.611499
C27	C	0.439452	0.153915	0.111495
C28	C	0.939452	0.653915	0.611495
C29	C	0.439474	0.153928	-0.111620
C30	C	0.939474	0.653928	0.388380
C31	C	0.526203	0.156004	-0.111615
C32	C	1.026203	0.656004	0.388385
C33	C	0.569554	0.157045	-0.000051
C34	C	1.069554	0.657045	0.499949
C35	C	0.396095	0.152885	-0.000061
C36	C	0.896095	0.652885	0.499939
C37	C	0.302059	0.150625	-0.000066
C38	C	0.802059	0.650625	0.499934
C39	C	0.663596	0.159303	-0.000046
C40	C	1.163596	0.659303	0.499954
C41	C	0.987959	-0.052541	-0.000043
C42	C	1.487959	0.447459	0.499957
C43	C	0.985751	-0.178536	-0.000044
C44	C	1.485751	0.321464	0.499956
C45	C	0.981690	-0.409212	-0.000064
C46	C	1.481690	0.090788	0.499936
C47	C	0.983946	-0.280847	-0.000053
C48	C	1.483946	0.219153	0.499947
C49	C	1.134791	0.146623	-0.000060
C50	C	1.634791	0.646623	0.499940
C51	C	1.227097	0.148829	-0.000072
C52	C	1.727097	0.648829	0.499928
C53	C	0.977690	0.362472	-0.000062
C54	C	1.477690	0.862472	0.499938
C55	C	0.979898	0.488466	-0.000069
C56	C	1.479898	0.988466	0.499931
N57	N	0.982814	0.154954	0.318777
N58	N	1.482814	0.654954	0.818777
N59	N	0.982841	0.154967	-0.318879
N60	N	1.482841	0.654967	0.181121
C61	C	0.982827	0.154967	0.569783
C62	C	1.482827	0.654967	1.069783
C63	C	0.982817	0.154963	0.430106
C64	C	1.482817	0.654963	0.930106
H65	H	0.404142	0.153063	0.202330
H66	H	0.904142	0.653063	0.702330
C67	C	0.573867	0.157133	0.234217
C68	C	1.073867	0.657133	0.734217
C69	C	0.642488	0.060064	0.264905
C70	C	1.142488	0.560064	0.764905
C71	C	0.690171	0.061195	0.387627
C72	C	1.190171	0.561195	0.887627
C73	C	0.669232	0.159395	0.479661
C74	C	1.169232	0.659395	0.979661
C75	C	0.600608	0.256472	0.448975
C76	C	1.100608	0.756472	0.948975
C77	C	0.552926	0.255341	0.326253
C78	C	1.052926	0.755341	0.826253
H79	H	0.657991	-0.012636	0.196774
H80	H	1.157991	0.487364	0.696774
H81	H	0.740971	-0.010668	0.410342
H82	H	1.240971	0.489332	0.910342
H83	H	0.704530	0.160232	0.570508
H84	H	1.204530	0.660232	1.070508
H85	H	0.585105	0.329172	0.517106
H86	H	1.085105	0.829172	1.017106
H87	H	0.502126	0.327204	0.303538
H88	H	1.002126	0.827204	0.803538
H89	H	0.404166	0.153081	-0.202451
H90	H	0.904166	0.653081	0.297549
H91	H	0.561518	0.156853	-0.202458
H92	H	1.061518	0.656853	0.297542
