data_functionalizedCrystal
_audit_creation_method	'MofGen! by Chris Wilmer'
_symmetry_space_group_name_H-M	'P1'
_symmetry_Int_Tables_number	1
_symmetry_cell_setting	triclinic
loop_
_symmetry_equiv_pos_as_xyz
  x,y,z
_cell_length_a	12.827893
_cell_length_b	17.637651
_cell_length_c	12.827885
_cell_angle_alpha	78.750798
_cell_angle_beta	89.980728
_cell_angle_gamma	101.219302
loop_
_atom_site_label
_atom_site_type_symbol
_atom_site_fract_x
_atom_site_fract_y
_atom_site_fract_z
Zn1	Zn	1.513560	-0.314727	-0.506621
Zn2	Zn	1.478114	-0.446962	-0.296492
Zn3	Zn	1.338791	-0.314766	-0.331884
Zn4	Zn	1.303462	-0.446904	-0.471207
O5	O	1.408482	-0.380840	-0.401551
O6	O	1.655092	-0.332276	-0.478755
O7	O	1.459584	-0.429467	-0.154939
O8	O	1.391593	-0.204119	-0.384695
O9	O	1.629050	-0.429429	-0.324375
O10	O	1.519995	-0.204091	-0.513074
O11	O	1.357223	-0.332343	-0.180942
O12	O	1.187871	-0.332286	-0.350357
O13	O	1.331381	-0.429330	-0.622152
O14	O	1.161915	-0.429367	-0.452717
O15	O	1.485739	-0.332220	-0.648170
O16	O	1.425327	-0.557596	-0.290036
O17	O	1.297011	-0.557553	-0.418399
C18	C	1.136976	-0.380825	-0.401535
C19	C	1.020819	-0.380838	-0.401548
C20	C	0.981898	-0.332849	-0.478016
C21	C	0.861844	-0.332861	-0.478031
C22	C	1.353518	-0.586263	-0.346557
C23	C	1.330099	-0.674144	-0.323065
C24	C	1.587067	-0.962804	-0.580345
C25	C	1.565029	-1.045381	-0.558253
C26	C	1.431413	-1.045518	-0.424443
C27	C	1.453443	-0.962939	-0.446521
C28	C	1.531271	-0.921588	-0.524474
C29	C	1.397647	-0.921724	-0.390649
C30	C	1.419672	-0.839152	-0.412729
C31	C	1.497494	-0.797795	-0.490681
C32	C	1.553296	-0.839017	-0.546554
C33	C	1.319815	-0.963076	-0.312702
C34	C	1.264018	-0.921861	-0.256831
C35	C	1.286049	-0.839287	-0.278905
C36	C	1.363870	-0.797931	-0.356856
C37	C	1.230247	-0.798066	-0.223032
C38	C	1.252272	-0.715494	-0.245112
C39	C	1.385896	-0.715359	-0.378936
C40	C	1.681048	-0.380855	-0.401567
C41	C	1.797199	-0.380861	-0.401574
C42	C	1.408573	-0.380764	-0.674141
C43	C	1.408612	-0.380731	-0.790303
C44	C	1.463689	-0.174615	-0.456783
C45	C	1.487215	-0.086734	-0.480319
C46	C	1.485003	-0.332669	-0.854965
C47	C	1.485045	-0.332634	-0.975025
C48	C	1.408466	-0.380858	-0.130036
C49	C	1.408689	-0.380668	-0.013934
H50	H	1.449278	-0.681690	-0.442406
C51	C	0.945781	-0.436356	-0.313115
H52	H	0.985769	-0.466459	-0.265133
H53	H	0.894003	-0.470815	-0.343833
H54	H	0.911291	-0.406040	-0.275804
H55	H	1.515426	-0.730560	-0.508656
C56	C	1.144640	-0.843558	-0.137293
H57	H	1.139516	-0.898638	-0.132144
H58	H	1.078022	-0.830050	-0.156131
H59	H	1.163583	-0.830059	-0.070698
H60	H	1.200649	-0.955540	-0.193364
C61	C	1.638884	-0.793525	-0.632321
H62	H	1.668955	-0.829896	-0.662447
H63	H	1.693038	-0.761300	-0.601025
H64	H	1.607442	-0.761323	-0.686425
C65	C	0.816569	-0.277356	-0.566476
H66	H	0.741821	-0.284642	-0.554879
H67	H	0.831334	-0.288973	-0.633568
H68	H	0.848612	-0.224202	-0.565531
C69	C	1.672655	-0.917313	-0.666113
H70	H	1.702725	-0.953684	-0.696239
H71	H	1.726808	-0.885088	-0.634817
H72	H	1.641213	-0.885110	-0.720217
C73	C	1.626419	-1.090716	-0.619708
H74	H	1.675929	-1.054260	-0.669287
H75	H	1.577832	-1.122927	-0.656592
H76	H	1.663387	-1.122921	-0.571151
C77	C	1.345813	-1.091008	-0.338696
H78	H	1.340691	-1.146088	-0.333542
H79	H	1.279192	-1.077503	-0.357528
H80	H	1.364765	-1.077505	-0.272105
C81	C	1.190899	-0.670154	-0.183656
H82	H	1.141401	-0.706607	-0.134061
H83	H	1.153937	-0.637945	-0.232204
H84	H	1.239498	-0.637947	-0.146770
H85	H	1.301875	-1.030312	-0.294737
C86	C	1.573316	-0.277115	-0.809687
H87	H	1.561707	-0.284431	-0.734932
H88	H	1.572275	-0.223973	-0.841754
H89	H	1.640458	-0.288681	-0.824430
H90	H	1.037456	-0.291752	-0.543470
C91	C	1.573402	-0.277048	-1.050071
H92	H	1.561837	-0.284314	-1.120919
H93	H	1.640529	-0.288616	-1.029138
H94	H	1.572339	-0.223912	-1.046467
H95	H	1.343288	-0.421821	-0.958381
C96	C	1.320297	-0.436287	-0.835576
H97	H	1.272361	-0.466442	-0.779440
H98	H	1.351108	-0.470697	-0.868946
H99	H	1.282920	-0.405992	-0.886261
H100	H	0.830712	-0.421953	-0.336108
