data_functionalizedCrystal
_audit_creation_method	'MofGen! by Chris Wilmer'
_symmetry_space_group_name_H-M	'P1'
_symmetry_Int_Tables_number	1
_symmetry_cell_setting	triclinic
loop_
_symmetry_equiv_pos_as_xyz
  x,y,z
_cell_length_a	21.295418
_cell_length_b	13.032721
_cell_length_c	13.033255
_cell_angle_alpha	74.857313
_cell_angle_beta	82.776995
_cell_angle_gamma	82.777348
loop_
_atom_site_label
_atom_site_type_symbol
_atom_site_fract_x
_atom_site_fract_y
_atom_site_fract_z
Zn1	Zn	0.974295	0.498710	-0.654722
Zn2	Zn	1.474295	0.998710	-0.154722
Zn3	Zn	0.950497	0.653802	-0.499656
Zn4	Zn	1.450497	1.153802	0.000344
Zn5	Zn	0.857157	0.476248	-0.477078
Zn6	Zn	1.357157	0.976248	0.022922
Zn7	Zn	0.857133	0.676314	-0.677151
Zn8	Zn	1.357133	1.176314	-0.177151
O9	O	0.909771	0.576268	-0.577152
O10	O	1.409771	1.076268	-0.077152
O11	O	1.059234	0.519262	-0.634215
O12	O	1.559234	1.019262	-0.134215
O13	O	0.928166	0.611427	-0.348034
O14	O	1.428166	1.111427	0.151966
O15	O	0.882665	0.330593	-0.481808
O16	O	1.382665	0.830593	0.018192
O17	O	1.041750	0.633207	-0.520288
O18	O	1.541750	1.133207	-0.020288
O19	O	0.968726	0.347096	-0.612322
O20	O	1.468726	0.847096	-0.112322
O21	O	0.859589	0.480979	-0.331446
O22	O	1.359589	0.980979	0.168554
O23	O	0.769058	0.502809	-0.503556
O24	O	1.269058	1.002809	-0.003556
O25	O	0.882624	0.671576	-0.822802
O26	O	1.382624	1.171576	-0.322802
O27	O	0.769040	0.649796	-0.650548
O28	O	1.269040	1.149796	-0.150548
O29	O	0.968703	0.541091	-0.806324
O30	O	1.468703	1.041091	-0.306324
O31	O	0.928143	0.805423	-0.542036
O32	O	1.428143	1.305423	-0.042036
O33	O	0.859548	0.821962	-0.672441
O34	O	1.359548	1.321962	-0.172441
C35	C	0.746207	0.576309	-0.577037
C36	C	1.246207	1.076309	-0.077037
C37	C	0.676234	0.576355	-0.577016
C38	C	1.176234	1.076355	-0.077016
C39	C	0.891279	0.852235	-0.612145
C40	C	1.391279	1.352235	-0.112145
C41	C	0.883428	0.970299	-0.627151
C42	C	1.383428	1.470299	-0.127151
C43	C	0.928315	0.611351	-0.854178
C44	C	1.428315	1.111351	-0.354178
C45	C	0.936218	0.626301	-0.972230
C46	C	1.436218	1.126301	-0.472230
C47	C	0.643362	0.652968	-0.653465
C48	C	1.143362	1.152968	-0.153465
C49	C	0.577624	0.652948	-0.653509
C50	C	1.077624	1.152948	-0.153509
C51	C	0.544759	0.576323	-0.577087
C52	C	1.044759	1.076323	-0.077087
C53	C	0.577640	0.499696	-0.500632
C54	C	1.077640	0.999696	-0.000632
C55	C	0.643377	0.499712	-0.500596
C56	C	1.143377	0.999712	-0.000596
N57	N	0.435837	0.556238	-0.483135
N58	N	0.935837	1.056238	0.016865
N59	N	0.373389	0.556230	-0.483173
N60	N	0.873389	1.056230	0.016827
C61	C	0.346696	0.576270	-0.577191
C62	C	0.846696	1.076270	-0.077191
N63	N	0.384810	0.596340	-0.671175
N64	N	0.884810	1.096340	-0.171175
N65	N	0.447263	0.596354	-0.671137
N66	N	0.947263	1.096354	-0.171137
C67	C	0.473478	0.576297	-0.577117
C68	C	0.973478	1.076297	-0.077117
C69	C	0.242544	0.652866	-0.653694
C70	C	0.742544	1.152866	-0.153694
C71	C	0.176806	0.652839	-0.653739
C72	C	0.676806	1.152839	-0.153739
C73	C	0.176822	0.499591	-0.500853
C74	C	0.676822	0.999591	-0.000853
C75	C	0.242560	0.499614	-0.500817
C76	C	0.742560	0.999614	-0.000817
C77	C	0.275417	0.576257	-0.577236
C78	C	0.775417	1.076257	-0.077236
C79	C	1.073973	0.576229	-0.577268
C80	C	1.573973	1.076229	-0.077268
C81	C	1.143946	0.576212	-0.577318
C82	C	1.643946	1.076212	-0.077318
C83	C	0.928353	0.299228	-0.542045
C84	C	1.428353	0.799228	-0.042045
C85	C	0.936271	0.181169	-0.527084
C86	C	1.436271	0.681169	-0.027084
C87	C	0.913904	1.014723	-0.569368
C88	C	1.413904	1.514723	-0.069368
C89	C	0.905791	1.136748	-0.584876
C90	C	1.405791	1.636748	-0.084876
C91	C	0.913983	0.583872	-1.138672
C92	C	1.413983	1.083872	-0.638672
C93	C	0.905810	0.568418	-1.016659
C94	C	1.405810	1.068418	-0.516659
C95	C	0.891339	0.541246	-0.301193
C96	C	1.391339	1.041246	0.198807
C97	C	0.883578	0.525997	-0.183104
C98	C	1.383578	1.025997	0.316896
H99	H	0.670110	0.715376	-0.715693
H100	H	1.170110	1.215376	-0.215693
F101	F	0.978233	1.112814	-0.447414
F102	F	1.478233	1.612814	0.052586
F103	F	0.841642	0.446282	-1.114763
F104	F	1.341642	0.946282	-0.614763
F105	F	0.955911	0.663599	-1.207015
F106	F	1.455911	1.163599	-0.707015
H107	H	0.968303	0.687293	-1.024515
H108	H	1.468303	1.187293	-0.524515
H109	H	0.550855	0.715336	-0.715767
H110	H	1.050855	1.215336	-0.215767
H111	H	0.269298	0.715268	-0.715924
H112	H	0.769298	1.215268	-0.215924
H113	H	0.851333	1.022604	-0.688107
H114	H	1.351333	1.522604	-0.188107
H115	H	0.873694	1.189051	-0.645836
H116	H	1.373694	1.689051	-0.145836
F117	F	0.955864	0.946363	-0.489704
F118	F	1.455864	1.446363	0.010296
H119	H	0.550877	0.437306	-0.438410
H120	H	1.050877	0.937306	0.061590
F121	F	0.141822	0.734381	-0.735116
F122	F	0.641822	1.234381	-0.235116
F123	F	0.277546	0.418072	-0.419446
F124	F	0.777546	0.918072	0.080554
F125	F	0.863871	0.488698	-0.948321
F126	F	1.363871	0.988698	-0.448321
H127	H	0.670141	0.437321	-0.438342
H128	H	1.170141	0.937321	0.061658
H129	H	0.150065	0.437197	-0.438633
H130	H	0.650065	0.937197	0.061367
