data_functionalizedCrystal
_audit_creation_method	'MofGen! by Chris Wilmer'
_symmetry_space_group_name_H-M	'P1'
_symmetry_Int_Tables_number	1
_symmetry_cell_setting	triclinic
loop_
_symmetry_equiv_pos_as_xyz
  x,y,z
_cell_length_a	16.120444
_cell_length_b	11.169417
_cell_length_c	11.169409
_cell_angle_alpha	89.980176
_cell_angle_beta	92.861473
_cell_angle_gamma	92.927304
loop_
_atom_site_label
_atom_site_type_symbol
_atom_site_fract_x
_atom_site_fract_y
_atom_site_fract_z
Zn1	Zn	-0.331820	1.810607	-0.702711
Zn2	Zn	-0.471263	1.800261	-0.512185
Zn3	Zn	-0.331870	1.609889	-0.502050
Zn4	Zn	-0.471195	1.599670	-0.712825
O5	O	-0.401537	1.705107	-0.607443
O6	O	-0.350324	1.977184	-0.677447
O7	O	-0.452822	1.774955	-0.342894
O8	O	-0.215198	1.645121	-0.520194
O9	O	-0.452773	1.969583	-0.537468
O10	O	-0.215161	1.792588	-0.667619
O11	O	-0.350411	1.635089	-0.335448
O12	O	-0.350345	1.440585	-0.530000
O13	O	-0.452657	1.627705	-0.879430
O14	O	-0.452706	1.433077	-0.684856
O15	O	-0.350258	1.782679	-0.871999
O16	O	-0.587920	1.765046	-0.547275
O17	O	-0.587870	1.617673	-0.694684
C18	C	-0.401524	1.393283	-0.607426
C19	C	-0.401539	1.259882	-0.607449
C20	C	-0.618145	1.689161	-0.623203
C21	C	-0.710810	1.682449	-0.629985
C22	C	-0.921757	1.740220	-0.572517
C23	C	-0.880466	1.670216	-0.642380
C24	C	-0.786061	1.677024	-0.635482
C25	C	-1.016170	1.733414	-0.579415
C26	C	-0.184084	1.721148	-0.591648
C27	C	-0.091418	1.727984	-0.584917
C28	C	-0.401445	1.705206	-0.920479
C29	C	-0.401405	1.705248	-1.053876
C30	C	-0.401550	2.018148	-0.607460
C31	C	-0.401556	2.151548	-0.607467
C32	C	-0.401569	1.705082	-0.295620
C33	C	-0.401374	1.705290	-0.162207
H34	H	-0.916017	1.605170	-0.707373
O35	O	-0.879224	1.817705	-0.495007
C36	C	-0.793069	1.807341	-0.505304
H37	H	-0.781326	1.715532	-0.543702
H38	H	-0.759948	1.817854	-0.413041
H39	H	-0.768267	1.880254	-0.567495
