data_functionalizedCrystal
_audit_creation_method	'MofGen! by Chris Wilmer'
_symmetry_space_group_name_H-M	'P1'
_symmetry_Int_Tables_number	1
_symmetry_cell_setting	triclinic
loop_
_symmetry_equiv_pos_as_xyz
  x,y,z
_cell_length_a	17.077404
_cell_length_b	25.639240
_cell_length_c	25.639233
_cell_angle_alpha	89.974071
_cell_angle_beta	89.986422
_cell_angle_gamma	90.028143
loop_
_atom_site_label
_atom_site_type_symbol
_atom_site_fract_x
_atom_site_fract_y
_atom_site_fract_z
Zn1	Zn	1.199953	-0.208279	-0.295596
Zn2	Zn	1.699953	0.291721	0.204404
Zn3	Zn	1.199851	-0.295698	-0.208150
Zn4	Zn	1.699851	0.204302	0.291850
Zn5	Zn	1.068699	-0.208271	-0.208174
Zn6	Zn	1.568699	0.291729	0.291826
Zn7	Zn	1.068630	-0.295678	-0.295553
Zn8	Zn	1.568630	0.204322	0.204447
O9	O	1.134283	-0.251981	-0.251868
O10	O	1.634283	0.248019	0.248132
O11	O	1.309786	-0.219887	-0.284005
O12	O	1.809786	0.280113	0.215995
O13	O	1.182440	-0.284105	-0.134988
O14	O	1.682440	0.215895	0.365012
O15	O	1.086181	-0.135107	-0.219799
O16	O	1.586181	0.364893	0.280201
O17	O	1.309712	-0.284113	-0.219758
O18	O	1.809712	0.215887	0.280242
O19	O	1.182613	-0.135113	-0.284028
O20	O	1.682613	0.364887	0.215972
O21	O	1.086083	-0.219873	-0.135005
O22	O	1.586083	0.280127	0.364995
O23	O	0.958843	-0.219854	-0.219756
O24	O	1.458843	0.280146	0.280244
O25	O	1.086064	-0.284079	-0.368724
O26	O	1.586064	0.215921	0.131276
O27	O	0.958792	-0.284072	-0.283953
O28	O	1.458792	0.215928	0.216047
O29	O	1.182546	-0.219868	-0.368756
O30	O	1.682546	0.280132	0.131244
O31	O	1.182373	-0.368860	-0.219716
O32	O	1.682373	0.131140	0.280284
O33	O	1.085965	-0.368846	-0.283930
O34	O	1.585965	0.131154	0.216070
C35	C	0.930335	-0.251960	-0.251853
C36	C	1.430335	0.248040	0.248147
C37	C	0.843085	-0.251964	-0.251859
C38	C	1.343085	0.248036	0.248141
C39	C	0.467265	-0.285494	-0.285258
C40	C	0.967265	0.214506	0.214742
C41	C	0.549246	-0.285487	-0.285250
C42	C	1.049246	0.214513	0.214750
C43	C	0.590237	-0.251995	-0.251876
C44	C	1.090237	0.248005	0.248124
C45	C	0.549243	-0.218511	-0.218505
C46	C	1.049243	0.281489	0.281495
C47	C	0.467264	-0.218521	-0.218511
C48	C	0.967264	0.281479	0.281489
C49	C	0.720113	-0.218492	-0.218496
C50	C	1.220113	0.281508	0.281504
C51	C	0.802097	-0.218482	-0.218491
C52	C	1.302097	0.281518	0.281509
C53	C	0.802095	-0.285458	-0.285236
C54	C	1.302095	0.214542	0.214764
C55	C	0.720116	-0.285468	-0.285241
C56	C	1.220116	0.214532	0.214759
C57	C	0.679128	-0.251984	-0.251870
C58	C	1.179128	0.248016	0.248130
C59	C	1.134172	-0.387824	-0.251827
C60	C	1.634172	0.112176	0.248173
C61	C	1.134197	-0.445938	-0.251827
C62	C	1.634197	0.054062	0.248173
C63	C	1.184520	-0.806265	-0.285373
C64	C	1.684520	-0.306265	0.214627
C65	C	1.184543	-0.860870	-0.285383
C66	C	1.684543	-0.360870	0.214617
O67	O	1.227198	-0.889076	-0.313863
O68	O	1.727198	-0.389076	0.186137
N69	N	1.134392	-0.888220	-0.251919
N70	N	1.634392	-0.388220	0.248081
C71	C	1.084209	-0.860964	-0.218445
C72	C	1.584209	-0.360964	0.281555
O73	O	1.041553	-0.889242	-0.189982
O74	O	1.541553	-0.389242	0.310018
C75	C	1.084182	-0.806360	-0.218437
C76	C	1.584182	-0.306360	0.281563
C77	C	1.134342	-0.779013	-0.251900
C78	C	1.634342	-0.279013	0.248100
C79	C	1.234675	-0.778918	-0.318833
C80	C	1.734675	-0.278918	0.181167
C81	C	1.234653	-0.724317	-0.318822
C82	C	1.734653	-0.224317	0.181178
C83	C	1.184475	-0.697064	-0.285350
C84	C	1.684475	-0.197064	0.214650
C85	C	1.134320	-0.724412	-0.251889
C86	C	1.634320	-0.224412	0.248111
C87	C	1.033996	-0.779105	-0.184967
C88	C	1.533996	-0.279105	0.315033
C89	C	1.033973	-0.724498	-0.184962
C90	C	1.533973	-0.224498	0.315038
C91	C	1.084133	-0.697150	-0.218425
C92	C	1.584133	-0.197150	0.281575
C93	C	1.084120	-0.642559	-0.218405
C94	C	1.584120	-0.142559	0.281595
N95	N	1.134271	-0.615208	-0.251870
N96	N	1.634271	-0.115208	0.248130
C97	C	1.184449	-0.642461	-0.285342
C98	C	1.684449	-0.142461	0.214658
C99	C	1.084267	-0.975634	-0.218464
C100	C	1.584267	-0.475634	0.281536
C101	C	1.084297	-1.030237	-0.218469
C102	C	1.584297	-0.530237	0.281531
C103	C	1.184631	-1.030139	-0.285408
C104	C	1.684631	-0.530139	0.214592
C105	C	1.184604	-0.975536	-0.285400
C106	C	1.684604	-0.475536	0.214600
C107	C	1.134419	-0.948284	-0.251929
C108	C	1.634419	-0.448284	0.248071
C109	C	1.184399	-0.527796	-0.285315
C110	C	1.684399	-0.027796	0.214685
C111	C	1.184374	-0.473191	-0.285299
C112	C	1.684374	0.026809	0.214701
C113	C	1.084038	-0.473293	-0.218362
C114	C	1.584038	0.026707	0.281638
C115	C	1.084065	-0.527894	-0.218376
C116	C	1.584065	-0.027894	0.281624
C117	C	1.134248	-0.555144	-0.251857
C118	C	1.634248	-0.055144	0.248143
O119	O	1.041485	-0.614318	-0.189942
O120	O	1.541485	-0.114318	0.310058
O121	O	1.227090	-0.614177	-0.313805
O122	O	1.727090	-0.114177	0.186195
C123	C	1.339027	-0.252003	-0.251884
C124	C	1.839027	0.247997	0.248116
C125	C	1.426277	-0.252012	-0.251890
C126	C	1.926277	0.247988	0.248110
C127	C	1.134308	-0.251972	-0.388241
C128	C	1.634308	0.248028	0.111759
C129	C	1.134319	-0.251968	-0.446355
C130	C	1.634319	0.248032	0.053645
C131	C	1.134416	-0.115608	-0.251921
C132	C	1.634416	0.384392	0.248079
C133	C	1.134472	-0.057494	-0.251943
C134	C	1.634472	0.442506	0.248057
C135	C	1.184621	-0.218434	-0.806741
C136	C	1.684621	0.281566	-0.306741
C137	C	1.184631	-0.218419	-0.861345
C138	C	1.684631	0.281581	-0.361345
O139	O	1.227336	-0.189969	-0.889601
O140	O	1.727336	0.310031	-0.389601
N141	N	1.134406	-0.251846	-0.888638
N142	N	1.634406	0.248154	-0.388638
C143	C	1.084162	-0.285285	-0.861324
C144	C	1.584162	0.214715	-0.361324
O145	O	1.041442	-0.313715	-0.889552
O146	O	1.541442	0.186285	-0.389552
C147	C	1.084149	-0.285296	-0.806720
C148	C	1.584149	0.214704	-0.306720
C149	C	1.134383	-0.251872	-0.779430
C150	C	1.634383	0.248128	-0.279430
C151	C	1.234851	-0.185011	-0.779451
C152	C	1.734851	0.314989	-0.279451
C153	C	1.234842	-0.185027	-0.724850
C154	C	1.734842	0.314973	-0.224850
C155	C	1.184604	-0.218464	-0.697540
C156	C	1.684604	0.281536	-0.197540
C157	C	1.134374	-0.251887	-0.724830
C158	C	1.634374	0.248113	-0.224830
C159	C	1.033902	-0.318732	-0.779407
C160	C	1.533902	0.181268	-0.279407
C161	C	1.033893	-0.318741	-0.724800
C162	C	1.533893	0.181259	-0.224800
C163	C	1.084127	-0.285316	-0.697510
C164	C	1.584127	0.214684	-0.197510
C165	C	1.084127	-0.285340	-0.642919
C166	C	1.584127	0.214660	-0.142919
N167	N	1.134352	-0.251914	-0.615626
N168	N	1.634352	0.248086	-0.115626
C169	C	1.184590	-0.218476	-0.642936
C170	C	1.684590	0.281524	-0.142936
C171	C	1.084192	-0.285258	-0.975994
C172	C	1.584192	0.214742	-0.475994
C173	C	1.084209	-0.285249	-1.030597
C174	C	1.584209	0.214751	-0.530597
C175	C	1.184677	-0.218383	-1.030614
C176	C	1.684677	0.281617	-0.530614
C177	C	1.184664	-0.218394	-0.976011
C178	C	1.684664	0.281606	-0.476011
C179	C	1.134417	-0.251831	-0.948701
C180	C	1.634417	0.248169	-0.448701
C181	C	1.184569	-0.218511	-0.528271
C182	C	1.684569	0.281489	-0.028271
C183	C	1.184558	-0.218531	-0.473666
C184	C	1.684558	0.281469	0.026334
C185	C	1.084087	-0.285395	-0.473653
C186	C	1.584087	0.214605	0.026347
C187	C	1.084100	-0.285377	-0.528253
C188	C	1.584100	0.214623	-0.028253
C189	C	1.134344	-0.251931	-0.555561
C190	C	1.634344	0.248069	-0.055561
O191	O	1.041441	-0.313774	-0.614628
O192	O	1.541441	0.186226	-0.114628
O193	O	1.227296	-0.190046	-0.614701
O194	O	1.727296	0.309954	-0.114701
C195	C	1.134303	-0.251953	-0.116026
C196	C	1.634303	0.248047	0.383974
C197	C	1.134444	-0.251809	-0.057912
C198	C	1.634444	0.248191	0.442088
H199	H	1.225257	-0.549977	-0.312582
H200	H	1.725257	-0.049977	0.187418
H201	H	0.993150	-0.801362	-0.157717
H202	H	1.493150	-0.301362	0.342283
O203	O	1.238742	-1.059540	-0.321518
O204	O	1.738742	-0.559540	0.178482
H205	H	1.278709	-1.084417	-0.298149
H206	H	1.778709	-0.584417	0.201851
O207	O	0.423061	-0.321618	-0.321257
O208	O	0.923061	0.178382	0.178743
H209	H	0.359169	-0.315997	-0.315661
H210	H	0.859169	0.184003	0.184339
O211	O	0.423043	-0.182418	-0.182514
O212	O	0.923043	0.317582	0.317486
H213	H	0.385704	-0.155861	-0.205964
H214	H	0.885704	0.344139	0.294036
O215	O	1.029972	-0.557387	-0.182275
O216	O	1.529972	-0.057387	0.317725
H217	H	1.065145	-0.582260	-0.155698
H218	H	1.565145	-0.082260	0.344302
H219	H	1.225223	-0.450926	-0.312549
H220	H	1.725223	0.049074	0.187451
H221	H	1.043460	-1.052499	-0.191214
H222	H	1.543460	-0.552499	0.308786
O223	O	1.029919	-0.443891	-0.182264
O224	O	1.529919	0.056109	0.317736
H225	H	1.043428	-0.454382	-0.141237
H226	H	1.543428	0.045618	0.358763
H227	H	0.835471	-0.312722	-0.312409
H228	H	1.335471	0.187278	0.187591
H229	H	1.043312	-0.312473	-1.052811
H230	H	1.543312	0.187527	-0.552811
O231	O	0.979710	-0.354777	-0.808834
O232	O	1.479710	0.145223	-0.308834
H233	H	0.944770	-0.378020	-0.780661
H234	H	1.444770	0.121980	-0.280661
H235	H	0.582624	-0.191244	-0.191329
H236	H	1.082624	0.308756	0.308671
O237	O	0.846314	-0.182363	-0.182493
O238	O	1.346314	0.317637	0.317507
H239	H	0.804042	-0.159086	-0.159283
H240	H	1.304042	0.340914	0.340717
H241	H	1.043402	-0.953449	-0.191203
H242	H	1.543402	-0.453449	0.308797
H243	H	1.225568	-0.191176	-0.953795
H244	H	1.725568	0.308824	-0.453795
O245	O	1.288766	-0.694823	-0.354906
O246	O	1.788766	-0.194823	0.145094
H247	H	1.323658	-0.722954	-0.378179
H248	H	1.823658	-0.222954	0.121821
H249	H	1.043187	-0.312620	-0.451407
H250	H	1.543187	0.187380	0.048593
O251	O	0.979687	-0.354799	-0.695343
O252	O	1.479687	0.145201	-0.195343
H253	H	0.944762	-0.378036	-0.723497
H254	H	1.444762	0.121964	-0.223497
H255	H	1.043275	-0.312489	-0.953762
H256	H	1.543275	0.187511	-0.453762
H257	H	0.686743	-0.191224	-0.191323
H258	H	1.186743	0.308776	0.308677
O259	O	0.979843	-0.695105	-0.148859
O260	O	1.479843	-0.195105	0.351141
H261	H	1.014992	-0.670224	-0.122277
H262	H	1.514992	-0.170224	0.377723
H263	H	1.275536	-0.801101	-0.346093
H264	H	1.775536	-0.301101	0.153907
H265	H	1.225448	-0.953272	-0.312649
H266	H	1.725448	-0.453272	0.187351
H267	H	1.275761	-0.157779	-0.801681
H268	H	1.775761	0.342221	-0.301681
O269	O	0.675962	-0.321625	-0.321235
O270	O	1.175962	0.178375	0.178765
H271	H	0.638630	-0.298307	-0.347913
H272	H	1.138630	0.201693	0.152087
H273	H	1.043203	-0.312599	-0.550474
H274	H	1.543203	0.187401	-0.050474
H275	H	1.225479	-0.191274	-0.550499
H276	H	1.725479	0.308726	-0.050499
O277	O	0.593450	-0.321598	-0.321246
O278	O	1.093450	0.178402	0.178754
H279	H	0.577681	-0.362620	-0.312204
H280	H	1.077681	0.137380	0.187796
O281	O	1.238739	-0.182478	-0.444230
O282	O	1.738739	0.317522	0.055770
H283	H	1.273667	-0.159221	-0.472398
H284	H	1.773667	0.340779	0.027602
H285	H	1.275746	-0.157808	-0.702635
H286	H	1.775746	0.342192	-0.202635
H287	H	1.225582	-0.191155	-1.052860
H288	H	1.725582	0.308845	-0.552860
