data_functionalizedCrystal
_audit_creation_method	'MofGen! by Chris Wilmer'
_symmetry_space_group_name_H-M	'P1'
_symmetry_Int_Tables_number	1
_symmetry_cell_setting	triclinic
loop_
_symmetry_equiv_pos_as_xyz
  x,y,z
_cell_length_a	19.188905
_cell_length_b	17.666332
_cell_length_c	12.811487
_cell_angle_alpha	84.572677
_cell_angle_beta	83.592943
_cell_angle_gamma	90.016377
loop_
_atom_site_label
_atom_site_type_symbol
_atom_site_fract_x
_atom_site_fract_y
_atom_site_fract_z
O1	O	0.926807	0.054085	0.130909
O2	O	0.723581	0.052847	0.148576
O3	O	0.830307	0.063953	-0.013072
O4	O	0.820082	0.042979	0.292556
O5	O	0.830288	-0.061943	-0.013076
O6	O	0.723562	-0.073050	0.148571
O7	O	0.926788	-0.071811	0.130904
Cu8	Cu	0.825173	-0.083926	0.139737
Cu9	Cu	0.825196	0.064961	0.139743
O10	O	0.820063	-0.082918	0.292551
C11	C	0.697557	-0.010066	0.148006
C12	C	0.620043	-0.009959	0.146301
N13	N	0.825163	-0.188645	0.139733
C14	C	0.583658	0.058725	0.145485
C15	C	0.510826	0.058846	0.143872
C16	C	0.474385	-0.009721	0.143054
C17	C	0.510779	-0.078415	0.143876
C18	C	0.583608	-0.078534	0.145500
N19	N	0.365049	-0.056516	0.080775
N20	N	0.295865	-0.056399	0.079231
C21	C	0.254954	-0.009367	0.138165
N22	N	0.285843	0.037554	0.198689
N23	N	0.355034	0.037439	0.200229
C24	C	0.395414	-0.009600	0.141294
C25	C	0.139596	0.059452	0.135601
C26	C	0.066763	0.059569	0.133995
C27	C	0.066717	-0.077693	0.133988
C28	C	0.139548	-0.077809	0.135605
C29	C	0.175984	-0.009234	0.136407
C30	C	0.867686	-0.232600	0.203232
C31	C	0.867697	-0.311848	0.203229
C32	C	0.825172	-0.347137	0.139739
C33	C	0.782646	-0.303172	0.076226
C34	C	0.782642	-0.223925	0.076223
N35	N	0.764010	-0.471408	0.137161
N36	N	0.764017	-0.546689	0.137170
C37	C	0.825185	-0.585902	0.139742
N38	N	0.886347	-0.546991	0.142326
N39	N	0.886340	-0.471703	0.142323
C40	C	0.825173	-0.433066	0.139734
C41	C	0.867724	-0.715786	0.203242
C42	C	0.867736	-0.795035	0.203231
C43	C	0.782679	-0.786358	0.076235
C44	C	0.782673	-0.707110	0.076239
C45	C	0.825194	-0.671830	0.139748
C46	C	0.952812	-0.008897	0.131474
C47	C	1.030326	-0.008999	0.133178
C48	C	0.829724	0.003690	-0.052175
C49	C	0.828008	0.011690	-0.168683
N50	N	0.825212	0.169681	0.139739
C51	C	0.824775	-0.110544	-0.387634
C52	C	0.823162	-0.103031	-0.497104
C53	C	0.823175	0.034228	-0.497094
C54	C	0.824788	0.026715	-0.387625
C55	C	0.825586	-0.045673	-0.332898
C56	C	0.827194	-0.053186	-0.223426
C57	C	0.827212	0.084073	-0.223419
C58	C	0.825599	0.091586	-0.332889
C59	C	0.820645	-0.022653	0.331655
C60	C	0.822362	-0.030647	0.448163
H61	H	0.613319	0.114565	0.146138
H62	H	0.481195	0.114778	0.143209
H63	H	0.902348	-0.687060	0.254954
N64	N	0.471329	-0.152253	0.142811
H65	H	0.478369	-0.186874	0.208082
H66	H	0.419727	-0.141482	0.141560
H67	H	0.169174	-0.133738	0.136263
N68	N	0.178897	0.133410	0.136485
H69	H	0.230556	0.122914	0.137629
H70	H	0.171653	0.167865	0.071154
H71	H	0.902313	-0.203880	0.254942
H72	H	0.613233	-0.134467	0.146166
N73	N	0.822287	-0.173001	-0.556136
H74	H	0.778390	-0.173551	-0.592846
H75	H	0.864878	-0.172294	-0.610210
N76	N	0.825639	-0.188612	-0.328594
H77	H	0.783079	-0.195391	-0.274462
H78	H	0.824903	-0.228523	-0.379948
H79	H	0.037138	0.115502	0.133337
H80	H	0.037047	-0.133522	0.133329
N81	N	0.913563	-0.359270	0.271720
H82	H	0.940499	-0.324895	0.311951
H83	H	0.883264	-0.395685	0.323142
H84	H	0.748043	-0.671321	0.024535
N85	N	0.736784	-0.341228	0.007740
H86	H	0.743237	-0.398101	0.017379
H87	H	0.686066	-0.328829	0.028668
H88	H	0.748013	-0.188137	0.024513
N89	N	0.913629	-0.842446	0.271684
H90	H	0.940569	-0.808067	0.311904
H91	H	0.883356	-0.878879	0.323116
N92	N	0.736818	-0.824407	0.007745
H93	H	0.743274	-0.881280	0.017378
H94	H	0.686099	-0.812012	0.028674
N95	N	0.828053	-0.131257	-0.164394
H96	H	0.827296	-0.171212	-0.215685
H97	H	0.871952	-0.136756	-0.127686
N98	N	0.822325	0.112298	-0.556132
H99	H	0.821184	0.107211	-0.633786
H100	H	0.779380	0.140353	-0.528293
N101	N	0.824742	0.169658	-0.391919
H102	H	0.823599	0.164575	-0.469574
H103	H	0.781795	0.197706	-0.364071
H104	H	0.827865	0.136895	-0.178840
