data_functionalizedCrystal
_audit_creation_method	'MofGen! by Chris Wilmer'
_symmetry_space_group_name_H-M	'P1'
_symmetry_Int_Tables_number	1
_symmetry_cell_setting	triclinic
loop_
_symmetry_equiv_pos_as_xyz
  x,y,z
_cell_length_a	15.625020
_cell_length_b	15.538191
_cell_length_c	13.930277
_cell_angle_alpha	89.997597
_cell_angle_beta	71.909322
_cell_angle_gamma	66.738808
loop_
_atom_site_label
_atom_site_type_symbol
_atom_site_fract_x
_atom_site_fract_y
_atom_site_fract_z
O1	O	1.156076	0.122913	-0.482327
O2	O	0.888788	0.137562	-0.389267
O3	O	1.074462	-0.006825	-0.453916
O4	O	0.970402	0.267300	-0.417677
O5	O	1.074443	-0.006828	-0.294248
O6	O	0.888769	0.137559	-0.229599
O7	O	1.156058	0.122910	-0.322659
Zn8	Zn	1.022411	0.130234	-0.250778
Zn9	Zn	1.022435	0.130238	-0.461148
O10	O	0.970384	0.267297	-0.258009
C11	C	0.855405	0.136898	-0.297814
C12	C	0.755967	0.134911	-0.263194
C13	C	0.615803	0.132108	-0.127369
C14	C	0.709240	0.133975	-0.159910
C15	C	0.709271	0.133975	-0.333978
C16	C	0.615834	0.132103	-0.301452
C17	C	0.569108	0.131171	-0.198147
C18	C	0.569139	0.131166	-0.372230
C19	C	0.475708	0.129299	-0.339706
C20	C	0.428973	0.128370	-0.236404
C21	C	0.475677	0.129304	-0.165623
C22	C	0.615864	0.132105	-0.475534
C23	C	0.569168	0.131167	-0.546311
C24	C	0.475739	0.129294	-0.513789
C25	C	0.429004	0.128365	-0.410487
C26	C	0.429035	0.128359	-0.584570
C27	C	0.335605	0.126493	-0.552046
C28	C	0.335574	0.126498	-0.377963
C29	C	1.085340	-0.041908	-0.377876
C30	C	1.117770	-0.146440	-0.389176
C31	C	0.795587	-0.434646	-0.276984
C32	C	0.826082	-0.532872	-0.287599
C33	C	0.997613	-0.555094	-0.347320
C34	C	0.967132	-0.456868	-0.336714
C35	C	0.866117	-0.396651	-0.301545
C36	C	1.037662	-0.418872	-0.361275
C37	C	1.007183	-0.320654	-0.350665
C38	C	0.906173	-0.260431	-0.315495
C39	C	0.835638	-0.298433	-0.290935
C40	C	1.138676	-0.479091	-0.396438
C41	C	1.209207	-0.441096	-0.420999
C42	C	1.178728	-0.342876	-0.410396
C43	C	1.077718	-0.282653	-0.375225
C44	C	1.249264	-0.304875	-0.434956
C45	C	1.218784	-0.206657	-0.424346
C46	C	1.047239	-0.184435	-0.364615
C47	C	1.189440	0.123574	-0.414114
C48	C	1.288878	0.125561	-0.448740
C49	C	0.959505	0.302380	-0.334052
C50	C	0.927075	0.406912	-0.322758
N51	N	1.022401	0.130230	-0.107208
N52	N	1.022454	0.130234	-0.604720
C53	C	0.940224	0.194147	0.373674
C54	C	1.104673	0.066321	0.316384
C55	C	1.104663	0.066318	0.215892
C56	C	1.022433	0.130232	0.194286
C57	C	0.940213	0.194148	0.273173
C58	C	1.186885	0.002409	0.136997
C59	C	1.186879	0.002404	0.036497
C60	C	1.104646	0.066314	0.014891
C61	C	1.022422	0.130233	0.093785
C62	C	0.940192	0.194146	0.072179
C63	C	0.857964	0.258061	0.151073
C64	C	0.857979	0.258058	0.251566
C65	C	1.104631	0.066317	-0.085603
C66	C	0.940181	0.194147	-0.028322
H67	H	0.747327	0.134737	-0.418089
N68	N	0.716637	0.134116	-0.510634
H69	H	0.712752	0.192885	-0.475108
H70	H	0.765483	0.076197	-0.493497
N71	N	1.275561	-0.066539	-0.048580
H72	H	1.254770	-0.108297	-0.083025
H73	H	1.303639	-0.030419	-0.100012
N74	N	1.193356	-0.002602	0.339695
H75	H	1.172572	-0.044355	0.388640
H76	H	1.245407	-0.043032	0.274426
N77	N	0.619579	0.132166	-0.657728
H78	H	0.629722	0.073513	-0.699305
H79	H	0.576896	0.190200	-0.680849
N80	N	0.769271	0.326992	0.127770
H81	H	0.757768	0.393844	0.149260
H82	H	0.781806	0.317211	0.052131
N83	N	0.479433	0.129376	-0.695986
H84	H	0.545704	0.130705	-0.705849
H85	H	0.489510	0.070722	-0.737503
H86	H	1.171582	0.014283	-0.149833
N87	N	0.285229	0.125488	-0.628378
H88	H	0.329008	0.126360	-0.698756
H89	H	0.272857	0.066389	-0.627862
H90	H	0.747254	0.134745	-0.102266
H91	H	0.791033	0.310096	0.315806
H92	H	0.352894	0.126855	-0.209924
N93	N	0.425280	0.128284	-0.054201
H94	H	0.469338	0.128498	-0.014404
H95	H	0.360437	0.186170	-0.027540
H96	H	0.577750	0.131361	-0.043246
N97	N	0.851481	0.263081	-0.051612
H98	H	0.839980	0.329932	-0.030118
H99	H	0.864004	0.253307	-0.127249
H100	H	1.331509	-0.353917	-0.463581
H101	H	0.881359	-0.180456	-0.306851
N102	N	0.938292	-0.119462	-0.326687
H103	H	0.906097	-0.131687	-0.374664
H104	H	0.906165	-0.131718	-0.256275
H105	H	0.753382	-0.249400	-0.262303
H106	H	1.253838	-0.049623	0.154592
H107	H	0.297521	0.125751	-0.293839
H108	H	1.079859	-0.604136	-0.375951
H109	H	0.713331	-0.385613	-0.248352
N110	N	1.294851	-0.165667	-0.450830
H111	H	1.363468	-0.218717	-0.474722
H112	H	1.285946	-0.125399	-0.506917
N113	N	0.851540	0.263075	0.458762
H114	H	0.872324	0.304833	0.493218
H115	H	0.799484	0.303499	0.429752
N116	N	0.750005	-0.573855	-0.261105
H117	H	0.681391	-0.520801	-0.237216
H118	H	0.758920	-0.614123	-0.323397
H119	H	1.163489	-0.559066	-0.405084
H120	H	1.291453	-0.490137	-0.449630
