data_functionalizedCrystal
_audit_creation_method	'MofGen! by Chris Wilmer'
_symmetry_space_group_name_H-M	'P1'
_symmetry_Int_Tables_number	1
_symmetry_cell_setting	triclinic
loop_
_symmetry_equiv_pos_as_xyz
  x,y,z
_cell_length_a	16.974897
_cell_length_b	16.992695
_cell_length_c	16.053802
_cell_angle_alpha	87.258926
_cell_angle_beta	83.774775
_cell_angle_gamma	92.972799
loop_
_atom_site_label
_atom_site_type_symbol
_atom_site_fract_x
_atom_site_fract_y
_atom_site_fract_z
O1	O	1.061806	-0.093271	-0.141098
O2	O	0.831707	-0.106726	-0.125569
O3	O	0.945834	0.014140	-0.133265
O4	O	0.947679	-0.214137	-0.133403
O5	O	0.939550	0.007514	0.006018
O6	O	0.825423	-0.113351	0.013713
O7	O	1.055523	-0.099897	-0.001816
Zn8	Zn	0.939475	-0.107676	0.028063
Zn9	Zn	0.947754	-0.098947	-0.155448
O10	O	0.941396	-0.220762	0.005880
C11	C	0.798987	-0.109648	-0.053932
C12	C	0.710851	-0.108474	-0.047983
C13	C	0.672862	-0.104314	-0.121106
C14	C	0.590048	-0.103224	-0.115504
C15	C	0.545225	-0.106289	-0.036780
C16	C	0.583219	-0.110453	0.036348
C17	C	0.666031	-0.111548	0.030746
C18	C	0.297185	-0.103407	-0.011883
C19	C	0.214368	-0.102309	-0.006287
C20	C	0.221203	-0.095081	-0.158140
C21	C	0.304017	-0.096172	-0.163735
C22	C	0.342003	-0.100339	-0.090607
N23	N	0.460575	-0.105173	-0.031052
N24	N	0.426651	-0.101461	-0.096335
C25	C	0.940319	0.040030	-0.063464
C26	C	0.933238	0.127044	-0.062986
C27	C	1.088243	-0.096974	-0.073455
C28	C	1.176379	-0.098148	-0.079409
C29	C	0.946911	-0.246652	-0.063923
C30	C	0.953992	-0.333666	-0.064406
N31	N	0.933831	-0.113633	0.153304
C32	C	1.001560	0.177574	-0.067596
C33	C	0.994903	0.259332	-0.067155
C34	C	0.919921	0.290560	-0.062097
C35	C	0.851594	0.240024	-0.057489
C36	C	0.858253	0.158267	-0.057936
C37	C	0.892324	0.534041	-0.060246
C38	C	0.885670	0.615804	-0.059796
C39	C	1.028979	0.635108	-0.069463
C40	C	1.035631	0.553348	-0.069905
C41	C	0.967304	0.502819	-0.065302
N42	N	0.913114	0.374130	-0.061643
N43	N	0.974112	0.419251	-0.065762
N44	N	0.953405	-0.092983	-0.280689
C45	C	0.982412	-0.062223	0.193722
C46	C	0.978472	-0.066397	0.281394
C47	C	0.925954	-0.121986	0.328647
C48	C	0.877367	-0.173399	0.288223
C49	C	0.881304	-0.169220	0.200553
C50	C	0.908755	-0.140217	0.591216
C51	C	0.904823	-0.144394	0.678893
C52	C	1.005928	-0.037390	0.672058
C53	C	1.009863	-0.033220	0.584386
C54	C	0.961274	-0.084630	0.543970
N55	N	0.921926	-0.126256	0.418262
N56	N	0.965298	-0.080355	0.454356
H57	H	0.328104	-0.106795	0.047662
F58	F	1.065760	0.025944	0.534097
H59	H	1.096689	0.527929	-0.074024
F60	F	1.057635	0.017322	0.715077
H61	H	1.084607	0.676256	-0.073213
F62	F	1.081366	0.144347	-0.072971
F63	F	0.351716	-0.092905	-0.247524
H64	H	0.802617	0.117125	-0.054183
H65	H	0.869193	-0.182079	0.558316
H66	H	0.709352	-0.101815	-0.185212
F67	F	0.821468	-0.232558	0.338514
F68	F	0.706460	-0.115979	0.108573
H69	H	0.841743	-0.211083	0.167645
H70	H	0.862055	-0.189664	0.717362
F71	F	0.549622	-0.098796	-0.193331
F72	F	0.180770	-0.090639	-0.235962
H73	H	0.177873	-0.104827	0.057823
F74	F	1.067621	0.313107	-0.072060
F75	F	0.805861	0.649036	-0.054409
F76	F	0.819603	0.480275	-0.055349
F77	F	0.535511	-0.113722	0.120133
H78	H	1.025182	-0.016959	0.155254
F79	F	0.771793	0.273260	-0.052116
F80	F	1.030176	-0.011679	0.324410
