data_functionalizedCrystal
_audit_creation_method	'MofGen! by Chris Wilmer'
_symmetry_space_group_name_H-M	'P1'
_symmetry_Int_Tables_number	1
_symmetry_cell_setting	triclinic
loop_
_symmetry_equiv_pos_as_xyz
  x,y,z
_cell_length_a	10.654541
_cell_length_b	27.732048
_cell_length_c	9.130307
_cell_angle_alpha	89.991788
_cell_angle_beta	89.999822
_cell_angle_gamma	83.563292
loop_
_atom_site_label
_atom_site_type_symbol
_atom_site_fract_x
_atom_site_fract_y
_atom_site_fract_z
O1	O	1.664985	0.067880	-0.121772
O2	O	1.299234	0.074349	-0.121787
O3	O	1.493469	0.000788	-0.121751
O4	O	1.470750	0.141440	-0.121808
O5	O	1.493463	0.000787	0.121848
O6	O	1.299228	0.074348	0.121812
O7	O	1.664979	0.067879	0.121827
Cu8	Cu	1.482103	0.071113	0.144062
Cu9	Cu	1.482110	0.071114	-0.144022
O10	O	1.470744	0.141439	0.121791
C11	C	1.252453	0.073873	0.000011
C12	C	1.113069	0.072453	0.000007
C13	C	1.081401	0.160415	-0.000047
C14	C	1.000086	0.203726	-0.000079
C15	C	0.869124	0.202389	-0.000080
C16	C	0.819476	0.157735	-0.000044
C17	C	0.900791	0.114423	-0.000012
C18	C	1.031754	0.115766	-0.000015
C19	C	0.932459	0.026463	0.000053
C20	C	1.063421	0.027799	0.000043
C21	C	0.882811	-0.018191	0.000089
C22	C	0.964126	-0.061504	0.000111
C23	C	1.095095	-0.060164	0.000110
C24	C	1.144736	-0.015512	0.000076
C25	C	1.492989	-0.017222	0.000052
C26	C	1.491553	-0.070886	0.000064
C27	C	1.597293	-0.409043	-0.000007
C28	C	1.591965	-0.610736	-0.000027
O29	O	1.688656	-0.641390	-0.000088
N30	N	1.476791	-0.630576	-0.000031
C31	C	1.362942	-0.599990	-0.000038
O32	O	1.264858	-0.621494	-0.000056
C33	C	1.368271	-0.398299	-0.000028
C34	C	1.483452	-0.378461	-0.000010
C35	C	1.712464	-0.389205	0.000010
C36	C	1.713795	-0.338785	0.000023
C37	C	1.599954	-0.308203	0.000020
C38	C	1.484783	-0.328041	0.000003
C39	C	1.254423	-0.367713	-0.000046
C40	C	1.255766	-0.317288	-0.000047
C41	C	1.370947	-0.297450	-0.000029
C42	C	1.372273	-0.247038	0.000013
N43	N	1.487446	-0.227198	0.000016
C44	C	1.601287	-0.257780	0.000019
C45	C	1.360152	-0.705882	-0.000041
C46	C	1.358819	-0.756305	-0.000041
C47	C	1.587843	-0.767046	-0.000032
C48	C	1.589174	-0.716623	-0.000022
C49	C	1.475325	-0.686041	-0.000037
C50	C	1.604073	-0.151893	0.000048
C51	C	1.605394	-0.101468	0.000068
C52	C	1.376371	-0.090731	0.000052
C53	C	1.375050	-0.141151	0.000040
C54	C	1.488911	-0.171732	0.000034
O55	O	1.275633	-0.216356	0.000057
O56	O	1.699357	-0.236267	0.000005
C57	C	1.595962	-0.459463	-0.000020
C58	C	1.480790	-0.479301	-0.000036
C59	C	1.366950	-0.448719	-0.000040
C60	C	1.479458	-0.529724	-0.000036
C61	C	1.593298	-0.560306	-0.000033
C62	C	1.708472	-0.540466	-0.000030
C63	C	1.709803	-0.490045	-0.000017
C64	C	1.251777	-0.468560	-0.000043
C65	C	1.250455	-0.518981	-0.000054
C66	C	1.364296	-0.549563	-0.000051
C67	C	1.711760	0.068354	0.000025
C68	C	1.851144	0.069774	0.000020
C69	C	1.471224	0.159450	-0.000016
C70	C	1.472660	0.213113	-0.000037
N71	N	1.482107	0.071112	0.346685
N72	N	1.482116	0.071111	-0.346645
C73	C	1.654171	0.005994	0.346706
C74	C	1.740211	-0.026564	0.423384
C75	C	1.740224	-0.026565	0.576717
C76	C	1.654184	0.005996	0.653377
C77	C	1.568144	0.038554	0.576699
C78	C	1.568143	0.038551	0.423362
C79	C	1.396076	0.103669	0.576678
C80	C	1.396067	0.103673	0.423344
C81	C	1.310037	0.136229	0.653337
C82	C	1.224000	0.168790	0.576660
C83	C	1.223992	0.168790	0.423317
C84	C	1.310027	0.136230	0.346667
H85	H	1.251370	-0.014417	0.000058
H86	H	1.265028	-0.772452	-0.000030
F87	F	1.654186	0.005989	0.816568
H88	H	1.161296	-0.095434	0.000142
F89	F	1.711763	-0.695515	-0.000003
H90	H	1.680536	-0.791955	-0.000029
F91	F	1.310044	0.136227	0.816529
H92	H	1.805172	-0.414100	0.000007
H93	H	1.153923	0.195300	0.360894
H94	H	0.802916	0.237657	-0.000096
F95	F	1.727990	-0.080359	0.000086
H96	H	1.654180	0.005995	0.221854
H97	H	1.281260	-0.157304	0.000066
F98	F	1.132434	0.203437	0.658252
H99	H	1.810280	-0.053078	0.639148
H100	H	1.163054	-0.292390	-0.000062
F101	F	1.130605	-0.436018	-0.000051
F102	F	1.831773	-0.061217	0.341791
F103	F	0.680093	0.156314	-0.000023
F104	F	0.743429	-0.019613	0.000096
F105	F	1.310031	0.136229	0.183475
H106	H	1.188035	0.161508	-0.000078
F107	F	1.238970	-0.673340	-0.000057
H108	H	0.923691	-0.097857	0.000139
F109	F	1.832395	-0.468939	-0.000006
F110	F	1.725257	-0.184433	0.000041
F111	F	1.836387	-0.317679	0.000010
H112	H	1.160631	-0.383856	-0.000070
F113	F	1.255220	-0.058174	0.000049
F114	F	1.052934	0.251248	-0.000118
H115	H	1.801165	-0.565374	-0.000021
H116	H	1.156654	-0.535127	-0.000056
