data_functionalizedCrystal
_audit_creation_method	'MofGen! by Chris Wilmer'
_symmetry_space_group_name_H-M	'P1'
_symmetry_Int_Tables_number	1
_symmetry_cell_setting	triclinic
loop_
_symmetry_equiv_pos_as_xyz
  x,y,z
_cell_length_a	18.050591
_cell_length_b	18.050589
_cell_length_c	18.101389
_cell_angle_alpha	90.019529
_cell_angle_beta	90.023851
_cell_angle_gamma	90.016982
loop_
_atom_site_label
_atom_site_type_symbol
_atom_site_fract_x
_atom_site_fract_y
_atom_site_fract_z
Zn1	Zn	1.135362	-0.295808	0.418824
Zn2	Zn	1.135281	-0.419982	0.294980
Zn3	Zn	1.011173	-0.295803	0.294986
Zn4	Zn	1.011146	-0.419953	0.418769
O5	O	1.073240	-0.357886	0.356890
O6	O	1.239276	-0.312294	0.402416
O7	O	1.118794	-0.403519	0.191348
O8	O	1.027692	-0.191879	0.311438
O9	O	1.239216	-0.403524	0.311428
O10	O	1.118933	-0.191882	0.402422
O11	O	1.027613	-0.312285	0.191352
O12	O	0.907244	-0.312257	0.311386
O13	O	1.027647	-0.403474	0.522409
O14	O	0.907225	-0.403469	0.402329
O15	O	1.118908	-0.312266	0.522449
O16	O	1.118769	-0.523903	0.311375
O17	O	1.027568	-0.523881	0.402323
C18	C	0.880288	-0.357860	0.356853
C19	C	0.797742	-0.357867	0.356854
C20	C	0.548906	-0.308214	0.307516
C21	C	0.598340	-0.290138	0.375103
C22	C	0.500622	-0.357905	0.356915
C23	C	0.598269	-0.375927	0.289303
C24	C	0.646607	-0.357884	0.356882
C25	C	0.548969	-0.339794	0.424537
C26	C	0.548894	-0.425614	0.338692
C27	C	0.598306	-0.407564	0.406324
C28	C	0.416524	-0.357915	0.356933
C29	C	0.730704	-0.357874	0.356871
C30	C	1.073177	-0.550838	0.356859
C31	C	1.073217	-0.633384	0.356870
C32	C	1.122942	-0.882194	0.307495
C33	C	1.055183	-0.832856	0.289300
C34	C	1.073311	-0.930504	0.356927
C35	C	1.141019	-0.832761	0.375059
C36	C	1.073268	-0.784519	0.356898
C37	C	1.005516	-0.882254	0.338697
C38	C	1.091398	-0.882163	0.424488
C39	C	1.023593	-0.832847	0.406319
C40	C	1.073336	-1.014603	0.356943
C41	C	1.073235	-0.700423	0.356882
C42	C	1.266946	-0.357913	0.356927
C43	C	1.349492	-0.357924	0.356943
C44	C	1.073283	-0.357867	0.550052
C45	C	1.073302	-0.357859	0.632366
C46	C	1.073325	-0.164181	0.356937
C47	C	1.073360	-0.081635	0.356957
C48	C	1.073240	-0.357851	0.164479
C49	C	1.073366	-0.357650	0.082165
C50	C	1.073345	-0.357720	0.931457
C51	C	1.015728	-0.414924	0.900107
C52	C	1.015884	-0.415189	0.814488
C53	C	1.073323	-0.357789	0.783074
C54	C	1.151572	-0.379038	0.814179
C55	C	1.151251	-0.379413	0.899824
C56	C	1.053393	-0.279141	0.899883
C57	C	1.051652	-0.279595	0.814232
C58	C	1.073315	-0.357827	0.699215
C59	C	1.073358	-0.357684	1.015316
H60	H	0.527403	-0.324475	0.481718
O61	O	0.627114	-0.214280	0.395507
H62	H	0.660962	-0.218332	0.446552
O63	O	0.938633	-0.397492	0.927368
H64	H	0.901898	-0.386414	0.879442
O65	O	1.034884	-0.804159	0.213605
H66	H	1.034530	-0.742675	0.214430
O67	O	0.626857	-0.463217	0.461702
H68	H	0.660670	-0.505571	0.432746
H69	H	0.527159	-0.482867	0.323268
H70	H	0.619927	-0.391179	0.232138
O71	O	1.173639	-0.455505	0.926298
H72	H	1.230007	-0.468631	0.905614
O73	O	1.210023	-0.326585	0.927269
H74	H	1.183735	-0.282708	0.961298
O75	O	1.033335	-0.492360	0.787403
H76	H	1.084539	-0.490986	0.753500
H77	H	1.195654	-0.338683	0.793833
H78	H	0.981555	-0.811316	0.448110
H79	H	1.168776	-0.435870	0.792735
H80	H	0.997325	-0.259783	0.921470
H81	H	1.198297	-0.811021	0.390407
H82	H	0.957859	-0.401892	0.793456
O83	O	0.975383	-0.258353	0.787292
H84	H	0.952997	-0.303292	0.751856
H85	H	1.028771	-0.472814	0.921631
O86	O	1.103183	-0.220136	0.785920
H87	H	1.145236	-0.245503	0.749038
H88	H	1.095358	-0.236521	0.920159
O89	O	0.929624	-0.910917	0.318266
H90	H	0.930246	-0.972404	0.318407
H91	H	0.527217	-0.266169	0.265807
H92	H	1.164879	-0.903862	0.265672
H93	H	1.106740	-0.903838	0.481620
