data_functionalizedCrystal
_audit_creation_method	'MofGen! by Chris Wilmer'
_symmetry_space_group_name_H-M	'P1'
_symmetry_Int_Tables_number	1
_symmetry_cell_setting	triclinic
loop_
_symmetry_equiv_pos_as_xyz
  x,y,z
_cell_length_a	14.853566
_cell_length_b	23.532357
_cell_length_c	13.930277
_cell_angle_alpha	89.989902
_cell_angle_beta	89.995631
_cell_angle_gamma	83.231353
loop_
_atom_site_label
_atom_site_type_symbol
_atom_site_fract_x
_atom_site_fract_y
_atom_site_fract_z
O1	O	1.195535	0.074351	-0.079780
O2	O	1.695535	0.574351	0.420220
O3	O	0.932976	0.083209	-0.079797
O4	O	1.432976	0.583209	0.420203
O5	O	1.072196	-0.004119	-0.079768
O6	O	1.572196	0.495881	0.420232
O7	O	1.056314	0.161679	-0.079808
O8	O	1.556314	0.661679	0.420192
O9	O	1.072177	-0.004121	0.079894
O10	O	1.572177	0.495879	0.579894
O11	O	0.932957	0.083207	0.079865
O12	O	1.432957	0.583207	0.579865
O13	O	1.195516	0.074349	0.079882
O14	O	1.695516	0.574349	0.579882
Zn15	Zn	1.064233	0.078778	0.105223
Zn16	Zn	1.564233	0.578778	0.605223
Zn17	Zn	1.064258	0.078780	-0.105138
Zn18	Zn	1.564258	0.578780	0.394862
O19	O	1.056295	0.161677	0.079853
O20	O	1.556295	0.661677	0.579853
C21	C	0.899382	0.082807	0.000032
C22	C	1.399382	0.582807	0.500032
C23	C	0.799312	0.081605	0.000026
C24	C	1.299312	0.581605	0.500026
C25	C	0.376194	0.076520	-0.086987
C26	C	0.876194	0.576520	0.413013
C27	C	0.376195	0.076518	0.087082
C28	C	0.876195	0.576518	0.587082
C29	C	0.470216	0.077647	0.087079
C30	C	0.970216	0.577647	0.587079
C31	C	0.517231	0.078214	0.000041
C32	C	1.017231	0.578214	0.500041
C33	C	0.470224	0.077651	-0.086993
C34	C	0.970224	0.577651	0.413007
C35	C	0.517229	0.078216	0.174112
C36	C	1.017229	0.578216	0.674112
C37	C	0.611256	0.079346	0.174112
C38	C	1.111256	0.579346	0.674112
C39	C	0.658273	0.079908	0.087074
C40	C	1.158273	0.579908	0.587074
C41	C	0.611261	0.079345	0.000036
C42	C	1.111261	0.579345	0.500036
C43	C	0.658275	0.079911	-0.087002
C44	C	1.158275	0.579911	0.412998
C45	C	0.611265	0.079343	-0.174041
C46	C	1.111265	0.579343	0.325959
C47	C	0.517241	0.078213	-0.174032
C48	C	1.017241	0.578213	0.325968
C49	C	0.752297	0.081038	0.087064
C50	C	1.252297	0.581038	0.587064
C51	C	0.752305	0.081042	-0.087008
C52	C	1.252305	0.581042	0.412992
C53	C	1.071789	-0.025338	0.000066
C54	C	1.571789	0.474662	0.500066
C55	C	1.070595	-0.088562	0.000075
C56	C	1.570595	0.411438	0.500075
C57	C	1.063107	-0.480605	-0.087009
C58	C	1.563107	0.019395	0.412991
C59	C	1.061972	-0.540009	-0.087015
C60	C	1.561972	-0.040009	0.412985
O61	O	1.061363	-0.570728	-0.161032
O62	O	1.561363	-0.070728	0.338968
N63	N	1.061398	-0.569724	0.000016
N64	N	1.561398	-0.069724	0.500016
C65	C	1.061951	-0.540031	0.087057
C66	C	1.561951	-0.040031	0.587057
O67	O	1.061358	-0.570760	0.161083
O68	O	1.561358	-0.070760	0.661083
C69	C	1.063080	-0.480627	0.087062
C70	C	1.563080	0.019373	0.587062
C71	C	1.063663	-0.450916	0.000026
C72	C	1.563663	0.049084	0.500026
C73	C	1.063689	-0.450894	-0.174038
C74	C	1.563689	0.049106	0.325962
C75	C	1.064826	-0.391494	-0.174032
C76	C	1.564826	0.108506	0.325968
C77	C	1.065381	-0.361805	-0.086997
C78	C	1.565381	0.138195	0.413003
C79	C	1.064800	-0.391516	0.000032
C80	C	1.564800	0.108484	0.500032
C81	C	1.063626	-0.450934	0.174103
C82	C	1.563626	0.049066	0.674103
C83	C	1.064755	-0.391526	0.174100
C84	C	1.564755	0.108474	0.674100
C85	C	1.065337	-0.361815	0.087064
C86	C	1.565337	0.138185	0.587064
C87	C	1.066492	-0.302426	0.087073
C88	C	1.566492	0.197574	0.587073
N89	N	1.067066	-0.272712	0.000042
N90	N	1.567066	0.227288	0.500042
C91	C	1.066510	-0.302401	-0.086993
C92	C	1.566510	0.197599	0.413007
C93	C	1.059579	-0.664782	0.087041
C94	C	1.559579	-0.164782	0.587041
C95	C	1.058457	-0.724186	0.087038
C96	C	1.558457	-0.224186	0.587038
C97	C	1.058476	-0.724160	-0.087035
C98	C	1.558476	-0.224160	0.412965
C99	C	1.059605	-0.664757	-0.087030
C100	C	1.559605	-0.164757	0.412970
C101	C	1.060152	-0.635068	0.000011
C102	C	1.560152	-0.135068	0.500011
C103	C	1.068899	-0.177656	-0.086974
C104	C	1.568899	0.322344	0.413026
C105	C	1.070040	-0.118251	-0.086960
C106	C	1.570040	0.381749	0.413040
C107	C	1.070016	-0.118281	0.087112
C108	C	1.570016	0.381719	0.587112
C109	C	1.068880	-0.177682	0.087099
C110	C	1.568880	0.322318	0.587099
C111	C	1.068318	-0.207367	0.000048
C112	C	1.568318	0.292633	0.500048
O113	O	1.067098	-0.271670	0.161052
O114	O	1.567098	0.228330	0.661052
O115	O	1.067091	-0.271663	-0.161006
O116	O	1.567091	0.228337	0.338994
C117	C	1.229109	0.074751	0.000051
C118	C	1.729109	0.574751	0.500051
C119	C	1.329180	0.075954	0.000051
C120	C	1.829180	0.575954	0.500051
C121	C	1.056702	0.182897	0.000017
C122	C	1.556702	0.682897	0.500017
C123	C	1.057896	0.246120	0.000002
C124	C	1.557896	0.746120	0.500002
N125	N	1.064222	0.078776	0.248789
N126	N	1.564222	0.578776	0.748789
N127	N	1.064276	0.078778	-0.248704
N128	N	1.564276	0.578778	0.251296
C129	C	1.002609	0.117434	0.701046
C130	C	1.502609	0.617434	1.201046
C131	C	1.125932	0.040122	0.701041
C132	C	1.625932	0.540122	1.201041
C133	C	1.125922	0.040120	0.600545
C134	C	1.625922	0.540120	1.100545
C135	C	1.064255	0.078777	0.550295
C136	C	1.564255	0.578777	1.050295
C137	C	1.002598	0.117435	0.600541
C138	C	1.502598	0.617435	1.100541
C139	C	1.187583	0.001467	0.550292
C140	C	1.687583	0.501467	1.050292
C141	C	1.187575	0.001464	0.449790
C142	C	1.687575	0.501464	0.949790
C143	C	1.125903	0.040118	0.399538
C144	C	1.625903	0.540118	0.899538
C145	C	1.064244	0.078777	0.449790
C146	C	1.564244	0.578777	0.949790
C147	C	1.002577	0.117433	0.399540
C148	C	1.502577	0.617433	0.899540
C149	C	0.940913	0.156090	0.449790
C150	C	1.440913	0.656090	0.949790
C151	C	0.940927	0.156089	0.550289
C152	C	1.440927	0.656089	1.050289
C153	C	1.125889	0.040120	0.299039
C154	C	1.625889	0.540120	0.799039
C155	C	1.002566	0.117434	0.299035
C156	C	1.502566	0.617434	0.799035
H157	H	0.478942	0.077759	0.244973
H158	H	0.978942	0.577759	0.744973
C159	C	0.934749	0.159974	0.243768
C160	C	1.434749	0.659974	0.743768
N161	N	0.883678	0.192022	0.202142
N162	N	1.383678	0.692022	0.702142
H163	H	1.065187	-0.367355	0.244981
H164	H	1.565187	0.132645	0.744981
H165	H	0.337915	0.076056	-0.157852
H166	H	0.837915	0.576056	0.342148
H167	H	0.890707	0.187567	0.408865
H168	H	1.390707	0.687567	0.908865
H169	H	1.068414	-0.201874	0.157971
H170	H	1.568414	0.298126	0.657971
H171	H	1.176144	0.008652	0.741958
H172	H	1.676144	0.508652	1.241958
C173	C	0.873097	0.198604	0.605572
C174	C	1.373097	0.698604	1.105572
N175	N	0.822008	0.230626	0.647214
N176	N	1.322008	0.730626	1.147214
C177	C	1.060237	-0.632080	-0.182776
C178	C	1.560237	-0.132080	0.317224
N179	N	1.060710	-0.607470	-0.254896
N180	N	1.560710	-0.107470	0.245104
C181	C	1.057825	-0.756862	0.182784
C182	C	1.557825	-0.256862	0.682784
N183	N	1.057342	-0.781471	0.254904
N184	N	1.557342	-0.281471	0.754904
H185	H	1.058020	-0.748344	-0.157903
H186	H	1.558020	-0.248344	0.342097
C187	C	1.255411	-0.041052	0.605573
C188	C	1.755411	0.458948	1.105573
N189	N	1.306500	-0.073080	0.647215
N190	N	1.806500	0.426920	1.147215
C191	C	0.465523	0.077592	-0.269766
C192	C	0.965523	0.577592	0.230234
N193	N	0.426564	0.077127	-0.341872
N194	N	0.926564	0.577127	0.158128
C195	C	1.255399	-0.041063	0.394524
C196	C	1.755399	0.458937	0.894524
N197	N	1.306482	-0.073097	0.352897
N198	N	1.806482	0.426903	0.852897
C199	C	0.934775	0.159951	0.756321
C200	C	1.434775	0.659951	1.256321
N201	N	0.883681	0.191974	0.797956
N202	N	1.383681	0.691974	1.297956
H203	H	0.790578	0.081501	-0.157886
H204	H	1.290578	0.581501	0.342114
C205	C	0.662993	0.079967	-0.269780
C206	C	1.162993	0.579967	0.230220
N207	N	0.701959	0.080435	-0.341888
N208	N	1.201959	0.580435	0.158112
C209	C	1.193716	-0.002400	0.243769
C210	C	1.693716	0.497600	0.743769
N211	N	1.244805	-0.034429	0.202140
N212	N	1.744805	0.465571	0.702140
H213	H	0.337909	0.076061	0.157944
H214	H	0.837909	0.576061	0.657944
H215	H	0.649523	0.079807	0.244985
H216	H	1.149523	0.579807	0.744985
H217	H	0.790567	0.081506	0.157930
H218	H	1.290567	0.581506	0.657930
H219	H	1.065297	-0.367308	-0.244906
H220	H	1.565297	0.132692	0.255094
H221	H	1.070516	-0.094063	-0.157838
H222	H	1.570516	0.405937	0.342162
C223	C	1.063117	-0.483546	-0.269792
C224	C	1.563117	0.016454	0.230208
N225	N	1.062706	-0.508137	-0.341920
N226	N	1.562706	-0.008137	0.158080
C227	C	1.060196	-0.632131	0.182800
C228	C	1.560196	-0.132131	0.682800
N229	N	1.060661	-0.607541	0.254925
N230	N	1.560661	-0.107541	0.754925
C231	C	1.068297	-0.210303	-0.182734
C232	C	1.568297	0.289697	0.317266
N233	N	1.067853	-0.234893	-0.254860
N234	N	1.567853	0.265107	0.245140
H235	H	1.070472	-0.094098	0.157973
H236	H	1.570472	0.405902	0.657973
C237	C	1.062974	-0.483601	0.269851
C238	C	1.562974	0.016399	0.769851
N239	N	1.062477	-0.508205	0.341975
N240	N	1.562477	-0.008205	0.841975
