data_functionalizedCrystal
_audit_creation_method	'MofGen! by Chris Wilmer'
_symmetry_space_group_name_H-M	'P1'
_symmetry_Int_Tables_number	1
_symmetry_cell_setting	triclinic
loop_
_symmetry_equiv_pos_as_xyz
  x,y,z
_cell_length_a	14.908558
_cell_length_b	14.908178
_cell_length_c	14.908308
_cell_angle_alpha	90.221621
_cell_angle_beta	89.824401
_cell_angle_gamma	89.819838
loop_
_atom_site_label
_atom_site_type_symbol
_atom_site_fract_x
_atom_site_fract_y
_atom_site_fract_z
Zn1	Zn	1.319972	-0.467750	0.559094
Zn2	Zn	1.320876	-0.609515	0.400104
Zn3	Zn	1.179219	-0.450532	0.401141
Zn4	Zn	1.161961	-0.608447	0.541822
O5	O	1.245507	-0.534061	0.475540
O6	O	1.445503	-0.494207	0.544798
O7	O	1.309686	-0.581666	0.274828
O8	O	1.204734	-0.327399	0.429757
O9	O	1.446168	-0.598361	0.427989
O10	O	1.308144	-0.340049	0.545804
O11	O	1.205611	-0.464863	0.275591
O12	O	1.051518	-0.463828	0.413009
O13	O	1.175321	-0.596542	0.669526
O14	O	1.038839	-0.579847	0.516366
O15	O	1.291410	-0.493172	0.682216
O16	O	1.292952	-0.734790	0.411240
O17	O	1.176198	-0.734006	0.515360
C18	C	1.012660	-0.519854	0.462926
C19	C	0.913045	-0.513799	0.457550
C20	C	0.779215	-0.444781	0.396258
C21	C	0.872813	-0.450466	0.401307
C22	C	0.859671	-0.571451	0.508750
C23	C	0.766073	-0.565766	0.503702
C24	C	0.725849	-0.502430	0.447453
C25	C	0.632249	-0.496750	0.442401
C26	C	0.619109	-0.617731	0.549848
C27	C	0.712707	-0.623415	0.554897
C28	C	1.232823	-0.766920	0.461334
C29	C	1.227478	-0.866544	0.455291
C30	C	1.325019	-1.066772	0.564894
C31	C	1.319999	-1.160379	0.559219
C32	C	1.212413	-1.147365	0.438272
C33	C	1.217433	-1.053759	0.443947
C34	C	1.273739	-1.013466	0.507259
C35	C	1.278763	-0.919858	0.512929
C36	C	1.171173	-0.906846	0.391986
C37	C	1.166153	-1.000452	0.386312
C38	C	1.479263	-0.548324	0.488204
C39	C	1.578876	-0.554402	0.493601
C40	C	1.231340	-0.546659	0.709299
C41	C	1.225302	-0.552027	0.808913
C42	C	1.258263	-0.300296	0.489823
C43	C	1.263699	-0.200679	0.495909
C44	C	1.259674	-0.521451	0.242698
C45	C	1.265899	-0.515840	0.143109
C46	C	1.334840	-0.454455	1.009315
C47	C	1.329171	-0.459496	1.102911
C48	C	1.208290	-0.567145	1.089704
C49	C	1.213960	-0.562104	0.996108
C50	C	1.277238	-0.505758	0.955916
C51	C	1.282911	-0.500722	0.862318
C52	C	1.162027	-0.608366	0.849113
C53	C	1.156357	-0.613407	0.942709
H54	H	0.746464	-0.393212	0.350457
H55	H	0.745471	-0.674979	0.600695
C56	C	1.087571	-0.674603	0.986181
C57	C	1.038326	-0.718439	0.919380
C58	C	0.974946	-0.774814	0.959390
H59	H	1.117412	-0.717780	1.022159
H60	H	1.048128	-0.639923	1.022648
H61	H	1.077764	-0.753117	0.882929
H62	H	1.008467	-0.675284	0.883398
H63	H	0.935503	-0.740134	0.995856
H64	H	1.004795	-0.817986	0.995367
H65	H	0.941521	-0.804557	0.914072
C66	C	1.351471	-0.439476	0.818562
C67	C	1.307109	-0.376061	0.765572
C68	C	1.370235	-0.319629	0.725244
H69	H	1.384992	-0.409552	0.863677
H70	H	1.390858	-0.474140	0.782019
H71	H	1.267737	-0.341401	0.802112
H72	H	1.273592	-0.405959	0.720441
H73	H	1.409622	-0.354292	0.688702
H74	H	1.403753	-0.289711	0.770366
H75	H	1.340145	-0.276600	0.689280
H76	H	1.361752	-1.203778	0.606156
C77	C	1.151377	-1.191291	0.369565
C78	C	1.157976	-1.284677	0.376921
C79	C	1.101773	-1.325171	0.313632
H80	H	1.091137	-1.173137	0.380219
H81	H	1.169029	-1.173577	0.310981
H82	H	1.140318	-1.302384	0.435491
H83	H	1.218202	-1.302857	0.366258
H84	H	1.119425	-1.307457	0.255048
H85	H	1.041538	-1.307010	0.324292
H86	H	1.106249	-1.388537	0.318609
C87	C	1.099531	-0.663968	0.790982
C88	C	1.118025	-0.647482	0.700411
C89	C	1.060469	-0.698679	0.646835
H90	H	1.108384	-0.725838	0.803245
H91	H	1.039084	-0.647995	0.803806
H92	H	1.178457	-0.663461	0.687592
H93	H	1.109166	-0.585623	0.688120
H94	H	1.000023	-0.682707	0.659659
H95	H	1.069327	-0.760546	0.659106
H96	H	1.073003	-0.687495	0.585377
H97	H	0.599500	-0.445178	0.396601
H98	H	0.916261	-0.403519	0.359622
H99	H	1.120309	-1.033272	0.334767
H100	H	1.129420	-0.863432	0.345053
H101	H	1.386368	-0.408580	0.976591
C102	C	0.561012	-0.680216	0.605400
C103	C	0.470432	-0.661673	0.588957
C104	C	0.416888	-0.719209	0.640119
H105	H	0.573770	-0.740667	0.589390
H106	H	0.573369	-0.671360	0.667278
H107	H	0.458081	-0.670536	0.527093
H108	H	0.457647	-0.601233	0.604972
H109	H	0.429245	-0.710353	0.701997
H110	H	0.429653	-0.779655	0.624105
H111	H	0.355424	-0.706629	0.628976
C112	C	0.903184	-0.640232	0.569911
C113	C	0.836417	-0.689491	0.613687
C114	C	0.876467	-0.752850	0.670047
H115	H	0.939652	-0.679680	0.535256
H116	H	0.939166	-0.610344	0.613117
H117	H	0.800450	-0.719378	0.570487
H118	H	0.799945	-0.650067	0.648359
H119	H	0.912449	-0.722962	0.713253
H120	H	0.912934	-0.792291	0.635385
H121	H	0.831172	-0.786274	0.699762
H122	H	1.324613	-0.887052	0.564478
H123	H	1.370872	-1.033966	0.616439
H124	H	1.376075	-0.417717	1.146385
C125	C	1.139668	-0.628280	1.133519
C126	C	1.147043	-0.621717	1.226916
C127	C	1.083845	-0.678024	1.267308
H128	H	1.081056	-0.610716	1.115817
H129	H	1.150422	-0.688501	1.115277
H130	H	1.136283	-0.561510	1.245151
H131	H	1.205641	-0.639288	1.244645
H132	H	1.094598	-0.738245	1.249066
H133	H	1.025238	-0.660456	1.249598
H134	H	1.088846	-0.673585	1.330681
