data_functionalizedCrystal
_audit_creation_method	'MofGen! by Chris Wilmer'
_symmetry_space_group_name_H-M	'P1'
_symmetry_Int_Tables_number	1
_symmetry_cell_setting	triclinic
loop_
_symmetry_equiv_pos_as_xyz
  x,y,z
_cell_length_a	10.540539
_cell_length_b	27.732048
_cell_length_c	9.616153
_cell_angle_alpha	89.992780
_cell_angle_beta	89.995174
_cell_angle_gamma	83.584073
loop_
_atom_site_label
_atom_site_type_symbol
_atom_site_fract_x
_atom_site_fract_y
_atom_site_fract_z
O1	O	1.682934	0.068112	-0.115597
O2	O	1.313243	0.074530	-0.115616
O3	O	1.509570	0.000996	-0.115579
O4	O	1.486607	0.141645	-0.115634
O5	O	1.509544	0.000998	0.115712
O6	O	1.313216	0.074531	0.115676
O7	O	1.682908	0.068113	0.115694
Zn8	Zn	1.498058	0.071323	0.152407
Zn9	Zn	1.498093	0.071320	-0.152329
O10	O	1.486580	0.141647	0.115658
C11	C	1.265947	0.074049	0.000028
C12	C	1.125062	0.072609	0.000022
C13	C	0.944031	0.017434	0.000583
C14	C	1.090586	0.018894	0.000047
C15	C	1.062282	0.098458	-0.132062
C16	C	0.915817	0.096625	-0.132157
C17	C	0.915251	0.097720	0.130864
C18	C	1.062211	0.098214	0.132595
C19	C	1.509075	-0.017013	0.000070
C20	C	1.507623	-0.070677	0.000081
C21	C	1.614502	-0.408819	0.000015
C22	C	1.609117	-0.610513	-0.000004
O23	O	1.706850	-0.641153	-0.000060
N24	N	1.492703	-0.630369	-0.000009
C25	C	1.377627	-0.599799	-0.000018
O26	O	1.278486	-0.621317	-0.000036
C27	C	1.383013	-0.398107	-0.000008
C28	C	1.499435	-0.378253	0.000011
C29	C	1.730915	-0.388965	0.000033
C30	C	1.732260	-0.338544	0.000045
C31	C	1.617193	-0.307978	0.000040
C32	C	1.500780	-0.327832	0.000023
C33	C	1.267939	-0.367538	-0.000027
C34	C	1.269296	-0.317112	-0.000028
C35	C	1.385718	-0.297258	-0.000009
C36	C	1.387058	-0.246846	0.000031
N37	N	1.503472	-0.226989	0.000036
C38	C	1.618540	-0.257555	0.000040
C39	C	1.374807	-0.705691	-0.000020
C40	C	1.373460	-0.756114	-0.000020
C41	C	1.604950	-0.766824	-0.000009
C42	C	1.606296	-0.716400	0.000001
C43	C	1.491221	-0.685834	-0.000015
C44	C	1.621356	-0.151668	0.000068
C45	C	1.622691	-0.101243	0.000086
C46	C	1.391201	-0.090538	0.000068
C47	C	1.389865	-0.140959	0.000057
C48	C	1.504953	-0.171523	0.000052
O49	O	1.289377	-0.216177	0.000071
O50	O	1.717666	-0.236029	0.000028
C51	C	1.613157	-0.459239	0.000003
C52	C	1.496745	-0.479094	-0.000014
C53	C	1.381678	-0.448528	-0.000019
C54	C	1.495398	-0.529517	-0.000014
C55	C	1.610465	-0.560083	-0.000009
C56	C	1.726879	-0.540226	-0.000005
C57	C	1.728224	-0.489806	0.000008
C58	C	1.265264	-0.468384	-0.000023
C59	C	1.263928	-0.518805	-0.000034
C60	C	1.378995	-0.549371	-0.000030
C61	C	1.730203	0.068594	0.000048
C62	C	1.871089	0.070034	0.000044
C63	C	1.487075	0.159656	0.000005
C64	C	1.488527	0.213320	-0.000015
N65	N	1.498043	0.071324	0.360382
N66	N	1.498118	0.071316	-0.360303
C67	C	1.392711	0.110527	0.580733
C68	C	1.392932	0.110674	0.419565
C69	C	1.630268	0.082797	0.418833
C70	C	1.629691	0.083074	0.580051
C71	C	1.472477	0.020519	0.580311
C72	C	1.469416	0.020848	0.419084
H73	H	0.916356	-0.003786	0.095309
H74	H	1.378214	0.009599	0.621048
H75	H	1.408751	0.148000	0.621218
H76	H	1.698643	-0.791720	-0.000005
H77	H	1.710529	0.055017	0.380494
H78	H	1.105661	0.080501	-0.230347
H79	H	1.133231	-0.001590	-0.094785
C80	C	1.660394	0.133144	0.630816
N81	N	1.683510	0.170858	0.669046
C82	C	1.860334	-0.316712	0.000051
N83	N	1.956806	-0.300272	0.000049
C84	C	1.661748	0.132301	0.364270
N85	N	1.685449	0.169590	0.323180
C86	C	0.848744	0.148813	-0.140305
N87	N	0.798231	0.188120	-0.146457
C88	C	1.738794	0.046004	0.632745
N89	N	1.820983	0.018089	0.672429
H90	H	0.914752	-0.003698	-0.093599
H91	H	1.175585	-0.292227	-0.000043
H92	H	1.409195	0.148361	0.380972
H93	H	1.082922	0.137906	-0.136991
H94	H	0.888448	0.077519	-0.230876
C95	C	1.261796	-0.162798	0.000046
N96	N	1.165332	-0.179245	0.000022
H97	H	0.866339	0.136518	0.131741
C98	C	0.873651	0.074232	0.266120
N99	N	0.842321	0.056536	0.367988
C100	C	1.260103	0.101357	0.366176
N101	N	1.160048	0.094342	0.325971
C102	C	1.338016	0.009100	0.367486
N103	N	1.239043	0.000254	0.328616
C104	C	1.750769	-0.079407	0.000103
N105	N	1.847235	-0.062963	0.000111
H106	H	1.715071	-0.176549	0.000059
C107	C	1.566509	-0.020465	0.364698
N108	N	1.639657	-0.051581	0.323746
H109	H	1.281093	-0.680808	-0.000033
H110	H	1.103982	0.079331	0.230310
C111	C	1.857509	-0.422580	0.000053
N112	N	1.952869	-0.447897	0.000083
C113	C	1.092661	0.151119	0.143366
N114	N	1.115604	0.190967	0.151475
H115	H	1.169116	-0.534965	-0.000037
C116	C	1.853453	-0.573858	-0.000002
N117	N	1.948783	-0.599193	-0.000009
H118	H	1.701097	-0.700239	0.000015
H119	H	1.278658	-0.772274	-0.000011
C120	C	1.264633	-0.056906	0.000053
N121	N	1.169302	-0.031572	0.000028
H122	H	1.549356	-0.008666	0.618442
H123	H	1.173136	-0.383693	-0.000050
H124	H	1.823027	-0.473646	0.000022
H125	H	1.294081	0.103730	0.619542
C126	C	1.149338	-0.008588	0.127954
N127	N	1.193586	-0.029291	0.224294
C128	C	1.138673	-0.434768	-0.000031
N129	N	1.043316	-0.409449	-0.000031
