data_functionalizedCrystal
_audit_creation_method	'MofGen! by Chris Wilmer'
_symmetry_space_group_name_H-M	'P1'
_symmetry_Int_Tables_number	1
_symmetry_cell_setting	triclinic
loop_
_symmetry_equiv_pos_as_xyz
  x,y,z
_cell_length_a	17.699077
_cell_length_b	13.262508
_cell_length_c	16.176319
_cell_angle_alpha	105.911538
_cell_angle_beta	89.993140
_cell_angle_gamma	83.880229
loop_
_atom_site_label
_atom_site_type_symbol
_atom_site_fract_x
_atom_site_fract_y
_atom_site_fract_z
O1	O	1.004673	0.132697	-0.038897
O2	O	0.784371	0.149971	-0.035017
O3	O	0.900067	-0.011467	-0.071311
O4	O	0.888976	0.294135	-0.002603
O5	O	0.900051	-0.011477	0.066180
O6	O	0.784354	0.149961	0.102474
O7	O	1.004657	0.132686	0.098594
Cu8	Cu	0.894504	0.141323	0.113088
Cu9	Cu	0.894523	0.141335	-0.049511
O10	O	0.888960	0.294124	0.134888
C11	C	0.756163	0.149348	0.033589
C12	C	0.672136	0.147494	0.033171
C13	C	0.632656	0.146615	0.107922
C14	C	0.553706	0.144857	0.107527
C15	C	0.514236	0.143985	0.032383
C16	C	0.553722	0.144861	-0.042374
C17	C	0.632672	0.146612	-0.041981
C18	C	0.235327	0.137798	-0.043964
C19	C	0.156372	0.136050	-0.044351
C20	C	0.156361	0.136043	0.105544
C21	C	0.235311	0.137794	0.105938
C22	C	0.274790	0.138664	0.031180
C23	C	0.360398	0.140569	0.031608
C24	C	0.428630	0.142087	0.031956
C25	C	0.899439	-0.050573	-0.011358
C26	C	0.897581	-0.167082	-0.037558
C27	C	0.892307	-0.495536	0.188384
C28	C	0.894046	-0.386069	0.213001
C29	C	0.894930	-0.331317	0.150364
C30	C	0.894075	-0.386043	0.063105
C31	C	0.892329	-0.495519	0.038486
C32	C	0.894953	-0.331300	0.000465
C33	C	0.894097	-0.386025	-0.086794
C34	C	0.892352	-0.495491	-0.111409
C35	C	0.891468	-0.550243	-0.048771
C36	C	0.896698	-0.221823	0.025084
C37	C	0.896720	-0.221806	-0.124814
C38	C	0.894981	-0.331273	-0.149431
C39	C	1.032864	0.133309	0.029986
C40	C	1.116891	0.135163	0.030399
C41	C	0.889588	0.333231	0.074933
C42	C	0.891446	0.449739	0.101128
N43	N	0.894496	0.141314	0.227451
N44	N	0.894537	0.141336	-0.163876
C45	C	0.945742	0.069858	0.254651
C46	C	0.945746	0.069857	0.341198
C47	C	0.894507	0.141317	0.400545
C48	C	0.843255	0.212776	0.373340
C49	C	0.843248	0.212771	0.286793
C50	C	0.843281	0.212796	0.722372
C51	C	0.843294	0.212797	0.808924
C52	C	0.945779	0.069881	0.776777
C53	C	0.945772	0.069876	0.690231
C54	C	0.894518	0.141331	0.663032
C55	C	0.894514	0.141330	0.569188
C56	C	0.894515	0.141324	0.494389
H57	H	0.664815	0.147330	-0.102850
H58	H	0.801518	0.270957	0.264649
H59	H	0.894284	-0.375846	-0.220479
H60	H	0.664786	0.147334	0.169115
H61	H	0.521580	0.144143	-0.103560
C62	C	0.741984	0.354073	0.762856
C63	C	0.786950	0.291346	0.692485
H64	H	0.707210	0.402573	0.744402
H65	H	0.714631	0.310433	0.786810
H66	H	0.773618	0.391767	0.805076
H67	H	0.755316	0.253646	0.650267
H68	H	0.814305	0.334992	0.668518
H69	H	0.890056	-0.639381	-0.068810
C70	C	0.797764	0.276252	0.520284
C71	C	0.786933	0.291330	0.438573
H72	H	0.762995	0.324756	0.560555
H73	H	0.789326	0.206229	0.518731
H74	H	0.848313	0.287563	0.536987
H75	H	0.736385	0.280011	0.421867
H76	H	0.795364	0.361370	0.440124
C77	C	0.896562	-0.232783	-0.275462
C78	C	0.897692	-0.161635	-0.193675
H79	H	0.897155	-0.195627	-0.317967
H80	H	0.939961	-0.283595	-0.283771
H81	H	0.851795	-0.267365	-0.280116
H82	H	0.942462	-0.127058	-0.189018
H83	H	0.854288	-0.110804	-0.185363
C84	C	0.897419	-0.174519	0.267237
C85	C	0.896851	-0.210991	0.177421
H86	H	0.898612	-0.100233	0.283941
H87	H	0.852937	-0.191164	0.291161
H88	H	0.941103	-0.207416	0.287518
H89	H	0.853163	-0.178100	0.157140
H90	H	0.941337	-0.194336	0.153487
H91	H	0.897388	-0.177275	0.096131
C92	C	0.035350	0.133374	-0.111509
C93	C	0.112984	0.135086	-0.126957
H94	H	0.008565	0.132787	-0.162502
H95	H	0.027996	0.071913	-0.094532
H96	H	0.016837	0.194274	-0.067023
H97	H	0.131499	0.074182	-0.171438
H98	H	0.120343	0.196554	-0.143945
H99	H	0.267462	0.138503	-0.104837
H100	H	0.521566	0.144123	0.168393
C101	C	1.047043	-0.071420	0.231575
C102	C	1.002066	-0.008697	0.189420
H103	H	1.081811	-0.119923	0.191302
H104	H	1.074404	-0.027777	0.275129
H105	H	1.015416	-0.109110	0.256870
H106	H	1.033692	0.029000	0.164130
H107	H	0.974703	-0.052345	0.145850
C108	C	0.893874	-0.397096	0.358690
C109	C	0.895008	-0.325923	0.308910
H110	H	0.894478	-0.359962	0.417903
H111	H	0.849110	-0.431666	0.347808
H112	H	0.937276	-0.447918	0.344129
H113	H	0.851603	-0.275104	0.323467
H114	H	0.939777	-0.291335	0.319798
H115	H	0.987474	0.011672	0.363342
H116	H	0.891581	-0.540124	0.239375
H117	H	0.124208	0.135329	0.166415
C118	C	0.227370	0.137598	0.254066
C119	C	0.278696	0.138747	0.188538
H120	H	0.254155	0.138176	0.305058
H121	H	0.190997	0.198093	0.264554
H122	H	0.202158	0.075731	0.237031
H123	H	0.303904	0.200617	0.205570
H124	H	0.315082	0.078245	0.178050
H125	H	0.891649	-0.540044	-0.182460
H126	H	0.987511	0.011695	0.798930
C127	C	1.047073	-0.071404	0.667147
C128	C	1.002093	-0.008678	0.624996
H129	H	1.081838	-0.119907	0.626871
H130	H	1.074436	-0.027763	0.710700
H131	H	1.015447	-0.109095	0.692443
H132	H	1.033719	0.029019	0.599705
H133	H	0.974728	-0.052324	0.581428
H134	H	0.801566	0.270991	0.857245
