data_functionalizedCrystal
_audit_creation_method	'MofGen! by Chris Wilmer'
_symmetry_space_group_name_H-M	'P1'
_symmetry_Int_Tables_number	1
_symmetry_cell_setting	triclinic
loop_
_symmetry_equiv_pos_as_xyz
  x,y,z
_cell_length_a	21.395362
_cell_length_b	12.645331
_cell_length_c	21.395355
_cell_angle_alpha	90.028442
_cell_angle_beta	89.979451
_cell_angle_gamma	89.975955
loop_
_atom_site_label
_atom_site_type_symbol
_atom_site_fract_x
_atom_site_fract_y
_atom_site_fract_z
Zn1	Zn	-0.249607	-1.620664	-0.354318
Zn2	Zn	-0.354367	-1.620501	-0.249536
Zn3	Zn	-0.249597	-1.443372	-0.249547
Zn4	Zn	-0.354340	-1.443323	-0.354269
O5	O	-0.301978	-1.531965	-0.301918
O6	O	-0.263519	-1.768989	-0.340434
O7	O	-0.340476	-1.596958	-0.161860
O8	O	-0.161920	-1.466978	-0.263470
O9	O	-0.340486	-1.768870	-0.263451
O10	O	-0.161928	-1.597234	-0.340444
O11	O	-0.263502	-1.466821	-0.161868
O12	O	-0.263476	-1.295018	-0.263423
O13	O	-0.340440	-1.466894	-0.441954
O14	O	-0.340430	-1.294982	-0.340362
O15	O	-0.263493	-1.597186	-0.441989
O16	O	-0.442041	-1.596910	-0.263405
O17	O	-0.442022	-1.466737	-0.340352
C18	C	-0.301949	-1.256535	-0.301889
C19	C	-0.301952	-1.138705	-0.301892
C20	C	-0.253310	-0.971129	-0.253750
C21	C	-0.253441	-1.093688	-0.253543
C22	C	-0.367949	-1.094160	-0.283845
C23	C	-0.367678	-0.971562	-0.283512
C24	C	-0.285208	-0.971566	-0.368251
C25	C	-0.283740	-1.094172	-0.367887
C26	C	-0.464765	-1.531829	-0.301885
C27	C	-0.534407	-1.531868	-0.301893
C28	C	-0.567067	-1.599653	-0.342002
C29	C	-0.632502	-1.599691	-0.342017
C30	C	-0.665275	-1.531954	-0.301912
C31	C	-0.632607	-1.464156	-0.261800
C32	C	-0.567173	-1.464113	-0.261790
C33	C	-0.768975	-1.523702	-0.245473
C34	C	-0.834408	-1.523752	-0.245482
C35	C	-0.867096	-1.532080	-0.301942
C36	C	-0.834343	-1.540379	-0.358396
C37	C	-0.768909	-1.540336	-0.358386
C38	C	-0.736227	-1.531992	-0.301918
C39	C	-0.970708	-1.599909	-0.342071
C40	C	-1.036145	-1.599939	-0.342088
C41	C	-1.036248	-1.464409	-0.261865
C42	C	-0.970813	-1.464374	-0.261855
C43	C	-0.938047	-1.532129	-0.301957
C44	C	-0.138554	-1.532130	-0.301964
C45	C	-0.068913	-1.532200	-0.301983
C46	C	-0.301965	-1.532053	-0.465341
C47	C	-0.301960	-1.532090	-0.534982
C48	C	-0.301994	-0.808470	-0.301937
C49	C	-0.301970	-0.926300	-0.301921
C50	C	-0.261892	-1.599930	-0.567715
C51	C	-0.261865	-1.599929	-0.633150
C52	C	-0.301917	-1.532099	-0.665851
C53	C	-0.341988	-1.464245	-0.633110
C54	C	-0.342009	-1.464241	-0.567676
C55	C	-0.358332	-1.523681	-0.769514
C56	C	-0.358312	-1.523693	-0.834947
C57	C	-0.301851	-1.532105	-0.867672
C58	C	-0.245409	-1.540528	-0.834955
C59	C	-0.245430	-1.540524	-0.769521
C60	C	-0.301898	-1.532095	-0.736803
C61	C	-0.261750	-1.599947	-0.971357
C62	C	-0.261722	-1.599938	-1.036793
C63	C	-0.341851	-1.464260	-1.036752
C64	C	-0.341873	-1.464264	-0.971317
C65	C	-0.301824	-1.532113	-0.938623
C66	C	-0.301945	-1.531938	-0.139130
C67	C	-0.301774	-1.532106	-0.069489
H68	H	-0.264522	-1.122959	-0.204392
H69	H	-0.659099	-1.654881	-0.374686
N70	N	-0.416018	-1.515143	-0.736100
N71	N	-0.432445	-1.587147	-0.699622
H72	H	-0.473187	-1.581131	-0.676028
H73	H	-0.204220	-0.941683	-0.264939
H74	H	-1.062931	-1.409250	-0.229215
H75	H	-0.405160	-0.941906	-0.317067
N76	N	-0.187787	-1.549124	-0.736091
N77	N	-0.179033	-1.624850	-0.699596
H78	H	-0.138322	-1.630921	-0.675984
H79	H	-0.374597	-1.409014	-0.659739
N80	N	-0.187724	-1.549109	-0.868364
N81	N	-0.137337	-1.556622	-0.839146
H82	H	-0.096598	-1.562684	-0.862742
N83	N	-0.324994	-1.132590	-0.415306
N84	N	-0.329504	-1.229750	-0.425083
H85	H	-0.358659	-1.256870	-0.458563
H86	H	-0.374637	-1.408993	-0.541026
N87	N	-0.867870	-1.515264	-0.187825
N88	N	-0.926293	-1.515304	-0.187840
H89	H	-0.949926	-1.509307	-0.147119
H90	H	-0.320651	-0.942576	-0.404143
H91	H	-0.382413	-1.124807	-0.235877
H92	H	-0.374505	-1.409027	-0.944665
H93	H	-0.944219	-1.409181	-0.229191
H94	H	-0.229136	-1.655188	-0.944736
H95	H	-0.742366	-1.516917	-0.199493
H96	H	-0.944029	-1.655076	-0.374727
N97	N	-0.222818	-1.130706	-0.384970
N98	N	-0.215641	-1.184994	-0.433283
H99	H	-0.172614	-1.210799	-0.445348
H100	H	-1.062736	-1.655137	-0.374752
N101	N	-0.533608	-1.668868	-0.382968
N102	N	-0.562782	-1.729386	-0.418778
H103	H	-0.539151	-1.778269	-0.447712
N104	N	-0.735433	-1.548779	-0.416038
N105	N	-0.698863	-1.624448	-0.424858
H106	H	-0.675216	-1.630395	-0.465574
N107	N	-0.415956	-1.515079	-0.868372
N108	N	-0.415931	-1.515084	-0.926795
H109	H	-0.456644	-1.508998	-0.950402
N110	N	-0.192040	-1.131463	-0.267715
N111	N	-0.148790	-1.067282	-0.277828
H112	H	-0.105421	-1.093954	-0.287829
H113	H	-0.237921	-0.940687	-0.384659
N114	N	-0.220783	-1.669238	-1.070221
N115	N	-0.185029	-1.729806	-1.041020
H116	H	-0.156114	-1.778751	-1.064628
H117	H	-0.405176	-1.123318	-0.317831
N118	N	-0.267049	-0.932402	-0.192455
N119	N	-0.312523	-0.871931	-0.184094
H120	H	-0.322229	-0.844578	-0.140805
N121	N	-0.666090	-1.394964	-0.220842
N122	N	-0.724513	-1.395011	-0.220855
H123	H	-0.748161	-1.346138	-0.191929
H124	H	-0.229280	-1.655177	-0.541100
N125	N	-0.385515	-0.935625	-0.222680
N126	N	-0.398076	-1.001088	-0.180766
H127	H	-0.410673	-0.975714	-0.137801
H128	H	-0.540580	-1.408913	-0.229128
N129	N	-0.220926	-1.669228	-0.666585
N130	N	-0.185168	-1.729793	-0.637387
H131	H	-0.156254	-1.778735	-0.660998
H132	H	-0.860956	-1.547162	-0.404372
H133	H	-0.374456	-1.409021	-1.063376
