data_functionalizedCrystal
_audit_creation_method	'MofGen! by Chris Wilmer'
_symmetry_space_group_name_H-M	'P1'
_symmetry_Int_Tables_number	1
_symmetry_cell_setting	triclinic
loop_
_symmetry_equiv_pos_as_xyz
  x,y,z
_cell_length_a	15.944551
_cell_length_b	15.944499
_cell_length_c	16.176319
_cell_angle_alpha	89.996444
_cell_angle_beta	89.997076
_cell_angle_gamma	83.488174
loop_
_atom_site_label
_atom_site_type_symbol
_atom_site_fract_x
_atom_site_fract_y
_atom_site_fract_z
O1	O	1.114507	0.108337	-0.068654
O2	O	1.614507	0.608337	0.431346
O3	O	0.869955	0.121693	-0.068674
O4	O	1.369955	0.621693	0.431326
O5	O	0.998932	-0.007263	-0.068665
O6	O	1.498932	0.492737	0.431335
O7	O	0.985530	0.237293	-0.068663
O8	O	1.485530	0.737293	0.431337
O9	O	0.998914	-0.007271	0.068828
O10	O	1.498914	0.492729	0.568828
O11	O	0.869937	0.121685	0.068819
O12	O	1.369937	0.621685	0.568819
O13	O	1.114490	0.108329	0.068839
O14	O	1.614490	0.608329	0.568839
Cu15	Cu	0.992212	0.115006	0.081383
Cu16	Cu	1.492212	0.615006	0.581383
Cu17	Cu	0.992233	0.115016	-0.081218
Cu18	Cu	1.492233	0.615016	0.418782
O19	O	0.985513	0.237285	0.068830
O20	O	1.485513	0.737285	0.568830
C21	C	0.998375	-0.038562	0.000079
C22	C	1.498375	0.461438	0.500079
C23	C	0.996730	-0.131810	0.000073
C24	C	1.496730	0.368190	0.500073
C25	C	0.838653	0.121135	0.000070
C26	C	1.338653	0.621135	0.500070
C27	C	0.745407	0.119472	0.000062
C28	C	1.245407	0.619472	0.500062
C29	C	1.071662	-0.423346	0.000084
C30	C	1.571662	0.076654	0.500084
C31	C	1.032701	-0.362325	0.067875
C32	C	1.532701	0.137675	0.567875
C33	C	0.990753	-0.467446	0.000082
C34	C	1.490753	0.032554	0.500082
C35	C	1.032697	-0.362323	-0.067683
C36	C	1.532697	0.137677	0.432317
C37	C	0.993694	-0.302538	0.000076
C38	C	1.493694	0.197462	0.500076
C39	C	0.951770	-0.407653	0.067929
C40	C	1.451770	0.092347	0.567929
C41	C	0.951778	-0.407658	-0.067689
C42	C	1.451778	0.092342	0.432311
C43	C	0.912758	-0.346654	0.000119
C44	C	1.412758	0.153346	0.500119
C45	C	0.989062	-0.562446	0.000086
C46	C	1.489062	-0.062446	0.500086
C47	C	0.995379	-0.207539	0.000078
C48	C	1.495379	0.292461	0.500078
C49	C	0.530566	0.035566	0.000077
C50	C	1.030566	0.535566	0.500077
C51	C	0.469547	0.074533	-0.067714
C52	C	0.969547	0.574533	0.432286
C53	C	0.574681	0.116465	0.000072
C54	C	1.074681	0.616465	0.500072
C55	C	0.469552	0.074544	0.067844
C56	C	0.969552	0.574544	0.567844
C57	C	0.409769	0.113554	0.000085
C58	C	0.909769	0.613554	0.500085
C59	C	0.514891	0.155455	-0.067775
C60	C	1.014891	0.655455	0.432225
C61	C	0.514902	0.155454	0.067843
C62	C	1.014902	0.655454	0.567843
C63	C	0.453901	0.194481	0.000035
C64	C	0.953901	0.694481	0.500035
C65	C	0.669683	0.118140	0.000064
C66	C	1.169683	0.618140	0.500064
C67	C	0.314768	0.111886	0.000087
C68	C	0.814768	0.611886	0.500087
C69	C	1.145792	0.108887	0.000093
C70	C	1.645792	0.608887	0.500093
C71	C	1.239038	0.110549	0.000096
C72	C	1.739038	0.610549	0.500096
C73	C	0.986070	0.268583	0.000084
C74	C	1.486070	0.768583	0.500084
C75	C	0.987715	0.361832	0.000085
C76	C	1.487715	0.861832	0.500085
N77	N	0.992203	0.114999	0.195748
N78	N	1.492203	0.614999	0.695748
N79	N	0.992248	0.115017	-0.195584
N80	N	1.492248	0.615017	0.304416
C81	C	1.049331	0.057920	0.239017
C82	C	1.549331	0.557920	0.739017
C83	C	1.049336	0.057919	0.325564
C84	C	1.549336	0.557919	0.825564
C85	C	0.992215	0.115002	0.368841
C86	C	1.492215	0.615002	0.868841
C87	C	0.935081	0.172083	0.325567
C88	C	1.435081	0.672083	0.825567
C89	C	0.935073	0.172079	0.239021
C90	C	1.435073	0.672079	0.739021
C91	C	0.935110	0.172099	0.674595
C92	C	1.435110	0.672099	1.174595
C93	C	0.935123	0.172100	0.761147
C94	C	1.435123	0.672100	1.261147
C95	C	1.049372	0.057939	0.761137
C96	C	1.549372	0.557939	1.261137
C97	C	1.049364	0.057935	0.674592
C98	C	1.549364	0.557935	1.174592
C99	C	0.992228	0.115013	0.631325
C100	C	1.492228	0.615013	1.131325
C101	C	0.992223	0.115012	0.537481
C102	C	1.492223	0.615012	1.037481
C103	C	0.992224	0.115007	0.462684
C104	C	1.492224	0.615007	0.962684
H105	H	1.138808	-0.456676	0.000154
H106	H	1.638808	0.043324	0.500154
H107	H	0.420730	0.261689	-0.000002
H108	H	0.920730	0.761689	0.499998
H109	H	1.095849	0.011441	0.203786
H110	H	1.595849	0.511441	0.703786
C111	C	0.442391	0.028311	-0.145137
C112	C	0.942391	0.528311	0.354863
N113	N	0.421938	-0.006509	-0.203450
N114	N	0.921938	0.493491	0.296550
C115	C	0.821973	-0.301814	0.000169
C116	C	1.321973	0.198186	0.500169
N117	N	0.753596	-0.268037	0.000212
N118	N	1.253596	0.231963	0.500212
H119	H	0.535020	0.189640	0.125159
H120	H	1.035020	0.689640	0.625159
H121	H	1.095894	0.011460	0.796374
H122	H	1.595894	0.511460	1.296374
C123	C	0.575582	-0.055149	-0.000013
C124	C	1.075582	0.444851	0.499987
N125	N	0.609490	-0.123474	-0.000086
N126	N	1.109490	0.376526	0.499914
H127	H	0.534880	0.189649	-0.125150
H128	H	1.034880	0.689649	0.374850
H129	H	0.449465	0.040309	0.125154
H130	H	0.949465	0.540309	0.625154
C131	C	1.078921	-0.335192	0.145310
C132	C	1.578921	0.164808	0.645310
N133	N	1.113738	-0.314761	0.203633
N134	N	1.613738	0.185239	0.703633
H135	H	0.888606	0.218584	0.796382
H136	H	1.388606	0.718584	1.296382
H137	H	0.917570	-0.427638	0.125301
H138	H	1.417570	0.072362	0.625301
C139	C	1.112161	-0.004892	0.373155
C140	C	1.612161	0.495108	0.873155
N141	N	1.159476	-0.052211	0.409000
N142	N	1.659476	0.447789	0.909000
H143	H	1.095880	0.011456	0.639358
H144	H	1.595880	0.511456	1.139358
C145	C	1.078955	-0.335195	-0.145105
C146	C	1.578955	0.164805	0.354895
N147	N	1.113801	-0.314767	-0.203417
N148	N	1.613801	0.185233	0.296583
H149	H	0.888588	0.218575	0.639374
H150	H	1.388588	0.718575	1.139374
C151	C	0.872240	0.234866	0.373175
C152	C	1.372240	0.734866	0.873175
N153	N	0.824906	0.282155	0.409033
N154	N	1.324906	0.782155	0.909033
H155	H	0.917592	-0.427767	-0.125008
H156	H	1.417592	0.072233	0.374992
C157	C	0.872235	0.234876	0.191427
C158	C	1.372235	0.734876	0.691427
N159	N	0.824903	0.282178	0.155580
N160	N	1.324903	0.782178	0.655580
