data_functionalizedCrystal
_audit_creation_method	'MofGen! by Chris Wilmer'
_symmetry_space_group_name_H-M	'P1'
_symmetry_Int_Tables_number	1
_symmetry_cell_setting	triclinic
loop_
_symmetry_equiv_pos_as_xyz
  x,y,z
_cell_length_a	29.839134
_cell_length_b	29.839131
_cell_length_c	29.839125
_cell_angle_alpha	89.982291
_cell_angle_beta	89.978020
_cell_angle_gamma	90.036281
loop_
_atom_site_label
_atom_site_type_symbol
_atom_site_fract_x
_atom_site_fract_y
_atom_site_fract_z
Zn1	Zn	0.686720	-0.178978	-0.254125
Zn2	Zn	1.186720	0.321022	0.245875
Zn3	Zn	0.686652	-0.254090	-0.178995
Zn4	Zn	1.186652	0.245910	0.321005
Zn5	Zn	0.611602	-0.178968	-0.178995
Zn6	Zn	1.111602	0.321032	0.321005
Zn7	Zn	0.611550	-0.254075	-0.254083
Zn8	Zn	1.111550	0.245925	0.245917
O9	O	0.649131	-0.216528	-0.216549
O10	O	1.149131	0.283472	0.283451
O11	O	0.749578	-0.188952	-0.244176
O12	O	1.249578	0.311048	0.255824
O13	O	0.676690	-0.244127	-0.116128
O14	O	1.176690	0.255873	0.383872
O15	O	0.621617	-0.116102	-0.188978
O16	O	1.121617	0.383898	0.311022
O17	O	0.749528	-0.244137	-0.188979
O18	O	1.249528	0.255863	0.311021
O19	O	0.676805	-0.116109	-0.244176
O20	O	1.176805	0.383891	0.255824
O21	O	0.621551	-0.188935	-0.116127
O22	O	1.121551	0.311065	0.383873
O23	O	0.548728	-0.188921	-0.188938
O24	O	1.048728	0.311079	0.311062
O25	O	0.621528	-0.244111	-0.316956
O26	O	1.121528	0.255889	0.183044
O27	O	0.548690	-0.244101	-0.244105
O28	O	1.048690	0.255899	0.255895
O29	O	0.676755	-0.188937	-0.316987
O30	O	1.176755	0.311063	0.183013
O31	O	0.676639	-0.316955	-0.188938
O32	O	1.176639	0.183045	0.311062
O33	O	0.621462	-0.316944	-0.244105
O34	O	1.121462	0.183056	0.255895
C35	C	0.532408	-0.216509	-0.216517
C36	C	1.032408	0.283491	0.283483
C37	C	0.482474	-0.216511	-0.216514
C38	C	0.982474	0.283489	0.283486
C39	C	0.172820	-0.245303	-0.245240
C40	C	0.672820	0.254697	0.254760
C41	C	-0.014853	-0.245315	-0.245260
C42	C	0.485147	0.254685	0.254740
O43	O	-0.039127	-0.269774	-0.269665
O44	O	0.460873	0.230226	0.230335
N45	N	-0.038311	-0.216544	-0.216583
N46	N	0.461689	0.283456	0.283417
C47	C	-0.014848	-0.187766	-0.187902
C48	C	0.485152	0.312234	0.312098
O49	O	-0.039107	-0.163291	-0.163514
O50	O	0.460893	0.336709	0.336486
C51	C	0.172824	-0.187751	-0.187884
C52	C	0.672824	0.312249	0.312116
C53	C	0.196280	-0.216527	-0.216560
C54	C	0.696280	0.283473	0.283440
C55	C	0.196276	-0.274076	-0.273913
C56	C	0.696276	0.225924	0.226087
C57	C	0.243191	-0.274075	-0.273906
C58	C	0.743191	0.225925	0.226094
C59	C	0.266651	-0.245299	-0.245226
C60	C	0.766651	0.254701	0.254774
C61	C	0.243195	-0.216526	-0.216553
C62	C	0.743195	0.283474	0.283447
C63	C	0.196286	-0.158971	-0.159205
C64	C	0.696286	0.341029	0.340795
C65	C	0.243207	-0.158969	-0.159204
C66	C	0.743207	0.341031	0.340796
C67	C	0.266663	-0.187745	-0.187880
C68	C	0.766663	0.312255	0.312120
C69	C	0.313570	-0.187749	-0.187865
C70	C	0.813570	0.312251	0.312135
N71	N	0.337029	-0.216520	-0.216542
N72	N	0.837029	0.283480	0.283458
C73	C	0.313569	-0.245295	-0.245222
C74	C	0.813569	0.254705	0.254778
C75	C	-0.113379	-0.187776	-0.187912
C76	C	0.386621	0.312224	0.312088
C77	C	-0.160297	-0.187780	-0.187916
C78	C	0.339703	0.312220	0.312084
C79	C	-0.160298	-0.245329	-0.245275
C80	C	0.339702	0.254671	0.254725
C81	C	-0.113380	-0.245327	-0.245269
C82	C	0.386620	0.254673	0.254731
C83	C	-0.089921	-0.216547	-0.216589
C84	C	0.410079	0.283453	0.283411
C85	C	0.412095	-0.245290	-0.245205
C86	C	0.912095	0.254710	0.254795
C87	C	0.459014	-0.245287	-0.245194
C88	C	0.959014	0.254713	0.254806
C89	C	0.459012	-0.187736	-0.187837
C90	C	0.959012	0.312264	0.312163
C91	C	0.412096	-0.187740	-0.187846
C92	C	0.912096	0.312260	0.312154
C93	C	0.388639	-0.216519	-0.216534
C94	C	0.888639	0.283481	0.283466
O95	O	0.337873	-0.163299	-0.163477
O96	O	0.837873	0.336701	0.336523
O97	O	0.337836	-0.269759	-0.269613
O98	O	0.837836	0.230241	0.230387
C99	C	0.125905	-0.245304	-0.245247
C100	C	0.625905	0.254696	0.254753
C101	C	0.102449	-0.216531	-0.216574
C102	C	0.602449	0.283469	0.283426
C103	C	0.125909	-0.187755	-0.187893
C104	C	0.625909	0.312245	0.312107
C105	C	0.055531	-0.216535	-0.216577
C106	C	0.555531	0.283465	0.283423
C107	C	0.032071	-0.245310	-0.245258
C108	C	0.532071	0.254690	0.254742
C109	C	0.055529	-0.274082	-0.273934
C110	C	0.555529	0.225918	0.226066
C111	C	0.102445	-0.274080	-0.273927
C112	C	0.602445	0.225920	0.226073
C113	C	0.102451	-0.158984	-0.159217
C114	C	0.602451	0.341016	0.340783
C115	C	0.055535	-0.158989	-0.159226
C116	C	0.555535	0.341011	0.340774
C117	C	0.032075	-0.187764	-0.187906
C118	C	0.532075	0.312236	0.312094
C119	C	0.649050	-0.333250	-0.216527
C120	C	1.149050	0.166750	0.283473
C121	C	0.649056	-0.383185	-0.216533
C122	C	1.149056	0.116815	0.283467
C123	C	0.677914	-0.692821	-0.187866
C124	C	1.177914	-0.192821	0.312134
C125	C	0.677969	-0.880494	-0.187883
C126	C	1.177969	-0.380494	0.312117
O127	O	0.702441	-0.904753	-0.163493
O128	O	1.202441	-0.404753	0.336507
N129	N	0.649224	-0.903970	-0.216583
N130	N	1.149224	-0.403970	0.283417
C131	C	0.620465	-0.880524	-0.245283
C132	C	1.120465	-0.380524	0.254717
O133	O	0.596020	-0.904798	-0.269698
O134	O	1.096020	-0.404798	0.230302
C135	C	0.620412	-0.692852	-0.245268
C136	C	1.120412	-0.192852	0.254732
C137	C	0.649156	-0.669379	-0.216563
C138	C	1.149156	-0.169379	0.283437
C139	C	0.706656	-0.669348	-0.159164
C140	C	1.206656	-0.169348	0.340836
C141	C	0.706640	-0.622433	-0.159158
C142	C	1.206640	-0.122433	0.340842
C143	C	0.677882	-0.598990	-0.187854
C144	C	1.177882	-0.098990	0.312146
C145	C	0.649140	-0.622463	-0.216557
C146	C	1.149140	-0.122463	0.283443
C147	C	0.591656	-0.669407	-0.273969
C148	C	1.091656	-0.169407	0.226031
C149	C	0.591646	-0.622486	-0.273964
C150	C	1.091646	-0.122486	0.226036
C151	C	0.620390	-0.599013	-0.245259
C152	C	1.120390	-0.099013	0.254741
C153	C	0.620367	-0.552106	-0.245248
C154	C	1.120367	-0.052106	0.254752
N155	N	0.649112	-0.528630	-0.216548
N156	N	1.149112	-0.028630	0.283452
C157	C	0.677869	-0.552072	-0.187851
C158	C	1.177869	-0.052072	0.312149
C159	C	0.620494	-0.979055	-0.245289
C160	C	1.120494	-0.479055	0.254711
C161	C	0.620507	-1.025973	-0.245292
C162	C	1.120507	-0.525973	0.254708
C163	C	0.678012	-1.025939	-0.187893
C164	C	1.178012	-0.525939	0.312107
C165	C	0.677996	-0.979021	-0.187887
C166	C	1.177996	-0.479021	0.312113
C167	C	0.649239	-0.955579	-0.216589
C168	C	1.149239	-0.455579	0.283411
C169	C	0.677834	-0.453547	-0.187841
C170	C	1.177834	0.046453	0.312159
C171	C	0.677814	-0.406627	-0.187836
C172	C	1.177814	0.093373	0.312164
C173	C	0.620311	-0.406664	-0.245237
C174	C	1.120311	0.093336	0.254763
C175	C	0.620329	-0.453580	-0.245240
C176	C	1.120329	0.046420	0.254760
C177	C	0.649094	-0.477020	-0.216540
C178	C	1.149094	0.022980	0.283460
O179	O	0.595912	-0.527818	-0.269629
O180	O	1.095912	-0.027818	0.230371
O181	O	0.702318	-0.527791	-0.163447
O182	O	1.202318	-0.027791	0.336553
C183	C	0.677930	-0.739737	-0.187872
C184	C	1.177930	-0.239737	0.312128
C185	C	0.649188	-0.763210	-0.216574
C186	C	1.149188	-0.263210	0.283426
C187	C	0.620430	-0.739767	-0.245271
C188	C	1.120430	-0.239767	0.254729
C189	C	0.649200	-0.810128	-0.216578
C190	C	1.149200	-0.310128	0.283422
C191	C	0.677958	-0.833570	-0.187881
C192	C	1.177958	-0.333570	0.312119
C193	C	0.706703	-0.810094	-0.159181
C194	C	1.206703	-0.310094	0.340819
C195	C	0.706687	-0.763179	-0.159175
C196	C	1.206687	-0.263179	0.340825
C197	C	0.591685	-0.763243	-0.273971
C198	C	1.091685	-0.263243	0.226029
C199	C	0.591703	-0.810158	-0.273974
C200	C	1.091703	-0.310158	0.226026
C201	C	0.620461	-0.833601	-0.245277
C202	C	1.120461	-0.333601	0.254723
C203	C	0.766309	-0.216547	-0.216582
C204	C	1.266309	0.283453	0.283418
C205	C	0.816244	-0.216555	-0.216596
C206	C	1.316244	0.283445	0.283404
C207	C	0.649143	-0.216524	-0.333728
C208	C	1.149143	0.283476	0.166272
C209	C	0.649148	-0.216522	-0.383662
C210	C	1.149148	0.283478	0.116338
C211	C	0.649225	-0.099349	-0.216582
C212	C	1.149225	0.400651	0.283418
C213	C	0.649265	-0.049415	-0.216595
C214	C	1.149265	0.450585	0.283405
C215	C	0.677935	-0.187718	-0.693325
C216	C	1.177935	0.312282	-0.193325
C217	C	0.677957	-0.187680	-0.880998
C218	C	1.177957	0.312320	-0.380998
O219	O	0.702399	-0.163232	-0.905279
O220	O	1.202399	0.336768	-0.405279
N221	N	0.649208	-0.216402	-0.904448
N222	N	1.149208	0.283598	-0.404448
C223	C	0.620449	-0.245133	-0.880976
C224	C	1.120449	0.254867	-0.380976
O225	O	0.595993	-0.269559	-0.905228
O226	O	1.095993	0.230441	-0.405228
C227	C	0.620424	-0.245169	-0.693304
C228	C	1.120424	0.254831	-0.193304
C229	C	0.649179	-0.216448	-0.669857
C230	C	1.149179	0.283552	-0.169857
C231	C	0.706687	-0.158999	-0.669877
C232	C	1.206687	0.341001	-0.169877
C233	C	0.706683	-0.159011	-0.622962
C234	C	1.206683	0.340989	-0.122962
C235	C	0.677927	-0.187741	-0.599494
C236	C	1.177927	0.312259	-0.099494
C237	C	0.649175	-0.216460	-0.622941
C238	C	1.149175	0.283540	-0.122941
C239	C	0.591663	-0.273898	-0.669833
C240	C	1.091663	0.226102	-0.169833
C241	C	0.591659	-0.273903	-0.622912
C242	C	1.091659	0.226097	-0.122912
C243	C	0.620414	-0.245183	-0.599465
C244	C	1.120414	0.254817	-0.099465
C245	C	0.620415	-0.245202	-0.552558
C246	C	1.120415	0.254798	-0.052558
N247	N	0.649164	-0.216480	-0.529108
N248	N	1.149164	0.283520	-0.029108
C249	C	0.677920	-0.187749	-0.552576
C250	C	1.177920	0.312251	-0.052576
C251	C	0.620464	-0.245113	-0.979507
C252	C	1.120464	0.254887	-0.479507
C253	C	0.620471	-0.245105	-1.026425
C254	C	1.120471	0.254895	-0.526425
C255	C	0.677979	-0.187650	-1.026443
C256	C	1.177979	0.312350	-0.526443
C257	C	0.677974	-0.187661	-0.979524
C258	C	1.177974	0.312339	-0.479524
C259	C	0.649214	-0.216391	-0.956057
C260	C	1.149214	0.283609	-0.456057
C261	C	0.677910	-0.187776	-0.454050
C262	C	1.177910	0.312224	0.045950
C263	C	0.677904	-0.187792	-0.407130
C264	C	1.177904	0.312208	0.092870
C265	C	0.620395	-0.245244	-0.407116
C266	C	1.120395	0.254756	0.092884
C267	C	0.620401	-0.245230	-0.454032
C268	C	1.120401	0.254770	0.045968
C269	C	0.649161	-0.216493	-0.477497
C270	C	1.149161	0.283507	0.022503
O271	O	0.595982	-0.269633	-0.528248
O272	O	1.095982	0.230367	-0.028248
O273	O	0.702366	-0.163320	-0.528316
O274	O	1.202366	0.336680	-0.028316
C275	C	0.677939	-0.187706	-0.740240
C276	C	1.177939	0.312294	-0.240240
C277	C	0.649187	-0.216425	-0.763688
C278	C	1.149187	0.283575	-0.263688
C279	C	0.620431	-0.245155	-0.740219
C280	C	1.120431	0.254845	-0.240219
C281	C	0.649194	-0.216417	-0.810605
C282	C	1.149194	0.283583	-0.310605
C283	C	0.677950	-0.187686	-0.834074
C284	C	1.177950	0.312314	-0.334074
C285	C	0.706699	-0.158964	-0.810624
C286	C	1.206699	0.341036	-0.310624
C287	C	0.706695	-0.158976	-0.763708
C288	C	1.206695	0.341024	-0.263708
C289	C	0.591682	-0.273877	-0.763669
C290	C	1.091682	0.226123	-0.263669
C291	C	0.591689	-0.273864	-0.810585
C292	C	1.091689	0.226136	-0.310585
C293	C	0.620445	-0.245133	-0.834053
C294	C	1.120445	0.254867	-0.334053
C295	C	0.649145	-0.216499	-0.099827
C296	C	1.149145	0.283501	0.400173
C297	C	0.649227	-0.216374	-0.049893
C298	C	1.149227	0.283626	0.450107
H299	H	-0.179407	-0.268759	-0.268628
H300	H	0.320593	0.231241	0.231372
C301	C	0.709161	-0.156650	-0.479580
C302	C	1.209161	0.343350	0.020420
C303	C	0.737932	-0.182084	-0.506530
C304	C	1.237932	0.317916	-0.006530
C305	C	0.766724	-0.153429	-0.530059
C306	C	1.266724	0.346571	-0.030059
H307	H	0.726325	-0.139540	-0.458943
H308	H	1.226325	0.360460	0.041057
H309	H	0.692009	-0.137073	-0.497906
H310	H	1.192009	0.362927	0.002094
H311	H	0.755083	-0.201654	-0.488206
H312	H	1.255083	0.298346	0.011794
H313	H	0.720780	-0.199193	-0.527176
H314	H	1.220780	0.300807	-0.027176
H315	H	0.749572	-0.133851	-0.548384
H316	H	1.249572	0.366149	-0.048384
H317	H	0.783885	-0.136320	-0.509419
H318	H	1.283885	0.363680	-0.009419
H319	H	0.786246	-0.170681	-0.548350
H320	H	1.286246	0.329319	-0.048350
C321	C	0.589278	-1.051373	-0.276503
C322	C	1.089278	-0.551373	0.223497
C323	C	0.564102	-1.020796	-0.301641
C324	C	1.064102	-0.520796	0.198359
C325	C	0.535335	-1.044177	-0.330405
C326	C	1.035335	-0.544177	0.169595
H327	H	0.569679	-1.069703	-0.259351
H328	H	1.069679	-0.569703	0.240649
H329	H	0.606444	-1.069642	-0.296124
H330	H	1.106444	-0.569642	0.203876
H331	H	0.546937	-1.002534	-0.282023
H332	H	1.046937	-0.502534	0.217977
H333	H	0.583689	-1.002465	-0.318803
H334	H	1.083689	-0.502465	0.181197
H335	H	0.552501	-1.062446	-0.350025
H336	H	1.052501	-0.562446	0.149975
H337	H	0.515739	-1.062505	-0.313248
H338	H	1.015739	-0.562505	0.186752
H339	H	0.518253	-1.023433	-0.347467
H340	H	1.018253	-0.523433	0.152533
H341	H	0.568292	-0.829266	-0.297349
H342	H	1.068292	-0.329266	0.202651
C343	C	0.737916	-0.127774	-0.597590
C344	C	1.237916	0.372226	-0.097590
C345	C	0.763087	-0.102605	-0.628192
C346	C	1.263087	0.397395	-0.128192
C347	C	0.791859	-0.073818	-0.604840
C348	C	1.291859	0.426182	-0.104840
H349	H	0.757517	-0.144911	-0.579288
H350	H	1.257517	0.355089	-0.079288
H351	H	0.720753	-0.108175	-0.579296
H352	H	1.220753	0.391825	-0.079296
H353	H	0.780248	-0.122202	-0.646478
H354	H	1.280248	0.377798	-0.146478
H355	H	0.743497	-0.085459	-0.646495
H356	H	1.243497	0.414541	-0.146495
H357	H	0.774696	-0.054219	-0.586546
H358	H	1.274696	0.445781	-0.086546
H359	H	0.811457	-0.090959	-0.586538
H360	H	1.311457	0.409041	-0.086538
H361	H	0.808938	-0.056734	-0.625600
H362	H	1.308938	0.443266	-0.125600
C363	C	0.589219	-0.276357	-0.954113
C364	C	1.089219	0.223643	-0.454113
C365	C	0.564054	-0.301513	-0.984697
C366	C	1.064054	0.198487	-0.484697
C367	C	0.535272	-0.330305	-0.961322
C368	C	1.035272	0.169695	-0.461322
H369	H	0.569613	-0.259224	-0.935807
H370	H	1.069613	0.240776	-0.435807
H371	H	0.606373	-0.295964	-0.935821
H372	H	1.106373	0.204036	-0.435821
H373	H	0.546902	-0.281909	-1.002981
H374	H	1.046902	0.218091	-0.502981
H375	H	0.583648	-0.318656	-1.003003
H376	H	1.083648	0.181344	-0.503003
H377	H	0.552426	-0.349912	-0.943031
H378	H	1.052426	0.150088	-0.443031
H379	H	0.515669	-0.313168	-0.943017
H380	H	1.015669	0.186832	-0.443017
H381	H	0.518197	-0.347380	-0.982070
H382	H	1.018197	0.152620	-0.482070
C383	C	0.560432	-0.737737	-0.305054
C384	C	1.060432	-0.237737	0.194946
C385	C	0.531653	-0.710834	-0.279582
C386	C	1.031653	-0.210834	0.220418
C387	C	0.502858	-0.687329	-0.308200
C388	C	1.002858	-0.187329	0.191800
H389	H	0.543274	-0.758389	-0.322156
H390	H	1.043274	-0.258389	0.177844
H391	H	0.577582	-0.719383	-0.324641
H392	H	1.077582	-0.219383	0.175359
H393	H	0.514506	-0.729187	-0.260003
H394	H	1.014506	-0.229187	0.239997
H395	H	0.548799	-0.690173	-0.262481
H396	H	1.048799	-0.190173	0.237519
H397	H	0.520007	-0.668975	-0.327787
H398	H	1.020007	-0.168975	0.172213
H399	H	0.485702	-0.707984	-0.325301
H400	H	0.985702	-0.207984	0.174699
H401	H	0.483331	-0.669069	-0.290922
H402	H	0.983331	-0.169069	0.209078
C403	C	0.560543	-0.305108	-0.836060
C404	C	1.060543	0.194892	-0.336060
C405	C	0.585956	-0.333912	-0.862992
C406	C	1.085956	0.166088	-0.362992
C407	C	0.557280	-0.362702	-0.886459
C408	C	1.057280	0.137298	-0.386459
H409	H	0.540973	-0.287970	-0.854394
H410	H	1.040973	0.212030	-0.354394
H411	H	0.543427	-0.322244	-0.815372
H412	H	1.043427	0.177756	-0.315372
H413	H	0.603065	-0.316778	-0.883678
H414	H	1.103065	0.183222	-0.383678
H415	H	0.605525	-0.351061	-0.844669
H416	H	1.105525	0.148939	-0.344669
H417	H	0.540164	-0.379838	-0.865771
H418	H	1.040164	0.120162	-0.365771
H419	H	0.537711	-0.345560	-0.904791
H420	H	1.037711	0.154440	-0.404791
H421	H	0.574518	-0.382252	-0.904732
H422	H	1.074518	0.117748	-0.404732
H423	H	0.730115	-0.135573	-0.829740
H424	H	1.230115	0.364427	-0.329740
C425	C	0.709141	-0.156557	-0.381755
C426	C	1.209141	0.343443	0.118245
C427	C	0.734315	-0.131385	-0.412353
C428	C	1.234315	0.368615	0.087647
C429	C	0.763088	-0.102604	-0.388996
C430	C	1.263088	0.397396	0.111004
H431	H	0.728741	-0.173698	-0.363455
H432	H	1.228741	0.326302	0.136545
H433	H	0.691980	-0.136959	-0.363459
H434	H	1.191980	0.363041	0.136541
H435	H	0.751475	-0.150981	-0.430642
H436	H	1.251475	0.349019	0.069358
H437	H	0.714726	-0.114235	-0.430654
H438	H	1.214726	0.385765	0.069346
H439	H	0.745927	-0.083006	-0.370700
H440	H	1.245927	0.416994	0.129300
H441	H	0.782686	-0.119749	-0.370697
H442	H	1.282686	0.380251	0.129303
H443	H	0.780169	-0.085519	-0.409753
H444	H	1.280169	0.414481	0.090247
C445	C	0.589140	-0.381126	-0.276376
C446	C	1.089140	0.118874	0.223624
C447	C	0.595292	-0.335014	-0.270234
C448	C	1.095292	0.164986	0.229766
C449	C	0.566592	-0.311473	-0.298919
C450	C	1.066592	0.188527	0.201081
H451	H	0.558942	-0.388789	-0.269802
H452	H	1.058942	0.111211	0.230198
H453	H	0.595703	-0.388769	-0.306579
H454	H	1.095703	0.111231	0.193421
H455	H	0.588726	-0.327374	-0.240038
H456	H	1.088726	0.172626	0.259962
H457	H	0.625484	-0.327338	-0.276811
H458	H	1.125484	0.172662	0.223189
H459	H	0.573155	-0.319117	-0.329121
H460	H	1.073155	0.180883	0.170879
H461	H	0.536395	-0.319140	-0.292342
H462	H	1.036395	0.180860	0.207658
H463	H	0.570765	-0.280184	-0.294758
H464	H	1.070765	0.219816	0.205242
H465	H	0.596925	-0.472692	-0.268615
H466	H	1.096925	0.027308	0.231385
C467	C	0.709255	-1.051315	-0.156689
C468	C	1.209255	-0.551315	0.343311
C469	C	0.734423	-1.020721	-0.131545
C470	C	1.234423	-0.520721	0.368455
C471	C	0.763205	-1.044083	-0.102796
C472	C	1.263205	-0.544083	0.397204
H473	H	0.728857	-1.069595	-0.173853
H474	H	1.228857	-0.569595	0.326147
H475	H	0.692100	-1.069633	-0.137073
H476	H	1.192100	-0.569633	0.362927
H477	H	0.751577	-1.002411	-0.151159
H478	H	1.251577	-0.502411	0.348841
H479	H	0.714832	-1.002441	-0.114372
H480	H	1.214832	-0.502441	0.385628
H481	H	0.746050	-1.062400	-0.083179
H482	H	1.246050	-0.562400	0.416821
H483	H	0.782805	-1.062361	-0.119963
H484	H	1.282805	-0.562361	0.380037
H485	H	0.780283	-1.023328	-0.085729
H486	H	1.280283	-0.523328	0.414271
C487	C	0.268735	-0.127795	-0.128038
C488	C	0.768735	0.372205	0.371962
C489	C	0.295648	-0.153186	-0.099199
C490	C	0.795648	0.346814	0.400801
C491	C	0.319174	-0.124487	-0.070486
C492	C	0.819174	0.375513	0.429514
H493	H	0.248095	-0.110649	-0.110919
H494	H	0.748095	0.389351	0.389081
H495	H	0.287084	-0.108253	-0.145244
H496	H	0.787084	0.391747	0.354756
H497	H	0.277301	-0.172720	-0.081994
H498	H	0.777301	0.327280	0.418006
H499	H	0.316296	-0.170331	-0.116305
H500	H	0.816296	0.329669	0.383695
H501	H	0.337524	-0.104945	-0.087692
H502	H	0.837524	0.395055	0.412308
H503	H	0.298532	-0.107342	-0.053370
H504	H	0.798532	0.392658	0.446630
H505	H	0.337441	-0.141710	-0.050918
H506	H	0.837441	0.358290	0.449082
H507	H	0.568248	-0.297285	-0.688916
H508	H	1.068248	0.202715	-0.188916
H509	H	0.568233	-0.297294	-0.603808
H510	H	1.068233	0.202706	-0.103808
C511	C	0.589331	-0.276350	-1.051901
C512	C	1.089331	0.223650	-0.551901
C513	C	0.614748	-0.305154	-1.078828
C514	C	1.114748	0.194846	-0.578828
C515	C	0.586076	-0.333948	-1.102296
C516	C	1.086076	0.166052	-0.602296
H517	H	0.569761	-0.259214	-1.070238
H518	H	1.069761	0.240786	-0.570238
H519	H	0.572214	-0.293486	-1.031213
H520	H	1.072214	0.206514	-0.531213
H521	H	0.631857	-0.288020	-1.099514
H522	H	1.131857	0.211980	-0.599514
H523	H	0.634317	-0.322300	-1.060502
H524	H	1.134317	0.177700	-0.560502
H525	H	0.568960	-0.351084	-1.081608
H526	H	1.068960	0.148916	-0.581608
H527	H	0.566508	-0.316809	-1.120631
H528	H	1.066508	0.183191	-0.620631
H529	H	0.603318	-0.353498	-1.120566
H530	H	1.103318	0.146502	-0.620566
C531	C	0.127836	-0.127724	-0.128026
C532	C	0.627836	0.372276	0.371974
C533	C	0.097245	-0.102539	-0.102909
C534	C	0.597245	0.397461	0.397091
C535	C	0.120611	-0.073742	-0.074163
C536	C	0.620611	0.426258	0.425837
H537	H	0.146161	-0.108133	-0.145190
H538	H	0.646161	0.391867	0.354810
H539	H	0.146107	-0.144869	-0.108391
H540	H	0.646107	0.355131	0.391609
H541	H	0.078981	-0.085396	-0.122540
H542	H	0.578981	0.414604	0.377460
H543	H	0.078918	-0.122119	-0.085735
H544	H	0.578918	0.377881	0.414265
H545	H	0.138883	-0.090886	-0.054529
H546	H	0.638883	0.409114	0.445471
H547	H	0.138936	-0.054153	-0.091331
H548	H	0.638936	0.445847	0.408669
H549	H	0.099859	-0.056653	-0.057115
H550	H	0.599859	0.443347	0.442885
C551	C	0.737837	-0.127746	-0.695374
C552	C	1.237837	0.372254	-0.195374
C553	C	0.712432	-0.098929	-0.722298
C554	C	1.212432	0.401071	-0.222298
C555	C	0.741115	-0.070128	-0.745783
C556	C	1.241115	0.429872	-0.245783
H557	H	0.757412	-0.144876	-0.713715
H558	H	1.257412	0.355124	-0.213715
H559	H	0.754947	-0.110620	-0.674697
H560	H	1.254947	0.389380	-0.174697
H561	H	0.695329	-0.116053	-0.742973
H562	H	1.195329	0.383947	-0.242973
H563	H	0.692858	-0.081789	-0.703968
H564	H	1.192858	0.418211	-0.203968
H565	H	0.758226	-0.053002	-0.725105
H566	H	1.258226	0.446998	-0.225105
H567	H	0.760690	-0.087262	-0.764122
H568	H	1.260690	0.412738	-0.264122
H569	H	0.723883	-0.050570	-0.764050
H570	H	1.223883	0.449430	-0.264050
H571	H	0.701388	-0.164274	-0.960437
H572	H	1.201388	0.335726	-0.460437
H573	H	0.701393	-0.164257	-1.045559
H574	H	1.201393	0.335743	-0.545559
H575	H	0.478110	-0.268721	-0.268545
H576	H	0.978110	0.231279	0.231455
C577	C	0.589137	-0.276433	-0.479410
C578	C	1.089137	0.223567	0.020590
C579	C	0.563947	-0.301590	-0.448813
C580	C	1.063947	0.198410	0.051187
C581	C	0.535134	-0.330331	-0.472172
C582	C	1.035134	0.169669	0.027828
H583	H	0.606256	-0.296045	-0.497721
H584	H	1.106256	0.203955	0.002279
H585	H	0.569552	-0.259249	-0.497697
H586	H	1.069552	0.240751	0.002303
H587	H	0.583530	-0.318772	-0.430535
H588	H	1.083530	0.181228	0.069465
H589	H	0.546819	-0.281990	-0.430502
H590	H	1.046819	0.218010	0.069498
H591	H	0.515549	-0.313147	-0.490458
H592	H	1.015549	0.186853	0.009542
H593	H	0.552257	-0.349940	-0.490482
H594	H	1.052257	0.150060	0.009518
H595	H	0.518037	-0.347400	-0.451416
H596	H	1.018037	0.152600	0.048584
C597	C	0.560442	-0.305121	-0.738275
C598	C	1.060442	0.194879	-0.238275
C599	C	0.535275	-0.330276	-0.768858
C600	C	1.035275	0.169724	-0.268858
C601	C	0.506495	-0.359070	-0.745483
C602	C	1.006495	0.140930	-0.245483
H603	H	0.540837	-0.287990	-0.719966
H604	H	1.040837	0.212010	-0.219966
H605	H	0.577598	-0.324729	-0.719986
H606	H	1.077598	0.175271	-0.219986
H607	H	0.518120	-0.310671	-0.787139
H608	H	1.018120	0.189329	-0.287139
H609	H	0.554868	-0.347417	-0.787168
H610	H	1.054868	0.152583	-0.287168
H611	H	0.523652	-0.378678	-0.727194
H612	H	1.023652	0.121322	-0.227194
H613	H	0.486894	-0.341935	-0.727175
H614	H	0.986894	0.158065	-0.227175
H615	H	0.489419	-0.376144	-0.766231
H616	H	0.989419	0.123856	-0.266231
H617	H	0.596984	-0.268637	-0.388000
H618	H	1.096984	0.231363	0.112000
H619	H	0.730110	-0.135588	-0.744622
H620	H	1.230110	0.364412	-0.244622
H621	H	0.597076	-0.959972	-0.268661
H622	H	1.097076	-0.459972	0.231339
H623	H	0.177197	-0.135539	-0.135854
H624	H	0.677197	0.364461	0.364146
C625	C	0.386712	-0.276583	-0.276369
C626	C	0.886712	0.223417	0.223631
C627	C	0.417303	-0.301786	-0.301467
C628	C	0.917303	0.198214	0.198533
C629	C	0.393938	-0.330623	-0.330173
C630	C	0.893938	0.169377	0.169827
H631	H	0.368429	-0.259481	-0.296019
H632	H	0.868429	0.240519	0.203981
H633	H	0.368399	-0.296159	-0.259162
H634	H	0.868399	0.203841	0.240838
H635	H	0.435609	-0.282213	-0.318672
H636	H	0.935609	0.217787	0.181328
H637	H	0.435588	-0.318898	-0.281828
H638	H	0.935588	0.181102	0.218172
H639	H	0.375624	-0.350199	-0.312967
H640	H	0.875624	0.149801	0.187033
H641	H	0.375655	-0.313517	-0.349821
H642	H	0.875655	0.186483	0.150179
H643	H	0.414690	-0.347729	-0.347203
H644	H	0.914690	0.152271	0.152797
C645	C	0.268709	-0.305240	-0.305073
C646	C	0.768709	0.194760	0.194927
C647	C	0.295679	-0.279844	-0.333905
C648	C	0.795679	0.220156	0.166095
C649	C	0.319193	-0.308538	-0.362622
C650	C	0.819193	0.191462	0.137378
H651	H	0.248063	-0.322384	-0.322196
H652	H	0.748063	0.177616	0.177804
H653	H	0.287020	-0.324785	-0.287869
H654	H	0.787020	0.175215	0.212131
H655	H	0.277369	-0.260307	-0.351108
H656	H	0.777369	0.239693	0.148892
H657	H	0.316333	-0.262701	-0.316795
H658	H	0.816333	0.237299	0.183205
H659	H	0.337503	-0.328082	-0.345418
H660	H	0.837503	0.171918	0.154582
H661	H	0.298543	-0.325680	-0.379742
H662	H	0.798543	0.174320	0.120258
H663	H	0.337497	-0.291311	-0.382186
H664	H	0.837497	0.208689	0.117814
H665	H	0.730093	-0.744071	-0.135801
H666	H	1.230093	-0.244071	0.364199
H667	H	0.177180	-0.297509	-0.297271
H668	H	0.677180	0.202491	0.202729
C669	C	-0.087997	-0.276584	-0.276454
C670	C	0.412003	0.223416	0.223546
C671	C	-0.118590	-0.301776	-0.301577
C672	C	0.381410	0.198224	0.198423
C673	C	-0.095226	-0.330570	-0.330316
C674	C	0.404774	0.169430	0.169684
H675	H	-0.069709	-0.296172	-0.259284
H676	H	0.430291	0.203828	0.240716
H677	H	-0.069687	-0.259437	-0.296085
H678	H	0.430313	0.240563	0.203915
H679	H	-0.136892	-0.318922	-0.281949
H680	H	0.363108	0.181078	0.218051
H681	H	-0.136878	-0.282200	-0.318756
H682	H	0.363122	0.217800	0.181244
H683	H	-0.076916	-0.313423	-0.349947
H684	H	0.423084	0.186577	0.150053
H685	H	-0.076940	-0.350155	-0.313143
H686	H	0.423060	0.149845	0.186857
H687	H	-0.115980	-0.347663	-0.347368
H688	H	0.384020	0.152337	0.152632
H689	H	-0.179390	-0.164352	-0.164561
H690	H	0.320610	0.335648	0.335439
H691	H	-0.094283	-0.164339	-0.164556
H692	H	0.405717	0.335661	0.335444
C693	C	0.484407	-0.156480	-0.156648
C694	C	0.984407	0.343520	0.343352
C695	C	0.453827	-0.131287	-0.131526
C696	C	0.953827	0.368713	0.368474
C697	C	0.477206	-0.102493	-0.102787
C698	C	0.977206	0.397507	0.397213
H699	H	0.502733	-0.136893	-0.173818
H700	H	1.002733	0.363107	0.326182
H701	H	0.502679	-0.173627	-0.137018
H702	H	1.002679	0.326373	0.362982
H703	H	0.435562	-0.114141	-0.151155
H704	H	0.935562	0.385859	0.348845
H705	H	0.435501	-0.150862	-0.114347
H706	H	0.935501	0.349138	0.385653
H707	H	0.495478	-0.119640	-0.083157
H708	H	0.995478	0.380360	0.416843
H709	H	0.495531	-0.082909	-0.119961
H710	H	0.995531	0.417091	0.380039
H711	H	0.456461	-0.085399	-0.085736
H712	H	0.956461	0.414601	0.414264
C713	C	0.127826	-0.305338	-0.305113
C714	C	0.627826	0.194662	0.194887
C715	C	0.097231	-0.330527	-0.330236
C716	C	0.597231	0.169473	0.169764
C717	C	0.120592	-0.359323	-0.358976
C718	C	0.620592	0.140677	0.141024
H719	H	0.146111	-0.324928	-0.287943
H720	H	0.646111	0.175072	0.212057
H721	H	0.146138	-0.288192	-0.324743
H722	H	0.646138	0.211808	0.175257
H723	H	0.078927	-0.347671	-0.310609
H724	H	0.578927	0.152329	0.189391
H725	H	0.078945	-0.310949	-0.347415
H726	H	0.578945	0.189051	0.152585
H727	H	0.138904	-0.342177	-0.378606
H728	H	0.638904	0.157823	0.121394
H729	H	0.138877	-0.378909	-0.341802
H730	H	0.638877	0.121091	0.158198
H731	H	0.099837	-0.376414	-0.376028
H732	H	0.599837	0.123586	0.123972
H733	H	0.568248	-0.688511	-0.297342
H734	H	1.068248	-0.188511	0.202658
H735	H	0.392998	-0.164309	-0.164496
H736	H	0.892998	0.335691	0.335504
C737	C	0.709233	-0.953481	-0.156797
C738	C	1.209233	-0.453481	0.343203
C739	C	0.737998	-0.926503	-0.182261
C740	C	1.237998	-0.426503	0.317739
C741	C	0.766776	-0.902967	-0.153635
C742	C	1.266776	-0.402967	0.346365
H743	H	0.726402	-0.974115	-0.139697
H744	H	1.226402	-0.474115	0.360303
H745	H	0.692070	-0.935175	-0.137208
H746	H	1.192070	-0.435175	0.362792
H747	H	0.755159	-0.944807	-0.201841
H748	H	1.255159	-0.444807	0.298159
H749	H	0.720841	-0.905860	-0.199360
H750	H	1.220841	-0.405860	0.300640
H751	H	0.749614	-0.884661	-0.134046
H752	H	1.249614	-0.384661	0.365954
H753	H	0.783942	-0.923604	-0.136537
H754	H	1.283942	-0.423604	0.363463
H755	H	0.786294	-0.884657	-0.170907
H756	H	1.286294	-0.384657	0.329093
H757	H	0.036420	-0.297513	-0.297286
H758	H	0.536420	0.202487	0.202714
H759	H	0.036441	-0.135556	-0.135871
H760	H	0.536441	0.364444	0.364129
C761	C	0.737944	-0.835471	-0.127976
C762	C	1.237944	-0.335471	0.372024
C763	C	0.763110	-0.804877	-0.102828
C764	C	1.263110	-0.304877	0.397172
C765	C	0.791890	-0.828239	-0.074077
C766	C	1.291890	-0.328239	0.425923
H767	H	0.757549	-0.853749	-0.145138
H768	H	1.257549	-0.353749	0.354862
H769	H	0.720788	-0.853789	-0.108362
H770	H	1.220788	-0.353789	0.391638
H771	H	0.780265	-0.786566	-0.122440
H772	H	1.280265	-0.286566	0.377560
H773	H	0.743517	-0.786597	-0.085657
H774	H	1.243517	-0.286597	0.414343
H775	H	0.774733	-0.846557	-0.054463
H776	H	1.274733	-0.346557	0.445537
H777	H	0.811492	-0.846517	-0.091243
H778	H	1.311492	-0.346517	0.408757
H779	H	0.808965	-0.807485	-0.057008
H780	H	1.308965	-0.307485	0.442992
H781	H	0.701258	-0.472626	-0.164472
H782	H	1.201258	0.027374	0.335528
C783	C	0.709073	-0.381224	-0.156653
C784	C	1.209073	0.118776	0.343347
C785	C	0.734270	-0.411799	-0.131533
C786	C	1.234270	0.088201	0.368467
C787	C	0.763074	-0.388416	-0.102809
C788	C	1.263074	0.111584	0.397191
H789	H	0.691947	-0.362944	-0.137016
H790	H	1.191947	0.137056	0.362984
H791	H	0.728654	-0.362904	-0.173847
H792	H	1.228654	0.137096	0.326153
H793	H	0.714691	-0.430111	-0.114340
H794	H	1.214691	0.069889	0.385660
H795	H	0.751405	-0.430080	-0.151158
H796	H	1.251405	0.069920	0.348842
H797	H	0.782655	-0.370097	-0.120003
H798	H	1.282655	0.129903	0.379997
H799	H	0.745944	-0.370138	-0.083175
H800	H	1.245944	0.129862	0.416825
H801	H	0.780176	-0.409158	-0.085765
H802	H	1.280176	0.090842	0.414235
C803	C	0.737828	-0.597010	-0.127923
C804	C	1.237828	-0.097010	0.372077
C805	C	0.728092	-0.608461	-0.083465
C806	C	1.228092	-0.108461	0.416535
C807	C	0.756820	-0.585060	-0.054680
C808	C	1.256820	-0.085060	0.445320
H809	H	0.733736	-0.565702	-0.131965
H810	H	1.233736	-0.065702	0.368035
H811	H	0.768016	-0.604684	-0.134510
H812	H	1.268016	-0.104684	0.365490
H813	H	0.697911	-0.600785	-0.076880
H814	H	1.197911	-0.100785	0.423120
H815	H	0.732186	-0.639766	-0.079409
H816	H	1.232186	-0.139766	0.420591
H817	H	0.787008	-0.592733	-0.061266
H818	H	1.287008	-0.092733	0.438734
H819	H	0.752726	-0.553753	-0.058725
H820	H	1.252726	-0.053753	0.441275
H821	H	0.750221	-0.592829	-0.024512
H822	H	1.250221	-0.092829	0.475488
C823	C	0.560450	-0.597092	-0.305199
C824	C	1.060450	-0.097092	0.194801
C825	C	0.570201	-0.608487	-0.349659
C826	C	1.070201	-0.108487	0.150341
C827	C	0.541469	-0.585108	-0.378444
C828	C	1.041469	-0.085108	0.121556
H829	H	0.564528	-0.565781	-0.301148
H830	H	1.064528	-0.065781	0.198852
H831	H	0.530264	-0.604823	-0.298622
H832	H	1.030264	-0.104823	0.201378
H833	H	0.600380	-0.600754	-0.356234
H834	H	1.100380	-0.100754	0.143766
H835	H	0.566120	-0.639795	-0.353724
H836	H	1.066120	-0.139795	0.146276
H837	H	0.511283	-0.592839	-0.371866
H838	H	1.011283	-0.092839	0.128134
H839	H	0.545549	-0.553798	-0.374389
H840	H	1.045549	-0.053798	0.125611
H841	H	0.548079	-0.592840	-0.408612
H842	H	1.048079	-0.092840	0.091388
H843	H	0.730076	-0.688430	-0.135795
H844	H	1.230076	-0.188430	0.364205
