data_functionalizedCrystal
_audit_creation_method	'MofGen! by Chris Wilmer'
_symmetry_space_group_name_H-M	'P1'
_symmetry_Int_Tables_number	1
_symmetry_cell_setting	triclinic
loop_
_symmetry_equiv_pos_as_xyz
  x,y,z
_cell_length_a	12.594516
_cell_length_b	15.297475
_cell_length_c	15.296720
_cell_angle_alpha	91.617114
_cell_angle_beta	99.649314
_cell_angle_gamma	80.321527
loop_
_atom_site_label
_atom_site_type_symbol
_atom_site_fract_x
_atom_site_fract_y
_atom_site_fract_z
Zn1	Zn	-0.828394	1.253443	-0.726647
Zn2	Zn	-0.981661	1.278713	-0.580172
Zn3	Zn	-0.768599	1.132317	-0.554884
Zn4	Zn	-0.971198	1.106939	-0.701300
O5	O	-0.887463	1.192853	-0.640751
O6	O	-0.878129	1.379374	-0.728408
O7	O	-0.932752	1.280490	-0.454242
O8	O	-0.627599	1.148430	-0.577694
O9	O	-0.990733	1.397940	-0.620793
O10	O	-0.671531	1.237420	-0.703888
O11	O	-0.776216	1.172934	-0.435663
O12	O	-0.766070	1.006371	-0.553116
O13	O	-0.972901	1.105176	-0.827238
O14	O	-0.914920	0.987726	-0.660687
O15	O	-0.867983	1.212812	-0.845861
O16	O	-1.129205	1.255881	-0.596215
O17	O	-1.121518	1.129680	-0.685207
C18	C	-0.832872	0.965265	-0.601407
C19	C	-0.809547	0.867898	-0.584597
C20	C	-1.054180	0.554764	-0.760901
C21	C	-1.076102	0.646246	-0.776693
C22	C	-1.009465	0.701663	-0.728671
C23	C	-0.920902	0.665591	-0.664853
C24	C	-0.898982	0.574101	-0.649055
C25	C	-0.854268	0.721000	-0.616824
C26	C	-0.765704	0.684928	-0.553006
C27	C	-0.743788	0.593447	-0.537211
C28	C	-0.810425	0.538029	-0.585234
C29	C	-0.876187	0.812489	-0.632622
C30	C	-0.720990	0.831826	-0.520776
C31	C	-0.699067	0.740345	-0.504984
C32	C	-1.163986	1.192789	-0.640728
C33	C	-1.282308	1.192837	-0.640761
C34	C	-1.418189	1.124249	-0.689142
C35	C	-1.370052	1.200386	-0.724428
C36	C	-1.328882	1.116701	-0.605515
C37	C	-1.445013	1.269147	-0.676153
C38	C	-1.403831	1.185414	-0.557193
C39	C	-1.355734	1.261612	-0.592458
C40	C	-0.609869	1.192937	-0.640798
C41	C	-0.491575	1.192973	-0.640818
C42	C	-0.925945	1.153344	-0.869221
C43	C	-0.942344	1.136508	-0.966581
C44	C	-0.942268	1.421329	-0.680249
C45	C	-0.965623	1.518693	-0.697080
C46	C	-0.770079	1.313217	-1.279808
C47	C	-0.754675	1.329041	-1.188334
C48	C	-0.801591	1.280909	-1.132891
C49	C	-0.863914	1.216951	-1.168931
C50	C	-0.879327	1.201130	-1.260415
C51	C	-0.910838	1.168822	-1.113498
C52	C	-0.973161	1.104863	-1.149538
C53	C	-0.988571	1.089045	-1.241013
C54	C	-0.941655	1.137177	-1.296455
C55	C	-0.895425	1.184642	-1.022015
C56	C	-1.004672	1.072555	-1.002622
C57	C	-1.020077	1.056731	-1.094095
C58	C	-0.849066	1.232258	-0.413179
C59	C	-0.832408	1.249264	-0.315848
H60	H	-1.108431	0.509637	-0.799989
H61	H	-0.703935	1.381119	-1.158997
C62	C	-1.057143	1.018707	-1.280662
H63	H	-1.059614	1.016187	-1.343084
H64	H	-1.024934	0.962446	-1.255503
H65	H	-1.129203	1.034111	-1.267870
C66	C	-0.647682	0.892775	-0.467952
H67	H	-0.673412	0.952425	-0.486508
H68	H	-0.649630	0.887953	-0.406485
H69	H	-0.574777	0.875560	-0.478293
C70	C	-0.973601	0.852165	-0.702812
H71	H	-0.977123	0.914587	-0.705339
H72	H	-0.964475	0.827005	-0.759103
H73	H	-1.039316	0.839389	-0.687286
H74	H	-1.148212	0.675610	-0.828652
H75	H	-0.844680	1.236718	-0.992680
H76	H	-1.354606	1.206729	-0.795125
H77	H	-1.070821	1.004655	-1.123452
C78	C	-0.786328	0.437401	-0.567850
H79	H	-0.838705	0.409568	-0.605586
H80	H	-0.715283	0.414071	-0.579514
H81	H	-0.790155	0.426484	-0.507718
H82	H	-1.027320	0.776151	-0.741533
C83	C	-0.646376	0.553769	-0.467011
H84	H	-0.609822	0.599872	-0.440677
H85	H	-0.672024	0.524676	-0.422623
H86	H	-0.597171	0.512290	-0.494431
H87	H	-1.495157	1.333598	-0.706068
H88	H	-0.731895	1.352405	-1.324957
H89	H	-1.278623	1.052255	-0.575682
C90	C	-0.601656	0.700663	-0.434785
H91	H	-0.565099	0.746764	-0.408448
H92	H	-0.627305	0.671567	-0.390399
H93	H	-0.552453	0.659185	-0.462208
H94	H	-1.328380	1.319729	-0.551577
H95	H	-0.954194	1.124296	-1.370942
C96	C	-1.424741	1.176808	-0.461713
H97	H	-1.384452	1.122601	-0.436727
H98	H	-1.402242	1.225023	-0.427115
H99	H	-1.500435	1.177465	-0.462396
H100	H	-0.789045	1.293797	-1.058410
H101	H	-1.445771	1.066243	-0.730081
H102	H	-1.042877	1.033363	-0.957480
