data_functionalizedCrystal
_audit_creation_method	'MofGen! by Chris Wilmer'
_symmetry_space_group_name_H-M	'P1'
_symmetry_Int_Tables_number	1
_symmetry_cell_setting	triclinic
loop_
_symmetry_equiv_pos_as_xyz
  x,y,z
_cell_length_a	27.732048
_cell_length_b	11.792241
_cell_length_c	10.868271
_cell_angle_alpha	89.998441
_cell_angle_beta	90.001181
_cell_angle_gamma	83.418035
loop_
_atom_site_label
_atom_site_type_symbol
_atom_site_fract_x
_atom_site_fract_y
_atom_site_fract_z
O1	O	-0.641711	-0.135035	0.102164
O2	O	-0.501036	-0.155568	0.102202
O3	O	-0.574787	0.019979	0.102174
O4	O	-0.567960	-0.310581	0.102193
O5	O	-0.574781	0.019973	-0.102471
O6	O	-0.501030	-0.155573	-0.102443
O7	O	-0.641704	-0.135040	-0.102480
Zn8	Zn	-0.571366	-0.145308	-0.134953
Zn9	Zn	-0.571375	-0.145300	0.134675
O10	O	-0.567953	-0.310587	-0.102452
C11	C	-0.483024	-0.155140	-0.000116
C12	C	-0.429361	-0.153842	-0.000102
C13	C	-0.574355	0.062253	-0.000148
C14	C	-0.573071	0.188226	-0.000147
C15	C	-0.659717	-0.135469	-0.000160
C16	C	-0.713379	-0.136766	-0.000166
C17	C	-0.091101	-0.249407	-0.000150
C18	C	0.110587	-0.244592	-0.000161
O19	O	0.141335	-0.331980	-0.000209
N20	N	0.130315	-0.140500	-0.000165
C21	C	0.099617	-0.037605	-0.000174
O22	O	0.121024	0.051042	-0.000190
C23	C	-0.102070	-0.042422	-0.000171
C24	C	-0.121794	-0.146520	-0.000155
C25	C	-0.110826	-0.353497	-0.000135
C26	C	-0.161245	-0.354700	-0.000125
C27	C	-0.191939	-0.251813	-0.000131
C28	C	-0.172213	-0.147723	-0.000146
C29	C	-0.132766	0.060472	-0.000189
C30	C	-0.183191	0.059259	-0.000192
C31	C	-0.202915	-0.044840	-0.000176
C32	C	-0.253326	-0.046038	-0.000141
N33	N	-0.273054	-0.150130	-0.000138
C34	C	-0.242360	-0.253017	-0.000132
C35	C	0.205506	-0.035084	-0.000173
C36	C	0.255927	-0.033879	-0.000171
C37	C	0.266894	-0.240867	-0.000161
C38	C	0.216471	-0.242070	-0.000153
C39	C	0.185778	-0.139175	-0.000169
C40	C	-0.348244	-0.255535	-0.000111
C41	C	-0.398668	-0.256729	-0.000097
C42	C	-0.409630	-0.049742	-0.000114
C43	C	-0.359210	-0.048548	-0.000122
C44	C	-0.328518	-0.151454	-0.000125
O45	O	-0.284103	0.041303	-0.000107
O46	O	-0.263777	-0.341651	-0.000143
C47	C	-0.040682	-0.248205	-0.000159
C48	C	-0.020957	-0.144115	-0.000174
C49	C	-0.051650	-0.041227	-0.000180
C50	C	0.029465	-0.142910	-0.000173
C51	C	0.060159	-0.245797	-0.000167
C52	C	0.040431	-0.349889	-0.000163
C53	C	-0.009988	-0.351092	-0.000154
C54	C	-0.031923	0.062864	-0.000183
C55	C	0.018497	0.064058	-0.000192
C56	C	0.049191	-0.038829	-0.000186
C57	C	-0.568385	-0.352861	-0.000128
C58	C	-0.569669	-0.478834	-0.000121
N59	N	-0.571363	-0.145312	-0.318967
C60	C	-0.570711	0.418862	-0.000126
C61	C	-0.572023	0.290519	-0.000137
C62	C	-0.571367	-0.145313	-0.430305
C63	C	-0.571373	-0.145302	-0.569983
N64	N	-0.571381	-0.145287	0.318689
H65	H	-0.414724	-0.341502	-0.000083
H66	H	0.180519	0.048710	-0.000185
H67	H	-0.056909	0.146649	-0.000191
H68	H	-0.323260	-0.339331	-0.000117
F69	F	-0.338217	0.062244	-0.000140
F70	F	-0.442305	0.059752	-0.000121
H71	H	-0.085840	-0.437285	-0.000135
F72	F	0.073106	-0.459389	-0.000151
F73	F	0.039483	0.174862	-0.000193
F74	F	-0.182231	-0.465497	-0.000114
H75	H	0.200415	-0.326836	-0.000147
H76	H	0.291893	-0.324641	-0.000156
H77	H	0.271982	0.050888	-0.000165
F78	F	-0.030974	-0.461888	-0.000137
H79	H	-0.116716	0.145240	-0.000204
H80	H	-0.208179	0.143050	-0.000205
