data_functionalizedCrystal
_audit_creation_method	'MofGen! by Chris Wilmer'
_symmetry_space_group_name_H-M	'P1'
_symmetry_Int_Tables_number	1
_symmetry_cell_setting	triclinic
loop_
_symmetry_equiv_pos_as_xyz
  x,y,z
_cell_length_a	19.805407
_cell_length_b	19.076808
_cell_length_c	19.805399
_cell_angle_alpha	92.327057
_cell_angle_beta	90.019573
_cell_angle_gamma	92.323385
loop_
_atom_site_label
_atom_site_type_symbol
_atom_site_fract_x
_atom_site_fract_y
_atom_site_fract_z
Zn1	Zn	1.023914	-0.280233	0.371886
Zn2	Zn	1.273914	-0.030233	0.621886
Zn3	Zn	1.523914	0.219767	0.871886
Zn4	Zn	1.773914	0.469767	1.121886
Zn5	Zn	1.019283	-0.397938	0.254147
Zn6	Zn	1.269283	-0.147938	0.504147
Zn7	Zn	1.519283	0.102062	0.754147
Zn8	Zn	1.769283	0.352062	1.004147
Zn9	Zn	0.910727	-0.280252	0.258710
Zn10	Zn	1.160727	-0.030252	0.508710
Zn11	Zn	1.410727	0.219748	0.758710
Zn12	Zn	1.660727	0.469748	1.008710
Zn13	Zn	0.906148	-0.397901	0.367295
Zn14	Zn	1.156148	-0.147901	0.617295
Zn15	Zn	1.406148	0.102099	0.867295
Zn16	Zn	1.656148	0.352099	1.117295
O17	O	0.965018	-0.339081	0.313009
O18	O	1.215018	-0.089081	0.563009
O19	O	1.465018	0.160919	0.813009
O20	O	1.715018	0.410919	1.063009
O21	O	1.118016	-0.295854	0.356279
O22	O	1.368016	-0.045854	0.606279
O23	O	1.618016	0.204146	0.856279
O24	O	1.868016	0.454146	1.106279
O25	O	1.004861	-0.382351	0.160035
O26	O	1.254861	-0.132351	0.410035
O27	O	1.504861	0.117649	0.660035
O28	O	1.754861	0.367649	0.910035
O29	O	0.929597	-0.181753	0.277553
O30	O	1.179597	0.068247	0.527553
O31	O	1.429597	0.318247	0.777553
O32	O	1.679597	0.568247	1.027553
O33	O	1.114613	-0.382332	0.269777
O34	O	1.364613	-0.132332	0.519777
O35	O	1.614613	0.117668	0.769777
O36	O	1.864613	0.367668	1.019777
O37	O	1.012754	-0.181739	0.360703
O38	O	1.262754	0.068261	0.610703
O39	O	1.512754	0.318261	0.860703
O40	O	1.762754	0.568261	1.110703
O41	O	0.925106	-0.295887	0.163387
O42	O	1.175106	-0.045887	0.413387
O43	O	1.425106	0.204113	0.663387
O44	O	1.675106	0.454113	0.913387
O45	O	0.815404	-0.295851	0.273102
O46	O	1.065404	-0.045851	0.523102
O47	O	1.315404	0.204149	0.773102
O48	O	1.565404	0.454149	1.023102
O49	O	0.921791	-0.382268	0.462622
O50	O	1.171791	-0.132268	0.712622
O51	O	1.421791	0.117732	0.962622
O52	O	1.671791	0.367732	1.212622
O53	O	0.812039	-0.382287	0.352879
O54	O	1.062039	-0.132287	0.602879
O55	O	1.312039	0.117713	0.852879
O56	O	1.562039	0.367713	1.102879
O57	O	1.008313	-0.295818	0.465994
O58	O	1.258313	-0.045818	0.715994
O59	O	1.508313	0.204182	0.965994
O60	O	1.758313	0.454182	1.215994
O61	O	1.000421	-0.496429	0.265326
O62	O	1.250421	-0.246429	0.515326
O63	O	1.500421	0.003571	0.765326
O64	O	1.750421	0.253571	1.015326
O65	O	0.917301	-0.496402	0.348455
O66	O	1.167301	-0.246402	0.598455
O67	O	1.417301	0.003598	0.848455
O68	O	1.667301	0.253598	1.098455
C69	C	0.789162	-0.339067	0.312988
C70	C	1.039162	-0.089067	0.562988
C71	C	1.289162	0.160933	0.812988
C72	C	1.539162	0.410933	1.062988
C73	C	0.713930	-0.339079	0.312994
C74	C	0.963930	-0.089079	0.562994
C75	C	1.213930	0.160921	0.812994
C76	C	1.463930	0.410921	1.062994
C77	C	0.676849	-0.384154	0.354462
C78	C	0.926849	-0.134154	0.604462
C79	C	1.176849	0.115846	0.854462
C80	C	1.426849	0.365846	1.104462
C81	C	0.606160	-0.384155	0.354471
C82	C	0.856160	-0.134155	0.604471
C83	C	1.106160	0.115845	0.854471
C84	C	1.356160	0.365845	1.104471
C85	C	0.572554	-0.339084	0.313009
C86	C	0.822554	-0.089084	0.563009
C87	C	1.072554	0.160916	0.813009
C88	C	1.322554	0.410916	1.063009
C89	C	0.609640	-0.294004	0.271540
C90	C	0.859640	-0.044004	0.521540
C91	C	1.109640	0.205996	0.771540
C92	C	1.359640	0.455996	1.021540
C93	C	0.680328	-0.294000	0.271535
C94	C	0.930328	-0.044000	0.521535
C95	C	1.180328	0.206000	0.771535
C96	C	1.430328	0.456000	1.021535
C97	C	0.324567	-0.294020	0.271562
C98	C	0.574567	-0.044020	0.521562
C99	C	0.824567	0.205980	0.771562
C100	C	1.074567	0.455980	1.021562
C101	C	0.253874	-0.294029	0.271569
C102	C	0.503874	-0.044029	0.521569
C103	C	0.753874	0.205971	0.771569
C104	C	1.003874	0.455971	1.021569
C105	C	0.250399	-0.384175	0.354498
C106	C	0.500399	-0.134175	0.604498
C107	C	0.750399	0.115825	0.854498
C108	C	1.000399	0.365825	1.104498
C109	C	0.321086	-0.384170	0.354493
C110	C	0.571086	-0.134170	0.604493
C111	C	0.821086	0.115830	0.854493
C112	C	1.071086	0.365830	1.104493
C113	C	0.358167	-0.339088	0.313027
C114	C	0.608167	-0.089088	0.563027
C115	C	0.858167	0.160912	0.813027
C116	C	1.108167	0.410912	1.063027
C117	C	0.434815	-0.339086	0.313018
C118	C	0.684815	-0.089086	0.563018
C119	C	0.934815	0.160914	0.813018
C120	C	1.184815	0.410914	1.063018
C121	C	0.495907	-0.339089	0.313014
C122	C	0.745907	-0.089089	0.563014
C123	C	0.995907	0.160911	0.813014
C124	C	1.245907	0.410911	1.063014
C125	C	0.957879	-0.521955	0.305912
C126	C	1.207879	-0.271955	0.555912
C127	C	1.457879	-0.021955	0.805912
C128	C	1.707879	0.228045	1.055912
C129	C	0.954888	-0.600189	0.302898
C130	C	1.204888	-0.350189	0.552898
C131	C	1.454888	-0.100189	0.802898
C132	C	1.704888	0.149811	1.052898
C133	C	0.996745	-0.636876	0.344809
C134	C	1.246745	-0.386876	0.594809
C135	C	1.496745	-0.136876	0.844809
C136	C	1.746745	0.113124	1.094809
C137	C	0.993931	-0.710385	0.341979
C138	C	1.243931	-0.460385	0.591979
C139	C	1.493931	-0.210385	0.841979
C140	C	1.743931	0.039615	1.091979
C141	C	0.949263	-0.747206	0.297233
C142	C	1.199263	-0.497206	0.547233
C143	C	1.449263	-0.247206	0.797233
C144	C	1.699263	0.002794	1.047233
C145	C	0.907400	-0.710515	0.255321
C146	C	1.157400	-0.460515	0.505321
C147	C	1.407400	-0.210515	0.755321
C148	C	1.657400	0.039485	1.005321
C149	C	0.910211	-0.637007	0.258155
C150	C	1.160211	-0.387007	0.508155
C151	C	1.410211	-0.137007	0.758155
C152	C	1.660211	0.112993	1.008155
C153	C	0.936213	-0.967059	0.284114
C154	C	1.186213	-0.717059	0.534114
C155	C	1.436213	-0.467059	0.784114
C156	C	1.686213	-0.217059	1.034114
C157	C	0.933407	-1.040572	0.281281
C158	C	1.183407	-0.790572	0.531281
C159	C	1.433407	-0.540572	0.781281
C160	C	1.683407	-0.290572	1.031281
C161	C	1.019937	-1.040437	0.367940
C162	C	1.269937	-0.790437	0.617940
C163	C	1.519937	-0.540437	0.867940
C164	C	1.769937	-0.290437	1.117940
C165	C	1.022747	-0.966928	0.370768
C166	C	1.272747	-0.716928	0.620768
C167	C	1.522747	-0.466928	0.870768
C168	C	1.772747	-0.216928	1.120768
C169	C	0.980882	-0.930243	0.328858
C170	C	1.230882	-0.680243	0.578858
C171	C	1.480882	-0.430243	0.828858
C172	C	1.730882	-0.180243	1.078858
N173	N	0.946387	-0.822345	0.294338
N174	N	1.196387	-0.572345	0.544338
N175	N	1.446387	-0.322345	0.794338
N176	N	1.696387	-0.072345	1.044338
N177	N	0.983755	-0.855106	0.331757
N178	N	1.233755	-0.605106	0.581757
N179	N	1.483755	-0.355106	0.831757
N180	N	1.733755	-0.105106	1.081757
C181	C	1.141560	-0.339095	0.313031
C182	C	1.391560	-0.089095	0.563031
C183	C	1.641560	0.160905	0.813031
C184	C	1.891560	0.410905	1.063031
C185	C	1.216792	-0.339101	0.313041
C186	C	1.466792	-0.089101	0.563041
C187	C	1.716792	0.160899	0.813041
C188	C	1.966792	0.410899	1.063041
C189	C	0.965058	-0.339037	0.489554
C190	C	1.215058	-0.089037	0.739554
C191	C	1.465058	0.160963	0.989554
C192	C	1.715058	0.410963	1.239554
C193	C	0.965074	-0.339018	0.564787
C194	C	1.215074	-0.089018	0.814787
C195	C	1.465074	0.160982	1.064787
C196	C	1.715074	0.410982	1.314787
C197	C	0.972203	-0.155493	0.320149
C198	C	1.222203	0.094507	0.570149
C199	C	1.472203	0.344507	0.820149
C200	C	1.722203	0.594507	1.070149
C201	C	0.975264	-0.077259	0.323192
C202	C	1.225264	0.172741	0.573192
C203	C	1.475264	0.422741	0.823192
C204	C	1.725264	0.672741	1.073192
C205	C	0.965019	-0.339074	0.137154
C206	C	1.215019	-0.089074	0.387154
C207	C	1.465019	0.160926	0.637154
C208	C	1.715019	0.410926	0.887154
C209	C	0.965141	-0.338895	0.061929
C210	C	1.215141	-0.088895	0.311929
C211	C	1.465141	0.161105	0.561929
C212	C	1.715141	0.411105	0.811929
C213	C	1.010128	-0.294001	0.601888
C214	C	1.260128	-0.044001	0.851888
C215	C	1.510128	0.205999	1.101888
C216	C	1.760128	0.455999	1.351888
C217	C	1.010135	-0.293980	0.672577
C218	C	1.260135	-0.043980	0.922577
C219	C	1.510135	0.206020	1.172577
C220	C	1.760135	0.456020	1.422577
C221	C	0.965093	-0.338981	0.706164
C222	C	1.215093	-0.088981	0.956164
C223	C	1.465093	0.161019	1.206164
C224	C	1.715093	0.411019	1.456164
C225	C	0.920035	-0.384000	0.669057
C226	C	1.170035	-0.134000	0.919057
C227	C	1.420035	0.116000	1.169057
C228	C	1.670035	0.366000	1.419057
C229	C	0.920024	-0.384016	0.598369
C230	C	1.170024	-0.134016	0.848369
C231	C	1.420024	0.115984	1.098369
C232	C	1.670024	0.365984	1.348369
C233	C	0.920075	-0.383934	0.954133
C234	C	1.170075	-0.133934	1.204133
C235	C	1.420075	0.116066	1.454133
C236	C	1.670075	0.366066	1.704133
C237	C	0.920091	-0.383916	1.024826
C238	C	1.170091	-0.133916	1.274826
C239	C	1.420091	0.116084	1.524826
C240	C	1.670091	0.366084	1.774826
C241	C	1.010187	-0.293899	1.028341
C242	C	1.260187	-0.043899	1.278341
C243	C	1.510187	0.206101	1.528341
C244	C	1.760187	0.456101	1.778341
C245	C	1.010176	-0.293915	0.957653
C246	C	1.260176	-0.043915	1.207653
C247	C	1.510176	0.206085	1.457653
C248	C	1.760176	0.456085	1.707653
C249	C	0.965116	-0.338931	0.920553
C250	C	1.215116	-0.088931	1.170553
C251	C	1.465116	0.161069	1.420553
C252	C	1.715116	0.411069	1.670553
C253	C	0.965107	-0.338951	0.843904
C254	C	1.215107	-0.088951	1.093904
C255	C	1.465107	0.161049	1.343904
C256	C	1.715107	0.411049	1.593904
C257	C	0.965104	-0.338964	0.782812
C258	C	1.215104	-0.088964	1.032812
C259	C	1.465104	0.161036	1.282812
C260	C	1.715104	0.411036	1.532812
H261	H	0.575972	-0.420860	0.388237
H262	H	0.825972	-0.170860	0.638237
H263	H	1.075972	0.079140	0.888237
H264	H	1.325972	0.329140	1.138237
H265	H	0.876126	-0.607137	0.224028
H266	H	1.126126	-0.357137	0.474028
H267	H	1.376126	-0.107137	0.724028
H268	H	1.626126	0.142863	0.974028
H269	H	0.354749	-0.257317	0.237792
H270	H	0.604749	-0.007317	0.487792
H271	H	0.854749	0.242683	0.737792
H272	H	1.104749	0.492683	0.987792
O273	O	0.871459	-0.432486	0.914145
O274	O	1.121459	-0.182486	1.164145
O275	O	1.371459	0.067514	1.414145
O276	O	1.621459	0.317514	1.664145
H277	H	0.900321	-0.468319	0.880541
H278	H	1.150321	-0.218319	1.130541
H279	H	1.400321	0.031681	1.380541
H280	H	1.650321	0.281681	1.630541
H281	H	0.582273	-0.257304	0.237784
H282	H	0.832273	-0.007304	0.487784
H283	H	1.082273	0.242696	0.737784
H284	H	1.332273	0.492696	0.987784
O285	O	1.065079	-1.080003	0.413153
O286	O	1.315079	-0.830003	0.663153
O287	O	1.565079	-0.580003	0.913153
O288	O	1.815079	-0.330003	1.163153
H289	H	1.055617	-1.137304	0.403673
H290	H	1.305617	-0.887304	0.653673
H291	H	1.555617	-0.637304	0.903673
H292	H	1.805617	-0.387304	1.153673
H293	H	1.046857	-0.257273	0.930311
H294	H	1.296857	-0.007273	1.180311
H295	H	1.546857	0.242727	1.430311
H296	H	1.796857	0.492727	1.680311
O297	O	0.885222	-1.080291	0.233023
O298	O	1.135222	-0.830291	0.483023
O299	O	1.385222	-0.580291	0.733023
O300	O	1.635222	-0.330291	0.983023
H301	H	0.856577	-1.042433	0.204361
H302	H	1.106577	-0.792433	0.454361
H303	H	1.356577	-0.542433	0.704361
H304	H	1.606577	-0.292433	0.954361
O305	O	0.871431	-0.432568	0.558348
O306	O	1.121431	-0.182568	0.808348
O307	O	1.371431	0.067432	1.058348
O308	O	1.621431	0.317432	1.308348
H309	H	0.838223	-0.401060	0.527369
H310	H	1.088223	-0.151060	0.777369
H311	H	1.338223	0.098940	1.027369
H312	H	1.588223	0.348940	1.277369
O313	O	0.871447	-0.432534	0.705277
O314	O	1.121447	-0.182534	0.955277
O315	O	1.371447	0.067466	1.205277
O316	O	1.621447	0.317466	1.455277
H317	H	0.879025	-0.424964	0.760665
H318	H	1.129025	-0.174964	1.010665
H319	H	1.379025	0.075036	1.260665
H320	H	1.629025	0.325036	1.510665
O321	O	1.039078	-0.749957	0.387181
O322	O	1.289078	-0.499957	0.637181
O323	O	1.539078	-0.249957	0.887181
O324	O	1.789078	0.000043	1.137181
H325	H	1.070616	-0.712003	0.418766
H326	H	1.320616	-0.462003	0.668766
H327	H	1.570616	-0.212003	0.918766
H328	H	1.820616	0.037997	1.168766
O329	O	0.357330	-0.432780	0.399218
O330	O	0.607330	-0.182780	0.649218
O331	O	0.857330	0.067220	0.899218
O332	O	1.107330	0.317220	1.149218
H333	H	0.390777	-0.401315	0.434916
H334	H	0.640777	-0.151315	0.684916
H335	H	0.890777	0.098685	0.934916
H336	H	1.140777	0.348685	1.184916
O337	O	0.210407	-0.432794	0.399234
O338	O	0.460407	-0.182794	0.649234
O339	O	0.710407	0.067206	0.899234
O340	O	0.960407	0.317206	1.149234
H341	H	0.155608	-0.425221	0.392282
H342	H	0.405608	-0.175221	0.642282
H343	H	0.655608	0.074779	0.892282
H344	H	0.905608	0.324779	1.142282
H345	H	0.226514	-0.257323	0.237806
H346	H	0.476514	-0.007323	0.487806
H347	H	0.726514	0.242677	0.737806
H348	H	0.976514	0.492677	0.987806
H349	H	1.046809	-0.257358	0.574547
H350	H	1.296809	-0.007358	0.824547
H351	H	1.546809	0.242642	1.074547
H352	H	1.796809	0.492642	1.324547
H353	H	0.902127	-0.937196	0.249987
H354	H	1.152127	-0.687196	0.499987
H355	H	1.402127	-0.437196	0.749987
H356	H	1.652127	-0.187196	0.999987
H357	H	0.704206	-0.420858	0.388223
H358	H	0.954206	-0.170858	0.638223
H359	H	1.204206	0.079142	0.888223
H360	H	1.454206	0.329142	1.138223
H361	H	1.046874	-0.257242	1.058557
H362	H	1.296874	-0.007242	1.308557
H363	H	1.546874	0.242758	1.558557
H364	H	1.796874	0.492758	1.808557
H365	H	0.871028	-0.740500	0.218891
H366	H	1.121028	-0.490500	0.468891
H367	H	1.371028	-0.240500	0.718891
H368	H	1.621028	0.009500	0.968891
O369	O	0.720328	-0.245392	0.226802
O370	O	0.970328	0.004608	0.476802
O371	O	1.220328	0.254608	0.726802
O372	O	1.470328	0.504608	0.976802
H373	H	0.685085	-0.214059	0.197964
H374	H	0.935085	0.035941	0.447964
H375	H	1.185085	0.285941	0.697964
H376	H	1.435085	0.535941	0.947964
H377	H	1.033122	-0.606900	0.381243
H378	H	1.283122	-0.356900	0.631243
H379	H	1.533122	-0.106900	0.881243
H380	H	1.783122	0.143100	1.131243
O381	O	1.070926	-0.927219	0.419031
O382	O	1.320926	-0.677219	0.669031
O383	O	1.570926	-0.427219	0.919031
O384	O	1.820926	-0.177219	1.169031
H385	H	1.065854	-0.869940	0.413956
H386	H	1.315854	-0.619940	0.663956
H387	H	1.565854	-0.369940	0.913956
H388	H	1.815854	-0.119940	1.163956
O389	O	1.058732	-0.245431	0.712597
O390	O	1.308732	0.004569	0.962597
O391	O	1.558732	0.254569	1.212597
O392	O	1.808732	0.504569	1.462597
H393	H	1.090058	-0.214150	0.677366
H394	H	1.340058	0.035850	0.927366
H395	H	1.590058	0.285850	1.177366
H396	H	1.840058	0.535850	1.427366
H397	H	0.883409	-0.420562	1.052170
H398	H	1.133409	-0.170562	1.302170
H399	H	1.383409	0.079438	1.552170
H400	H	1.633409	0.329438	1.802170
