data_functionalizedCrystal
_audit_creation_method	'MofGen! by Chris Wilmer'
_symmetry_space_group_name_H-M	'P1'
_symmetry_Int_Tables_number	1
_symmetry_cell_setting	triclinic
loop_
_symmetry_equiv_pos_as_xyz
  x,y,z
_cell_length_a	17.699104
_cell_length_b	17.699083
_cell_length_c	9.130313
_cell_angle_alpha	89.997869
_cell_angle_beta	89.998885
_cell_angle_gamma	83.287266
loop_
_atom_site_label
_atom_site_type_symbol
_atom_site_fract_x
_atom_site_fract_y
_atom_site_fract_z
O1	O	1.004062	0.095783	-0.121832
O2	O	1.337395	0.429116	0.211502
O3	O	1.670728	0.762450	0.544835
O4	O	0.783685	0.108219	-0.121829
O5	O	1.117019	0.441552	0.211505
O6	O	1.450352	0.774886	0.544838
O7	O	0.900100	-0.008188	-0.121817
O8	O	1.233433	0.325145	0.211516
O9	O	1.566766	0.658479	0.544849
O10	O	0.887647	0.212190	-0.121843
O11	O	1.220981	0.545523	0.211490
O12	O	1.554314	0.878856	0.544824
O13	O	0.900098	-0.008185	0.121781
O14	O	1.233432	0.325149	0.455115
O15	O	1.566765	0.658482	0.788448
O16	O	0.783684	0.108222	0.121770
O17	O	1.117017	0.441555	0.455104
O18	O	1.450351	0.774889	0.788437
O19	O	1.004060	0.095786	0.121767
O20	O	1.337393	0.429119	0.455100
O21	O	1.670727	0.762453	0.788434
Cu22	Cu	0.893872	0.102004	0.144011
Cu23	Cu	1.227205	0.435338	0.477344
Cu24	Cu	1.560539	0.768671	0.810678
Cu25	Cu	0.893874	0.102001	-0.144073
Cu26	Cu	1.227207	0.435334	0.189261
Cu27	Cu	1.560540	0.768667	0.522594
O28	O	0.887646	0.212193	0.121756
O29	O	1.220979	0.545526	0.455089
O30	O	1.554313	0.878859	0.788422
C31	C	0.755488	0.107772	-0.000029
C32	C	1.088821	0.441105	0.333305
C33	C	1.422155	0.774439	0.666638
C34	C	0.671471	0.106427	-0.000027
C35	C	1.004804	0.439761	0.333306
C36	C	1.338137	0.773094	0.666640
C37	C	0.146600	0.167171	-0.000050
C38	C	0.479933	0.500504	0.333284
C39	C	0.813266	0.833838	0.666617
C40	C	0.225543	0.168430	-0.000054
C41	C	0.558877	0.501764	0.333279
C42	C	0.892210	0.835097	0.666613
C43	C	0.274161	0.100095	-0.000046
C44	C	0.607494	0.433428	0.333288
C45	C	0.940828	0.766762	0.666621
C46	C	0.243831	0.030496	-0.000048
C47	C	0.577165	0.363829	0.333286
C48	C	0.910498	0.697163	0.666619
C49	C	0.164889	0.029238	-0.000054
C50	C	0.498222	0.362571	0.333279
C51	C	0.831555	0.695905	0.666613
C52	C	0.562197	0.035569	-0.000025
C53	C	0.895531	0.368903	0.333308
C54	C	1.228864	0.702236	0.666642
C55	C	0.641144	0.036833	-0.000014
C56	C	0.974478	0.370166	0.333319
C57	C	1.307811	0.703500	0.666652
C58	C	0.622852	0.174762	-0.000025
C59	C	0.956185	0.508095	0.333308
C60	C	1.289519	0.841428	0.666642
C61	C	0.543909	0.173503	-0.000031
C62	C	0.877243	0.506837	0.333302
C63	C	1.210576	0.840170	0.666636
C64	C	0.513587	0.103905	-0.000041
C65	C	0.846920	0.437238	0.333292
C66	C	1.180253	0.770572	0.666626
C67	C	0.427987	0.102541	-0.000039
C68	C	0.761320	0.435874	0.333294
C69	C	1.094653	0.769207	0.666628
C70	C	0.359759	0.101459	-0.000037
C71	C	0.693093	0.434792	0.333296
C72	C	1.026426	0.768125	0.666630
C73	C	0.899653	-0.036383	-0.000018
C74	C	1.232986	0.296950	0.333316
C75	C	1.566319	0.630283	0.666649
C76	C	0.898314	-0.120402	-0.000017
C77	C	1.231647	0.212932	0.333316
C78	C	1.564981	0.546265	0.666649
C79	C	0.966647	-0.169017	-0.000016
C80	C	1.299980	0.164316	0.333317
C81	C	1.633314	0.497649	0.666651
C82	C	0.965385	-0.247961	-0.000029
C83	C	1.298718	0.085373	0.333304
C84	C	1.632051	0.418706	0.666638
C85	C	0.895789	-0.278287	-0.000033
C86	C	1.229122	0.055047	0.333301
C87	C	1.562455	0.388380	0.666634
C88	C	0.827451	-0.229665	-0.000038
C89	C	1.160784	0.103669	0.333295
C90	C	1.494118	0.437002	0.666629
C91	C	0.828714	-0.150723	-0.000036
C92	C	1.162047	0.182610	0.333298
C93	C	1.495381	0.515944	0.666631
C94	C	0.822356	-0.548028	-0.000050
C95	C	1.155689	-0.214695	0.333283
C96	C	1.489022	0.118639	0.666617
C97	C	0.821098	-0.626976	-0.000048
C98	C	1.154431	-0.293643	0.333285
C99	C	1.487764	0.039690	0.666619
C100	C	0.959026	-0.645266	-0.000043
C101	C	1.292360	-0.311933	0.333290
C102	C	1.625693	0.021401	0.666623
C103	C	0.960289	-0.566324	-0.000041
C104	C	1.293623	-0.232991	0.333292
C105	C	1.626956	0.100342	0.666626
C106	C	0.891952	-0.517709	-0.000054
C107	C	1.225285	-0.184376	0.333279
C108	C	1.558618	0.148958	0.666613
C109	C	0.893321	-0.432110	-0.000043
C110	C	1.226655	-0.098776	0.333291
C111	C	1.559988	0.234557	0.666624
C112	C	0.894419	-0.363885	-0.000033
C113	C	1.227752	-0.030551	0.333300
C114	C	1.561085	0.302782	0.666633
C115	C	1.032258	0.096233	-0.000036
C116	C	1.365591	0.429566	0.333297
C117	C	1.698924	0.762899	0.666630
C118	C	1.116275	0.097578	-0.000047
C119	C	1.449608	0.430911	0.333286
C120	C	1.782941	0.764244	0.666619
C121	C	0.888093	0.240388	-0.000047
C122	C	1.221426	0.573722	0.333286
C123	C	1.554759	0.907055	0.666620
C124	C	0.889431	0.324406	-0.000057
C125	C	1.222765	0.657740	0.333276
C126	C	1.556098	0.991073	0.666609
N127	N	0.893876	0.102006	0.346634
N128	N	1.227210	0.435340	0.679967
N129	N	1.560543	0.768673	1.013300
N130	N	0.893875	0.101992	-0.346695
N131	N	1.227209	0.435326	-0.013362
N132	N	1.560542	0.768659	0.319971
C133	C	0.945437	0.050479	0.423291
C134	C	1.278771	0.383812	0.756624
C135	C	1.612104	0.717146	1.089957
C136	C	0.945435	0.050470	0.576628
C137	C	1.278769	0.383803	0.909961
C138	C	1.612102	0.717136	1.243294
C139	C	0.842309	0.153522	0.576637
C140	C	1.175642	0.486856	0.909970
C141	C	1.508975	0.820189	1.243304
C142	C	0.842307	0.153527	0.423303
C143	C	1.175641	0.486861	0.756636
C144	C	1.508974	0.820194	1.089970
C145	C	1.004979	-0.009016	0.423286
C146	C	1.338313	0.324318	0.756620
C147	C	1.671646	0.657651	1.089953
C148	C	1.004977	-0.009025	0.576623
C149	C	1.338311	0.324309	0.909957
C150	C	1.671644	0.657642	1.243290
H151	H	0.140200	-0.027432	-0.000055
H152	H	0.473534	0.305901	0.333278
H153	H	0.806867	0.639234	0.666612
C154	C	0.528851	-0.040985	-0.000011
C155	C	0.862185	0.292348	0.333322
C156	C	1.195518	0.625681	0.666656
H157	H	0.569114	-0.081500	0.000015
H158	H	0.902448	0.251833	0.333348
H159	H	1.235781	0.585166	0.666682
H160	H	0.498438	-0.044352	-0.084958
H161	H	0.831772	0.288981	0.248375
H162	H	1.165105	0.622315	0.581708
H163	H	0.498435	-0.044339	0.084949
H164	H	0.831769	0.288994	0.418282
H165	H	1.165102	0.622327	0.751616
C166	C	1.083363	0.007675	0.632859
C167	C	1.416696	0.341009	0.966192
C168	C	1.750029	0.674342	1.299526
H169	H	1.083359	0.007661	0.736912
H170	H	1.416693	0.340995	1.070245
H171	H	1.750026	0.674328	1.403578
H172	H	1.093629	0.056043	0.598195
H173	H	1.426962	0.389376	0.931528
H174	H	1.760296	0.722709	1.264861
H175	H	1.121457	-0.030388	0.598181
H176	H	1.454790	0.302945	0.931514
H177	H	1.788123	0.636279	1.264847
C178	C	0.093127	0.242341	-0.000067
C179	C	0.426460	0.575674	0.333267
C180	C	0.759794	0.909008	0.666600
H181	H	0.122497	0.283968	-0.000085
H182	H	0.455830	0.617301	0.333249
H183	H	0.789164	0.950635	0.666582
H184	H	0.061946	0.244723	0.084875
H185	H	0.395279	0.578057	0.418208
H186	H	0.728613	0.911390	0.751542
H187	H	0.061958	0.244713	-0.085032
H188	H	0.395291	0.578046	0.248301
H189	H	0.728625	0.911379	0.581634
H190	H	0.680728	-0.018817	-0.000012
H191	H	1.014061	0.314516	0.333322
H192	H	1.347395	0.647849	0.666655
H193	H	1.016961	-0.541638	-0.000031
H194	H	1.350295	-0.208304	0.333303
H195	H	1.683628	0.125029	0.666636
C196	C	0.747188	-0.494562	-0.000039
C197	C	1.080521	-0.161228	0.333295
C198	C	1.413854	0.172105	0.666628
H199	H	0.705560	-0.523931	-0.000021
H200	H	1.038894	-0.190598	0.333313
H201	H	1.372227	0.142735	0.666646
H202	H	0.744806	-0.463381	-0.084983
H203	H	1.078139	-0.130048	0.248351
H204	H	1.411473	0.203285	0.581684
H205	H	0.744816	-0.463392	0.084924
H206	H	1.078149	-0.130058	0.418258
H207	H	1.411482	0.203275	0.751591
H208	H	0.800322	0.195469	0.639077
H209	H	1.133655	0.528802	0.972411
H210	H	1.466989	0.862136	1.305744
C211	C	0.297308	-0.044671	-0.000035
C212	C	0.630641	0.288662	0.333299
C213	C	0.963975	0.621996	0.666632
H214	H	0.348667	-0.033956	-0.000015
H215	H	0.682000	0.299378	0.333318
H216	H	1.015334	0.632711	0.666652
H217	H	0.288133	-0.073217	-0.084979
H218	H	0.621466	0.260116	0.248354
H219	H	0.954800	0.593449	0.581688
H220	H	0.288122	-0.073210	0.084928
H221	H	0.621455	0.260123	0.418262
H222	H	0.954789	0.593457	0.751595
C223	C	0.656209	0.251320	-0.000037
C224	C	0.989542	0.584653	0.333297
C225	C	1.322876	0.917986	0.666630
H226	H	0.710187	0.242286	-0.000049
H227	H	1.043520	0.575619	0.333284
H228	H	1.376854	0.908953	0.666617
H229	H	0.639513	0.279451	0.084908
H230	H	0.972846	0.612785	0.418242
H231	H	1.306180	0.946118	0.751575
H232	H	0.639513	0.279447	-0.084999
H233	H	0.972847	0.612780	0.248334
H234	H	1.306180	0.946114	0.581668
H235	H	1.023320	-0.144333	-0.000004
H236	H	1.356653	0.189001	0.333329
H237	H	1.689986	0.522334	0.666662
H238	H	0.770785	-0.254362	-0.000050
H239	H	1.104118	0.078971	0.333283
H240	H	1.437451	0.412304	0.666617
H241	H	1.021028	-0.287541	-0.000025
H242	H	1.354361	0.045792	0.333308
H243	H	1.687695	0.379125	0.666642
H244	H	0.250230	0.225100	-0.000069
H245	H	0.583563	0.558433	0.333264
H246	H	0.916896	0.891767	0.666597
H247	H	0.773070	-0.111140	-0.000037
H248	H	1.106404	0.222193	0.333297
H249	H	1.439737	0.555527	0.666630
H250	H	1.014670	-0.684858	-0.000040
H251	H	1.348003	-0.351525	0.333293
H252	H	1.681337	-0.018192	0.666627
H253	H	0.800316	0.195479	0.360890
H254	H	1.133649	0.528812	0.694223
H255	H	1.466983	0.862145	1.027557
H256	H	0.992670	-0.067060	0.381673
H257	H	1.326003	0.266273	0.715007
H258	H	1.659336	0.599607	1.048340
H259	H	0.504328	0.229149	-0.000030
H260	H	0.837661	0.562482	0.333303
H261	H	1.170995	0.895816	0.666636
C262	C	0.744539	-0.660333	-0.000071
C263	C	1.077872	-0.327000	0.333262
C264	C	1.411206	0.006333	0.666596
H265	H	0.704020	-0.620074	-0.000095
H266	H	1.037353	-0.286741	0.333238
H267	H	1.370687	0.046592	0.666572
H268	H	0.741173	-0.690751	0.084874
H269	H	1.074507	-0.357417	0.418208
H270	H	1.407840	-0.024084	0.751541
H271	H	0.741191	-0.690746	-0.085033
H272	H	1.074524	-0.357413	0.248300
H273	H	1.407857	-0.024080	0.581634
H274	H	1.059740	0.008844	0.375725
H275	H	1.393073	0.342177	0.709058
H276	H	1.726407	0.675511	1.042392
H277	H	0.987167	-0.063811	0.624177
H278	H	1.320501	0.269522	0.957510
H279	H	1.653834	0.602855	1.290844
