data_functionalizedCrystal
_audit_creation_method	'MofGen! by Chris Wilmer'
_symmetry_space_group_name_H-M	'P1'
_symmetry_Int_Tables_number	1
_symmetry_cell_setting	triclinic
loop_
_symmetry_equiv_pos_as_xyz
  x,y,z
_cell_length_a	12.837943
_cell_length_b	14.044220
_cell_length_c	11.892095
_cell_angle_alpha	94.243827
_cell_angle_beta	85.689438
_cell_angle_gamma	94.008909
loop_
_atom_site_label
_atom_site_type_symbol
_atom_site_fract_x
_atom_site_fract_y
_atom_site_fract_z
O1	O	1.404549	0.242985	-0.093990
O2	O	1.101609	0.230709	-0.093996
O3	O	1.248531	0.098452	-0.093982
O4	O	1.257627	0.375241	-0.094004
O5	O	1.236280	0.109461	0.094025
O6	O	1.089357	0.241718	0.094010
O7	O	1.392297	0.253993	0.094017
Zn8	Zn	1.238882	0.249603	0.123864
Zn9	Zn	1.255024	0.235099	-0.123843
O10	O	1.245375	0.386250	0.094002
C11	C	1.056479	0.232067	0.000007
C12	C	0.940259	0.219699	0.000005
C13	C	0.713048	0.368378	0.000009
C14	C	0.603848	0.356763	0.000008
C15	C	0.612657	0.184853	0.000009
C16	C	0.721856	0.196469	0.000011
C17	C	0.772048	0.288234	0.000008
C18	C	0.881251	0.299849	0.000001
C19	C	0.890056	0.127940	0.000011
C20	C	0.780857	0.116324	0.000010
C21	C	1.238425	0.068282	0.000022
C22	C	1.226550	-0.038016	0.000023
C23	C	1.204843	-0.232639	0.000006
C24	C	1.289060	-0.282665	0.000005
C25	C	1.276982	-0.390960	-0.000005
C26	C	1.216919	-0.124334	0.000016
C27	C	1.437428	0.252635	0.000012
C28	C	1.553649	0.265002	0.000006
C29	C	1.255482	0.416420	-0.000004
C30	C	1.267357	0.522717	-0.000012
N31	N	1.227873	0.259502	0.292917
N32	N	1.266041	0.225193	-0.292896
C33	C	1.342643	0.156258	0.529576
C34	C	1.334956	0.163185	0.647917
C35	C	1.204807	0.280277	0.647942
C36	C	1.212494	0.273350	0.529601
C37	C	1.281415	0.211340	0.470422
C38	C	1.289107	0.204418	0.352079
C39	C	1.158954	0.321505	0.352106
C40	C	1.151267	0.328432	0.470447
H41	H	0.753915	0.443098	0.000005
H42	H	1.384812	0.118331	0.696076
O43	O	1.137704	0.340386	0.705395
C44	C	0.958761	0.382018	0.741608
C45	C	1.034640	0.313868	0.676489
H46	H	0.875421	0.360615	0.718244
H47	H	0.963695	0.377485	0.836361
H48	H	0.981013	0.458458	0.718368
H49	H	1.012440	0.237399	0.699634
H50	H	1.029694	0.318484	0.581751
H51	H	1.370237	-0.244167	-0.000070
O52	O	1.084170	0.388552	0.527891
C53	C	0.905237	0.430216	0.564088
C54	C	0.981104	0.362046	0.498986
H55	H	0.821894	0.408823	0.540724
H56	H	0.910167	0.425695	0.658844
H57	H	0.927504	0.506649	0.540832
H58	H	0.958888	0.285583	0.522147
H59	H	0.976162	0.366650	0.404246
H60	H	1.109101	0.366359	0.303930
H61	H	0.922115	0.374569	0.000002
H62	H	0.555814	0.422025	0.000011
H63	H	0.739974	0.041612	0.000025
H64	H	0.571765	0.110147	0.000104
H65	H	0.938107	0.062681	0.000003
H66	H	1.123677	-0.271140	0.000002
H67	H	1.345229	0.153929	0.303896
H68	H	1.398769	0.105774	0.481391
