data_functionalizedCrystal
_audit_creation_method	'MofGen! by Chris Wilmer'
_symmetry_space_group_name_H-M	'P1'
_symmetry_Int_Tables_number	1
_symmetry_cell_setting	triclinic
loop_
_symmetry_equiv_pos_as_xyz
  x,y,z
_cell_length_a	10.654554
_cell_length_b	10.654551
_cell_length_c	9.730223
_cell_angle_alpha	90.001469
_cell_angle_beta	89.999614
_cell_angle_gamma	84.486102
loop_
_atom_site_label
_atom_site_type_symbol
_atom_site_fract_x
_atom_site_fract_y
_atom_site_fract_z
O1	O	1.667831	0.176421	-0.114286
O2	O	1.302354	0.193221	-0.114287
O3	O	1.493495	0.002082	-0.114287
O4	O	1.476690	0.367560	-0.114286
O5	O	1.493492	0.002087	0.114293
O6	O	1.302351	0.193226	0.114293
O7	O	1.667829	0.176426	0.114294
Zn8	Zn	1.485090	0.184827	0.150585
Zn9	Zn	1.485093	0.184821	-0.150579
O10	O	1.476688	0.367565	0.114294
C11	C	1.255555	0.191989	0.000003
C12	C	1.116112	0.188295	0.000002
C13	C	0.933549	0.068808	-0.000010
C14	C	1.064571	0.072279	0.000000
C15	C	1.036623	0.300848	0.000008
C16	C	0.905604	0.297376	0.000008
C17	C	0.882016	-0.047215	-0.000026
C18	C	0.961496	-0.159769	-0.000030
C19	C	1.092517	-0.156299	-0.000020
C20	C	1.144059	-0.040274	-0.000006
C21	C	1.492259	-0.044713	-0.000001
C22	C	1.488567	-0.184156	-0.000010
C23	C	1.486836	-0.249671	-0.124606
C24	C	1.483356	-0.380691	-0.124600
C25	C	1.483343	-0.380672	0.124610
C26	C	1.486814	-0.249653	0.124603
C27	C	1.488589	-0.184175	-0.249219
C28	C	1.486859	-0.249690	-0.373825
C29	C	1.483379	-0.380710	-0.373819
C30	C	1.481628	-0.446216	-0.249206
C31	C	1.714628	0.177659	0.000001
C32	C	1.854071	0.181353	-0.000008
C33	C	1.477923	0.414361	0.000004
C34	C	1.481616	0.553804	0.000004
N35	N	1.485097	0.184831	0.356122
N36	N	1.485095	0.184807	-0.356115
C37	C	1.569756	0.100223	0.428047
C38	C	1.569753	0.100208	0.571930
C39	C	1.400427	0.269419	0.571949
C40	C	1.400425	0.269427	0.428069
C41	C	1.654428	0.015627	0.356100
C42	C	1.739095	-0.068986	0.428026
C43	C	1.739092	-0.069002	0.571909
C44	C	1.654421	0.015597	0.643866
H45	H	0.775334	-0.050054	-0.000038
H46	H	1.478776	-0.552899	-0.249211
Br47	Br	1.200380	-0.309046	-0.000001
Br48	Br	1.493324	-0.006364	-0.249234
H49	H	0.919521	-0.254231	-0.000052
H50	H	1.488273	-0.196345	-0.475280
Br51	Br	1.106574	0.458299	0.000021
Br52	Br	1.321877	-0.035568	0.000118
H53	H	1.488197	-0.196306	0.226060
H54	H	1.654417	0.015568	0.761026
Br55	Br	1.654444	0.015653	0.160831
H56	H	1.481918	-0.434017	0.226064
Br57	Br	0.797732	0.450117	0.000029
Br58	Br	1.481013	-0.469619	-0.542923
H59	H	1.808024	-0.137870	0.369432
Br60	Br	1.853980	-0.183843	0.669523
Br61	Br	1.285526	0.384225	0.669603
H62	H	1.331487	0.338321	0.369506
