data_functionalizedCrystal
_audit_creation_method	'MofGen! by Chris Wilmer'
_symmetry_space_group_name_H-M	'P1'
_symmetry_Int_Tables_number	1
_symmetry_cell_setting	triclinic
loop_
_symmetry_equiv_pos_as_xyz
  x,y,z
_cell_length_a	27.732048
_cell_length_b	27.732048
_cell_length_c	12.503572
_cell_angle_alpha	93.489054
_cell_angle_beta	93.483411
_cell_angle_gamma	97.357345
loop_
_atom_site_label
_atom_site_type_symbol
_atom_site_fract_x
_atom_site_fract_y
_atom_site_fract_z
O1	O	0.643731	-0.054704	0.089192
O2	O	1.143731	0.445296	0.589192
O3	O	0.502939	-0.063448	0.089227
O4	O	1.002939	0.436552	0.589227
O5	O	0.577707	0.011320	0.089188
O6	O	1.077707	0.511320	0.589188
O7	O	0.568963	-0.129472	0.089231
O8	O	1.068963	0.370528	0.589231
O9	O	0.572084	0.005688	-0.089451
O10	O	1.072084	0.505688	0.410549
O11	O	0.497316	-0.069080	-0.089412
O12	O	0.997316	0.430920	0.410588
O13	O	0.638108	-0.060336	-0.089447
O14	O	1.138108	0.439664	0.410553
Cu15	Cu	0.567199	-0.065222	-0.105741
Cu16	Cu	1.067199	0.434778	0.394259
Cu17	Cu	0.573849	-0.058562	0.105521
Cu18	Cu	1.073849	0.441438	0.605521
O19	O	0.563340	-0.135104	-0.089408
O20	O	1.063340	0.364896	0.410592
C21	C	0.482121	-0.066081	-0.000089
C22	C	0.982121	0.433919	0.499911
C23	C	0.428466	-0.065527	-0.000077
C24	C	0.928466	0.434473	0.499923
C25	C	0.089650	-0.106232	-0.000111
C26	C	0.589650	0.393768	0.499889
C27	C	-0.112010	-0.104182	-0.000121
C28	C	0.387990	0.395818	0.499879
O29	O	-0.143267	-0.141403	-0.000156
O30	O	0.356733	0.358597	0.499844
N31	N	-0.131134	-0.059847	-0.000133
N32	N	0.368866	0.440153	0.499867
C33	C	-0.099840	-0.016022	-0.000149
C34	C	0.400160	0.483978	0.499851
O35	O	-0.120734	0.021735	-0.000170
O36	O	0.379266	0.521735	0.499830
C37	C	0.101819	-0.018073	-0.000146
C38	C	0.601819	0.481927	0.499854
C39	C	0.120940	-0.062410	-0.000124
C40	C	0.620940	0.437590	0.499876
C41	C	0.108772	-0.150566	-0.000089
C42	C	0.608772	0.349434	0.499911
C43	C	0.159184	-0.151078	-0.000081
C44	C	0.659184	0.348922	0.499919
C45	C	0.190475	-0.107256	-0.000094
C46	C	0.690475	0.392744	0.499906
C47	C	0.171353	-0.062922	-0.000115
C48	C	0.671353	0.437078	0.499885
C49	C	0.133112	0.025751	-0.000170
C50	C	0.633112	0.525751	0.499830
C51	C	0.183529	0.025234	-0.000172
C52	C	0.683529	0.525234	0.499828
C53	C	0.202651	-0.019103	-0.000150
C54	C	0.702651	0.480897	0.499850
C55	C	0.253055	-0.019613	-0.000120
C56	C	0.753055	0.480387	0.499880
N57	N	0.272179	-0.063948	-0.000108
N58	N	0.772179	0.436052	0.499892
C59	C	0.240889	-0.107769	-0.000095
C60	C	0.740889	0.392231	0.499905
C61	C	-0.205714	-0.014948	-0.000148
C62	C	0.294286	0.485052	0.499852
C63	C	-0.256128	-0.014435	-0.000147
C64	C	0.243872	0.485565	0.499853
C65	C	-0.268295	-0.102595	-0.000121
C66	C	0.231705	0.397405	0.499879
C67	C	-0.217879	-0.103107	-0.000115
C68	C	0.282121	0.396893	0.499885
C69	C	-0.186590	-0.059283	-0.000136
C70	C	0.313410	0.440717	0.499864
C71	C	0.346759	-0.108841	-0.000077
C72	C	0.846759	0.391159	0.499923
C73	C	0.397176	-0.109349	-0.000064
C74	C	0.897176	0.390651	0.499936
C75	C	0.409338	-0.021189	-0.000095
C76	C	0.909338	0.478811	0.499905
C77	C	0.358925	-0.020681	-0.000102
C78	C	0.858925	0.479319	0.499898
C79	C	0.327636	-0.064511	-0.000097
C80	C	0.827636	0.435489	0.499903
O81	O	0.284340	0.017589	-0.000097
O82	O	0.784340	0.517589	0.499903
O83	O	0.261791	-0.145521	-0.000098
O84	O	0.761791	0.354479	0.499902
C85	C	0.039238	-0.105720	-0.000119
C86	C	0.539238	0.394280	0.499881
C87	C	0.020116	-0.061386	-0.000141
C88	C	0.520116	0.438614	0.499859
C89	C	0.051406	-0.017565	-0.000153
C90	C	0.551406	0.482435	0.499847
C91	C	-0.030298	-0.060873	-0.000139
C92	C	0.469702	0.439127	0.499861
C93	C	-0.061589	-0.104695	-0.000126
C94	C	0.438411	0.395305	0.499874
C95	C	-0.042465	-0.149030	-0.000115
C96	C	0.457535	0.350970	0.499885
C97	C	0.007948	-0.149542	-0.000106
C98	C	0.507948	0.350458	0.499894
C99	C	0.032282	0.026770	-0.000165
C100	C	0.532282	0.526770	0.499835
C101	C	-0.018131	0.027279	-0.000172
C102	C	0.481869	0.527279	0.499828
C103	C	-0.049421	-0.016543	-0.000159
C104	C	0.450579	0.483457	0.499841
C105	C	0.574712	0.026511	-0.000134
C106	C	1.074712	0.526511	0.499866
C107	C	0.574159	0.080165	-0.000143
C108	C	1.074159	0.580165	0.499857
C109	C	0.658927	-0.057703	-0.000129
C110	C	1.158927	0.442297	0.499871
C111	C	0.712582	-0.058256	-0.000134
C112	C	1.212582	0.441744	0.499866
C113	C	0.566335	-0.150295	-0.000083
C114	C	1.066335	0.349705	0.499917
C115	C	0.566889	-0.203949	-0.000067
C116	C	1.066889	0.296051	0.499933
C117	C	0.614864	0.418982	-0.000098
C118	C	1.114864	0.918982	0.499902
C119	C	0.612814	0.620642	-0.000082
C120	C	1.112814	1.120642	0.499918
O121	O	0.650036	0.651899	-0.000044
O122	O	1.150036	1.151899	0.499956
N123	N	0.568479	0.639766	-0.000073
N124	N	1.068479	1.139766	0.499927
C125	C	0.524654	0.608472	-0.000060
C126	C	1.024654	1.108472	0.499940
O127	O	0.486897	0.629366	-0.000040
O128	O	0.986897	1.129366	0.499960
C129	C	0.526705	0.406813	-0.000067
C130	C	1.026705	0.906813	0.499933
C131	C	0.571042	0.387692	-0.000088
C132	C	1.071042	0.887692	0.499912
C133	C	0.659198	0.399860	-0.000117
C134	C	1.159198	0.899860	0.499883
C135	C	0.659710	0.349448	-0.000127
C136	C	1.159710	0.849448	0.499873
C137	C	0.615888	0.318157	-0.000117
C138	C	1.115888	0.818157	0.499883
C139	C	0.571554	0.337279	-0.000098
C140	C	1.071554	0.837279	0.499902
C141	C	0.482881	0.375520	-0.000047
C142	C	0.982881	0.875520	0.499953
C143	C	0.483397	0.325103	-0.000046
C144	C	0.983397	0.825103	0.499954
C145	C	0.527735	0.305981	-0.000067
C146	C	1.027735	0.805981	0.499933
C147	C	0.528244	0.255577	-0.000098
C148	C	1.028244	0.755577	0.499902
N149	N	0.572579	0.236453	-0.000108
N150	N	1.072579	0.736453	0.499892
C151	C	0.616401	0.267743	-0.000117
C152	C	1.116401	0.767743	0.499883
C153	C	0.523580	0.714346	-0.000058
C154	C	1.023580	1.214346	0.499942
C155	C	0.523067	0.764760	-0.000058
C156	C	1.023067	1.264760	0.499942
C157	C	0.611227	0.776927	-0.000078
C158	C	1.111227	1.276927	0.499922
C159	C	0.611739	0.726512	-0.000086
C160	C	1.111739	1.226512	0.499914
C161	C	0.567915	0.695222	-0.000067
C162	C	1.067915	1.195222	0.499933
C163	C	0.617473	0.161873	-0.000139
C164	C	1.117473	0.661873	0.499861
C165	C	0.617981	0.111456	-0.000153
C166	C	1.117981	0.611456	0.499847
C167	C	0.529821	0.099294	-0.000126
C168	C	1.029821	0.599294	0.499874
C169	C	0.529313	0.149706	-0.000118
C170	C	1.029313	0.649706	0.499882
C171	C	0.573143	0.180996	-0.000120
C172	C	1.073143	0.680996	0.499880
O173	O	0.491043	0.224292	-0.000124
O174	O	0.991043	0.724292	0.499876
O175	O	0.654153	0.246841	-0.000113
O176	O	1.154153	0.746841	0.499887
C177	C	0.614352	0.469394	-0.000088
C178	C	1.114352	0.969394	0.499912
C179	C	0.570018	0.488516	-0.000069
C180	C	1.070018	0.988516	0.499931
C181	C	0.526197	0.457226	-0.000059
C182	C	1.026197	0.957226	0.499941
C183	C	0.569505	0.538930	-0.000069
C184	C	1.069505	1.038930	0.499931
C185	C	0.613327	0.570221	-0.000078
C186	C	1.113327	1.070221	0.499922
C187	C	0.657662	0.551097	-0.000088
C188	C	1.157662	1.051097	0.499912
C189	C	0.658174	0.500685	-0.000098
C190	C	1.158174	1.000685	0.499902
C191	C	0.481862	0.476350	-0.000049
C192	C	0.981862	0.976350	0.499951
C193	C	0.481353	0.526763	-0.000041
C194	C	0.981353	1.026763	0.499959
C195	C	0.525175	0.558053	-0.000050
C196	C	1.025175	1.058053	0.499950
N197	N	0.562525	-0.069907	-0.254331
N198	N	1.062525	0.430093	0.245669
C199	C	0.555650	-0.076802	-0.473442
C200	C	1.055650	0.423198	0.026558
C201	C	0.585400	-0.046980	-0.526785
C202	C	1.085400	0.453020	-0.026785
C203	C	0.581574	-0.050816	-0.648706
C204	C	1.081574	0.449184	-0.148706
C205	C	0.559475	-0.072966	-0.351510
C206	C	1.059475	0.427034	0.148490
N207	N	0.578526	-0.053873	0.254111
N208	N	1.078526	0.446127	0.754111
H209	H	0.412742	-0.145455	-0.000045
H210	H	0.912742	0.354545	0.499955
N211	N	0.477772	0.784280	-0.000062
N212	N	0.977772	1.284280	0.499938
N213	N	0.438651	0.756331	-0.000054
N214	N	0.938651	1.256331	0.499946
H215	H	0.406660	0.770115	-0.000053
H216	H	0.906660	1.270115	0.499947
N217	N	0.438635	0.293134	-0.000019
N218	N	0.938635	0.793134	0.499981
N219	N	0.431459	0.266012	0.075282
N220	N	0.931459	0.766012	0.575282
H221	H	0.399846	0.243434	0.075300
H222	H	0.899846	0.743434	0.575300
N223	N	0.441306	0.023570	-0.000139
N224	N	0.941306	0.523570	0.499861
N225	N	0.437386	0.050760	-0.075463
N226	N	0.937386	0.550760	0.424537
H227	H	0.459964	0.082371	-0.075505
H228	H	0.959964	0.582371	0.424495
H229	H	0.321288	-0.144532	-0.000075
H230	H	0.821288	0.355468	0.499925
H231	H	0.023511	-0.185646	-0.000089
H232	H	0.523511	0.314354	0.499911
N233	N	0.484023	0.169239	-0.000085
N234	N	0.984023	0.669239	0.499915
N235	N	0.476270	0.198375	0.075232
N236	N	0.976270	0.698375	0.575232
H237	H	0.444283	0.212166	0.075266
H238	H	0.944283	0.712166	0.575266
N239	N	0.520097	-0.112451	-0.530994
N240	N	1.020097	0.387549	-0.030994
N241	N	0.492124	-0.140496	-0.480918
N242	N	0.992124	0.359504	0.019082
H243	H	0.467015	-0.165674	-0.521574
H244	H	0.967015	0.334326	-0.021574
N245	N	0.620953	-0.011337	-0.469199
N246	N	1.120953	0.488663	0.030801
N247	N	0.624052	-0.008230	-0.368803
N248	N	1.124052	0.491770	0.131197
H249	H	0.649161	0.016941	-0.328127
H250	H	1.149161	0.516941	0.171873
H251	H	-0.271692	0.021670	-0.000148
H252	H	0.228308	0.521670	0.499852
H253	H	0.117552	0.061855	-0.000189
H254	H	0.617552	0.561855	0.499811
N255	N	0.178704	-0.196372	-0.000057
N256	N	0.678704	0.303628	0.499943
N257	N	0.150753	-0.235492	-0.000046
N258	N	0.650753	0.264508	0.499954
H259	H	0.164535	-0.267484	-0.000030
H260	H	0.664535	0.232516	0.499970
H261	H	0.694278	0.485121	-0.000114
H262	H	1.194278	0.985121	0.499886
N263	N	0.076821	-0.195338	-0.000083
N264	N	0.576821	0.304662	0.499917
N265	N	0.093911	-0.234914	-0.000068
N266	N	0.593911	0.265086	0.499932
H267	H	0.071349	-0.266538	-0.000058
H268	H	0.571349	0.233462	0.499942
N269	N	-0.198357	-0.148400	-0.000091
N270	N	0.301643	0.351600	0.499909
N271	N	-0.226306	-0.187521	-0.000073
N272	N	0.273694	0.312479	0.499927
H273	H	-0.212522	-0.219512	-0.000058
H274	H	0.287478	0.280488	0.499942
H275	H	0.057754	0.062456	-0.000178
H276	H	0.557754	0.562456	0.499822
N277	N	0.478806	0.682395	-0.000039
N278	N	0.978806	1.182395	0.499961
N279	N	0.439228	0.699482	-0.000033
N280	N	0.939228	1.199482	0.499967
H281	H	0.407606	0.676919	-0.000024
H282	H	0.907606	1.176919	0.499976
H283	H	-0.293780	-0.138276	-0.000111
H284	H	0.206220	0.361724	0.499889
H285	H	0.446176	0.450877	-0.000039
H286	H	0.946176	0.950877	0.499961
H287	H	-0.180242	0.020742	-0.000166
H288	H	0.319758	0.520742	0.499834
H289	H	0.693343	0.576582	-0.000101
H290	H	1.193343	1.076582	0.499899
N291	N	0.215483	0.070006	-0.000206
N292	N	0.715483	0.570006	0.499794
N293	N	0.198399	0.109585	-0.000231
N294	N	0.698399	0.609585	0.499769
H295	H	0.220965	0.141205	-0.000255
H296	H	0.720965	0.641205	0.499745
H297	H	0.343357	0.015423	-0.000105
H298	H	0.843357	0.515423	0.499895
H299	H	0.647843	0.710947	-0.000102
H300	H	1.147843	1.210947	0.499898
H301	H	-0.067950	-0.184711	-0.000100
H302	H	0.432050	0.315289	0.499900
N303	N	-0.037650	0.072576	-0.000182
N304	N	0.462350	0.572576	0.499818
N305	N	-0.009701	0.111697	-0.000195
N306	N	0.490299	0.611697	0.499805
H307	H	-0.023486	0.143688	-0.000209
H308	H	0.476514	0.643688	0.499791
H309	H	0.694885	0.425332	-0.000121
H310	H	1.194885	0.925332	0.499879
H311	H	0.654087	0.095890	-0.000172
H312	H	1.154087	0.595890	0.499828
H313	H	0.445245	0.542325	-0.000033
H314	H	0.945245	1.042325	0.499967
N315	N	0.655996	0.808887	-0.000093
N316	N	1.155996	1.308887	0.499907
N317	N	0.683203	0.804965	-0.075393
N318	N	1.183203	1.304965	0.424607
H319	H	0.714820	0.827538	-0.075397
H320	H	1.214820	1.327538	0.424603
H321	H	0.653164	0.187344	-0.000136
H322	H	1.153164	0.687344	0.499864
H323	H	0.446777	0.391079	-0.000024
H324	H	0.946777	0.891079	0.499976
N325	N	0.705005	0.329928	-0.000144
N326	N	1.205005	0.829928	0.499856
N327	N	0.744124	0.357879	-0.000148
N328	N	1.244124	0.857879	0.499852
H329	H	0.776117	0.344097	-0.000156
H330	H	1.276117	0.844097	0.499844
H331	H	0.494142	0.073808	-0.000122
H332	H	0.994142	0.573808	0.499878
