data_functionalizedCrystal
_audit_creation_method	'MofGen! by Chris Wilmer'
_symmetry_space_group_name_H-M	'P1'
_symmetry_Int_Tables_number	1
_symmetry_cell_setting	triclinic
loop_
_symmetry_equiv_pos_as_xyz
  x,y,z
_cell_length_a	10.723024
_cell_length_b	10.723022
_cell_length_c	9.198806
_cell_angle_alpha	89.997988
_cell_angle_beta	89.996352
_cell_angle_gamma	84.467548
loop_
_atom_site_label
_atom_site_type_symbol
_atom_site_fract_x
_atom_site_fract_y
_atom_site_fract_z
O1	O	1.657187	0.175025	-0.120879
O2	O	2.157187	0.675025	0.379121
O3	O	1.294034	0.191778	-0.120884
O4	O	1.794034	0.691778	0.379116
O5	O	1.483988	0.001825	-0.120876
O6	O	1.983988	0.501825	0.379124
O7	O	1.467233	0.364978	-0.120887
O8	O	1.967233	0.864978	0.379113
O9	O	1.483973	0.001824	0.120909
O10	O	1.983973	0.501824	0.620909
O11	O	1.294019	0.191777	0.120901
O12	O	1.794019	0.691777	0.620901
O13	O	1.657172	0.175024	0.120906
O14	O	2.157172	0.675024	0.620906
Cu15	Cu	1.475594	0.183401	0.142981
Cu16	Cu	1.975594	0.683401	0.642981
Cu17	Cu	1.475612	0.183401	-0.142958
Cu18	Cu	1.975612	0.683401	0.357042
O19	O	1.467218	0.364977	0.120898
O20	O	1.967218	0.864977	0.620898
C21	C	1.247527	0.190558	0.000008
C22	C	1.747527	0.690558	0.500008
C23	C	1.108973	0.186911	0.000007
C24	C	1.608973	0.686911	0.500007
C25	C	1.482762	-0.044675	0.000015
C26	C	1.982762	0.455325	0.500015
C27	C	1.479115	-0.183229	0.000010
C28	C	1.979115	0.316771	0.500010
C29	C	1.033990	0.293199	0.000002
C30	C	1.533990	0.793199	0.500002
C31	C	0.890786	0.289431	0.000001
C32	C	1.390786	0.789431	0.500001
C33	C	1.703679	0.176243	0.000011
C34	C	2.203679	0.676243	0.500011
C35	C	1.842233	0.179891	0.000003
C36	C	2.342233	0.679891	0.500003
C37	C	1.369575	-0.231790	0.000006
C38	C	1.869575	0.268210	0.500006
C39	C	1.365803	-0.374993	0.000001
C40	C	1.865803	0.125007	0.500001
C41	C	1.468444	0.411477	0.000004
C42	C	1.968444	0.911477	0.500004
C43	C	1.472091	0.550031	-0.000000
C44	C	1.972091	1.050031	0.500000
N45	N	1.475591	0.183400	0.344095
N46	N	1.975591	0.683400	0.844095
N47	N	1.475625	0.183393	-0.344072
N48	N	1.975625	0.683393	0.155928
C49	C	1.555347	0.103292	0.416295
C50	C	2.055347	0.603292	0.916295
C51	C	1.555366	0.103288	0.583707
C52	C	2.055366	0.603288	1.083707
H53	H	1.075811	0.386984	0.000008
H54	H	1.575811	0.886984	0.500008
Br55	Br	0.783401	0.441098	-0.000023
Br56	Br	1.283401	0.941098	0.499977
H57	H	1.272016	-0.416805	-0.000010
H58	H	1.772016	0.083195	0.499990
H59	H	1.565883	-0.408165	-0.000051
H60	H	2.065883	0.091835	0.499949
H61	H	0.906659	0.088896	-0.000003
H62	H	1.406659	0.588896	0.499997
H63	H	1.067151	0.093125	-0.000028
H64	H	1.567151	0.593125	0.499972
H65	H	1.623653	0.034709	0.645796
H66	H	2.123653	0.534709	1.145796
Br67	Br	1.217911	-0.124394	0.000020
Br68	Br	1.717911	0.375606	0.500020
H69	H	1.570103	-0.247672	0.000016
H70	H	2.070103	0.252328	0.500016
Br71	Br	1.361816	0.297723	0.552459
Br72	Br	1.861816	0.797723	1.052459
H73	H	1.623611	0.034707	0.354171
H74	H	2.123611	0.534707	0.854171
H75	H	1.407318	0.251975	0.406220
H76	H	1.907318	0.751975	0.906220
