data_functionalizedCrystal
_audit_creation_method	'MofGen! by Chris Wilmer'
_symmetry_space_group_name_H-M	'P1'
_symmetry_Int_Tables_number	1
_symmetry_cell_setting	triclinic
loop_
_symmetry_equiv_pos_as_xyz
  x,y,z
_cell_length_a	15.299816
_cell_length_b	17.639874
_cell_length_c	15.296720
_cell_angle_alpha	108.495807
_cell_angle_beta	69.242954
_cell_angle_gamma	90.272001
loop_
_atom_site_label
_atom_site_type_symbol
_atom_site_fract_x
_atom_site_fract_y
_atom_site_fract_z
Zn1	Zn	-0.129366	-1.188695	0.258695
Zn2	Zn	0.370634	-0.688695	0.758695
Zn3	Zn	-0.247098	-1.227602	0.119281
Zn4	Zn	0.252902	-0.727602	0.619281
Zn5	Zn	-0.133940	-1.076042	0.134599
Zn6	Zn	0.366060	-0.576042	0.634599
Zn7	Zn	-0.316249	-1.075977	0.316986
Zn8	Zn	0.183751	-0.575977	0.816986
O9	O	-0.206663	-1.142079	0.207390
O10	O	0.293337	-0.642079	0.707390
O11	O	-0.114129	-1.304456	0.209396
O12	O	0.385871	-0.804456	0.709396
O13	O	-0.205061	-1.223807	-0.013362
O14	O	0.294939	-0.723807	0.486638
O15	O	-0.007765	-1.074730	0.133076
O16	O	0.492235	-0.574730	0.633076
O17	O	-0.200626	-1.333041	0.106969
O18	O	0.299374	-0.833041	0.606969
O19	O	-0.004405	-1.157496	0.224249
O20	O	0.495595	-0.657496	0.724249
O21	O	-0.121925	-1.112457	-0.002108
O22	O	0.378075	-0.612457	0.497892
O23	O	-0.188978	-0.965433	0.189599
O24	O	0.311022	-0.465433	0.689599
O25	O	-0.318485	-1.074619	0.443929
O26	O	0.181515	-0.574619	0.943929
O27	O	-0.322920	-0.965385	0.323598
O28	O	0.177080	-0.465385	0.823598
O29	O	-0.181183	-1.157432	0.401103
O30	O	0.318817	-0.657432	0.901103
O31	O	-0.381839	-1.223744	0.163491
O32	O	0.118161	-0.723744	0.663491
O33	O	-0.432645	-1.112346	0.308745
O34	O	0.067355	-0.612346	0.808745
C35	C	-0.263950	-0.936732	0.264587
C36	C	0.236050	-0.436732	0.764587
C37	C	-0.288484	-0.848883	0.289081
C38	C	0.211516	-0.348883	0.789081
C39	C	-0.020203	-0.559865	0.021254
C40	C	0.479797	-0.059865	0.521254
C41	C	-0.043277	-0.477318	0.044286
C42	C	0.456723	0.022682	0.544286
C43	C	-0.182866	-0.477369	0.183630
C44	C	0.317134	0.022631	0.683630
C45	C	-0.159801	-0.559916	0.160612
C46	C	0.340199	-0.059916	0.660612
C47	C	-0.078469	-0.601158	0.079423
C48	C	0.421531	-0.101158	0.579423
C49	C	-0.218067	-0.601209	0.218781
C50	C	0.281933	-0.101209	0.718781
C51	C	-0.195007	-0.683750	0.195762
C52	C	0.304993	-0.183750	0.695762
C53	C	-0.113680	-0.724998	0.114574
C54	C	0.386320	-0.224998	0.614574
C55	C	-0.055408	-0.683698	0.056403
C56	C	0.444592	-0.183698	0.556403
C57	C	-0.299403	-0.559967	0.299966
C58	C	0.200597	-0.059967	0.799966
C59	C	-0.357669	-0.601260	0.358135
C60	C	0.142331	-0.101260	0.858135
C61	C	-0.334605	-0.683802	0.335120
C62	C	0.165395	-0.183802	0.835120
C63	C	-0.253278	-0.725049	0.253932
C64	C	0.246722	-0.225049	0.753932
C65	C	-0.392877	-0.725101	0.393291
C66	C	0.107123	-0.225101	0.893291
C67	C	-0.369816	-0.807642	0.370271
C68	C	0.130184	-0.307642	0.870271
C69	C	-0.230218	-0.807590	0.230913
C70	C	0.269782	-0.307590	0.730913
C71	C	-0.439798	-1.172279	0.240796
C72	C	0.060202	-0.672279	0.740796
C73	C	-0.539521	-1.185267	0.255099
C74	C	-0.039521	-0.685267	0.755099
C75	C	-0.827835	-1.049730	0.105346
C76	C	-0.327835	-0.549730	0.605346
C77	C	-0.734142	-1.037523	0.091911
C78	C	-0.234142	-0.537523	0.591911
C79	C	-0.685482	-1.074458	0.132706
C80	C	-0.185482	-0.574458	0.632706
C81	C	-0.730524	-1.123602	0.186940
C82	C	-0.230524	-0.623602	0.686940
C83	C	-0.824228	-1.135806	0.200383
C84	C	-0.324228	-0.635806	0.700383
C85	C	-0.681876	-1.160533	0.227744
C86	C	-0.181876	-0.660533	0.727744
C87	C	-0.726918	-1.209677	0.281977
C88	C	-0.226918	-0.709677	0.781977
C89	C	-0.820612	-1.221879	0.295417
C90	C	-0.320612	-0.721879	0.795417
C91	C	-0.869272	-1.184944	0.254622
C92	C	-0.369272	-0.684944	0.754622
C93	C	-0.588172	-1.148330	0.214301
C94	C	-0.088172	-0.648330	0.714301
C95	C	-0.584565	-1.234405	0.309338
C96	C	-0.084565	-0.734405	0.809338
C97	C	-0.678258	-1.246612	0.322773
C98	C	-0.178258	-0.746612	0.822773
C99	C	0.027384	-1.111780	0.173869
C100	C	0.527384	-0.611780	0.673869
C101	C	0.127121	-1.098869	0.159584
C102	C	0.627121	-0.598869	0.659584
C103	C	-0.257037	-1.111679	0.458412
C104	C	0.242963	-0.611679	0.958412
C105	C	-0.278504	-1.098724	0.565382
C106	C	0.221496	-0.598724	1.065382
C107	C	-0.149140	-0.348228	0.149960
C108	C	0.350860	0.151772	0.649960
C109	C	-0.124593	-0.436076	0.125456
C110	C	0.375407	0.063924	0.625456
C111	C	-0.156408	-1.172398	-0.042677
C112	C	0.343592	-0.672398	0.457323
C113	C	-0.134646	-1.185473	-0.149726
C114	C	0.365354	-0.685473	0.350274
C115	C	-0.053074	-1.234679	0.777724
C116	C	0.446926	-0.734679	1.277724
C117	C	-0.032906	-1.246856	0.677219
C118	C	0.467094	-0.746856	1.177219
C119	C	-0.094303	-1.209823	0.649255
C120	C	0.405697	-0.709823	1.149255
C121	C	-0.175873	-1.160613	0.721806
C122	C	0.324127	-0.660613	1.221806
C123	C	-0.196048	-1.148440	0.822320
C124	C	0.303952	-0.648440	1.322320
C125	C	-0.237276	-1.123584	0.693851
C126	C	0.262724	-0.623584	1.193851
C127	C	-0.318847	-1.074374	0.766402
C128	C	0.181153	-0.574374	1.266402
C129	C	-0.339017	-1.062202	0.866906
C130	C	0.160983	-0.562202	1.366906
C131	C	-0.277619	-1.099234	0.894871
C132	C	0.222381	-0.599234	1.394871
C133	C	-0.217102	-1.135757	0.593336
C134	C	0.282898	-0.635757	1.093336
C135	C	-0.360075	-1.049518	0.637933
C136	C	0.139925	-0.549518	1.137933
C137	C	-0.380244	-1.037342	0.738438
C138	C	0.119756	-0.537342	1.238438
H139	H	0.046036	-0.593442	-0.044846
H140	H	0.546036	-0.093442	0.455154
H141	H	-0.609193	-1.064517	0.121763
H142	H	-0.109193	-0.564517	0.621763
H143	H	-0.551507	-1.108316	0.170143
H144	H	-0.051507	-0.608316	0.670143
H145	H	-0.697473	-0.997510	0.047755
H146	H	-0.197473	-0.497510	0.547755
H147	H	-0.857285	-1.261891	0.339583
H148	H	-0.357285	-0.761891	0.839583
H149	H	-0.150686	-1.175825	0.534274
H150	H	0.349314	-0.675825	1.034274
H151	H	-0.294036	-1.089323	0.976709
H152	H	0.205964	-0.589323	1.476709
H153	H	-0.714944	-1.286626	0.366931
H154	H	-0.214944	-0.786626	0.866931
H155	H	-0.867464	-1.019659	0.072141
H156	H	-0.367464	-0.519659	0.572141
H157	H	-0.163979	-0.841168	0.164812
H158	H	0.336021	-0.341168	0.664812
H159	H	-0.318176	-0.492757	0.318705
H160	H	0.181824	0.007243	0.818705
H161	H	-0.077877	-1.219741	0.567417
H162	H	0.422123	-0.719741	1.067417
H163	H	-0.544947	-1.264479	0.342560
H164	H	-0.044947	-0.764479	0.842560
H165	H	-0.945564	-1.194884	0.265553
H166	H	-0.445564	-0.694884	0.765553
H167	H	0.010831	-0.717276	-0.009697
H168	H	0.510831	-0.217276	0.490303
H169	H	0.033507	-1.286925	0.618154
H170	H	0.533507	-0.786925	1.118154
H171	H	-0.003097	-1.264830	0.800503
H172	H	0.496903	-0.764830	1.300503
H173	H	0.004182	-0.443699	-0.003082
H174	H	0.504182	0.056301	0.496918
H175	H	-0.405442	-1.022139	0.925976
H176	H	0.094558	-0.522139	1.425976
H177	H	-0.446659	-0.997273	0.797523
H178	H	0.053341	-0.497273	1.297523
H179	H	-0.410071	-1.019365	0.615166
H180	H	0.089929	-0.519365	1.115166
H181	H	-0.423891	-0.567671	0.424237
H182	H	0.076109	-0.067671	0.924237
H183	H	-0.249088	-0.443780	0.249732
H184	H	0.250912	0.056220	0.749732
H185	H	-0.094907	-0.792208	0.095831
H186	H	0.405093	-0.292208	0.595831
H187	H	-0.417262	-0.841263	0.417639
H188	H	0.082738	-0.341263	0.917639
H189	H	-0.459102	-0.691511	0.459389
H190	H	0.040898	-0.191511	0.959389
