data_functionalizedCrystal
_audit_creation_method	'MofGen! by Chris Wilmer'
_symmetry_space_group_name_H-M	'P1'
_symmetry_Int_Tables_number	1
_symmetry_cell_setting	triclinic
loop_
_symmetry_equiv_pos_as_xyz
  x,y,z
_cell_length_a	12.759400
_cell_length_b	12.759401
_cell_length_c	12.759393
_cell_angle_alpha	89.977503
_cell_angle_beta	90.029805
_cell_angle_gamma	89.984534
loop_
_atom_site_label
_atom_site_type_symbol
_atom_site_fract_x
_atom_site_fract_y
_atom_site_fract_z
Zn1	Zn	-0.418192	-1.606267	0.594069
Zn2	Zn	-0.593908	-1.606158	0.418391
Zn3	Zn	-0.418246	-1.430566	0.418399
Zn4	Zn	-0.593832	-1.430558	0.594024
O5	O	-0.506045	-1.518387	0.506221
O6	O	-0.441511	-1.753273	0.570780
O7	O	-0.570660	-1.582823	0.271371
O8	O	-0.271218	-1.453921	0.441725
O9	O	-0.570608	-1.753193	0.441711
O10	O	-0.271178	-1.583008	0.570788
O11	O	-0.441602	-1.453816	0.271377
O12	O	-0.441529	-1.283543	0.441681
O13	O	-0.570479	-1.453908	0.741051
O14	O	-0.570531	-1.283538	0.570711
O15	O	-0.441437	-1.583001	0.741084
O16	O	-0.740919	-1.582815	0.441667
O17	O	-0.740863	-1.453803	0.570703
C18	C	-0.506029	-1.245420	0.506192
C19	C	-0.506047	-1.128643	0.506205
C20	C	-0.573320	-1.073805	0.573284
C21	C	-0.573323	-0.964081	0.573302
C22	C	-0.438776	-0.964042	0.439153
C23	C	-0.438769	-1.073764	0.439141
C24	C	-0.779012	-1.518325	0.506202
C25	C	-0.895789	-1.518394	0.506229
C26	C	-0.950540	-1.585581	0.573490
C27	C	-1.060264	-1.585640	0.573518
C28	C	-1.060476	-1.451323	0.439017
C29	C	-0.950754	-1.451260	0.438994
C30	C	-0.232011	-1.518478	0.506262
C31	C	-0.115235	-1.518517	0.506280
C32	C	-0.505944	-1.518466	0.780254
C33	C	-0.505901	-1.518499	0.897031
C34	C	-0.506059	-0.792420	0.506243
C35	C	-0.506057	-0.909197	0.506235
C36	C	-0.506069	-1.518369	0.233253
C37	C	-0.505816	-1.518539	0.116477
C38	C	-0.438698	-1.585723	0.951912
C39	C	-0.438653	-1.585740	1.061636
C40	C	-0.573022	-1.451308	1.061589
C41	C	-0.573061	-1.451286	0.951866
H42	H	-0.628102	-0.919438	0.627926
H43	H	-0.384009	-1.640449	0.907268
F44	F	-0.367180	-0.905627	0.367781
H45	H	-0.383981	-1.118414	0.384517
H46	H	-0.628099	-1.118485	0.627895
F47	F	-0.892046	-1.657029	0.645050
H48	H	-1.104838	-1.640347	0.628291
H49	H	-1.105241	-1.396666	0.384274
H50	H	-0.906172	-1.396543	0.384222
F51	F	-0.367133	-1.657296	1.120040
F52	F	-0.644499	-1.379783	1.119957
H53	H	-0.627785	-1.396537	0.907181
