data_functionalizedCrystal
_audit_creation_method	'MofGen! by Chris Wilmer'
_symmetry_space_group_name_H-M	'P1'
_symmetry_Int_Tables_number	1
_symmetry_cell_setting	triclinic
loop_
_symmetry_equiv_pos_as_xyz
  x,y,z
_cell_length_a	17.000383
_cell_length_b	17.038272
_cell_length_c	17.766277
_cell_angle_alpha	89.993732
_cell_angle_beta	89.987363
_cell_angle_gamma	83.355929
loop_
_atom_site_label
_atom_site_type_symbol
_atom_site_fract_x
_atom_site_fract_y
_atom_site_fract_z
O1	O	1.058005	0.028053	-0.062646
O2	O	1.391338	0.361386	0.270687
O3	O	1.724672	0.694720	0.604021
O4	O	0.828185	0.056296	-0.062637
O5	O	1.161519	0.389629	0.270697
O6	O	1.494852	0.722963	0.604030
O7	O	0.941729	-0.071547	-0.062635
O8	O	1.275063	0.261786	0.270698
O9	O	1.608396	0.595119	0.604031
O10	O	0.944461	0.155896	-0.062647
O11	O	1.277794	0.489230	0.270686
O12	O	1.611128	0.822563	0.604019
O13	O	0.941708	-0.071552	0.062553
O14	O	1.275041	0.261781	0.395886
O15	O	1.608374	0.595115	0.729220
O16	O	0.828164	0.056291	0.062552
O17	O	1.161497	0.389625	0.395885
O18	O	1.494830	0.722958	0.729219
O19	O	1.057983	0.028048	0.062542
O20	O	1.391317	0.361382	0.395876
O21	O	1.724650	0.694715	0.729209
Cu22	Cu	0.943071	0.042169	0.073978
Cu23	Cu	1.276405	0.375503	0.407311
Cu24	Cu	1.609738	0.708836	0.740644
Cu25	Cu	0.943097	0.042175	-0.074072
Cu26	Cu	1.276431	0.375508	0.259261
Cu27	Cu	1.609764	0.708842	0.592595
O28	O	0.944439	0.155892	0.062541
O29	O	1.277773	0.489225	0.395874
O30	O	1.611106	0.822558	0.729208
C31	C	0.798624	0.057810	-0.000041
C32	C	1.131957	0.391144	0.333292
C33	C	1.465290	0.724477	0.666626
C34	C	0.710571	0.062321	-0.000037
C35	C	1.043904	0.395654	0.333296
C36	C	1.377237	0.728987	0.666629
C37	C	0.939234	-0.100508	-0.000041
C38	C	1.272567	0.232826	0.333292
C39	C	1.605901	0.566159	0.666626
C40	C	0.931821	-0.186793	-0.000041
C41	C	1.265154	0.146540	0.333292
C42	C	1.598488	0.479874	0.666626
C43	C	0.212326	0.091445	-0.000067
C44	C	0.545659	0.424778	0.333266
C45	C	0.878992	0.758112	0.666600
C46	C	0.295061	0.087201	-0.000066
C47	C	0.628395	0.420534	0.333267
C48	C	0.961728	0.753868	0.666601
C49	C	0.341068	0.013535	-0.000057
C50	C	0.674401	0.346868	0.333277
C51	C	1.007734	0.680201	0.666610
C52	C	0.304335	-0.055892	-0.000055
C53	C	0.637668	0.277442	0.333278
C54	C	0.971002	0.610775	0.666611
C55	C	0.221601	-0.051647	-0.000062
C56	C	0.554934	0.281686	0.333272
C57	C	0.888267	0.615020	0.666605
C58	C	0.591103	-0.002861	-0.000042
C59	C	0.924437	0.330472	0.333291
C60	C	1.257770	0.663806	0.666624
C61	C	0.673843	-0.007101	-0.000034
C62	C	1.007176	0.326233	0.333299
C63	C	1.340510	0.659566	0.666633
C64	C	0.664564	0.135993	-0.000046
C65	C	0.997897	0.469326	0.333287
C66	C	1.331230	0.802659	0.666621
C67	C	0.581828	0.140231	-0.000048
C68	C	0.915162	0.473564	0.333286
C69	C	1.248495	0.806898	0.666619
C70	C	0.545103	0.070804	-0.000051
C71	C	0.878436	0.404138	0.333283
C72	C	1.211769	0.737471	0.666616
C73	C	0.425637	0.009195	-0.000053
C74	C	0.758970	0.342528	0.333280
C75	C	1.092304	0.675862	0.666613
C76	C	0.460535	0.075145	-0.000059
C77	C	0.793868	0.408478	0.333274
C78	C	1.127202	0.741812	0.666607
C79	C	0.999879	-0.241568	-0.000043
C80	C	1.333213	0.091765	0.333290
C81	C	1.666546	0.425099	0.666624
C82	C	0.992910	-0.322641	-0.000050
C83	C	1.326243	0.010692	0.333283
C84	C	1.659576	0.344026	0.666617
C85	C	0.917881	-0.348938	-0.000049
C86	C	1.251214	-0.015605	0.333284
C87	C	1.584547	0.317729	0.666617
C88	C	0.849817	-0.294156	-0.000050
C89	C	1.183151	0.039177	0.333284
C90	C	1.516484	0.372510	0.666617
C91	C	0.856788	-0.213085	-0.000048
C92	C	1.190121	0.120249	0.333285
C93	C	1.523454	0.453582	0.666619
C94	C	0.893255	-0.593009	-0.000059
C95	C	1.226588	-0.259676	0.333275
C96	C	1.559921	0.073657	0.666608
C97	C	0.886289	-0.674088	-0.000058
C98	C	1.219623	-0.340754	0.333275
C99	C	1.552956	-0.007421	0.666609
C100	C	1.029382	-0.702567	-0.000060
C101	C	1.362716	-0.369234	0.333274
C102	C	1.696049	-0.035900	0.666607
C103	C	1.036346	-0.621493	-0.000054
C104	C	1.369680	-0.288159	0.333280
C105	C	1.703013	0.045174	0.666613
C106	C	0.968283	-0.566718	-0.000058
C107	C	1.301616	-0.233385	0.333276
C108	C	1.634950	0.099948	0.666609
C109	C	0.910755	-0.431807	-0.000054
C110	C	1.244088	-0.098474	0.333279
C111	C	1.577421	0.234859	0.666613
C112	C	0.975410	-0.483850	-0.000059
C113	C	1.308743	-0.150517	0.333275
C114	C	1.642076	0.182816	0.666608
C115	C	1.087545	0.026534	-0.000055
C116	C	1.420878	0.359867	0.333279
C117	C	1.754212	0.693201	0.666612
C118	C	1.175598	0.022024	-0.000064
C119	C	1.508931	0.355357	0.333270
C120	C	1.842265	0.688690	0.666603
C121	C	0.946935	0.184852	-0.000055
C122	C	1.280268	0.518185	0.333278
C123	C	1.613601	0.851519	0.666612
C124	C	0.954348	0.271137	-0.000060
C125	C	1.287681	0.604471	0.333273
C126	C	1.621014	0.937804	0.666607
N127	N	0.943059	0.042165	0.178108
N128	N	1.276392	0.375498	0.511441
N129	N	1.609726	0.708831	0.844775
N130	N	0.943115	0.042173	-0.178202
N131	N	1.276449	0.375506	0.155131
N132	N	1.609782	0.708840	0.488464
C133	C	0.993356	-0.014419	0.217496
C134	C	1.326689	0.318914	0.550829
C135	C	1.660022	0.652247	0.884162
C136	C	0.993360	-0.014423	0.296297
C137	C	1.326693	0.318910	0.629631
C138	C	1.660027	0.652243	0.962964
C139	C	0.943076	0.042170	0.335709
C140	C	1.276410	0.375503	0.669042
C141	C	1.609743	0.708836	1.002375
C142	C	0.892770	0.098759	0.296312
C143	C	1.226103	0.432092	0.629645
C144	C	1.559437	0.765425	0.962978
C145	C	0.892761	0.098756	0.217511
C146	C	1.226095	0.432089	0.550845
C147	C	1.559428	0.765423	0.884178
C148	C	0.937495	0.113760	0.460543
C149	C	1.270828	0.447093	0.793877
C150	C	1.604162	0.780426	1.127210
C151	C	0.937509	0.113763	0.539342
C152	C	1.270843	0.447096	0.872675
C153	C	1.604176	0.780430	1.206009
C154	C	0.943098	0.042178	0.578755
C155	C	1.276431	0.375511	0.912088
C156	C	1.609765	0.708844	1.245422
C157	C	0.948689	-0.029415	0.539360
C158	C	1.282023	0.303918	0.872693
C159	C	1.615356	0.637252	1.206026
C160	C	0.948681	-0.029417	0.460559
C161	C	1.282014	0.303916	0.793893
C162	C	1.615347	0.637249	1.127226
C163	C	0.943080	0.042178	0.421154
C164	C	1.276413	0.375512	0.754488
C165	C	1.609746	0.708845	1.087821
C166	C	0.993402	-0.014415	0.703588
C167	C	1.326735	0.318918	1.036922
C168	C	1.660069	0.652251	1.370255
C169	C	0.993401	-0.014420	0.782392
C170	C	1.326734	0.318913	1.115725
C171	C	1.660067	0.652247	1.449058
C172	C	0.892815	0.098769	0.782404
C173	C	1.226148	0.432102	1.115738
C174	C	1.559481	0.765435	1.449071
C175	C	0.892812	0.098767	0.703603
C176	C	1.226145	0.432100	1.036936
C177	C	1.559479	0.765433	1.370269
C178	C	0.943110	0.042175	0.664199
C179	C	1.276443	0.375509	0.997533
C180	C	1.609776	0.708842	1.330866
H181	H	0.174873	0.151432	-0.000069
H182	H	0.508206	0.484765	0.333264
H183	H	0.841539	0.818099	0.666598
H184	H	0.953240	-0.087707	0.571448
H185	H	1.286573	0.245627	0.904781
H186	H	1.619907	0.578960	1.238115
H187	H	0.788727	-0.315573	-0.000054
H188	H	1.122060	0.017760	0.333279
H189	H	1.455394	0.351093	0.666613
F190	F	0.703656	0.209876	-0.000047
F191	F	1.036989	0.543209	0.333286
F192	F	1.370323	0.876543	0.666619
H193	H	0.711300	-0.067092	-0.000030
H194	H	1.044633	0.266242	0.333304
H195	H	1.377967	0.599575	0.666637
F196	F	1.101815	-0.760867	-0.000056
F197	F	1.435148	-0.427533	0.333277
F198	F	1.768482	-0.094200	0.666611
F199	F	1.046930	-0.074648	0.661652
F200	F	1.380263	0.258686	0.994985
F201	F	1.713596	0.592019	1.328318
H202	H	0.561212	-0.059393	-0.000043
H203	H	0.894545	0.273940	0.333291
H204	H	1.227878	0.607274	0.666624
F205	F	0.954625	-0.105609	0.418635
F206	F	1.287958	0.227725	0.751968
F207	F	1.621291	0.561058	1.085301
H208	H	0.825189	-0.695494	-0.000045
H209	H	1.158522	-0.362161	0.333288
H210	H	1.491855	-0.028827	0.666621
H211	H	1.048330	-0.367237	-0.000050
H212	H	1.381663	-0.033903	0.333283
H213	H	1.714997	0.299430	0.666617
H214	H	0.423073	0.135124	-0.000070
H215	H	0.756406	0.468457	0.333263
H216	H	1.089740	0.801790	0.666596
F217	F	1.046931	-0.074651	0.824312
F218	F	1.380264	0.258682	1.157646
F219	F	1.713597	0.592016	1.490979
F220	F	0.839251	0.158987	0.338256
F221	F	1.172585	0.492320	0.671590
F222	F	1.505918	0.825654	1.004923
F223	F	0.839294	0.158995	0.824345
F224	F	1.172627	0.492328	1.157678
F225	F	1.505961	0.825662	1.491012
H226	H	0.837832	-0.548421	-0.000062
H227	H	1.171166	-0.215088	0.333271
H228	H	1.504499	0.118246	0.666605
F229	F	0.784350	-0.154789	-0.000048
F230	F	1.117684	0.178545	0.333285
F231	F	1.451017	0.511878	0.666618
H232	H	0.851859	0.144846	0.671531
H233	H	1.185192	0.478179	1.004865
H234	H	1.518526	0.811513	1.338198
F235	F	0.931604	0.189954	0.418605
F236	F	1.264937	0.523287	0.751938
F237	F	1.598271	0.856620	1.085271
F238	F	1.046895	-0.074651	0.338223
F239	F	1.380229	0.258682	0.671557
F240	F	1.713562	0.592015	1.004890
F241	F	1.055258	-0.455861	-0.000063
F242	F	1.388592	-0.122528	0.333270
F243	F	1.721925	0.210805	0.666603
H244	H	0.849666	-0.453227	-0.000052
H245	H	1.182999	-0.119894	0.333281
H246	H	1.516332	0.213439	0.666615
H247	H	0.932962	0.172057	0.571412
H248	H	1.266295	0.505391	0.904745
H249	H	1.599628	0.838724	1.238078
H250	H	1.034309	-0.060501	0.185416
H251	H	1.367642	0.272832	0.518749
H252	H	1.700976	0.606165	0.852082
H253	H	1.060976	-0.220165	-0.000039
H254	H	1.394309	0.113169	0.333294
H255	H	1.727643	0.446502	0.666628
F256	F	0.474608	-0.069204	-0.000037
F257	F	0.807941	0.264129	0.333297
F258	F	1.141274	0.597463	0.666630
F259	F	1.116202	-0.593513	-0.000073
F260	F	1.449536	-0.260179	0.333260
F261	F	1.782869	0.073154	0.666593
F262	F	0.353301	-0.134293	-0.000048
F263	F	0.686634	0.199040	0.333286
F264	F	1.019967	0.532373	0.666619
F265	F	0.334145	0.161089	-0.000073
F266	F	0.667479	0.494422	0.333260
F267	F	1.000812	0.827756	0.666593
F268	F	0.839227	0.158983	0.175591
F269	F	1.172560	0.492317	0.508924
F270	F	1.505894	0.825650	0.842257
H271	H	0.544375	0.200218	-0.000058
H272	H	0.877708	0.533551	0.333276
H273	H	1.211042	0.866884	0.666609
H274	H	0.191699	-0.108177	-0.000060
H275	H	0.525032	0.225156	0.333273
H276	H	0.858365	0.558489	0.666606
