data_functionalizedCrystal
_audit_creation_method	'MofGen! by Chris Wilmer'
_symmetry_space_group_name_H-M	'P1'
_symmetry_Int_Tables_number	1
_symmetry_cell_setting	triclinic
loop_
_symmetry_equiv_pos_as_xyz
  x,y,z
_cell_length_a	14.853558
_cell_length_b	11.792241
_cell_length_c	13.930277
_cell_angle_alpha	89.995317
_cell_angle_beta	89.993309
_cell_angle_gamma	83.912275
loop_
_atom_site_label
_atom_site_type_symbol
_atom_site_fract_x
_atom_site_fract_y
_atom_site_fract_z
O1	O	1.196950	0.148131	-0.079819
O2	O	0.934558	0.165794	-0.079824
O3	O	1.072122	-0.008248	-0.079815
O4	O	1.059387	0.322173	-0.079829
O5	O	1.072103	-0.008251	0.079847
O6	O	0.934539	0.165790	0.079838
O7	O	1.196931	0.148127	0.079842
Zn8	Zn	1.065732	0.156958	0.105190
Zn9	Zn	1.065757	0.156963	-0.105172
O10	O	1.059368	0.322169	0.079833
C11	C	0.900957	0.164994	0.000006
C12	C	0.800863	0.162601	0.000005
C13	C	0.753849	0.161481	-0.087030
C14	C	0.753827	0.161463	0.087039
C15	C	0.659784	0.159209	0.087041
C16	C	0.612770	0.158089	0.000005
C17	C	0.659798	0.159223	-0.087032
C18	C	0.612750	0.158064	0.174076
C19	C	0.518702	0.155808	0.174081
C20	C	0.471685	0.154696	0.087045
C21	C	0.518719	0.155832	0.000004
C22	C	0.471705	0.154712	-0.087031
C23	C	0.518737	0.155855	-0.174072
C24	C	0.612782	0.158111	-0.174068
C25	C	0.377640	0.152440	0.087040
C26	C	0.377654	0.152454	-0.087032
C27	C	1.071312	-0.050535	0.000016
C28	C	1.068918	-0.176534	0.000015
C29	C	1.064515	-0.407219	-0.000001
C30	C	1.066961	-0.278849	0.000007
C31	C	1.230533	0.148927	0.000010
C32	C	1.330626	0.151320	0.000005
C33	C	1.060177	0.364457	0.000001
C34	C	1.062572	0.490455	-0.000005
N35	N	1.065721	0.156954	0.248756
N36	N	1.065775	0.156958	-0.248738
C37	C	1.004842	0.233998	0.701021
C38	C	1.126698	0.079919	0.700999
C39	C	1.126687	0.079915	0.600503
C40	C	1.065754	0.156956	0.550262
C41	C	1.004831	0.233999	0.600516
C42	C	1.187615	0.002881	0.550241
C43	C	1.187607	0.002875	0.449739
C44	C	1.126669	0.079911	0.399496
C45	C	1.065743	0.156957	0.449757
C46	C	1.004809	0.233997	0.399515
C47	C	0.943879	0.311038	0.449774
C48	C	0.943892	0.311035	0.550273
C49	C	1.126655	0.079914	0.298997
C50	C	1.004799	0.233998	0.299010
H51	H	0.339381	0.151549	-0.157908
C52	C	0.805584	0.162735	-0.182772
N53	N	0.844553	0.163676	-0.254885
H54	H	0.955176	0.296730	0.258110
H55	H	1.237219	-0.059857	0.408824
H56	H	1.176312	0.017200	0.741908
H57	H	0.480446	0.154937	-0.244936
C58	C	0.876855	0.395781	0.394496
N59	N	0.826373	0.459606	0.352856
C60	C	0.937815	0.318732	0.756306
N61	N	0.887328	0.382553	0.797948
H62	H	0.894286	0.373761	0.591200
C63	C	0.664462	0.159387	0.269808
N64	N	0.703412	0.160421	0.341917
C65	C	0.664525	0.159355	-0.269805
N66	N	0.703502	0.160284	-0.341913
H67	H	0.792112	0.162366	0.157899
C68	C	0.466974	0.154574	0.269828
N69	N	0.428010	0.153654	0.341945
C70	C	0.325910	0.151180	0.182780
N71	N	0.286948	0.150234	0.254896
C72	C	1.254637	-0.081858	0.605512
N73	N	1.305118	-0.145688	0.647147
C74	C	1.193675	-0.004826	0.243717
N75	N	1.244157	-0.068659	0.202081
