data_functionalizedCrystal
_audit_creation_method	'MofGen! by Chris Wilmer'
_symmetry_space_group_name_H-M	'P1'
_symmetry_Int_Tables_number	1
_symmetry_cell_setting	triclinic
loop_
_symmetry_equiv_pos_as_xyz
  x,y,z
_cell_length_a	10.654550
_cell_length_b	10.654551
_cell_length_c	9.130313
_cell_angle_alpha	89.998309
_cell_angle_beta	89.992957
_cell_angle_gamma	84.485132
loop_
_atom_site_label
_atom_site_type_symbol
_atom_site_fract_x
_atom_site_fract_y
_atom_site_fract_z
O1	O	1.667840	0.176398	-0.121910
O2	O	1.302362	0.193204	-0.121885
O3	O	1.493503	0.002062	-0.121899
O4	O	1.476699	0.367541	-0.121896
O5	O	1.493490	0.002057	0.121700
O6	O	1.302349	0.193199	0.121713
O7	O	1.667827	0.176393	0.121689
Cu8	Cu	1.485087	0.184795	0.143944
Cu9	Cu	1.485102	0.184802	-0.144140
O10	O	1.476685	0.367535	0.121703
C11	C	1.255557	0.191968	-0.000083
C12	C	1.116114	0.188276	-0.000074
C13	C	1.036629	0.300817	-0.000095
C14	C	0.905608	0.297341	-0.000120
C15	C	0.933570	0.068771	-0.000110
C16	C	1.064589	0.072249	-0.000074
C17	C	1.088154	0.416844	-0.000094
C18	C	1.008667	0.529395	-0.000116
C19	C	0.877647	0.525918	-0.000142
C20	C	0.826112	0.409891	-0.000145
C21	C	1.492263	-0.044739	-0.000103
C22	C	1.488570	-0.184182	-0.000112
C23	C	1.486845	-0.249691	-0.132895
C24	C	1.483365	-0.380711	-0.132888
C25	C	1.483340	-0.380703	0.132696
C26	C	1.486811	-0.249684	0.132688
C27	C	1.488604	-0.184189	-0.265696
C28	C	1.486880	-0.249698	-0.398490
C29	C	1.483400	-0.380718	-0.398483
C30	C	1.481643	-0.446230	-0.265682
C31	C	1.714632	0.177629	-0.000117
C32	C	1.854075	0.181321	-0.000135
C33	C	1.477926	0.414336	-0.000097
C34	C	1.481619	0.553779	-0.000097
N35	N	1.485085	0.184790	0.346566
N36	N	1.485114	0.184797	-0.346763
C37	C	1.569751	0.100188	0.423212
C38	C	1.569763	0.100188	0.576549
C39	C	1.400438	0.269403	0.576581
C40	C	1.400421	0.269396	0.423247
H41	H	0.719425	0.407069	-0.000143
O42	O	1.150337	-0.049128	-0.000051
H43	H	1.131942	-0.104596	-0.099350
O44	O	0.791908	0.647302	-0.000149
H45	H	0.810367	0.702764	-0.099439
H46	H	1.331470	0.338289	0.360837
H47	H	1.331509	0.338290	0.639029
H48	H	1.638687	0.031295	0.360783
H49	H	1.638704	0.031296	0.638950
H50	H	0.891600	-0.025693	-0.000137
H51	H	1.478791	-0.552913	-0.265687
H52	H	1.491441	-0.077506	-0.265716
H53	H	1.488299	-0.196349	-0.506611
O54	O	1.064250	0.654529	-0.000093
H55	H	0.986963	0.732203	-0.000090
O56	O	1.481499	-0.451377	-0.541699
H57	H	1.483300	-0.383813	-0.634037
H58	H	1.194836	0.419687	-0.000080
O59	O	1.481479	-0.451356	0.275926
H60	H	1.478795	-0.553470	0.253623
H61	H	1.488189	-0.196342	0.240812
