data_functionalizedCrystal
_audit_creation_method	'MofGen! by Chris Wilmer'
_symmetry_space_group_name_H-M	'P1'
_symmetry_Int_Tables_number	1
_symmetry_cell_setting	triclinic
loop_
_symmetry_equiv_pos_as_xyz
  x,y,z
_cell_length_a	14.044220
_cell_length_b	15.995350
_cell_length_c	13.101039
_cell_angle_alpha	93.364563
_cell_angle_beta	86.340132
_cell_angle_gamma	88.340626
loop_
_atom_site_label
_atom_site_type_symbol
_atom_site_fract_x
_atom_site_fract_y
_atom_site_fract_z
O1	O	1.262914	0.197637	-0.085096
O2	O	1.762914	0.697637	0.414904
O3	O	0.986946	0.190352	-0.085122
O4	O	1.486946	0.690352	0.414878
O5	O	1.132474	0.072670	-0.085107
O6	O	1.632474	0.572670	0.414893
O7	O	1.117386	0.315319	-0.085111
O8	O	1.617386	0.815319	0.414889
O9	O	1.122032	0.081129	0.085321
O10	O	1.622032	0.581129	0.585321
O11	O	0.976505	0.198810	0.085307
O12	O	1.476505	0.698810	0.585307
O13	O	1.252472	0.206096	0.085333
O14	O	1.752472	0.706096	0.585333
Zn15	Zn	1.112831	0.203796	0.112379
Zn16	Zn	1.612831	0.703796	0.612379
Zn17	Zn	1.126588	0.192651	-0.112168
Zn18	Zn	1.626588	0.692651	0.387832
O19	O	1.106945	0.323777	0.085318
O20	O	1.606945	0.823777	0.585318
C21	C	0.946411	0.191392	0.000089
C22	C	1.446411	0.691392	0.500089
C23	C	0.841186	0.181881	0.000079
C24	C	1.341186	0.681881	0.500079
C25	C	1.126629	0.045658	0.000105
C26	C	1.626629	0.545658	0.500105
C27	C	1.124760	-0.047432	0.000099
C28	C	1.624760	0.452568	0.500099
C29	C	0.648524	0.164494	0.000099
C30	C	1.148524	0.664494	0.500099
C31	C	0.590890	0.231950	0.000102
C32	C	1.090890	0.731950	0.500102
C33	C	0.483686	0.222275	0.000114
C34	C	0.983686	0.722275	0.500114
C35	C	0.755738	0.174167	0.000088
C36	C	1.255738	0.674167	0.500088
C37	C	1.118044	-0.385681	0.000102
C38	C	1.618044	0.114319	0.500102
C39	C	1.014425	-0.346007	-0.000290
C40	C	1.514425	0.153993	0.499710
C41	C	1.016272	-0.249158	0.000094
C42	C	1.516272	0.250842	0.500094
C43	C	1.121375	-0.217872	0.000100
C44	C	1.621375	0.282128	0.500100
C45	C	1.166533	-0.250301	0.097426
C46	C	1.666533	0.249699	0.597426
C47	C	1.163924	-0.347127	0.097507
C48	C	1.663924	0.152873	0.597507
C49	C	1.177939	-0.356944	-0.096302
C50	C	1.677939	0.143056	0.403698
C51	C	1.177993	-0.260065	-0.097588
C52	C	1.677993	0.239935	0.402412
C53	C	1.123263	-0.123033	0.000102
C54	C	1.623263	0.376967	0.500102
C55	C	1.116159	-0.480519	0.000106
C56	C	1.616159	0.019481	0.500106
C57	C	1.293008	0.205055	0.000120
C58	C	1.793008	0.705055	0.500120
C59	C	1.398233	0.214566	0.000123
C60	C	1.898233	0.714566	0.500123
C61	C	1.112789	0.350789	0.000103
C62	C	1.612789	0.850789	0.500103
C63	C	1.114659	0.443879	0.000103
C64	C	1.614659	0.943879	0.500103
N65	N	1.103449	0.211402	0.265626
N66	N	1.603449	0.711402	0.765626
N67	N	1.135977	0.185039	-0.265416
N68	N	1.635977	0.685039	0.234584
C69	C	1.090685	0.221758	0.474668
C70	C	1.590685	0.721758	0.974668
C71	C	1.148739	0.174686	0.525549
C72	C	1.648739	0.674686	1.025549
C73	C	1.141636	0.180448	0.641867
C74	C	1.641636	0.680448	1.141867
C75	C	1.097786	0.215997	0.358340
C76	C	1.597786	0.715997	0.858340
H77	H	0.617354	0.099482	0.000106
H78	H	1.117354	0.599482	0.500106
N79	N	1.279216	-0.391487	-0.097172
N80	N	1.779216	0.108513	0.402828
H81	H	1.279044	-0.454716	-0.099832
H82	H	1.779044	0.045284	0.400168
H83	H	1.317290	-0.372754	-0.159273
H84	H	1.817290	0.127246	0.340727
H85	H	1.203775	0.130059	0.481753
H86	H	1.703775	0.630059	0.981753
N87	N	0.968706	-0.220063	-0.092316
N88	N	1.468706	0.279937	0.407684
H89	H	0.946345	-0.270182	-0.133668
H90	H	1.446345	0.229818	0.366332
H91	H	0.912158	-0.181666	-0.068994
H92	H	1.412158	0.318334	0.431006
N93	N	1.017786	0.280870	0.532670
N94	N	1.517786	0.780870	1.032670
H95	H	1.022985	0.276658	0.608744
H96	H	1.522985	0.776658	1.108744
H97	H	1.029977	0.340162	0.513983
H98	H	1.529977	0.840162	1.013983
H99	H	0.977276	-0.371097	-0.070085
H100	H	1.477276	0.128903	0.429915
N101	N	0.632170	0.318075	0.000094
N102	N	1.132170	0.818075	0.500094
H103	H	0.704013	0.312870	0.000085
H104	H	1.204013	0.812870	0.500085
H105	H	0.613868	0.346340	-0.063088
H106	H	1.113868	0.846340	0.436912
H107	H	0.968933	-0.365237	0.069108
H108	H	1.468933	0.134763	0.569108
N109	N	0.957028	-0.211644	0.092659
N110	N	1.457028	0.288356	0.592659
H111	H	0.889092	-0.230231	0.089662
H112	H	1.389092	0.269769	0.589662
H113	H	0.984394	-0.231078	0.156997
H114	H	1.484394	0.268922	0.656997
N115	N	1.108645	-0.370284	0.193867
N116	N	1.608645	0.129716	0.693867
H117	H	1.086196	-0.317621	0.235891
H118	H	1.586196	0.182379	0.735891
H119	H	1.051628	-0.403522	0.174922
H120	H	1.551628	0.096478	0.674922
N121	N	1.264352	-0.382033	0.103369
N122	N	1.764352	0.117967	0.603369
H123	H	1.310119	-0.334511	0.105894
H124	H	1.810119	0.165489	0.605894
H125	H	1.268030	-0.414185	0.167160
H126	H	1.768030	0.085815	0.667160
H127	H	1.243527	-0.230228	0.101050
H128	H	1.743527	0.269772	0.601050
H129	H	1.254999	-0.239269	-0.103460
H130	H	1.754999	0.260731	0.396540
N131	N	1.113629	-0.211449	0.193354
N132	N	1.613629	0.288551	0.693354
H133	H	1.044448	-0.227144	0.194316
H134	H	1.544448	0.272856	0.694316
H135	H	1.143286	-0.232712	0.255517
H136	H	1.643286	0.267288	0.755517
N137	N	1.139049	-0.392352	-0.194019
N138	N	1.639049	0.107648	0.305981
H139	H	1.082205	-0.427386	-0.176782
H140	H	1.582205	0.072614	0.323218
H141	H	1.118804	-0.344898	-0.236253
H142	H	1.618804	0.155102	0.263747
N143	N	1.134393	-0.232344	-0.192968
N144	N	1.634393	0.267656	0.307032
H145	H	1.078202	-0.192618	-0.172994
H146	H	1.578202	0.307382	0.327006
H147	H	1.183707	-0.203003	-0.236155
H148	H	1.683707	0.296997	0.263845
