data_functionalizedCrystal
_audit_creation_method	'MofGen! by Chris Wilmer'
_symmetry_space_group_name_H-M	'P1'
_symmetry_Int_Tables_number	1
_symmetry_cell_setting	triclinic
loop_
_symmetry_equiv_pos_as_xyz
  x,y,z
_cell_length_a	13.032831
_cell_length_b	18.101395
_cell_length_c	13.034296
_cell_angle_alpha	82.790450
_cell_angle_beta	74.814550
_cell_angle_gamma	82.835691
loop_
_atom_site_label
_atom_site_type_symbol
_atom_site_fract_x
_atom_site_fract_y
_atom_site_fract_z
Zn1	Zn	1.700072	-0.375425	-0.806435
Zn2	Zn	1.677339	-0.513225	-0.628799
Zn3	Zn	1.499875	-0.375432	-0.606316
Zn4	Zn	1.522380	-0.485247	-0.783854
O5	O	1.599917	-0.437332	-0.706351
O6	O	1.845691	-0.405411	-0.801730
O7	O	1.634866	-0.506659	-0.477175
O8	O	1.526528	-0.271803	-0.632903
O9	O	1.828989	-0.506652	-0.671222
O10	O	1.673612	-0.271798	-0.779930
O11	O	1.504484	-0.405422	-0.460657
O12	O	1.354226	-0.378293	-0.611007
O13	O	1.564883	-0.458967	-0.935491
O14	O	1.370760	-0.458973	-0.741444
O15	O	1.695433	-0.378281	-0.952081
O16	O	1.656688	-0.613142	-0.649326
O17	O	1.542840	-0.592586	-0.763245
C18	C	1.323954	-0.415598	-0.671336
C19	C	1.205900	-0.406316	-0.656382
C20	C	1.161463	-0.442177	-0.714156
C21	C	1.039447	-0.432584	-0.698701
C22	C	1.599771	-0.629734	-0.706302
C23	C	1.599810	-0.712049	-0.706328
C24	C	1.600050	-1.011154	-0.706415
C25	C	1.528636	-0.966926	-0.778317
C26	C	1.528214	-0.881297	-0.778011
C27	C	1.599931	-0.862765	-0.706373
C28	C	1.555393	-0.900331	-0.590587
C29	C	1.554928	-0.985896	-0.591013
C30	C	1.716055	-0.986088	-0.749336
C31	C	1.715707	-0.900192	-0.751707
C32	C	1.599864	-0.778902	-0.706343
C33	C	1.600113	-1.095017	-0.706438
C34	C	1.876957	-0.459152	-0.741503
C35	C	1.995015	-0.468450	-0.756483
C36	C	1.635204	-0.415502	-0.983405
C37	C	1.650242	-0.406199	-1.101468
C38	C	1.600095	-0.244180	-0.706427
C39	C	1.600171	-0.161869	-0.706460
C40	C	1.592352	-0.441974	-1.145896
C41	C	1.607893	-0.432360	-1.267921
C42	C	1.564827	-0.459029	-0.430383
C43	C	1.549996	-0.468139	-0.312346
H44	H	1.213751	-0.479977	-0.775063
N45	N	1.473383	-0.515501	-1.246763
N46	N	1.481917	-0.583425	-1.259936
H47	H	1.427810	-0.616875	-1.213618
N48	N	1.565485	-0.986360	-0.885761
N49	N	1.504980	-1.014441	-0.927129
H50	H	1.531020	-1.028174	-1.003012
N51	N	1.726839	-0.358844	-1.167086
N52	N	1.697339	-0.303870	-1.224286
H53	H	1.751436	-0.270423	-1.270629
N54	N	1.565250	-0.848546	-0.885147
N55	N	1.646644	-0.813740	-0.910200
H56	H	1.672803	-0.790613	-0.985869
N57	N	1.421806	-0.987689	-0.741622
N58	N	1.398037	-1.034918	-0.662745
H59	H	1.322589	-1.049585	-0.636826
H60	H	0.987164	-0.394775	-0.637798
H61	H	1.668967	-0.394615	-1.320220
N62	N	1.060609	-0.515874	-0.832891
N63	N	1.159634	-0.523602	-0.845338
H64	H	1.205962	-0.557096	-0.899299
N65	N	1.140301	-0.358886	-0.579990
N66	N	1.041277	-0.351157	-0.567549
H67	H	0.994948	-0.317657	-0.513597
H68	H	1.469706	-1.001384	-0.556309
H69	H	1.772871	-0.888203	-0.704288
H70	H	1.603915	-1.016088	-0.534848
H71	H	1.470985	-0.874494	-0.555558
N72	N	1.420703	-0.849330	-0.740939
N73	N	1.345748	-0.890268	-0.715204
H74	H	1.269812	-0.867693	-0.689018
N75	N	1.617814	-0.886692	-0.520776
N76	N	1.696006	-0.849042	-0.555663
H77	H	1.740093	-0.839408	-0.506361
H78	H	1.753886	-1.003502	-0.833077
N79	N	1.757512	-0.868759	-0.858683
N80	N	1.767452	-0.800235	-0.877419
H81	H	1.796972	-0.778029	-0.952971
H82	H	1.531290	-0.479722	-1.093595
N83	N	1.783009	-1.023424	-0.683846
N84	N	1.745595	-1.068310	-0.605890
H85	H	1.792872	-1.094681	-0.559632
