data_functionalizedCrystal
_audit_creation_method	'MofGen! by Chris Wilmer'
_symmetry_space_group_name_H-M	'P1'
_symmetry_Int_Tables_number	1
_symmetry_cell_setting	triclinic
loop_
_symmetry_equiv_pos_as_xyz
  x,y,z
_cell_length_a	9.065218
_cell_length_b	16.776229
_cell_length_c	9.065215
_cell_angle_alpha	89.994350
_cell_angle_beta	85.015325
_cell_angle_gamma	89.990718
loop_
_atom_site_label
_atom_site_type_symbol
_atom_site_fract_x
_atom_site_fract_y
_atom_site_fract_z
O1	O	-1.960404	0.066327	-0.216362
O2	O	-1.627071	0.399661	0.116972
O3	O	-1.293738	0.732994	0.450305
O4	O	-1.531119	0.066320	-0.234108
O5	O	-1.197786	0.399653	0.099225
O6	O	-0.864453	0.732986	0.432559
O7	O	-1.754637	0.066320	-0.010592
O8	O	-1.421304	0.399654	0.322741
O9	O	-1.087971	0.732987	0.656074
O10	O	-1.736887	0.066327	-0.439878
O11	O	-1.403553	0.399660	-0.106544
O12	O	-1.070220	0.732993	0.226789
O13	O	-1.754607	-0.066256	-0.010578
O14	O	-1.421274	0.267077	0.322755
O15	O	-1.087941	0.600410	0.656089
O16	O	-1.531089	-0.066257	-0.234094
O17	O	-1.197756	0.267077	0.099240
O18	O	-0.864423	0.600410	0.432573
O19	O	-1.960374	-0.066249	-0.216347
O20	O	-1.627041	0.267084	0.116986
O21	O	-1.293708	0.600417	0.450319
Zn22	Zn	-1.745727	-0.087302	-0.225218
Zn23	Zn	-1.412394	0.246031	0.108115
Zn24	Zn	-1.079060	0.579364	0.441448
Zn25	Zn	-1.745767	0.087373	-0.225237
Zn26	Zn	-1.412433	0.420706	0.108096
Zn27	Zn	-1.079100	0.754040	0.441429
O28	O	-1.736856	-0.066250	-0.439863
O29	O	-1.403523	0.267084	-0.106530
O30	O	-1.070190	0.600417	0.226803
C31	C	-1.476118	0.000031	-0.232395
C32	C	-1.142784	0.333364	0.100938
C33	C	-0.809451	0.666697	0.434271
C34	C	-1.312275	0.000028	-0.227296
C35	C	-0.978942	0.333361	0.106038
C36	C	-0.645608	0.666694	0.439371
N37	N	-1.745710	-0.206514	-0.225205
N38	N	-1.412377	0.126820	0.108129
N39	N	-1.079044	0.460153	0.441462
C40	C	-1.844715	-0.248230	-0.126273
C41	C	-1.511382	0.085103	0.207060
C42	C	-1.178049	0.418436	0.540393
C43	C	-1.844724	-0.331683	-0.126272
C44	C	-1.511390	0.001651	0.207061
C45	C	-1.178057	0.334984	0.540394
C46	C	-1.745733	-0.373416	-0.225211
C47	C	-1.412399	-0.040083	0.108123
C48	C	-1.079066	0.293250	0.441456
C49	C	-1.646717	-0.331694	-0.324147
C50	C	-1.313384	0.001640	0.009187
C51	C	-0.980051	0.334973	0.342520
C52	C	-1.646703	-0.248243	-0.324139
C53	C	-1.313370	0.085090	0.009194
C54	C	-0.980036	0.418424	0.342527
C55	C	-1.646771	-0.668241	-0.324176
C56	C	-1.313438	-0.334908	0.009157
C57	C	-0.980104	-0.001574	0.342490
C58	C	-1.646796	-0.751697	-0.324179
C59	C	-1.313463	-0.418364	0.009154
C60	C	-0.980129	-0.085031	0.342488
C61	C	-1.844791	-0.751681	-0.126309
C62	C	-1.511458	-0.418347	0.207024
C63	C	-1.178125	-0.085014	0.540357
C64	C	-1.844777	-0.668230	-0.126302
C65	C	-1.511444	-0.334897	0.207031
C66	C	-1.178111	-0.001563	0.540365
C67	C	-1.745757	-0.626514	-0.225232
C68	C	-1.412424	-0.293181	0.108101
C69	C	-1.079091	0.040152	0.441435
C70	C	-1.745748	-0.536026	-0.225230
C71	C	-1.412414	-0.202693	0.108103
C72	C	-1.079081	0.130641	0.441437
C73	C	-1.745748	-0.463903	-0.225221
C74	C	-1.412415	-0.130570	0.108112
C75	C	-1.079082	0.202763	0.441446
C76	C	-1.015376	0.000037	-0.218060
C77	C	-0.682043	0.333370	0.115273
C78	C	-0.348709	0.666703	0.448607
C79	C	-1.179219	0.000030	-0.223159
C80	C	-0.845885	0.333363	0.110174
C81	C	-0.512552	0.666697	0.443507
C82	C	-1.752917	0.000033	0.044402
C83	C	-1.419584	0.333366	0.377735
C84	C	-1.086251	0.666699	0.711068
C85	C	-1.747819	0.000035	0.208245
C86	C	-1.414486	0.333369	0.541578
C87	C	-1.081153	0.666702	0.874911
N88	N	-1.745795	0.206584	-0.225239
N89	N	-1.412461	0.539917	0.108094
N90	N	-1.079128	0.873251	0.441427
C91	C	-1.738576	0.000039	-0.494857
C92	C	-1.405243	0.333373	-0.161524
C93	C	-1.071910	0.666706	0.171810
C94	C	-1.743674	0.000042	-0.658700
C95	C	-1.410341	0.333376	-0.325367
C96	C	-1.077008	0.666709	0.007966
H97	H	-1.925331	-0.214256	-0.045713
H98	H	-1.591998	0.119077	0.287621
H99	H	-1.258664	0.452410	0.620954
H100	H	-1.566110	-0.365678	-0.404699
H101	H	-1.232776	-0.032345	-0.071366
H102	H	-0.899443	0.300988	0.261968
H103	H	-1.566180	-0.785676	-0.404749
H104	H	-1.232847	-0.452342	-0.071416
H105	H	-0.899514	-0.119009	0.261918
H106	H	-1.925340	-0.365648	-0.045714
H107	H	-1.592006	-0.032315	0.287619
H108	H	-1.258673	0.301019	0.620952
H109	H	-1.566148	-0.634283	-0.404731
H110	H	-1.232815	-0.300949	-0.071398
H111	H	-0.899482	0.032384	0.261936
H112	H	-1.566082	-0.214278	-0.404697
H113	H	-1.232748	0.119055	-0.071364
H114	H	-0.899415	0.452389	0.261969
H115	H	-1.925415	-0.785654	-0.045750
H116	H	-1.592081	-0.452321	0.287583
H117	H	-1.258748	-0.118987	0.620916
H118	H	-1.925389	-0.634253	-0.045742
H119	H	-1.592056	-0.300919	0.287591
H120	H	-1.258723	0.032414	0.620924
