data_functionalizedCrystal
_audit_creation_method	'MofGen! by Chris Wilmer'
_symmetry_space_group_name_H-M	'P1'
_symmetry_Int_Tables_number	1
_symmetry_cell_setting	triclinic
loop_
_symmetry_equiv_pos_as_xyz
  x,y,z
_cell_length_a	16.109301
_cell_length_b	11.026607
_cell_length_c	14.586319
_cell_angle_alpha	89.998207
_cell_angle_beta	89.999213
_cell_angle_gamma	96.023749
loop_
_atom_site_label
_atom_site_type_symbol
_atom_site_fract_x
_atom_site_fract_y
_atom_site_fract_z
O1	O	1.126503	0.155971	-0.076179
O2	O	0.887350	0.175382	-0.076193
O3	O	0.987106	-0.010969	-0.076183
O4	O	1.026747	0.342322	-0.076188
O5	O	0.987097	-0.010971	0.076297
O6	O	0.887341	0.175379	0.076288
O7	O	1.126494	0.155969	0.076302
Cu8	Cu	1.006916	0.165674	0.090218
Cu9	Cu	1.006927	0.165677	-0.090108
O10	O	1.026738	0.342319	0.076293
C11	C	0.856253	0.174594	0.000046
C12	C	0.763604	0.172237	0.000040
C13	C	0.557080	0.277333	0.000050
C14	C	0.470027	0.275108	0.000056
C15	C	0.456769	0.054010	0.000055
C16	C	0.543821	0.056235	0.000055
C17	C	0.593975	0.167900	0.000048
C18	C	0.419869	0.163450	0.000053
C19	C	0.325481	0.161038	0.000060
C20	C	0.688369	0.170314	0.000043
C21	C	0.979788	-0.056178	0.000055
C22	C	0.957987	-0.190883	0.000051
C23	C	1.018183	-0.264713	0.000053
C24	C	0.995652	-0.403938	0.000048
C25	C	1.157591	0.156756	0.000062
C26	C	1.250240	0.159114	0.000061
C27	C	1.034056	0.387529	0.000052
C28	C	1.055857	0.522234	0.000051
N29	N	1.006915	0.165671	0.217050
N30	N	1.006934	0.165670	-0.216940
C31	C	1.051109	0.083182	0.452060
C32	C	1.051111	0.083179	0.548041
C33	C	0.962734	0.248163	0.548043
C34	C	0.962728	0.248159	0.452063
C35	C	1.006920	0.165670	0.404074
C36	C	1.006929	0.165671	0.596035
C37	C	1.006930	0.165668	0.700102
C38	C	1.006918	0.165671	0.300001
H39	H	0.439992	0.364219	0.000059
O40	O	0.919924	0.328348	0.405344
C41	C	0.975655	0.403243	0.349835
H42	H	1.033480	0.354936	0.335455
H43	H	0.943823	0.422421	0.282343
H44	H	0.994728	0.492930	0.386819
O45	O	0.914307	-0.451679	0.000081
C46	C	0.909919	-0.580060	0.000052
H47	H	0.970382	-0.609687	0.028923
H48	H	0.855172	-0.619011	0.044315
H49	H	0.900656	-0.615293	-0.073104
O50	O	0.876592	-0.238371	-0.000119
C51	C	0.836800	-0.198672	-0.079080
H52	H	0.885465	-0.172262	-0.134272
H53	H	0.790021	-0.275409	-0.105594
H54	H	0.802736	-0.116246	-0.061224
H55	H	1.087092	0.016013	0.412990
O56	O	0.579705	-0.050041	0.000213
C57	C	0.629678	-0.055357	0.079173
H58	H	0.607201	0.006698	0.134370
H59	H	0.624807	-0.153106	0.105679
H60	H	0.697434	-0.023962	0.061320
O61	O	1.099524	-0.216966	0.000100
C62	C	1.103911	-0.088585	0.000078
H63	H	1.043444	-0.058964	0.028942
H64	H	1.158652	-0.049643	0.044352
H65	H	1.113187	-0.053338	-0.073074
O66	O	1.137215	-0.430087	-0.000066
C67	C	1.153418	-0.357742	-0.079047
H68	H	1.092576	-0.326311	-0.105380
H69	H	1.198893	-0.274802	-0.061283
H70	H	1.181885	-0.413611	-0.134344
O71	O	0.407926	-0.054350	0.000013
C72	C	0.323180	-0.032852	0.000033
H73	H	0.316988	0.061852	-0.028833
H74	H	0.285864	-0.104295	-0.044238
H75	H	0.298158	-0.038729	0.073185
O76	O	0.605712	0.385875	-0.000072
C77	C	0.588486	0.452578	-0.079051
H78	H	0.523397	0.419527	-0.105381
H79	H	0.591568	0.553631	-0.061286
H80	H	0.636563	0.438515	-0.134351
O81	O	1.094112	0.003007	0.594512
C82	C	1.133095	-0.069817	0.531571
H83	H	1.141475	-0.020063	0.463152
H84	H	1.196723	-0.088300	0.559298
H85	H	1.092610	-0.159972	0.521366
O86	O	0.919888	0.328250	0.594803
C87	C	0.929353	0.310550	0.689807
H88	H	0.988667	0.265223	0.702912
H89	H	0.933860	0.402444	0.726279
H90	H	0.873187	0.249673	0.717055
