data_functionalizedCrystal
_audit_creation_method	'MofGen! by Chris Wilmer'
_symmetry_space_group_name_H-M	'P1'
_symmetry_Int_Tables_number	1
_symmetry_cell_setting	triclinic
loop_
_symmetry_equiv_pos_as_xyz
  x,y,z
_cell_length_a	12.594517
_cell_length_b	12.594516
_cell_length_c	18.101389
_cell_angle_alpha	90.014195
_cell_angle_beta	90.012294
_cell_angle_gamma	90.011773
loop_
_atom_site_label
_atom_site_type_symbol
_atom_site_fract_x
_atom_site_fract_y
_atom_site_fract_z
Zn1	Zn	1.627277	-0.423855	0.418623
Zn2	Zn	1.627187	-0.601823	0.294790
Zn3	Zn	1.449287	-0.423858	0.294810
Zn4	Zn	1.449276	-0.601792	0.418605
O5	O	1.538257	-0.512832	0.356707
O6	O	1.776211	-0.447474	0.402195
O7	O	1.603556	-0.578230	0.191160
O8	O	1.472940	-0.274912	0.311250
O9	O	1.776145	-0.578226	0.311216
O10	O	1.603708	-0.274910	0.402214
O11	O	1.472853	-0.447480	0.191174
O12	O	1.300340	-0.447450	0.311232
O13	O	1.472921	-0.578174	0.522240
O14	O	1.300332	-0.578177	0.402184
O15	O	1.603698	-0.447444	0.522253
O16	O	1.603545	-0.750764	0.311199
O17	O	1.472834	-0.750742	0.402165
C18	C	1.261716	-0.512811	0.356709
C19	C	1.143411	-0.512828	0.356727
C20	C	1.003420	-0.584059	0.406104
C21	C	1.074196	-0.609944	0.338515
C22	C	1.074206	-0.486991	0.424308
C23	C	1.003401	-0.538797	0.289081
C24	C	1.003405	-0.415800	0.374919
C25	C	1.074149	-0.441647	0.307284
C26	C	1.538208	-0.789373	0.356694
C27	C	1.538284	-0.907678	0.356713
C28	C	1.609460	-0.976905	0.307290
C29	C	1.635467	-1.047625	0.374882
C30	C	1.512410	-1.047758	0.289164
C31	C	1.564341	-0.976840	0.424341
C32	C	1.441238	-0.976966	0.338578
C33	C	1.467209	-1.047654	0.406217
C34	C	1.815878	-0.512853	0.356706
C35	C	1.934183	-0.512863	0.356705
C36	C	1.538318	-0.512805	0.549869
C37	C	1.538345	-0.512794	0.632183
C38	C	1.538335	-0.235211	0.356736
C39	C	1.538369	-0.116906	0.356749
C40	C	1.538257	-0.512782	0.164296
C41	C	1.538437	-0.512494	0.081983
C42	C	1.538407	-0.512594	0.931274
C43	C	1.455842	-0.594584	0.899941
C44	C	1.456066	-0.594964	0.814322
C45	C	1.538375	-0.512693	0.782892
C46	C	1.650527	-0.543140	0.813983
C47	C	1.650067	-0.543678	0.899628
C48	C	1.509794	-0.399975	0.899697
C49	C	1.507299	-0.400626	0.814046
C50	C	1.538364	-0.512747	0.699032
C51	C	1.538425	-0.512543	1.015134
H52	H	0.972430	-0.560765	0.231903
C53	C	1.115850	-0.360295	0.250801
H54	H	1.091474	-0.378835	0.202830
H55	H	1.090539	-0.291563	0.263322
H56	H	1.191275	-0.360317	0.251397
C57	C	1.594089	-0.934950	0.501554
H58	H	1.606499	-0.993151	0.533796
H59	H	1.656539	-0.892927	0.498167
H60	H	1.537566	-0.892940	0.520340
C61	C	1.690779	-0.934927	0.250881
H62	H	1.759730	-0.959119	0.263903
H63	H	1.673048	-0.960248	0.203005
H64	H	1.689742	-0.859504	0.250949
H65	H	1.717573	-1.078665	0.390241
H66	H	1.407054	-1.078522	0.448076
C67	C	1.116222	-0.457444	0.501526
H68	H	1.091993	-0.508114	0.536552
H69	H	1.191639	-0.457008	0.500872
H70	H	1.090934	-0.388989	0.514798
C71	C	1.582609	-0.313719	0.785152
H72	H	1.634224	-0.344784	0.753573
H73	H	1.542962	-0.262367	0.758397
H74	H	1.617126	-0.280405	0.825666
H75	H	1.569930	-0.338889	0.919961
H76	H	1.490490	-1.078908	0.232024
H77	H	1.105291	-0.692013	0.323114
H78	H	1.359156	-0.945903	0.323199
H79	H	0.972286	-0.333754	0.390340
C80	C	1.343725	-0.569213	0.785920
H81	H	1.297537	-0.558431	0.826725
H82	H	1.345986	-0.506651	0.756661
H83	H	1.318333	-0.626685	0.756863
H84	H	0.972365	-0.644329	0.447817
H85	H	1.372428	-0.575726	0.920538
H86	H	1.474548	-0.677551	0.921468
C87	C	1.481578	-0.707733	0.786649
H88	H	1.491863	-0.753487	0.827750
H89	H	1.424232	-0.733217	0.757518
H90	H	1.544383	-0.706073	0.757614
C91	C	1.682817	-0.654892	0.926628
H92	H	1.696272	-0.699320	0.885255
H93	H	1.745234	-0.649488	0.955861
H94	H	1.627133	-0.684491	0.955416
H95	H	1.713671	-0.486552	0.920356
C96	C	1.735871	-0.465013	0.786478
H97	H	1.703787	-0.413011	0.755712
H98	H	1.768354	-0.431200	0.827597
H99	H	1.788117	-0.502634	0.759140
C100	C	1.683855	-0.653176	0.785027
H101	H	1.629581	-0.680708	0.753999
H102	H	1.747902	-0.646847	0.757673
H103	H	1.694618	-0.699868	0.825552
H104	H	1.429433	-0.372236	0.921293
H105	H	1.424765	-0.377665	0.793725
