data_functionalizedCrystal
_audit_creation_method	'MofGen! by Chris Wilmer'
_symmetry_space_group_name_H-M	'P1'
_symmetry_Int_Tables_number	1
_symmetry_cell_setting	triclinic
loop_
_symmetry_equiv_pos_as_xyz
  x,y,z
_cell_length_a	14.971486
_cell_length_b	14.971486
_cell_length_c	9.616153
_cell_angle_alpha	89.995023
_cell_angle_beta	90.007028
_cell_angle_gamma	83.614183
loop_
_atom_site_label
_atom_site_type_symbol
_atom_site_fract_x
_atom_site_fract_y
_atom_site_fract_z
O1	O	1.186936	0.116566	-0.115480
O2	O	0.926536	0.130525	-0.115517
O3	O	1.063715	-0.006654	-0.115495
O4	O	1.049757	0.253746	-0.115502
O5	O	1.063721	-0.006666	0.115797
O6	O	0.926542	0.130513	0.115775
O7	O	1.186942	0.116555	0.115812
Zn8	Zn	1.056743	0.123532	0.152516
Zn9	Zn	1.056735	0.123548	-0.152221
O10	O	1.049763	0.253734	0.115790
C11	C	0.893214	0.129895	0.000124
C12	C	0.793917	0.128024	0.000110
C13	C	0.736692	0.208614	0.000110
C14	C	0.643392	0.206850	0.000130
C15	C	0.607320	0.124497	0.000141
C16	C	0.664552	0.043902	0.000146
C17	C	0.757850	0.045666	0.000135
C18	C	0.470090	0.040231	0.000165
C19	C	0.376786	0.038466	0.000173
C20	C	0.355632	0.201415	0.000161
C21	C	0.448930	0.203179	0.000150
C22	C	0.506156	0.122584	0.000151
C23	C	1.063094	-0.039985	0.000148
C24	C	1.061223	-0.139282	0.000141
C25	C	1.220264	0.117185	0.000168
C26	C	1.319561	0.119055	0.000173
N27	N	1.056730	0.123552	-0.360195
C28	C	1.050384	0.287065	0.000144
C29	C	1.052255	0.386362	0.000142
C30	C	1.053131	0.433015	-0.125937
C31	C	1.054900	0.526314	-0.125938
C32	C	1.055787	0.572958	0.000140
C33	C	1.054913	0.526298	0.126228
C34	C	1.053150	0.433000	0.126228
C35	C	1.058585	0.720761	0.126219
C36	C	1.060347	0.814065	0.126220
C37	C	1.060336	0.814074	-0.125948
C38	C	1.058573	0.720776	-0.125947
C39	C	1.057697	0.674123	0.000141
C40	C	0.983193	0.196799	-0.419249
C41	C	0.983396	0.197042	-0.580416
C42	C	1.150140	0.143867	-0.580975
C43	C	1.149694	0.144411	-0.419758
C44	C	1.037727	0.029733	-0.419573
C45	C	1.035620	0.030336	-0.580803
N46	N	1.056755	0.123521	0.360490
H47	H	1.052401	0.395045	-0.228605
H48	H	0.995573	0.266653	-0.619016
H49	H	1.057846	0.682801	-0.228612
H50	H	1.055640	0.564283	0.228883
Cl51	Cl	0.829791	-0.055651	0.000141
H52	H	0.635175	-0.023152	0.000174
H53	H	1.061040	0.852044	0.228884
H54	H	1.166406	0.212831	-0.382186
Cl55	Cl	0.542030	-0.061092	0.000170
H56	H	0.478296	0.270239	0.000128
Cl57	Cl	1.001719	0.303690	-0.356786
H58	H	0.913545	0.184893	-0.380502
H59	H	1.206140	0.093165	-0.380689
H60	H	1.052436	0.395017	0.228894
Cl61	Cl	1.057489	0.662111	0.284734
H62	H	1.061041	0.852064	-0.228614
H63	H	0.596803	0.272474	0.000129
Cl64	Cl	1.056004	0.584959	-0.284445
Cl65	Cl	1.236690	0.063671	-0.640055
H66	H	1.091352	-0.024776	-0.381377
Cl67	Cl	1.112949	-0.057778	-0.642872
Cl68	Cl	0.876220	0.178394	-0.641530
Cl69	Cl	0.934809	-0.000451	-0.356818
Cl70	Cl	0.782030	0.312150	0.000087
Cl71	Cl	0.283691	0.302736	0.000161
Cl72	Cl	0.331439	-0.065065	0.000233
Cl73	Cl	0.929557	0.006492	-0.639875
H74	H	1.167261	0.211495	-0.621381
