data_functionalizedCrystal
_audit_creation_method	'MofGen! by Chris Wilmer'
_symmetry_space_group_name_H-M	'P1'
_symmetry_Int_Tables_number	1
_symmetry_cell_setting	triclinic
loop_
_symmetry_equiv_pos_as_xyz
  x,y,z
_cell_length_a	16.974800
_cell_length_b	23.532357
_cell_length_c	15.455313
_cell_angle_alpha	92.642146
_cell_angle_beta	90.973911
_cell_angle_gamma	83.110074
loop_
_atom_site_label
_atom_site_type_symbol
_atom_site_fract_x
_atom_site_fract_y
_atom_site_fract_z
O1	O	1.048489	0.072598	0.001487
O2	O	0.818986	0.081295	-0.014633
O3	O	0.940678	-0.005947	-0.006068
O4	O	0.926797	0.159840	-0.007078
O5	O	0.933719	-0.000979	0.137705
O6	O	0.812027	0.086264	0.129140
O7	O	1.041530	0.077566	0.145259
Cu8	Cu	0.926143	0.082369	0.150327
Cu9	Cu	0.934373	0.076493	-0.019700
O10	O	0.919838	0.164809	0.136694
C11	C	0.786151	0.083358	0.055192
C12	C	0.698679	0.082094	0.049049
C13	C	0.653796	0.084207	0.124536
C14	C	0.571609	0.083011	0.118766
C15	C	0.534306	0.079705	0.037510
C16	C	0.579195	0.077590	-0.037982
C17	C	0.661381	0.078782	-0.032212
C18	C	0.288913	0.075845	0.011848
C19	C	0.206720	0.074654	0.006084
C20	C	0.199140	0.080074	0.162833
C21	C	0.281328	0.081270	0.168596
C22	C	0.326210	0.079151	0.093104
N23	N	0.450297	0.078484	0.031610
N24	N	0.410218	0.080368	0.099004
C25	C	0.936851	-0.024681	0.065797
C26	C	0.935807	-0.087905	0.065732
C27	C	0.933048	-0.482664	-0.013146
C28	C	0.932056	-0.542069	-0.013220
O29	O	0.934742	-0.575092	-0.079909
N30	N	0.927770	-0.569075	0.065114
C31	C	0.924469	-0.536671	0.143528
O32	O	0.920732	-0.565097	0.210151
C33	C	0.925456	-0.477267	0.143602
C34	C	0.929749	-0.450265	0.065262
C35	C	0.937340	-0.455662	-0.091478
C36	C	0.938334	-0.396261	-0.091403
C37	C	0.935035	-0.363862	-0.012995
C38	C	0.930743	-0.390864	0.065338
C39	C	0.922149	-0.444864	0.222014
C40	C	0.923135	-0.385455	0.222081
C41	C	0.927429	-0.358454	0.143742
C42	C	0.928438	-0.299064	0.143821
N43	N	0.932723	-0.272058	0.065486
C44	C	0.936022	-0.304457	-0.012922
C45	C	0.922396	-0.661425	0.143368
C46	C	0.921415	-0.720829	0.143296
C47	C	0.929000	-0.726223	-0.013453
C48	C	0.929987	-0.666818	-0.013379
C49	C	0.926681	-0.634420	0.065034
C50	C	0.938109	-0.179710	-0.012758
C51	C	0.939105	-0.120304	-0.012676
C52	C	0.931516	-0.114916	0.144072
C53	C	0.930523	-0.174317	0.143990
C54	C	0.933818	-0.206713	0.065568
O55	O	0.925751	-0.266005	0.210475
O56	O	0.939748	-0.276023	-0.079534
C57	C	1.074365	0.075504	0.075433
C58	C	1.161837	0.076768	0.081570
C59	C	0.923665	0.183543	0.064828
C60	C	0.924710	0.246767	0.064887
N61	N	0.920361	0.086501	0.269916
N62	N	0.940161	0.072356	-0.139288
C63	C	0.972077	0.049451	0.318950
C64	C	0.967712	0.052581	0.409450
C65	C	0.911632	0.092765	0.450915
C66	C	0.859910	0.129816	0.401875
C67	C	0.864273	0.126683	0.311375
C68	C	0.892802	0.106274	0.721172
C69	C	0.888445	0.109406	0.811677
C70	C	0.996246	0.032170	0.819247
C71	C	1.000606	0.029043	0.728746
C72	C	0.948882	0.066092	0.679713
N73	N	0.907170	0.095966	0.543422
N74	N	0.953341	0.062887	0.587208
H75	H	0.162588	0.081797	0.224294
O76	O	0.940650	-0.487199	-0.167588
C77	C	1.008578	-0.528054	-0.167539
H78	H	1.027887	-0.536734	-0.097906
H79	H	0.994145	-0.569540	-0.201855
H80	H	1.058628	-0.510926	-0.202816
O81	O	0.932057	-0.757712	-0.089610
C82	C	0.863461	-0.785899	-0.099117
H83	H	0.813902	-0.762027	-0.057972
H84	H	0.843890	-0.786835	-0.170043
H85	H	0.877123	-0.831629	-0.077026
H86	H	0.311695	0.083958	0.234764
O87	O	0.941411	-0.211240	-0.088878
C88	C	1.009332	-0.252101	-0.088842
H89	H	1.028646	-0.260789	-0.019213
H90	H	0.994889	-0.293582	-0.123164
H91	H	1.059383	-0.234975	-0.124120
H92	H	0.933482	-0.644837	-0.077170
H93	H	0.850687	0.136443	0.681256
H94	H	0.917931	-0.742810	0.207089
H95	H	1.046271	-0.003678	0.694987
O96	O	0.943241	-0.094163	-0.088859
C97	C	0.945956	-0.135504	-0.158075
H98	H	0.919185	-0.174736	-0.136901
H99	H	0.910632	-0.116671	-0.215557
H100	H	1.010245	-0.148532	-0.177740
O101	O	0.542903	0.074481	-0.116896
C102	C	0.486251	0.122901	-0.125579
H103	H	0.502351	0.159239	-0.079831
H104	H	0.485540	0.137033	-0.195184
H105	H	0.425053	0.111586	-0.108743
O106	O	0.919223	-0.630045	0.219625
C107	C	0.915209	-0.666623	0.288739
H108	H	0.940569	-0.712077	0.267454
H109	H	0.951104	-0.651133	0.346266
H110	H	0.850709	-0.666237	0.308386
O111	O	0.942462	-0.370122	-0.167583
C112	C	0.945178	-0.411468	-0.236793
H113	H	0.918413	-0.450701	-0.215608
H114	H	0.909847	-0.392641	-0.294275
H115	H	1.009466	-0.424494	-0.256462
H116	H	0.535071	0.084722	0.180235
O117	O	0.805504	0.168834	0.442290
C118	C	0.812730	0.163648	0.532681
H119	H	0.874956	0.142917	0.549446
H120	H	0.801955	0.207950	0.566419
H121	H	0.767124	0.135883	0.555272
O122	O	0.814001	0.162734	0.263873
C123	C	0.763555	0.198864	0.319874
H124	H	0.792748	0.201808	0.386645
H125	H	0.752423	0.243416	0.292838
H126	H	0.704705	0.180586	0.325421
O127	O	0.170553	0.071520	-0.072902
C128	C	0.183599	0.119448	-0.119830
H129	H	0.239091	0.137507	-0.093588
H130	H	0.191965	0.105928	-0.191182
H131	H	0.130292	0.153662	-0.112669
O132	O	0.689909	0.087393	0.203539
C133	C	0.632664	0.089014	0.268926
H134	H	0.578600	0.069358	0.242078
H135	H	0.658985	0.063628	0.325779
H136	H	0.614117	0.135367	0.291796
O137	O	0.332559	0.073694	-0.061453
C138	C	0.389666	0.024951	-0.062134
H139	H	0.369266	-0.008315	-0.018936
H140	H	0.397083	0.006031	-0.131163
H141	H	0.448826	0.037722	-0.036855
H142	H	0.697924	0.077063	-0.093681
O143	O	0.833855	0.148379	0.851916
C144	C	0.756993	0.138198	0.824344
H145	H	0.758187	0.091740	0.799476
H146	H	0.714530	0.146720	0.881092
H147	H	0.736110	0.167902	0.770170
H148	H	0.918654	-0.466838	0.285807
O149	O	0.919946	-0.354072	0.298333
C150	C	0.915918	-0.390646	0.367451
H151	H	0.941285	-0.436101	0.346177
H152	H	0.951801	-0.375151	0.424984
H153	H	0.851414	-0.390260	0.387083
H154	H	0.927035	-0.196304	0.207781
H155	H	0.928834	-0.088526	0.207910
O156	O	1.046451	-0.003903	0.866783
C157	C	1.035144	-0.061069	0.843838
H158	H	1.007940	-0.063331	0.776003
H159	H	1.094749	-0.089108	0.844916
H160	H	0.993602	-0.076994	0.892041
O161	O	1.026578	0.010366	0.278811
C162	C	1.071299	-0.021654	0.341501
H163	H	1.035886	-0.020128	0.403752
H164	H	1.084951	-0.068017	0.316240
H165	H	1.129222	-0.002711	0.355205
O166	O	1.017845	0.016537	0.457109
C167	C	0.973416	-0.016868	0.506553
H168	H	0.912594	-0.018903	0.474937
H169	H	1.005892	-0.062033	0.509866
H170	H	0.965838	0.003317	0.574838
