data_functionalizedCrystal
_audit_creation_method	'MofGen! by Chris Wilmer'
_symmetry_space_group_name_H-M	'P1'
_symmetry_Int_Tables_number	1
_symmetry_cell_setting	triclinic
loop_
_symmetry_equiv_pos_as_xyz
  x,y,z
_cell_length_a	21.295418
_cell_length_b	18.101398
_cell_length_c	18.101395
_cell_angle_alpha	90.003361
_cell_angle_beta	90.046918
_cell_angle_gamma	90.023612
loop_
_atom_site_label
_atom_site_type_symbol
_atom_site_fract_x
_atom_site_fract_y
_atom_site_fract_z
Zn1	Zn	0.962228	0.419121	-0.294693
Zn2	Zn	1.462228	0.919121	0.205307
Zn3	Zn	0.962166	0.295283	-0.418490
Zn4	Zn	1.462166	0.795283	0.081510
Zn5	Zn	0.856988	0.295252	-0.294701
Zn6	Zn	1.356988	0.795252	0.205299
Zn7	Zn	0.856919	0.419041	-0.418532
Zn8	Zn	1.356919	0.919041	0.081468
O9	O	0.909575	0.357174	-0.356604
O10	O	1.409575	0.857174	0.143396
O11	O	1.050309	0.402740	-0.311095
O12	O	1.550309	0.902740	0.188905
O13	O	0.948217	0.191646	-0.402055
O14	O	1.448217	0.691646	0.097945
O15	O	0.871003	0.311704	-0.191067
O16	O	1.371003	0.811704	0.308933
O17	O	1.050264	0.311756	-0.402047
O18	O	1.550264	0.811756	0.097953
O19	O	0.948322	0.402710	-0.191061
O20	O	1.448322	0.902710	0.308939
O21	O	0.870943	0.191623	-0.311107
O22	O	1.370943	0.691623	0.188893
O23	O	0.768890	0.311627	-0.311148
O24	O	1.268890	0.811627	0.188852
O25	O	0.870886	0.522685	-0.402119
O26	O	1.370886	1.022685	0.097881
O27	O	0.768839	0.402574	-0.402126
O28	O	1.268839	0.902574	0.097874
O29	O	0.948256	0.522743	-0.311135
O30	O	1.448256	1.022743	0.188865
O31	O	0.948151	0.311679	-0.522128
O32	O	1.448151	0.811679	-0.022128
O33	O	0.870826	0.402604	-0.522159
O34	O	1.370826	0.902604	-0.022159
C35	C	0.746024	0.357089	-0.356643
C36	C	1.246024	0.857089	0.143357
C37	C	0.676056	0.357070	-0.356677
C38	C	1.176056	0.857070	0.143323
C39	C	0.909570	0.550336	-0.356631
C40	C	1.409570	1.050336	0.143369
C41	C	0.909568	0.632650	-0.356642
C42	C	1.409568	1.132650	0.143358
C43	C	0.909563	0.783359	-0.356630
C44	C	1.409563	1.283359	0.143370
C45	C	0.860886	0.814675	-0.413873
C46	C	1.360886	1.314675	0.086127
C47	C	0.860693	0.900294	-0.413698
C48	C	1.360693	1.400294	0.086302
C49	C	0.909558	0.931741	-0.356620
C50	C	1.409558	1.431741	0.143380
C51	C	0.891810	0.900650	-0.278522
C52	C	1.391810	1.400650	0.221478
C53	C	0.891460	0.815005	-0.278859
C54	C	1.391460	1.315005	0.221141
C55	C	0.976110	0.814953	-0.376802
C56	C	1.476110	1.314953	0.123198
C57	C	0.975751	0.900603	-0.378517
C58	C	1.475751	1.400603	0.121483
C59	C	0.909557	1.015601	-0.356609
C60	C	1.409557	1.515601	0.143391
C61	C	0.909563	0.699499	-0.356636
C62	C	1.409563	1.199499	0.143364
C63	C	0.643179	0.404356	-0.404112
C64	C	1.143179	0.904356	0.095888
C65	C	0.577437	0.404389	-0.404094
C66	C	1.077437	0.904389	0.095906
C67	C	0.544573	0.357123	-0.356649
C68	C	1.044573	0.857123	0.143351
C69	C	0.577458	0.309834	-0.309205
C70	C	1.077458	0.809834	0.190795
C71	C	0.643199	0.309808	-0.309219
C72	C	1.143199	0.809808	0.190781
N73	N	0.441317	0.292350	-0.350838
N74	N	0.941317	0.792350	0.149162
N75	N	0.378865	0.292378	-0.350829
N76	N	0.878865	0.792378	0.149171
C77	C	0.346499	0.357202	-0.356602
C78	C	0.846499	0.857202	0.143398
N79	N	0.378943	0.421999	-0.362398
N80	N	0.878943	0.921999	0.137602
N81	N	0.441400	0.421971	-0.362412
N82	N	0.941400	0.921971	0.137588
C83	C	0.473288	0.357147	-0.356628
C84	C	0.973288	0.857147	0.143372
C85	C	0.242337	0.404527	-0.404019
C86	C	0.742337	0.904527	0.095981
C87	C	0.176593	0.404562	-0.403996
C88	C	0.676593	0.904562	0.096004
C89	C	0.176615	0.310001	-0.309110
C90	C	0.676615	0.810001	0.190890
C91	C	0.242357	0.309973	-0.309130
C92	C	0.742357	0.809973	0.190870
C93	C	0.275214	0.357235	-0.356588
C94	C	0.775214	0.857235	0.143412
C95	C	1.073766	0.357260	-0.356565
C96	C	1.573766	0.857260	0.143435
C97	C	1.143734	0.357297	-0.356549
C98	C	1.643734	0.857297	0.143451
C99	C	0.909570	1.164764	-0.356600
C100	C	1.409570	1.664764	0.143400
C101	C	0.909554	1.082450	-0.356608
C102	C	1.409554	1.582450	0.143392
C103	C	0.909491	0.357152	-0.549015
C104	C	1.409491	0.857152	-0.049015
C105	C	0.909513	0.357168	-0.631329
C106	C	1.409513	0.857168	-0.131329
C107	C	0.909651	0.357208	-0.930420
C108	C	1.409651	0.857208	-0.430420
C109	C	0.861113	0.414557	-0.899145
C110	C	1.361113	0.914557	-0.399145
C111	C	0.860883	0.414378	-0.813527
C112	C	1.360883	0.914378	-0.313527
C113	C	0.909582	0.357189	-0.782037
C114	C	1.409582	0.857189	-0.282037
C115	C	0.891639	0.279132	-0.813162
C116	C	1.391639	0.779132	-0.313162
C117	C	0.891326	0.279475	-0.898807
C118	C	1.391326	0.779475	-0.398807
C119	C	0.976238	0.377228	-0.898750
C120	C	1.476238	0.877228	-0.398750
C121	C	0.975846	0.378939	-0.813100
C122	C	1.475846	0.878939	-0.313100
C123	C	0.909545	0.357173	-0.698178
C124	C	1.409545	0.857173	-0.198178
C125	C	0.909687	0.357218	-1.014279
C126	C	1.409687	0.857218	-0.514279
C127	C	0.909677	0.357212	-0.163442
C128	C	1.409677	0.857212	0.336558
C129	C	0.909721	0.357229	-0.081128
C130	C	1.409721	0.857229	0.418872
H131	H	0.871771	0.921315	-0.471602
H132	H	1.371771	1.421315	0.028398
C133	C	0.794193	0.396514	-0.785947
C134	C	1.294193	0.896514	-0.285947
N135	N	0.743957	0.383077	-0.765174
N136	N	1.243957	0.883077	-0.265174
H137	H	0.842652	0.262519	-0.918859
H138	H	1.342652	0.762519	-0.418859
C139	C	0.993838	0.928055	-0.456165
C140	C	1.493838	1.428055	0.043835
N141	N	1.007460	0.948735	-0.514651
N142	N	1.507460	1.448735	-0.014651
C143	C	1.025092	0.320803	-0.926072
C144	C	1.525092	0.820803	-0.426072
N145	N	1.061885	0.278302	-0.946655
N146	N	1.561885	0.778302	-0.446655
C147	C	0.541265	0.456406	-0.456281
C148	C	1.041265	0.956406	0.043719
N149	N	0.514023	0.495585	-0.495589
N150	N	1.014023	0.995585	0.004411
C151	C	0.140429	0.456576	-0.456187
C152	C	0.640429	0.956576	0.043813
N153	N	0.113190	0.495751	-0.495502
N154	N	0.613190	0.995751	0.004498
H155	H	0.812057	0.401461	-0.920742
H156	H	1.312057	0.901461	-0.420742
C157	C	0.937289	0.787016	-0.219258
C158	C	1.437289	1.287016	0.280742
N159	N	0.971804	0.765938	-0.174364
N160	N	1.471804	1.265938	0.325636
C161	C	0.826575	0.255818	-0.784291
C162	C	1.326575	0.755818	-0.284291
N163	N	0.777567	0.238262	-0.762548
N164	N	1.277567	0.738262	-0.262548
C165	C	0.876044	0.492569	-0.785096
C166	C	1.376044	0.992569	-0.285096
N167	N	0.887460	0.551466	-0.763686
N168	N	1.387460	1.051466	-0.263686
C169	C	1.027341	0.929516	-0.326316
C170	C	1.527341	1.429516	0.173684
N171	N	1.066196	0.951290	-0.286989
N172	N	1.566196	1.451290	0.213011
H173	H	0.925146	0.235287	-0.919495
H174	H	1.425146	0.735287	-0.419495
C175	C	0.541306	0.257842	-0.257015
C176	C	1.041306	0.757842	0.242985
N177	N	0.514077	0.218682	-0.217702
N178	N	1.014077	0.718682	0.282298
H179	H	1.012374	0.794708	-0.335107
H180	H	1.512374	1.294708	0.164893
H181	H	0.925880	0.235236	-0.792762
H182	H	1.425880	0.735236	-0.292762
H183	H	0.992601	0.433178	-0.920316
H184	H	1.492601	0.933178	-0.420316
C185	C	1.027285	0.326623	-0.784137
C186	C	1.527285	0.826623	-0.284137
N187	N	1.066027	0.287212	-0.762324
N188	N	1.566027	0.787212	-0.262324
C189	C	0.679318	0.456348	-0.456316
C190	C	1.179318	0.956348	0.043684
N191	N	0.706539	0.495510	-0.495635
N192	N	1.206539	0.995510	0.004365
C193	C	0.994143	0.456530	-0.785585
C194	C	1.494143	0.956530	-0.285585
N195	N	1.007926	0.514967	-0.764848
N196	N	1.507926	1.014967	-0.264848
H197	H	0.871835	0.794085	-0.471961
H198	H	1.371835	1.294085	0.028039
C199	C	0.140469	0.258009	-0.256919
C200	C	0.640469	0.758009	0.243081
N201	N	0.113240	0.218847	-0.217606
N202	N	0.613240	0.718847	0.282394
C203	C	0.794646	0.785581	-0.396027
C204	C	1.294646	1.285581	0.103973
N205	N	0.744754	0.763667	-0.382582
N206	N	1.244754	1.263667	0.117418
H207	H	0.811381	0.920762	-0.400326
H208	H	1.311381	1.420762	0.099674
C209	C	0.679364	0.257784	-0.257038
C210	C	1.179364	0.757784	0.242962
N211	N	0.706605	0.218597	-0.217737
N212	N	1.206605	0.718597	0.282263
H213	H	0.926177	0.921020	-0.234704
H214	H	1.426177	1.421020	0.265296
H215	H	0.842822	0.795008	-0.261791
H216	H	1.342822	1.295008	0.238209
C217	C	0.278481	0.456525	-0.456216
C218	C	0.778481	0.956525	0.043784
N219	N	0.305704	0.495691	-0.495529
N220	N	0.805704	0.995691	0.004471
C221	C	0.278523	0.257948	-0.256954
C222	C	0.778523	0.757948	0.243046
N223	N	0.305762	0.218760	-0.217651
N224	N	0.805762	0.718760	0.282349
H225	H	0.843706	0.922080	-0.261156
H226	H	1.343706	1.422080	0.238844
H227	H	0.992314	0.793359	-0.432787
H228	H	1.492314	1.293359	0.067213
H229	H	0.872226	0.472622	-0.919713
H230	H	1.372226	0.972622	-0.419713
