data_functionalizedCrystal
_audit_creation_method	'MofGen! by Chris Wilmer'
_symmetry_space_group_name_H-M	'P1'
_symmetry_Int_Tables_number	1
_symmetry_cell_setting	triclinic
loop_
_symmetry_equiv_pos_as_xyz
  x,y,z
_cell_length_a	12.827893
_cell_length_b	12.827892
_cell_length_c	12.827885
_cell_angle_alpha	89.970024
_cell_angle_beta	89.980728
_cell_angle_gamma	90.015362
loop_
_atom_site_label
_atom_site_type_symbol
_atom_site_fract_x
_atom_site_fract_y
_atom_site_fract_z
Zn1	Zn	1.597671	-0.415978	-0.590847
Zn2	Zn	1.931004	-0.082645	-0.257514
Zn3	Zn	2.264338	0.250689	0.075819
Zn4	Zn	1.597566	-0.590755	-0.416107
Zn5	Zn	1.930899	-0.257422	-0.082774
Zn6	Zn	2.264232	0.075911	0.250560
Zn7	Zn	1.422912	-0.416029	-0.416121
Zn8	Zn	1.756246	-0.082696	-0.082788
Zn9	Zn	2.089579	0.250637	0.250546
Zn10	Zn	1.422898	-0.590678	-0.590807
Zn11	Zn	1.756232	-0.257345	-0.257474
Zn12	Zn	2.089565	0.075989	0.075860
O13	O	1.510262	-0.503360	-0.503471
O14	O	1.843595	-0.170027	-0.170137
O15	O	2.176928	0.163306	0.163196
O16	O	1.743893	-0.439173	-0.567679
O17	O	2.077226	-0.105840	-0.234345
O18	O	2.410560	0.227493	0.098988
O19	O	1.574359	-0.567631	-0.269873
O20	O	1.907693	-0.234298	0.063461
O21	O	2.241026	0.099035	0.396794
O22	O	1.446144	-0.269787	-0.439321
O23	O	1.779478	0.063547	-0.105988
O24	O	2.112811	0.396880	0.227345
O25	O	1.743816	-0.567582	-0.439298
O26	O	2.077149	-0.234248	-0.105964
O27	O	2.410482	0.099085	0.227369
O28	O	1.574539	-0.269749	-0.567692
O29	O	1.907872	0.063585	-0.234359
O30	O	2.241206	0.396918	0.098975
O31	O	1.446042	-0.439261	-0.269883
O32	O	1.779376	-0.105928	0.063450
O33	O	2.112709	0.227406	0.396784
O34	O	1.276674	-0.439186	-0.439282
O35	O	1.610008	-0.105853	-0.105949
O36	O	1.943341	0.227481	0.227384
O37	O	1.446120	-0.567450	-0.737048
O38	O	1.779454	-0.234117	-0.403715
O39	O	2.112787	0.099217	-0.070382
O40	O	1.276664	-0.567500	-0.567623
O41	O	1.609997	-0.234167	-0.234290
O42	O	1.943331	0.099167	0.099043
O43	O	1.574525	-0.439098	-0.737078
O44	O	1.907858	-0.105765	-0.403745
O45	O	2.241192	0.227568	-0.070411
O46	O	1.574346	-0.736981	-0.439259
O47	O	1.907679	-0.403648	-0.105925
O48	O	2.241012	-0.070314	0.227408
O49	O	1.446018	-0.736924	-0.567610
O50	O	1.779352	-0.403591	-0.234277
O51	O	2.112685	-0.070258	0.099057
C52	C	1.238752	-0.503341	-0.503451
C53	C	1.572085	-0.170008	-0.170117
C54	C	1.905419	0.163326	0.163216
C55	C	1.122599	-0.503358	-0.503467
C56	C	1.455932	-0.170025	-0.170134
C57	C	1.789265	0.163309	0.163200
C58	C	0.950732	-0.566817	-0.439874
C59	C	1.284065	-0.233483	-0.106541
C60	C	1.617398	0.099850	0.226793
C61	C	1.070782	-0.566801	-0.439856
C62	C	1.404115	-0.233467	-0.106522
C63	C	1.737449	0.099866	0.226811
C64	C	1.510197	-0.774870	-0.503451
C65	C	1.843531	-0.441537	-0.170118
C66	C	2.176864	-0.108203	0.163215
C67	C	1.510265	-0.891023	-0.503478
C68	C	1.843599	-0.557690	-0.170145
C69	C	2.176932	-0.224357	0.163189
C70	C	1.446750	-0.942814	-0.566944
C71	C	1.780083	-0.609481	-0.233610
C72	C	2.113417	-0.276148	0.099723
C73	C	1.446819	-1.062865	-0.566973
C74	C	1.780152	-0.729531	-0.233639
C75	C	2.113486	-0.396198	0.099694
C76	C	1.782832	-0.503380	-0.503491
C77	C	2.116165	-0.170047	-0.170158
C78	C	2.449499	0.163286	0.163176
C79	C	1.898985	-0.503389	-0.503500
C80	C	2.232318	-0.170055	-0.170167
C81	C	2.565652	0.163278	0.163167
C82	C	1.510333	-0.503260	-0.776041
C83	C	1.843666	-0.169927	-0.442708
C84	C	2.177000	0.163407	-0.109374
C85	C	1.510363	-0.503217	-0.892194
C86	C	1.843697	-0.169884	-0.558861
C87	C	2.177030	0.163450	-0.225527
C88	C	1.510355	-0.230790	-0.503513
C89	C	1.843688	0.102543	-0.170180
C90	C	2.177022	0.435877	0.163154
C91	C	1.510395	-0.114637	-0.503531
C92	C	1.843728	0.218696	-0.170198
C93	C	2.177061	0.552030	0.163136
C94	C	1.446878	-0.566658	-1.064009
C95	C	1.780211	-0.233325	-0.730675
C96	C	2.113544	0.100009	-0.397342
C97	C	1.446845	-0.566704	-0.943958
C98	C	1.780178	-0.233370	-0.610625
C99	C	2.113511	0.099963	-0.277292
C100	C	1.510251	-0.503385	-0.231961
C101	C	1.843584	-0.170051	0.101373
C102	C	2.176918	0.163282	0.434706
C103	C	1.510423	-0.503133	-0.115808
C104	C	1.843757	-0.169800	0.217525
C105	C	2.177090	0.163534	0.550859
H106	H	1.078104	-0.449056	-0.557946
H107	H	1.411438	-0.115722	-0.224612
H108	H	1.744771	0.217611	0.108721
H109	H	1.564773	-0.448832	-0.936734
H110	H	1.898107	-0.115498	-0.603400
H111	H	2.231440	0.217835	-0.270067
H112	H	1.392316	-0.898281	-0.621254
H113	H	1.725650	-0.564947	-0.287921
H114	H	2.058983	-0.231614	0.045412
H115	H	1.392445	-1.107404	-0.621312
H116	H	1.725779	-0.774071	-0.287979
H117	H	2.059112	-0.440737	0.045355
H118	H	1.564780	-1.070105	-0.449196
H119	H	1.898113	-0.736772	-0.115863
H120	H	2.231446	-0.403439	0.217470
H121	H	1.115283	-0.621109	-0.385389
H122	H	1.448616	-0.287776	-0.052056
H123	H	1.781950	0.045558	0.281278
H124	H	0.943560	-0.449070	-0.557954
H125	H	1.276893	-0.115736	-0.224621
H126	H	1.610226	0.217597	0.108712
H127	H	1.564798	-0.448776	-1.071279
H128	H	1.898131	-0.115443	-0.737945
H129	H	2.231465	0.217890	-0.404612
H130	H	0.906157	-0.621127	-0.385411
H131	H	1.239490	-0.287793	-0.052077
H132	H	1.572824	0.045540	0.281256
H133	H	1.564691	-0.935560	-0.449161
H134	H	1.898024	-0.602226	-0.115828
H135	H	2.231358	-0.268893	0.217505
H136	H	1.392495	-0.621007	-1.108538
H137	H	1.725828	-0.287674	-0.775205
H138	H	2.059162	0.045660	-0.441871
H139	H	1.392445	-0.621093	-0.899412
H140	H	1.725778	-0.287760	-0.566079
H141	H	2.059112	0.045573	-0.232745
