data_functionalizedCrystal
_audit_creation_method	'MofGen! by Chris Wilmer'
_symmetry_space_group_name_H-M	'P1'
_symmetry_Int_Tables_number	1
_symmetry_cell_setting	triclinic
loop_
_symmetry_equiv_pos_as_xyz
  x,y,z
_cell_length_a	11.169417
_cell_length_b	12.594516
_cell_length_c	11.169409
_cell_angle_alpha	89.967028
_cell_angle_beta	89.979747
_cell_angle_gamma	90.013065
loop_
_atom_site_label
_atom_site_type_symbol
_atom_site_fract_x
_atom_site_fract_y
_atom_site_fract_z
Zn1	Zn	1.834959	-0.423621	-0.678527
Zn2	Zn	1.834840	-0.601647	-0.477841
Zn3	Zn	1.634242	-0.423687	-0.477862
Zn4	Zn	1.634247	-0.601562	-0.678487
O5	O	1.734572	-0.512629	-0.578180
O6	O	2.002893	-0.447245	-0.651913
O7	O	1.808179	-0.578104	-0.309894
O8	O	1.660915	-0.274732	-0.504506
O9	O	2.002806	-0.578040	-0.504471
O10	O	1.808381	-0.274684	-0.651934
O11	O	1.660800	-0.447357	-0.309910
O12	O	1.466293	-0.447274	-0.504468
O13	O	1.660923	-0.577894	-0.846443
O14	O	1.466297	-0.577958	-0.651866
O15	O	1.808386	-0.447162	-0.846472
O16	O	1.808184	-0.750582	-0.504432
O17	O	1.660809	-0.750519	-0.651846
C18	C	1.422747	-0.512615	-0.578166
C19	C	1.289347	-0.512634	-0.578188
C20	C	1.734516	-0.789170	-0.578159
C21	C	1.734602	-0.907476	-0.578190
C22	C	1.814853	-0.976724	-0.498097
C23	C	1.844188	-1.047411	-0.607640
C24	C	1.705418	-1.047587	-0.468717
C25	C	1.763993	-0.976605	-0.687790
C26	C	1.625172	-0.976774	-0.548793
C27	C	1.654466	-1.047430	-0.658412
C28	C	2.047614	-0.512644	-0.578194
C29	C	2.181014	-0.512651	-0.578200
C30	C	1.734668	-0.512511	-0.891222
C31	C	1.734709	-0.512461	-1.024622
C32	C	1.734661	-0.235008	-0.578227
C33	C	1.734698	-0.116703	-0.578247
C34	C	1.734545	-0.512670	-0.266355
C35	C	1.734737	-0.512420	-0.132955
H36	H	1.882729	-0.945677	-0.430426
C37	C	1.672003	-1.089702	-0.343618
C38	C	1.750495	-1.061808	-0.234764
C39	C	1.717091	-1.103918	-0.109664
C40	C	1.605196	-1.173920	-0.093418
C41	C	1.526697	-1.201817	-0.202275
C42	C	1.560101	-1.159708	-0.327376
H43	H	1.833333	-1.009985	-0.246787
H44	H	1.775201	-1.083266	-0.029080
H45	H	1.580468	-1.205092	-0.000811
H46	H	1.443859	-1.253640	-0.190252
H47	H	1.501990	-1.180359	-0.407959
H48	H	1.586642	-1.078280	-0.726246
C49	C	1.969258	-1.089336	-0.641281
C50	C	2.078219	-1.061418	-0.562940
C51	C	2.203292	-1.103334	-0.596574
C52	C	2.219403	-1.173169	-0.708550
C53	C	2.110438	-1.201091	-0.786898
C54	C	1.985365	-1.159174	-0.753263
H55	H	2.066296	-1.009718	-0.480043
H56	H	2.283955	-1.082664	-0.538575
H57	H	2.311989	-1.204198	-0.733448
H58	H	2.122361	-1.252790	-0.869795
H59	H	1.904702	-1.179844	-0.811263
C60	C	1.797549	-0.934674	-0.812929
C61	C	1.803749	-0.814241	-0.836008
C62	C	1.837309	-0.772309	-0.961142
C63	C	1.864668	-0.850809	-1.063197
C64	C	1.858469	-0.971249	-1.040120
C65	C	1.824909	-1.013181	-0.914986
H66	H	1.783496	-0.756124	-0.760458
H67	H	1.841898	-0.683151	-0.978224
H68	H	1.889511	-0.819767	-1.155828
H69	H	1.878723	-1.029366	-1.115670
H70	H	1.820320	-1.102339	-0.897904
H71	H	1.532615	-0.945720	-0.523865
