data_functionalizedCrystal
_audit_creation_method	'MofGen! by Chris Wilmer'
_symmetry_space_group_name_H-M	'P1'
_symmetry_Int_Tables_number	1
_symmetry_cell_setting	triclinic
loop_
_symmetry_equiv_pos_as_xyz
  x,y,z
_cell_length_a	16.974901
_cell_length_b	9.730217
_cell_length_c	16.974959
_cell_angle_alpha	93.650671
_cell_angle_beta	83.637344
_cell_angle_gamma	86.345511
loop_
_atom_site_label
_atom_site_type_symbol
_atom_site_fract_x
_atom_site_fract_y
_atom_site_fract_z
O1	O	-1.049027	0.219643	-0.100839
O2	O	-0.549027	0.719643	0.399161
O3	O	-0.818811	0.192644	-0.113660
O4	O	-0.318811	0.692644	0.386340
O5	O	-0.940329	0.219632	0.007857
O6	O	-0.440329	0.719632	0.507857
O7	O	-0.927509	0.192655	-0.222357
O8	O	-0.427509	0.692655	0.277643
O9	O	-0.940320	-0.008950	0.007850
O10	O	-0.440320	0.491050	0.507850
O11	O	-0.818803	-0.035938	-0.113667
O12	O	-0.318803	0.464062	0.386333
O13	O	-1.049018	-0.008938	-0.100847
O14	O	-0.549018	0.491062	0.399153
Zn15	Zn	-0.933909	-0.058731	-0.107258
Zn16	Zn	-0.433909	0.441269	0.392742
Zn17	Zn	-0.933920	0.242436	-0.107248
Zn18	Zn	-0.433920	0.742436	0.392752
O19	O	-0.927501	-0.035927	-0.222364
O20	O	-0.427501	0.464073	0.277636
C21	C	-0.789349	0.075134	-0.113173
C22	C	-0.289349	0.575134	0.386827
C23	C	-0.701575	0.065546	-0.111703
C24	C	-0.201575	0.565546	0.388297
N25	N	-0.933908	-0.264268	-0.107264
N26	N	-0.433908	0.235732	0.392736
C27	C	-0.660336	0.185631	-0.111010
C28	C	-0.160336	0.685631	0.388990
C29	C	-0.577862	0.176601	-0.109642
C30	C	-0.077862	0.676601	0.390358
C31	C	-0.536629	0.047484	-0.108960
C32	C	-0.036629	0.547484	0.391040
C33	C	-0.577873	-0.072610	-0.109655
C34	C	-0.077873	0.427390	0.390345
C35	C	-0.660346	-0.063579	-0.111030
C36	C	-0.160346	0.436421	0.388970
C37	C	-0.289973	0.007112	-0.104856
C38	C	0.210027	0.507112	0.395144
C39	C	-0.207495	-0.001911	-0.103479
C40	C	0.292505	0.498089	0.396521
C41	C	-0.207489	0.247301	-0.103467
C42	C	0.292511	0.747301	0.396533
C43	C	-0.289964	0.256322	-0.104836
C44	C	0.210036	0.756322	0.395164
C45	C	-0.331200	0.136227	-0.105536
C46	C	0.168800	0.636227	0.394464
N47	N	-0.452327	0.038250	-0.107559
N48	N	0.047673	0.538250	0.392441
N49	N	-0.415500	0.145461	-0.106943
N50	N	0.084500	0.645461	0.393057
C51	C	-0.838132	-0.552016	-0.011357
C52	C	-0.338132	-0.052016	0.488643
C53	C	-0.790225	-0.480074	0.036572
C54	C	-0.290225	0.019926	0.536572
C55	C	-0.790210	-0.336198	0.036556
C56	C	-0.290210	0.163802	0.536556
C57	C	-0.838108	-0.264260	-0.011391
C58	C	-0.338108	0.235740	0.488609
C59	C	-0.886016	-0.336202	-0.059320
C60	C	-0.386016	0.163798	0.440680
C61	C	-0.886024	-0.480082	-0.059302
C62	C	-0.386024	0.019918	0.440698
C63	C	-0.981815	-0.336210	-0.155193
C64	C	-0.481815	0.163790	0.344807
C65	C	-0.981827	-0.480088	-0.155184
C66	C	-0.481827	0.019912	0.344816
C67	C	-1.029714	-0.264273	-0.203141
C68	C	-0.529714	0.235727	0.296859
C69	C	-1.077618	-0.336216	-0.251075
C70	C	-0.577618	0.163784	0.248925
C71	C	-1.077630	-0.480101	-0.251059
C72	C	-0.577630	0.019899	0.248941
C73	C	-1.029734	-0.552030	-0.203113
C74	C	-0.529734	-0.052030	0.296887
C75	C	-0.078481	0.108575	-0.101329
C76	C	0.421519	0.608575	0.398671
C77	C	-0.166256	0.118175	-0.102786
C78	C	0.333744	0.618175	0.397214
C79	C	-0.939834	0.108559	0.037311
C80	C	-0.439834	0.608559	0.537311
C81	C	-0.938364	0.118147	0.125084
C82	C	-0.438364	0.618147	0.625084
N83	N	-0.933928	0.447975	-0.107236
N84	N	-0.433928	0.947975	0.392764
C85	C	-0.927995	0.075149	-0.251818
C86	C	-0.427995	0.575149	0.248182
C87	C	-0.929466	0.065570	-0.339591
C88	C	-0.429466	0.565570	0.160409
C89	C	-0.930158	0.185650	0.619162
C90	C	-0.430158	0.685650	1.119162
C91	C	-0.931532	0.176613	0.536689
C92	C	-0.431532	0.676613	1.036689
C93	C	-0.932208	0.047493	0.495464
C94	C	-0.432208	0.547493	0.995464
C95	C	-0.931518	-0.072596	0.536717
C96	C	-0.431518	0.427404	1.036717
C97	C	-0.930150	-0.063556	0.619190
C98	C	-0.430150	0.436444	1.119190
C99	C	-0.936305	0.007098	0.248810
C100	C	-0.436305	0.507098	0.748810
C101	C	-0.937671	-0.001933	0.166331
C102	C	-0.437671	0.498067	0.666331
C103	C	-0.937686	0.247277	0.166309
C104	C	-0.437686	0.747277	0.666309
C105	C	-0.936313	0.256304	0.248782
C106	C	-0.436313	0.756304	0.748782
C107	C	-0.935628	0.136216	0.290029
C108	C	-0.435628	0.636216	0.790029
N109	N	-0.933610	0.038252	0.411163
N110	N	-0.433610	0.538252	0.911163
N111	N	-0.934231	0.145459	0.374329
N112	N	-0.434231	0.645459	0.874329
H113	H	-0.693903	0.290772	-0.111563
H114	H	-0.193903	0.790772	0.388437
H115	H	-0.323539	-0.090678	-0.105420
H116	H	0.176461	0.409322	0.394580
O117	O	-0.738558	-0.258629	0.088287
O118	O	-0.238558	0.241371	0.588287
H119	H	-0.776526	-0.184151	0.130792
H120	H	-0.276526	0.315849	0.630792
O121	O	-0.838098	-0.109081	-0.011430
O122	O	-0.338098	0.390919	0.488570
H123	H	-0.857659	-0.062145	0.049470
H124	H	-0.357659	0.437855	0.549470
O125	O	-0.163013	0.376827	-0.102724
O126	O	0.336987	0.876827	0.397276
H127	H	-0.098737	0.348861	-0.101661
H128	H	0.401263	0.848861	0.398339
H129	H	-0.693921	-0.161366	-0.111597
H130	H	-0.193921	0.338634	0.388403
H131	H	-0.938198	-0.107087	0.132765
H132	H	-0.438198	0.392913	0.632765
H133	H	-1.116645	-0.538667	-0.290086
H134	H	-0.616645	-0.038667	0.209914
O135	O	-0.929414	-0.193075	0.663679
O136	O	-0.429414	0.306925	1.163679
H137	H	-0.928362	-0.165098	0.727955
H138	H	-0.428362	0.334902	1.227955
O139	O	-0.533385	0.306125	-0.108851
O140	O	-0.033385	0.806125	0.391149
H141	H	-0.575916	0.397427	-0.109531
H142	H	-0.075916	0.897427	0.390469
O143	O	-1.029745	-0.707210	-0.203083
O144	O	-0.529745	-0.207210	0.296917
H145	H	-1.010178	-0.754130	-0.263986
H146	H	-0.510178	-0.254130	0.236014
O147	O	-0.533205	-0.211727	-0.109046
O148	O	-0.033205	0.288273	0.390954
H149	H	-0.555959	-0.263270	-0.055494
H150	H	-0.055959	0.236730	0.444506
O151	O	-1.129277	-0.258629	-0.302783
O152	O	-0.629277	0.241371	0.197217
H153	H	-1.112006	-0.295208	-0.365985
H154	H	-0.612006	0.204792	0.134015
H155	H	-0.929600	0.290793	0.652720
H156	H	-0.429600	0.790793	1.152720
H157	H	-0.838134	-0.669169	-0.011346
H158	H	-0.338134	-0.169169	0.488654
O159	O	-0.932263	0.306124	0.492195
O160	O	-0.432263	0.806124	0.992195
H161	H	-0.931548	0.397425	0.534715
H162	H	-0.431548	0.897425	1.034715
O163	O	-0.935557	-0.122420	0.293293
O164	O	-0.435557	0.377580	0.793293
H165	H	-0.936247	-0.213721	0.250767
H166	H	-0.436247	0.286279	0.750767
O167	O	-0.738570	-0.557656	0.088293
O168	O	-0.238570	-0.057656	0.588293
H169	H	-0.675356	-0.538993	0.071068
H170	H	-0.175356	-0.038993	0.571068
H171	H	-0.935768	0.361448	0.282342
H172	H	-0.435768	0.861448	0.782342
H173	H	-0.938245	0.345046	0.132717
H174	H	-0.438245	0.845046	0.632717
O175	O	-0.932250	-0.211866	0.492260
O176	O	-0.432250	0.288134	0.992260
H177	H	-0.933310	-0.197983	0.427980
H178	H	-0.433310	0.302017	0.927980
H179	H	-0.173923	-0.107061	-0.102946
H180	H	0.326077	0.392939	0.397054
O181	O	-0.334437	0.395582	-0.105575
O182	O	0.165563	0.895582	0.394425
H183	H	-0.291903	0.477570	-0.104870
H184	H	0.208097	0.977570	0.395130
H185	H	-1.029702	-0.147120	-0.203146
H186	H	-0.529702	0.352880	0.296854
