data_functionalizedCrystal
_audit_creation_method	'MofGen! by Chris Wilmer'
_symmetry_space_group_name_H-M	'P1'
_symmetry_Int_Tables_number	1
_symmetry_cell_setting	triclinic
loop_
_symmetry_equiv_pos_as_xyz
  x,y,z
_cell_length_a	18.050590
_cell_length_b	18.050590
_cell_length_c	18.050582
_cell_angle_alpha	90.023337
_cell_angle_beta	89.999233
_cell_angle_gamma	90.007719
loop_
_atom_site_label
_atom_site_type_symbol
_atom_site_fract_x
_atom_site_fract_y
_atom_site_fract_z
Zn1	Zn	1.135342	-0.295921	0.419598
Zn2	Zn	1.468676	0.037412	0.752931
Zn3	Zn	1.802009	0.370745	1.086264
Zn4	Zn	1.135274	-0.420105	0.295406
Zn5	Zn	1.468607	-0.086771	0.628739
Zn6	Zn	1.801941	0.246562	0.962073
Zn7	Zn	1.011162	-0.295910	0.295456
Zn8	Zn	1.344495	0.037424	0.628789
Zn9	Zn	1.677828	0.370757	0.962122
Zn10	Zn	1.011131	-0.420051	0.419589
Zn11	Zn	1.344464	-0.086717	0.752922
Zn12	Zn	1.677797	0.246616	1.086255
O13	O	1.073227	-0.357997	0.357512
O14	O	1.406560	-0.024663	0.690845
O15	O	1.739894	0.308670	1.024179
O16	O	1.239258	-0.312422	0.403106
O17	O	1.572591	0.020911	0.736440
O18	O	1.905925	0.354244	1.069773
O19	O	1.118795	-0.403648	0.191488
O20	O	1.452128	-0.070314	0.524821
O21	O	1.785461	0.263019	0.858155
O22	O	1.027676	-0.191987	0.311948
O23	O	1.361009	0.141347	0.645281
O24	O	1.694343	0.474680	0.978615
O25	O	1.239208	-0.403659	0.311863
O26	O	1.572541	-0.070326	0.645197
O27	O	1.905874	0.263008	0.978530
O28	O	1.118911	-0.191995	0.403155
O29	O	1.452244	0.141338	0.736488
O30	O	1.785578	0.474671	1.069821
O31	O	1.027610	-0.312402	0.191525
O32	O	1.360943	0.020931	0.524858
O33	O	1.694276	0.354265	0.858191
O34	O	0.907233	-0.312350	0.311939
O35	O	1.240566	0.020984	0.645273
O36	O	1.573900	0.354317	0.978606
O37	O	1.027623	-0.403567	0.523514
O38	O	1.360956	-0.070234	0.856848
O39	O	1.694290	0.263100	1.190181
O40	O	0.907210	-0.403555	0.403139
O41	O	1.240543	-0.070222	0.736472
O42	O	1.573877	0.263111	1.069806
O43	O	1.118881	-0.312370	0.523521
O44	O	1.452214	0.020964	0.856854
O45	O	1.785548	0.354297	1.190188
O46	O	1.118765	-0.524022	0.311854
O47	O	1.452098	-0.190689	0.645188
O48	O	1.785431	0.142645	0.978521
O49	O	1.027557	-0.523982	0.403091
O50	O	1.360890	-0.190649	0.736424
O51	O	1.694223	0.142684	1.069757
C52	C	0.880275	-0.357946	0.357544
C53	C	1.213608	-0.024613	0.690877
C54	C	1.546942	0.308721	1.024211
C55	C	0.797729	-0.357942	0.357575
C56	C	1.131063	-0.024609	0.690909
C57	C	1.464396	0.308725	1.024242
C58	C	0.598288	-0.407682	0.407052
C59	C	0.931621	-0.074348	0.740385
C60	C	1.264954	0.258985	1.073719
C61	C	0.548883	-0.339967	0.425328
C62	C	0.882217	-0.006634	0.758661
C63	C	1.215550	0.326700	1.091995
C64	C	0.646599	-0.357984	0.357539
C65	C	0.979932	-0.024650	0.690872
C66	C	1.313266	0.308683	1.024206
C67	C	0.548922	-0.425737	0.339262
C68	C	0.882255	-0.092404	0.672596
C69	C	1.215588	0.240929	1.005929
C70	C	0.500614	-0.358030	0.357505
C71	C	0.833947	-0.024696	0.690839
C72	C	1.167280	0.308637	1.024172
C73	C	0.598282	-0.290233	0.375850
C74	C	0.931615	0.043101	0.709184
C75	C	1.264948	0.376434	1.042517
C76	C	0.598324	-0.376049	0.289753
C77	C	0.931658	-0.042715	0.623086
C78	C	1.264991	0.290618	0.956420
C79	C	0.548942	-0.308287	0.308004
C80	C	0.882276	0.025046	0.641337
C81	C	1.215609	0.358380	0.974670
C82	C	0.730697	-0.357958	0.357560
C83	C	1.064030	-0.024625	0.690894
C84	C	1.397364	0.308709	1.024227
C85	C	0.416517	-0.358047	0.357484
C86	C	0.749851	-0.024714	0.690817
C87	C	1.083184	0.308619	1.024151
C88	C	1.073170	-0.550949	0.357482
C89	C	1.406503	-0.217615	0.690816
C90	C	1.739837	0.115718	1.024149
C91	C	1.073214	-0.633494	0.357495
C92	C	1.406547	-0.300161	0.690828
C93	C	1.739880	0.033172	1.024161
C94	C	1.122915	-0.832940	0.307949
C95	C	1.456249	-0.499606	0.641283
C96	C	1.789582	-0.166273	0.974616
C97	C	1.141051	-0.882282	0.375725
C98	C	1.474384	-0.548948	0.709058
C99	C	1.807718	-0.215615	1.042391
C100	C	1.073256	-0.784625	0.357524
C101	C	1.406589	-0.451291	0.690857
C102	C	1.739922	-0.117958	1.024191
C103	C	1.055196	-0.882364	0.289779
C104	C	1.388529	-0.549031	0.623113
C105	C	1.721862	-0.215698	0.956446
C106	C	1.073298	-0.930610	0.357547
C107	C	1.406631	-0.597277	0.690880
C108	C	1.739964	-0.263943	1.024213
C109	C	1.091426	-0.832880	0.425335
C110	C	1.424759	-0.499546	0.758668
C111	C	1.758093	-0.166213	1.092002
C112	C	1.005539	-0.832958	0.339344
C113	C	1.338873	-0.499625	0.672677
C114	C	1.672206	-0.166291	1.006011
C115	C	1.023649	-0.882278	0.407166
C116	C	1.356982	-0.548944	0.740499
C117	C	1.690316	-0.215611	1.073833
C118	C	1.073233	-0.700527	0.357510
C119	C	1.406567	-0.367193	0.690843
C120	C	1.739900	-0.033860	1.024177
C121	C	1.073320	-1.014706	0.357568
C122	C	1.406653	-0.681373	0.690902
C123	C	1.739987	-0.348040	1.024235
C124	C	1.266933	-0.358048	0.357480
C125	C	1.600266	-0.024715	0.690814
C126	C	1.933599	0.308619	1.024147
C127	C	1.349478	-0.358070	0.357467
C128	C	1.682812	-0.024737	0.690800
C129	C	2.016145	0.308597	1.024133
C130	C	1.073256	-0.357964	0.551218
C131	C	1.406590	-0.024630	0.884551
C132	C	1.739923	0.308703	1.217884
C133	C	1.073269	-0.357950	0.633763
C134	C	1.406602	-0.024616	0.967097
C135	C	1.739935	0.308717	1.300430
C136	C	1.073305	-0.164291	0.357558
C137	C	1.406638	0.169042	0.690891
C138	C	1.739971	0.502376	1.024225
C139	C	1.073338	-0.081745	0.357578
C140	C	1.406671	0.251588	0.690911
C141	C	1.740004	0.584921	1.024244
C142	C	1.073241	-0.357976	0.164560
C143	C	1.406574	-0.024642	0.497893
C144	C	1.739908	0.308691	0.831227
C145	C	1.073372	-0.357781	0.082014
C146	C	1.406706	-0.024447	0.415348
C147	C	1.740039	0.308886	0.748681
C148	C	1.023680	-0.407475	0.833211
C149	C	1.357014	-0.074142	1.166544
C150	C	1.690347	0.259192	1.499877
C151	C	1.091439	-0.425641	0.882583
C152	C	1.424772	-0.092308	1.215916
C153	C	1.758106	0.241025	1.549250
C154	C	1.073305	-0.357893	0.784894
C155	C	1.406639	-0.024560	1.118227
C156	C	1.739972	0.308774	1.451561
C157	C	1.005584	-0.339706	0.882603
C158	C	1.338917	-0.006373	1.215936
C159	C	1.672251	0.326961	1.549270
C160	C	1.073335	-0.357840	0.930879
C161	C	1.406668	-0.024506	1.264212
C162	C	1.740001	0.308827	1.597546
C163	C	1.141099	-0.376095	0.833179
C164	C	1.474432	-0.042761	1.166513
C165	C	1.807766	0.290572	1.499846
C166	C	1.055199	-0.290128	0.833195
C167	C	1.388532	0.043205	1.166528
C168	C	1.721865	0.376539	1.499862
C169	C	1.123004	-0.308269	0.882545
C170	C	1.456337	0.025065	1.215878
C171	C	1.789670	0.358398	1.549212
C172	C	1.073287	-0.357926	0.700796
C173	C	1.406621	-0.024592	1.034129
C174	C	1.739954	0.308741	1.367462
C175	C	1.073360	-0.357807	1.014976
C176	C	1.406694	-0.024474	1.348309
C177	C	1.740027	0.308860	1.681642
H178	H	0.527236	-0.483016	0.323820
H179	H	0.860569	-0.149683	0.657153
H180	H	1.193903	0.183651	0.990486
H181	H	0.948271	-0.811275	0.323932
H182	H	1.281605	-0.477941	0.657266
H183	H	1.614938	-0.144608	0.990599
H184	H	1.106662	-0.811235	0.482685
H185	H	1.439995	-0.477902	0.816018
H186	H	1.773328	-0.144569	1.149351
H187	H	0.948301	-0.324346	0.904313
H188	H	1.281634	0.008988	1.237646
H189	H	1.614968	0.342321	1.570980
N190	N	1.178554	-0.804228	0.252476
N191	N	1.511887	-0.470895	0.585809
N192	N	1.845221	-0.137561	0.919142
H193	H	1.165423	-0.823001	0.201419
H194	H	1.498756	-0.489667	0.534752
H195	H	1.832090	-0.156334	0.868085
H196	H	1.229688	-0.822174	0.266382
H197	H	1.563021	-0.488841	0.599715
H198	H	1.896354	-0.155508	0.933048
N199	N	0.626875	-0.214340	0.396407
N200	N	0.960209	0.118993	0.729741
N201	N	1.293542	0.452327	1.063074
H202	H	0.583696	-0.179986	0.405680
H203	H	0.917029	0.153347	0.739013
H204	H	1.250362	0.486681	1.072347
H205	H	0.658083	-0.194242	0.354548
H206	H	0.991417	0.139091	0.687881
H207	H	1.324750	0.472425	1.021214
N208	N	1.216928	-0.910989	0.396109
N209	N	1.550261	-0.577656	0.729442
N210	N	1.883594	-0.244323	1.062776
H211	H	1.216255	-0.966938	0.396438
H212	H	1.549589	-0.633605	0.729771
H213	H	1.882922	-0.300271	1.063105
H214	H	1.230931	-0.892163	0.446912
H215	H	1.564264	-0.558830	0.780245
H216	H	1.897597	-0.225496	1.113578
N217	N	1.178670	-0.252703	0.911071
N218	N	1.512003	0.080631	1.244405
N219	N	1.845337	0.413964	1.577738
H220	H	1.152414	-0.214071	0.941889
H221	H	1.485747	0.119262	1.275223
H222	H	1.819080	0.452595	1.608556
H223	H	1.204116	-0.227961	0.867825
H224	H	1.537450	0.105372	1.201158
H225	H	1.870783	0.438705	1.534491
N226	N	0.968033	-0.910784	0.462766
N227	N	1.301366	-0.577451	0.796099
N228	N	1.634699	-0.244117	1.129433
H229	H	0.981782	-0.892680	0.513901
H230	H	1.315116	-0.559346	0.847234
H231	H	1.648449	-0.226013	1.180568
H232	H	0.968057	-0.966732	0.462112
H233	H	1.301391	-0.633399	0.795445
H234	H	1.634724	-0.300065	1.128779
H235	H	1.198399	-0.391520	0.811561
H236	H	1.531732	-0.058187	1.144894
H237	H	1.865066	0.275147	1.478227
H238	H	0.619957	-0.449636	0.448970
H239	H	0.953290	-0.116303	0.782304
H240	H	1.286623	0.217030	1.115637
N241	N	0.520109	-0.319744	0.501238
N242	N	0.853442	0.013590	0.834571
N243	N	1.186776	0.346923	1.167904
H244	H	0.538052	-0.357297	0.538618
H245	H	0.871385	-0.023964	0.871951
H246	H	1.204719	0.309370	1.205284
H247	H	0.464164	-0.319429	0.500468
H248	H	0.797497	0.013904	0.833801
H249	H	1.130830	0.347237	1.167134
N250	N	1.034865	-0.214274	0.804424
N251	N	1.368198	0.119059	1.137758
N252	N	1.701532	0.452393	1.471091
H253	H	0.983660	-0.200601	0.822368
H254	H	1.316994	0.132733	1.155701
H255	H	1.650327	0.466066	1.489035
H256	H	1.035528	-0.214806	0.748479
H257	H	1.368862	0.118527	1.081812
H258	H	1.702195	0.451860	1.415146
H259	H	1.039903	-0.904100	0.232479
H260	H	1.373237	-0.570767	0.565813
H261	H	1.706570	-0.237434	0.899146
N262	N	1.111742	-0.501519	0.911326
N263	N	1.445075	-0.168186	1.244659
N264	N	1.778408	0.165147	1.577992
H265	H	1.112073	-0.500812	0.967274
H266	H	1.445407	-0.167479	1.300608
H267	H	1.778740	0.165855	1.633941
H268	H	1.162528	-0.515584	0.892523
H269	H	1.495861	-0.182251	1.225856
H270	H	1.829195	0.151083	1.559189
H271	H	0.527412	-0.266230	0.266118
H272	H	0.860745	0.067103	0.599451
H273	H	1.194079	0.400437	0.932785
N274	N	0.968144	-0.463081	0.804508
N275	N	1.301477	-0.129748	1.137842
N276	N	1.634811	0.203585	1.471175
H277	H	0.981933	-0.514238	0.822474
H278	H	1.315267	-0.180904	1.155807
H279	H	1.648600	0.152429	1.489140
H280	H	0.968217	-0.462309	0.748563
H281	H	1.301550	-0.128976	1.081896
H282	H	1.634884	0.204357	1.415229
H283	H	0.620058	-0.391334	0.232459
H284	H	0.953391	-0.058000	0.565792
H285	H	1.286724	0.275333	0.899126
