data_functionalizedCrystal
_audit_creation_method	'MofGen! by Chris Wilmer'
_symmetry_space_group_name_H-M	'P1'
_symmetry_Int_Tables_number	1
_symmetry_cell_setting	triclinic
loop_
_symmetry_equiv_pos_as_xyz
  x,y,z
_cell_length_a	12.827893
_cell_length_b	18.101395
_cell_length_c	12.827885
_cell_angle_alpha	89.967625
_cell_angle_beta	89.980728
_cell_angle_gamma	90.031075
loop_
_atom_site_label
_atom_site_type_symbol
_atom_site_fract_x
_atom_site_fract_y
_atom_site_fract_z
Zn1	Zn	1.597556	-0.294794	-0.590830
Zn2	Zn	1.597402	-0.418654	-0.416082
Zn3	Zn	1.422797	-0.294830	-0.416103
Zn4	Zn	1.422734	-0.418598	-0.590782
O5	O	1.510122	-0.356719	-0.503449
O6	O	1.743771	-0.311233	-0.567660
O7	O	1.574202	-0.402266	-0.269849
O8	O	1.446070	-0.191193	-0.439310
O9	O	1.743658	-0.402231	-0.439274
O10	O	1.574464	-0.191166	-0.567681
O11	O	1.445920	-0.311294	-0.269865
O12	O	1.276553	-0.311241	-0.439264
O13	O	1.445963	-0.402137	-0.737025
O14	O	1.276507	-0.402172	-0.567600
O15	O	1.574403	-0.311179	-0.737060
O16	O	1.574141	-0.522279	-0.439228
O17	O	1.445814	-0.522239	-0.567579
C18	C	1.238612	-0.356705	-0.503430
C19	C	1.122459	-0.356717	-0.503446
C20	C	1.070679	-0.401783	-0.566852
C21	C	0.950629	-0.401796	-0.566871
C22	C	1.509982	-0.549130	-0.503419
C23	C	1.510018	-0.631444	-0.503440
C24	C	1.510247	-0.930535	-0.503497
C25	C	1.429695	-0.899215	-0.584452
C26	C	1.429312	-0.813597	-0.584199
C27	C	1.510134	-0.782152	-0.503470
C28	C	1.480314	-0.813311	-0.393335
C29	C	1.479795	-0.898956	-0.393820
C30	C	1.620796	-0.898877	-0.531706
C31	C	1.620146	-0.813226	-0.534121
C32	C	1.510071	-0.698293	-0.503448
C33	C	1.510307	-1.014394	-0.503511
C34	C	1.782692	-0.356734	-0.503470
C35	C	1.898845	-0.356740	-0.503479
C36	C	1.510193	-0.356648	-0.776020
C37	C	1.510224	-0.356618	-0.892173
C38	C	1.510291	-0.163557	-0.503503
C39	C	1.510363	-0.081243	-0.503526
C40	C	1.573787	-0.311600	-0.943975
C41	C	1.573820	-0.311568	-1.064025
C42	C	1.510111	-0.356737	-0.231940
C43	C	1.510284	-0.356558	-0.115787
H44	H	1.115225	-0.440353	-0.621127
H45	H	1.680811	-0.919130	-0.472743
H46	H	1.537139	-0.792944	-0.331373
C47	C	1.588253	-0.212103	-0.821117
C48	C	1.647224	-0.259603	-0.883871
H49	H	1.633595	-0.180006	-0.784009
H50	H	1.542812	-0.183732	-0.863702
H51	H	1.548370	-0.240359	-0.773069
H52	H	1.687101	-0.231347	-0.931925
H53	H	1.692683	-0.287977	-0.841283
C54	C	1.500959	-0.969902	-0.237044
C55	C	1.555572	-0.926953	-0.309643
H56	H	1.547746	-0.987192	-0.185089
H57	H	1.448143	-0.940798	-0.205366
H58	H	1.469965	-1.010853	-0.271441
H59	H	1.586560	-0.886000	-0.275247
H60	H	1.608407	-0.956059	-0.341323
C61	C	1.633092	-0.269568	-1.231442
C62	C	1.647283	-0.259530	-1.124155
H63	H	1.678441	-0.237436	-1.268563
H64	H	1.648339	-0.319326	-1.249261
H65	H	1.562871	-0.258735	-1.249264
H66	H	1.717501	-0.270369	-1.106332
H67	H	1.632043	-0.209760	-1.106329
H68	H	1.683338	-0.791817	-0.479455
H69	H	1.455866	-0.395105	-1.071245
H70	H	1.398984	-0.919000	-0.369923
H71	H	0.943368	-0.318158	-0.449188
C72	C	0.827825	-0.412133	-0.707321
C73	C	0.890525	-0.453883	-0.640161
H74	H	0.790723	-0.444292	-0.752573
H75	H	0.779780	-0.383876	-0.667550
H76	H	0.870454	-0.379925	-0.747401
H77	H	0.847895	-0.486088	-0.600076
H78	H	0.938575	-0.482152	-0.679936
C79	C	1.495770	-0.456125	-1.015013
C80	C	1.436791	-0.408624	-0.952267
H81	H	1.450433	-0.488236	-1.052104
H82	H	1.535638	-0.427877	-1.063066
H83	H	1.541225	-0.484488	-0.972415
H84	H	1.391341	-0.380257	-0.994866
H85	H	1.396905	-0.436875	-0.904208
H86	H	1.077913	-0.318141	-0.449179
H87	H	1.447969	-0.792528	-0.665863
C88	C	1.542694	-0.972553	-0.691854
C89	C	1.454613	-0.926954	-0.695055
H90	H	1.558072	-0.989686	-0.760137
H91	H	1.600364	-0.945350	-0.665714
H92	H	1.529373	-1.013558	-0.647552
H93	H	1.467937	-0.885946	-0.739352
H94	H	1.396931	-0.954158	-0.721210
H95	H	1.348251	-0.920803	-0.566002
H96	H	1.347370	-0.793175	-0.565514
H97	H	1.400359	-0.791927	-0.369010
C98	C	1.665447	-0.846400	-0.709569
C99	C	1.650464	-0.785744	-0.643558
H100	H	1.684141	-0.829435	-0.777139
H101	H	1.719581	-0.876677	-0.682655
H102	H	1.602771	-0.874218	-0.713694
H103	H	1.713143	-0.757929	-0.639428
H104	H	1.596326	-0.755455	-0.670479
H105	H	1.647982	-0.920420	-0.610647
