data_functionalizedCrystal
_audit_creation_method	'MofGen! by Chris Wilmer'
_symmetry_space_group_name_H-M	'P1'
_symmetry_Int_Tables_number	1
_symmetry_cell_setting	triclinic
loop_
_symmetry_equiv_pos_as_xyz
  x,y,z
_cell_length_a	14.044191
_cell_length_b	15.944551
_cell_length_c	12.503572
_cell_angle_alpha	93.522593
_cell_angle_beta	86.162165
_cell_angle_gamma	88.345257
loop_
_atom_site_label
_atom_site_type_symbol
_atom_site_fract_x
_atom_site_fract_y
_atom_site_fract_z
O1	O	1.263184	0.198087	-0.089272
O2	O	0.987215	0.190772	-0.089286
O3	O	1.132735	0.072720	-0.089269
O4	O	1.117664	0.316139	-0.089289
O5	O	1.121791	0.081614	0.089372
O6	O	0.976271	0.199667	0.089355
O7	O	1.252240	0.206981	0.089368
Cu8	Cu	1.113256	0.204136	0.105673
Cu9	Cu	1.126199	0.193617	-0.105591
O10	O	1.106720	0.325034	0.089351
C11	C	0.946428	0.192020	0.000033
C12	C	0.841202	0.182476	0.000028
C13	C	0.590918	0.232714	0.000035
C14	C	0.648543	0.165042	0.000038
C15	C	0.755748	0.174745	0.000033
C16	C	0.483703	0.223013	0.000040
C17	C	1.126637	0.045826	0.000051
C18	C	1.124761	-0.047560	0.000052
C19	C	1.030078	-0.269510	0.000032
C20	C	1.068650	-0.322848	0.088115
C21	C	1.121368	-0.218541	0.000043
C22	C	1.079462	-0.331599	-0.088010
C23	C	1.118084	-0.383700	0.000031
C24	C	1.159961	-0.270646	0.088199
C25	C	1.170765	-0.279395	-0.088006
C26	C	1.209402	-0.332710	0.000098
C27	C	1.123257	-0.123397	0.000052
C28	C	1.116202	-0.478842	0.000030
C29	C	1.293027	0.205733	0.000047
C30	C	1.398253	0.215277	0.000045
C31	C	1.112818	0.351927	0.000029
C32	C	1.114694	0.445314	0.000021
N33	N	1.104160	0.211534	0.254264
N34	N	1.135302	0.186213	-0.254182
C35	C	1.090779	0.222424	0.473378
C36	C	1.148680	0.175326	0.526711
C37	C	1.141235	0.181385	0.648634
C38	C	1.098223	0.216366	0.351444
H39	H	0.954297	-0.241874	0.000117
H40	H	0.622097	0.297932	0.000026
C41	C	1.033449	-0.367651	-0.188612
C42	C	1.091200	-0.429088	-0.269878
C43	C	1.045180	-0.465135	-0.370474
C44	C	0.941409	-0.439745	-0.389805
C45	C	0.883651	-0.378304	-0.308537
C46	C	0.929671	-0.342258	-0.207940
H47	H	1.168023	-0.447887	-0.255570
H48	H	1.087936	-0.510617	-0.430634
H49	H	0.907342	-0.466429	-0.464272
H50	H	0.806828	-0.359506	-0.322844
H51	H	0.886915	-0.296775	-0.147780
C52	C	0.606430	0.076927	0.000039
C53	C	0.497655	0.067216	0.000037
C54	C	0.455537	-0.020896	0.000033
C55	C	0.522194	-0.099295	0.000030
C56	C	0.630976	-0.089586	0.000032
C57	C	0.673094	-0.001474	0.000036
H58	H	0.448305	0.125254	0.000040
H59	H	0.375009	-0.028083	0.000032
H60	H	0.491016	-0.164520	0.000027
H61	H	0.680326	-0.147624	0.000030
H62	H	0.753622	0.005713	0.000037
C63	C	1.010329	-0.348921	0.188707
C64	C	0.904187	-0.321626	0.208052
C65	C	0.845859	-0.347696	0.308639
C66	C	0.893675	-0.401062	0.389881
C67	C	0.999823	-0.428361	0.370539
C68	C	1.058150	-0.402290	0.269952
H69	H	0.868786	-0.282119	0.147910
H70	H	0.767281	-0.327488	0.322957
H71	H	0.850498	-0.420361	0.464342
H72	H	1.035224	-0.467868	0.430681
H73	H	1.136728	-0.422499	0.255634
C74	C	1.205907	-0.234730	0.188915
C75	C	1.216127	-0.139140	0.207557
C76	C	1.262067	-0.103223	0.308273
C77	C	1.297787	-0.162895	0.390348
C78	C	1.287568	-0.258491	0.371708
C79	C	1.241628	-0.294408	0.270992
H80	H	1.189684	-0.094962	0.146799
H81	H	1.269632	-0.032456	0.322071
H82	H	1.331795	-0.136307	0.464904
H83	H	1.314011	-0.302669	0.432467
H84	H	1.234063	-0.365175	0.257194
H85	H	1.285241	-0.360186	0.000152
H86	H	1.203843	0.130453	0.480805
C87	C	1.229046	-0.253295	-0.188602
C88	C	1.197622	-0.279348	-0.301202
C89	C	1.255895	-0.253246	-0.401809
C90	C	1.345592	-0.201091	-0.389816
C91	C	1.377021	-0.175035	-0.277212
C92	C	1.318748	-0.201138	-0.176605
H93	H	1.131218	-0.317958	-0.310084
H94	H	1.232629	-0.272534	-0.485166
H95	H	1.388729	-0.181768	-0.464291
H96	H	1.443424	-0.136425	-0.268330
H97	H	1.342014	-0.181849	-0.093248
H98	H	1.035621	0.267295	0.519279
