data_functionalizedCrystal
_audit_creation_method	'MofGen! by Chris Wilmer'
_symmetry_space_group_name_H-M	'P1'
_symmetry_Int_Tables_number	1
_symmetry_cell_setting	triclinic
loop_
_symmetry_equiv_pos_as_xyz
  x,y,z
_cell_length_a	17.699083
_cell_length_b	12.837942
_cell_length_c	16.176319
_cell_angle_alpha	89.994101
_cell_angle_beta	89.998611
_cell_angle_gamma	89.055978
loop_
_atom_site_label
_atom_site_type_symbol
_atom_site_fract_x
_atom_site_fract_y
_atom_site_fract_z
O1	O	1.013708	0.131067	-0.068629
O2	O	1.513708	0.631067	0.431371
O3	O	0.794582	0.148119	-0.068656
O4	O	1.294582	0.648119	0.431344
O5	O	0.899286	-0.011297	-0.068638
O6	O	1.399286	0.488703	0.431362
O7	O	0.909004	0.290484	-0.068647
O8	O	1.409004	0.790484	0.431353
O9	O	0.899269	-0.011307	0.068855
O10	O	1.399269	0.488693	0.568855
O11	O	0.794565	0.148109	0.068837
O12	O	1.294565	0.648109	0.568837
O13	O	1.013691	0.131057	0.068864
O14	O	1.513691	0.631057	0.568864
Cu15	Cu	0.904126	0.139582	0.081405
Cu16	Cu	1.404126	0.639582	0.581405
Cu17	Cu	0.904146	0.139594	-0.081197
Cu18	Cu	1.404146	0.639594	0.418803
O19	O	0.908987	0.290474	0.068846
O20	O	1.408987	0.790474	0.568846
C21	C	0.766332	0.147503	0.000087
C22	C	1.266332	0.647503	0.500087
C23	C	0.682179	0.145670	0.000077
C24	C	1.182179	0.645670	0.500077
C25	C	0.640432	0.239245	0.000074
C26	C	1.140432	0.739245	0.500074
C27	C	0.561362	0.237516	0.000085
C28	C	1.061362	0.737516	0.500085
C29	C	0.524040	0.142212	0.000092
C30	C	1.024040	0.642212	0.500092
C31	C	0.565792	0.048631	0.000097
C32	C	1.065792	0.548631	0.500097
C33	C	0.644861	0.050360	0.000093
C34	C	1.144861	0.550360	0.500093
C35	C	0.246916	0.041653	0.000118
C36	C	0.746916	0.541653	0.500118
C37	C	0.167842	0.039931	0.000120
C38	C	0.667842	0.539931	0.500120
C39	C	0.163418	0.228809	0.000111
C40	C	0.663418	0.728809	0.500111
C41	C	0.242486	0.230539	0.000106
C42	C	0.742486	0.730539	0.500106
C43	C	0.284232	0.136958	0.000115
C44	C	0.784232	0.636958	0.500115
C45	C	0.369969	0.138833	0.000105
C46	C	0.869969	0.638833	0.500105
C47	C	0.438304	0.140336	0.000097
C48	C	0.938304	0.640336	0.500097
C49	C	0.895995	-0.049915	0.000108
C50	C	1.395995	0.450085	0.500108
C51	C	0.886204	-0.164967	0.000105
C52	C	1.386204	0.335033	0.500105
C53	C	1.003908	-0.406222	0.000102
C54	C	1.503908	0.093778	0.500102
C55	C	0.994712	-0.514324	0.000100
C56	C	1.494712	-0.014324	0.500100
C57	C	0.858617	-0.489277	0.000092
C58	C	1.358617	0.010723	0.500092
C59	C	0.867813	-0.381174	0.000094
C60	C	1.367813	0.118826	0.500094
C61	C	0.940461	-0.339651	0.000101
C62	C	1.440461	0.160349	0.500101
C63	C	0.949656	-0.231546	0.000109
C64	C	1.449656	0.268454	0.500109
C65	C	0.813561	-0.206501	0.000095
C66	C	1.313561	0.293499	0.500095
C67	C	0.804365	-0.314604	0.000093
C68	C	1.304365	0.185396	0.500093
C69	C	1.041941	0.131673	0.000119
C70	C	1.541941	0.631673	0.500119
C71	C	1.126094	0.133506	0.000124
C72	C	1.626094	0.633506	0.500124
C73	C	0.912278	0.329091	0.000099
C74	C	1.412278	0.829091	0.500099
C75	C	0.922069	0.444144	0.000096
C76	C	1.422069	0.944144	0.500096
N77	N	0.904118	0.139573	0.195770
N78	N	1.404118	0.639573	0.695770
N79	N	0.904160	0.139595	-0.195562
N80	N	1.404160	0.639595	0.304438
C81	C	0.950499	0.069012	0.239042
C82	C	1.450499	0.569012	0.739042
C83	C	0.950502	0.069011	0.325589
C84	C	1.450502	0.569011	0.825589
C85	C	0.904129	0.139577	0.368863
C86	C	1.404129	0.639577	0.868863
C87	C	0.857743	0.210141	0.325584
C88	C	1.357743	0.710141	0.825584
C89	C	0.857736	0.210136	0.239039
C90	C	1.357736	0.710136	0.739039
C91	C	0.857771	0.210161	0.674613
C92	C	1.357771	0.710161	1.174613
C93	C	0.857783	0.210162	0.761164
C94	C	1.357783	0.710162	1.261164
C95	C	0.950537	0.069035	0.761163
C96	C	1.450537	0.569035	1.261163
C97	C	0.950530	0.069031	0.674617
C98	C	1.450530	0.569031	1.174617
C99	C	0.904141	0.139591	0.631347
C100	C	1.404141	0.639591	1.131347
C101	C	0.904137	0.139590	0.537503
C102	C	1.404137	0.639590	1.037503
C103	C	0.904137	0.139584	0.462705
C104	C	1.404137	0.639584	0.962705
H105	H	0.535398	-0.028967	0.000115
H106	H	1.035398	0.471033	0.500115
H107	H	0.678850	-0.025837	0.000094
H108	H	1.178850	0.474163	0.500094
N109	N	0.680677	0.342043	0.000067
N110	N	1.180677	0.842043	0.500067
H111	H	0.713386	0.346969	0.051033
H112	H	1.213386	0.846969	0.551033
H113	H	0.713339	0.346917	-0.050939
H114	H	1.213339	0.846917	0.449061
H115	H	0.820001	0.267615	0.639388
H116	H	1.320001	0.767615	1.139388
N117	N	0.807719	0.286246	0.372253
N118	N	1.307719	0.786246	0.872253
H119	H	0.814762	0.275545	0.433646
H120	H	1.314762	0.775545	0.933646
H121	H	0.821757	0.359757	0.357114
H122	H	1.321757	0.859757	0.857114
N123	N	0.807707	0.286235	0.192362
N124	N	1.307707	0.786235	0.692362
H125	H	0.778331	0.330940	0.232907
H126	H	1.278331	0.830940	0.732907
H127	H	0.839974	0.332006	0.156442
H128	H	1.339974	0.832006	0.656442
H129	H	0.280896	-0.034546	0.000126
H130	H	0.780896	0.465454	0.500126
H131	H	0.745217	-0.348427	0.000084
H132	H	1.245217	0.151573	0.500084
N133	N	1.063148	-0.586119	0.000109
N134	N	1.563148	-0.086119	0.500109
H135	H	1.062362	-0.631536	0.051078
H136	H	1.562362	-0.131536	0.551078
H137	H	1.062335	-0.631456	-0.050894
H138	H	1.562335	-0.131456	0.449106
N139	N	0.516334	0.338442	0.000176
N140	N	1.016334	0.838442	0.500176
H141	H	0.551976	0.399078	0.000196
H142	H	1.051976	0.899078	0.500196
H143	H	0.483392	0.341919	-0.050761
H144	H	0.983392	0.841919	0.449239
N145	N	1.028008	-0.186759	0.000122
N146	N	1.528008	0.313241	0.500122
H147	H	1.056161	-0.211035	-0.050847
H148	H	1.556161	0.288965	0.449153
H149	H	1.024144	-0.108182	0.000158
H150	H	1.524144	0.391818	0.500158
N151	N	1.082258	-0.361426	0.000122
N152	N	1.582258	0.138574	0.500122
H153	H	1.121058	-0.420004	0.000127
H154	H	1.621058	0.079996	0.500127
H155	H	1.089046	-0.317111	-0.050846
H156	H	1.589046	0.182889	0.449154
H157	H	0.799470	-0.523105	0.000077
H158	H	1.299470	-0.023105	0.500077
N159	N	0.745122	-0.134700	0.000098
N160	N	1.245122	0.365300	0.500098
H161	H	0.761969	-0.059915	0.000102
H162	H	1.261969	0.440085	0.500102
H163	H	0.713803	-0.148116	-0.050875
H164	H	1.213803	0.351884	0.449125
N165	N	1.000521	-0.007092	0.192372
N166	N	1.500521	0.492908	0.692372
H167	H	1.029902	-0.051793	0.232920
H168	H	1.529902	0.448207	0.732920
H169	H	0.968246	-0.052865	0.156472
H170	H	1.468246	0.447135	0.656472
N171	N	1.000555	-0.007058	0.372262
N172	N	1.500555	0.492942	0.872262
H173	H	1.029944	-0.051744	0.331716
H174	H	1.529944	0.448256	0.831716
H175	H	1.036860	0.032610	0.408146
H176	H	1.536860	0.532610	0.908146
N177	N	1.000550	-0.007074	0.627944
N178	N	1.500550	0.492926	1.127944
H179	H	1.029932	-0.051777	0.668490
H180	H	1.529932	0.448223	1.168490
H181	H	0.968272	-0.052845	0.592045
H182	H	1.468272	0.447155	1.092045
H183	H	0.988306	0.011578	0.796403
H184	H	1.488306	0.511578	1.296403
H185	H	0.129419	0.305007	0.000107
H186	H	0.629419	0.805007	0.500107
N187	N	0.807759	0.286269	0.807841
N188	N	1.307759	0.786269	1.307841
H189	H	0.778368	0.330965	0.767297
H190	H	1.278368	0.830965	1.267297
H191	H	0.771456	0.246635	0.843758
H192	H	1.271456	0.746635	1.343758
H193	H	0.137457	-0.037681	0.000128
H194	H	0.637457	0.462319	0.500128
N195	N	0.282741	0.333329	0.000087
N196	N	0.782741	0.833329	0.500087
H197	H	0.244296	0.392348	0.000086
H198	H	0.744296	0.892348	0.500086
H199	H	0.315455	0.338161	0.051053
H200	H	0.815455	0.838161	0.551053
