data_functionalizedCrystal
_audit_creation_method	'MofGen! by Chris Wilmer'
_symmetry_space_group_name_H-M	'P1'
_symmetry_Int_Tables_number	1
_symmetry_cell_setting	triclinic
loop_
_symmetry_equiv_pos_as_xyz
  x,y,z
_cell_length_a	16.625548
_cell_length_b	19.805406
_cell_length_c	19.805399
_cell_angle_alpha	90.014352
_cell_angle_beta	90.018609
_cell_angle_gamma	90.001035
loop_
_atom_site_label
_atom_site_type_symbol
_atom_site_fract_x
_atom_site_fract_y
_atom_site_fract_z
Zn1	Zn	1.232791	-0.269460	0.382764
Zn2	Zn	1.232752	-0.382648	0.269602
Zn3	Zn	1.097957	-0.269480	0.269591
Zn4	Zn	1.097976	-0.382614	0.382751
O5	O	1.165369	-0.326050	0.326177
O6	O	1.345618	-0.284480	0.367764
O7	O	1.214847	-0.367659	0.174884
O8	O	1.115852	-0.174761	0.284605
O9	O	1.345589	-0.367639	0.284624
O10	O	1.214914	-0.174746	0.367753
O11	O	1.115814	-0.284515	0.174876
O12	O	0.985127	-0.284482	0.284592
O13	O	1.115884	-0.367581	0.477469
O14	O	0.985141	-0.367601	0.367730
O15	O	1.214932	-0.284447	0.477479
O16	O	1.214865	-0.477360	0.284611
O17	O	1.115846	-0.477335	0.367741
C18	C	1.165375	-0.501906	0.326190
C19	C	1.165451	-0.577138	0.326219
C20	C	0.955878	-0.326041	0.326158
C21	C	0.866257	-0.326053	0.326166
C22	C	1.165414	-0.326008	0.502720
C23	C	1.165434	-0.325990	0.577952
C24	C	0.538081	-0.326057	0.326195
C25	C	0.629390	-0.326054	0.326185
C26	C	0.702166	-0.326055	0.326180
C27	C	0.793481	-0.326052	0.326171
C28	C	1.375678	-0.326061	0.326197
C29	C	1.465299	-0.326065	0.326205
C30	C	1.165385	-0.149508	0.326179
C31	C	1.165392	-0.074276	0.326180
C32	C	1.113822	-0.038938	0.282891
C33	C	1.113827	0.031750	0.282898
C34	C	1.165407	0.067100	0.326191
C35	C	1.216979	0.031758	0.369485
C36	C	1.216969	-0.038930	0.369481
C37	C	1.217018	0.316831	0.369505
C38	C	1.217026	0.387523	0.369505
C39	C	1.113877	0.387510	0.282922
C40	C	1.113867	0.316823	0.282918
C41	C	1.165435	0.281487	0.326214
C42	C	1.165428	0.204839	0.326206
C43	C	1.165418	0.143747	0.326196
C44	C	1.165370	-0.326044	0.150321
C45	C	1.165507	-0.325872	0.075090
C46	C	1.217009	-0.282700	0.613302
C47	C	1.217017	-0.282680	0.683991
C48	C	1.165454	-0.325954	0.719328
C49	C	1.113872	-0.369246	0.683972
C50	C	1.113861	-0.369262	0.613285
C51	C	1.113918	-0.369183	0.969046
C52	C	1.113935	-0.369166	1.039738
C53	C	1.217074	-0.282601	1.039752
C54	C	1.217063	-0.282617	0.969064
C55	C	1.165479	-0.325906	0.933715
C56	C	1.165470	-0.325926	0.857067
C57	C	1.165466	-0.325938	0.795975
H58	H	1.071823	-0.067715	0.247634
H59	H	1.071943	-0.404406	1.068507
H60	H	1.259029	0.416304	0.404762
H61	H	1.259074	-0.247351	1.068541
H62	H	1.258973	0.060544	0.404739
H63	H	1.259018	0.288069	0.404752
N64	N	1.269680	-0.238485	0.577221
N65	N	1.264335	-0.176028	0.585120
H66	H	1.301533	-0.144797	0.559639
H67	H	1.071927	-0.404442	0.940273
H68	H	1.071886	-0.404479	0.712749
N69	N	1.061167	-0.413482	0.577184
N70	N	1.015130	-0.452115	0.608740
H71	H	0.977909	-0.483345	0.583245
H72	H	1.259017	-0.247430	0.712770
H73	H	1.258956	-0.067700	0.404736
N74	N	1.269744	-0.238414	0.932980
N75	N	1.315791	-0.199764	0.964552
H76	H	1.352998	-0.168543	0.939069
H77	H	1.071835	0.060521	0.247649
N78	N	1.061179	0.280726	0.238686
N79	N	1.015136	0.312286	0.200039
H80	H	0.977922	0.286793	0.168800
H81	H	1.071884	0.416289	0.247670
