data_functionalizedCrystal
_audit_creation_method	'MofGen! by Chris Wilmer'
_symmetry_space_group_name_H-M	'P1'
_symmetry_Int_Tables_number	1
_symmetry_cell_setting	triclinic
loop_
_symmetry_equiv_pos_as_xyz
  x,y,z
_cell_length_a	16.625547
_cell_length_b	12.594516
_cell_length_c	16.625539
_cell_angle_alpha	90.021811
_cell_angle_beta	89.978691
_cell_angle_gamma	89.973331
loop_
_atom_site_label
_atom_site_type_symbol
_atom_site_fract_x
_atom_site_fract_y
_atom_site_fract_z
Zn1	Zn	1.232629	0.423762	-0.456027
Zn2	Zn	1.565962	0.757095	-0.122693
Zn3	Zn	1.899295	1.090428	0.210640
Zn4	Zn	1.232530	0.601757	-0.321205
Zn5	Zn	1.565863	0.935090	0.012128
Zn6	Zn	1.899197	1.268424	0.345462
Zn7	Zn	1.097799	0.423793	-0.321197
Zn8	Zn	1.431132	0.757126	0.012136
Zn9	Zn	1.764465	1.090459	0.345469
Zn10	Zn	1.097751	0.601698	-0.455985
Zn11	Zn	1.431084	0.935032	-0.122651
Zn12	Zn	1.764418	1.268365	0.210682
O13	O	1.165177	0.512752	-0.388603
O14	O	1.498510	0.846086	-0.055270
O15	O	1.831844	1.179419	0.278063
O16	O	1.345448	0.447385	-0.438163
O17	O	1.678781	0.780718	-0.104830
O18	O	2.012115	1.114051	0.228504
O19	O	1.214636	0.578187	-0.208371
O20	O	1.547970	0.911521	0.124962
O21	O	1.881303	1.244854	0.458295
O22	O	1.115745	0.274843	-0.339097
O23	O	1.449079	0.608176	-0.005764
O24	O	1.782412	0.941510	0.327570
O25	O	1.345376	0.578157	-0.339110
O26	O	1.678709	0.911490	-0.005777
O27	O	2.012042	1.244824	0.327557
O28	O	1.214804	0.274820	-0.438156
O29	O	1.548138	0.608153	-0.104822
O30	O	1.881471	0.941487	0.228511
O31	O	1.115650	0.447438	-0.208366
O32	O	1.448983	0.780771	0.124967
O33	O	1.782317	1.114105	0.458301
O34	O	0.984960	0.447381	-0.339056
O35	O	1.318293	0.780714	-0.005723
O36	O	1.651627	1.114047	0.327610
O37	O	1.115664	0.578057	-0.568823
O38	O	1.448997	0.911390	-0.235489
O39	O	1.782331	1.244724	0.097844
O40	O	0.984925	0.578087	-0.438084
O41	O	1.318258	0.911421	-0.104751
O42	O	1.651592	1.244754	0.228583
O43	O	1.214758	0.447328	-0.568854
O44	O	1.548091	0.780661	-0.235520
O45	O	1.881425	1.113994	0.097813
O46	O	1.214590	0.750695	-0.339069
O47	O	1.547923	1.084028	-0.005736
O48	O	1.881257	1.417362	0.327597
O49	O	1.115568	0.750652	-0.438091
O50	O	1.448902	1.083985	-0.104758
O51	O	1.782235	1.417319	0.228575
C52	C	0.955686	0.512732	-0.388565
C53	C	1.289020	0.846065	-0.055232
C54	C	1.622353	1.179398	0.278101
C55	C	0.866065	0.512749	-0.388568
C56	C	1.199398	0.846082	-0.055235
C57	C	1.532732	1.179415	0.278099
C58	C	0.793283	0.512751	-0.388578
C59	C	1.126616	0.846084	-0.055245
C60	C	1.459949	1.179417	0.278089
C61	C	0.701974	0.512756	-0.388598
C62	C	1.035308	0.846090	-0.055265
C63	C	1.368641	1.179423	0.278068
C64	C	0.629198	0.512766	-0.388619
C65	C	0.962531	0.846099	-0.055285
C66	C	1.295864	1.179433	0.278048
C67	C	0.537884	0.512773	-0.388638
C68	C	0.871217	0.846107	-0.055305
C69	C	1.204550	1.179440	0.278029
C70	C	1.165085	0.789293	-0.388594
C71	C	1.498419	1.122627	-0.055261
C72	C	1.831752	1.455960	0.278072
C73	C	1.165120	0.907599	-0.388617
C74	C	1.498453	1.240932	-0.055284
C75	C	1.831786	1.574266	0.278049
C76	C	1.111247	0.976867	-0.442437
C77	C	1.444580	1.310201	-0.109104
C78	C	1.777913	1.643534	0.224229
C79	C	1.091596	1.047724	-0.368861
C80	C	1.424930	1.381058	-0.035528
C81	C	1.758263	1.714391	0.297806
C82	C	1.184814	1.047541	-0.462205
C83	C	1.518147	1.380874	-0.128872
C84	C	1.851481	1.714207	0.204461
C85	C	1.145430	0.976898	-0.315002
C86	C	1.478764	1.310231	0.018331
C87	C	1.812097	1.643565	0.351665
C88	C	1.238682	0.976708	-0.408396
C89	C	1.572016	1.310041	-0.075063
C90	C	1.905349	1.643374	0.258271
C91	C	1.219060	1.047533	-0.334769
C92	C	1.552393	1.380866	-0.001436
C93	C	1.885726	1.714200	0.331898
C94	C	1.375486	0.512774	-0.388642
C95	C	1.708819	0.846107	-0.055309
C96	C	2.042153	1.179441	0.278025
C97	C	1.465107	0.512783	-0.388659
C98	C	1.798440	0.846116	-0.055325
C99	C	2.131774	1.179450	0.278008
C100	C	1.165217	0.512682	-0.598912
C101	C	1.498550	0.846016	-0.265579
C102	C	1.831883	1.179349	0.067754
C103	C	1.165233	0.512652	-0.688534
C104	C	1.498567	0.845986	-0.355200
C105	C	1.831900	1.179319	-0.021867
C106	C	1.165256	1.235132	-0.388629
C107	C	1.498589	1.568465	-0.055296
C108	C	1.831922	1.901798	0.278038
C109	C	1.165199	1.116826	-0.388637
C110	C	1.498532	1.450159	-0.055304
C111	C	1.831865	1.783493	0.278030
C112	C	1.165247	0.512629	-0.761316
C113	C	1.498580	0.845962	-0.427983
C114	C	1.831913	1.179295	-0.094649
C115	C	1.165265	0.512589	-0.852625
C116	C	1.498599	0.845922	-0.519291
C117	C	1.831932	1.179256	-0.185958
C118	C	1.165284	0.512552	-0.925401
C119	C	1.498618	0.845885	-0.592068
C120	C	1.831951	1.179218	-0.258734
C121	C	1.165305	0.512513	-1.016715
C122	C	1.498638	0.845846	-0.683382
C123	C	1.831971	1.179180	-0.350049
C124	C	1.165184	0.512746	-0.179113
C125	C	1.498517	0.846079	0.154221
C126	C	1.831851	1.179412	0.487554
C127	C	1.165324	0.512476	-0.089492
C128	C	1.498657	0.845809	0.243841
C129	C	1.831990	1.179142	0.577175
H130	H	1.065619	0.945838	-0.487885
H131	H	1.398953	1.279171	-0.154552
H132	H	1.732286	1.612504	0.178781
N133	N	1.013604	1.086860	-0.347860
N134	N	1.346938	1.420194	-0.014527
N135	N	1.680271	1.753527	0.318807
N136	N	0.983082	1.062988	-0.281573
N137	N	1.316415	1.396321	0.051761
N138	N	1.649748	1.729654	0.385094
H139	H	0.927998	1.090623	-0.266743
H140	H	1.261331	1.423957	0.066590
H141	H	1.594665	1.757290	0.399923
H142	H	1.201440	1.078571	-0.524430
H143	H	1.534773	1.411905	-0.191096
H144	H	1.868106	1.745238	0.142237
H145	H	1.128733	0.945996	-0.252760
H146	H	1.462066	1.279329	0.080573
H147	H	1.795399	1.612662	0.413906
N148	N	1.276246	1.086243	-0.277620
N149	N	1.609579	1.419576	0.055713
N150	N	1.942912	1.752910	0.389046
N151	N	1.285934	1.183959	-0.268731
N152	N	1.619267	1.517292	0.064602
N153	N	1.952601	1.850626	0.397935
H154	H	1.326318	1.211302	-0.228368
H155	H	1.659651	1.544636	0.104965
H156	H	1.992985	1.877969	0.438298
H157	H	1.300841	0.945493	-0.425144
H158	H	1.634174	1.278827	-0.091810
H159	H	1.967508	1.612160	0.241523
