data_functionalizedCrystal
_audit_creation_method	'MofGen! by Chris Wilmer'
_symmetry_space_group_name_H-M	'P1'
_symmetry_Int_Tables_number	1
_symmetry_cell_setting	triclinic
loop_
_symmetry_equiv_pos_as_xyz
  x,y,z
_cell_length_a	14.971486
_cell_length_b	15.995350
_cell_length_c	13.448316
_cell_angle_alpha	89.995627
_cell_angle_beta	89.998199
_cell_angle_gamma	83.553252
loop_
_atom_site_label
_atom_site_type_symbol
_atom_site_fract_x
_atom_site_fract_y
_atom_site_fract_z
O1	O	1.186823	0.109116	-0.082572
O2	O	1.686823	0.609116	0.417428
O3	O	0.926408	0.122183	-0.082599
O4	O	1.426408	0.622183	0.417401
O5	O	1.063734	-0.006231	-0.082584
O6	O	1.563734	0.493769	0.417416
O7	O	1.049497	0.237530	-0.082587
O8	O	1.549497	0.737530	0.417413
O9	O	1.063717	-0.006239	0.082800
O10	O	1.563717	0.493761	0.582800
O11	O	0.926390	0.122175	0.082785
O12	O	1.426390	0.622175	0.582785
O13	O	1.186805	0.109109	0.082811
O14	O	1.686805	0.609109	0.582811
Cu15	Cu	1.056596	0.115641	0.097899
Cu16	Cu	1.556596	0.615641	0.597899
Cu17	Cu	1.056617	0.115651	-0.097687
Cu18	Cu	1.556617	0.615651	0.402313
O19	O	1.049479	0.237523	0.082796
O20	O	1.549479	0.737523	0.582796
C21	C	0.893075	0.121595	0.000090
C22	C	1.393075	0.621595	0.500090
C23	C	0.793780	0.119844	0.000079
C24	C	1.293780	0.619844	0.500079
C25	C	1.063137	-0.037430	0.000106
C26	C	1.563137	0.462570	0.500106
C27	C	1.061372	-0.130382	0.000100
C28	C	1.561372	0.369618	0.500100
C29	C	0.736468	0.195284	0.000080
C30	C	1.236468	0.695284	0.500080
C31	C	0.643171	0.193633	0.000095
C32	C	1.143171	0.693633	0.500095
C33	C	0.607187	0.116542	0.000102
C34	C	1.107187	0.616542	0.500102
C35	C	0.664505	0.041097	0.000104
C36	C	1.164505	0.541097	0.500104
C37	C	0.757801	0.042748	0.000097
C38	C	1.257801	0.542748	0.500097
C39	C	0.470047	0.037660	0.000118
C40	C	0.970047	0.537660	0.500118
C41	C	0.376745	0.036008	0.000124
C42	C	0.876745	0.536008	0.500124
C43	C	0.355417	0.188545	0.000116
C44	C	0.855417	0.688545	0.500116
C45	C	0.448712	0.190197	0.000108
C46	C	0.948712	0.690197	0.500108
C47	C	0.506025	0.114751	0.000109
C48	C	1.006025	0.614751	0.500109
C49	C	1.055035	-0.468136	0.000103
C50	C	1.555035	0.031864	0.500103
C51	C	0.957234	-0.420800	-0.000278
C52	C	1.457234	0.079200	0.499722
C53	C	0.958999	-0.324108	0.000095
C54	C	1.458999	0.175892	0.500095
C55	C	1.058178	-0.300572	0.000101
C56	C	1.558178	0.199428	0.500101
C57	C	1.106407	-0.341606	0.094546
C58	C	1.606407	0.158394	0.594546
C59	C	1.103951	-0.438244	0.094625
C60	C	1.603951	0.061756	0.594625
C61	C	1.105990	-0.438591	-0.093447
C62	C	1.605990	0.061409	0.406553
C63	C	1.105967	-0.341646	-0.094695
C64	C	1.605967	0.158354	0.405305
C65	C	1.059960	-0.205873	0.000103
C66	C	1.559960	0.294127	0.500103
C67	C	1.053256	-0.562835	0.000107
C68	C	1.553256	-0.062835	0.500107
C69	C	1.220138	0.109697	0.000121
C70	C	1.720138	0.609697	0.500121
C71	C	1.319433	0.111448	0.000124
C72	C	1.819433	0.611448	0.500124
C73	C	1.050077	0.268722	0.000104
C74	C	1.550077	0.768722	0.500104
C75	C	1.051841	0.361674	0.000104
C76	C	1.551841	0.861674	0.500104
N77	N	1.056589	0.115634	0.235463
N78	N	1.556589	0.615634	0.735463
N79	N	1.056632	0.115651	-0.235251
N80	N	1.556632	0.615651	0.264749
C81	C	1.117415	0.058796	0.287510
C82	C	1.617415	0.558796	0.787510
C83	C	1.117421	0.058795	0.391613
C84	C	1.617421	0.558795	0.891613
C85	C	1.056603	0.115637	0.443668
C86	C	1.556603	0.615637	0.943668
C87	C	0.995770	0.172478	0.391614
C88	C	1.495770	0.672478	0.891614
C89	C	0.995761	0.172474	0.287512
C90	C	1.495761	0.672474	0.787512
C91	C	0.995795	0.172484	0.608594
C92	C	1.495795	0.672484	1.108594
C93	C	0.995805	0.172489	0.712702
C94	C	1.495805	0.672489	1.212702
C95	C	1.117455	0.058805	0.712695
C96	C	1.617455	0.558805	1.212695
C97	C	1.117446	0.058801	0.608594
C98	C	1.617446	0.558801	1.108594
C99	C	1.056613	0.115643	0.556546
C100	C	1.556613	0.615643	1.056546
H101	H	0.765759	0.258060	0.000073
H102	H	1.265759	0.758060	0.500073
Br103	Br	1.200016	-0.018333	0.783333
Br104	Br	1.700016	0.481667	1.283333
H105	H	0.478007	0.252971	0.000093
H106	H	0.978007	0.752971	0.500093
Br107	Br	0.327909	-0.068616	0.000167
Br108	Br	0.827909	0.431384	0.500167
Br109	Br	1.199965	-0.018346	0.216876
Br110	Br	1.699965	0.481654	0.716876
H111	H	0.946280	0.218775	0.755080
H112	H	1.446280	0.718775	1.255080
Br113	Br	1.199970	-0.018346	0.462252
Br114	Br	1.699970	0.481654	0.962252
Br115	Br	0.913230	0.249625	0.537962
Br116	Br	1.413230	0.749625	1.037962
H117	H	1.074022	-0.459159	-0.165031
H118	H	1.574022	0.040841	0.334969
H119	H	1.070706	-0.314429	-0.164563
H120	H	1.570706	0.185571	0.335437
H121	H	0.516709	-0.023776	0.000120
H122	H	1.016709	0.476224	0.500120
H123	H	0.635200	-0.021672	0.000125
H124	H	1.135200	0.478328	0.500125
Br125	Br	0.913223	0.249618	0.462255
Br126	Br	1.413223	0.749618	0.962255
H127	H	1.166972	0.012520	0.566211
H128	H	1.666972	0.512520	1.066211
H129	H	0.804464	-0.018683	0.000096
H130	H	1.304464	0.481317	0.500096
Br131	Br	0.913200	0.249610	0.216877
Br132	Br	1.413200	0.749610	0.716877
Br133	Br	0.892170	-0.453926	0.111622
Br134	Br	1.392170	0.046074	0.611622
H135	H	0.308748	0.249976	0.000120
H136	H	0.808748	0.749976	0.500120
Br137	Br	0.895810	-0.276789	-0.112748
Br138	Br	1.395810	0.223211	0.387252
Br139	Br	0.565393	0.296020	0.000092
Br140	Br	1.065393	0.796020	0.500092
H141	H	0.918151	-0.439367	-0.068007
H142	H	1.418151	0.060633	0.431993
H143	H	1.068767	-0.456584	0.165220
H144	H	1.568767	0.043416	0.665220
Br145	Br	1.223623	-0.491878	0.101787
Br146	Br	1.723623	0.008122	0.601787
Br147	Br	0.895355	-0.277725	0.113113
Br148	Br	1.395355	0.222275	0.613113
Br149	Br	1.227855	-0.317946	0.100414
Br150	Br	1.727855	0.182054	0.600414
H151	H	1.072896	-0.313261	0.164825
H152	H	1.572896	0.186739	0.664825
Br153	Br	1.226517	-0.315916	-0.104203
Br154	Br	1.726517	0.184084	0.395797
H155	H	1.178099	-0.470280	-0.094077
H156	H	1.678099	0.029720	0.405923
