data_functionalizedCrystal
_audit_creation_method	'MofGen! by Chris Wilmer'
_symmetry_space_group_name_H-M	'P1'
_symmetry_Int_Tables_number	1
_symmetry_cell_setting	triclinic
loop_
_symmetry_equiv_pos_as_xyz
  x,y,z
_cell_length_a	11.792254
_cell_length_b	14.044220
_cell_length_c	12.503572
_cell_angle_alpha	86.156832
_cell_angle_beta	93.542595
_cell_angle_gamma	88.693738
loop_
_atom_site_label
_atom_site_type_symbol
_atom_site_fract_x
_atom_site_fract_y
_atom_site_fract_z
O1	O	1.525101	0.124591	0.089323
O2	O	1.858435	0.457925	0.422656
O3	O	2.191768	0.791258	0.755989
O4	O	1.196019	0.137975	0.089326
O5	O	1.529352	0.471308	0.422659
O6	O	1.862685	0.804642	0.755992
O7	O	1.355620	-0.006726	0.089314
O8	O	1.688953	0.326607	0.422647
O9	O	2.022286	0.659940	0.755980
O10	O	1.365500	0.269293	0.089335
O11	O	1.698834	0.602626	0.422668
O12	O	2.032167	0.935959	0.756001
O13	O	1.343619	0.004174	-0.089327
O14	O	1.676952	0.337508	0.244006
O15	O	2.010285	0.670841	0.577339
O16	O	1.184018	0.148876	-0.089316
O17	O	1.517351	0.482209	0.244018
O18	O	1.850684	0.815542	0.577351
O19	O	1.513100	0.135492	-0.089318
O20	O	1.846433	0.468825	0.244015
O21	O	2.179767	0.802159	0.577348
Cu22	Cu	1.347463	0.143179	-0.105628
Cu23	Cu	1.680796	0.476512	0.227705
Cu24	Cu	2.014130	0.809846	0.561038
Cu25	Cu	1.361656	0.130288	0.105636
Cu26	Cu	1.694989	0.463621	0.438969
Cu27	Cu	2.028322	0.796955	0.772302
O28	O	1.353499	0.280193	-0.089306
O29	O	1.686832	0.613527	0.244027
O30	O	2.020166	0.946860	0.577360
C31	C	1.147648	0.142582	0.000005
C32	C	1.480982	0.475916	0.333339
C33	C	1.814315	0.809249	0.666672
C34	C	1.021398	0.140059	0.000006
C35	C	1.354732	0.473392	0.333339
C36	C	1.688065	0.806725	0.666673
C37	C	0.918870	0.138008	0.000010
C38	C	1.252203	0.471341	0.333344
C39	C	1.585536	0.804675	0.666677
C40	C	0.790242	0.135444	0.000011
C41	C	1.123576	0.468778	0.333344
C42	C	1.456909	0.802111	0.666677
C43	C	1.345295	-0.036613	-0.000007
C44	C	1.678628	0.296721	0.333326
C45	C	2.011961	0.630054	0.666659
C46	C	1.332396	-0.141905	-0.000009
C47	C	1.665729	0.191428	0.333325
C48	C	1.999062	0.524761	0.666658
C49	C	1.308815	-0.334690	0.000007
C50	C	1.642148	-0.001356	0.333340
C51	C	1.975481	0.331977	0.666674
C52	C	1.400300	-0.391849	0.000010
C53	C	1.733633	-0.058516	0.333343
C54	C	2.066966	0.274817	0.666676
C55	C	1.387179	-0.499121	0.000018
C56	C	1.720512	-0.165788	0.333352
C57	C	2.053845	0.167545	0.666685
C58	C	1.321934	-0.227408	-0.000002
C59	C	1.655267	0.105926	0.333332
C60	C	1.988600	0.439259	0.666665
C61	C	1.561471	0.130885	0.000004
C62	C	1.894804	0.464218	0.333338
C63	C	2.228137	0.797551	0.666671
C64	C	1.687721	0.133408	0.000011
C65	C	2.021054	0.466741	0.333344
C66	C	2.354388	0.800074	0.666677
C67	C	1.363824	0.310080	0.000017
C68	C	1.697158	0.643413	0.333350
C69	C	2.030491	0.976746	0.666684
C70	C	1.376724	0.415372	0.000025
C71	C	1.710057	0.748705	0.333359
C72	C	2.043390	1.082038	0.666692
N73	N	1.337489	0.152245	-0.254220
N74	N	1.670822	0.485579	0.079114
N75	N	2.004156	0.818912	0.412447
C76	C	1.322817	0.165591	-0.473334
C77	C	1.656151	0.498924	-0.140001
C78	C	1.989484	0.832257	0.193333
C79	C	1.386306	0.107872	-0.526666
C80	C	1.719640	0.441206	-0.193332
C81	C	2.052973	0.774539	0.140001
C82	C	1.378143	0.115298	-0.648588
C83	C	1.711476	0.448631	-0.315255
C84	C	2.044810	0.781964	0.018078
C85	C	1.330979	0.158166	-0.351400
C86	C	1.664313	0.491500	-0.018067
C87	C	1.997646	0.824833	0.315266
N88	N	1.371638	0.121214	0.254227
N89	N	1.704972	0.454547	0.587560
N90	N	2.038305	0.787881	0.920894
H91	H	1.488481	-0.360226	0.000081
H92	H	1.821815	-0.026893	0.333414
H93	H	2.155148	0.306440	0.666748
H94	H	1.220645	-0.366316	0.000010
H95	H	1.553978	-0.032982	0.333344
H96	H	1.887312	0.300351	0.666677
H97	H	1.446793	0.052882	-0.480757
H98	H	1.780126	0.386215	-0.147424
H99	H	2.113460	0.719549	0.185909
H100	H	1.262336	0.220578	-0.519237
H101	H	1.595670	0.553912	-0.185903
H102	H	1.929003	0.887245	0.147430
