data_functionalizedCrystal
_audit_creation_method	'MofGen! by Chris Wilmer'
_symmetry_space_group_name_H-M	'P1'
_symmetry_Int_Tables_number	1
_symmetry_cell_setting	triclinic
loop_
_symmetry_equiv_pos_as_xyz
  x,y,z
_cell_length_a	12.759401
_cell_length_b	18.050589
_cell_length_c	12.759401
_cell_angle_alpha	90.006500
_cell_angle_beta	90.002448
_cell_angle_gamma	90.028382
loop_
_atom_site_label
_atom_site_type_symbol
_atom_site_fract_x
_atom_site_fract_y
_atom_site_fract_z
Zn1	Zn	1.605990	-0.295789	0.593988
Zn2	Zn	2.105990	0.204211	1.093988
Zn3	Zn	1.605892	-0.419947	0.418311
Zn4	Zn	2.105892	0.080053	0.918311
Zn5	Zn	1.430341	-0.295776	0.418327
Zn6	Zn	1.930341	0.204224	0.918327
Zn7	Zn	1.430239	-0.419942	0.593952
Zn8	Zn	1.930239	0.080058	1.093952
O9	O	1.518116	-0.357864	0.506145
O10	O	2.018116	0.142136	1.006145
O11	O	1.752998	-0.312267	0.570692
O12	O	2.252998	0.187733	1.070692
O13	O	1.582607	-0.403472	0.271292
O14	O	2.082607	0.096528	0.771292
O15	O	1.453725	-0.191853	0.441651
O16	O	1.953725	0.308147	0.941651
O17	O	1.752926	-0.403485	0.441623
O18	O	2.252926	0.096515	0.941623
O19	O	1.582774	-0.191863	0.570708
O20	O	2.082774	0.308137	1.070708
O21	O	1.453630	-0.312244	0.271304
O22	O	1.953630	0.187756	0.771304
O23	O	1.283307	-0.312239	0.441616
O24	O	1.783307	0.187761	0.941616
O25	O	1.453551	-0.403477	0.740978
O26	O	1.953551	0.096523	1.240978
O27	O	1.283232	-0.403464	0.570647
O28	O	1.783232	0.096536	1.070647
O29	O	1.582675	-0.312262	0.741004
O30	O	2.082675	0.187738	1.241004
O31	O	1.582508	-0.523871	0.441588
O32	O	2.082508	-0.023871	0.941588
O33	O	1.453456	-0.523868	0.570631
O34	O	1.953456	-0.023868	1.070631
C35	C	1.245148	-0.357850	0.506130
C36	C	1.745148	0.142150	1.006130
C37	C	1.128372	-0.357862	0.506149
C38	C	1.628372	0.142138	1.006149
C39	C	1.073498	-0.405439	0.573224
C40	C	1.573498	0.094561	1.073224
C41	C	0.963774	-0.405448	0.573236
C42	C	1.463774	0.094552	1.073236
C43	C	0.963807	-0.310302	0.439088
C44	C	1.463807	0.189698	0.939088
C45	C	1.073529	-0.310290	0.439082
C46	C	1.573529	0.189710	0.939082
C47	C	1.128341	-0.453011	0.640291
C48	C	1.628341	0.046989	1.140291
C49	C	1.073467	-0.500592	0.707371
C50	C	1.573467	-0.000592	1.207371
C51	C	0.963743	-0.500602	0.707382
C52	C	1.463743	-0.000602	1.207382
C53	C	0.908893	-0.453030	0.640314
C54	C	1.408893	0.046970	1.140314
C55	C	1.517989	-0.550816	0.506127
C56	C	2.017989	-0.050816	1.006127
C57	C	1.518031	-0.633362	0.506155
C58	C	2.018031	-0.133362	1.006155
C59	C	1.447922	-0.832837	0.576304
C60	C	1.947922	-0.332837	1.076304
C61	C	1.422334	-0.882257	0.480436
C62	C	1.922334	-0.382257	0.980436
C63	C	1.518134	-0.784492	0.506168
C64	C	2.018134	-0.284492	1.006168
C65	C	1.543773	-0.882153	0.602048
C66	C	2.043773	-0.382153	1.102048
C67	C	1.518232	-0.930477	0.506190
C68	C	2.018232	-0.430477	1.006190
C69	C	1.492496	-0.832825	0.410249
C70	C	1.992496	-0.332825	0.910249
C71	C	1.613980	-0.832717	0.531926
C72	C	2.113980	-0.332717	1.031926
C73	C	1.588429	-0.882114	0.435992
C74	C	2.088429	-0.382114	0.935992
C75	C	1.518075	-0.700394	0.506157
C76	C	2.018075	-0.200394	1.006157
C77	C	1.518291	-1.014574	0.506190
C78	C	2.018291	-0.514574	1.006190
C79	C	1.792149	-0.357878	0.506159
C80	C	2.292149	0.142122	1.006159
C81	C	1.908926	-0.357884	0.506166
C82	C	2.408926	0.142116	1.006166
C83	C	1.518113	-0.357870	0.780178
C84	C	2.018113	0.142130	1.280178
C85	C	1.518111	-0.357873	0.896954
C86	C	2.018111	0.142127	1.396954
C87	C	1.518272	-0.164158	0.506185
C88	C	2.018272	0.335842	1.006185
C89	C	1.518338	-0.081612	0.506202
C90	C	2.018338	0.418388	1.006202
C91	C	1.450886	-0.405369	1.061529
C92	C	1.950886	0.094631	1.561529
C93	C	1.450883	-0.405365	0.951805
C94	C	1.950883	0.094635	1.451805
C95	C	1.585338	-0.310378	0.951833
C96	C	2.085338	0.189622	1.451833
C97	C	1.585335	-0.310379	1.061555
C98	C	2.085335	0.189621	1.561555
C99	C	1.383661	-0.452869	1.116375
C100	C	1.883661	0.047131	1.616375
C101	C	1.316432	-0.500364	1.061503
C102	C	1.816432	-0.000364	1.561503
C103	C	1.316429	-0.500359	0.951779
C104	C	1.816429	-0.000359	1.451779
C105	C	1.383656	-0.452860	0.896926
C106	C	1.883656	0.047140	1.396926
C107	C	1.518110	-0.357876	1.233177
C108	C	2.018110	0.142124	1.733177
C109	C	1.518110	-0.357879	1.116401
C110	C	2.018110	0.142121	1.616401
H111	H	1.118208	-0.271543	0.384472
H112	H	1.618208	0.228457	0.884472
F113	F	0.905428	-0.259678	0.367712
F114	F	1.405428	0.240322	0.867712
F115	F	1.245119	-0.453007	0.640281
F116	F	1.745119	0.046993	1.140281
F117	F	1.244881	-0.550907	1.119883
F118	F	1.744881	-0.050907	1.619883
H119	H	1.383646	-0.452858	0.807582
H120	H	1.883646	0.047142	1.307582
F121	F	1.370202	-0.804553	0.653719
F122	F	1.870202	-0.304553	1.153719
F123	F	1.656877	-0.259827	0.893452
F124	F	2.156877	0.240173	1.393452
H125	H	1.470756	-0.811247	0.329152
H126	H	1.970756	-0.311247	0.829152
H127	H	1.341327	-0.904035	0.458669
H128	H	1.841327	-0.404035	0.958669
H129	H	1.383657	-0.452879	1.205717
H130	H	1.883657	0.047121	1.705717
F131	F	1.666095	-0.910218	0.358394
F132	F	2.166095	-0.410218	0.858394
H133	H	1.694969	-0.810941	0.553739
H134	H	2.194969	-0.310941	1.053739
H135	H	1.261680	-0.539025	0.907106
H136	H	1.761680	-0.039025	1.407106
H137	H	1.118134	-0.539318	0.761982
H138	H	1.618134	-0.039318	1.261982
F139	F	1.656860	-0.259819	1.119957
F140	F	2.156860	0.240181	1.619957
H141	H	1.565420	-0.903821	0.683123
H142	H	2.065420	-0.403821	1.183123
F143	F	0.905346	-0.551235	0.778781
F144	F	1.405346	-0.051235	1.278781
H145	H	0.819548	-0.453035	0.640338
H146	H	1.319548	0.046965	1.140338
