data_functionalizedCrystal
_audit_creation_method	'MofGen! by Chris Wilmer'
_symmetry_space_group_name_H-M	'P1'
_symmetry_Int_Tables_number	1
_symmetry_cell_setting	triclinic
loop_
_symmetry_equiv_pos_as_xyz
  x,y,z
_cell_length_a	16.625546
_cell_length_b	16.959455
_cell_length_c	16.959447
_cell_angle_alpha	90.014322
_cell_angle_beta	89.967784
_cell_angle_gamma	89.980585
loop_
_atom_site_label
_atom_site_type_symbol
_atom_site_fract_x
_atom_site_fract_y
_atom_site_fract_z
Zn1	Zn	-0.321051	-1.208371	-0.446898
Zn2	Zn	-0.455899	-1.208288	-0.314715
Zn3	Zn	-0.321077	-1.076199	-0.314736
Zn4	Zn	-0.455839	-1.076158	-0.446854
O5	O	-0.388466	-1.142254	-0.380801
O6	O	-0.338954	-1.318970	-0.429374
O7	O	-0.438050	-1.190748	-0.204107
O8	O	-0.208241	-1.093784	-0.332295
O9	O	-0.438026	-1.318909	-0.332260
O10	O	-0.208222	-1.190890	-0.429394
O11	O	-0.338997	-1.093703	-0.204122
O12	O	-0.338939	-0.965583	-0.332252
O13	O	-0.437923	-1.093714	-0.557471
O14	O	-0.437947	-0.965553	-0.429318
O15	O	-0.338895	-1.190850	-0.557503
O16	O	-0.568723	-1.190709	-0.332217
O17	O	-0.568679	-1.093634	-0.429298
C18	C	-0.388440	-0.936888	-0.380783
C19	C	-0.388448	-0.849031	-0.380794
C20	C	-0.597957	-1.142179	-0.380768
C21	C	-0.687578	-1.142219	-0.380780
C22	C	-0.388400	-1.142287	-0.586969
C23	C	-0.388371	-1.142301	-0.674826
C24	C	-1.015754	-1.142357	-0.380862
C25	C	-0.924445	-1.142316	-0.380842
C26	C	-0.851669	-1.142288	-0.380821
C27	C	-0.760355	-1.142248	-0.380801
C28	C	-0.178157	-1.142351	-0.380851
C29	C	-0.088536	-1.142392	-0.380873
C30	C	-0.388494	-1.348422	-0.380819
C31	C	-0.388505	-1.436279	-0.380827
C32	C	-0.336870	-0.477547	-0.330364
C33	C	-0.440129	-0.477564	-0.431283
C34	C	-0.440117	-0.560110	-0.431278
C35	C	-0.388482	-0.601378	-0.380815
C36	C	-0.336859	-0.560100	-0.330356
C37	C	-0.491746	-0.601394	-0.481731
C38	C	-0.491737	-0.683945	-0.481727
C39	C	-0.440097	-0.725215	-0.431267
C40	C	-0.388471	-0.683932	-0.380807
C41	C	-0.336836	-0.725200	-0.330343
C42	C	-0.285205	-0.683918	-0.279886
C43	C	-0.285219	-0.601370	-0.279895
C44	C	-0.440083	-0.807763	-0.431257
C45	C	-0.336824	-0.807753	-0.330335
C46	C	-0.439845	-1.091821	-1.046287
C47	C	-0.336727	-1.192969	-1.046316
C48	C	-0.336744	-1.192948	-0.963770
C49	C	-0.388313	-1.142364	-0.922479
C50	C	-0.439866	-1.091800	-0.963734
C51	C	-0.285199	-1.243517	-0.922509
C52	C	-0.285214	-1.243498	-0.839958
C53	C	-0.336780	-1.192909	-0.798666
C54	C	-0.388334	-1.142343	-0.839925
C55	C	-0.439903	-1.091758	-0.798634
C56	C	-0.491453	-1.041187	-0.839892
C57	C	-0.491431	-1.041211	-0.922441
C58	C	-0.336802	-1.192886	-0.716117
C59	C	-0.439923	-1.091737	-0.716080
C60	C	-0.388475	-1.142267	-0.175435
C61	C	-0.388276	-1.142406	-0.087578
H62	H	-0.294771	-0.841348	-0.289245
C63	C	-0.548135	-0.985595	-0.967825
H64	H	-0.540743	-0.992860	-1.022902
H65	H	-0.536335	-0.932487	-0.954306
H66	H	-0.602317	-0.997141	-0.954278
H67	H	-0.243219	-1.284705	-0.956135
C68	C	-0.496548	-1.036200	-1.091666
H69	H	-0.489156	-1.043457	-1.146743
H70	H	-0.484747	-0.983094	-1.078138
H71	H	-0.550731	-1.047747	-1.078120
H72	H	-0.533444	-1.000005	-0.806262
H73	H	-0.533777	-0.717550	-0.522813
C74	C	-0.280100	-1.248502	-0.670736
H75	H	-0.249383	-1.278628	-0.707151
H76	H	-0.310953	-1.282917	-0.638519
H77	H	-0.244967	-1.218265	-0.638551
C78	C	-0.280078	-0.432146	-0.274865
H79	H	-0.249323	-0.468549	-0.244815
H80	H	-0.310878	-0.399921	-0.240373
H81	H	-0.244984	-0.399966	-0.305173
C82	C	-0.228409	-0.729318	-0.224380
H83	H	-0.235799	-0.784392	-0.231607
H84	H	-0.240138	-0.715770	-0.171251
H85	H	-0.174246	-0.715811	-0.236053
H86	H	-0.482173	-0.443959	-0.472364
C87	C	-0.280002	-1.248604	-1.091734
H88	H	-0.287369	-1.241370	-1.146806
H89	H	-0.291803	-1.301705	-1.078203
H90	H	-0.225827	-1.237045	-1.078223
C91	C	-0.228434	-0.555963	-0.224394
H92	H	-0.197674	-0.592361	-0.194343
H93	H	-0.259241	-0.523744	-0.189904
H94	H	-0.193344	-0.523777	-0.254701
H95	H	-0.482122	-0.841371	-0.472336
C96	C	-0.548538	-0.556000	-0.537235
H97	H	-0.541142	-0.500925	-0.530019
H98	H	-0.602698	-0.569508	-0.525571
H99	H	-0.536799	-0.569551	-0.590366
H100	H	-0.481911	-1.050537	-0.682467
C101	C	-0.228506	-1.299116	-0.794581
H102	H	-0.197788	-1.329241	-0.830997
H103	H	-0.259357	-1.333534	-0.762364
H104	H	-0.193374	-1.268879	-0.762396
