data_functionalizedCrystal
_audit_creation_method	'MofGen! by Chris Wilmer'
_symmetry_space_group_name_H-M	'P1'
_symmetry_Int_Tables_number	1
_symmetry_cell_setting	triclinic
loop_
_symmetry_equiv_pos_as_xyz
  x,y,z
_cell_length_a	12.827893
_cell_length_b	12.827892
_cell_length_c	12.827885
_cell_angle_alpha	89.970214
_cell_angle_beta	89.978811
_cell_angle_gamma	90.013411
loop_
_atom_site_label
_atom_site_type_symbol
_atom_site_fract_x
_atom_site_fract_y
_atom_site_fract_z
Zn1	Zn	-1.597670	0.416038	0.590902
Zn2	Zn	-1.097670	0.916038	1.090902
Zn3	Zn	-1.597564	0.590815	0.416162
Zn4	Zn	-1.097564	1.090815	0.916162
Zn5	Zn	-1.422911	0.416083	0.416170
Zn6	Zn	-0.922911	0.916083	0.916170
Zn7	Zn	-1.422896	0.590731	0.590857
Zn8	Zn	-0.922896	1.090731	1.090857
O9	O	-1.510260	0.503417	0.503523
O10	O	-1.010260	1.003417	1.003523
O11	O	-1.743892	0.439238	0.567738
O12	O	-1.243892	0.939238	1.067738
O13	O	-1.574358	0.567690	0.269927
O14	O	-1.074358	1.067690	0.769927
O15	O	-1.446144	0.269841	0.439371
O16	O	-0.946144	0.769841	0.939371
O17	O	-1.743814	0.567647	0.439358
O18	O	-1.243814	1.067647	0.939358
O19	O	-1.574538	0.269808	0.567746
O20	O	-1.074538	0.769808	1.067746
O21	O	-1.446041	0.439315	0.269933
O22	O	-0.946041	0.939315	0.769933
O23	O	-1.276673	0.439234	0.439327
O24	O	-0.776673	0.939234	0.939327
O25	O	-1.446118	0.567504	0.737099
O26	O	-0.946118	1.067504	1.237099
O27	O	-1.276662	0.567548	0.567668
O28	O	-0.776662	1.067548	1.067668
O29	O	-1.574524	0.439157	0.737132
O30	O	-1.074524	0.939157	1.237132
O31	O	-1.574343	0.737040	0.439314
O32	O	-1.074343	1.237040	0.939314
O33	O	-1.446016	0.736978	0.567661
O34	O	-0.946016	1.236978	1.067661
C35	C	-1.238750	0.503387	0.503494
C36	C	-0.738750	1.003387	1.003494
C37	C	-1.122597	0.503400	0.503506
C38	C	-0.622597	1.003400	1.003506
C39	C	-0.950746	0.439835	0.440124
C40	C	-0.450746	0.939835	0.940124
C41	C	-1.070796	0.439820	0.440110
C42	C	-0.570796	0.939820	0.940110
C43	C	-1.510195	0.774927	0.503504
C44	C	-1.010195	1.274927	1.003504
C45	C	-1.510262	0.891080	0.503531
C46	C	-1.010262	1.391080	1.003531
C47	C	-1.510331	0.503316	0.776093
C48	C	-1.010331	1.003316	1.276093
C49	C	-1.510362	0.503274	0.892246
C50	C	-1.010362	1.003274	1.392246
C51	C	-0.782830	0.503438	0.503544
C52	C	-0.282830	1.003438	1.003544
C53	C	-0.898983	0.503426	0.503532
C54	C	-0.398983	1.003426	1.003532
C55	C	-1.510354	0.230846	0.503564
C56	C	-1.010354	0.730846	1.003564
C57	C	-1.510394	0.114693	0.503582
C58	C	-1.010394	0.614693	1.003582
C59	C	-1.573838	0.942860	0.440092
C60	C	-1.073838	1.442860	0.940092
C61	C	-1.573910	1.062910	0.440118
C62	C	-1.073910	1.562910	0.940118
C63	C	-1.510249	0.503441	0.232013
C64	C	-1.010249	1.003441	0.732013
C65	C	-1.510422	0.503190	0.115860
C66	C	-1.010422	1.003190	0.615860
C67	C	-1.573907	0.439751	0.944048
C68	C	-1.073907	0.939751	1.444048
C69	C	-1.573940	0.439705	1.064098
C70	C	-1.073940	0.939705	1.564098
H71	H	-0.943544	0.557853	0.557812
H72	H	-0.443544	1.057853	1.057812
H73	H	-1.628336	1.107441	0.385802
H74	H	-1.128336	1.607441	0.885802
H75	H	-0.906185	0.385399	0.385853
H76	H	-0.406185	0.885399	0.885853
O77	O	-1.638808	0.889889	0.375232
O78	O	-1.138808	1.389889	0.875232
C79	C	-1.697912	0.961344	0.316228
C80	C	-1.197912	1.461344	0.816228
H81	H	-1.701629	1.039140	0.358982
H82	H	-1.201629	1.539140	0.858982
H83	H	-1.659698	0.973005	0.236822
H84	H	-1.159698	1.473005	0.736822
C85	C	-1.804510	0.823002	0.248776
C86	C	-1.304510	1.323002	0.748776
C87	C	-1.809082	0.918550	0.301292
C88	C	-1.309082	1.418550	0.801292
H89	H	-1.873083	0.796605	0.239558
H90	H	-1.373083	1.296605	0.739558
H91	H	-1.764688	0.774861	0.288525
H92	H	-1.264688	1.274861	0.788525
H93	H	-1.772660	0.832733	0.182610
H94	H	-1.272660	1.332733	0.682610
H95	H	-1.840919	0.908816	0.367462
H96	H	-1.340919	1.408816	0.867462
H97	H	-1.848912	0.966689	0.261554
H98	H	-1.348912	1.466689	0.761554
H99	H	-1.628283	0.385397	0.899520
H100	H	-1.128283	0.885397	1.399520
O101	O	-1.638746	0.374853	1.117395
O102	O	-1.138746	0.874853	1.617395
C103	C	-1.624363	0.389256	1.225394
C104	C	-1.124363	0.889256	1.725394
H105	H	-1.543697	0.423484	1.240183
H106	H	-1.043697	0.923484	1.740183
H107	H	-1.686313	0.444925	1.256369
H108	H	-1.186313	0.944925	1.756369
C109	C	-1.733009	0.241510	1.263381
C110	C	-1.233009	0.741510	1.763381
C111	C	-1.633930	0.283543	1.281546
C112	C	-1.133930	0.783543	1.781546
H113	H	-1.738915	0.176303	1.298020
H114	H	-1.238915	0.676303	1.798020
H115	H	-1.742703	0.231809	1.190621
H116	H	-1.242703	0.731809	1.690621
H117	H	-1.784623	0.287911	1.289194
H118	H	-1.284623	0.787911	1.789194
H119	H	-1.582319	0.237148	1.255722
H120	H	-1.082319	0.737148	1.755722
H121	H	-1.624227	0.293234	1.354303
H122	H	-1.124227	0.793234	1.854303
H123	H	-1.455957	1.070171	0.557894
H124	H	-0.955957	1.570171	1.057894
H125	H	-1.456019	0.557580	1.071319
H126	H	-0.956019	1.057580	1.571319
H127	H	-1.115311	0.385381	0.385820
H128	H	-0.615311	0.885381	0.885820
H129	H	-1.455975	0.557617	0.936774
H130	H	-0.955975	1.057617	1.436774
H131	H	-1.078089	0.557848	0.557792
H132	H	-0.578089	1.057848	1.057792
H133	H	-1.455890	0.935625	0.557868
H134	H	-0.955890	1.435625	1.057868
