data_functionalizedCrystal
_audit_creation_method	'MofGen! by Chris Wilmer'
_symmetry_space_group_name_H-M	'P1'
_symmetry_Int_Tables_number	1
_symmetry_cell_setting	triclinic
loop_
_symmetry_equiv_pos_as_xyz
  x,y,z
_cell_length_a	15.995292
_cell_length_b	15.995350
_cell_length_c	13.330367
_cell_angle_alpha	89.992805
_cell_angle_beta	90.008076
_cell_angle_gamma	83.480495
loop_
_atom_site_label
_atom_site_type_symbol
_atom_site_fract_x
_atom_site_fract_y
_atom_site_fract_z
O1	O	1.111020	0.107682	0.083446
O2	O	0.867238	0.121061	0.083441
O3	O	0.995793	-0.007517	0.083443
O4	O	0.982465	0.236261	0.083444
O5	O	0.995773	-0.007497	-0.083405
O6	O	0.867219	0.121081	-0.083406
O7	O	1.111000	0.107703	-0.083402
Cu8	Cu	0.989108	0.114394	-0.098638
Cu9	Cu	0.989131	0.114370	0.098678
O10	O	0.982446	0.236281	-0.083403
C11	C	0.836033	0.120527	0.000017
C12	C	0.743080	0.118894	0.000015
C13	C	0.995232	-0.038702	0.000021
C14	C	0.993580	-0.131652	0.000026
C15	C	0.405341	0.112893	0.000027
C16	C	0.428654	0.205697	0.000400
C17	C	0.525329	0.207461	0.000020
C18	C	0.572897	0.115871	0.000022
C19	C	0.543784	0.069485	-0.095253
C20	C	0.446994	0.068368	-0.095329
C21	C	0.447161	0.066449	0.094408
C22	C	0.543653	0.069888	0.095663
C23	C	0.667593	0.117549	0.000015
C24	C	0.310646	0.111212	0.000026
C25	C	0.987648	-0.469398	0.000023
C26	C	0.896094	-0.421945	0.000396
C27	C	0.897746	-0.325255	0.000019
C28	C	0.990591	-0.301838	0.000025
C29	C	1.035737	-0.342913	-0.095250
C30	C	1.033437	-0.439549	-0.095330
C31	C	1.035351	-0.439930	0.094407
C32	C	1.035330	-0.342985	0.095666
C33	C	0.992259	-0.207141	0.000023
C34	C	0.985983	-0.564095	0.000018
C35	C	1.142206	0.108237	0.000025
C36	C	1.235159	0.109870	0.000033
C37	C	0.983006	0.267466	0.000021
C38	C	0.984658	0.360416	0.000022
N39	N	0.989097	0.114411	-0.237420
C40	C	1.039923	0.165157	-0.710031
C41	C	0.938364	0.063549	-0.710023
C42	C	0.938352	0.063562	-0.605004
C43	C	0.989127	0.114372	-0.552494
C44	C	1.039914	0.165170	-0.605003
C45	C	0.887573	0.012759	-0.552488
C46	C	0.887559	0.012770	-0.447463
C47	C	0.938330	0.063585	-0.394951
C48	C	0.989118	0.114385	-0.447466
C49	C	1.039893	0.165195	-0.394956
C50	C	1.090678	0.216000	-0.447469
C51	C	1.090685	0.215985	-0.552491
C52	C	0.938323	0.063600	-0.289930
C53	C	1.039884	0.165208	-0.289928
N54	N	0.989148	0.114347	0.237459
H55	H	0.544364	0.243785	0.068319
H56	H	0.432443	0.000324	-0.099655
N57	N	1.142539	0.267906	-0.393832
N58	N	1.132517	0.345935	-0.405574
H59	H	1.169147	0.382591	-0.367691
N60	N	0.850386	-0.446511	-0.084840
N61	N	0.884947	-0.498816	-0.145859
H62	H	0.852668	-0.516168	-0.206059
N63	N	0.852905	-0.290285	-0.085810
N64	N	0.820297	-0.337299	-0.145624
H65	H	0.788627	-0.312603	-0.206247
H66	H	0.576624	0.003036	0.101419
N67	N	0.583762	-0.015065	-0.099687
N68	N	0.634279	-0.042142	-0.032517
H69	H	0.662515	-0.101855	-0.035645
N70	N	0.994019	-0.308720	0.184103
N71	N	1.020096	-0.333285	0.268694
H72	H	0.990927	-0.309071	0.331154
H73	H	0.563835	0.101714	-0.166158
N74	N	1.117750	-0.480040	-0.100773
N75	N	1.131072	-0.558565	-0.101807
H76	H	1.190617	-0.587161	-0.105657
N77	N	0.835698	-0.039135	-0.606108
N78	N	0.790357	-0.084487	-0.559214
H79	H	0.753715	-0.121137	-0.597086
N80	N	1.091784	0.217062	-0.763664
N81	N	1.059088	0.272407	-0.822286
H82	H	1.095714	0.309067	-0.860165
N83	N	0.992116	-0.462481	-0.184681
N84	N	0.965173	-0.407142	-0.246546
H85	H	0.935988	-0.423333	-0.309653
H86	H	1.103948	-0.328801	-0.098789
H87	H	0.562231	0.103662	0.166146
N88	N	0.835678	-0.039124	-0.393843
N89	N	0.790347	-0.084484	-0.440740
H90	H	0.753701	-0.121132	-0.402871
H91	H	0.399627	0.241278	-0.067542
H92	H	1.005426	-0.460473	0.166620
H93	H	0.418842	0.095448	0.166621
H94	H	0.433168	-0.001861	0.095053
N95	N	0.393555	0.250576	0.086112
N96	N	0.440762	0.280488	0.148036
H97	H	0.415970	0.312183	0.208575
N98	N	0.886475	0.011681	-0.236305
N99	N	0.841163	-0.033699	-0.283201
H100	H	0.804549	-0.070377	-0.245330
H101	H	1.004364	-0.314516	-0.166154
N102	N	0.548392	0.253393	-0.085760
N103	N	0.493054	0.284238	-0.145539
H104	H	0.509337	0.316703	-0.206108
N105	N	0.886518	0.011645	-0.763671
N106	N	0.886540	0.011635	-0.857440
H107	H	0.849922	-0.025025	-0.895335
H108	H	0.420168	0.100510	-0.166550
N109	N	1.120031	-0.479793	0.095247
N110	N	1.168819	-0.464726	0.164523
H111	H	1.228622	-0.492882	0.165112
H112	H	1.103036	-0.327638	0.101423
H113	H	0.862257	-0.296834	0.068316
H114	H	0.859508	-0.440477	0.068719
H115	H	1.081228	0.206589	-0.247182
N116	N	1.142553	0.267869	-0.606146
N117	N	1.142557	0.267843	-0.699916
H118	H	1.179192	0.304482	-0.737815
