data_functionalizedCrystal
_audit_creation_method	'MofGen! by Chris Wilmer'
_symmetry_space_group_name_H-M	'P1'
_symmetry_Int_Tables_number	1
_symmetry_cell_setting	triclinic
loop_
_symmetry_equiv_pos_as_xyz
  x,y,z
_cell_length_a	14.519709
_cell_length_b	14.519709
_cell_length_c	10.065875
_cell_angle_alpha	98.804604
_cell_angle_beta	81.242070
_cell_angle_gamma	83.680145
loop_
_atom_site_label
_atom_site_type_symbol
_atom_site_fract_x
_atom_site_fract_y
_atom_site_fract_z
O1	O	1.237318	0.107379	-0.113316
O2	O	0.968846	0.121610	-0.113358
O3	O	1.110198	-0.019742	-0.113324
O4	O	1.095965	0.248731	-0.113351
O5	O	1.083244	0.007320	0.113658
O6	O	0.941892	0.148673	0.113624
O7	O	1.210364	0.134441	0.113666
Zn8	Zn	1.071848	0.145854	0.149683
Zn9	Zn	1.107361	0.110198	-0.149376
O10	O	1.069011	0.275794	0.113631
C11	C	0.921010	0.134477	0.000127
C12	C	0.818630	0.132487	0.000112
C13	C	0.443727	0.125175	0.000175
C14	C	0.548037	0.127206	0.000157
C15	C	0.631175	0.128831	0.000142
C16	C	0.735492	0.130862	0.000127
C17	C	1.096058	-0.040571	0.000167
C18	C	1.094070	-0.142952	0.000168
C19	C	1.086754	-0.517852	0.000131
C20	C	1.088786	-0.413543	0.000142
C21	C	1.090412	-0.330405	0.000151
C22	C	1.092444	-0.226090	0.000159
C23	C	1.258200	0.121574	0.000177
C24	C	1.360581	0.123563	0.000184
C25	C	1.083152	0.296622	0.000137
C26	C	1.085141	0.399002	0.000128
N27	N	1.047618	0.170187	0.353783
N28	N	1.131598	0.085857	-0.353475
C29	C	1.098925	0.118658	0.421574
C30	C	1.080284	0.137393	0.578737
H31	H	1.156648	0.060669	0.363264
H32	H	1.022551	0.195380	0.637044
O33	O	1.200292	0.016570	0.576767
C34	C	1.281197	-0.065579	0.356522
C35	C	1.203501	0.013040	0.435350
H36	H	1.283804	-0.068471	0.242173
H37	H	1.351989	-0.050574	0.384219
H38	H	1.265271	-0.135946	0.384832
H39	H	1.219337	0.083440	0.407083
H40	H	1.132734	-0.002046	0.407647
H41	H	0.989889	0.228170	0.412095
