data_functionalizedCrystal
_audit_creation_method	'MofGen! by Chris Wilmer'
_symmetry_space_group_name_H-M	'P1'
_symmetry_Int_Tables_number	1
_symmetry_cell_setting	triclinic
loop_
_symmetry_equiv_pos_as_xyz
  x,y,z
_cell_length_a	19.188930
_cell_length_b	15.944551
_cell_length_c	14.421503
_cell_angle_alpha	89.996660
_cell_angle_beta	90.021481
_cell_angle_gamma	83.321759
loop_
_atom_site_label
_atom_site_type_symbol
_atom_site_fract_x
_atom_site_fract_y
_atom_site_fract_z
O1	O	-0.926420	-0.104854	-0.077412
O2	O	-0.426420	0.395146	0.422588
O3	O	-0.723145	-0.118971	-0.077348
O4	O	-0.223145	0.381029	0.422652
O5	O	-0.830334	0.010383	-0.077374
O6	O	-0.330334	0.510383	0.422626
O7	O	-0.819232	-0.234208	-0.077387
O8	O	-0.319232	0.265792	0.422613
O9	O	-0.830316	0.010364	0.076850
O10	O	-0.330316	0.510364	0.576850
O11	O	-0.723128	-0.118990	0.076875
O12	O	-0.223128	0.381010	0.576875
O13	O	-0.926402	-0.104874	0.076812
O14	O	-0.426402	0.395126	0.576812
Cu15	Cu	-0.824763	-0.111934	0.090925
Cu16	Cu	-0.324763	0.388066	0.590925
Cu17	Cu	-0.824784	-0.111911	-0.091462
Cu18	Cu	-0.324784	0.388089	0.408538
O19	O	-0.819214	-0.234228	0.076837
O20	O	-0.319214	0.265772	0.576837
C21	C	-0.697124	-0.118524	-0.000229
C22	C	-0.197124	0.381476	0.499771
C23	C	-0.619616	-0.117151	-0.000204
C24	C	-0.119616	0.382849	0.499796
C25	C	-0.829864	0.041666	-0.000261
C26	C	-0.329864	0.541666	0.499739
C27	C	-0.828482	0.134906	-0.000261
C28	C	-0.328482	0.634906	0.499739
C29	C	-0.952423	-0.105321	-0.000310
C30	C	-0.452423	0.394679	0.499690
C31	C	-1.029932	-0.106693	-0.000341
C32	C	-0.529932	0.393307	0.499659
C33	C	-0.574889	-0.193052	-0.000223
C34	C	-0.074889	0.306948	0.499777
C35	C	-0.502061	-0.191763	-0.000233
C36	C	-0.002061	0.308237	0.499767
C37	C	-0.473965	-0.114568	-0.000243
C38	C	0.026035	0.385432	0.499757
C39	C	-0.518703	-0.038658	-0.000219
C40	C	-0.018703	0.461342	0.499781
C41	C	-0.591528	-0.039949	-0.000200
C42	C	-0.091528	0.460051	0.499800
N43	N	-0.365839	-0.055556	-0.052766
N44	N	0.134161	0.444444	0.447234
N45	N	-0.296657	-0.054335	-0.052787
N46	N	0.203343	0.445665	0.447213
C47	C	-0.254547	-0.110673	-0.000300
C48	C	0.245453	0.389327	0.499700
N49	N	-0.284230	-0.168291	0.052197
N50	N	0.215770	0.331709	0.552197
N51	N	-0.353418	-0.169515	0.052213
N52	N	0.146582	0.330485	0.552213
C53	C	-0.394999	-0.113160	-0.000263
C54	C	0.105001	0.386840	0.499737
C55	C	-0.130851	-0.185181	-0.000328
C56	C	0.369149	0.314819	0.499672
C57	C	-0.058023	-0.183888	-0.000332
C58	C	0.441977	0.316112	0.499668
C59	C	-0.074666	-0.030781	-0.000328
C60	C	0.425334	0.469219	0.499672
C61	C	-0.147492	-0.032076	-0.000314
C62	C	0.352508	0.467924	0.499686
C63	C	-0.175580	-0.109278	-0.000319
C64	C	0.324420	0.390722	0.499681
C65	C	-0.819684	-0.265510	-0.000277
C66	C	-0.319684	0.234490	0.499723
C67	C	-0.821066	-0.358751	-0.000284
C68	C	-0.321066	0.141249	0.499716
N69	N	-0.824754	-0.111949	0.219206
N70	N	-0.324754	0.388051	0.719206
C71	C	-0.758739	0.349502	-0.000252
C72	C	-0.258739	0.849502	0.499748
C73	C	-0.791117	0.410631	0.075780
C74	C	-0.291117	0.910631	0.575780
C75	C	-0.825983	0.305623	-0.000267
C76	C	-0.325983	0.805623	0.499733
C77	C	-0.791150	0.410634	-0.076272
C78	C	-0.291150	0.910634	0.423728
C79	C	-0.823563	0.470527	-0.000277
C80	C	-0.323563	0.970527	0.499723
C81	C	-0.858379	0.365524	0.075827
C82	C	-0.358379	0.865524	0.575827
C83	C	-0.858403	0.365520	-0.076293
C84	C	-0.358403	0.865520	0.423707
C85	C	-0.890829	0.426631	-0.000243
C86	C	-0.390829	0.926631	0.499757
C87	C	-0.827374	0.210626	-0.000260
C88	C	-0.327374	0.710626	0.499740
C89	C	-0.822176	0.565522	-0.000277
C90	C	-0.322176	1.065522	0.499723
N91	N	-0.824800	-0.111889	-0.219743
N92	N	-0.324800	0.388111	0.280257
C93	C	-0.775181	-0.171736	0.468872
C94	C	-0.275181	0.328264	0.968872
C95	C	-0.838271	-0.187807	0.530653
C96	C	-0.338271	0.312193	1.030653
C97	C	-0.824771	-0.111929	0.408368
C98	C	-0.324771	0.388071	0.908368
C99	C	-0.761697	-0.095877	0.530680
C100	C	-0.261697	0.404123	1.030680
C101	C	-0.824781	-0.111912	0.591089
C102	C	-0.324781	0.388088	1.091089
C103	C	-0.887892	-0.128038	0.468789
C104	C	-0.387892	0.371962	0.968789
C105	C	-0.811277	-0.036076	0.468810
C106	C	-0.311277	0.463924	0.968810
C107	C	-0.874413	-0.052114	0.530564
C108	C	-0.374413	0.447886	1.030564
C109	C	-0.824764	-0.111941	0.303107
C110	C	-0.324764	0.388059	0.803107
C111	C	-0.824796	-0.111899	0.696348
C112	C	-0.324796	0.388101	1.196348
H113	H	-0.597753	-0.255916	-0.000228
H114	H	-0.097753	0.244084	0.499772
C115	C	-0.718589	-0.240116	0.432265
C116	C	-0.218589	0.259884	0.932265
N117	N	-0.675968	-0.291621	0.404690
N118	N	-0.175968	0.208379	0.904690
C119	C	-0.853699	-0.274455	0.567362
C120	C	-0.353699	0.225545	1.067362
N121	N	-0.865313	-0.339720	0.595011
N122	N	-0.365313	0.160280	1.095011
H123	H	-0.702924	0.315986	-0.000158
H124	H	-0.202924	0.815986	0.499842
H125	H	-0.886827	0.345504	-0.140592
H126	H	-0.386827	0.845504	0.359408
H127	H	-0.886788	0.345632	0.140176
H128	H	-0.386788	0.845632	0.640176
H129	H	-0.941248	-0.141684	0.441717
H130	H	-0.441248	0.358316	0.941717
H131	H	-0.916399	-0.001527	0.557482
H132	H	-0.416399	0.498473	1.057482
C133	C	-0.196695	0.051422	-0.000304
C134	C	0.303305	0.551422	0.499696
N135	N	-0.233755	0.114317	-0.000296
N136	N	0.266245	0.614317	0.499704
C137	C	-0.752723	0.437636	-0.163107
C138	C	-0.252723	0.937636	0.336893
N139	N	-0.723774	0.457969	-0.228508
N140	N	-0.223774	0.957969	0.271492
C141	C	-0.795817	0.050546	0.432076
C142	C	-0.295817	0.550546	0.932076
N143	N	-0.784164	0.115788	0.404405
N144	N	-0.284164	0.615788	0.904405
C145	C	-0.043764	0.054134	-0.000338
C146	C	0.456236	0.554134	0.499662
N147	N	-0.020486	0.118094	-0.000343
N148	N	0.479514	0.618094	0.499657
H149	H	-0.762668	0.430625	0.140076
H150	H	-0.262668	0.930625	0.640076
H151	H	-0.465637	-0.253572	-0.000246
H152	H	0.034363	0.246428	0.499754
C153	C	-0.487796	0.046256	-0.000231
C154	C	0.012204	0.546256	0.499769
N155	N	-0.464517	0.110216	-0.000238
N156	N	0.035483	0.610216	0.499762
C157	C	-0.640731	0.043551	-0.000185
C158	C	-0.140731	0.543551	0.499815
N159	N	-0.677792	0.106445	-0.000178
N160	N	-0.177792	0.606445	0.499822
H161	H	-0.708353	-0.082309	0.557868
H162	H	-0.208353	0.417691	1.057868
H163	H	-0.153721	-0.248043	-0.000318
H164	H	0.346279	0.251957	0.499682
H165	H	-0.021605	-0.245698	-0.000342
H166	H	0.478395	0.254302	0.499658
C167	C	-0.966296	0.471718	-0.000207
C168	C	-0.466296	0.971718	0.499793
N169	N	-1.023137	0.505681	-0.000173
N170	N	-0.523137	1.005681	0.499827
