data_functionalizedCrystal
_audit_creation_method	'MofGen! by Chris Wilmer'
_symmetry_space_group_name_H-M	'P1'
_symmetry_Int_Tables_number	1
_symmetry_cell_setting	triclinic
loop_
_symmetry_equiv_pos_as_xyz
  x,y,z
_cell_length_a	12.827893
_cell_length_b	12.827892
_cell_length_c	12.759393
_cell_angle_alpha	90.030542
_cell_angle_beta	90.018914
_cell_angle_gamma	90.015363
loop_
_atom_site_label
_atom_site_type_symbol
_atom_site_fract_x
_atom_site_fract_y
_atom_site_fract_z
Zn1	Zn	1.597668	-0.415977	0.594014
Zn2	Zn	1.597562	-0.590757	0.418335
Zn3	Zn	1.422910	-0.416030	0.418350
Zn4	Zn	1.422895	-0.590677	0.593974
O5	O	1.510259	-0.503360	0.506168
O6	O	1.743890	-0.439173	0.570720
O7	O	1.574357	-0.567634	0.271316
O8	O	1.446142	-0.269787	0.441675
O9	O	1.743812	-0.567583	0.441650
O10	O	1.574536	-0.269748	0.570734
O11	O	1.446040	-0.439263	0.271327
O12	O	1.276672	-0.439186	0.441636
O13	O	1.446116	-0.567447	0.741000
O14	O	1.276661	-0.567498	0.570666
O15	O	1.574522	-0.439096	0.741029
O16	O	1.574342	-0.736982	0.441611
O17	O	1.446014	-0.736924	0.570652
C18	C	1.238749	-0.503340	0.506149
C19	C	1.122596	-0.503357	0.506166
C20	C	1.070773	-0.566800	0.442213
C21	C	0.950723	-0.566819	0.442229
C22	C	1.510193	-0.774870	0.506149
C23	C	1.510261	-0.891023	0.506175
C24	C	1.573766	-0.942705	0.570096
C25	C	1.573837	-1.062756	0.570125
C26	C	1.782829	-0.503381	0.506188
C27	C	1.898982	-0.503390	0.506196
C28	C	1.510329	-0.503257	0.780202
C29	C	1.510359	-0.503213	0.896978
C30	C	1.510353	-0.230790	0.506211
C31	C	1.510393	-0.114637	0.506229
C32	C	1.510249	-0.503387	0.233201
C33	C	1.510421	-0.503137	0.116425
C34	C	1.443598	-0.436321	1.061576
C35	C	1.443570	-0.436357	0.951852
C36	C	1.577189	-0.570032	0.951834
C37	C	1.577223	-0.569991	1.061557
C38	C	1.406231	-0.313166	0.801920
C39	C	1.339392	-0.246359	0.747068
C40	C	1.237441	-0.230292	0.782679
C41	C	1.202309	-0.281047	0.873140
C42	C	1.269143	-0.347861	0.927987
C43	C	1.371108	-0.363908	0.892377
C44	C	1.614551	-0.693183	1.211490
C45	C	1.681380	-0.760003	1.266339
C46	C	1.783332	-0.776081	1.230730
C47	C	1.818460	-0.725345	1.140265
C48	C	1.751631	-0.658524	1.085417
C49	C	1.649680	-0.642445	1.121033
H50	H	0.906156	-0.621133	0.387474
H51	H	0.943541	-0.449067	0.560947
H52	H	1.078086	-0.449058	0.560933
H53	H	1.628210	-1.107202	0.624845
H54	H	1.456024	-1.070199	0.451497
H55	H	1.628079	-0.898078	0.624803
H56	H	1.115282	-0.621106	0.387453
C57	C	1.929204	-0.742894	1.101790
C58	C	1.980220	-0.812250	1.169199
C59	C	2.082242	-0.828439	1.133796
H60	H	1.927509	-0.771378	1.033077
H61	H	1.965508	-0.678339	1.100779
H62	H	1.943925	-0.876793	1.170199
H63	H	1.981944	-0.783785	1.237915
H64	H	2.118546	-0.763884	1.132786
H65	H	2.080536	-0.856920	1.065083
H66	H	2.116872	-0.875490	1.179533
H67	H	1.368006	-0.205035	0.673414
H68	H	1.455940	-0.935653	0.451478
C69	C	1.649591	-0.642581	0.892071
C70	C	1.635240	-0.628340	0.784241
C71	C	1.701908	-0.695168	0.729158
H72	H	1.719859	-0.627354	0.909928
H73	H	1.634266	-0.712809	0.909984
H74	H	1.650573	-0.558128	0.766336
H75	H	1.564986	-0.643574	0.766353
H76	H	1.686582	-0.765395	0.747070
H77	H	1.772171	-0.679936	0.747023
H78	H	1.692173	-0.685521	0.655990
H79	H	1.389208	-0.381881	1.106246
C80	C	1.164937	-0.157855	0.722931
C81	C	1.152120	-0.194897	0.620493
C82	C	1.085356	-0.128185	0.565414
H83	H	1.099125	-0.155499	0.756951
H84	H	1.194167	-0.089825	0.721021
H85	H	1.122886	-0.262909	0.622408
H86	H	1.217912	-0.197249	0.586444
H87	H	1.114587	-0.060155	0.563504
H88	H	1.019549	-0.125833	0.599443
H89	H	1.076659	-0.153303	0.495902
H90	H	1.531535	-0.680088	1.240499
H91	H	1.240539	-0.389184	1.001638
H92	H	1.119286	-0.267968	0.902121
C93	C	1.789854	-0.603623	0.987124
C94	C	1.819397	-0.678023	0.912508
C95	C	1.854623	-0.627488	0.821954
H96	H	1.735532	-0.561531	0.959424
H97	H	1.848052	-0.560977	1.004012
H98	H	1.761205	-0.720652	0.895619
H99	H	1.873728	-0.720118	0.940173
H100	H	1.912821	-0.584841	0.838843
H101	H	1.800296	-0.585397	0.794265
H102	H	1.874681	-0.677959	0.771320
H103	H	1.489250	-0.326231	0.772924
H104	H	1.652770	-0.801314	1.340001
H105	H	1.837741	-0.830498	1.275395
