data_functionalizedCrystal
_audit_creation_method	'MofGen! by Chris Wilmer'
_symmetry_space_group_name_H-M	'P1'
_symmetry_Int_Tables_number	1
_symmetry_cell_setting	triclinic
loop_
_symmetry_equiv_pos_as_xyz
  x,y,z
_cell_length_a	18.101398
_cell_length_b	18.101395
_cell_length_c	12.759393
_cell_angle_alpha	89.966350
_cell_angle_beta	89.973630
_cell_angle_gamma	90.028835
loop_
_atom_site_label
_atom_site_type_symbol
_atom_site_fract_x
_atom_site_fract_y
_atom_site_fract_z
Zn1	Zn	1.132133	-0.294829	-0.594220
Zn2	Zn	1.132025	-0.418691	-0.418534
Zn3	Zn	1.008288	-0.294863	-0.418531
Zn4	Zn	1.008242	-0.418629	-0.594148
O5	O	1.070172	-0.356753	-0.506358
O6	O	1.235751	-0.311272	-0.570946
O7	O	1.115585	-0.402306	-0.271512
O8	O	1.024780	-0.191226	-0.441866
O9	O	1.235672	-0.402273	-0.441870
O10	O	1.115768	-0.191201	-0.570943
O11	O	1.024676	-0.311330	-0.271511
O12	O	0.904649	-0.311269	-0.441796
O13	O	1.024702	-0.402166	-0.741178
O14	O	0.904615	-0.402199	-0.570821
O15	O	1.115724	-0.311211	-0.741231
O16	O	1.115541	-0.522316	-0.441800
O17	O	1.024598	-0.522270	-0.570823
C18	C	0.877761	-0.356731	-0.506301
C19	C	0.795447	-0.356740	-0.506302
C20	C	1.070073	-0.549164	-0.506327
C21	C	1.070098	-0.631478	-0.506349
C22	C	0.644739	-0.356755	-0.506349
C23	C	0.613382	-0.299462	-0.425305
C24	C	0.527763	-0.299247	-0.425571
C25	C	0.496356	-0.356770	-0.506394
C26	C	0.527498	-0.335928	-0.617241
C27	C	0.613143	-0.335503	-0.616746
C28	C	0.613135	-0.435038	-0.477522
C29	C	0.527483	-0.434625	-0.475107
C30	C	0.412497	-0.356780	-0.506426
C31	C	0.728598	-0.356743	-0.506324
C32	C	1.070261	-0.930569	-0.506406
C33	C	1.013175	-0.899245	-0.587785
C34	C	1.012903	-0.813627	-0.587530
C35	C	1.070180	-0.782186	-0.506379
C36	C	1.049049	-0.813345	-0.395649
C37	C	1.048681	-0.898990	-0.396136
C38	C	1.148603	-0.898913	-0.534782
C39	C	1.148142	-0.813262	-0.537210
C40	C	1.070136	-0.698327	-0.506356
C41	C	1.070303	-1.014428	-0.506421
C42	C	1.263334	-0.356775	-0.506416
C43	C	1.345648	-0.356785	-0.506441
C44	C	1.070220	-0.356678	-0.780392
C45	C	1.070241	-0.356645	-0.897168
C46	C	1.070292	-0.163591	-0.506412
C47	C	1.070343	-0.081277	-0.506435
C48	C	1.022924	-0.309266	-0.952035
C49	C	1.022947	-0.309244	-1.061760
C50	C	1.117608	-0.403983	-1.061740
C51	C	1.117581	-0.404009	-0.952018
C52	C	0.975584	-0.261902	-0.897186
C53	C	0.928264	-0.214518	-0.952053
C54	C	0.928286	-0.214496	-1.061778
C55	C	0.975628	-0.261858	-1.116634
C56	C	1.070167	-0.356775	-0.233391
C57	C	1.070290	-0.356598	-0.116615
H58	H	0.506705	-0.312251	-0.343393
H59	H	0.975561	-0.261914	-0.807843
H60	H	1.164078	-0.792893	-0.618701
N61	N	0.975647	-0.261844	-1.234980
H62	H	0.938486	-0.224644	-1.261417
H63	H	1.026488	-0.248256	-1.261347
H64	H	1.156120	-0.442580	-0.907344
N65	N	0.877247	-0.163394	-1.120951
H66	H	0.907374	-0.129071	-1.166498
H67	H	0.842926	-0.193528	-1.166392
N68	N	0.640616	-0.316462	-0.316092
H69	H	0.673545	-0.361466	-0.318085
H70	H	0.669478	-0.272875	-0.288438
N71	N	0.641894	-0.223054	-0.450347
H72	H	0.675038	-0.225390	-0.513958
H73	H	0.598849	-0.189145	-0.465148
H74	H	1.156153	-0.442542	-1.106413
H75	H	0.507302	-0.241244	-0.444709
N76	N	0.641676	-0.460256	-0.372239
H77	H	0.697374	-0.463201	-0.374387
H78	H	0.626018	-0.423853	-0.316549
H79	H	1.192924	-0.791855	-0.482259
N80	N	0.500523	-0.455457	-0.367046
H81	H	0.468279	-0.414639	-0.338470
H82	H	0.471010	-0.502725	-0.371279
N83	N	1.204943	-0.925748	-0.456280
H84	H	1.255164	-0.905235	-0.474904
H85	H	1.190519	-0.908480	-0.383856
N86	N	0.639650	-0.259721	-0.649021
H87	H	0.595700	-0.226905	-0.663434
H88	H	0.670259	-0.237657	-0.590738
N89	N	0.877200	-0.163437	-0.892902
H90	H	0.842851	-0.193536	-0.847356
H91	H	0.907360	-0.129139	-0.847462
H92	H	0.507159	-0.376385	-0.679297
N93	N	0.640633	-0.388397	-0.699493
H94	H	0.597114	-0.411883	-0.736133
H95	H	0.671600	-0.360581	-0.752261
H96	H	0.506079	-0.279348	-0.642036
H97	H	0.506096	-0.479576	-0.529792
H98	H	0.633410	-0.477720	-0.536551
N99	N	1.030408	-0.785714	-0.696288
H100	H	0.987893	-0.754838	-0.722866
H101	H	1.076703	-0.754594	-0.693960
H102	H	1.026265	-0.919787	-0.670155
N103	N	0.972825	-0.925550	-0.364311
H104	H	0.976830	-0.956661	-0.298825
H105	H	0.939979	-0.881586	-0.350152
H106	H	0.992387	-0.791960	-0.371183
H107	H	0.954834	-0.793203	-0.568733
N108	N	0.936720	-0.927832	-0.563209
H109	H	0.938902	-0.960984	-0.499590
H110	H	0.902722	-0.884825	-0.548610
H111	H	1.088456	-0.919714	-0.333434
H112	H	1.167868	-0.920456	-0.614150
N113	N	1.102387	-0.786377	-0.313134
H114	H	1.140854	-0.753622	-0.346817
H115	H	1.074554	-0.757396	-0.258238
