data_functionalizedCrystal
_audit_creation_method	'MofGen! by Chris Wilmer'
_symmetry_space_group_name_H-M	'P1'
_symmetry_Int_Tables_number	1
_symmetry_cell_setting	triclinic
loop_
_symmetry_equiv_pos_as_xyz
  x,y,z
_cell_length_a	10.654558
_cell_length_b	9.130313
_cell_length_c	14.971486
_cell_angle_alpha	90.001462
_cell_angle_beta	95.948825
_cell_angle_gamma	89.999587
loop_
_atom_site_label
_atom_site_type_symbol
_atom_site_fract_x
_atom_site_fract_y
_atom_site_fract_z
O1	O	-1.666480	0.121806	0.125662
O2	O	-1.300875	0.121808	0.137623
O3	O	-1.493476	0.121797	0.001496
O4	O	-1.473878	0.121818	0.261789
O5	O	-1.493474	-0.121802	0.001499
O6	O	-1.300872	-0.121791	0.137627
O7	O	-1.666478	-0.121793	0.125665
Cu8	Cu	-1.483675	-0.144034	0.131646
Cu9	Cu	-1.483678	0.144050	0.131642
O10	O	-1.473876	-0.121781	0.261793
C11	C	-1.254085	0.000009	0.136745
C12	C	-1.114670	0.000009	0.134113
N13	N	-1.483682	-0.346657	0.131649
C14	C	-0.933022	0.000015	0.049013
C15	C	-1.064017	0.000004	0.051486
C16	C	-1.034322	0.000009	0.214273
C17	C	-0.903329	0.000009	0.211799
C18	C	-0.882376	0.000025	-0.033619
C19	C	-0.962716	0.000022	-0.113779
C20	C	-1.093710	0.000011	-0.111306
C21	C	-1.144366	0.000004	-0.028674
C22	C	-1.568988	-0.423314	0.071392
C23	C	-1.568984	-0.576651	0.071382
C24	C	-1.398365	-0.576660	0.191892
C25	C	-1.398364	-0.423326	0.191898
C26	C	-1.654306	-0.346645	0.011144
C27	C	-1.739620	-0.423302	-0.049117
C28	C	-1.739616	-0.576639	-0.049128
C29	C	-1.654299	-0.653318	0.011122
C30	C	-0.713268	0.000010	0.126541
C31	C	-0.852683	0.000019	0.129167
C32	C	-1.492599	-0.000002	-0.031832
C33	C	-1.489972	-0.000001	-0.131143
N34	N	-1.483680	0.346672	0.131632
C35	C	-1.603121	-0.000003	-0.187751
C36	C	-1.600645	0.000012	-0.281064
C37	C	-1.485020	0.000018	-0.317767
C38	C	-1.371863	0.000024	-0.261153
C39	C	-1.374340	0.000020	-0.167842
C40	C	-1.366709	0.000029	-0.455643
C41	C	-1.364232	0.000031	-0.548961
C42	C	-1.593014	0.000022	-0.568865
C43	C	-1.595491	0.000018	-0.475554
C44	C	-1.482333	0.000021	-0.418946
C45	C	-1.474753	0.000021	0.295120
C46	C	-1.477380	0.000029	0.394432
H47	H	-0.775715	0.000037	-0.035641
H48	H	-1.654295	-0.778176	0.011102
O49	O	-1.271593	0.000183	-0.026154
C50	C	-1.307222	0.126366	0.019296
H51	H	-1.223065	0.168438	0.065394
H52	H	-1.387555	0.097990	0.060967
H53	H	-1.339857	0.214702	-0.031718
H54	H	-1.809073	-0.639051	-0.098200
H55	H	-1.277719	0.000038	-0.291044
O56	O	-1.315449	-0.651306	0.250296
C57	C	-1.237894	-0.739975	0.201873
H58	H	-1.287810	-0.762935	0.132210
H59	H	-1.218088	-0.847804	0.239070
H60	H	-1.145072	-0.680887	0.195183
H61	H	-1.328899	-0.360911	0.240963
H62	H	-1.697276	-0.000016	-0.157874
O63	O	-1.822639	-0.348956	-0.107605
C64	C	-1.946985	-0.386363	-0.092244
H65	H	-1.946914	-0.497707	-0.057786
H66	H	-2.008720	-0.391564	-0.159075
H67	H	-1.985870	-0.300069	-0.047451
O68	O	-1.710674	-0.000064	-0.335923
C69	C	-1.813258	-0.000047	-0.283518
H70	H	-1.781481	-0.046165	-0.214086
H71	H	-1.892539	-0.070779	-0.317442
H72	H	-1.848706	0.116814	-0.276651
O73	O	-1.707916	0.000071	-0.440046
C74	C	-1.807262	0.000033	-0.510016
H75	H	-1.771972	0.046157	-0.573615
H76	H	-1.887980	0.070749	-0.490010
H77	H	-1.842166	-0.116835	-0.523003
O78	O	-1.702822	0.000100	-0.623978
C79	C	-1.675848	0.000082	-0.714208
H80	H	-1.577202	0.046202	-0.718394
H81	H	-1.747963	0.070813	-0.756021
H82	H	-1.680569	-0.116780	-0.741170
O83	O	-1.251806	0.000124	-0.584469
C84	C	-1.152461	0.000110	-0.514499
H85	H	-1.187763	0.046212	-0.450897
H86	H	-1.071761	0.070859	-0.534500
H87	H	-1.117526	-0.116748	-0.501521
O88	O	-1.256870	-0.000165	-0.400563
C89	C	-1.251444	-0.126349	-0.346013
H90	H	-1.351132	-0.168408	-0.340678
H91	H	-1.204770	-0.097980	-0.276183
H92	H	-1.194043	-0.214692	-0.377067
O93	O	-1.083734	0.000084	0.294460
C94	C	-1.216579	0.000051	0.279455
H95	H	-1.247225	0.046158	0.209840
H96	H	-1.256881	0.070787	0.332371
H97	H	-1.253051	-0.116813	0.284020
H98	H	-1.282203	0.000021	-0.121752
H99	H	-0.921463	0.000040	-0.181056
H100	H	-0.837915	0.000007	0.277067
O101	O	-1.171574	0.000066	-0.189252
C102	C	-1.098777	0.000036	-0.262711
H103	H	-1.001050	0.046158	-0.240610
H104	H	-1.147009	0.070758	-0.318920
H105	H	-1.089405	-0.116830	-0.288002
H106	H	-1.654319	-0.221790	0.011149
