data_functionalizedCrystal
_audit_creation_method	'MofGen! by Chris Wilmer'
_symmetry_space_group_name_H-M	'P1'
_symmetry_Int_Tables_number	1
_symmetry_cell_setting	triclinic
loop_
_symmetry_equiv_pos_as_xyz
  x,y,z
_cell_length_a	29.839131
_cell_length_b	29.839135
_cell_length_c	29.839126
_cell_angle_alpha	90.023409
_cell_angle_beta	89.975848
_cell_angle_gamma	89.956753
loop_
_atom_site_label
_atom_site_type_symbol
_atom_site_fract_x
_atom_site_fract_y
_atom_site_fract_z
Zn1	Zn	-0.178866	-0.686754	-0.254050
Zn2	Zn	0.321134	-0.186754	0.245950
Zn3	Zn	-0.253986	-0.686676	-0.178920
Zn4	Zn	0.246014	-0.186676	0.321080
Zn5	Zn	-0.178874	-0.611626	-0.178928
Zn6	Zn	0.321126	-0.111626	0.321072
Zn7	Zn	-0.253972	-0.611584	-0.254017
Zn8	Zn	0.246028	-0.111584	0.245983
O9	O	-0.216424	-0.649160	-0.216479
O10	O	0.283576	-0.149160	0.283521
O11	O	-0.188834	-0.749610	-0.244095
O12	O	0.311166	-0.249610	0.255905
O13	O	-0.244032	-0.676705	-0.116054
O14	O	0.255968	-0.176705	0.383946
O15	O	-0.116005	-0.621642	-0.188911
O16	O	0.383995	-0.121642	0.311089
O17	O	-0.244024	-0.749553	-0.188897
O18	O	0.255976	-0.249553	0.311103
O19	O	-0.116000	-0.676838	-0.244103
O20	O	0.384000	-0.176838	0.255897
O21	O	-0.188847	-0.621567	-0.116060
O22	O	0.311153	-0.121567	0.383940
O23	O	-0.188833	-0.548754	-0.188878
O24	O	0.311167	-0.048754	0.311122
O25	O	-0.244000	-0.621570	-0.316888
O26	O	0.256000	-0.121570	0.183112
O27	O	-0.244007	-0.548723	-0.244045
O28	O	0.255993	-0.048723	0.255955
O29	O	-0.188820	-0.676797	-0.316913
O30	O	0.311180	-0.176797	0.183087
O31	O	-0.316852	-0.676664	-0.188865
O32	O	0.183148	-0.176664	0.311135
O33	O	-0.316841	-0.621495	-0.244038
O34	O	0.183159	-0.121495	0.255962
C35	C	-0.216420	-0.532437	-0.216459
C36	C	0.283580	-0.032437	0.283541
C37	C	-0.216428	-0.482503	-0.216461
C38	C	0.283572	0.017497	0.283539
C39	C	-0.187724	-0.172886	-0.245261
C40	C	0.312276	0.327114	0.254739
C41	C	-0.187725	0.014787	-0.245272
C42	C	0.312275	0.514787	0.254728
O43	O	-0.163313	0.039029	-0.269738
O44	O	0.336687	0.539029	0.230262
N45	N	-0.216416	0.038282	-0.216492
N46	N	0.283584	0.538282	0.283508
C47	C	-0.245108	0.014856	-0.187705
C48	C	0.254892	0.514856	0.312295
O49	O	-0.269508	0.039147	-0.163223
O50	O	0.230492	0.539147	0.336777
C51	C	-0.245104	-0.172816	-0.187691
C52	C	0.254896	0.327184	0.312309
C53	C	-0.216414	-0.196309	-0.216476
C54	C	0.283586	0.303691	0.283524
C55	C	-0.159036	-0.196379	-0.274043
C56	C	0.340964	0.303621	0.225957
C57	C	-0.159038	-0.243295	-0.274042
C58	C	0.340962	0.256705	0.225958
C59	C	-0.187728	-0.266717	-0.245257
C60	C	0.312272	0.233283	0.254743
C61	C	-0.216416	-0.243224	-0.216475
C62	C	0.283584	0.256776	0.283525
C63	C	-0.273793	-0.196241	-0.158902
C64	C	0.226207	0.303759	0.341098
C65	C	-0.273788	-0.243162	-0.158900
C66	C	0.226212	0.256838	0.341100
C67	C	-0.245098	-0.266655	-0.187685
C68	C	0.254902	0.233345	0.312315
C69	C	-0.245108	-0.313562	-0.187689
C70	C	0.254892	0.186438	0.312311
N71	N	-0.216416	-0.337058	-0.216469
N72	N	0.283584	0.162942	0.283531
C73	C	-0.187726	-0.313635	-0.245254
C74	C	0.312274	0.186365	0.254746
C75	C	-0.245108	0.113387	-0.187715
C76	C	0.254892	0.613387	0.312285
C77	C	-0.245109	0.160305	-0.187719
C78	C	0.254891	0.660305	0.312281
C79	C	-0.187726	0.160232	-0.245286
C80	C	0.312274	0.660232	0.254714
C81	C	-0.187727	0.113313	-0.245284
C82	C	0.312273	0.613313	0.254716
C83	C	-0.216417	0.089892	-0.216495
C84	C	0.283583	0.589892	0.283505
C85	C	-0.187733	-0.412161	-0.245248
C86	C	0.312267	0.087839	0.254752
C87	C	-0.187738	-0.459081	-0.245246
C88	C	0.312262	0.040919	0.254754
C89	C	-0.245120	-0.459003	-0.187677
C90	C	0.254880	0.040997	0.312323
C91	C	-0.245116	-0.412088	-0.187681
C92	C	0.254884	0.087912	0.312319
C93	C	-0.216419	-0.388668	-0.216468
C94	C	0.283581	0.111332	0.283532
O95	O	-0.269504	-0.337833	-0.163233
O96	O	0.230496	0.162167	0.336767
O97	O	-0.163323	-0.337934	-0.269725
O98	O	0.336677	0.162066	0.230275
C99	C	-0.187722	-0.125971	-0.245262
C100	C	0.312278	0.374029	0.254738
C101	C	-0.216411	-0.102478	-0.216480
C102	C	0.283589	0.397522	0.283520
C103	C	-0.245100	-0.125900	-0.187695
C104	C	0.254900	0.374100	0.312305
C105	C	-0.216412	-0.055560	-0.216483
C106	C	0.283588	0.444440	0.283517
C107	C	-0.187722	-0.032138	-0.245268
C108	C	0.312278	0.467862	0.254732
C109	C	-0.159031	-0.055633	-0.274048
C110	C	0.340969	0.444367	0.225952
C111	C	-0.159033	-0.102549	-0.274046
C112	C	0.340967	0.397451	0.225954
C113	C	-0.273792	-0.102405	-0.158915
C114	C	0.226208	0.397595	0.341085
C115	C	-0.273788	-0.055489	-0.158919
C116	C	0.226212	0.444511	0.341081
C117	C	-0.245098	-0.032067	-0.187704
C118	C	0.254902	0.467933	0.312296
C119	C	-0.333147	-0.649079	-0.216457
C120	C	0.166853	-0.149079	0.283543
C121	C	-0.383081	-0.649085	-0.216462
C122	C	0.116919	-0.149085	0.283538
C123	C	-0.692718	-0.677939	-0.187792
C124	C	-0.192718	-0.177939	0.312208
C125	C	-0.880391	-0.677994	-0.187810
C126	C	-0.380391	-0.177994	0.312190
O127	O	-0.904649	-0.702462	-0.163416
O128	O	-0.404649	-0.202462	0.336584
N129	N	-0.903866	-0.649253	-0.216513
N130	N	-0.403866	-0.149253	0.283487
C131	C	-0.880421	-0.620498	-0.245216
C132	C	-0.380421	-0.120498	0.254784
O133	O	-0.904695	-0.596056	-0.269633
O134	O	-0.404695	-0.096056	0.230367
C135	C	-0.692749	-0.620445	-0.245200
C136	C	-0.192749	-0.120445	0.254800
C137	C	-0.669276	-0.649185	-0.216492
C138	C	-0.169276	-0.149185	0.283508
C139	C	-0.669244	-0.706677	-0.159087
C140	C	-0.169244	-0.206677	0.340913
C141	C	-0.622329	-0.706661	-0.159081
C142	C	-0.122329	-0.206661	0.340919
C143	C	-0.598887	-0.677907	-0.187781
C144	C	-0.098887	-0.177907	0.312219
C145	C	-0.622360	-0.649169	-0.216486
C146	C	-0.122360	-0.149169	0.283514
C147	C	-0.669304	-0.591693	-0.273905
C148	C	-0.169304	-0.091693	0.226095
C149	C	-0.622383	-0.591683	-0.273899
C150	C	-0.122383	-0.091683	0.226101
C151	C	-0.598910	-0.620423	-0.245191
C152	C	-0.098910	-0.120423	0.254809
C153	C	-0.552003	-0.620399	-0.245180
C154	C	-0.052003	-0.120399	0.254820
N155	N	-0.528527	-0.649141	-0.216477
N156	N	-0.028527	-0.149141	0.283523
C157	C	-0.551969	-0.677895	-0.187777
C158	C	-0.051969	-0.177895	0.312223
C159	C	-0.978952	-0.620527	-0.245221
C160	C	-0.478952	-0.120527	0.254779
C161	C	-1.025869	-0.620540	-0.245225
C162	C	-0.525869	-0.120540	0.254775
C163	C	-1.025836	-0.678037	-0.187819
C164	C	-0.525836	-0.178037	0.312181
C165	C	-0.978917	-0.678022	-0.187814
C166	C	-0.478917	-0.178022	0.312186
C167	C	-0.955476	-0.649268	-0.216518
C168	C	-0.455476	-0.149268	0.283482
C169	C	-0.453443	-0.677859	-0.187767
C170	C	0.046557	-0.177859	0.312233
C171	C	-0.406524	-0.677839	-0.187762
C172	C	0.093476	-0.177839	0.312238
C173	C	-0.406561	-0.620344	-0.245169
C174	C	0.093439	-0.120344	0.254831
C175	C	-0.453477	-0.620362	-0.245173
C176	C	0.046523	-0.120362	0.254827
C177	C	-0.476917	-0.649123	-0.216470
C178	C	0.023083	-0.149123	0.283530
O179	O	-0.527715	-0.595948	-0.269564
O180	O	-0.027715	-0.095948	0.230436
O181	O	-0.527687	-0.702340	-0.163371
O182	O	-0.027687	-0.202340	0.336629
C183	C	-0.739633	-0.677955	-0.187798
C184	C	-0.239633	-0.177955	0.312202
C185	C	-0.763106	-0.649217	-0.216504
C186	C	-0.263106	-0.149217	0.283496
C187	C	-0.739664	-0.620463	-0.245203
C188	C	-0.239664	-0.120463	0.254797
C189	C	-0.810024	-0.649229	-0.216507
C190	C	-0.310024	-0.149229	0.283493
C191	C	-0.833466	-0.677983	-0.187807
C192	C	-0.333466	-0.177983	0.312193
C193	C	-0.809991	-0.706725	-0.159104
C194	C	-0.309991	-0.206725	0.340896
C195	C	-0.763075	-0.706709	-0.159098
C196	C	-0.263075	-0.206709	0.340902
C197	C	-0.763140	-0.591722	-0.273906
C198	C	-0.263140	-0.091722	0.226094
C199	C	-0.810056	-0.591740	-0.273910
C200	C	-0.310056	-0.091740	0.226090
C201	C	-0.833498	-0.620493	-0.245210
C202	C	-0.333498	-0.120493	0.254790
C203	C	-0.099246	-0.649254	-0.216511
C204	C	0.400754	-0.149254	0.283489
C205	C	-0.049312	-0.649294	-0.216525
C206	C	0.450688	-0.149294	0.283475
C207	C	-0.216407	-0.649188	-0.333657
C208	C	0.283593	-0.149188	0.166343
C209	C	-0.216400	-0.649200	-0.383592
C210	C	0.283600	-0.149200	0.116408
C211	C	-0.216427	0.233662	-0.216498
C212	C	0.283573	0.733662	0.283502
C213	C	-0.216420	0.183727	-0.216503
C214	C	0.283580	0.683727	0.283497
C215	C	-0.187620	-0.620498	-0.693241
C216	C	0.312380	-0.120498	-0.193241
C217	C	-0.187589	-0.620511	-0.880914
C218	C	0.312411	-0.120511	-0.380914
O219	O	-0.163164	-0.596085	-0.905184
O220	O	0.336836	-0.096085	-0.405184
N221	N	-0.216316	-0.649221	-0.904377
N222	N	0.283684	-0.149221	-0.404377
C223	C	-0.245054	-0.677928	-0.880919
C224	C	0.254946	-0.177928	-0.380919
O225	O	-0.269491	-0.702345	-0.905182
O226	O	0.230509	-0.202345	-0.405182
C227	C	-0.245087	-0.677913	-0.693246
C228	C	0.254913	-0.177913	-0.193246
C229	C	-0.216356	-0.649204	-0.669786
C230	C	0.283644	-0.149204	-0.169786
C231	C	-0.158891	-0.591791	-0.669781
C232	C	0.341109	-0.091791	-0.169781
C233	C	-0.158897	-0.591790	-0.622865
C234	C	0.341103	-0.091790	-0.122865
C235	C	-0.187633	-0.620496	-0.599410
C236	C	0.312367	-0.120496	-0.099410
C237	C	-0.216362	-0.649203	-0.622871
C238	C	0.283638	-0.149203	-0.122871
C239	C	-0.273828	-0.706617	-0.669789
C240	C	0.226172	-0.206617	-0.169789
C241	C	-0.273834	-0.706610	-0.622868
C242	C	0.226166	-0.206610	-0.122868
C243	C	-0.245103	-0.677901	-0.599408
C244	C	0.254897	-0.177901	-0.099408
C245	C	-0.245104	-0.677907	-0.552500
C246	C	0.254896	-0.177907	-0.052500
N247	N	-0.216377	-0.649197	-0.529037
N248	N	0.283623	-0.149197	-0.029037
C249	C	-0.187642	-0.620491	-0.552492
C250	C	0.312358	-0.120491	-0.052492
C251	C	-0.245034	-0.677935	-0.979449
C252	C	0.254966	-0.177935	-0.479449
C253	C	-0.245025	-0.677939	-1.026367
C254	C	0.254975	-0.177939	-0.526367
C255	C	-0.187561	-0.620521	-1.026360
C256	C	0.312439	-0.120521	-0.526360
C257	C	-0.187567	-0.620519	-0.979441
C258	C	0.312433	-0.120519	-0.479441
C259	C	-0.216307	-0.649224	-0.955987
C260	C	0.283693	-0.149224	-0.455987
C261	C	-0.187657	-0.620491	-0.453966
C262	C	0.312343	-0.120491	0.046034
C263	C	-0.187664	-0.620494	-0.407047
C264	C	0.312336	-0.120494	0.092953
C265	C	-0.245131	-0.677910	-0.407059
C266	C	0.254869	-0.177910	0.092941
C267	C	-0.245122	-0.677909	-0.453974
C268	C	0.254878	-0.177909	0.046026
C269	C	-0.216383	-0.649196	-0.477427
C270	C	0.283617	-0.149196	0.022573
O271	O	-0.269519	-0.702316	-0.528201
O272	O	0.230481	-0.202316	-0.028201
O273	O	-0.163216	-0.596071	-0.528221
O274	O	0.336784	-0.096071	-0.028221
C275	C	-0.187614	-0.620499	-0.740157
C276	C	0.312386	-0.120499	-0.240157
C277	C	-0.216343	-0.649206	-0.763617
C278	C	0.283657	-0.149206	-0.263617
C279	C	-0.245078	-0.677912	-0.740162
C280	C	0.254922	-0.177912	-0.240162
C281	C	-0.216334	-0.649211	-0.810535
C282	C	0.283666	-0.149211	-0.310535
C283	C	-0.187599	-0.620505	-0.833990
C284	C	0.312401	-0.120505	-0.333990
C285	C	-0.158872	-0.591795	-0.810527
C286	C	0.341128	-0.091795	-0.310527
C287	C	-0.158878	-0.591793	-0.763612
C288	C	0.341122	-0.091793	-0.263612
C289	C	-0.273805	-0.706622	-0.763625
C290	C	0.226195	-0.206622	-0.263625
C291	C	-0.273796	-0.706621	-0.810540
C292	C	0.226204	-0.206621	-0.310540
C293	C	-0.245060	-0.677915	-0.833995
C294	C	0.254940	-0.177915	-0.333995
C295	C	-0.216409	-0.649158	-0.099756
C296	C	0.283591	-0.149158	0.400244
C297	C	-0.216290	-0.649233	-0.049822
C298	C	0.283710	-0.149233	0.450178
H299	H	-0.135672	-0.036554	-0.297486
H300	H	0.364328	0.463446	0.202514
H301	H	-0.164364	0.094188	-0.268722
H302	H	0.335636	0.594188	0.231278
H303	H	-0.268525	-0.701283	-0.387953
H304	H	0.231475	-0.201283	0.112047
H305	H	-0.135473	-0.568423	-0.829632
H306	H	0.364527	-0.068423	-0.329632
Cl307	Cl	-0.839470	-0.742871	-0.123024
Cl308	Cl	-0.339470	-0.242871	0.376976
Cl309	Cl	-0.733573	-0.742843	-0.123008
Cl310	Cl	-0.233573	-0.242843	0.376992
H311	H	-0.268477	0.179429	-0.164284
H312	H	0.231523	0.679429	0.335716
H313	H	-0.268472	0.094322	-0.164270
H314	H	0.231528	0.594322	0.335730
Cl315	Cl	-0.281197	-0.382553	-0.151507
Cl316	Cl	0.218803	0.117447	0.348493
H317	H	-0.744057	-0.568307	-0.297278
H318	H	-0.244057	-0.068307	0.202722
Cl319	Cl	-0.309858	-0.025961	-0.122727
Cl320	Cl	0.190142	0.474039	0.377273
Cl321	Cl	-0.151656	-0.382726	-0.281439
Cl322	Cl	0.348344	0.117274	0.218561
Cl323	Cl	-0.281185	-0.488457	-0.151493
Cl324	Cl	0.218815	0.011543	0.348507
Cl325	Cl	-0.151447	-0.584426	-0.949953
Cl326	Cl	0.348553	-0.084426	-0.449953
Cl327	Cl	-0.377017	-0.713972	-0.151670
Cl328	Cl	0.122983	-0.213972	0.348330
Cl329	Cl	-0.151437	-0.584433	-1.055854
Cl330	Cl	0.348563	-0.084433	-0.555854
H331	H	-0.164265	-0.597116	-0.387948
H332	H	0.335735	-0.097116	0.112052
Cl333	Cl	-0.151658	0.189686	-0.281470
Cl334	Cl	0.348342	0.689686	0.218530
H335	H	-0.829164	-0.568332	-0.297287
H336	H	-0.329164	-0.068332	0.202713
H337	H	-0.135675	-0.262419	-0.297481
H338	H	0.364325	0.237581	0.202519
Cl339	Cl	-0.592826	-0.742800	-0.122995
Cl340	Cl	-0.092826	-0.242800	0.377005
H341	H	-0.959808	-0.701424	-0.164437
H342	H	-0.459808	-0.201424	0.335563
Cl343	Cl	-0.151525	-0.584398	-0.483443
Cl344	Cl	0.348475	-0.084398	0.016557
Cl345	Cl	-0.122963	-0.132076	-0.310235
Cl346	Cl	0.377037	0.367924	0.189765
H347	H	-1.044978	-0.597133	-0.268598
H348	H	-0.544978	-0.097133	0.231402
Cl349	Cl	-1.055314	-0.714184	-0.151739
Cl350	Cl	-0.555314	-0.214184	0.348261
H351	H	-0.603300	-0.568269	-0.297275
H352	H	-0.103300	-0.068269	0.202725
H353	H	-0.135503	-0.568410	-0.603768
H354	H	0.364497	-0.068410	-0.103768
H355	H	-0.387467	-0.596931	-0.268535
H356	H	0.112533	-0.096931	0.231465
Cl357	Cl	-0.482987	-0.584222	-0.281254
Cl358	Cl	0.017013	-0.084222	0.218746
Cl359	Cl	-0.309858	-0.131843	-0.122721
Cl360	Cl	0.190142	0.368157	0.377279
H361	H	-0.135671	-0.177314	-0.297483
H362	H	0.364329	0.322686	0.202517
Cl363	Cl	-0.482903	-0.714015	-0.151682
Cl364	Cl	0.017097	-0.214015	0.348318
Cl365	Cl	-0.309968	-0.742698	-0.593385
Cl366	Cl	0.190032	-0.242698	-0.093385
H367	H	-0.959869	-0.597112	-0.268596
H368	H	-0.459869	-0.097112	0.231404
H369	H	-0.688326	-0.730094	-0.135716
H370	H	-0.188326	-0.230094	0.364284
Cl371	Cl	-0.309853	-0.166718	-0.122703
Cl372	Cl	0.190147	0.333282	0.377297
Cl373	Cl	-0.281166	-0.714027	-0.949971
Cl374	Cl	0.218834	-0.214027	-0.449971
Cl375	Cl	-0.309919	-0.742717	-0.840027
Cl376	Cl	0.190081	-0.242717	-0.340027
H377	H	-0.135491	-0.568413	-0.688873
H378	H	0.364509	-0.068413	-0.188873
Cl379	Cl	-0.698802	-0.555565	-0.310003
Cl380	Cl	-0.198802	-0.055565	0.189997
H381	H	-0.268417	-0.701322	-1.045465
H382	H	0.231583	-0.201322	-0.545465
H383	H	-0.297225	-0.729994	-0.688882
H384	H	0.202775	-0.229994	-0.188882
Cl385	Cl	-0.281234	-0.714008	-0.483468
Cl386	Cl	0.218766	-0.214008	0.016532
H387	H	-0.297207	-0.729996	-0.744532
H388	H	0.202793	-0.229996	-0.244532
Cl389	Cl	-0.122757	-0.555700	-0.734126
Cl390	Cl	0.377243	-0.055700	-0.234126
Cl391	Cl	-0.151669	-0.488612	-0.281437
Cl392	Cl	0.348331	0.011388	0.218563
Cl393	Cl	-0.309858	-0.272603	-0.122707
Cl394	Cl	0.190142	0.227397	0.377293
