data_functionalizedCrystal
_audit_creation_method	'MofGen! by Chris Wilmer'
_symmetry_space_group_name_H-M	'P1'
_symmetry_Int_Tables_number	1
_symmetry_cell_setting	triclinic
loop_
_symmetry_equiv_pos_as_xyz
  x,y,z
_cell_length_a	15.944551
_cell_length_b	23.532407
_cell_length_c	14.421503
_cell_angle_alpha	89.997762
_cell_angle_beta	90.003340
_cell_angle_gamma	83.173708
loop_
_atom_site_label
_atom_site_type_symbol
_atom_site_fract_x
_atom_site_fract_y
_atom_site_fract_z
O1	O	0.101953	0.755658	-0.076998
O2	O	0.116706	0.589852	-0.077025
O3	O	-0.012983	0.677283	-0.077003
O4	O	0.231642	0.668227	-0.077021
O5	O	-0.012964	0.677268	0.077221
O6	O	0.116726	0.589837	0.077198
O7	O	0.101972	0.755643	0.077225
Cu8	Cu	0.109351	0.672739	0.091294
Cu9	Cu	0.109328	0.672756	-0.091094
O10	O	0.231662	0.668213	0.077203
C11	C	-0.044265	0.676899	0.000109
C12	C	-0.137501	0.675772	0.000110
C13	C	0.116340	0.568627	0.000083
C14	C	0.115211	0.505406	0.000073
C15	C	-0.351879	0.618885	0.000087
C16	C	-0.413109	0.645294	0.076133
C17	C	-0.308210	0.673733	0.000102
C18	C	-0.413111	0.645322	-0.075919
C19	C	-0.473106	0.671760	0.000091
C20	C	-0.368212	0.700158	0.076211
C21	C	-0.368208	0.700178	-0.075910
C22	C	-0.429421	0.726627	0.000155
C23	C	-0.213217	0.674869	0.000109
C24	C	-0.568097	0.670629	0.000090
C25	C	0.184874	0.106572	0.000109
C26	C	0.183824	0.047168	0.000115
O27	O	0.248403	0.010674	0.000144
N28	N	0.106724	0.024243	0.000119
C29	C	0.030668	0.060726	0.000127
O30	O	-0.035009	0.035772	0.000132
C31	C	0.031718	0.120129	0.000128
C32	C	0.108823	0.143051	0.000114
C33	C	0.261973	0.129494	0.000097
C34	C	0.263022	0.188894	0.000089
C35	C	0.186971	0.225373	0.000094
C36	C	0.109872	0.202451	0.000107
C37	C	-0.044337	0.156611	0.000143
C38	C	-0.043281	0.216018	0.000144
C39	C	0.033825	0.238939	0.000131
C40	C	0.034871	0.298329	0.000105
N41	N	0.111971	0.321254	0.000100
C42	C	0.188022	0.284776	0.000095
C43	C	0.028468	-0.064025	0.000127
C44	C	0.027417	-0.123427	0.000119
C45	C	0.180574	-0.136981	0.000109
C46	C	0.181624	-0.077578	0.000110
C47	C	0.105569	-0.041100	0.000123
C48	C	0.190219	0.409521	0.000079
C49	C	0.191261	0.468927	0.000067
C50	C	0.038104	0.482476	0.000083
C51	C	0.037062	0.423075	0.000089
C52	C	0.113126	0.386599	0.000090
O53	O	-0.029673	0.334859	0.000080
O54	O	0.253687	0.309738	0.000103
C55	C	0.262943	0.668596	0.000089
C56	C	0.356179	0.669723	0.000082
C57	C	0.102338	0.776868	0.000115
C58	C	0.103468	0.840090	0.000119
N59	N	0.109366	0.672731	0.219575
N60	N	0.109306	0.672769	-0.219375
C61	C	0.169308	0.632296	0.469218
C62	C	0.185182	0.683757	0.531028
C63	C	0.109346	0.672745	0.408736
C64	C	0.093492	0.621298	0.531020
C65	C	0.109328	0.672754	0.591458
C66	C	0.125257	0.724232	0.469185
C67	C	0.033535	0.661739	0.469172
C68	C	0.049376	0.713237	0.530954
C69	C	0.109358	0.672739	0.303475
C70	C	0.109315	0.672766	0.696717
H71	H	-0.318187	0.573358	0.000156
O72	O	-0.011119	0.754046	0.563254
C73	C	-0.010909	0.753305	0.661012
H74	H	0.018157	0.709479	0.686471
H75	H	0.027797	0.787540	0.688010
C76	C	-0.137929	0.819279	0.665671
C77	C	-0.102235	0.765449	0.696939
H78	H	-0.194262	0.826773	0.687834
H79	H	-0.138069	0.819781	0.599809
H80	H	-0.105665	0.847802	0.688172
H81	H	-0.134493	0.736927	0.674429
H82	H	-0.102103	0.764944	0.762799
O83	O	-0.436804	0.617522	0.152754
C84	C	-0.396905	0.560744	0.152489
H85	H	-0.378556	0.547533	0.078489
H86	H	-0.337798	0.557756	0.197554
C87	C	-0.480490	0.536828	0.282172
C88	C	-0.457960	0.520601	0.191283
H89	H	-0.518148	0.512066	0.306107
H90	H	-0.507368	0.575081	0.282354
H91	H	-0.431227	0.534338	0.319715
H92	H	-0.507220	0.523098	0.153740
H93	H	-0.431091	0.482347	0.191096
O94	O	-0.469567	0.780952	0.000143
C95	C	-0.557672	0.779313	-0.000606
H96	H	-0.572118	0.736626	-0.030219
H97	H	-0.583098	0.784272	0.073199
C98	C	-0.582309	0.880919	-0.024753
C99	C	-0.600052	0.828491	-0.061131
H100	H	-0.608452	0.911255	-0.062083
H101	H	-0.522951	0.882024	-0.024244
H102	H	-0.603498	0.885043	0.036751
H103	H	-0.578854	0.824364	-0.122628
H104	H	-0.659407	0.827386	-0.061651
H105	H	-0.033470	-0.034327	0.000129
O106	O	-0.436736	0.617569	-0.152591
C107	C	-0.396863	0.560784	-0.152296
H108	H	-0.337436	0.558050	-0.107779
H109	H	-0.441862	0.531244	-0.122623
C110	C	-0.445787	0.545709	-0.306868
C111	C	-0.372793	0.542352	-0.252198
H112	H	-0.430943	0.534337	-0.368492
H113	H	-0.472653	0.583965	-0.307066
H114	H	-0.483279	0.521092	-0.282130
H115	H	-0.335308	0.566973	-0.276930
H116	H	-0.345920	0.504099	-0.252007
H117	H	0.138736	0.767753	0.442138
O118	O	-0.344446	0.727765	0.152968
C119	C	-0.256155	0.728484	0.152055
H120	H	-0.225656	0.691930	0.106983
H121	H	-0.240763	0.771009	0.122664
C122	C	-0.259160	0.766098	0.307002
C123	C	-0.221700	0.721199	0.251650
H124	H	-0.237906	0.761606	0.368436
H125	H	-0.318644	0.765616	0.307616
H126	H	-0.246330	0.801531	0.282499
H127	H	-0.234539	0.685767	0.276146
H128	H	-0.162217	0.721674	0.251041
O129	O	-0.344450	0.727755	-0.152695
C130	C	-0.367070	0.698703	-0.232718
H131	H	-0.373442	0.652271	-0.214507
H132	H	-0.429895	0.720246	-0.260458
C133	C	-0.290479	0.757619	-0.329625
C134	C	-0.298298	0.700588	-0.307259
H135	H	-0.248060	0.758783	-0.375608
H136	H	-0.275242	0.777193	-0.275713
H137	H	-0.342838	0.775565	-0.352736
H138	H	-0.245943	0.682646	-0.284138
H139	H	-0.313525	0.681011	-0.361170
O140	O	0.266239	0.491097	0.000098
C141	C	0.333135	0.446158	0.000075
H142	H	0.309936	0.405802	0.029280
H143	H	0.356559	0.437754	-0.073915
C144	C	0.434395	0.512500	0.024679
C145	C	0.405904	0.462936	0.060555
H146	H	0.479285	0.522850	0.061982
H147	H	0.389327	0.542777	0.024691
H148	H	0.453910	0.505490	-0.036979
H149	H	0.386380	0.469948	0.122207
H150	H	0.450971	0.432660	0.060555
O151	O	0.261592	0.694888	0.563608
C152	C	0.260271	0.695236	0.661363
H153	H	0.192261	0.704519	0.686574
H154	H	0.288927	0.651703	0.688467
C155	C	0.395521	0.730483	0.666510
C156	C	0.311990	0.741888	0.697475
H157	H	0.427427	0.759258	0.688788
H158	H	0.396413	0.730246	0.600651
H159	H	0.419390	0.694204	0.689100
H160	H	0.288120	0.778163	0.674876
H161	H	0.311095	0.742132	0.763332
O162	O	0.335832	0.094040	0.000250
C163	C	0.339829	0.059255	0.080106
H164	H	0.296699	0.080992	0.135946
H165	H	0.318469	0.016054	0.062046
C166	C	0.484283	0.023555	0.047717
C167	C	0.431316	0.050255	0.116304
H168	H	0.540717	0.018000	0.070044
H169	H	0.481590	0.046988	-0.006086
H170	H	0.466473	-0.012444	0.032673
H171	H	0.449120	0.086256	0.131338
H172	H	0.434014	0.026827	0.170110
O173	O	-0.042881	0.650505	0.436768
C174	C	-0.059349	0.596197	0.468238
H175	H	0.002803	0.569168	0.485617
H176	H	-0.100687	0.601402	0.532891
C177	C	-0.181790	0.599552	0.370455
C178	C	-0.105453	0.566353	0.391793
H179	H	-0.210232	0.581143	0.323304
H180	H	-0.170697	0.636141	0.349256
H181	H	-0.216228	0.603887	0.424339
H182	H	-0.071011	0.562024	0.337913
H183	H	-0.116540	0.529762	0.412982
O184	O	0.077597	0.569342	0.563311
C185	C	0.140992	0.526828	0.531873
H186	H	0.171635	0.542551	0.466790
H187	H	0.190892	0.517432	0.588192
C188	C	0.063804	0.452529	0.589304
C189	C	0.101436	0.471838	0.509364
H190	H	0.039406	0.418608	0.575423
H191	H	0.021095	0.481172	0.610488
H192	H	0.105394	0.444704	0.636229
H193	H	0.059844	0.479670	0.462444
H194	H	0.144138	0.443196	0.488171
H195	H	0.252157	0.379828	0.000083
H196	H	0.244410	-0.058920	0.000104
H197	H	-0.105216	0.245716	0.000155
H198	H	0.325809	0.207551	0.000078
H199	H	0.242498	-0.166693	0.000109
O200	O	-0.047557	-0.145594	0.000163
C201	C	-0.114450	-0.100653	0.000140
H202	H	-0.091241	-0.060297	0.029331
H203	H	-0.137891	-0.092249	-0.073848
C204	C	-0.215711	-0.166990	0.024774
C205	C	-0.187207	-0.117426	0.060635
H206	H	-0.260593	-0.177337	0.062087
H207	H	-0.170645	-0.197269	0.024786
H208	H	-0.235239	-0.159981	-0.036882
H209	H	-0.167670	-0.124438	0.122286
H210	H	-0.232271	-0.087149	0.060635
H211	H	-0.107125	0.137960	0.000154
O212	O	-0.037785	0.400740	0.000219
C213	C	-0.042976	0.366802	0.080114
H214	H	0.023357	0.352016	0.106739
H215	H	-0.080350	0.393047	0.136043
C216	C	-0.169235	0.332413	0.023172
C217	C	-0.087764	0.314248	0.055868
H218	H	-0.196866	0.299996	0.008218
H219	H	-0.165740	0.355279	-0.030654
H220	H	-0.200369	0.354284	0.069784
H221	H	-0.056628	0.292384	0.009251
H222	H	-0.091254	0.291377	0.109685
H223	H	0.220056	0.598124	0.442111
O224	O	-0.035690	0.517998	0.000132
C225	C	-0.018221	0.575342	0.000105
H226	H	0.047743	0.577622	0.029288
H227	H	-0.021567	0.592524	-0.073883
C228	C	-0.164741	0.608890	0.024758
C229	C	-0.083726	0.611691	0.060608
H230	H	-0.205149	0.631314	0.062075
H231	H	-0.176512	0.570257	0.024772
H232	H	-0.167517	0.623208	-0.036898
H233	H	-0.080947	0.597368	0.122258
H234	H	-0.071956	0.650323	0.060605
