data_functionalizedCrystal
_audit_creation_method	'MofGen! by Chris Wilmer'
_symmetry_space_group_name_H-M	'P1'
_symmetry_Int_Tables_number	1
_symmetry_cell_setting	triclinic
loop_
_symmetry_equiv_pos_as_xyz
  x,y,z
_cell_length_a	15.944493
_cell_length_b	15.944551
_cell_length_c	11.892095
_cell_angle_alpha	86.111491
_cell_angle_beta	93.897855
_cell_angle_gamma	83.486891
loop_
_atom_site_label
_atom_site_type_symbol
_atom_site_fract_x
_atom_site_fract_y
_atom_site_fract_z
O1	O	1.119924	0.102730	0.093991
O2	O	0.875368	0.116137	0.093996
O3	O	1.004324	-0.012842	0.093983
O4	O	0.990969	0.231709	0.094004
O5	O	0.993572	-0.002105	-0.094023
O6	O	0.864616	0.126874	-0.094010
O7	O	1.109172	0.113468	-0.094016
Zn8	Zn	0.985187	0.121876	-0.123863
Zn9	Zn	0.999353	0.107729	0.123844
O10	O	0.980216	0.242447	-0.094003
C11	C	0.838697	0.120958	-0.000006
C12	C	0.745449	0.119315	-0.000004
C13	C	0.509690	0.195235	0.000003
C14	C	0.453829	0.159588	-0.092702
C15	C	0.574728	0.116271	-0.000007
C16	C	0.464435	0.148983	0.092657
C17	C	0.409818	0.113336	-0.000004
C18	C	0.520092	0.080650	-0.092788
C19	C	0.530705	0.070052	0.092654
C20	C	0.474876	0.034349	-0.000074
C21	C	0.669728	0.117964	-0.000009
C22	C	0.314821	0.111637	-0.000010
C23	C	0.998393	-0.038767	-0.000020
C24	C	0.996731	-0.132013	-0.000021
C25	C	0.912825	-0.346853	-0.000003
C26	C	0.946487	-0.402584	-0.092703
C27	C	0.993724	-0.302739	-0.000012
C28	C	0.957107	-0.413154	0.092657
C29	C	0.990814	-0.467651	0.000001
C30	C	1.027404	-0.357237	-0.092788
C31	C	1.038017	-0.367805	0.092655
C32	C	1.071737	-0.423518	-0.000067
C33	C	0.995398	-0.207736	-0.000021
C34	C	0.989146	-0.562652	0.000002
C35	C	1.145843	0.108647	-0.000011
C36	C	1.239092	0.110289	-0.000005
C37	C	0.986147	0.268372	0.000003
C38	C	0.987810	0.361617	0.000011
N39	N	0.975525	0.131530	-0.292916
C40	C	1.076255	0.030839	-0.529574
C41	C	1.069507	0.037594	-0.647915
C42	C	0.955279	0.151789	-0.647942
C43	C	0.962026	0.145035	-0.529601
C44	C	1.022517	0.084558	-0.470421
C45	C	1.029268	0.077809	-0.352078
C46	C	0.915036	0.192000	-0.352106
C47	C	0.908289	0.198754	-0.470447
N48	N	1.009022	0.098068	0.292897
H49	H	0.564133	0.032253	0.171027
H50	H	0.907788	-0.418210	-0.171071
H51	H	1.076687	-0.352158	0.171027
F52	F	1.126700	-0.019584	-0.710867
H53	H	0.459407	-0.033719	-0.000133
H54	H	0.906023	0.201022	-0.696141
H55	H	0.439978	0.177872	0.171021
H56	H	0.859036	0.247991	-0.518645
F57	F	0.551903	0.042946	-0.195334
F58	F	0.825049	-0.303294	-0.000116
H59	H	0.927362	-0.437700	0.171032
H60	H	1.057105	-0.332773	-0.171244
H61	H	0.871282	0.235744	-0.303930
F62	F	1.159579	-0.466875	-0.000134
H63	H	0.420410	0.197412	-0.171071
F64	F	1.093649	0.013447	-0.289097
H65	H	0.525309	0.263259	-0.000078
F66	F	1.140640	-0.033516	-0.466590
