data_functionalizedCrystal
_audit_creation_method	'MofGen! by Chris Wilmer'
_symmetry_space_group_name_H-M	'P1'
_symmetry_Int_Tables_number	1
_symmetry_cell_setting	triclinic
loop_
_symmetry_equiv_pos_as_xyz
  x,y,z
_cell_length_a	13.930277
_cell_length_b	14.853567
_cell_length_c	14.853567
_cell_angle_alpha	83.634930
_cell_angle_beta	90.002649
_cell_angle_gamma	89.998032
loop_
_atom_site_label
_atom_site_type_symbol
_atom_site_fract_x
_atom_site_fract_y
_atom_site_fract_z
O1	O	-0.079756	1.196366	0.117699
O2	O	-0.079772	0.933906	0.131721
O3	O	-0.079767	1.072147	-0.006520
O4	O	-0.079762	1.058125	0.255940
O5	O	0.079895	1.072133	-0.006514
O6	O	0.079890	0.933892	0.131726
O7	O	0.079905	1.196352	0.117705
Zn8	Zn	0.105247	1.065120	0.124716
Zn9	Zn	-0.105114	1.065138	0.124709
O10	O	0.079900	1.058111	0.255945
C11	C	0.000057	0.900311	0.131088
C12	C	0.000051	0.800227	0.129184
C13	C	0.000070	0.387693	0.039019
C14	C	0.000073	0.366412	0.203251
C15	C	0.000070	0.460446	0.205042
C16	C	0.000066	0.518108	0.123819
C17	C	0.000065	0.481736	0.040806
C18	C	0.000061	0.496825	0.288053
C19	C	0.000057	0.590864	0.289846
C20	C	0.000060	0.648528	0.208623
C21	C	0.000060	0.612150	0.125607
C22	C	0.000056	0.669812	0.044384
C23	C	0.000063	0.633437	-0.038633
C24	C	0.000067	0.539399	-0.040417
C25	C	0.000055	0.742565	0.210407
C26	C	0.000050	0.763855	0.046172
N27	N	0.248814	1.065114	0.124721
C28	C	0.299075	1.003892	0.185915
C29	C	0.299058	1.126340	0.063523
C30	C	0.399553	1.126350	0.063521
C31	C	0.449814	1.065128	0.124715
C32	C	0.399580	1.003898	0.185912
C33	C	0.449796	1.187573	0.002318
C34	C	0.550297	1.187584	0.002312
C35	C	0.600560	1.126366	0.063512
C36	C	0.550319	1.065134	0.124712
C37	C	0.600580	1.003912	0.185907
C38	C	0.550341	0.942684	0.247113
C39	C	0.449842	0.942680	0.247112
C40	C	0.701059	1.126370	0.063512
C41	C	0.701085	1.003918	0.185904
N42	N	0.751320	1.065148	0.124707
C43	C	0.000061	1.071504	-0.040106
C44	C	0.000053	1.069601	-0.140189
C45	C	0.000075	1.229947	0.118337
C46	C	0.000075	1.330031	0.120241
C47	C	0.000066	0.979435	-0.552723
C48	C	0.000076	1.143668	-0.574004
C49	C	0.000070	1.145458	-0.479971
C50	C	0.000064	1.064235	-0.422309
C51	C	0.000063	0.981223	-0.458680
C52	C	0.000080	1.228469	-0.443591
C53	C	0.000076	1.230262	-0.349552
C54	C	0.000063	1.149039	-0.291889
C55	C	0.000061	1.066023	-0.328266
C56	C	0.000055	0.984800	-0.270604
C57	C	0.000047	0.901783	-0.306979
C58	C	0.000050	0.899999	-0.401017
C59	C	0.000059	1.150823	-0.197851
C60	C	0.000052	0.986588	-0.176561
C61	C	0.000070	1.058754	0.289531
C62	C	0.000072	1.060657	0.389615
H63	H	0.000050	0.810798	-0.019971
H64	H	0.258132	1.176181	0.013696
H65	H	0.000043	0.920445	-0.129618
H66	H	0.000044	0.832411	-0.430643
H67	H	0.000068	0.319459	0.269379
H68	H	0.000051	0.620472	0.357443
H69	H	0.000053	0.680397	-0.104764
H70	H	0.408870	1.237413	-0.047509
H71	H	0.000054	0.449870	0.354180
H72	H	0.000096	0.509774	-0.108005
H73	H	0.000051	0.772178	0.277998
H74	H	0.000080	0.358072	-0.028572
H75	H	0.000055	0.911844	-0.582344
H76	H	0.000088	1.209795	-0.620958
H77	H	0.742002	0.954067	0.235740
H78	H	0.741959	1.176217	0.013676
H79	H	0.591196	1.237440	-0.047523
H80	H	0.591275	0.892833	0.296934
H81	H	0.000082	1.297860	-0.319944
H82	H	0.000048	0.835652	-0.260019
H83	H	0.408931	0.892829	0.296943
H84	H	0.000094	1.294596	-0.490546
H85	H	0.000072	1.218414	-0.168238
H86	H	0.258167	0.954043	0.235750
