data_functionalizedCrystal
_audit_creation_method	'MofGen! by Chris Wilmer'
_symmetry_space_group_name_H-M	'P1'
_symmetry_Int_Tables_number	1
_symmetry_cell_setting	triclinic
loop_
_symmetry_equiv_pos_as_xyz
  x,y,z
_cell_length_a	16.992694
_cell_length_b	19.188924
_cell_length_c	16.053802
_cell_angle_alpha	92.554672
_cell_angle_beta	87.249047
_cell_angle_gamma	86.905094
loop_
_atom_site_label
_atom_site_type_symbol
_atom_site_fract_x
_atom_site_fract_y
_atom_site_fract_z
O1	O	1.043192	0.145268	-0.069331
O2	O	0.814914	0.143643	-0.069355
O3	O	0.935643	0.043185	-0.069333
O4	O	0.922463	0.245725	-0.069354
O5	O	0.928998	0.048691	0.069525
O6	O	0.808269	0.149148	0.069502
O7	O	1.036547	0.150773	0.069527
Zn8	Zn	0.921353	0.150834	0.091561
Zn9	Zn	0.930108	0.143581	-0.091390
O10	O	0.915818	0.251230	0.069504
C11	C	0.782386	0.144306	0.000070
C12	C	0.695364	0.138073	0.000062
C13	C	0.931894	0.019902	0.000097
C14	C	0.930616	-0.057678	0.000099
C15	C	0.644916	0.198212	0.000056
C16	C	0.563149	0.192352	0.000068
C17	C	0.531832	0.126352	0.000080
C18	C	0.582286	0.066208	0.000088
C19	C	0.664051	0.072069	0.000082
C20	C	0.288317	0.102060	0.000105
C21	C	0.206546	0.096203	0.000108
C22	C	0.187414	0.222348	0.000090
C23	C	0.269181	0.228203	0.000079
C24	C	0.319628	0.168060	0.000091
N25	N	0.448253	0.120360	0.000090
N26	N	0.403205	0.174052	0.000088
C27	C	0.933641	-0.097112	-0.075592
C28	C	0.932429	-0.170006	-0.075599
C29	C	0.928207	-0.203463	0.000090
C30	C	0.925176	-0.164019	0.075792
C31	C	0.926381	-0.091126	0.075796
N32	N	0.968231	-0.318393	0.056429
N33	N	0.967089	-0.387639	0.056420
C34	C	0.924576	-0.423085	0.000082
N35	N	0.883259	-0.386672	-0.056259
N36	N	0.884405	-0.317420	-0.056252
C37	C	0.926900	-0.282503	0.000094
C38	C	0.926286	-0.541560	-0.075622
C39	C	0.925069	-0.614455	-0.075625
C40	C	0.917824	-0.608467	0.075768
C41	C	0.919034	-0.535573	0.075769
C42	C	0.923269	-0.502124	0.000072
C43	C	1.069075	0.150109	0.000099
C44	C	1.156097	0.156342	0.000103
C45	C	0.919567	0.274514	0.000073
C46	C	0.920846	0.352093	0.000065
N47	N	0.915383	0.155785	0.216420
N48	N	0.936084	0.138626	-0.216249
C49	C	0.966772	0.113057	0.260124
C50	C	0.962604	0.116527	0.347530
C51	C	0.907049	0.162728	0.391231
C52	C	0.855655	0.205457	0.347521
C53	C	0.859820	0.201983	0.260117
C54	C	0.888855	0.177882	0.652637
C55	C	0.884695	0.181354	0.740047
C56	C	0.991643	0.092422	0.740050
C57	C	0.995807	0.088955	0.652644
C58	C	0.944410	0.131682	0.608942
N59	N	0.902789	0.166277	0.480574
N60	N	0.948667	0.128128	0.519601
H61	H	0.522077	0.241324	0.000062
C62	C	1.047563	0.046110	0.787452
C63	C	1.125569	0.060931	0.766195
C64	C	1.177102	0.018283	0.809851
H65	H	1.039993	-0.001548	0.773171
H66	H	1.037181	0.054797	0.845775
H67	H	1.135947	0.052238	0.707885
H68	H	1.133164	0.108581	0.780478
H69	H	1.166721	0.026969	0.868173
H70	H	1.169526	-0.029373	0.795566
H71	H	1.230035	0.028337	0.795439
C72	C	0.922941	-0.048261	0.157955
C73	C	0.855983	-0.002153	0.162378
C74	C	0.852784	0.037341	0.238054
H75	H	0.968910	-0.022414	0.161189
H76	H	0.920206	-0.078597	0.203059
H77	H	0.858724	0.028180	0.117286
H78	H	0.810002	-0.027981	0.159158
H79	H	0.850049	0.007004	0.283159
H80	H	0.898756	0.063182	0.241282
H81	H	0.807350	0.068624	0.241069
C82	C	1.018277	0.070052	0.395019
C83	C	0.974289	0.026941	0.445195
C84	C	1.025552	-0.015890	0.488942
H85	H	1.049213	0.098278	0.429174
H86	H	1.051949	0.042004	0.356496
H87	H	0.940631	0.054986	0.483714
H88	H	0.943355	-0.001300	0.411061
H89	H	1.059223	-0.043937	0.450419
H90	H	1.056485	0.012342	0.523092
H91	H	0.995713	-0.045150	0.522986
H92	H	0.294673	0.281947	0.000060
H93	H	0.839453	0.218979	0.775625
H94	H	0.329382	0.053086	0.000116
H95	H	0.146331	0.271313	0.000081
C96	C	0.833016	0.224356	0.605347
C97	C	0.783491	0.265574	0.662329
C98	C	0.732047	0.308403	0.618793
H99	H	0.802019	0.196131	0.571260
H100	H	0.862715	0.253687	0.571256
H101	H	0.753794	0.236246	0.696406
H102	H	0.814466	0.293813	0.696418
H103	H	0.761746	0.337734	0.584702
H104	H	0.701055	0.280173	0.584707
H105	H	0.698443	0.336379	0.657449
H106	H	0.556781	0.012469	0.000109
H107	H	0.929730	-0.514324	-0.137259
H108	H	0.181051	0.042455	0.000117
H109	H	0.914380	-0.635707	0.137396
C110	C	0.915797	-0.492879	0.158038
C111	C	0.911862	-0.537779	0.224325
C112	C	0.908889	-0.498476	0.300126
H113	H	0.870420	-0.461535	0.161304
H114	H	0.961839	-0.467111	0.161233
H115	H	0.865825	-0.563536	0.221132
H116	H	0.957235	-0.569124	0.221087
H117	H	0.954932	-0.472708	0.303321
H118	H	0.863512	-0.467133	0.303383
H119	H	0.906227	-0.528935	0.345111
C120	C	0.795295	0.255509	0.395074
C121	C	0.745063	0.217616	0.445287
C122	C	0.689457	0.263703	0.489112
H123	H	0.765202	0.280478	0.356624
H124	H	0.821746	0.287502	0.429207
H125	H	0.718614	0.185636	0.411158
H126	H	0.775132	0.192649	0.483754
H127	H	0.715907	0.295695	0.523245
H128	H	0.659370	0.288669	0.450656
H129	H	0.655372	0.238000	0.523193
H130	H	0.934888	-0.202120	-0.137238
C131	C	0.920714	-0.200258	0.158031
C132	C	0.986238	-0.184800	0.203720
C133	C	0.982144	-0.218162	0.279489
H134	H	0.920467	-0.249327	0.147305
H135	H	0.873738	-0.184293	0.189172
H136	H	1.033202	-0.200768	0.172586
H137	H	0.986498	-0.135737	0.214468
H138	H	0.935168	-0.202198	0.310630
H139	H	0.981895	-0.267230	0.268755
H140	H	1.026596	-0.207674	0.310502
H141	H	0.817973	0.236776	0.224534
H142	H	0.670407	0.251957	0.000046
H143	H	0.705126	0.023097	0.000086
C144	C	0.938191	-0.060924	-0.157863
C145	C	0.940560	-0.111066	-0.224153
C146	C	0.944739	-0.077752	-0.299952
H147	H	0.984509	-0.035387	-0.161123
H148	H	0.893089	-0.029855	-0.161060
H149	H	0.985658	-0.142122	-0.220958
H150	H	0.894247	-0.136605	-0.220920
H151	H	0.899636	-0.046684	-0.303148
H152	H	0.991056	-0.052217	-0.303203
H153	H	0.946339	-0.111768	-0.344938
H154	H	1.012014	0.075438	0.224549
C155	C	0.928410	-0.657154	-0.157897
C156	C	0.932402	-0.612256	-0.224183
C157	C	0.935497	-0.651567	-0.299985
H158	H	0.882406	-0.682949	-0.161182
H159	H	0.973817	-0.688475	-0.161073
H160	H	0.886999	-0.580947	-0.221009
H161	H	0.978404	-0.586461	-0.220926
H162	H	0.980904	-0.682888	-0.303161
H163	H	0.889492	-0.677360	-0.303262
H164	H	0.938213	-0.621111	-0.344969
H165	H	1.041044	0.051334	0.617065
