data_functionalizedCrystal
_audit_creation_method	'MofGen! by Chris Wilmer'
_symmetry_space_group_name_H-M	'P1'
_symmetry_Int_Tables_number	1
_symmetry_cell_setting	triclinic
loop_
_symmetry_equiv_pos_as_xyz
  x,y,z
_cell_length_a	19.121063
_cell_length_b	19.121102
_cell_length_c	21.395356
_cell_angle_alpha	87.537776
_cell_angle_beta	92.411537
_cell_angle_gamma	90.126902
loop_
_atom_site_label
_atom_site_type_symbol
_atom_site_fract_x
_atom_site_fract_y
_atom_site_fract_z
Zn1	Zn	-0.324921	1.059882	-0.406899
Zn2	Zn	-0.442155	1.054780	-0.306385
Zn3	Zn	-0.319930	0.942636	-0.297490
Zn4	Zn	-0.437111	0.937607	-0.406480
O5	O	-0.381029	0.998726	-0.354313
O6	O	-0.344672	1.157311	-0.397464
O7	O	-0.425964	1.039873	-0.217527
O8	O	-0.222489	0.962429	-0.308456
O9	O	-0.430803	1.153562	-0.323617
O10	O	-0.226155	1.048569	-0.388839
O11	O	-0.336166	0.957481	-0.210992
O12	O	-0.331275	0.843863	-0.308049
O13	O	-0.422207	0.953858	-0.494214
O14	O	-0.417367	0.840169	-0.388124
O15	O	-0.339781	1.043693	-0.494522
O16	O	-0.539590	1.034997	-0.323210
O17	O	-0.535884	0.948911	-0.396749
C18	C	-0.373233	0.816578	-0.347076
C19	C	-0.369914	0.738654	-0.343996
C20	C	-0.413247	0.700137	-0.384178
C21	C	-0.410119	0.626919	-0.381287
C22	C	-0.363663	0.592220	-0.338208
C23	C	-0.320325	0.630742	-0.298024
C24	C	-0.323450	0.703959	-0.300919
C25	C	-0.351980	0.371248	-0.327386
C26	C	-0.348860	0.298026	-0.324493
C27	C	-0.438654	0.294208	-0.407756
C28	C	-0.441777	0.367426	-0.410645
C29	C	-0.398437	0.405943	-0.370463
C30	C	-0.360466	0.517379	-0.335250
C31	C	-0.401630	0.480782	-0.373425
C32	C	-0.563175	0.990874	-0.360914
C33	C	-0.641100	0.987578	-0.363761
C34	C	-0.679617	1.030886	-0.326845
C35	C	-0.752836	1.027791	-0.329527
C36	C	-0.787537	0.981384	-0.369121
C37	C	-0.749015	0.938075	-0.406041
C38	C	-0.675797	0.941174	-0.403362
C39	C	-1.008512	0.969786	-0.379126
C40	C	-1.081734	0.966689	-0.381800
C41	C	-1.085551	1.056406	-0.305286
C42	C	-1.012332	1.059498	-0.302608
C43	C	-0.973816	1.016191	-0.339531
C44	C	-0.862379	0.978218	-0.371862
C45	C	-0.898976	1.019362	-0.336793
C46	C	-0.198174	1.006629	-0.347702
C47	C	-0.120251	1.009996	-0.344884
C48	C	-0.380988	0.998783	-0.517737
C49	C	-0.380971	0.998808	-0.587379
C50	C	-0.388857	1.181585	-0.361579
C51	C	-0.392193	1.259509	-0.364675
C52	C	-0.334208	0.955918	-0.616680
C53	C	-0.334195	0.955916	-0.682114
C54	C	-0.380938	0.998817	-0.718246
C55	C	-0.427709	1.041709	-0.688938
C56	C	-0.427726	1.041704	-0.623505
C57	C	-0.389149	1.061748	-0.824637
C58	C	-0.389127	1.061754	-0.890069
C59	C	-0.380891	0.998830	-0.920066
C60	C	-0.372661	0.935899	-0.884622
C61	C	-0.372678	0.935895	-0.819188
C62	C	-0.380925	0.998826	-0.789199
C63	C	-0.334112	0.955935	-1.020318
C64	C	-0.334104	0.955932	-1.085755
C65	C	-0.427614	1.041731	-1.092577
C66	C	-0.427626	1.041728	-1.027142
C67	C	-0.380871	0.998831	-0.991017
C68	C	-0.381022	0.998712	-0.191525
C69	C	-0.380847	0.998832	-0.121882
H70	H	-0.473937	0.262841	-0.440471
H71	H	-0.282496	0.602484	-0.262951
H72	H	-0.296139	0.920986	-0.587270
C73	C	-1.119904	0.915640	-0.425363
N74	N	-1.148653	0.877193	-0.458174
C75	C	-0.398214	1.130973	-0.791647
N76	N	-0.405043	1.183111	-0.766801
H77	H	-0.870721	1.057149	-0.304558
C78	C	-0.304309	0.413606	-0.283181
N79	N	-0.268402	0.445513	-0.249881
H80	H	-0.311022	0.269777	-0.289417
H81	H	-0.465671	1.076663	-1.121995
C82	C	-0.492886	0.405590	-0.458032
N83	N	-0.531385	0.434335	-0.493721
C84	C	-0.363632	0.866672	-0.780202
N85	N	-0.356823	0.814531	-0.750838
C86	C	-0.479045	1.088935	-0.994911
N87	N	-0.517772	1.124501	-0.970634
C88	C	-0.479156	1.088903	-0.591273
N89	N	-0.517889	1.124460	-0.566996
H90	H	-0.890640	0.940432	-0.404098
C91	C	-0.633429	0.893533	-0.443973
N92	N	-0.601518	0.857649	-0.474564
C93	C	-0.457802	0.584553	-0.425479
N94	N	-0.493723	0.552642	-0.458764
C95	C	-0.275782	0.746327	-0.256714
N96	N	-0.239876	0.778238	-0.223418
H97	H	-0.651369	1.068672	-0.294600
C98	C	-0.363607	0.866677	-0.917613
N99	N	-0.356789	0.814540	-0.942465
H100	H	-0.439452	0.509037	-0.408502
C101	C	-0.282656	0.908750	-1.117985
N102	N	-0.243903	0.873214	-1.142261
C103	C	-0.795202	1.075428	-0.288912
N104	N	-0.827111	1.111310	-0.258318
C105	C	-0.282748	0.908736	-0.714352
N106	N	-0.243996	0.873202	-0.738632
H107	H	-0.296042	0.921006	-0.990903
C108	C	-0.464353	0.738299	-0.431568
N109	N	-0.502846	0.767041	-0.467265
C110	C	-0.787188	0.887025	-0.449593
N111	N	-0.815939	0.848570	-0.482395
H112	H	-0.395825	1.112996	-0.918923
C113	C	-0.974166	1.110531	-0.259035
N114	N	-0.945419	1.148961	-0.226206
H115	H	-0.465767	1.076638	-0.718361
H116	H	-0.977158	0.934523	-0.409188
C117	C	-1.127924	1.104042	-0.264677
N118	N	-1.159840	1.139925	-0.234089
H119	H	-0.322643	0.489119	-0.300175
