data_functionalizedCrystal
_audit_creation_method	'MofGen! by Chris Wilmer'
_symmetry_space_group_name_H-M	'P1'
_symmetry_Int_Tables_number	1
_symmetry_cell_setting	triclinic
loop_
_symmetry_equiv_pos_as_xyz
  x,y,z
_cell_length_a	10.654550
_cell_length_b	15.995350
_cell_length_c	9.130313
_cell_angle_alpha	90.000982
_cell_angle_beta	89.996220
_cell_angle_gamma	83.988639
loop_
_atom_site_label
_atom_site_type_symbol
_atom_site_fract_x
_atom_site_fract_y
_atom_site_fract_z
O1	O	1.666298	0.117599	-0.121912
O2	O	1.300673	0.128803	-0.121888
O3	O	1.493480	0.001371	-0.121899
O4	O	1.473491	0.245030	-0.121900
O5	O	1.493478	0.001375	0.121700
O6	O	1.300671	0.128807	0.121711
O7	O	1.666295	0.117602	0.121687
Cu8	Cu	1.483483	0.123205	0.143942
Cu9	Cu	1.483486	0.123201	-0.144142
O10	O	1.473488	0.245034	0.121698
C11	C	1.253885	0.127982	-0.000085
C12	C	1.114473	0.125521	-0.000076
C13	C	1.034008	0.200551	-0.000098
C14	C	0.903017	0.198233	-0.000123
C15	C	0.932971	0.045849	-0.000111
C16	C	1.063959	0.048168	-0.000075
C17	C	1.016713	0.288528	-0.000111
C18	C	0.885722	0.286211	-0.000137
C19	C	1.492652	-0.029827	-0.000102
C20	C	1.490175	-0.122791	-0.000110
C21	C	1.481278	-0.460591	-0.000105
C22	C	1.343964	-0.413954	-0.000642
C23	C	1.346442	-0.317249	-0.000093
C24	C	1.485691	-0.293004	-0.000108
C25	C	1.553417	-0.333687	0.138991
C26	C	1.549968	-0.430342	0.139108
C27	C	1.552807	-0.430688	-0.137910
C28	C	1.552775	-0.333743	-0.139748
C29	C	1.488192	-0.198292	-0.000106
C30	C	1.478780	-0.555303	-0.000098
C31	C	1.713084	0.118423	-0.000119
C32	C	1.852495	0.120884	-0.000137
C33	C	1.474316	0.276232	-0.000101
C34	C	1.476793	0.369197	-0.000103
N35	N	1.483490	0.123207	0.346564
N36	N	1.483488	0.123192	-0.346765
C37	C	1.568887	0.066800	0.423211
C38	C	1.568883	0.066789	0.576548
C39	C	1.398083	0.179602	0.576578
C40	C	1.398081	0.179607	0.423244
C41	C	1.667501	0.001671	0.423195
C42	C	1.667497	0.001661	0.576532
H43	H	1.129471	-0.012929	-0.000037
H44	H	0.891826	-0.017130	-0.000133
H45	H	1.328534	0.225531	0.360839
H46	H	1.045593	0.322938	0.101840
N47	N	1.271576	-0.440318	0.130759
H48	H	1.327343	-0.482340	0.190633
H49	H	1.244193	-0.389366	0.192766
H50	H	1.763822	0.016007	0.618142
H51	H	1.655720	-0.318967	0.144153
N52	N	1.686917	-0.471965	-0.139167
H53	H	1.702019	-0.506367	-0.231454
H54	H	1.747164	-0.427276	-0.135868
N55	N	1.305963	0.240429	0.659282
H56	H	1.318918	0.231865	0.768049
H57	H	1.320459	0.299921	0.632492
H58	H	1.646899	-0.062686	0.381577
H59	H	1.758418	0.022063	0.375631
H60	H	1.637779	-0.059156	0.624082
N61	N	1.063476	0.325627	-0.139419
H62	H	0.989726	0.341849	-0.206754
H63	H	1.106751	0.377125	-0.115090
N64	N	0.824750	0.321420	0.139167
H65	H	0.891633	0.340141	0.206494
H66	H	0.761599	0.371031	0.114825
H67	H	1.650782	-0.462005	0.145409
H68	H	1.292844	-0.289694	0.099796
N69	N	1.271256	-0.438928	-0.132764
H70	H	1.194046	-0.465352	-0.099558
H71	H	1.244479	-0.387419	-0.193646
N72	N	0.829846	0.330108	-0.135178
H73	H	0.849556	0.390512	-0.135236
H74	H	0.867227	0.300703	-0.225459
N75	N	1.275923	-0.280010	-0.132171
H76	H	1.317509	-0.304307	-0.224384
H77	H	1.185624	-0.293812	-0.128413
H78	H	1.500580	-0.448929	0.243098
H79	H	1.507914	-0.451490	-0.243339
N80	N	1.491131	-0.296447	0.276129
H81	H	1.419055	-0.253236	0.248469
H82	H	1.457795	-0.342501	0.335760
H83	H	1.503258	-0.306783	-0.242650
H84	H	1.654321	-0.317791	-0.148158
