data_functionalizedCrystal
_audit_creation_method	'MofGen! by Chris Wilmer'
_symmetry_space_group_name_H-M	'P1'
_symmetry_Int_Tables_number	1
_symmetry_cell_setting	triclinic
loop_
_symmetry_equiv_pos_as_xyz
  x,y,z
_cell_length_a	12.837943
_cell_length_b	18.266242
_cell_length_c	12.837942
_cell_angle_alpha	90.005279
_cell_angle_beta	94.828940
_cell_angle_gamma	90.007711
loop_
_atom_site_label
_atom_site_type_symbol
_atom_site_fract_x
_atom_site_fract_y
_atom_site_fract_z
O1	O	1.402343	0.060867	0.272143
O2	O	1.099209	0.060872	0.258699
O3	O	1.244054	0.060865	0.113854
O4	O	1.257498	0.060874	0.416988
O5	O	1.244026	-0.060897	0.113843
O6	O	1.099181	-0.060890	0.258688
O7	O	1.402315	-0.060895	0.272132
Zn8	Zn	1.250743	-0.080225	0.265408
Zn9	Zn	1.250780	0.080202	0.265423
O10	O	1.257469	-0.060888	0.416977
C11	C	1.060126	-0.000009	0.254153
C12	C	0.943711	-0.000007	0.240608
N13	N	1.250726	-0.189712	0.265399
C14	C	0.718837	-0.000013	0.403437
C15	C	0.609454	-0.000012	0.390716
C16	C	0.615562	-0.000010	0.202445
C17	C	0.724944	-0.000011	0.215166
C18	C	0.776578	-0.000011	0.315666
C19	C	0.885962	-0.000007	0.328386
C20	C	0.892067	-0.000010	0.140116
C21	C	0.782685	-0.000009	0.127395
C22	C	1.314890	-0.228024	0.201298
C23	C	1.314896	-0.304669	0.201294
C24	C	1.250750	-0.342999	0.265409
C25	C	1.186573	-0.304678	0.329513
C26	C	1.186561	-0.228034	0.329508
N27	N	1.246575	-0.463328	0.356722
N28	N	1.246593	-0.536136	0.356724
C29	C	1.250781	-0.573921	0.265427
N30	N	1.254971	-0.536147	0.174127
N31	N	1.254959	-0.463333	0.174126
C32	C	1.250755	-0.426106	0.265422
C33	C	1.314955	-0.695340	0.201317
C34	C	1.314954	-0.771986	0.201311
C35	C	1.186636	-0.771994	0.329540
C36	C	1.186632	-0.695349	0.329536
C37	C	1.250797	-0.657027	0.265427
C38	C	1.441398	-0.000013	0.276679
C39	C	1.557813	-0.000009	0.290223
C40	C	1.239499	-0.000016	0.074780
C41	C	1.225954	-0.000014	-0.041635
N42	N	1.250806	0.189689	0.265425
C43	C	1.388784	-0.000001	-0.266510
C44	C	1.376062	0.000000	-0.375892
C45	C	1.187791	-0.000005	-0.369785
C46	C	1.200513	-0.000006	-0.260402
C47	C	1.301012	-0.000005	-0.208769
C48	C	1.313732	-0.000012	-0.099384
C49	C	1.125462	-0.000012	-0.093279
C50	C	1.112741	-0.000010	-0.202661
C51	C	1.262025	-0.000006	0.456051
C52	C	1.275569	-0.000003	0.572467
H53	H	0.760878	-0.000012	0.485268
N54	N	1.491427	0.000004	-0.213744
N55	N	1.502771	0.000005	-0.116082
H56	H	1.575265	0.000010	-0.078815
H57	H	1.134403	-0.803202	0.381739
N58	N	1.380449	-0.188915	0.135793
N59	N	1.340878	-0.146165	0.067469
H60	H	1.387192	-0.118556	0.021203
N61	N	0.938707	-0.000026	0.431039
N62	N	0.999047	-0.051356	0.459127
H63	H	1.036297	-0.051374	0.531628
N64	N	1.465730	0.000009	-0.434858
N65	N	1.555450	0.000013	-0.388738
H66	H	1.618783	0.000021	-0.430382
H67	H	1.367200	-0.803180	0.149107
H68	H	1.134388	-0.664154	0.381737
N69	N	1.035788	-0.000024	-0.034312
N70	N	0.971334	-0.051354	-0.044501
H71	H	0.908002	-0.051367	-0.002856
N72	N	1.380469	-0.656178	0.135822
N73	N	1.380452	-0.587747	0.135827
H74	H	1.426720	-0.560089	0.089570
N75	N	1.416384	-0.000026	-0.046637
N76	N	1.477984	-0.051351	-0.060908
H77	H	1.550485	-0.051361	-0.023658
N78	N	0.729938	-0.000022	0.024743
N79	N	0.669576	-0.051349	-0.003371
H80	H	0.632324	-0.051357	-0.075872
N81	N	1.085134	-0.000020	-0.422521
N82	N	1.006770	-0.000033	-0.370958
H83	H	0.934266	-0.000048	-0.408202
H84	H	1.030917	-0.000008	-0.244717
H85	H	0.562446	-0.000016	0.462189
N86	N	0.951033	-0.000015	0.050441
N87	N	0.904914	-0.000015	-0.039280
H88	H	0.946558	-0.000016	-0.102613
N89	N	0.562812	0.000000	0.099794
N90	N	0.577075	0.051328	0.038192
H91	H	0.539822	0.051335	-0.034308
N92	N	1.380444	-0.343803	0.135804
N93	N	1.437723	-0.309577	0.078567
H94	H	1.484017	-0.337213	0.032314
H95	H	1.134342	-0.335890	0.381715
H96	H	1.134309	-0.196840	0.381707
