data_functionalizedCrystal
_audit_creation_method	'MofGen! by Chris Wilmer'
_symmetry_space_group_name_H-M	'P1'
_symmetry_Int_Tables_number	1
_symmetry_cell_setting	triclinic
loop_
_symmetry_equiv_pos_as_xyz
  x,y,z
_cell_length_a	17.038272
_cell_length_b	17.019234
_cell_length_c	12.996460
_cell_angle_alpha	86.112554
_cell_angle_beta	90.000198
_cell_angle_gamma	87.240293
loop_
_atom_site_label
_atom_site_type_symbol
_atom_site_fract_x
_atom_site_fract_y
_atom_site_fract_z
O1	O	1.037209	0.171290	-0.100622
O2	O	1.370543	0.504624	0.232711
O3	O	1.703876	0.837957	0.566045
O4	O	0.809581	0.168570	-0.100411
O5	O	1.142915	0.501904	0.232922
O6	O	1.476248	0.835237	0.566256
O7	O	0.929753	0.055522	-0.090368
O8	O	1.263087	0.388856	0.242966
O9	O	1.596420	0.722189	0.576299
O10	O	0.917037	0.284338	-0.110665
O11	O	1.250371	0.617672	0.222668
O12	O	1.583704	0.951005	0.556001
O13	O	0.929741	0.055515	0.080767
O14	O	1.263074	0.388848	0.414100
O15	O	1.596408	0.722181	0.747434
O16	O	0.809569	0.168563	0.070723
O17	O	1.142902	0.501896	0.404057
O18	O	1.476235	0.835229	0.737390
O19	O	1.037197	0.171283	0.070513
O20	O	1.370530	0.504616	0.403846
O21	O	1.703864	0.837949	0.737179
Cu22	Cu	0.923382	0.169922	0.086244
Cu23	Cu	1.256715	0.503255	0.419577
Cu24	Cu	1.590048	0.836589	0.752911
Cu25	Cu	0.923396	0.169931	-0.116142
Cu26	Cu	1.256730	0.503264	0.217191
Cu27	Cu	1.590063	0.836598	0.550524
O28	O	0.917025	0.284331	0.060469
O29	O	1.250358	0.617664	0.393802
O30	O	1.583691	0.950997	0.727136
C31	C	0.780449	0.166093	-0.014628
C32	C	1.113782	0.499426	0.318705
C33	C	1.447116	0.832759	0.652038
C34	C	0.693663	0.158712	-0.013986
C35	C	1.026996	0.492046	0.319348
C36	C	1.360330	0.825379	0.652681
C37	C	0.929268	0.026097	-0.002193
C38	C	1.262601	0.359430	0.331140
C39	C	1.595934	0.692763	0.664474
C40	C	0.927829	-0.061572	0.005577
C41	C	1.261162	0.271762	0.338910
C42	C	1.594496	0.605095	0.672243
C43	C	0.919622	-0.557403	0.054155
C44	C	1.252955	-0.224070	0.387488
C45	C	1.586288	0.109264	0.720822
C46	C	0.920981	-0.475030	0.046860
C47	C	1.254314	-0.141696	0.380193
C48	C	1.587647	0.191637	0.713526
C49	C	0.921673	-0.433831	-0.050076
C50	C	1.255007	-0.100497	0.283258
C51	C	1.588340	0.232836	0.616591
C52	C	0.920998	-0.475009	-0.139722
C53	C	1.254332	-0.141675	0.193612
C54	C	1.587665	0.191658	0.526945
C55	C	0.919634	-0.557380	-0.132425
C56	C	1.252967	-0.224047	0.200908
C57	C	1.586300	0.109287	0.534241
C58	C	0.925789	-0.185121	-0.076773
C59	C	1.259123	0.148212	0.256560
C60	C	1.592456	0.481546	0.589894
C61	C	0.927157	-0.102744	-0.084063
C62	C	1.260490	0.230589	0.249271
C63	C	1.593823	0.563923	0.582604
C64	C	0.927137	-0.102771	0.102520
C65	C	1.260471	0.230563	0.435853
C66	C	1.593804	0.563896	0.769186
C67	C	0.925777	-0.185144	0.109807
C68	C	1.259111	0.148189	0.443141
C69	C	1.592444	0.481523	0.776474
C70	C	0.925099	-0.226315	0.020162
C71	C	1.258432	0.107019	0.353495
C72	C	1.591765	0.440352	0.686828
C73	C	0.923065	-0.349632	-0.057535
C74	C	1.256398	-0.016299	0.275798
C75	C	1.589732	0.317035	0.609132
C76	C	0.923701	-0.310511	0.027622
C77	C	1.257034	0.022822	0.360955
C78	C	1.590368	0.356155	0.694289
C79	C	0.643486	0.226473	-0.019996
C80	C	0.976819	0.559807	0.313338
C81	C	1.310153	0.893140	0.646671
C82	C	0.561942	0.219534	-0.019366
C83	C	0.895275	0.552867	0.313967
C84	C	1.228609	0.886201	0.647301
C85	C	0.530576	0.144833	-0.012733
C86	C	0.863910	0.478166	0.320600
C87	C	1.197243	0.811500	0.653933
C88	C	0.580760	0.077067	-0.006720
C89	C	0.914093	0.410400	0.326614
C90	C	1.247426	0.743733	0.659947
C91	C	0.662302	0.084007	-0.007342
C92	C	0.995635	0.417340	0.325991
C93	C	1.328969	0.750674	0.659325
C94	C	0.284841	0.120315	-0.010531
C95	C	0.618174	0.453648	0.322803
C96	C	0.951508	0.786981	0.656136
C97	C	0.203292	0.113380	-0.009912
C98	C	0.536625	0.446713	0.323421
C99	C	0.869959	0.780046	0.656755
C100	C	0.184480	0.255848	-0.022556
C101	C	0.517813	0.589181	0.310777
C102	C	0.851147	0.922514	0.644110
C103	C	0.266025	0.262781	-0.023184
C104	C	0.599358	0.596115	0.310149
C105	C	0.932692	0.929448	0.643482
C106	C	0.316201	0.195015	-0.017165
C107	C	0.649534	0.528348	0.316168
C108	C	0.982868	0.861682	0.649501
C109	C	0.447225	0.137738	-0.012093
C110	C	0.780559	0.471071	0.321241
C111	C	1.113892	0.804405	0.654574
C112	C	0.399551	0.202111	-0.017799
C113	C	0.732884	0.535444	0.315535
C114	C	1.066217	0.868777	0.648868
C115	C	1.066329	0.173760	-0.015272
C116	C	1.399662	0.507093	0.318061
C117	C	1.732996	0.840427	0.651394
C118	C	1.153115	0.181141	-0.015922
C119	C	1.486449	0.514474	0.317411
C120	C	1.819782	0.847807	0.650745
C121	C	0.917511	0.313756	-0.027708
C122	C	1.250844	0.647090	0.305625
C123	C	1.584177	0.980423	0.638959
C124	C	0.918949	0.401425	-0.035484
C125	C	1.252283	0.734758	0.297849
C126	C	1.585616	1.068091	0.631182
N127	N	0.923377	0.169916	0.228592
N128	N	1.256710	0.503249	0.561925
N129	N	1.590044	0.836582	0.895258
N130	N	0.923407	0.169931	-0.258490
N131	N	1.256741	0.503265	0.074844
N132	N	1.590074	0.836598	0.408177
C133	C	0.923395	0.169932	0.648404
C134	C	1.256729	0.503265	0.981738
C135	C	1.590062	0.836598	1.315071
C136	C	0.923388	0.169930	0.531600
C137	C	1.256721	0.503263	0.864933
C138	C	1.590055	0.836596	1.198266
C139	C	0.923387	0.169924	0.438502
C140	C	1.256720	0.503258	0.771835
C141	C	1.590053	0.836591	1.105168
C142	C	0.923378	0.169921	0.321689
C143	C	1.256712	0.503254	0.655023
C144	C	1.590045	0.836588	0.988356
H145	H	0.919061	-0.590941	0.133090
H146	H	1.252394	-0.257608	0.466424
H147	H	1.585728	0.075725	0.799757
F148	F	0.923833	-0.305780	-0.160698
F149	F	1.257167	0.027553	0.172635
F150	F	1.590500	0.360887	0.505968
F151	F	0.338232	0.048191	-0.004125
F152	F	0.671565	0.381524	0.329208
F153	F	1.004899	0.714857	0.662542
H154	H	0.669017	0.287303	-0.025397
H155	H	1.002350	0.620636	0.307936
H156	H	1.335684	0.953970	0.641269
H157	H	0.521091	0.274713	-0.024261
H158	H	0.854424	0.608046	0.309072
H159	H	1.187757	0.941379	0.642405
F160	F	0.299400	0.342288	-0.030249
F161	F	0.632734	0.675622	0.303084
F162	F	0.966067	1.008955	0.636417
H163	H	0.425092	0.262932	-0.023193
H164	H	0.758425	0.596265	0.310140
H165	H	1.091759	0.929599	0.643473
H166	H	0.143618	0.311019	-0.027455
H167	H	0.476952	0.644352	0.305879
H168	H	0.810285	0.977685	0.639212
F169	F	0.169913	0.033869	-0.002834
F170	F	0.503246	0.367202	0.330499
F171	F	0.836580	0.700535	0.663832
H172	H	0.421678	0.076916	-0.006663
H173	H	0.755012	0.410249	0.326670
H174	H	1.088345	0.743582	0.660003
F175	F	0.547376	-0.002436	0.000346
F176	F	0.880709	0.330897	0.333679
F177	F	1.214042	0.664230	0.667013
H178	H	0.703156	0.028828	-0.002449
H179	H	1.036489	0.362162	0.330885
H180	H	1.369823	0.695495	0.664218
H181	H	0.925217	-0.218683	0.188743
H182	H	1.258551	0.114650	0.522076
H183	H	1.591884	0.447984	0.855409
F184	F	0.922959	-0.354359	0.130784
F185	F	1.256292	-0.021026	0.464118
F186	F	1.589625	0.312307	0.797451
F187	F	0.927857	-0.058948	0.197920
F188	F	1.261190	0.274385	0.531254
F189	F	1.594524	0.607719	0.864587
F190	F	0.927895	-0.058899	-0.187239
F191	F	1.261228	0.274435	0.146094
F192	F	1.594562	0.607768	0.479427
F193	F	0.921683	-0.431214	0.142267
F194	F	1.255016	-0.097880	0.475600
F195	F	1.588350	0.235453	0.808933
H196	H	0.921558	-0.441458	-0.218649
H197	H	1.254891	-0.108124	0.114685
H198	H	1.588225	0.225209	0.448018
F199	F	0.918914	-0.601198	-0.227832
F200	F	1.252248	-0.267865	0.105501
F201	F	1.585581	0.065469	0.438835
F202	F	0.925073	-0.228928	-0.172183
F203	F	1.258406	0.104406	0.161150
F204	F	1.591739	0.437739	0.494484
