data_functionalizedCrystal
_audit_creation_method	'MofGen! by Chris Wilmer'
_symmetry_space_group_name_H-M	'P1'
_symmetry_Int_Tables_number	1
_symmetry_cell_setting	triclinic
loop_
_symmetry_equiv_pos_as_xyz
  x,y,z
_cell_length_a	29.019771
_cell_length_b	29.019011
_cell_length_c	29.015668
_cell_angle_alpha	60.004890
_cell_angle_beta	60.009825
_cell_angle_gamma	59.993818
loop_
_atom_site_label
_atom_site_type_symbol
_atom_site_fract_x
_atom_site_fract_y
_atom_site_fract_z
O1	O	0.063866	-0.673289	0.563007
O2	O	0.563866	-0.173289	1.063007
O3	O	0.024059	-0.524205	0.453633
O4	O	0.524059	-0.024205	0.953633
O5	O	0.118464	-0.618532	0.453552
O6	O	0.618464	-0.118532	0.953552
O7	O	-0.030540	-0.578962	0.563088
O8	O	0.469460	-0.078962	1.063088
O9	O	0.149785	-0.587215	0.484789
O10	O	0.649785	-0.087215	0.984789
O11	O	0.055379	-0.492888	0.484869
O12	O	0.555379	0.007112	0.984869
O13	O	0.095186	-0.641972	0.594244
O14	O	0.595186	-0.141972	1.094244
Cu15	Cu	0.078143	-0.564571	0.542409
Cu16	Cu	0.578143	-0.064571	1.042409
Cu17	Cu	0.041102	-0.601606	0.505468
Cu18	Cu	0.541102	-0.101606	1.005468
O19	O	0.000781	-0.547645	0.594325
O20	O	0.500781	-0.047645	1.094325
N21	N	0.104196	-0.538525	0.568394
N22	N	0.604196	-0.038525	1.068394
N23	N	0.015054	-0.627656	0.479483
N24	N	0.515054	-0.127656	0.979483
C25	C	0.143783	-0.499167	0.850823
C26	C	0.643783	0.000833	1.350823
C27	C	0.386758	-0.499111	0.607645
C28	C	0.886758	0.000889	1.107645
C29	C	0.143618	-0.499136	0.607763
C30	C	0.643618	0.000864	1.107763
C31	C	0.143598	-0.256029	0.607770
C32	C	0.643598	0.243971	1.107770
C33	C	0.182748	-0.373362	0.646852
C34	C	0.682748	0.126638	1.146852
C35	C	0.182758	-0.460025	0.646847
C36	C	0.682758	0.039975	1.146847
C37	C	0.204440	-0.438361	0.668500
C38	C	0.704440	0.061639	1.168500
C39	C	0.298958	-0.422064	0.618723
C40	C	0.798958	0.077936	1.118723
C41	C	0.358043	-0.441753	0.599006
C42	C	0.858043	0.058247	1.099006
C43	C	0.358069	-0.537354	0.635461
C44	C	0.858069	-0.037354	1.135461
C45	C	0.298985	-0.517664	0.655180
C46	C	0.798985	-0.017664	1.155180
C47	C	0.196983	-0.343808	0.588767
C48	C	0.696983	0.156192	1.088767
C49	C	0.177262	-0.284720	0.569090
C50	C	0.677262	0.215280	1.069090
C51	C	0.129075	-0.284743	0.665586
C52	C	0.629075	0.215257	1.165586
C53	C	0.148797	-0.343831	0.685263
C54	C	0.648797	0.156169	1.185263
C55	C	0.124666	-0.445760	0.661149
C56	C	0.624666	0.054240	1.161149
C57	C	0.104961	-0.465454	0.641458
C58	C	0.604961	0.034546	1.141458
C59	C	0.201435	-0.513678	0.593176
C60	C	0.701435	-0.013678	1.093176
C61	C	0.221143	-0.493984	0.612860
C62	C	0.721143	0.006016	1.112860
C63	C	0.124738	-0.445777	0.763064
C64	C	0.624738	0.054223	1.263064
C65	C	0.105085	-0.465488	0.822151
C66	C	0.605085	0.034512	1.322151
C67	C	0.201594	-0.513722	0.822097
C68	C	0.701594	-0.013722	1.322097
C69	C	0.221247	-0.494012	0.763009
C70	C	0.721247	0.005988	1.263009
C71	C	0.182817	-0.460038	0.733494
C72	C	0.682817	0.039962	1.233494
C73	C	0.269432	-0.460018	0.646809
C74	C	0.769432	0.039982	1.146809
C75	C	0.121399	-0.520450	0.915812
C76	C	0.621399	-0.020450	1.415812
C77	C	0.451745	-0.520012	0.585655
C78	C	0.951745	-0.020012	1.085655
C79	C	0.121177	-0.520429	0.586502
C80	C	0.621177	-0.020429	1.086502
C81	C	0.121544	-0.191035	0.586883
C82	C	0.621544	0.308965	1.086883
C83	C	-0.110592	-0.666601	0.440035
C84	C	0.389408	-0.166601	0.940035
C85	C	-0.023978	-0.666709	0.440231
C86	C	0.476022	-0.166709	0.940231
C87	C	-0.045598	-0.688342	0.418486
C88	C	0.454402	-0.188342	0.918486
C89	C	-0.061967	-0.782825	0.468184
C90	C	0.438033	-0.282825	0.968184
C91	C	-0.042323	-0.841914	0.487907
C92	C	0.457677	-0.341914	0.987907
C93	C	0.053280	-0.842025	0.451623
C94	C	0.553280	-0.342025	0.951623
C95	C	0.033634	-0.782937	0.431899
C96	C	0.533634	-0.282937	0.931899
C97	C	-0.140218	-0.680832	0.498102
C98	C	0.359782	-0.180832	0.998102
C99	C	-0.199302	-0.661065	0.517690
C100	C	0.300698	-0.161065	1.017690
C101	C	-0.199129	-0.612843	0.421140
C102	C	0.300871	-0.112843	0.921140
C103	C	-0.140045	-0.632610	0.401552
C104	C	0.359955	-0.132610	0.901552
C105	C	-0.038209	-0.608622	0.425941
C106	C	0.461791	-0.108622	0.925941
C107	C	-0.018555	-0.588961	0.445716
C108	C	0.481445	-0.088961	0.945716
C109	C	0.029562	-0.685470	0.494059
C110	C	0.529562	-0.185470	0.994059
C111	C	0.009908	-0.705133	0.474291
C112	C	0.509908	-0.205133	0.974291
C113	C	-0.038037	-0.608631	0.323917
C114	C	0.461963	-0.108631	0.823917
C115	C	-0.018247	-0.588973	0.264830
C116	C	0.481753	-0.088973	0.764830
C117	C	0.029955	-0.685489	0.264893
C118	C	0.529955	-0.185489	0.764893
C119	C	0.010165	-0.705145	0.323981
C120	C	0.510165	-0.205145	0.823981
C121	C	-0.023833	-0.666715	0.353492
C122	C	0.476167	-0.166715	0.853492
C123	C	-0.023990	-0.753339	0.440182
C124	C	0.476010	-0.253339	0.940182
N125	N	0.504925	-0.538487	0.568205
N126	N	1.004925	-0.038487	1.068205
O127	O	0.685342	-0.543679	0.433426
O128	O	1.185342	-0.043679	0.933426
O129	O	0.685533	-0.653395	0.582361
O130	O	1.185533	-0.153395	1.082361
O131	O	0.685457	-0.653145	0.487904
O132	O	1.185457	-0.153145	0.987904
O133	O	0.685418	-0.543929	0.527882
O134	O	1.185418	-0.043929	1.027882
O135	O	0.591592	-0.621921	0.519268
O136	O	1.091592	-0.121921	1.019268
O137	O	0.591667	-0.622171	0.613725
O138	O	1.091667	-0.122171	1.113725
O139	O	0.591477	-0.512455	0.464790
O140	O	1.091477	-0.012455	0.964790
Cu141	Cu	0.583001	-0.564462	0.542121
Cu142	Cu	1.083001	-0.064462	1.042121
Cu143	Cu	0.694008	-0.601388	0.505029
Cu144	Cu	1.194008	-0.101388	1.005029
O145	O	0.591553	-0.512705	0.559246
O146	O	1.091553	-0.012705	1.059246
N147	N	0.772084	-0.627363	0.478939
N148	N	1.272084	-0.127363	0.978939
N149	N	0.104168	-0.137853	0.568408
N150	N	0.604168	0.362147	1.068408
O151	O	-0.030538	0.042663	0.563097
O152	O	0.469462	0.542663	1.063097
O153	O	0.118403	0.042683	0.453379
O154	O	0.618403	0.542683	0.953379
O155	O	0.023918	0.042657	0.453664
O156	O	0.523918	0.542657	0.953664
O157	O	0.063947	0.042689	0.562813
O158	O	0.563947	0.542689	1.062813
O159	O	0.055242	-0.051215	0.484950
O160	O	0.555242	0.448785	0.984950
O161	O	0.149727	-0.051189	0.484666
O162	O	0.649727	0.448811	0.984666
O163	O	0.000787	-0.051210	0.594384
O164	O	0.500787	0.448790	1.094384
Cu165	Cu	0.078117	-0.059771	0.542381
Cu166	Cu	0.578117	0.440229	1.042381
Cu167	Cu	0.041072	0.051244	0.505382
Cu168	Cu	0.541072	0.551244	1.005382
O169	O	0.095272	-0.051184	0.594099
O170	O	0.595272	0.448816	1.094099
N171	N	0.015015	0.129326	0.479356
N172	N	0.515015	0.629326	0.979356
N173	N	0.104469	-0.538576	0.968995
N174	N	0.604469	-0.038576	1.468995
O175	O	0.099171	-0.673268	1.149499
O176	O	0.599171	-0.173268	1.649499
O177	O	-0.010519	-0.524279	1.149527
O178	O	0.489481	-0.024279	1.649527
O179	O	-0.010265	-0.618748	1.149494
O180	O	0.489735	-0.118748	1.649494
O181	O	0.098916	-0.578799	1.149533
O182	O	0.598916	-0.078799	1.649533
O183	O	0.021008	-0.587443	1.055625
O184	O	0.521008	-0.087443	1.555625
O185	O	0.020753	-0.492974	1.055659
O186	O	0.520753	0.007026	1.555659
O187	O	0.130444	-0.641963	1.055630
O188	O	0.630444	-0.141963	1.555630
Cu189	Cu	0.078454	-0.564610	1.047074
Cu190	Cu	0.578454	-0.064610	1.547074
Cu191	Cu	0.041470	-0.601632	1.158084
Cu192	Cu	0.541470	-0.101632	1.658084
O193	O	0.130189	-0.547494	1.055664
O194	O	0.630189	-0.047494	1.555664
N195	N	0.015455	-0.627672	1.236163
N196	N	0.515455	-0.127672	1.736163
C197	C	0.035988	-0.489761	0.454182
C198	C	0.535988	0.010239	0.954182
C199	C	0.152897	-0.606574	0.454082
C200	C	0.652897	-0.106574	0.954082
C201	C	0.083257	-0.676417	0.593694
C202	C	0.583257	-0.176417	1.093694
C203	C	-0.033653	-0.559604	0.593794
C204	C	0.466347	-0.059604	1.093794
C205	C	0.638623	-0.652892	0.616806
C206	C	1.138623	-0.152892	1.116806
C207	C	0.638531	-0.652583	0.499833
C208	C	1.138531	-0.152583	0.999833
C209	C	0.638384	-0.512957	0.430345
C210	C	1.138384	-0.012957	0.930345
C211	C	0.638480	-0.513267	0.547317
C212	C	1.138480	-0.013267	1.047317
C213	C	0.152789	-0.004135	0.453875
C214	C	0.652789	0.495865	0.953875
C215	C	0.035820	-0.004282	0.454266
C216	C	0.535820	0.495718	0.954266
C217	C	-0.033639	-0.004275	0.593849
C218	C	0.466361	0.495725	1.093849
C219	C	0.083370	-0.004245	0.593498
C220	C	0.583370	0.495755	1.093498
C221	C	-0.009989	-0.489856	1.102597
C222	C	0.490011	0.010144	1.602597
C223	C	-0.009667	-0.606839	1.102536
C224	C	0.490333	-0.106839	1.602536
C225	C	0.129914	-0.676386	1.102561
C226	C	0.629914	-0.176386	1.602561
C227	C	0.129599	-0.559396	1.102601
C228	C	0.629599	-0.059396	1.602601
H229	H	0.057789	-0.453866	0.846219
H230	H	0.557789	0.046134	1.346219
O231	O	-0.084730	-0.549445	0.634779
O232	O	0.415270	-0.049445	1.134779
C233	C	-0.119809	-0.493990	0.614373
C234	C	0.380191	0.006010	1.114373
H235	H	-0.092633	-0.467187	0.578123
H236	H	0.407367	0.032813	1.078123
H237	H	-0.146845	-0.475092	0.649792
H238	H	0.353155	0.024908	1.149792
H239	H	-0.148317	-0.494850	0.598704
H240	H	0.351683	0.005150	1.098704
O241	O	0.270340	-0.366052	0.610566
O242	O	0.770340	0.133948	1.110566
C243	C	0.309075	-0.336776	0.581534
C244	C	0.809075	0.163224	1.081534
H245	H	0.351206	-0.367100	0.588333
H246	H	0.851206	0.132900	1.088333
H247	H	0.292012	-0.301142	0.598265
H248	H	0.792012	0.198858	1.098265
H249	H	0.315330	-0.318410	0.534528
H250	H	0.815330	0.181590	1.034528
H251	H	0.638671	-0.687334	0.659583
H252	H	1.138671	-0.187334	1.159583
O253	O	0.170468	-0.549101	1.102581
O254	O	0.670468	-0.049101	1.602581
C255	C	0.149905	-0.493623	1.102609
C256	C	0.649905	0.006377	1.602609
H257	H	0.113669	-0.466914	1.084841
H258	H	0.613669	0.033086	1.584841
H259	H	0.185248	-0.474636	1.075361
H260	H	0.685248	0.025364	1.575361
H261	H	0.134171	-0.494457	1.147647
H262	H	0.634171	0.005543	1.647647
H263	H	0.093440	-0.418108	0.739036
H264	H	0.593440	0.081892	1.239036
H265	H	-0.076413	-0.004282	0.628294
H266	H	0.423587	0.495718	1.128294
O267	O	0.093304	-0.727509	0.634697
O268	O	0.593304	-0.227509	1.134697
C269	C	0.054590	-0.752585	0.649889
C270	C	0.554590	-0.252585	1.149889
H271	H	0.015501	-0.718402	0.638583
H272	H	0.515501	-0.218402	1.138583
H273	H	0.041928	-0.776311	0.697247
H274	H	0.541928	-0.276311	1.197247
H275	H	0.075035	-0.783320	0.626122
H276	H	0.575035	-0.283320	1.126122
O277	O	0.239002	-0.546728	0.850676
O278	O	0.739002	-0.046728	1.350676
C279	C	0.294478	-0.555071	0.811904
C280	C	0.794478	-0.055071	1.311904
H281	H	0.294342	-0.548466	0.769794
H282	H	0.794342	-0.048466	1.269794
H283	H	0.322556	-0.599882	0.828953
H284	H	0.822556	-0.099882	1.328953
H285	H	0.311396	-0.523614	0.805611
H286	H	0.811396	-0.023614	1.305611
O287	O	0.025907	-0.438648	0.413213
O288	O	0.525907	0.061352	0.913213
C289	C	0.064640	-0.413582	0.397995
C290	C	0.564640	0.086418	0.897995
H291	H	0.081158	-0.432272	0.434171
H292	H	0.581158	0.067728	0.934171
H293	H	0.042686	-0.366104	0.388777
H294	H	0.542686	0.133896	0.888777
H295	H	0.101393	-0.422098	0.358731
H296	H	0.601393	0.077902	0.858731
H297	H	0.268542	-0.505632	0.738936
H298	H	0.768542	-0.005632	1.238936
H299	H	0.195693	-0.615009	0.419684
H300	H	0.695693	-0.115009	0.919684
H301	H	0.638547	-0.686893	0.491276
H302	H	1.138547	-0.186893	0.991276
O303	O	0.093547	-0.004315	0.634481
O304	O	0.593547	0.495685	1.134481
C305	C	0.087317	-0.052943	0.682067
C306	C	0.587317	0.447057	1.182067
H307	H	0.059006	-0.069159	0.681632
H308	H	0.559006	0.430841	1.181632
H309	H	0.067419	-0.042010	0.722126
H310	H	0.567419	0.457990	1.222126
H311	H	0.130485	-0.086980	0.680924
H312	H	0.630485	0.413020	1.180924
H313	H	0.638322	-0.478510	0.387573
H314	H	1.138322	0.021490	0.887573
H315	H	-0.044426	-0.447066	1.102605
H316	H	0.455574	0.052934	1.602605
H317	H	0.638471	-0.478960	0.555871
H318	H	1.138471	0.021040	1.055871
O319	O	0.203734	-0.003789	0.412730
O320	O	0.703734	0.496211	0.912730
C321	C	0.238843	-0.003683	0.432999
C322	C	0.738843	0.496317	0.932999
H323	H	0.211697	0.013904	0.469361
H324	H	0.711697	0.513904	0.969361
H325	H	0.265660	0.023791	0.397555
H326	H	0.765660	0.523791	0.897555
H327	H	0.267561	-0.048657	0.448469
H328	H	0.767561	0.451343	0.948469
O329	O	0.025588	-0.004196	0.413309
O330	O	0.525588	0.495804	0.913309
C331	C	0.031841	0.044412	0.365704
C332	C	0.531841	0.544412	0.865704
H333	H	0.025735	0.078402	0.379197
H334	H	0.525735	0.578402	0.879197
H335	H	-0.001057	0.060717	0.345703
H336	H	0.498943	0.560717	0.845703
H337	H	0.075900	0.033422	0.333716
H338	H	0.575900	0.533422	0.833716
H339	H	-0.043953	-0.615372	1.102487
H340	H	0.456047	-0.115372	1.602487
H341	H	0.057627	-0.716785	0.240872
H342	H	0.557627	-0.216785	0.740872
H343	H	0.164353	-0.719173	1.102545
H344	H	0.664353	-0.219173	1.602545
H345	H	0.093408	-0.418110	0.688821
H346	H	0.593408	0.081890	1.188821
H347	H	-0.116238	-0.708516	0.529438
H348	H	0.383762	-0.208516	1.029438
O349	O	0.048526	-0.451672	0.655447
O350	O	0.548526	0.048328	1.155447
C351	C	0.024028	-0.471887	0.714630
C352	C	0.524028	0.028113	1.214630
H353	H	0.057695	-0.508326	0.733652
H354	H	0.557695	-0.008326	1.233652
H355	H	-0.010796	-0.487236	0.725954
H356	H	0.489204	0.012764	1.225954
H357	H	0.005375	-0.436445	0.732143
H358	H	0.505375	0.063555	1.232143
O359	O	0.238753	-0.546579	0.560082
O360	O	0.738753	-0.046579	1.060082
C361	C	0.272889	-0.516728	0.510535
C362	C	0.772889	-0.016728	1.010535
H363	H	0.250050	-0.469457	0.502340
H364	H	0.750050	0.030543	1.002340
H365	H	0.281813	-0.527288	0.473309
H366	H	0.781813	-0.027288	0.973309
H367	H	0.314406	-0.529298	0.515891
H368	H	0.814406	-0.029298	1.015891
O369	O	0.270390	-0.554607	0.682428
O370	O	0.770390	-0.054607	1.182428
C371	C	0.309146	-0.609710	0.685596
C372	C	0.809146	-0.109710	1.185596
H373	H	0.351249	-0.607457	0.650685
H374	H	0.851249	-0.107457	1.150685
H375	H	0.292068	-0.633962	0.680255
H376	H	0.792068	-0.133962	1.180255
H377	H	0.315461	-0.632268	0.728407
H378	H	0.815461	-0.132268	1.228407
O379	O	0.386808	-0.593334	0.643487
O380	O	0.886808	-0.093334	1.143487
C381	C	0.420968	-0.601356	0.590741
C382	C	0.920968	-0.101356	1.090741
H383	H	0.403133	-0.563948	0.556684
H384	H	0.903133	-0.063948	1.056684
H385	H	0.421646	-0.641769	0.592394
H386	H	0.921646	-0.141769	1.092394
H387	H	0.465748	-0.604840	0.580492
H388	H	0.965748	-0.104840	1.080492
O389	O	0.277566	-0.507734	0.598908
O390	O	0.777566	-0.007734	1.098908
C391	C	0.291806	-0.458075	0.569184
C392	C	0.791806	0.041925	1.069184
H393	H	0.258472	-0.422584	0.549210
H394	H	0.758472	0.077416	1.049210
H395	H	0.334686	-0.465842	0.534738
H396	H	0.834686	0.034158	1.034738
H397	H	0.293774	-0.445642	0.599569
H398	H	0.793774	0.054358	1.099569
O399	O	0.386814	-0.404964	0.571728
O400	O	0.886814	0.095036	1.071728
C401	C	0.445300	-0.434703	0.556106
C402	C	0.945300	0.065297	1.056106
H403	H	0.453390	-0.480746	0.584594
H404	H	0.953390	0.019254	1.084594
H405	H	0.467765	-0.415144	0.560748
H406	H	0.967765	0.084856	1.060748
H407	H	0.462038	-0.432267	0.510345
H408	H	0.962038	0.067733	1.010345
O409	O	0.229934	-0.372409	0.551381
O410	O	0.729934	0.127591	1.051381
C411	C	0.238274	-0.333651	0.495892
C412	C	0.738274	0.166349	0.995892
H413	H	0.202642	-0.291536	0.496019
H414	H	0.702642	0.208464	0.996019
H415	H	0.238561	-0.350718	0.467847
H416	H	0.738561	0.149282	0.967847
H417	H	0.280361	-0.327358	0.478942
H418	H	0.780361	0.172642	0.978942
H419	H	0.101438	-0.260698	0.696864
H420	H	0.601438	0.239302	1.196864
O421	O	0.190990	-0.255981	0.512669
O422	O	0.690990	0.244019	1.012669
C423	C	0.141324	-0.221795	0.498420
C424	C	0.641324	0.278205	0.998420
H425	H	0.105847	-0.239613	0.531741
H426	H	0.605847	0.260387	1.031741
H427	H	0.149083	-0.221112	0.455528
H428	H	0.649083	0.278888	0.955528
H429	H	0.128882	-0.177016	0.496468
H430	H	0.628882	0.322984	0.996468
H431	H	0.137197	-0.367895	0.732563
H432	H	0.637197	0.132105	1.232563
H433	H	-0.065723	-0.577332	0.347941
H434	H	0.434277	-0.077332	0.847941
O435	O	-0.032154	-0.532541	0.236133
O436	O	0.467846	-0.032541	0.736133
C437	C	-0.091325	-0.507947	0.250479
C438	C	0.408675	-0.007947	0.750479
H439	H	-0.110385	-0.541559	0.266676
H440	H	0.389615	-0.041559	0.766676
H441	H	-0.102566	-0.473114	0.211580
H442	H	0.397434	0.026886	0.711580
H443	H	-0.108872	-0.489281	0.284778
H444	H	0.391128	0.010719	0.784778
O445	O	0.023996	-0.761590	0.352621
O446	O	0.523996	-0.261590	0.852621
C447	C	0.058254	-0.791290	0.313902
C448	C	0.558254	-0.291290	0.813902
H449	H	0.050793	-0.763111	0.271742
H450	H	0.550793	-0.263111	0.771742
H451	H	0.047150	-0.830692	0.330944
H452	H	0.547150	-0.330692	0.830944
H453	H	0.104519	-0.804085	0.307712
H454	H	0.604519	-0.304085	0.807712
H455	H	-0.065797	-0.577331	0.398207
H456	H	0.434203	-0.077331	0.898207
H457	H	-0.030145	-0.541661	0.434082
H458	H	0.469855	-0.041661	0.934082
H459	H	0.021495	-0.752433	0.485928
H460	H	0.521495	-0.252433	0.985928
O461	O	0.062455	-0.722873	0.527154
O462	O	0.562455	-0.222873	1.027154
C463	C	0.070812	-0.778357	0.535508
C464	C	0.570812	-0.278357	1.035508
H465	H	0.035221	-0.778207	0.528818
H466	H	0.535221	-0.278207	1.028818
H467	H	0.071042	-0.806399	0.580347
H468	H	0.571042	-0.306399	1.080347
H469	H	0.112931	-0.795331	0.504116
H470	H	0.612931	-0.295331	1.004116
H471	H	0.064563	-0.758931	0.409098
H472	H	0.564563	-0.258931	0.909098
O473	O	0.109275	-0.870757	0.443480
O474	O	0.609275	-0.370757	0.943480
C475	C	0.139840	-0.856352	0.385163
C476	C	0.639840	-0.356352	0.885163
H477	H	0.110863	-0.840079	0.360677
H478	H	0.610863	-0.340079	0.860677
H479	H	0.176550	-0.895240	0.375652
H480	H	0.676550	-0.395240	0.875652
H481	H	0.156825	-0.822089	0.372003
H482	H	0.656825	-0.322089	0.872003
O483	O	-0.079289	-0.870468	0.515082
O484	O	0.420711	-0.370468	1.015082
C485	C	-0.106927	-0.856025	0.478884
C486	C	0.393073	-0.356025	0.978884
H487	H	-0.105478	-0.813167	0.445206
H488	H	0.394522	-0.313167	0.945206
H489	H	-0.152750	-0.853903	0.504389
H490	H	0.347250	-0.353903	1.004389
H491	H	-0.084905	-0.889327	0.457787
H492	H	0.415095	-0.389327	0.957787
O493	O	-0.117918	-0.754006	0.476122
O494	O	0.382082	-0.254006	0.976122
C495	C	-0.125847	-0.719846	0.423331
C496	C	0.374153	-0.219846	0.923331
H497	H	-0.085187	-0.711056	0.390474
H498	H	0.414813	-0.211056	0.890474
H499	H	-0.161301	-0.678265	0.426680
H500	H	0.338699	-0.178265	0.926680
H501	H	-0.137466	-0.742595	0.410150
H502	H	0.362534	-0.242595	0.910150
H503	H	-0.223425	-0.672650	0.564976
H504	H	0.276575	-0.172650	1.064976
H505	H	-0.115923	-0.621016	0.354266
H506	H	0.384077	-0.121016	0.854266
O507	O	-0.227657	-0.579815	0.383683
O508	O	0.272343	-0.079815	0.883683
C509	C	-0.188838	-0.571516	0.328229
C510	C	0.311162	-0.071516	0.828229
H511	H	-0.146741	-0.578167	0.328420
H512	H	0.353259	-0.078167	0.828420
H513	H	-0.205843	-0.526703	0.300132
H514	H	0.294157	-0.026703	0.800132
H515	H	-0.182539	-0.602968	0.311292
H516	H	0.317461	-0.102968	0.811292
