data_functionalizedCrystal
_audit_creation_method	'MofGen! by Chris Wilmer'
_symmetry_space_group_name_H-M	'P1'
_symmetry_Int_Tables_number	1
_symmetry_cell_setting	triclinic
loop_
_symmetry_equiv_pos_as_xyz
  x,y,z
_cell_length_a	27.731993
_cell_length_b	26.210047
_cell_length_c	16.992695
_cell_angle_alpha	89.995910
_cell_angle_beta	93.355692
_cell_angle_gamma	90.004884
loop_
_atom_site_label
_atom_site_type_symbol
_atom_site_fract_x
_atom_site_fract_y
_atom_site_fract_z
O1	O	0.644976	0.042292	-0.093047
O2	O	0.894976	0.292292	0.156953
O3	O	1.144976	0.542292	0.406953
O4	O	1.394976	0.792292	0.656953
O5	O	0.504794	0.042323	-0.107271
O6	O	0.754794	0.292323	0.142729
O7	O	1.004794	0.542323	0.392729
O8	O	1.254794	0.792323	0.642729
O9	O	0.574323	0.042303	0.013977
O10	O	0.824323	0.292303	0.263977
O11	O	1.074323	0.542303	0.513977
O12	O	1.324323	0.792303	0.763977
O13	O	0.575447	0.042311	-0.214294
O14	O	0.825447	0.292311	0.035706
O15	O	1.075447	0.542311	0.285706
O16	O	1.325447	0.792311	0.535706
O17	O	0.574299	-0.042555	0.013977
O18	O	0.824299	0.207445	0.263977
O19	O	1.074299	0.457445	0.513977
O20	O	1.324299	0.707445	0.763977
O21	O	0.504770	-0.042535	-0.107271
O22	O	0.754770	0.207465	0.142729
O23	O	1.004770	0.457465	0.392729
O24	O	1.254770	0.707465	0.642729
O25	O	0.644953	-0.042566	-0.093047
O26	O	0.894953	0.207434	0.156953
O27	O	1.144953	0.457434	0.406953
O28	O	1.394953	0.707434	0.656953
Cu29	Cu	0.574859	-0.050299	-0.100159
Cu30	Cu	0.824859	0.199701	0.149841
Cu31	Cu	1.074859	0.449701	0.399841
Cu32	Cu	1.324859	0.699701	0.649841
Cu33	Cu	0.574887	0.050055	-0.100159
Cu34	Cu	0.824887	0.300055	0.149841
Cu35	Cu	1.074887	0.550055	0.399841
Cu36	Cu	1.324887	0.800055	0.649841
O37	O	0.575423	-0.042547	-0.214295
O38	O	0.825423	0.207453	0.035705
O39	O	1.075423	0.457453	0.285705
O40	O	1.325423	0.707453	0.535705
C41	C	0.486762	-0.000102	-0.106979
C42	C	0.736762	0.249898	0.143021
C43	C	0.986762	0.499898	0.393021
C44	C	1.236762	0.749898	0.643021
C45	C	0.433068	-0.000091	-0.106100
C46	C	0.683068	0.249909	0.143900
C47	C	0.933068	0.499909	0.393900
C48	C	1.183068	0.749909	0.643900
N49	N	0.574843	-0.120883	-0.100158
N50	N	0.824843	0.129117	0.149842
N51	N	1.074843	0.379117	0.399842
N52	N	1.324843	0.629117	0.649842
C53	C	0.049645	0.046141	-0.099727
C54	C	0.299645	0.296141	0.150273
C55	C	0.549645	0.546141	0.400273
C56	C	0.799645	0.796141	0.650273
C57	C	0.251447	0.046155	-0.103078
C58	C	0.501447	0.296155	0.146922
C59	C	0.751447	0.546155	0.396922
C60	C	1.001447	0.796155	0.646922
O61	O	0.277548	0.085495	-0.103480
O62	O	0.527548	0.335495	0.146520
O63	O	0.777548	0.585495	0.396520
O64	O	1.027548	0.835495	0.646520
N65	N	0.276673	-0.000101	-0.103497
N66	N	0.526673	0.249899	0.146503
N67	N	0.776673	0.499899	0.396503
N68	N	1.026673	0.749899	0.646503
C69	C	0.251445	-0.046362	-0.103074
C70	C	0.501445	0.203638	0.146926
C71	C	0.751445	0.453638	0.396926
C72	C	1.001445	0.703638	0.646926
O73	O	0.277532	-0.085705	-0.103499
O74	O	0.527532	0.164295	0.146501
O75	O	0.777532	0.414295	0.396501
O76	O	1.027532	0.664295	0.646501
C77	C	0.049644	-0.046376	-0.099717
C78	C	0.299644	0.203624	0.150283
C79	C	0.549644	0.453624	0.400283
C80	C	0.799644	0.703624	0.650283
C81	C	0.024420	-0.000118	-0.099306
C82	C	0.274420	0.249882	0.150694
C83	C	0.524420	0.499882	0.400694
C84	C	0.774420	0.749882	0.650694
C85	C	0.024421	0.092395	-0.099315
C86	C	0.274421	0.342395	0.150685
C87	C	0.524421	0.592395	0.400685
C88	C	0.774421	0.842395	0.650685
C89	C	-0.026026	0.092391	-0.098481
C90	C	0.223974	0.342391	0.151519
C91	C	0.473974	0.592391	0.401519
C92	C	0.723974	0.842391	0.651519
C93	C	-0.051251	0.046133	-0.098060
C94	C	0.198749	0.296133	0.151940
C95	C	0.448749	0.546133	0.401940
C96	C	0.698749	0.796133	0.651940
C97	C	-0.026027	-0.000122	-0.098472
C98	C	0.223973	0.249878	0.151528
C99	C	0.473973	0.499878	0.401528
C100	C	0.723973	0.749878	0.651528
C101	C	0.024417	-0.092637	-0.099288
C102	C	0.274417	0.157363	0.150712
C103	C	0.524417	0.407363	0.400712
C104	C	0.774417	0.657363	0.650712
C105	C	-0.026036	-0.092636	-0.098446
C106	C	0.223964	0.157364	0.151554
C107	C	0.473964	0.407364	0.401554
C108	C	0.723964	0.657364	0.651554
C109	C	-0.051260	-0.046378	-0.098035
C110	C	0.198740	0.203622	0.151965
C111	C	0.448740	0.453622	0.401965
C112	C	0.698740	0.703622	0.651965
C113	C	-0.101699	-0.046384	-0.097217
C114	C	0.148301	0.203616	0.152783
C115	C	0.398301	0.453616	0.402783
C116	C	0.648301	0.703616	0.652783
N117	N	-0.126925	-0.000129	-0.096798
N118	N	0.123075	0.249871	0.153202
N119	N	0.373075	0.499871	0.403202
N120	N	0.623075	0.749871	0.653202
C121	C	-0.101701	0.046129	-0.097219
C122	C	0.148299	0.296129	0.152781
C123	C	0.398299	0.546129	0.402781
C124	C	0.648299	0.796129	0.652781
C125	C	0.357393	-0.046352	-0.104838
C126	C	0.607393	0.203648	0.145162
C127	C	0.857393	0.453648	0.395162
C128	C	1.107393	0.703648	0.645162
C129	C	0.407843	-0.046349	-0.105678
C130	C	0.657843	0.203651	0.144322
C131	C	0.907843	0.453651	0.394322
C132	C	1.157843	0.703651	0.644322
C133	C	0.407842	0.046168	-0.105681
C134	C	0.657842	0.296168	0.144319
C135	C	0.907842	0.546168	0.394319
C136	C	1.157842	0.796168	0.644319
C137	C	0.357391	0.046165	-0.104846
C138	C	0.607391	0.296165	0.145154
C139	C	0.857391	0.546165	0.395154
C140	C	1.107391	0.796165	0.645154
C141	C	0.332168	-0.000097	-0.104418
C142	C	0.582168	0.249903	0.145582
C143	C	0.832168	0.499903	0.395582
C144	C	1.082168	0.749903	0.645582
C145	C	-0.207645	0.046118	-0.095470
C146	C	0.042355	0.296118	0.154530
C147	C	0.292355	0.546118	0.404530
C148	C	0.542355	0.796118	0.654530
C149	C	-0.258097	0.046110	-0.094639
C150	C	-0.008097	0.296110	0.155361
C151	C	0.241903	0.546110	0.405361
C152	C	0.491903	0.796110	0.655361
C153	C	-0.258091	-0.046407	-0.094632
C154	C	-0.008091	0.203593	0.155368
C155	C	0.241909	0.453593	0.405368
C156	C	0.491909	0.703593	0.655368
C157	C	-0.207643	-0.046399	-0.095467
C158	C	0.042357	0.203601	0.154533
C159	C	0.292357	0.453601	0.404533
C160	C	0.542357	0.703601	0.654533
C161	C	-0.182421	-0.000133	-0.095883
C162	C	0.067579	0.249867	0.154117
C163	C	0.317579	0.499867	0.404117
C164	C	0.567579	0.749867	0.654117
O165	O	-0.127832	-0.085703	-0.096806
O166	O	0.122168	0.164297	0.153194
O167	O	0.372168	0.414297	0.403194
O168	O	0.622168	0.664297	0.653194
O169	O	-0.127796	0.085466	-0.096776
O170	O	0.122204	0.335466	0.153224
O171	O	0.372204	0.585466	0.403224
O172	O	0.622204	0.835466	0.653224
C173	C	0.100092	0.046145	-0.100560
C174	C	0.350092	0.296145	0.149440
C175	C	0.600092	0.546145	0.399440
C176	C	0.850092	0.796145	0.649440
C177	C	0.125316	-0.000110	-0.100972
C178	C	0.375316	0.249890	0.149028
C179	C	0.625316	0.499890	0.399028
C180	C	0.875316	0.749890	0.649028
C181	C	0.100091	-0.046368	-0.100551
C182	C	0.350091	0.203632	0.149449
C183	C	0.600091	0.453632	0.399449
C184	C	0.850091	0.703632	0.649449
C185	C	0.175766	-0.000107	-0.101813
C186	C	0.425766	0.249893	0.148187
C187	C	0.675766	0.499893	0.398187
C188	C	0.925766	0.749893	0.648187
C189	C	0.200990	0.046152	-0.102234
C190	C	0.450990	0.296152	0.147766
C191	C	0.700990	0.546152	0.397766
C192	C	0.950990	0.796152	0.647766
C193	C	0.175765	0.092407	-0.101815
C194	C	0.425765	0.342407	0.148185
C195	C	0.675765	0.592407	0.398185
C196	C	0.925765	0.842407	0.648185
C197	C	0.125317	0.092403	-0.100982
C198	C	0.375317	0.342403	0.149018
C199	C	0.625317	0.592403	0.399018
C200	C	0.875317	0.842403	0.649018
C201	C	0.125317	-0.092623	-0.100971
C202	C	0.375317	0.157377	0.149029
C203	C	0.625317	0.407377	0.399029
C204	C	0.875317	0.657377	0.649029
C205	C	0.175765	-0.092615	-0.101805
C206	C	0.425765	0.157385	0.148195
C207	C	0.675765	0.407385	0.398195
C208	C	0.925765	0.657385	0.648195
C209	C	0.200989	-0.046357	-0.102226
C210	C	0.450989	0.203643	0.147774
C211	C	0.700989	0.453643	0.397774
C212	C	0.950989	0.703643	0.647774
C213	C	0.606020	-0.473402	-0.147347
C214	C	0.856020	-0.223402	0.102653
C215	C	1.106020	0.026598	0.352653
C216	C	1.356020	0.276598	0.602653
C217	C	0.606034	-0.687061	-0.147346
C218	C	0.856034	-0.437061	0.102654
C219	C	1.106034	-0.187061	0.352654
C220	C	1.356034	0.062939	0.602654
O221	O	0.632530	-0.714687	-0.187459
O222	O	0.882530	-0.464687	0.062541
O223	O	1.132530	-0.214687	0.312541
O224	O	1.382530	0.035313	0.562541
N225	N	0.574898	-0.713777	-0.100151
N226	N	0.824898	-0.463777	0.149849
N227	N	1.074898	-0.213777	0.399849
N228	N	1.324898	0.036223	0.649849
C229	C	0.543758	-0.687075	-0.052948
C230	C	0.793758	-0.437075	0.197052
C231	C	1.043758	-0.187075	0.447052
C232	C	1.293758	0.062925	0.697052
O233	O	0.517279	-0.714701	-0.012800
O234	O	0.767279	-0.464701	0.237200
O235	O	1.017279	-0.214701	0.487200
O236	O	1.267279	0.035299	0.737200
C237	C	0.543747	-0.473417	-0.052945
C238	C	0.793747	-0.223417	0.197055
C239	C	1.043747	0.026583	0.447055
C240	C	1.293747	0.276583	0.697055
C241	C	0.574882	-0.446704	-0.100150
C242	C	0.824882	-0.196704	0.149850
C243	C	1.074882	0.053296	0.399850
C244	C	1.324882	0.303296	0.649850
C245	C	0.637153	-0.446689	-0.194547
C246	C	0.887153	-0.196689	0.055453
C247	C	1.137153	0.053311	0.305453
C248	C	1.387153	0.303311	0.555453
C249	C	0.637147	-0.393277	-0.194550
C250	C	0.887147	-0.143277	0.055450
C251	C	1.137147	0.106723	0.305450
C252	C	1.387147	0.356723	0.555450
C253	C	0.606008	-0.366579	-0.147353
C254	C	0.856008	-0.116579	0.102647
C255	C	1.106008	0.133421	0.352647
C256	C	1.356008	0.383421	0.602647
C257	C	0.574876	-0.393293	-0.100153
C258	C	0.824876	-0.143293	0.149847
C259	C	1.074876	0.106707	0.399847
C260	C	1.324876	0.356707	0.649847
C261	C	0.512610	-0.446717	-0.005739
C262	C	0.762610	-0.196717	0.244261
C263	C	1.012610	0.053283	0.494261
C264	C	1.262610	0.303283	0.744261
C265	C	0.512611	-0.393299	-0.005741
C266	C	0.762611	-0.143299	0.244259
C267	C	1.012611	0.106701	0.494259
C268	C	1.262611	0.356701	0.744259
C269	C	0.543746	-0.366586	-0.052946
C270	C	0.793746	-0.116586	0.197054
C271	C	1.043746	0.133414	0.447054
C272	C	1.293746	0.383414	0.697054
C273	C	0.543732	-0.313183	-0.052959
C274	C	0.793732	-0.063183	0.197041
C275	C	1.043732	0.186817	0.447041
C276	C	1.293732	0.436817	0.697041
N277	N	0.574868	-0.286467	-0.100154
N278	N	0.824868	-0.036467	0.149846
N279	N	1.074868	0.213533	0.399846
N280	N	1.324868	0.463533	0.649846
C281	C	0.606006	-0.313165	-0.147351
C282	C	0.856006	-0.063165	0.102649
C283	C	1.106006	0.186835	0.352649
C284	C	1.356006	0.436835	0.602649
C285	C	0.543766	-0.799248	-0.052954
C286	C	0.793766	-0.549248	0.197046
C287	C	1.043766	-0.299248	0.447046
C288	C	1.293766	-0.049248	0.697046
C289	C	0.543768	-0.852663	-0.052956
C290	C	0.793768	-0.602663	0.197044
C291	C	1.043768	-0.352663	0.447044
C292	C	1.293768	-0.102663	0.697044
C293	C	0.606045	-0.852645	-0.147353
C294	C	0.856045	-0.602645	0.102647
C295	C	1.106045	-0.352645	0.352647
C296	C	1.356045	-0.102645	0.602647
C297	C	0.606040	-0.799230	-0.147355
C298	C	0.856040	-0.549230	0.102645
C299	C	1.106040	-0.299230	0.352645
C300	C	1.356040	-0.049230	0.602645
C301	C	0.574902	-0.772532	-0.100150
C302	C	0.824902	-0.522532	0.149850
C303	C	1.074902	-0.272532	0.399850
C304	C	1.324902	-0.022532	0.649850
C305	C	0.605992	-0.200997	-0.147354
C306	C	0.855992	0.049003	0.102646
C307	C	1.105992	0.299003	0.352646
C308	C	1.355992	0.549003	0.602646
C309	C	0.605982	-0.147581	-0.147355
C310	C	0.855982	0.102419	0.102645
C311	C	1.105982	0.352419	0.352645
C312	C	1.355982	0.602419	0.602645
C313	C	0.543707	-0.147604	-0.052956
C314	C	0.793707	0.102396	0.197044
C315	C	1.043707	0.352396	0.447044
C316	C	1.293707	0.602396	0.697044
C317	C	0.543715	-0.201015	-0.052957
C318	C	0.793715	0.048985	0.197043
C319	C	1.043715	0.298985	0.447043
C320	C	1.293715	0.548985	0.697043
C321	C	0.574861	-0.227711	-0.100159
C322	C	0.824861	0.022289	0.149841
C323	C	1.074861	0.272289	0.399841
C324	C	1.324861	0.522289	0.649841
O325	O	0.517254	-0.285524	-0.012860
O326	O	0.767254	-0.035524	0.237140
O327	O	1.017254	0.214476	0.487140
O328	O	1.267254	0.464476	0.737140
O329	O	0.632489	-0.285530	-0.187481
O330	O	0.882489	-0.035530	0.062519
O331	O	1.132489	0.214470	0.312519
O332	O	1.382489	0.464470	0.562519
C333	C	0.606026	-0.526814	-0.147344
C334	C	0.856026	-0.276814	0.102656
C335	C	1.106026	-0.026814	0.352656
C336	C	1.356026	0.223186	0.602656
C337	C	0.574893	-0.553527	-0.100144
C338	C	0.824893	-0.303527	0.149856
C339	C	1.074893	-0.053527	0.399856
C340	C	1.324893	0.196473	0.649856
C341	C	0.543755	-0.526829	-0.052947
C342	C	0.793755	-0.276829	0.197053
C343	C	1.043755	-0.026829	0.447053
C344	C	1.293755	0.223171	0.697053
C345	C	0.574895	-0.606941	-0.100146
C346	C	0.824895	-0.356941	0.149854
C347	C	1.074895	-0.106941	0.399854
C348	C	1.324895	0.143059	0.649854
C349	C	0.606034	-0.633639	-0.147343
C350	C	0.856034	-0.383639	0.102657
C351	C	1.106034	-0.133639	0.352657
C352	C	1.356034	0.116361	0.602657
C353	C	0.637170	-0.606923	-0.194538
C354	C	0.887170	-0.356923	0.055462
C355	C	1.137170	-0.106923	0.305462
C356	C	1.387170	0.143077	0.555462
C357	C	0.637164	-0.553512	-0.194541
C358	C	0.887164	-0.303512	0.055459
C359	C	1.137164	-0.053512	0.305459
C360	C	1.387164	0.196488	0.555459
C361	C	0.512619	-0.553545	-0.005752
C362	C	0.762619	-0.303545	0.244248
C363	C	1.012619	-0.053545	0.494248
C364	C	1.262619	0.196455	0.744248
C365	C	0.512627	-0.606957	-0.005753
C366	C	0.762627	-0.356957	0.244247
C367	C	1.012627	-0.106957	0.494247
C368	C	1.262627	0.143043	0.744247
C369	C	0.543765	-0.633655	-0.052950
C370	C	0.793765	-0.383655	0.197050
C371	C	1.043765	-0.133655	0.447050
C372	C	1.293765	0.116345	0.697050
C373	C	0.662984	-0.000140	-0.093339
C374	C	0.912984	0.249860	0.156661
C375	C	1.162984	0.499860	0.406661
C376	C	1.412984	0.749860	0.656661
C377	C	0.716679	-0.000149	-0.094218
C378	C	0.966679	0.249851	0.155782
C379	C	1.216679	0.499851	0.405782
C380	C	1.466679	0.749851	0.655782
C381	C	0.572865	-0.000125	0.043171
C382	C	0.822865	0.249875	0.293171
C383	C	1.072865	0.499875	0.543171
C384	C	1.322865	0.749875	0.793171
C385	C	0.568551	-0.000124	0.130162
C386	C	0.818551	0.249876	0.380162
C387	C	1.068551	0.499876	0.630162
C388	C	1.318551	0.749876	0.880162
N389	N	0.574906	0.120639	-0.100153
N390	N	0.824906	0.370639	0.149847
N391	N	1.074906	0.620639	0.399847
N392	N	1.324906	0.870639	0.649847
C393	C	0.576881	-0.000117	-0.243489
C394	C	0.826881	0.249883	0.006511
C395	C	1.076881	0.499883	0.256511
C396	C	1.326881	0.749883	0.506511
C397	C	0.581195	-0.000115	-0.330480
C398	C	0.831195	0.249885	-0.080480
C399	C	1.081195	0.499885	0.169520
C400	C	1.331195	0.749885	0.419520
C401	C	0.610175	-0.000134	0.180920
C402	C	0.860175	0.249866	0.430920
C403	C	1.110175	0.499866	0.680920
C404	C	1.360175	0.749866	0.930920
C405	C	0.606119	-0.000128	0.262656
C406	C	0.856119	0.249872	0.512656
C407	C	1.106119	0.499872	0.762656
C408	C	1.356119	0.749872	1.012656
C409	C	0.560438	-0.000116	0.293633
C410	C	0.810438	0.249884	0.543633
C411	C	1.060438	0.499884	0.793633
C412	C	1.310438	0.749884	1.043633
C413	C	0.518811	-0.000105	0.242868
C414	C	0.768811	0.249895	0.492868
C415	C	1.018811	0.499895	0.742868
C416	C	1.268811	0.749895	0.992868
C417	C	0.522868	-0.000107	0.161134
C418	C	0.772868	0.249893	0.411134
C419	C	1.022868	0.499893	0.661134
C420	C	1.272868	0.749893	0.911134
C421	C	0.543625	-0.000106	0.537021
C422	C	0.793625	0.249894	0.787021
C423	C	1.043625	0.499894	1.037021
C424	C	1.293625	0.749894	1.287021
C425	C	0.539571	-0.000105	0.618762
C426	C	0.789571	0.249895	0.868762
C427	C	1.039571	0.499895	1.118762
C428	C	1.289571	0.749895	1.368762
C429	C	0.626879	-0.000127	0.638545
C430	C	0.876879	0.249873	0.888545
C431	C	1.126879	0.499873	1.138545
C432	C	1.376879	0.749873	1.388545
C433	C	0.630932	-0.000133	0.556808
C434	C	0.880932	0.249867	0.806808
C435	C	1.130932	0.499867	1.056808
C436	C	1.380932	0.749867	1.306808
C437	C	0.589305	-0.000119	0.506050
C438	C	0.839305	0.249881	0.756050
C439	C	1.089305	0.499881	1.006050
C440	C	1.339305	0.749881	1.256050
N441	N	0.556291	-0.000112	0.377180
N442	N	0.806291	0.249888	0.627180
N443	N	1.056291	0.499888	0.877180
N444	N	1.306291	0.749888	1.127180
N445	N	0.593453	-0.000119	0.422505
N446	N	0.843453	0.249881	0.672505
N447	N	1.093453	0.499881	0.922505
N448	N	1.343453	0.749881	1.172505
H449	H	-0.278632	0.083780	-0.094307
H450	H	-0.028632	0.333780	0.155693
H451	H	0.221368	0.583780	0.405693
H452	H	0.471368	0.833780	0.655693
F453	F	0.499321	-0.000090	0.483012
F454	F	0.749321	0.249910	0.733012
F455	F	0.999321	0.499910	0.983012
F456	F	1.249321	0.749910	1.233012
H457	H	0.660769	-0.000138	0.679880
H458	H	0.910769	0.249862	0.929880
H459	H	1.160769	0.499862	1.179880
H460	H	1.410769	0.749862	1.429880
H461	H	0.481617	-0.000092	0.268096
H462	H	0.731617	0.249908	0.518096
H463	H	0.981617	0.499908	0.768096
H464	H	1.231617	0.749908	1.018096
H465	H	0.488974	-0.000099	0.119806
H466	H	0.738974	0.249901	0.369806
H467	H	0.988974	0.499901	0.619806
H468	H	1.238974	0.749901	0.869806
H469	H	0.336857	0.083832	-0.104511
H470	H	0.586857	0.333832	0.145489
H471	H	0.836857	0.583832	0.395489
H472	H	1.086857	0.833832	0.645489
H473	H	0.104785	-0.130293	-0.100624
H474	H	0.354785	0.119707	0.149376
H475	H	0.604785	0.369707	0.399376
H476	H	0.854785	0.619707	0.649376
H477	H	0.518354	-0.125856	-0.014531
H478	H	0.768354	0.124144	0.235469
H479	H	1.018354	0.374144	0.485469
H480	H	1.268354	0.624144	0.735469
F481	F	0.670300	-0.525088	-0.244787
F482	F	0.920300	-0.275088	0.005213
F483	F	1.170300	-0.025088	0.255213
F484	F	1.420300	0.224912	0.505213
F485	F	0.490949	-0.000095	0.651727
F486	F	0.740949	0.249905	0.901727
F487	F	0.990949	0.499905	1.151727
F488	F	1.240949	0.749905	1.401727
F489	F	0.670297	-0.475095	-0.244785
F490	F	0.920297	-0.225095	0.005215
F491	F	1.170297	0.024905	0.255215
F492	F	1.420297	0.274905	0.505215
F493	F	0.658795	-0.000152	0.147960
F494	F	0.908795	0.249848	0.397960
F495	F	1.158795	0.499848	0.647960
F496	F	1.408795	0.749848	0.897960
H497	H	0.631397	-0.874391	-0.185786
H498	H	0.881397	-0.624391	0.064214
H499	H	1.131397	-0.374391	0.314214
H500	H	1.381397	-0.124391	0.564214
F501	F	0.670308	-0.635347	-0.244772
F502	F	0.920308	-0.385347	0.005228
F503	F	1.170308	-0.135347	0.255228
F504	F	1.420308	0.114653	0.505228
H505	H	0.631335	-0.125834	-0.185799
H506	H	0.881335	0.124166	0.064201
H507	H	1.131335	0.374166	0.314201
H508	H	1.381335	0.624166	0.564201
F509	F	0.639141	-0.229401	-0.197591
F510	F	0.889141	0.020599	0.052409
F511	F	1.139141	0.270599	0.302409
F512	F	1.389141	0.520599	0.552409
F513	F	0.479472	-0.364889	0.044508
F514	F	0.729472	-0.114889	0.294508
F515	F	0.979472	0.135111	0.544508
F516	F	1.229472	0.385111	0.794508
H517	H	0.631392	-0.777483	-0.185794
H518	H	0.881392	-0.527483	0.064206
H519	H	1.131392	-0.277483	0.314206
H520	H	1.381392	-0.027483	0.564206
H521	H	-0.187115	0.083792	-0.095809
H522	H	0.062885	0.333792	0.154191
H523	H	0.312885	0.583792	0.404191
H524	H	0.562885	0.833792	0.654191
F525	F	0.510574	-0.229446	-0.002725
F526	F	0.760574	0.020554	0.247275
F527	F	1.010574	0.270554	0.497275
F528	F	1.260574	0.520554	0.747275
F529	F	0.510624	-0.881087	-0.002726
F530	F	0.760624	-0.631087	0.247274
F531	F	1.010624	-0.381087	0.497274
F532	F	1.260624	-0.131087	0.747274
F533	F	0.051251	-0.141872	-0.099725
F534	F	0.301251	0.108128	0.150275
F535	F	0.551251	0.358128	0.400275
F536	F	0.801251	0.608128	0.650275
F537	F	0.479484	-0.635381	0.044487
F538	F	0.729484	-0.385381	0.294487
F539	F	0.979484	-0.135381	0.544487
F540	F	1.229484	0.114619	0.794487
F541	F	0.510616	-0.770842	-0.002720
F542	F	0.760616	-0.520842	0.247280
F543	F	1.010616	-0.270842	0.497280
F544	F	1.260616	-0.020842	0.747280
F545	F	0.202604	-0.141853	-0.102249
F546	F	0.452604	0.108147	0.147751
F547	F	0.702604	0.358147	0.397751
F548	F	0.952604	0.608147	0.647751
F549	F	0.330555	-0.095593	-0.104391
F550	F	0.580555	0.154407	0.145609
F551	F	0.830555	0.404407	0.395609
F552	F	1.080555	0.654407	0.645609
F553	F	-0.180798	-0.095632	-0.095915
F554	F	0.069202	0.154368	0.154085
F555	F	0.319202	0.404368	0.404085
F556	F	0.569202	0.654368	0.654085
F557	F	0.434682	-0.095583	-0.106131
F558	F	0.684682	0.154417	0.143869
F559	F	0.934682	0.404417	0.393869
F560	F	1.184682	0.654417	0.643869
F561	F	0.051259	0.141634	-0.099761
F562	F	0.301259	0.391634	0.150239
F563	F	0.551259	0.641634	0.400239
F564	F	0.801259	0.891634	0.650239
F565	F	0.434696	0.095400	-0.106132
F566	F	0.684696	0.345400	0.143868
F567	F	0.934696	0.595400	0.393868
F568	F	1.184696	0.845400	0.643868
F569	F	-0.052865	0.141626	-0.098038
F570	F	0.197135	0.391626	0.151962
F571	F	0.447135	0.641626	0.401962
F572	F	0.697135	0.891626	0.651962
H573	H	0.487257	-0.468457	0.032701
H574	H	0.737257	-0.218457	0.282701
H575	H	0.987257	0.031543	0.532701
H576	H	1.237257	0.281543	0.782701
F577	F	0.479470	-0.525138	0.044476
F578	F	0.729470	-0.275138	0.294476
F579	F	0.979470	-0.025138	0.544476
F580	F	1.229470	0.224862	0.794476
F581	F	-0.052877	-0.141876	-0.097986
F582	F	0.197123	0.108124	0.152014
F583	F	0.447123	0.358124	0.402014
F584	F	0.697123	0.608124	0.652014
F585	F	0.650421	-0.000140	0.316674
F586	F	0.900421	0.249860	0.566674
F587	F	1.150421	0.499860	0.816674
F588	F	1.400421	0.749860	1.066674
F589	F	0.098478	0.141638	-0.100543
F590	F	0.348478	0.391638	0.149457
F591	F	0.598478	0.641638	0.399457
F592	F	0.848478	0.891638	0.649457
F593	F	-0.284946	-0.095636	-0.094187
F594	F	-0.034946	0.154364	0.155813
F595	F	0.215054	0.404364	0.405813
F596	F	0.465054	0.654364	0.655813
F597	F	0.670279	-0.364854	-0.244802
F598	F	0.920279	-0.114854	0.005198
F599	F	1.170279	0.135146	0.255198
F600	F	1.420279	0.385146	0.505198
F601	F	0.202619	0.141638	-0.102267
F602	F	0.452619	0.391638	0.147733
F603	F	0.702619	0.641638	0.397733
F604	F	0.952619	0.891638	0.647733
H605	H	0.668130	-0.000142	0.531593
H606	H	0.918130	0.249858	0.781593
H607	H	1.168130	0.499858	1.031593
H608	H	1.418130	0.749858	1.281593
