data_functionalizedCrystal
_audit_creation_method	'MofGen! by Chris Wilmer'
_symmetry_space_group_name_H-M	'P1'
_symmetry_Int_Tables_number	1
_symmetry_cell_setting	triclinic
loop_
_symmetry_equiv_pos_as_xyz
  x,y,z
_cell_length_a	13.897449
_cell_length_b	21.395364
_cell_length_c	21.395355
_cell_angle_alpha	90.024727
_cell_angle_beta	89.993348
_cell_angle_gamma	89.999047
loop_
_atom_site_label
_atom_site_type_symbol
_atom_site_fract_x
_atom_site_fract_y
_atom_site_fract_z
Zn1	Zn	0.384169	0.957981	0.354316
Zn2	Zn	0.545449	0.957935	0.249560
Zn3	Zn	0.384165	0.853196	0.249552
Zn4	Zn	0.545419	0.853217	0.354300
O5	O	0.464801	0.905582	0.301932
O6	O	0.405578	1.045653	0.340430
O7	O	0.524065	0.944013	0.161881
O8	O	0.249184	0.867107	0.263453
O9	O	0.524069	1.045619	0.263466
O10	O	0.249187	0.944092	0.340422
O11	O	0.405570	0.867062	0.161876
O12	O	0.405541	0.765521	0.263438
O13	O	0.524019	0.867142	0.441980
O14	O	0.524014	0.765536	0.340395
O15	O	0.405549	0.944112	0.441992
O16	O	0.680427	0.944033	0.263451
O17	O	0.680405	0.867097	0.340403
C18	C	0.464775	0.742795	0.301914
C19	C	0.464787	0.673154	0.301921
C20	C	0.526603	0.171382	0.341965
C21	C	0.526603	0.236817	0.341959
C22	C	0.464822	0.269515	0.301952
C23	C	0.403054	0.236773	0.261938
C24	C	0.403062	0.171338	0.261941
C25	C	0.377893	0.373176	0.297089
C26	C	0.377883	0.438609	0.297090
C27	C	0.464796	0.471336	0.301938
C28	C	0.551723	0.438622	0.306798
C29	C	0.551731	0.373188	0.306802
C30	C	0.464806	0.340468	0.301944
C31	C	0.526566	0.575023	0.341940
C32	C	0.526568	0.640460	0.341929
C33	C	0.403010	0.640414	0.261911
C34	C	0.403017	0.574979	0.261919
C35	C	0.464793	0.542287	0.301937
C36	C	0.213208	0.905602	0.301939
C37	C	0.105994	0.905611	0.301941
C38	C	-0.090301	0.905630	0.301961
C39	C	0.018931	0.905621	0.301952
C40	C	0.715415	0.905580	0.301940
C41	C	0.822629	0.905636	0.301964
C42	C	0.464781	0.905634	0.465356
C43	C	0.464773	0.905657	0.534997
C44	C	0.464827	1.069006	0.301951
C45	C	0.464839	1.138647	0.301959
C46	C	0.464751	0.905567	0.139145
C47	C	0.464487	0.905666	0.069504
C48	C	0.403083	0.945733	0.567717
C49	C	0.403042	0.945732	0.633153
C50	C	0.464707	0.905661	0.665865
C51	C	0.526401	0.865577	0.633137
C52	C	0.526434	0.865575	0.567703
C53	C	0.551559	0.900713	0.769542
C54	C	0.551528	0.900720	0.834975
C55	C	0.464605	0.905665	0.867686
C56	C	0.377711	0.910617	0.834956
C57	C	0.377744	0.910615	0.769521
C58	C	0.464678	0.905659	0.736818
C59	C	0.402865	0.945743	0.971359
C60	C	0.402822	0.945738	1.036796
C61	C	0.526190	0.865586	1.036779
C62	C	0.526225	0.865588	0.971343
C63	C	0.464564	0.905670	0.938637
H64	H	0.576870	0.667112	0.374506
F65	F	0.337271	0.540139	0.219342
H66	H	0.352710	0.667036	0.229335
F67	F	0.592096	0.822918	0.532879
F68	F	0.591888	0.822935	0.936519
F69	F	0.644008	0.895456	0.869803
H70	H	0.576898	0.263475	0.374539
F71	F	0.592317	0.540228	0.384527
F72	F	0.285368	0.473420	0.291926
H73	H	0.307113	0.346536	0.293131
F74	F	0.644083	0.895464	0.734736
F75	F	0.592027	0.822929	0.667953
H76	H	0.306992	0.914645	0.742875
H77	H	0.352873	0.978370	0.541092
F78	F	0.592355	0.136593	0.384553
F79	F	0.285194	0.915883	0.869763
F80	F	0.337237	0.988399	0.936548
F81	F	0.337320	0.136499	0.219359
H82	H	0.352581	0.978372	1.063435
F83	F	0.644242	0.338373	0.311972
H84	H	0.352801	0.978366	0.659798
F85	F	0.644231	0.473446	0.311957
F86	F	0.337305	0.271573	0.219358
F87	F	0.591813	0.822934	1.071590
