data_functionalizedCrystal
_audit_creation_method	'MofGen! by Chris Wilmer'
_symmetry_space_group_name_H-M	'P1'
_symmetry_Int_Tables_number	1
_symmetry_cell_setting	triclinic
loop_
_symmetry_equiv_pos_as_xyz
  x,y,z
_cell_length_a	12.594517
_cell_length_b	12.594516
_cell_length_c	12.594509
_cell_angle_alpha	89.969161
_cell_angle_beta	89.988522
_cell_angle_gamma	90.009410
loop_
_atom_site_label
_atom_site_type_symbol
_atom_site_fract_x
_atom_site_fract_y
_atom_site_fract_z
Zn1	Zn	1.627286	-0.423827	-0.601561
Zn2	Zn	1.627184	-0.601837	-0.423574
Zn3	Zn	1.449289	-0.423860	-0.423620
Zn4	Zn	1.449280	-0.601751	-0.601535
O5	O	1.538260	-0.512819	-0.512573
O6	O	1.776218	-0.447463	-0.577942
O7	O	1.603548	-0.578278	-0.274635
O8	O	1.472948	-0.274910	-0.447255
O9	O	1.776143	-0.578246	-0.447176
O10	O	1.603721	-0.274886	-0.577987
O11	O	1.472849	-0.447519	-0.274668
O12	O	1.300342	-0.447436	-0.447230
O13	O	1.472931	-0.578099	-0.750484
O14	O	1.300335	-0.578131	-0.577943
O15	O	1.603711	-0.447379	-0.750503
O16	O	1.603538	-0.750772	-0.447151
O17	O	1.472832	-0.750708	-0.577898
C18	C	1.261719	-0.512779	-0.512589
C19	C	1.143413	-0.512787	-0.512621
C20	C	1.538202	-0.789360	-0.512540
C21	C	1.538275	-0.907665	-0.512561
C22	C	1.609496	-1.047678	-0.441572
C23	C	1.512366	-0.976986	-0.415430
C24	C	1.635393	-0.976785	-0.538655
C25	C	1.441203	-1.047760	-0.486461
C26	C	1.564296	-1.047564	-0.609732
C27	C	1.467099	-0.976905	-0.583627
C28	C	1.074187	-0.584012	-0.583579
C29	C	1.003374	-0.486966	-0.609761
C30	C	1.003427	-0.609913	-0.486415
C31	C	1.074159	-0.415689	-0.538854
C32	C	1.074218	-0.538702	-0.415463
C33	C	1.003437	-0.441590	-0.441609
C34	C	1.815881	-0.512860	-0.512557
C35	C	1.934186	-0.512878	-0.512550
C36	C	1.538331	-0.512726	-0.790194
C37	C	1.538361	-0.512686	-0.908499
C38	C	1.538347	-0.235198	-0.512629
C39	C	1.538383	-0.116893	-0.512653
C40	C	1.467252	-0.583744	-0.977742
C41	C	1.564374	-0.609757	-1.048515
C42	C	1.441315	-0.486609	-1.048526
C43	C	1.635534	-0.538750	-0.977714
C44	C	1.512410	-0.415556	-0.977719
C45	C	1.609599	-0.441532	-1.048459
C46	C	1.538250	-0.512835	-0.236032
C47	C	1.538426	-0.512575	-0.117727
H48	H	1.669605	-1.078752	-0.381454
H49	H	1.406845	-0.946027	-0.643699
Br50	Br	1.367100	-0.684050	-0.925985
H51	H	1.490396	-0.945981	-0.333293
Br52	Br	1.125719	-0.278808	-0.575903
H53	H	1.490396	-0.333487	-0.946598
H54	H	1.586359	-0.691850	-1.079612
Br55	Br	1.304348	-1.099491	-0.449582
H56	H	0.972352	-0.692013	-0.464282
Br57	Br	0.951982	-0.341154	-0.341541
H58	H	1.105359	-0.560619	-0.333353
H59	H	1.105255	-0.644128	-0.643662
H60	H	1.669830	-0.381393	-1.079314
H61	H	1.717655	-0.560853	-0.946739
H62	H	1.586294	-1.078592	-0.691845
Br63	Br	1.772203	-0.924818	-0.575372
H64	H	0.972256	-0.465078	-0.691895
H65	H	1.359218	-0.464599	-1.079631
