data_functionalizedCrystal
_audit_creation_method	'MofGen! by Chris Wilmer'
_symmetry_space_group_name_H-M	'P1'
_symmetry_Int_Tables_number	1
_symmetry_cell_setting	triclinic
loop_
_symmetry_equiv_pos_as_xyz
  x,y,z
_cell_length_a	29.839134
_cell_length_b	25.639242
_cell_length_c	25.639217
_cell_angle_alpha	89.918438
_cell_angle_beta	90.100538
_cell_angle_gamma	89.998458
loop_
_atom_site_label
_atom_site_type_symbol
_atom_site_fract_x
_atom_site_fract_y
_atom_site_fract_z
Zn1	Zn	0.178543	0.799650	-0.295789
Zn2	Zn	0.511876	1.132984	0.037544
Zn3	Zn	0.845209	1.466317	0.370878
Zn4	Zn	0.253781	0.799533	-0.208372
Zn5	Zn	0.587114	1.132867	0.124961
Zn6	Zn	0.920448	1.466200	0.458294
Zn7	Zn	0.178660	0.712136	-0.208353
Zn8	Zn	0.511993	1.045469	0.124980
Zn9	Zn	0.845327	1.378803	0.458314
Zn10	Zn	0.253641	0.712222	-0.295763
Zn11	Zn	0.586974	1.045555	0.037571
Zn12	Zn	0.920307	1.378888	0.370904
O13	O	0.216156	0.755885	-0.252069
O14	O	0.549489	1.089219	0.081264
O15	O	0.882823	1.422552	0.414597
O16	O	0.188533	0.872800	-0.284212
O17	O	0.521866	1.206133	0.049121
O18	O	0.855200	1.539467	0.382454
O19	O	0.243924	0.787855	-0.135204
O20	O	0.577257	1.121188	0.198129
O21	O	0.910590	1.454522	0.531462
O22	O	0.115777	0.723758	-0.219954
O23	O	0.449111	1.057092	0.113379
O24	O	0.782444	1.390425	0.446712
O25	O	0.243810	0.872714	-0.219988
O26	O	0.577143	1.206047	0.113346
O27	O	0.910477	1.539381	0.446679
O28	O	0.115691	0.788055	-0.284193
O29	O	0.449024	1.121388	0.049140
O30	O	0.782358	1.454721	0.382473
O31	O	0.188733	0.723645	-0.135190
O32	O	0.522066	1.056978	0.198143
O33	O	0.855399	1.390311	0.531477
O34	O	0.188597	0.638982	-0.219929
O35	O	0.521930	0.972316	0.113405
O36	O	0.855263	1.305649	0.446738
O37	O	0.243571	0.723904	-0.368932
O38	O	0.576904	1.057238	-0.035598
O39	O	0.910238	1.390571	0.297735
O40	O	0.243685	0.639045	-0.284148
O41	O	0.577018	0.972378	0.049185
O42	O	0.910351	1.305712	0.382518
O43	O	0.188397	0.788138	-0.368951
O44	O	0.521730	1.121471	-0.035618
O45	O	0.855063	1.454804	0.297716
O46	O	0.316629	0.787938	-0.219962
O47	O	0.649963	1.121271	0.113371
O48	O	0.983296	1.454605	0.446705
O49	O	0.316526	0.723790	-0.284167
O50	O	0.649860	1.057124	0.049166
O51	O	0.983193	1.390457	0.382499
C52	C	0.216138	0.620043	-0.252034
C53	C	0.549472	0.953376	0.081300
C54	C	0.882805	1.286709	0.414633
C55	C	0.216142	0.561929	-0.252031
C56	C	0.549475	0.895262	0.081302
C57	C	0.882808	1.228595	0.414636
C58	C	0.098978	0.755910	-0.252075
C59	C	0.432311	1.089243	0.081259
C60	C	0.765644	1.422577	0.414592
C61	C	0.049043	0.755921	-0.252077
C62	C	0.382377	1.089254	0.081256
C63	C	0.715710	1.422587	0.414590
C64	C	0.244888	0.201607	-0.285477
C65	C	0.578222	0.534941	0.047857
C66	C	0.911555	0.868274	0.381190
C67	C	0.244891	0.147003	-0.285485
C68	C	0.578224	0.480336	0.047848
C69	C	0.911558	0.813670	0.381182
O70	O	0.269311	0.118802	-0.313892
O71	O	0.602644	0.452135	0.019442
O72	O	0.935977	0.785468	0.352775
N73	N	0.216168	0.119646	-0.252103
N74	N	0.549502	0.452980	0.081230
N75	N	0.882835	0.786313	0.414563
C76	C	0.187438	0.146897	-0.218715
C77	C	0.520771	0.480230	0.114618
C78	C	0.854104	0.813563	0.447952
O79	O	0.163007	0.118614	-0.190323
O80	O	0.496340	0.451947	0.143011
O81	O	0.829673	0.785280	0.476344
C82	C	0.187433	0.201500	-0.218710
C83	C	0.520766	0.534833	0.114623
C84	C	0.854100	0.868167	0.447957
C85	C	0.216161	0.228854	-0.252090
C86	C	0.549494	0.562187	0.081243
C87	C	0.882828	0.895521	0.414577
C88	C	0.273614	0.228961	-0.318854
C89	C	0.606947	0.562295	0.014479
C90	C	0.940280	0.895628	0.347812
C91	C	0.273611	0.283562	-0.318845
C92	C	0.606945	0.616895	0.014488
C93	C	0.940278	0.950228	0.347821
C94	C	0.244884	0.310808	-0.285459
C95	C	0.578217	0.644142	0.047875
C96	C	0.911551	0.977475	0.381208
C97	C	0.216159	0.283454	-0.252081
C98	C	0.549492	0.616788	0.081253
C99	C	0.882825	0.950121	0.414586
C100	C	0.158701	0.228750	-0.185325
C101	C	0.492034	0.562083	0.148009
C102	C	0.825367	0.895416	0.481342
C103	C	0.158698	0.283357	-0.185323
C104	C	0.492031	0.616690	0.148011
C105	C	0.825365	0.950023	0.481344
C106	C	0.187426	0.310710	-0.218703
C107	C	0.520759	0.644044	0.114631
C108	C	0.854093	0.977377	0.447964
C109	C	0.187429	0.365302	-0.218685
C110	C	0.520762	0.698635	0.114648
C111	C	0.854096	1.031968	0.447982
N112	N	0.216152	0.392658	-0.252067
N113	N	0.549485	0.725992	0.081267
N114	N	0.882818	1.059325	0.414600
C115	C	0.244879	0.365412	-0.285453
C116	C	0.578213	0.698745	0.047880
C117	C	0.911546	1.032078	0.381213
C118	C	0.187449	0.032226	-0.218729
C119	C	0.520783	0.365560	0.114604
C120	C	0.854116	0.698893	0.447937
C121	C	0.187456	-0.022376	-0.218731
C122	C	0.520789	0.310957	0.114602
C123	C	0.854122	0.644291	0.447935
C124	C	0.244909	-0.022266	-0.285502
C125	C	0.578242	0.311067	0.047831
C126	C	0.911575	0.644401	0.381165
C127	C	0.244904	0.032337	-0.285497
C128	C	0.578237	0.365671	0.047836
C129	C	0.911571	0.699004	0.381170
C130	C	0.216172	0.059583	-0.252111
C131	C	0.549505	0.392916	0.081223
C132	C	0.882839	0.726250	0.414556
C133	C	0.244873	0.480077	-0.285431
C134	C	0.578206	0.813410	0.047902
C135	C	0.911539	1.146743	0.381235
C136	C	0.244869	0.534682	-0.285418
C137	C	0.578202	0.868015	0.047916
C138	C	0.911536	1.201349	0.381249
C139	C	0.187415	0.534567	-0.218649
C140	C	0.520748	0.867901	0.114684
C141	C	0.854081	1.201234	0.448017
C142	C	0.187420	0.479967	-0.218661
C143	C	0.520753	0.813300	0.114673
C144	C	0.854086	1.146633	0.448006
C145	C	0.216150	0.452723	-0.252056
C146	C	0.549483	0.786056	0.081277
C147	C	0.882817	1.119389	0.414611
O148	O	0.163021	0.393538	-0.190294
O149	O	0.496354	0.726871	0.143039
O150	O	0.829687	1.060204	0.476372
O151	O	0.269302	0.393701	-0.313846
O152	O	0.602635	0.727035	0.019487
O153	O	0.935969	1.060368	0.352821
C154	C	-0.260558	0.722433	-0.218643
C155	C	0.072775	1.055766	0.114690
C156	C	0.406108	1.389099	0.448023
C157	C	-0.448231	0.722436	-0.218648
C158	C	-0.114898	1.055769	0.114685
C159	C	0.218435	1.389102	0.448018
O160	O	-0.472461	0.693952	-0.190222
O161	O	-0.139127	1.027285	0.143112
O162	O	0.194206	1.360618	0.476445
N163	N	-0.471742	0.755913	-0.252093
N164	N	-0.138409	1.089246	0.081240
N165	N	0.194925	1.422580	0.414573
C166	C	-0.448331	0.789389	-0.285542
C167	C	-0.114998	1.122723	0.047792
C168	C	0.218335	1.456056	0.381125
O169	O	-0.472635	0.817860	-0.313993
O170	O	-0.139301	1.151193	0.019341
O171	O	0.194032	1.484527	0.352674
C172	C	-0.260659	0.789383	-0.285539
C173	C	0.072674	1.122717	0.047794
C174	C	0.406008	1.456050	0.381128
C175	C	-0.237151	0.755908	-0.252088
C176	C	0.096182	1.089241	0.081245
C177	C	0.429516	1.422574	0.414578
C178	C	-0.237050	0.688959	-0.185196
C179	C	0.096283	1.022293	0.148138
C180	C	0.429616	1.355626	0.481471
C181	C	-0.190135	0.688961	-0.185193
C182	C	0.143199	1.022294	0.148141
C183	C	0.476532	1.355628	0.481474
C184	C	-0.166727	0.722436	-0.218638
C185	C	0.166606	1.055769	0.114696
C186	C	0.499939	1.389102	0.448029
C187	C	-0.190235	0.755909	-0.252085
C188	C	0.143098	1.089242	0.081248
C189	C	0.476431	1.422576	0.414581
C190	C	-0.237249	0.822857	-0.318990
C191	C	0.096084	1.156190	0.014344
C192	C	0.429417	1.489523	0.347677
C193	C	-0.190328	0.822851	-0.318987
C194	C	0.143005	1.156185	0.014346
C195	C	0.476338	1.489518	0.347680
C196	C	-0.166820	0.789376	-0.285536
C197	C	0.166513	1.122709	0.047797
C198	C	0.499847	1.456042	0.381130
C199	C	-0.119913	0.789386	-0.285527
C200	C	0.213421	1.122719	0.047806
C201	C	0.546754	1.456052	0.381139
N202	N	-0.096402	0.755908	-0.252082
N203	N	0.236931	1.089242	0.081251
N204	N	0.570264	1.422575	0.414584
C205	C	-0.119810	0.722434	-0.218638
C206	C	0.213524	1.055767	0.114696
C207	C	0.546857	1.389100	0.448029
C208	C	-0.546862	0.789391	-0.285540
C209	C	-0.213529	1.122724	0.047793
C210	C	0.119805	1.456058	0.381127
C211	C	-0.593780	0.789393	-0.285540
C212	C	-0.260446	1.122727	0.047793
C213	C	0.072887	1.456060	0.381127
C214	C	-0.593677	0.722439	-0.218647
C215	C	-0.260343	1.055772	0.114686
C216	C	0.072990	1.389105	0.448019
C217	C	-0.546758	0.722440	-0.218645
C218	C	-0.213425	1.055773	0.114688
C219	C	0.119909	1.389106	0.448022
C220	C	-0.523351	0.755914	-0.252095
C221	C	-0.190018	1.089247	0.081238
C222	C	0.143315	1.422580	0.414572
C223	C	-0.021284	0.722440	-0.218634
C224	C	0.312050	1.055773	0.114700
C225	C	0.645383	1.389106	0.448033
C226	C	0.025636	0.722446	-0.218632
C227	C	0.358969	1.055779	0.114701
C228	C	0.692303	1.389112	0.448034
C229	C	0.025529	0.789398	-0.285527
C230	C	0.358862	1.122731	0.047807
C231	C	0.692195	1.456065	0.381140
C232	C	-0.021387	0.789394	-0.285526
C233	C	0.311947	1.122727	0.047807
C234	C	0.645280	1.456061	0.381140
C235	C	-0.044792	0.755911	-0.252078
C236	C	0.288542	1.089244	0.081255
C237	C	0.621875	1.422577	0.414588
O238	O	-0.095654	0.817851	-0.313943
O239	O	0.237679	1.151184	0.019390
O240	O	0.571012	1.484517	0.352723
O241	O	-0.095498	0.693959	-0.190199
O242	O	0.237835	1.027292	0.143134
O243	O	0.571169	1.360626	0.476468
C244	C	-0.307474	0.722431	-0.218646
C245	C	0.025860	1.055764	0.114687
C246	C	0.359193	1.389098	0.448020
C247	C	-0.330982	0.755904	-0.252094
C248	C	0.002351	1.089238	0.081239
C249	C	0.335685	1.422571	0.414573
C250	C	-0.307575	0.789379	-0.285539
C251	C	0.025759	1.122713	0.047795
C252	C	0.359092	1.456046	0.381128
C253	C	-0.377900	0.755907	-0.252094
C254	C	-0.044566	1.089240	0.081239
C255	C	0.288767	1.422573	0.414573
C256	C	-0.401307	0.722432	-0.218649
C257	C	-0.067974	1.055765	0.114684
C258	C	0.265360	1.389098	0.448017
C259	C	-0.377797	0.688955	-0.185204
C260	C	-0.044463	1.022288	0.148129
C261	C	0.288870	1.355621	0.481462
C262	C	-0.330881	0.688956	-0.185202
C263	C	0.002452	1.022289	0.148132
C264	C	0.335786	1.355623	0.481465
C265	C	-0.331085	0.822857	-0.318984
C266	C	0.002248	1.156190	0.014350
C267	C	0.335582	1.489523	0.347683
C268	C	-0.378000	0.822853	-0.318983
C269	C	-0.044667	1.156186	0.014350
C270	C	0.288666	1.489519	0.347683
C271	C	-0.401408	0.789378	-0.285539
C272	C	-0.068075	1.122711	0.047795
C273	C	0.265259	1.456044	0.381128
C274	C	0.332879	0.755875	-0.252075
C275	C	0.666212	1.089208	0.081258
C276	C	0.999545	1.422542	0.414591
C277	C	0.382813	0.755918	-0.252095
C278	C	0.716146	1.089252	0.081238
C279	C	1.049480	1.422585	0.414571
C280	C	0.215955	0.756044	-0.388443
C281	C	0.549288	1.089377	-0.055109
C282	C	0.882622	1.422710	0.278224
C283	C	0.215869	0.756111	-0.446557
C284	C	0.549203	1.089444	-0.113224
C285	C	0.882536	1.422778	0.220110
C286	C	0.216174	0.892258	-0.252105
C287	C	0.549507	1.225592	0.081228
C288	C	0.882841	1.558925	0.414562
C289	C	0.216182	0.950372	-0.252120
C290	C	0.549515	1.283706	0.081213
C291	C	0.882848	1.617039	0.414546
C292	C	0.216324	0.755758	-0.116226
C293	C	0.549657	1.089091	0.217107
C294	C	0.882990	1.422424	0.550440
C295	C	0.216283	0.755792	-0.058112
C296	C	0.549616	1.089125	0.275221
C297	C	0.882950	1.422458	0.608554
C298	C	0.187171	0.789119	0.192918
C299	C	0.520504	1.122452	0.526251
C300	C	0.853838	1.455785	0.859585
C301	C	0.187208	0.789089	0.138314
C302	C	0.520541	1.122422	0.471647
C303	C	0.853874	1.455756	0.804980
O304	O	0.162610	0.817294	0.109939
O305	O	0.495943	1.150627	0.443272
O306	O	0.829276	1.483961	0.776605
N307	N	0.216162	0.755877	0.111161
N308	N	0.549495	1.089211	0.444495
N309	N	0.882829	1.422544	0.777828
C310	C	0.245078	0.722689	0.138616
C311	C	0.578412	1.056023	0.471949
C312	C	0.911745	1.389356	0.805283
O313	O	0.269709	0.694437	0.110507
O314	O	0.603043	1.027770	0.443840
O315	O	0.936376	1.361104	0.777173
C316	C	0.245039	0.722716	0.193219
C317	C	0.578372	1.056050	0.526552
C318	C	0.911706	1.389383	0.859886
C319	C	0.216086	0.755934	0.220369
C320	C	0.549419	1.089267	0.553702
C321	C	0.882753	1.422601	0.887035
C322	C	0.158220	0.822333	0.220067
C323	C	0.491553	1.155666	0.553401
C324	C	0.824886	1.489000	0.886734
C325	C	0.158184	0.822363	0.274668
C326	C	0.491517	1.155696	0.608001
C327	C	0.824850	1.489030	0.941335
C328	C	0.187099	0.789179	0.302119
C329	C	0.520432	1.122512	0.635452
C330	C	0.853766	1.455845	0.968785
C331	C	0.216050	0.755964	0.274969
C332	C	0.549383	1.089297	0.608302
C333	C	0.882717	1.422631	0.941636
C334	C	0.273953	0.689526	0.220673
C335	C	0.607286	1.022859	0.554006
C336	C	0.940619	1.356193	0.887339
C337	C	0.273911	0.689556	0.275280
C338	C	0.607244	1.022889	0.608613
C339	C	0.940577	1.356222	0.941946
C340	C	0.244958	0.722773	0.302429
C341	C	0.578291	1.056107	0.635763
C342	C	0.911624	1.389440	0.969096
C343	C	0.244929	0.722810	0.357020
C344	C	0.578262	1.056143	0.690354
C345	C	0.911596	1.389476	1.023687
N346	N	0.215975	0.756021	0.384173
N347	N	0.549308	1.089355	0.717506
N348	N	0.882641	1.422688	1.050840
C349	C	0.187060	0.789206	0.356722
C350	C	0.520393	1.122539	0.690055
C351	C	0.853726	1.455873	1.023389
C352	C	0.245158	0.722634	0.023945
C353	C	0.578491	1.055967	0.357279
C354	C	0.911825	1.389301	0.690612
C355	C	0.245200	0.722609	-0.030657
C356	C	0.578533	1.055942	0.302677
C357	C	0.911867	1.389276	0.636010
C358	C	0.187328	0.789008	-0.030955
C359	C	0.520662	1.122342	0.302378
C360	C	0.853995	1.455675	0.635711
C361	C	0.187289	0.789035	0.023648
C362	C	0.520622	1.122369	0.356981
C363	C	0.853956	1.455702	0.690315
C364	C	0.216204	0.755846	0.051098
C365	C	0.549537	1.089179	0.384431
C366	C	0.882870	1.422512	0.717765
C367	C	0.186986	0.789267	0.471387
C368	C	0.520320	1.122600	0.804720
C369	C	0.853653	1.455934	1.138054
C370	C	0.186954	0.789296	0.525992
C371	C	0.520288	1.122629	0.859326
C372	C	0.853621	1.455962	1.192659
C373	C	0.244824	0.722894	0.526286
C374	C	0.578157	1.056228	0.859619
C375	C	0.911491	1.389561	1.192953
C376	C	0.244858	0.722868	0.471685
C377	C	0.578191	1.056201	0.805019
C378	C	0.911525	1.389534	1.138352
C379	C	0.215936	0.756055	0.444237
C380	C	0.549269	1.089389	0.777571
C381	C	0.882602	1.422722	1.110904
O382	O	0.269513	0.694618	0.385430
O383	O	0.602846	1.027951	0.718763
O384	O	0.936180	1.361284	1.052097
O385	O	0.162429	0.817449	0.384838
O386	O	0.495762	1.150782	0.718171
O387	O	0.829095	1.484115	1.051505
H388	H	0.268264	0.556951	-0.312600
H389	H	0.601598	0.890285	0.020733
H390	H	0.934931	1.223618	0.354066
Br391	Br	0.284503	0.677536	-0.067496
Br392	Br	0.617837	1.010869	0.265838
Br393	Br	0.951170	1.344203	0.599171
Br394	Br	0.283893	-0.059254	-0.330818
Br395	Br	0.617226	0.274079	0.002516
Br396	Br	0.950559	0.607412	0.335849
Br397	Br	0.148474	-0.059492	-0.173420
Br398	Br	0.481807	0.273841	0.159914
Br399	Br	0.815140	0.607174	0.493247
H400	H	0.163377	0.816347	0.548095
H401	H	0.496710	1.149681	0.881428
H402	H	0.830044	1.483014	1.214762
Br403	Br	0.119708	0.191640	-0.140023
Br404	Br	0.453041	0.524974	0.193310
Br405	Br	0.786374	0.858307	0.526643
Br406	Br	0.313153	0.644508	0.312530
Br407	Br	0.646486	0.977841	0.645863
Br408	Br	0.979819	1.311174	0.979197
H409	H	0.268706	0.695606	0.046292
H410	H	0.602039	1.028939	0.379625
H411	H	0.935373	1.362273	0.712959
Br412	Br	-0.158565	0.868282	-0.364387
Br413	Br	0.174768	1.201616	-0.031054
Br414	Br	0.508102	1.534949	0.302279
H415	H	0.164053	0.054406	-0.191539
H416	H	0.497386	0.387740	0.141795
H417	H	0.830719	0.721073	0.475128
H418	H	0.135298	0.305537	-0.158138
H419	H	0.468631	0.638871	0.175195
H420	H	0.801964	0.972204	0.508529
H421	H	0.268438	0.695824	0.449579
H422	H	0.601771	1.029157	0.782912
H423	H	0.935105	1.362491	1.116246
H424	H	0.163434	0.816290	0.449045
H425	H	0.496767	1.149623	0.782378
H426	H	0.830100	1.482957	1.115712
H427	H	0.297004	0.305828	-0.346028
H428	H	0.630337	0.639162	-0.012695
H429	H	0.963670	0.972495	0.320639
H430	H	0.044774	0.695185	-0.191391
H431	H	0.378107	1.028519	0.141943
H432	H	0.711441	1.361852	0.475276
H433	H	0.164028	0.457694	-0.191479
H434	H	0.497361	0.791027	0.141854
H435	H	0.830695	1.124361	0.475188
Br436	Br	0.148430	0.571555	-0.173341
Br437	Br	0.481763	0.904889	0.159993
Br438	Br	0.815096	1.238222	0.493326
Br439	Br	0.148086	0.834045	-0.068220
Br440	Br	0.481419	1.167378	0.265113
Br441	Br	0.814753	1.500711	0.598446
H442	H	0.268367	0.695878	0.548646
H443	H	0.601701	1.029212	0.881980
H444	H	0.935034	1.362545	1.215313
H445	H	-0.612917	0.816658	-0.312773
H446	H	-0.279583	1.149991	0.020560
H447	H	0.053750	1.483325	0.353894
H448	H	0.297529	0.662476	0.198577
H449	H	0.630863	0.995810	0.531910
H450	H	0.964196	1.329143	0.865244
H451	H	-0.311745	0.661697	-0.157963
H452	H	0.021588	0.995030	0.175371
H453	H	0.354922	1.328363	0.508704
H454	H	-0.040335	0.695174	-0.191398
H455	H	0.292999	1.028507	0.141936
H456	H	0.626332	1.361840	0.475269
H457	H	0.134671	0.849356	0.197723
H458	H	0.468004	1.182689	0.531056
H459	H	0.801338	1.516023	0.864389
Br460	Br	0.118886	0.867444	0.311505
Br461	Br	0.452219	1.200777	0.644839
Br462	Br	0.785552	1.534110	0.978172
Br463	Br	-0.158238	0.643523	-0.139796
Br464	Br	0.175095	0.976857	0.193537
Br465	Br	0.508428	1.310190	0.526870
H466	H	0.163712	0.816083	0.045750
H467	H	0.497046	1.149417	0.379083
H468	H	0.830379	1.482750	0.712416
Br469	Br	-0.268808	0.643520	-0.139803
Br470	Br	0.064525	0.976853	0.193531
Br471	Br	0.397858	1.310187	0.526864
H472	H	0.297007	0.206783	-0.346045
H473	H	0.630340	0.540116	-0.012711
H474	H	0.963674	0.873449	0.320622
Br475	Br	0.283893	0.069455	-0.330800
Br476	Br	0.617226	0.402788	0.002533
Br477	Br	0.950560	0.736121	0.335867
Br478	Br	-0.514859	0.677007	-0.173246
Br479	Br	-0.181526	1.010340	0.160087
Br480	Br	0.151808	1.343674	0.493421
Br481	Br	-0.625453	0.677009	-0.173258
Br482	Br	-0.292119	1.010342	0.160076
Br483	Br	0.041214	1.343676	0.493409
H484	H	0.268267	0.457901	-0.312626
H485	H	0.601600	0.791235	0.020707
H486	H	0.934933	1.124568	0.354040
H487	H	-0.527809	0.816653	-0.312779
H488	H	-0.194475	1.149986	0.020554
H489	H	0.138858	1.483319	0.353887
H490	H	-0.256383	0.850115	-0.346229
H491	H	0.076950	1.183448	-0.012895
H492	H	0.410284	1.516782	0.320438
H493	H	-0.040527	0.816658	-0.312760
H494	H	0.292806	1.149992	0.020574
H495	H	0.626139	1.483325	0.353907
H496	H	0.044595	0.816654	-0.312755
H497	H	0.377929	1.149987	0.020578
H498	H	0.711262	1.483321	0.353912
H499	H	-0.397138	0.850117	-0.346222
H500	H	-0.063804	1.183451	-0.012889
H501	H	0.269529	1.516784	0.320445
Br502	Br	-0.409573	0.643527	-0.139813
Br503	Br	-0.076240	0.976861	0.193520
Br504	Br	0.257094	1.310194	0.526854
Br505	Br	-0.299325	0.868288	-0.364382
Br506	Br	0.034008	1.201621	-0.031048
Br507	Br	0.367341	1.534955	0.302285
