data_functionalizedCrystal
_audit_creation_method	'MofGen! by Chris Wilmer'
_symmetry_space_group_name_H-M	'P1'
_symmetry_Int_Tables_number	1
_symmetry_cell_setting	triclinic
loop_
_symmetry_equiv_pos_as_xyz
  x,y,z
_cell_length_a	10.654550
_cell_length_b	17.699083
_cell_length_c	9.130313
_cell_angle_alpha	89.994594
_cell_angle_beta	89.999724
_cell_angle_gamma	83.883973
loop_
_atom_site_label
_atom_site_type_symbol
_atom_site_fract_x
_atom_site_fract_y
_atom_site_fract_z
O1	O	1.665979	0.106303	-0.121693
O2	O	1.300323	0.116430	-0.121721
O3	O	1.493481	0.001243	-0.121693
O4	O	1.472820	0.221490	-0.121721
O5	O	1.493468	0.001240	0.121906
O6	O	1.300310	0.116427	0.121878
O7	O	1.665966	0.106299	0.121906
Cu8	Cu	1.483136	0.111363	0.144134
Cu9	Cu	1.483152	0.111367	-0.143949
O10	O	1.472807	0.221487	0.121878
C11	C	1.253531	0.115685	0.000076
C12	C	1.114127	0.113460	0.000066
C13	C	1.033454	0.181281	0.000061
C14	C	0.902470	0.179186	0.000087
C15	C	0.932844	0.041444	0.000115
C16	C	1.063826	0.043539	0.000100
C17	C	1.492735	-0.026960	0.000106
C18	C	1.490514	-0.110993	0.000107
C19	C	1.603894	-0.158893	0.000117
C20	C	1.601799	-0.237849	0.000104
C21	C	1.486323	-0.268904	0.000091
C22	C	1.372935	-0.220998	0.000076
C23	C	1.375030	-0.142043	0.000079
C24	C	1.364481	-0.539415	0.000064
C25	C	1.362394	-0.618376	0.000065
C26	C	1.591249	-0.635221	0.000089
C27	C	1.593345	-0.556266	0.000092
C28	C	1.479957	-0.508367	0.000069
C29	C	1.482229	-0.422753	0.000080
C30	C	1.484050	-0.354516	0.000090
C31	C	1.712757	0.107045	0.000106
C32	C	1.852161	0.109269	0.000107
C33	C	1.473554	0.249690	0.000075
C34	C	1.475775	0.333722	0.000065
N35	N	1.483135	0.111360	0.346757
N36	N	1.483164	0.111364	-0.346572
C37	C	1.568694	0.060376	0.423421
C38	C	1.568706	0.060376	0.576758
C39	C	1.397596	0.162350	0.576753
C40	C	1.397579	0.162345	0.423419
H41	H	1.129514	-0.011692	0.000108
C42	C	0.836244	0.295937	-0.125173
C43	C	0.813793	0.253736	0.000072
H44	H	0.781492	0.341961	-0.125183
H45	H	0.921441	0.307188	-0.125178
H46	H	0.821002	0.267285	-0.210099
H47	H	0.829044	0.282386	0.084998
H48	H	0.728576	0.242487	0.000090
H49	H	1.638374	0.018860	0.639173
H50	H	1.327939	0.203863	0.639187
H51	H	1.327900	0.203862	0.360995
H52	H	1.683575	-0.674231	0.000100
C53	C	1.163110	0.263552	-0.125207
C54	C	1.088743	0.258137	0.000032
H55	H	1.197231	0.311004	-0.125225
H56	H	1.229901	0.223468	-0.125197
H57	H	1.112621	0.259868	-0.210137
H58	H	1.139234	0.261815	0.084962
H59	H	1.021943	0.298233	0.000035
C60	C	1.739028	-0.079890	0.125361
C61	C	1.730832	-0.124763	0.000132
H62	H	1.817401	-0.058827	0.125367
H63	H	1.671815	-0.040063	0.125348
H64	H	1.733447	-0.110353	0.210297
H65	H	1.736404	-0.094298	-0.084805
H66	H	1.798064	-0.164596	0.000132
C67	C	1.828229	-0.246570	0.000164
C68	C	1.726431	-0.290501	0.000132
H69	H	1.905173	-0.279077	0.000191
H70	H	1.824300	-0.215422	-0.084779
H71	H	1.824260	-0.215426	0.085118
H72	H	1.730394	-0.321642	-0.084828
H73	H	1.730361	-0.321662	0.085084
H74	H	0.891873	-0.015484	0.000152
H75	H	1.268354	-0.643657	0.000058
C76	C	1.789060	-0.546307	-0.125126
C77	C	1.720278	-0.522130	0.000099
H78	H	1.867421	-0.525230	-0.125127
H79	H	1.804039	-0.600179	-0.125114
H80	H	1.742373	-0.529898	-0.210065
H81	H	1.766961	-0.538545	0.085039
H82	H	1.705303	-0.468248	0.000100
C83	C	1.138052	-0.530706	0.000073
C84	C	1.239846	-0.486771	0.000067
H85	H	1.061106	-0.498201	0.000088
H86	H	1.141995	-0.561843	-0.084873
H87	H	1.142012	-0.561860	0.085024
H88	H	1.235892	-0.455620	-0.084891
H89	H	1.235901	-0.455620	0.085021
H90	H	1.278912	-0.246289	0.000056
H91	H	1.282705	-0.103043	0.000070
H92	H	1.638357	0.018859	0.361006
