data_functionalizedCrystal
_audit_creation_method	'MofGen! by Chris Wilmer'
_symmetry_space_group_name_H-M	'P1'
_symmetry_Int_Tables_number	1
_symmetry_cell_setting	triclinic
loop_
_symmetry_equiv_pos_as_xyz
  x,y,z
_cell_length_a	15.021413
_cell_length_b	15.944551
_cell_length_c	15.944551
_cell_angle_alpha	96.501262
_cell_angle_beta	89.996935
_cell_angle_gamma	89.997174
loop_
_atom_site_label
_atom_site_type_symbol
_atom_site_fract_x
_atom_site_fract_y
_atom_site_fract_z
O1	O	0.073941	-1.114529	0.108321
O2	O	0.573941	-0.614529	0.608321
O3	O	0.073964	-0.869979	0.121677
O4	O	0.573964	-0.369979	0.621677
O5	O	0.073944	-0.998932	-0.007276
O6	O	0.573944	-0.498932	0.492724
O7	O	0.073961	-0.985576	0.237274
O8	O	0.573961	-0.485576	0.737274
O9	O	-0.074121	-0.998912	-0.007257
O10	O	0.425879	-0.498912	0.492743
O11	O	-0.074101	-0.869959	0.121695
O12	O	0.425899	-0.369959	0.621695
O13	O	-0.074123	-1.114508	0.108339
O14	O	0.425877	-0.614508	0.608339
Zn15	Zn	-0.097620	-0.992230	0.115020
Zn16	Zn	0.402380	-0.492230	0.615020
Zn17	Zn	0.097461	-0.992257	0.114996
Zn18	Zn	0.597461	-0.492257	0.614996
O19	O	-0.074103	-0.985555	0.237292
O20	O	0.425897	-0.485555	0.737292
C21	C	-0.000066	-0.838675	0.121132
C22	C	0.499934	-0.338675	0.621132
C23	C	-0.000057	-0.745429	0.119470
C24	C	0.499943	-0.245429	0.619470
N25	N	-0.230758	-0.992218	0.115036
N26	N	0.269242	-0.492218	0.615036
C27	C	-0.000089	-0.998367	-0.038561
C28	C	0.499911	-0.498367	0.461439
C29	C	-0.000089	-0.996705	-0.131807
C30	C	0.499911	-0.496705	0.368193
C31	C	-0.470432	-0.932581	0.174636
C32	C	0.029568	-0.432581	0.674636
C33	C	-0.529772	-1.008481	0.190943
C34	C	-0.029772	-0.508481	0.690943
C35	C	-0.412365	-0.992239	0.115015
C36	C	0.087635	-0.492239	0.615015
C37	C	-0.529766	-0.916360	0.098727
C38	C	-0.029766	-0.416360	0.598727
C39	C	-0.587789	-0.992253	0.114997
C40	C	-0.087789	-0.492253	0.614997
C41	C	-0.470398	-1.068178	0.131360
C42	C	0.029602	-0.568178	0.631360
C43	C	-0.470387	-0.976006	0.039111
C44	C	0.029613	-0.476006	0.539111
C45	C	-0.529701	-1.051962	0.055386
C46	C	-0.029701	-0.551962	0.555386
C47	C	-0.311307	-0.992230	0.115028
C48	C	0.188693	-0.492230	0.615028
C49	C	-0.688844	-0.992271	0.114984
C50	C	-0.188844	-0.492271	0.614984
N51	N	0.230598	-0.992276	0.114973
N52	N	0.730598	-0.492276	0.614973
C53	C	-0.000092	-1.145813	0.108885
C54	C	0.499908	-0.645813	0.608885
C55	C	-0.000094	-1.239059	0.110547
C56	C	0.499906	-0.739059	0.610547
C57	C	-0.000081	-0.530572	0.035565
C58	C	0.499919	-0.030572	0.535565
C59	C	0.072926	-0.469562	0.074518
C60	C	0.572926	0.030438	0.574518
C61	C	-0.000068	-0.574703	0.116462
C62	C	0.499932	-0.074703	0.616462
C63	C	-0.073054	-0.469564	0.074556
C64	C	0.426946	0.030436	0.574556
C65	C	-0.000083	-0.409790	0.113551
C66	C	0.499917	0.090210	0.613551
C67	C	0.072998	-0.514921	0.155438
C68	C	0.572998	-0.014921	0.655438
C69	C	-0.073047	-0.514930	0.155464
C70	C	0.426953	-0.014930	0.655464
C71	C	-0.000023	-0.453937	0.194476
C72	C	0.499977	0.046063	0.694476
C73	C	-0.000059	-0.669705	0.118137
C74	C	0.499941	-0.169705	0.618137
C75	C	-0.000085	-0.314789	0.111883
C76	C	0.499915	0.185211	0.611883
C77	C	-0.000069	-0.912801	-0.346663
C78	C	0.499931	-0.412801	0.153337
C79	C	-0.073077	-0.951753	-0.407672
C80	C	0.426923	-0.451753	0.092328
C81	C	-0.000082	-0.993698	-0.302533
C82	C	0.499918	-0.493698	0.197467
C83	C	0.072903	-0.951792	-0.407673
C84	C	0.572903	-0.451792	0.092327
C85	C	-0.000071	-0.990787	-0.467445
C86	C	0.499929	-0.490787	0.032555
C87	C	-0.073150	-1.032672	-0.362313
C88	C	0.426850	-0.532672	0.137687
C89	C	0.072895	-1.032700	-0.362308
C90	C	0.572895	-0.532700	0.137692
C91	C	-0.000131	-1.071711	-0.423298
C92	C	0.499869	-0.571711	0.076702
C93	C	-0.000089	-0.995372	-0.207530
C94	C	0.499911	-0.495372	0.292470
C95	C	-0.000070	-0.989119	-0.562446
C96	C	0.499930	-0.489119	-0.062446
C97	C	-0.000069	-0.986120	0.268577
C98	C	0.499931	-0.486120	0.768577
C99	C	-0.000063	-0.987782	0.361823
C100	C	0.499937	-0.487782	0.861823
H101	H	-0.444409	-0.882181	0.225096
H102	H	0.055591	-0.382181	0.725096
H103	H	-0.444283	-0.962240	-0.025051
H104	H	0.055717	-0.462240	0.474949
N105	N	0.150327	-1.075595	-0.337070
N106	N	0.650327	-0.575595	0.162930
N107	N	0.226077	-1.048033	-0.351355
N108	N	0.726077	-0.548033	0.148645
H109	H	0.280771	-1.078321	-0.333530
H110	H	0.780771	-0.578321	0.166470
H111	H	0.000023	-0.420779	0.261683
H112	H	0.500023	0.079221	0.761683
H113	H	-0.555561	-1.102474	0.004956
H114	H	-0.055561	-0.602474	0.504956
H115	H	-0.555847	-0.852184	0.084959
H116	H	-0.055847	-0.352184	0.584959
H117	H	0.000005	-0.563905	-0.031573
H118	H	0.500005	-0.063905	0.468427
H119	H	0.134642	-0.449461	0.040295
H120	H	0.634642	0.050539	0.540295
N121	N	-0.437815	-1.148703	0.148722
N122	N	0.062185	-0.648703	0.648722
N123	N	-0.355863	-1.161683	0.151559
N124	N	0.144137	-0.661683	0.651559
H125	H	-0.332848	-1.218552	0.163822
H126	H	0.167152	-0.718552	0.663822
N127	N	0.150497	-0.540010	0.198337
N128	N	0.650497	-0.040010	0.698337
N129	N	0.163020	-0.616159	0.206517
N130	N	0.663020	-0.116159	0.706517
H131	H	0.217749	-0.633881	0.236819
H132	H	0.717749	-0.133881	0.736819
N133	N	-0.150505	-0.908826	-0.432884
N134	N	0.349495	-0.408826	0.067116
N135	N	-0.205451	-0.878898	-0.378677
N136	N	0.294549	-0.378898	0.121323
H137	H	-0.260133	-0.848575	-0.396479
H138	H	0.239867	-0.348575	0.103521
H139	H	-0.134767	-0.535052	0.189659
H140	H	0.365233	-0.035052	0.689659
N141	N	-0.150474	-0.444342	0.031625
N142	N	0.349526	0.055658	0.531625
N143	N	-0.142366	-0.406883	-0.032707
N144	N	0.357634	0.093117	0.467293
H145	H	-0.197039	-0.389070	-0.063033
H146	H	0.302961	0.110930	0.436967
H147	H	0.134630	-0.917574	-0.427758
H148	H	0.634630	-0.417574	0.072242
H149	H	-0.000136	-0.845652	-0.313356
H150	H	0.499864	-0.345652	0.186644
H151	H	-0.555856	-1.022224	0.255126
H152	H	-0.055856	-0.522224	0.755126
H153	H	-0.134941	-1.066851	-0.342314
H154	H	0.365059	-0.566851	0.157686
H155	H	-0.000178	-1.138919	-0.456457
H156	H	0.499822	-0.638919	0.043543
