data_functionalizedCrystal
_audit_creation_method	'MofGen! by Chris Wilmer'
_symmetry_space_group_name_H-M	'P1'
_symmetry_Int_Tables_number	1
_symmetry_cell_setting	triclinic
loop_
_symmetry_equiv_pos_as_xyz
  x,y,z
_cell_length_a	15.944551
_cell_length_b	14.971486
_cell_length_c	13.448316
_cell_angle_alpha	90.001801
_cell_angle_beta	89.992444
_cell_angle_gamma	96.443566
loop_
_atom_site_label
_atom_site_type_symbol
_atom_site_fract_x
_atom_site_fract_y
_atom_site_fract_z
O1	O	0.109463	-1.186829	-0.082580
O2	O	0.442797	-0.853496	0.250754
O3	O	0.776130	-0.520163	0.584087
O4	O	0.122572	-0.926415	-0.082607
O5	O	0.455905	-0.593082	0.250726
O6	O	0.789239	-0.259748	0.584060
O7	O	-0.006250	-1.063733	-0.082584
O8	O	0.327083	-0.730400	0.250750
O9	O	0.660416	-0.397067	0.584083
O10	O	0.238286	-1.049511	-0.082603
O11	O	0.571619	-0.716177	0.250730
O12	O	0.904952	-0.382844	0.584064
O13	O	-0.006258	-1.063716	0.082800
O14	O	0.327075	-0.730383	0.416133
O15	O	0.660408	-0.397050	0.749467
O16	O	0.122564	-0.926398	0.082777
O17	O	0.455897	-0.593064	0.416110
O18	O	0.789231	-0.259731	0.749443
O19	O	0.109456	-1.186812	0.082804
O20	O	0.442789	-0.853479	0.416137
O21	O	0.776122	-0.520145	0.749471
Cu22	Cu	0.116009	-1.056603	0.097891
Cu23	Cu	0.449342	-0.723270	0.431225
Cu24	Cu	0.782676	-0.389937	0.764558
Cu25	Cu	0.116018	-1.056624	-0.097694
Cu26	Cu	0.449352	-0.723290	0.235639
Cu27	Cu	0.782685	-0.389957	0.568972
O28	O	0.238278	-1.049494	0.082781
O29	O	0.571611	-0.716160	0.416114
O30	O	0.904944	-0.382827	0.749447
C31	C	0.121982	-0.893082	0.000081
C32	C	0.455315	-0.559749	0.333415
C33	C	0.788648	-0.226416	0.666748
C34	C	0.120225	-0.793787	0.000071
C35	C	0.453558	-0.460454	0.333405
C36	C	0.786892	-0.127120	0.666738
C37	C	-0.037549	-1.063134	0.000108
C38	C	0.295784	-0.729801	0.333442
C39	C	0.629118	-0.396468	0.666775
C40	C	-0.130797	-1.061364	0.000109
C41	C	0.202537	-0.728031	0.333442
C42	C	0.535870	-0.394698	0.666775
N43	N	0.116002	-1.056595	0.235456
N44	N	0.449335	-0.723262	0.568789
N45	N	0.782669	-0.389929	0.902122
C46	C	-0.345738	-0.972017	0.000086
C47	C	-0.012405	-0.638683	0.333419
C48	C	0.320928	-0.305350	0.666752
C49	C	-0.406720	-1.013498	0.081634
C50	C	-0.073387	-0.680165	0.414968
C51	C	0.259947	-0.346832	0.748301
C52	C	-0.301526	-1.058162	0.000101
C53	C	0.031808	-0.724829	0.333434
C54	C	0.365141	-0.391495	0.666767
C55	C	-0.406696	-1.013536	-0.081421
C56	C	-0.073362	-0.680202	0.251912
C57	C	0.259971	-0.346869	0.585245
C58	C	-0.466441	-1.055062	0.000089
C59	C	-0.133108	-0.721729	0.333422
C60	C	0.200225	-0.388396	0.666755
C61	C	-0.361279	-1.099667	0.081717
C62	C	-0.027946	-0.766334	0.415050
C63	C	0.305388	-0.433000	0.748383
C64	C	-0.361248	-1.099692	-0.081412
C65	C	-0.027915	-0.766359	0.251921
C66	C	0.305418	-0.433026	0.585255
C67	C	-0.422212	-1.141236	0.000156
C68	C	-0.088879	-0.807903	0.333490
C69	C	0.244454	-0.474570	0.666823
C70	C	-0.206522	-1.059945	0.000109
C71	C	0.126812	-0.726612	0.333442
C72	C	0.460145	-0.393278	0.666775
C73	C	-0.561444	-1.053286	0.000088
C74	C	-0.228111	-0.719952	0.333421
C75	C	0.105223	-0.386619	0.666755
C76	C	0.269576	-1.050093	0.000087
C77	C	0.602910	-0.716759	0.333420
C78	C	0.936243	-0.383426	0.666753
C79	C	0.362824	-1.051863	0.000080
C80	C	0.696157	-0.718529	0.333413
C81	C	1.029491	-0.385196	0.666746
C82	C	0.110046	-1.220145	0.000113
C83	C	0.443379	-0.886811	0.333447
C84	C	0.776712	-0.553478	0.666780
C85	C	0.111802	-1.319440	0.000117
C86	C	0.445136	-0.986107	0.333450
C87	C	0.778469	-0.652773	0.666784
C88	C	0.195904	-0.736480	0.000067
C89	C	0.529238	-0.403147	0.333400
C90	C	0.862571	-0.069813	0.666733
C91	C	0.194249	-0.643182	0.000082
C92	C	0.527582	-0.309849	0.333415
C93	C	0.860915	0.023484	0.666748
C94	C	0.116913	-0.607194	0.000094
C95	C	0.450246	-0.273860	0.333427
C96	C	0.783579	0.059473	0.666761
C97	C	0.041227	-0.664508	0.000102
C98	C	0.374561	-0.331175	0.333435
C99	C	0.707894	0.002159	0.666768
C100	C	0.042884	-0.757804	0.000094
C101	C	0.376217	-0.424470	0.333427
C102	C	0.709550	-0.091137	0.666761
C103	C	0.037780	-0.470049	0.000116
C104	C	0.371113	-0.136716	0.333449
C105	C	0.704447	0.196618	0.666782
C106	C	0.036123	-0.376747	0.000122
C107	C	0.369456	-0.043414	0.333455
C108	C	0.702790	0.289920	0.666788
C109	C	0.189145	-0.355428	0.000104
C110	C	0.522478	-0.022094	0.333437
C111	C	0.855811	0.311239	0.666770
C112	C	0.190801	-0.448724	0.000096
C113	C	0.524135	-0.115390	0.333429
C114	C	0.857468	0.217943	0.666762
C115	C	0.115116	-0.506032	0.000101
C116	C	0.448449	-0.172698	0.333435
C117	C	0.781782	0.160635	0.666768
N118	N	0.116019	-1.056639	-0.235258
N119	N	0.449352	-0.723305	0.098075
N120	N	0.782686	-0.389972	0.431408
C121	C	0.058983	-1.117419	0.287506
C122	C	0.392316	-0.784086	0.620840
C123	C	0.725649	-0.450752	0.954173
C124	C	0.058982	-1.117425	0.391610
C125	C	0.392315	-0.784091	0.724943
C126	C	0.725649	-0.450758	1.058276
C127	C	0.116005	-1.056610	0.443660
C128	C	0.449338	-0.723277	0.776994
C129	C	0.782672	-0.389944	1.110327
C130	C	0.173027	-0.995780	0.391602
C131	C	0.506360	-0.662447	0.724936
C132	C	0.839694	-0.329114	1.058269
C133	C	0.173023	-0.995771	0.287501
C134	C	0.506356	-0.662438	0.620834
C135	C	0.839690	-0.329104	0.954168
C136	C	0.173033	-0.995805	0.608582
C137	C	0.506366	-0.662472	0.941916
C138	C	0.839699	-0.329138	1.275249
C139	C	0.173038	-0.995815	0.712691
C140	C	0.506371	-0.662482	1.046024
C141	C	0.839705	-0.329148	1.379357
C142	C	0.058992	-1.117459	0.712691
C143	C	0.392325	-0.784125	1.046024
C144	C	0.725658	-0.450792	1.379358
C145	C	0.058988	-1.117449	0.608590
C146	C	0.392321	-0.784116	0.941923
C147	C	0.725654	-0.450783	1.275256
C148	C	0.116011	-1.056620	0.556539
C149	C	0.449344	-0.723287	0.889872
C150	C	0.782678	-0.389954	1.223206
H151	H	-0.312499	-0.900512	0.000160
H152	H	0.020835	-0.567179	0.333493
H153	H	0.354168	-0.233846	0.666826
H154	H	-0.426804	-0.977096	-0.150369
H155	H	-0.093471	-0.643762	0.182964
H156	H	0.239863	-0.310429	0.516298
H157	H	0.258881	-0.765774	0.000056
H158	H	0.592214	-0.432441	0.333389
H159	H	0.925547	-0.099108	0.666723
H160	H	0.219452	-0.946241	0.245122
H161	H	0.552786	-0.612908	0.578455
H162	H	0.886119	-0.279575	0.911789
H163	H	0.219471	-0.946293	0.755065
H164	H	0.552804	-0.612960	1.088399
H165	H	0.886138	-0.279626	1.421732
H166	H	0.219464	-0.946269	0.566206
H167	H	0.552797	-0.612935	0.899539
H168	H	0.886131	-0.279602	1.232873
H169	H	0.012552	-1.166945	0.245134
H170	H	0.345885	-0.833611	0.578467
H171	H	0.679218	-0.500278	0.911800
H172	H	-0.426866	-0.977055	0.150570
H173	H	-0.093533	-0.643722	0.483903
H174	H	0.239800	-0.310388	0.817236
H175	H	0.255875	-0.596526	0.000077
H176	H	0.589208	-0.263193	0.333410
H177	H	0.922542	0.070141	0.666743
H178	H	0.253775	-0.478022	0.000076
H179	H	0.587109	-0.144689	0.333409
H180	H	0.920442	0.188644	0.666743
H181	H	0.250771	-0.308763	0.000103
H182	H	0.584104	0.024571	0.333437
H183	H	0.917438	0.357904	0.666770
H184	H	-0.026851	-0.347448	0.000133
H185	H	0.306482	-0.014115	0.333466
H186	H	0.639816	0.319219	0.666800
H187	H	-0.341257	-1.136065	0.150735
H188	H	-0.007924	-0.802732	0.484069
H189	H	0.325409	-0.469398	0.817402
N190	N	-0.043851	-0.531863	0.000128
N191	N	0.289483	-0.198529	0.333462
N192	N	0.622816	0.134804	0.666795
H193	H	-0.093095	-0.494909	0.000134
H194	H	0.240238	-0.161576	0.333468
H195	H	0.573572	0.171758	0.666801
H196	H	-0.046492	-0.571034	-0.061184
H197	H	0.286841	-0.237700	0.272149
H198	H	0.620174	0.095633	0.605482
N199	N	-0.002488	-1.183057	0.447751
N200	N	0.330846	-0.849724	0.781085
N201	N	0.664179	-0.516391	1.114418
H202	H	-0.038598	-1.221595	0.398981
H203	H	0.294735	-0.888262	0.732314
H204	H	0.628068	-0.554929	1.065648
H205	H	0.029768	-1.222584	0.490911
H206	H	0.363102	-0.889250	0.824245
H207	H	0.696435	-0.555917	1.157578
N208	N	-0.002508	-1.183046	0.552445
N209	N	0.330825	-0.849712	0.885779
N210	N	0.664159	-0.516379	1.219112
H211	H	-0.038633	-1.221581	0.601214
H212	H	0.294701	-0.888248	0.934547
H213	H	0.628034	-0.554914	1.267880
H214	H	-0.039696	-1.148799	0.509266
H215	H	0.293637	-0.815466	0.842599
H216	H	0.626971	-0.482132	1.175932
H217	H	-0.021741	-0.635199	0.000126
H218	H	0.311592	-0.301865	0.333459
H219	H	0.644925	0.031468	0.666793
N220	N	-0.038741	-0.819618	0.000106
N221	N	0.294592	-0.486285	0.333440
N222	N	0.627925	-0.152951	0.666773
H223	H	-0.087986	-0.782664	0.000115
H224	H	0.245348	-0.449331	0.333448
H225	H	0.578681	-0.115998	0.666781
H226	H	-0.041388	-0.858793	-0.061204
H227	H	0.291945	-0.525459	0.272130
H228	H	0.625279	-0.192126	0.605463
H229	H	-0.455303	-1.212804	0.000210
H230	H	-0.121969	-0.879470	0.333543
H231	H	0.211364	-0.546137	0.666877
N232	N	-0.002511	-1.183071	0.768824
N233	N	0.330822	-0.849737	1.102157
N234	N	0.664155	-0.516404	1.435490
H235	H	0.006139	-1.173848	0.842670
H236	H	0.339472	-0.840515	1.176003
H237	H	0.672806	-0.507182	1.509336
H238	H	-0.062118	-1.172743	0.750639
H239	H	0.271216	-0.839410	1.083972
H240	H	0.604549	-0.506076	1.417306
H241	H	0.219453	-0.946260	0.433988
H242	H	0.552787	-0.612926	0.767321
H243	H	0.886120	-0.279593	1.100654
H244	H	-0.341080	-1.136104	-0.150351
H245	H	-0.007747	-0.802771	0.182982
H246	H	0.325587	-0.469437	0.516316
