data_functionalizedCrystal
_audit_creation_method	'MofGen! by Chris Wilmer'
_symmetry_space_group_name_H-M	'P1'
_symmetry_Int_Tables_number	1
_symmetry_cell_setting	triclinic
loop_
_symmetry_equiv_pos_as_xyz
  x,y,z
_cell_length_a	16.974800
_cell_length_b	10.489763
_cell_length_c	16.053802
_cell_angle_alpha	87.412648
_cell_angle_beta	91.074188
_cell_angle_gamma	96.031712
loop_
_atom_site_label
_atom_site_type_symbol
_atom_site_fract_x
_atom_site_fract_y
_atom_site_fract_z
O1	O	1.050009	-0.162591	0.001535
O2	O	0.820659	-0.182116	-0.013970
O3	O	0.940543	0.013301	-0.005850
O4	O	0.930125	-0.358008	-0.006585
O5	O	0.933944	0.002590	0.132562
O6	O	0.814060	-0.192828	0.124442
O7	O	1.043410	-0.173302	0.139947
Zn8	Zn	0.927687	-0.184766	0.154171
Zn9	Zn	0.936381	-0.170652	-0.028193
O10	O	0.923526	-0.368720	0.131827
C11	C	0.787991	-0.186533	0.053251
C12	C	0.700482	-0.183720	0.047335
C13	C	0.655778	-0.188235	0.120007
C14	C	0.573556	-0.185572	0.114451
C15	C	0.536038	-0.178404	0.036223
C16	C	0.580749	-0.173885	-0.036453
C17	C	0.662970	-0.176539	-0.030897
C18	C	0.290519	-0.169832	0.011515
C19	C	0.208291	-0.167183	0.005963
C20	C	0.201103	-0.178868	0.156869
C21	C	0.283326	-0.181529	0.162418
C22	C	0.328030	-0.177003	0.089742
N23	N	0.451994	-0.175686	0.030543
N24	N	0.412074	-0.179712	0.095423
C25	C	0.936452	0.055467	0.063305
C26	C	0.934086	0.197068	0.063152
C27	C	0.857798	0.264332	0.057993
C28	C	0.890576	0.351585	0.128678
C29	C	0.897100	0.362121	-0.007784
C30	C	0.966893	0.282452	0.133896
C31	C	0.973410	0.292983	-0.002628
C32	C	1.006242	0.380208	0.068077
C33	C	1.076078	-0.168885	0.072725
C34	C	1.163587	-0.171697	0.078635
N35	N	0.921759	-0.194397	0.278629
C36	C	0.927603	0.589111	0.062684
C37	C	0.929930	0.447500	0.062872
N38	N	0.942316	-0.161011	-0.152652
C39	C	0.972789	-0.111276	0.325780
C40	C	0.968649	-0.118026	0.412906
C41	C	0.913484	-0.207903	0.452881
C42	C	0.862449	-0.291027	0.405724
C43	C	0.866585	-0.284271	0.318599
C44	C	0.895417	-0.237379	0.713067
C45	C	0.891286	-0.244132	0.800198
C46	C	0.997486	-0.071128	0.807374
C47	C	1.001621	-0.064385	0.720248
C48	C	0.950583	-0.147505	0.673098
N49	N	0.909253	-0.214806	0.541938
N50	N	0.954810	-0.140594	0.584042
H51	H	0.699368	-0.172865	-0.090074
O52	O	0.338730	-0.164965	-0.066868
H53	H	0.298825	-0.159551	-0.122196
O54	O	1.052532	0.018519	0.858227
H55	H	1.042723	0.119292	0.840801
O56	O	0.696237	-0.195987	0.204383
H57	H	0.685270	-0.111421	0.239949
H58	H	0.867562	0.397179	-0.067666
H59	H	1.017714	-0.038094	0.293239
O60	O	0.844177	0.386260	0.202215
H61	H	0.883090	0.450052	0.242474
O62	O	1.019776	0.258244	-0.076166
H63	H	0.990686	0.289977	-0.134883
H64	H	0.537162	-0.189227	0.173628
H65	H	0.817528	-0.364203	0.438276
H66	H	0.795076	0.213956	0.053819
O67	O	0.167821	-0.159443	-0.078414
H68	H	0.212720	-0.156729	-0.128018
O69	O	0.811538	-0.373901	0.267732
H70	H	0.846943	-0.432952	0.230271
H71	H	0.853861	-0.305061	0.674684
H72	H	1.010201	-0.050342	0.451296
H73	H	1.069015	0.430349	0.072362
O74	O	0.323788	-0.189320	0.246792
H75	H	0.278887	-0.192026	0.296393
H76	H	0.550196	-0.168039	-0.100148
H77	H	1.046541	0.008800	0.687702
O78	O	0.152842	-0.184395	0.235249
H79	H	0.089348	-0.181576	0.218245
O80	O	1.005963	0.236198	0.213297
H81	H	1.007384	0.130689	0.212807
H82	H	0.846361	-0.317326	0.832741
