data_functionalizedCrystal
_audit_creation_method	'MofGen! by Chris Wilmer'
_symmetry_space_group_name_H-M	'P1'
_symmetry_Int_Tables_number	1
_symmetry_cell_setting	triclinic
loop_
_symmetry_equiv_pos_as_xyz
  x,y,z
_cell_length_a	16.959455
_cell_length_b	18.050589
_cell_length_c	16.959447
_cell_angle_alpha	89.967762
_cell_angle_beta	89.977004
_cell_angle_gamma	90.017554
loop_
_atom_site_label
_atom_site_type_symbol
_atom_site_fract_x
_atom_site_fract_y
_atom_site_fract_z
Zn1	Zn	1.208402	-0.295703	-0.447026
Zn2	Zn	1.208317	-0.419905	-0.314843
Zn3	Zn	1.076224	-0.295727	-0.314850
Zn4	Zn	1.076194	-0.419849	-0.446968
O5	O	1.142284	-0.357796	-0.380922
O6	O	1.319001	-0.312192	-0.429514
O7	O	1.190772	-0.403466	-0.204233
O8	O	1.093806	-0.191799	-0.332410
O9	O	1.318939	-0.403443	-0.332399
O10	O	1.190916	-0.191782	-0.429520
O11	O	1.093724	-0.312232	-0.204238
O12	O	0.965609	-0.312179	-0.332354
O13	O	1.093754	-0.403348	-0.557587
O14	O	0.965587	-0.403371	-0.429421
O15	O	1.190887	-0.312138	-0.557629
O16	O	1.190743	-0.523822	-0.332343
O17	O	1.093672	-0.523781	-0.429414
C18	C	0.936918	-0.357772	-0.380882
C19	C	0.849061	-0.357779	-0.380884
C20	C	0.477543	-0.405263	-0.330329
C21	C	0.477629	-0.310391	-0.431611
C22	C	0.560175	-0.310378	-0.431592
C23	C	0.601408	-0.357810	-0.380941
C24	C	0.560096	-0.405254	-0.330310
C25	C	0.601493	-0.262941	-0.482228
C26	C	0.684044	-0.262927	-0.482212
C27	C	0.725279	-0.310356	-0.431556
C28	C	0.683962	-0.357801	-0.380922
C29	C	0.725196	-0.405232	-0.330271
C30	C	0.683880	-0.452674	-0.279633
C31	C	0.601331	-0.452682	-0.279654
C32	C	0.807828	-0.310348	-0.431535
C33	C	0.807749	-0.405223	-0.330252
C34	C	1.142216	-0.550748	-0.380889
C35	C	1.142260	-0.633294	-0.380901
C36	C	1.195184	-0.882115	-0.328201
C37	C	1.123066	-0.832781	-0.308781
C38	C	1.142359	-0.930414	-0.380962
C39	C	1.214423	-0.832666	-0.400315
C40	C	1.142314	-0.784429	-0.380930
C41	C	1.070203	-0.882168	-0.361505
C42	C	1.161609	-0.882057	-0.453072
C43	C	1.089442	-0.832746	-0.433679
C44	C	1.142386	-1.014513	-0.380979
C45	C	1.142279	-0.700333	-0.380914
C46	C	1.348452	-0.357821	-0.380962
C47	C	1.436309	-0.357832	-0.380980
C48	C	1.142327	-0.357734	-0.587090
C49	C	1.142345	-0.357708	-0.674947
C50	C	1.142374	-0.164090	-0.380972
C51	C	1.142412	-0.081545	-0.380994
C52	C	1.091886	-0.310129	-1.046431
C53	C	1.192943	-0.405131	-1.046414
C54	C	1.192929	-0.405148	-0.963868
C55	C	1.142392	-0.357656	-0.922600
C56	C	1.091869	-0.310146	-0.963878
C57	C	1.243446	-0.452662	-0.922584
C58	C	1.243433	-0.452682	-0.840033
C59	C	1.192900	-0.405185	-0.798763
C60	C	1.142375	-0.357673	-0.840046
C61	C	1.091838	-0.310181	-0.798778
C62	C	1.041317	-0.262665	-0.840060
C63	C	1.041335	-0.262650	-0.922608
C64	C	1.192881	-0.405200	-0.716215
C65	C	1.091821	-0.310198	-0.716225
C66	C	1.142288	-0.357804	-0.175556
C67	C	1.142423	-0.357621	-0.087699
H68	H	0.567685	-0.491307	-0.238427
Br69	Br	0.863703	-0.469592	-0.261501
Br70	Br	0.739850	-0.517051	-0.210903
H71	H	0.443900	-0.443887	-0.289098
H72	H	1.009223	-0.903820	-0.345054
H73	H	0.444051	-0.271778	-0.472853
H74	H	1.044698	-0.811207	-0.478284
H75	H	1.177937	-0.903720	-0.514051
Br76	Br	1.023329	-0.245641	-1.102452
Br77	Br	0.545530	-0.198586	-0.550978
H78	H	0.717676	-0.224297	-0.523445
H79	H	0.841463	-0.271723	-0.472765
Br80	Br	1.316029	-0.796420	-0.427618
H81	H	1.239820	-0.903791	-0.283563
Br82	Br	1.095887	-0.796696	-0.207120
Br83	Br	1.023238	-0.245735	-0.660224
H84	H	1.000166	-0.224000	-0.806448
H85	H	1.000203	-0.223965	-0.956227
H86	H	1.234082	-0.443802	-1.080019
Br87	Br	1.312016	-0.517122	-0.978593
H88	H	1.284570	-0.491373	-0.806429
Br89	Br	1.261432	-0.469689	-0.660193
