data_functionalizedCrystal
_audit_creation_method	'MofGen! by Chris Wilmer'
_symmetry_space_group_name_H-M	'P1'
_symmetry_Int_Tables_number	1
_symmetry_cell_setting	triclinic
loop_
_symmetry_equiv_pos_as_xyz
  x,y,z
_cell_length_a	29.839134
_cell_length_b	29.839131
_cell_length_c	12.759387
_cell_angle_alpha	89.962744
_cell_angle_beta	89.965041
_cell_angle_gamma	90.034165
loop_
_atom_site_label
_atom_site_type_symbol
_atom_site_fract_x
_atom_site_fract_y
_atom_site_fract_z
Zn1	Zn	0.686767	-0.178917	-0.594363
Zn2	Zn	1.186767	0.321083	-0.094363
Zn3	Zn	0.686685	-0.254054	-0.418663
Zn4	Zn	1.186685	0.245946	0.081337
Zn5	Zn	0.611636	-0.178929	-0.418655
Zn6	Zn	1.111636	0.321071	0.081345
Zn7	Zn	0.611597	-0.254011	-0.594258
Zn8	Zn	1.111597	0.245989	-0.094258
O9	O	0.649171	-0.216478	-0.506485
O10	O	1.149171	0.283522	-0.006485
O11	O	0.749623	-0.188896	-0.571103
O12	O	1.249623	0.311104	-0.071103
O13	O	0.676711	-0.244112	-0.271641
O14	O	1.176711	0.255888	0.228359
O15	O	0.621652	-0.116061	-0.442004
O16	O	1.121652	0.383939	0.057996
O17	O	0.749563	-0.244100	-0.442017
O18	O	1.249563	0.255900	0.057983
O19	O	0.676851	-0.116051	-0.571095
O20	O	1.176851	0.383949	-0.071095
O21	O	0.621573	-0.188919	-0.271635
O22	O	1.121573	0.311081	0.228365
O23	O	0.548763	-0.188876	-0.441902
O24	O	1.048763	0.311124	0.058098
O25	O	0.621587	-0.244026	-0.741293
O26	O	1.121587	0.255974	-0.241293
O27	O	0.548735	-0.244038	-0.570917
O28	O	1.048735	0.255962	-0.070917
O29	O	0.676814	-0.188854	-0.741370
O30	O	1.176814	0.311146	-0.241370
O31	O	0.676674	-0.316916	-0.441916
O32	O	1.176674	0.183084	0.058084
O33	O	0.621508	-0.316884	-0.570925
O34	O	1.121508	0.183116	-0.070925
C35	C	0.532449	-0.216454	-0.506398
C36	C	1.032449	0.283546	-0.006398
C37	C	0.482514	-0.216455	-0.506386
C38	C	0.982514	0.283545	-0.006386
C39	C	0.125929	-0.187712	-0.439444
C40	C	0.625929	0.312288	0.060556
C41	C	0.313602	-0.187700	-0.439380
C42	C	0.813602	0.312300	0.060620
O43	O	0.337869	-0.163224	-0.382367
O44	O	0.837869	0.336776	0.117633
N45	N	0.337069	-0.216462	-0.506439
N46	N	0.837069	0.283538	-0.006439
C47	C	0.313615	-0.245228	-0.573522
C48	C	0.813615	0.254772	-0.073522
O49	O	0.337881	-0.269689	-0.630566
O50	O	0.837881	0.230311	-0.130566
C51	C	0.125943	-0.245238	-0.573591
C52	C	0.625943	0.254762	-0.073591
C53	C	0.102478	-0.216477	-0.506521
C54	C	0.602478	0.283523	-0.006521
C55	C	0.102465	-0.158953	-0.372380
C56	C	0.602465	0.341047	0.127620
C57	C	0.055549	-0.158958	-0.372393
C58	C	0.555549	0.341042	0.127607
C59	C	0.032098	-0.187723	-0.439469
C60	C	0.532098	0.312277	0.060531
C61	C	0.055563	-0.216482	-0.506533
C62	C	0.555563	0.283518	-0.006533
C63	C	0.102489	-0.274002	-0.640679
C64	C	0.602489	0.225998	-0.140679
C65	C	0.055568	-0.274001	-0.640692
C66	C	0.555568	0.225999	-0.140692
C67	C	0.032104	-0.245239	-0.573622
C68	C	0.532104	0.254761	-0.073622
C69	C	-0.014804	-0.245252	-0.573622
C70	C	0.485196	0.254748	-0.073622
N71	N	-0.038271	-0.216489	-0.506564
N72	N	0.461729	0.283511	-0.006564
C73	C	-0.014819	-0.187725	-0.439488
C74	C	0.485181	0.312275	0.060512
C75	C	0.412145	-0.245222	-0.573480
C76	C	0.912145	0.254778	-0.073480
C77	C	0.459063	-0.245220	-0.573462
C78	C	0.959063	0.254780	-0.073462
C79	C	0.459048	-0.187691	-0.439321
C80	C	0.959048	0.312309	0.060679
C81	C	0.412129	-0.187695	-0.439335
C82	C	0.912129	0.312305	0.060665
C83	C	0.388679	-0.216459	-0.506422
C84	C	0.888679	0.283541	-0.006422
C85	C	-0.113345	-0.187738	-0.439518
C86	C	0.386655	0.312262	0.060482
C87	C	-0.160265	-0.187747	-0.439534
C88	C	0.339735	0.312253	0.060466
C89	C	-0.160245	-0.245274	-0.573678
C90	C	0.339755	0.254726	-0.073678
C91	C	-0.113330	-0.245267	-0.573659
C92	C	0.386670	0.254733	-0.073659
C93	C	-0.089881	-0.216495	-0.506576
C94	C	0.410119	0.283505	-0.006576
O95	O	-0.039099	-0.269712	-0.630615
O96	O	0.460901	0.230288	-0.130615
O97	O	-0.039094	-0.163260	-0.382469
O98	O	0.460906	0.336740	0.117531
C99	C	0.172845	-0.187707	-0.439432
C100	C	0.672845	0.312293	0.060568
C101	C	0.196309	-0.216467	-0.506495
C102	C	0.696309	0.283533	-0.006495
C103	C	0.172858	-0.245231	-0.573572
C104	C	0.672858	0.254769	-0.073572
C105	C	0.243227	-0.216465	-0.506477
C106	C	0.743227	0.283535	-0.006477
C107	C	0.266678	-0.187700	-0.439401
C108	C	0.766678	0.312300	0.060599
C109	C	0.243211	-0.158938	-0.372343
C110	C	0.743211	0.341062	0.127657
C111	C	0.196296	-0.158943	-0.372355
C112	C	0.696296	0.341057	0.127645
C113	C	0.196325	-0.273994	-0.640630
C114	C	0.696325	0.226006	-0.140630
C115	C	0.243240	-0.273987	-0.640611
C116	C	0.743240	0.226013	-0.140611
C117	C	0.266691	-0.245222	-0.573535
C118	C	0.766691	0.254778	-0.073535
C119	C	0.649090	-0.333200	-0.506433
C120	C	1.149090	0.166800	-0.006433
C121	C	0.649097	-0.383135	-0.506446
C122	C	1.149097	0.116865	-0.006446
C123	C	0.677949	-0.692782	-0.439408
C124	C	1.177949	-0.192782	0.060592
C125	C	0.678004	-0.880455	-0.439449
C126	C	1.178004	-0.380455	0.060551
O127	O	0.702471	-0.904723	-0.382411
O128	O	1.202471	-0.404723	0.117589
N129	N	0.649264	-0.903920	-0.506564
N130	N	1.149264	-0.403920	-0.006564
C131	C	0.620511	-0.880463	-0.573679
C132	C	1.120511	-0.380463	-0.073679
O133	O	0.596070	-0.904728	-0.630773
O134	O	1.096070	-0.404728	-0.130773
C135	C	0.620458	-0.692791	-0.573643
C136	C	1.120458	-0.192791	-0.073643
C137	C	0.649196	-0.669329	-0.506515
C138	C	1.149196	-0.169329	-0.006515
C139	C	0.706685	-0.669320	-0.372288
C140	C	1.206685	-0.169320	0.127712
C141	C	0.706669	-0.622404	-0.372274
C142	C	1.206669	-0.122404	0.127726
C143	C	0.677917	-0.598951	-0.439381
C144	C	1.177917	-0.098951	0.060619
C145	C	0.649181	-0.622413	-0.506502
C146	C	1.149181	-0.122413	-0.006502
C147	C	0.591707	-0.669335	-0.640762
C148	C	1.091707	-0.169335	-0.140762
C149	C	0.591697	-0.622414	-0.640748
C150	C	1.091697	-0.122414	-0.140748
C151	C	0.620436	-0.598952	-0.573621
C152	C	1.120436	-0.098952	-0.073621
C153	C	0.620412	-0.552045	-0.573596
C154	C	1.120412	-0.052045	-0.073596
N155	N	0.649152	-0.528580	-0.506480
N156	N	1.149152	-0.028580	-0.006480
C157	C	0.677904	-0.552033	-0.439373
C158	C	1.177904	-0.052033	0.060627
C159	C	0.620540	-0.978994	-0.573692
C160	C	1.120540	-0.478994	-0.073692
C161	C	0.620553	-1.025912	-0.573700
C162	C	1.120553	-0.525912	-0.073700
C163	C	0.678047	-1.025900	-0.439471
C164	C	1.178047	-0.525900	0.060529
C165	C	0.678031	-0.978982	-0.439459
C166	C	1.178031	-0.478982	0.060541
C167	C	0.649280	-0.955529	-0.506577
C168	C	1.149280	-0.455529	-0.006577
C169	C	0.677869	-0.453508	-0.439349
C170	C	1.177869	0.046492	0.060651
C171	C	0.677849	-0.406588	-0.439338
C172	C	1.177849	0.093412	0.060662
C173	C	0.620357	-0.406603	-0.573570
C174	C	1.120357	0.093397	-0.073570
C175	C	0.620375	-0.453519	-0.573578
C176	C	1.120375	0.046481	-0.073578
C177	C	0.649134	-0.476970	-0.506464
C178	C	1.149134	0.023030	-0.006464
O179	O	0.595962	-0.527748	-0.630612
O180	O	1.095962	-0.027748	-0.130612
O181	O	0.702348	-0.527761	-0.382304
O182	O	1.202348	-0.027761	0.117696
C183	C	0.677965	-0.739698	-0.439422
C184	C	1.177965	-0.239698	0.060578
C185	C	0.649228	-0.763160	-0.506543
C186	C	1.149228	-0.263160	-0.006543
C187	C	0.620476	-0.739707	-0.573650
C188	C	1.120476	-0.239707	-0.073650
C189	C	0.649241	-0.810078	-0.506551
C190	C	1.149241	-0.310078	-0.006551
C191	C	0.677993	-0.833531	-0.439443
C192	C	1.177993	-0.333531	0.060557
C193	C	0.706733	-0.810066	-0.372328
C194	C	1.206733	-0.310066	0.127672
C195	C	0.706717	-0.763151	-0.372315
C196	C	1.206717	-0.263151	0.127685
C197	C	0.591736	-0.763171	-0.640765
C198	C	1.091736	-0.263171	-0.140765
C199	C	0.591754	-0.810087	-0.640772
C200	C	1.091754	-0.310087	-0.140772
C201	C	0.620506	-0.833540	-0.573665
C202	C	1.120506	-0.333540	-0.073665
C203	C	0.766350	-0.216502	-0.506573
C204	C	1.266350	0.283498	-0.006573
C205	C	0.816284	-0.216512	-0.506610
C206	C	1.316284	0.283488	-0.006610
C207	C	0.649205	-0.216434	-0.780519
C208	C	1.149205	0.283566	-0.280519
C209	C	0.649220	-0.216415	-0.897295
C210	C	1.149220	0.283585	-0.397295
C211	C	0.649265	-0.099299	-0.506560
C212	C	1.149265	0.400701	-0.006560
C213	C	0.649305	-0.049365	-0.506592
C214	C	1.149305	0.450635	-0.006592
C215	C	0.706731	-0.158969	-0.897395
C216	C	1.206731	0.341031	-0.397395
C217	C	0.735493	-0.130239	-0.952306
C218	C	1.235493	0.369761	-0.452306
C219	C	0.735504	-0.130223	-1.062028
C220	C	1.235504	0.369777	-0.562028
C221	C	0.706749	-0.158938	-1.116841
C222	C	1.206749	0.341062	-0.616841
C223	C	0.677987	-0.187668	-1.061930
C224	C	1.177987	0.312332	-0.561930
C225	C	0.677980	-0.187682	-0.952206
C226	C	1.177980	0.312318	-0.452206
C227	C	0.620474	-0.245111	-1.061831
C228	C	1.120474	0.254889	-0.561831
C229	C	0.620465	-0.245131	-0.952109
C230	C	1.120465	0.254869	-0.452109
C231	C	0.591719	-0.273827	-1.116644
C232	C	1.091719	0.226173	-0.616644
C233	C	0.562958	-0.302560	-1.061733
C234	C	1.062958	0.197440	-0.561733
C235	C	0.562949	-0.302575	-0.952005
C236	C	1.062949	0.197425	-0.452005
C237	C	0.591703	-0.273860	-0.897198
C238	C	1.091703	0.226140	-0.397198
C239	C	0.649163	-0.216489	-0.233517
C240	C	1.149163	0.283511	0.266483
C241	C	0.649236	-0.216381	-0.116741
C242	C	1.149236	0.283619	0.383259
H243	H	0.121554	-0.135527	-0.317759
H244	H	0.621554	0.364473	0.182241
H245	H	0.706729	-0.158983	-0.808054
H246	H	1.206729	0.341017	-0.308054
Cl247	Cl	0.706760	-0.158912	-1.254778
Cl248	Cl	1.206760	0.341088	-0.754778
Cl249	Cl	0.488555	-0.281385	-0.657768
Cl250	Cl	0.988555	0.218615	-0.157768
Cl251	Cl	0.742807	-0.592916	-0.287897
Cl252	Cl	1.242807	-0.092916	0.212103
H253	H	0.262341	-0.297412	-0.695226
H254	H	0.762341	0.202588	-0.195226
H255	H	0.596975	-0.472623	-0.628241
H256	H	1.096975	0.027377	-0.128241
H257	H	0.730143	-0.829170	-0.317684
H258	H	1.230143	-0.329170	0.182316
Cl259	Cl	0.555621	-0.839576	-0.725169
Cl260	Cl	1.055621	-0.339576	-0.225169
Cl261	Cl	0.591733	-0.273806	-1.254581
Cl262	Cl	1.091733	0.226194	-0.754581
H263	H	0.539523	-0.325966	-0.907303
H264	H	1.039523	0.174034	-0.407303
Cl265	Cl	-0.083874	-0.151568	-0.355181
Cl266	Cl	0.416126	0.348432	0.144819
Cl267	Cl	0.584390	-0.949517	-0.658075
Cl268	Cl	1.084390	-0.449517	-0.158075
H269	H	0.597147	-1.045011	-0.628351
H270	H	1.097147	-0.545011	-0.128351
H271	H	0.701288	-0.472596	-0.384701
H272	H	1.201288	0.027404	0.115299
H273	H	0.568323	-0.744079	-0.695413
H274	H	1.068323	-0.244079	-0.195413
H275	H	0.758922	-0.106825	-1.106736
H276	H	1.258922	0.393175	-0.606736
H277	H	0.591700	-0.273872	-0.807857
H278	H	1.091700	0.226128	-0.307857
H279	H	0.393027	-0.164273	-0.384724
H280	H	0.893027	0.335727	0.115276
H281	H	0.568303	-0.688430	-0.695419
H282	H	1.068303	-0.188430	-0.195419
H283	H	0.758904	-0.106859	-0.907665
H284	H	1.258904	0.393141	-0.407665
Cl285	Cl	0.526811	-0.338653	-1.130646
Cl286	Cl	1.026811	0.161347	-0.630646
H287	H	0.730101	-0.688410	-0.317640
H288	H	1.230101	-0.188410	0.182360
H289	H	0.701433	-0.959881	-0.384799
H290	H	1.201433	-0.459881	0.115201
H291	H	0.568284	-0.603322	-0.695407
H292	H	1.068284	-0.103322	-0.195407
Cl293	Cl	0.714192	-1.055393	-0.355107
Cl294	Cl	1.214192	-0.555393	0.144893
H295	H	-0.179368	-0.164325	-0.384914
H296	H	0.320632	0.335675	0.115086
H297	H	0.478149	-0.164270	-0.384704
H298	H	0.978149	0.335730	0.115296
H299	H	0.036449	-0.135538	-0.317778
H300	H	0.536449	0.364462	0.182222
H301	H	0.393056	-0.268646	-0.628113
H302	H	0.893056	0.231354	-0.128113
H303	H	0.121586	-0.297422	-0.695294
H304	H	0.621586	0.202578	-0.195294
H305	H	0.036477	-0.297423	-0.695327
H306	H	0.536477	0.202577	-0.195327
H307	H	-0.179347	-0.268695	-0.628286
H308	H	0.320653	0.231305	-0.128286
Cl309	Cl	-0.083831	-0.281429	-0.657966
Cl310	Cl	0.416169	0.218571	-0.157966
Cl311	Cl	0.166805	-0.122782	-0.288037
Cl312	Cl	0.666805	0.377218	0.211963
Cl313	Cl	0.272702	-0.122778	-0.288016
Cl314	Cl	0.772702	0.377222	0.211984
H315	H	0.701251	-0.387486	-0.384672
H316	H	1.201251	0.112514	0.115328
Cl317	Cl	0.166851	-0.310160	-0.724962
Cl318	Cl	0.666851	0.189840	-0.224962
Cl319	Cl	0.584215	-0.377111	-0.657935
Cl320	Cl	1.084215	0.122889	-0.157935
Cl321	Cl	0.742849	-0.733662	-0.287926
Cl322	Cl	1.242849	-0.233662	0.212074
