data_functionalizedCrystal
_audit_creation_method	'MofGen! by Chris Wilmer'
_symmetry_space_group_name_H-M	'P1'
_symmetry_Int_Tables_number	1
_symmetry_cell_setting	triclinic
loop_
_symmetry_equiv_pos_as_xyz
  x,y,z
_cell_length_a	18.050591
_cell_length_b	18.050590
_cell_length_c	19.077271
_cell_angle_alpha	87.714442
_cell_angle_beta	87.714286
_cell_angle_gamma	90.014558
loop_
_atom_site_label
_atom_site_type_symbol
_atom_site_fract_x
_atom_site_fract_y
_atom_site_fract_z
Zn1	Zn	1.118406	-0.312738	0.398056
Zn2	Zn	1.451740	0.020595	0.731390
Zn3	Zn	1.785073	0.353928	1.064723
Zn4	Zn	1.123345	-0.431909	0.280361
Zn5	Zn	1.456679	-0.098576	0.613694
Zn6	Zn	1.790012	0.234757	0.947028
Zn7	Zn	0.999233	-0.307729	0.280364
Zn8	Zn	1.332566	0.025604	0.613697
Zn9	Zn	1.665900	0.358938	0.947030
Zn10	Zn	0.994197	-0.436880	0.398003
Zn11	Zn	1.327530	-0.103547	0.731337
Zn12	Zn	1.660863	0.229786	1.064670
O13	O	1.058795	-0.372314	0.339196
O14	O	1.392129	-0.038981	0.672529
O15	O	1.725462	0.294352	1.005863
O16	O	1.222985	-0.328563	0.382465
O17	O	1.556318	0.004771	0.715798
O18	O	1.889652	0.338104	1.049132
O19	O	1.111057	-0.411260	0.181873
O20	O	1.444390	-0.077926	0.515206
O21	O	1.777723	0.255407	0.848540
O22	O	1.015082	-0.204470	0.295999
O23	O	1.348415	0.128863	0.629333
O24	O	1.681749	0.462197	0.962666
O25	O	1.226614	-0.416117	0.295995
O26	O	1.559947	-0.082784	0.629328
O27	O	1.893281	0.250550	0.962661
O28	O	1.102638	-0.208150	0.382468
O29	O	1.435972	0.125183	0.715801
O30	O	1.769305	0.458516	1.049134
O31	O	1.019872	-0.320025	0.181875
O32	O	1.353205	0.013308	0.515208
O33	O	1.686538	0.346642	0.848542
O34	O	0.894641	-0.324845	0.295948
O35	O	1.227975	0.008488	0.629281
O36	O	1.561308	0.341822	0.962614
O37	O	1.006499	-0.424589	0.496499
O38	O	1.339832	-0.091256	0.829832
O39	O	1.673165	0.242077	1.163165
O40	O	0.890941	-0.419732	0.382377
O41	O	1.224274	-0.086399	0.715710
O42	O	1.557608	0.246935	1.049044
O43	O	1.097755	-0.333383	0.496538
O44	O	1.431088	-0.000050	0.829871
O45	O	1.764421	0.333284	1.163205
O46	O	1.106173	-0.536492	0.295943
O47	O	1.439506	-0.203159	0.629276
O48	O	1.772840	0.130174	0.962610
O49	O	1.011288	-0.540144	0.382374
O50	O	1.344621	-0.206811	0.715708
O51	O	1.677955	0.126522	1.049041
C52	C	0.865845	-0.372285	0.339157
C53	C	1.199178	-0.038952	0.672491
C54	C	1.532512	0.294382	1.005824
C55	C	0.783299	-0.372291	0.339157
C56	C	1.116632	-0.038958	0.672491
C57	C	1.449966	0.294376	1.005824
C58	C	0.585834	-0.320639	0.292265
C59	C	0.919168	0.012695	0.625599
C60	C	1.252501	0.346028	0.958932
C61	C	0.537163	-0.387637	0.274944
C62	C	0.870496	-0.054304	0.608278
C63	C	1.203830	0.279030	0.941611
C64	C	0.632167	-0.372315	0.339189
C65	C	0.965501	-0.038982	0.672522
C66	C	1.298834	0.294352	1.005856
C67	C	0.533757	-0.305340	0.356508
C68	C	0.867090	0.027993	0.689841
C69	C	1.200424	0.361327	1.023175
C70	C	0.486181	-0.372332	0.339218
C71	C	0.819514	-0.038999	0.672552
C72	C	1.152848	0.294335	1.005885
C73	C	0.584585	-0.439347	0.321835
C74	C	0.917918	-0.106014	0.655168
C75	C	1.251251	0.227319	0.988501
C76	C	0.581182	-0.357006	0.403428
C77	C	0.914515	-0.023673	0.736762
C78	C	1.247848	0.309661	1.070095
C79	C	0.532532	-0.424052	0.386132
C80	C	0.865865	-0.090719	0.719465
C81	C	1.199198	0.242615	1.052798
C82	C	0.716266	-0.372304	0.339170
C83	C	1.049600	-0.038971	0.672504
C84	C	1.382933	0.294363	1.005837
C85	C	0.402084	-0.372350	0.339237
C86	C	0.735417	-0.039017	0.672571
C87	C	1.068750	0.294316	1.005904
C88	C	1.058739	-0.565265	0.339168
C89	C	1.392073	-0.231932	0.672501
C90	C	1.725406	0.101401	1.005835
C91	C	1.058782	-0.647811	0.339180
C92	C	1.392116	-0.314478	0.672513
C93	C	1.725449	0.018855	1.005846
C94	C	1.110481	-0.845252	0.292244
C95	C	1.443815	-0.511919	0.625577
C96	C	1.777148	-0.178585	0.958911
C97	C	1.125884	-0.897327	0.356480
C98	C	1.459217	-0.563994	0.689814
C99	C	1.792550	-0.230661	1.023147
C100	C	1.058823	-0.798943	0.339208
C101	C	1.392157	-0.465610	0.672541
C102	C	1.725490	-0.132276	1.005874
C103	C	1.043495	-0.893950	0.275000
C104	C	1.376829	-0.560617	0.608333
C105	C	1.710162	-0.227284	0.941667
C106	C	1.058865	-0.944929	0.339229
C107	C	1.392198	-0.611596	0.672562
C108	C	1.725531	-0.278262	1.005896
C109	C	1.074259	-0.849933	0.403478
C110	C	1.407592	-0.516599	0.736811
C111	C	1.740926	-0.183266	1.070145
C112	C	0.991841	-0.846549	0.321954
C113	C	1.325174	-0.513216	0.655288
C114	C	1.658508	-0.179883	0.988621
C115	C	1.007216	-0.898605	0.386235
C116	C	1.340549	-0.565271	0.719568
C117	C	1.673883	-0.231938	1.052902
C118	C	1.058802	-0.714844	0.339194
C119	C	1.392135	-0.381511	0.672528
C120	C	1.725468	-0.048177	1.005861
C121	C	1.058886	-1.029026	0.339250
C122	C	1.392219	-0.695693	0.672583
C123	C	1.725553	-0.362360	1.005916
C124	C	1.252499	-0.372344	0.339236
C125	C	1.585833	-0.039011	0.672569
C126	C	1.919166	0.294322	1.005902
C127	C	1.335044	-0.372357	0.339252
C128	C	1.668378	-0.039024	0.672586
C129	C	2.001711	0.294310	1.005919
C130	C	1.051014	-0.380099	0.522769
C131	C	1.384347	-0.046766	0.856103
C132	C	1.717681	0.286567	1.189436
C133	C	1.047698	-0.383417	0.600997
C134	C	1.381031	-0.050084	0.934331
C135	C	1.714365	0.283250	1.267664
C136	C	1.058871	-0.178611	0.339240
C137	C	1.392204	0.154723	0.672573
C138	C	1.725538	0.488056	1.005906
C139	C	1.058903	-0.096066	0.339258
C140	C	1.392237	0.237268	0.672592
C141	C	1.725570	0.570601	1.005925
C142	C	1.093650	-0.337492	0.637770
C143	C	1.426983	-0.004158	0.971104
C144	C	1.760316	0.329175	1.304437
C145	C	1.090525	-0.340606	0.711274
C146	C	1.423858	-0.007273	1.044607
C147	C	1.757192	0.326061	1.377941
C148	C	1.041452	-0.389650	0.748003
C149	C	1.374785	-0.056317	1.081336
C150	C	1.708118	0.277017	1.414670
C151	C	0.995495	-0.435578	0.711225
C152	C	1.328828	-0.102244	1.044558
C153	C	1.662161	0.231089	1.377891
C154	C	0.998616	-0.432459	0.637722
C155	C	1.331949	-0.099126	0.971056
C156	C	1.665283	0.234208	1.304389
C157	C	1.027018	-0.404066	0.967828
C158	C	1.360351	-0.070732	1.301162
C159	C	1.693684	0.262601	1.634495
C160	C	1.023901	-0.407183	1.041336
C161	C	1.357234	-0.073849	1.374669
C162	C	1.690568	0.259484	1.708002
C163	C	1.118931	-0.312210	1.041380
C164	C	1.452264	0.021124	1.374713
C165	C	1.785598	0.354457	1.708047
C166	C	1.122051	-0.309098	0.967876
C167	C	1.455385	0.024235	1.301210
C168	C	1.788718	0.357568	1.634543
C169	C	1.076092	-0.355023	0.931105
C170	C	1.409425	-0.021690	1.264438
C171	C	1.742758	0.311644	1.597771
N172	N	1.038258	-0.392836	0.823135
N173	N	1.371591	-0.059503	1.156469
N174	N	1.704925	0.273830	1.489802
N175	N	1.079282	-0.351832	0.855974
N176	N	1.412615	-0.018499	1.189307
N177	N	1.745949	0.314834	1.522640
C178	C	1.066540	-0.364576	1.156337
C179	C	1.399873	-0.031242	1.489670
C180	C	1.733207	0.302091	1.823004
C181	C	1.069853	-0.361257	1.078109
C182	C	1.403186	-0.027924	1.411442
C183	C	1.736520	0.305410	1.744776
H184	H	0.517739	-0.400598	0.220631
H185	H	0.851072	-0.067265	0.553964
H186	H	1.184405	0.266069	0.887298
H187	H	0.963546	-0.921830	0.426006
H188	H	1.296880	-0.588497	0.759339
H189	H	1.630213	-0.255164	1.092672
H190	H	1.087182	-0.830602	0.457833
H191	H	1.420515	-0.497268	0.791166
H192	H	1.753849	-0.163935	1.124500
Cl193	Cl	0.904381	-0.812123	0.299376
Cl194	Cl	1.237714	-0.478790	0.632709
Cl195	Cl	1.571047	-0.145457	0.966042
Cl196	Cl	1.023452	-0.923942	0.191154
Cl197	Cl	1.356785	-0.590609	0.524487
Cl198	Cl	1.690118	-0.257276	0.857820
Cl199	Cl	0.611200	-0.336964	0.487261
Cl200	Cl	0.944533	-0.003631	0.820595
Cl201	Cl	1.277866	0.329702	1.153928
H202	H	1.127946	-0.303210	0.741211
H203	H	1.461279	0.030123	1.074545
H204	H	1.794612	0.363456	1.407878
Cl205	Cl	0.969240	-0.461801	0.921611
Cl206	Cl	1.302573	-0.128467	1.254944
Cl207	Cl	1.635906	0.204866	1.588277
H208	H	0.983937	-0.447122	1.071238
H209	H	1.317271	-0.113789	1.404572
H210	H	1.650604	0.219545	1.737905
H211	H	0.606798	-0.496008	0.307138
H212	H	0.940131	-0.162675	0.640471
H213	H	1.273465	0.170658	0.973805
Cl214	Cl	1.155349	-0.275836	0.591604
Cl215	Cl	1.488683	0.057497	0.924937
Cl216	Cl	1.822016	0.390830	1.258271
Cl217	Cl	1.183747	-0.247441	0.921708
Cl218	Cl	1.517080	0.085893	1.255042
Cl219	Cl	1.850413	0.419226	1.588375
Cl220	Cl	1.176702	-0.254477	1.087612
Cl221	Cl	1.510035	0.078856	1.420945
Cl222	Cl	1.843369	0.412190	1.754278
H223	H	0.955535	-0.475508	0.741135
H224	H	1.288869	-0.142174	1.074468
H225	H	1.622202	0.191159	1.407802
H226	H	0.961190	-0.469849	0.607783
H227	H	1.294523	-0.136516	0.941116
H228	H	1.627856	0.196818	1.274449
H229	H	0.609175	-0.276981	0.252540
H230	H	0.942509	0.056352	0.585874
H231	H	1.275842	0.389686	0.919207
H232	H	0.511418	-0.248700	0.371120
H233	H	0.844751	0.084634	0.704454
H234	H	1.178085	0.417967	1.037787
Cl235	Cl	0.496703	-0.491606	0.447418
Cl236	Cl	0.830037	-0.158272	0.780751
Cl237	Cl	1.163370	0.175061	1.114084
H238	H	1.154179	-0.821893	0.252569
H239	H	1.487512	-0.488559	0.585903
H240	H	1.820846	-0.155226	0.919236
H241	H	1.182547	-0.919610	0.371087
H242	H	1.515880	-0.586277	0.704421
H243	H	1.849213	-0.252943	1.037754
