data_functionalizedCrystal
_audit_creation_method	'MofGen! by Chris Wilmer'
_symmetry_space_group_name_H-M	'P1'
_symmetry_Int_Tables_number	1
_symmetry_cell_setting	triclinic
loop_
_symmetry_equiv_pos_as_xyz
  x,y,z
_cell_length_a	12.827893
_cell_length_b	13.897447
_cell_length_c	12.827885
_cell_angle_alpha	89.968996
_cell_angle_beta	89.980538
_cell_angle_gamma	90.019501
loop_
_atom_site_label
_atom_site_type_symbol
_atom_site_fract_x
_atom_site_fract_y
_atom_site_fract_z
Zn1	Zn	1.597642	-0.383969	-0.590840
Zn2	Zn	2.097642	0.116031	-0.090840
Zn3	Zn	1.597522	-0.545295	-0.416096
Zn4	Zn	2.097522	-0.045295	0.083904
Zn5	Zn	1.422882	-0.384016	-0.416113
Zn6	Zn	1.922882	0.115984	0.083887
Zn7	Zn	1.422856	-0.545224	-0.590796
Zn8	Zn	1.922856	-0.045224	-0.090796
O9	O	1.510225	-0.464626	-0.503462
O10	O	2.010225	0.035374	-0.003462
O11	O	1.743862	-0.405380	-0.567671
O12	O	2.243862	0.094620	-0.067671
O13	O	1.574317	-0.523951	-0.269863
O14	O	2.074317	-0.023951	0.230137
O15	O	1.446126	-0.249028	-0.439317
O16	O	1.946126	0.250972	0.060683
O17	O	1.743774	-0.523905	-0.439288
O18	O	2.243774	-0.023905	0.060712
O19	O	1.574520	-0.248994	-0.567687
O20	O	2.074520	0.251006	-0.067687
O21	O	1.446010	-0.405460	-0.269875
O22	O	1.946010	0.094540	0.230125
O23	O	1.276643	-0.405390	-0.439274
O24	O	1.776643	0.094610	0.060726
O25	O	1.446080	-0.523783	-0.737038
O26	O	1.946080	-0.023783	-0.237038
O27	O	1.276623	-0.523829	-0.567613
O28	O	1.776623	-0.023829	-0.067613
O29	O	1.574494	-0.405310	-0.737070
O30	O	2.074494	0.094690	-0.237070
O31	O	1.574291	-0.680267	-0.439245
O32	O	2.074291	-0.180267	0.060755
O33	O	1.445964	-0.680215	-0.567597
O34	O	1.945964	-0.180215	-0.067597
C35	C	1.238716	-0.464607	-0.503442
C36	C	1.738716	0.035393	-0.003442
C37	C	1.122562	-0.464623	-0.503458
C38	C	1.622562	0.035377	-0.003458
C39	C	1.070796	-0.523321	-0.566866
C40	C	1.570796	-0.023321	-0.066866
C41	C	0.950745	-0.523338	-0.566884
C42	C	1.450745	-0.023338	-0.066884
C43	C	1.510140	-0.715240	-0.503437
C44	C	2.010140	-0.215240	-0.003437
C45	C	1.510200	-0.822454	-0.503462
C46	C	2.010200	-0.322454	-0.003462
C47	C	1.510250	-0.909524	-0.503486
C48	C	2.010250	-0.409524	-0.003486
C49	C	1.510324	-1.018756	-0.503513
C50	C	2.010324	-0.518756	-0.003513
C51	C	1.782796	-0.464645	-0.503482
C52	C	2.282796	0.035355	-0.003482
C53	C	1.898949	-0.464654	-0.503491
C54	C	2.398949	0.035346	-0.003491
C55	C	1.510297	-0.464533	-0.776032
C56	C	2.010297	0.035467	-0.276032
C57	C	1.510328	-0.464494	-0.892185
C58	C	2.010328	0.035506	-0.392185
C59	C	1.510339	-0.213033	-0.503509
C60	C	2.010339	0.286967	-0.003509
C61	C	1.510388	-0.105819	-0.503529
C62	C	2.010388	0.394181	-0.003529
C63	C	1.446858	-0.405849	-0.943976
C64	C	1.946858	0.094151	-0.443976
C65	C	1.446888	-0.405807	-1.064026
C66	C	1.946888	0.094193	-0.564026
C67	C	1.510214	-0.464649	-0.231952
C68	C	2.010214	0.035351	0.268048
C69	C	1.510386	-0.464416	-0.115799
C70	C	2.010386	0.035584	0.384201
H71	H	0.906227	-0.573595	-0.621167
H72	H	1.406227	-0.073595	-0.121167
H73	H	1.078005	-0.414377	-0.449190
H74	H	1.578005	0.085623	0.050810
H75	H	0.943460	-0.414400	-0.449198
H76	H	1.443460	0.085600	0.050802
H77	H	1.564732	-0.514623	-1.071267
H78	H	2.064732	-0.014623	-0.571267
C79	C	1.582953	-0.531240	-0.951611
C80	C	2.082953	-0.031240	-0.451611
C81	C	1.649932	-0.476550	-1.014266
C82	C	2.149932	0.023450	-0.514266
C83	C	1.716861	-0.538003	-1.069009
C84	C	2.216861	-0.038003	-0.569009
H85	H	1.543057	-0.573237	-0.994266
H86	H	2.043057	-0.073237	-0.494266
H87	H	1.622831	-0.568019	-0.903581
H88	H	2.122831	-0.068019	-0.403581
H89	H	1.610058	-0.439787	-1.062291
H90	H	2.110058	0.060213	-0.562291
H91	H	1.689851	-0.434555	-0.971638
H92	H	2.189851	0.065445	-0.471638
H93	H	1.756740	-0.574783	-1.020979
H94	H	2.256740	-0.074783	-0.520979
H95	H	1.676957	-0.579998	-1.111658
H96	H	2.176957	-0.079998	-0.611658
H97	H	1.762321	-0.500905	-1.111520
H98	H	2.262321	-0.000905	-0.611520
H99	H	1.392554	-0.355595	-1.108565
H100	H	1.892554	0.144405	-0.608565
C101	C	1.130331	-0.590160	-0.639297
C102	C	1.630331	-0.090160	-0.139297
C103	C	1.193056	-0.535556	-0.706295
C104	C	1.693056	-0.035556	-0.206295
C105	C	1.247923	-0.597097	-0.773025
C106	C	1.747923	-0.097097	-0.273025
H107	H	1.082408	-0.627013	-0.679181
H108	H	1.582408	-0.127013	-0.179181
H109	H	1.172944	-0.632086	-0.599226
H110	H	1.672944	-0.132086	-0.099226
H111	H	1.150448	-0.493647	-0.746363
H112	H	1.650448	0.006353	-0.246363
H113	H	1.241000	-0.498705	-0.666440
H114	H	1.741000	0.001295	-0.166440
H115	H	1.290536	-0.639023	-0.732954
H116	H	1.790536	-0.139023	-0.232954
H117	H	1.199992	-0.633947	-0.812902
H118	H	1.699992	-0.133947	-0.312902
H119	H	1.290496	-0.560058	-0.818485
H120	H	1.790496	-0.060058	-0.318485
C121	C	1.374482	-0.338976	-0.884414
C122	C	1.874482	0.161024	-0.384414
C123	C	1.388867	-0.352290	-0.777183
C124	C	1.888867	0.147710	-0.277183
C125	C	1.322221	-0.290692	-0.722286
C126	C	1.822221	0.209308	-0.222286
H127	H	1.304208	-0.353003	-0.902116
H128	H	1.804208	0.146997	-0.402116
H129	H	1.389806	-0.274125	-0.902202
H130	H	1.889806	0.225875	-0.402202
H131	H	1.373535	-0.417126	-0.759403
H132	H	1.873535	0.082874	-0.259403
H133	H	1.459127	-0.338255	-0.759450
H134	H	1.959127	0.161745	-0.259450
H135	H	1.337545	-0.225841	-0.740073
H136	H	1.837545	0.274159	-0.240073
H137	H	1.251950	-0.304725	-0.739996
H138	H	1.751950	0.195275	-0.239996
H139	H	1.331978	-0.299710	-0.649524
H140	H	1.831978	0.200290	-0.149524
