data_functionalizedCrystal
_audit_creation_method	'MofGen! by Chris Wilmer'
_symmetry_space_group_name_H-M	'P1'
_symmetry_Int_Tables_number	1
_symmetry_cell_setting	triclinic
loop_
_symmetry_equiv_pos_as_xyz
  x,y,z
_cell_length_a	10.685980
_cell_length_b	29.839126
_cell_length_c	10.686285
_cell_angle_alpha	85.615832
_cell_angle_beta	89.665709
_cell_angle_gamma	85.605255
loop_
_atom_site_label
_atom_site_type_symbol
_atom_site_fract_x
_atom_site_fract_y
_atom_site_fract_z
Zn1	Zn	1.956324	-0.297878	-0.352564
Zn2	Zn	1.972324	-0.217476	-0.562327
Zn3	Zn	1.746538	-0.216589	-0.368650
Zn4	Zn	1.762633	-0.286411	-0.578345
O5	O	1.859455	-0.254589	-0.465472
O6	O	2.133999	-0.292383	-0.366954
O7	O	1.942333	-0.154490	-0.536665
O8	O	1.760935	-0.231801	-0.190972
O9	O	2.145754	-0.233312	-0.521066
O10	O	1.915063	-0.291523	-0.179153
O11	O	1.776449	-0.153838	-0.394371
O12	O	1.573121	-0.220681	-0.409902
O13	O	1.788366	-0.350801	-0.548365
O14	O	1.584946	-0.271979	-0.563964
O15	O	1.930670	-0.359226	-0.382485
O16	O	1.957940	-0.222193	-0.739997
O17	O	1.803881	-0.272839	-0.751764
C18	C	1.533515	-0.244989	-0.490418
C19	C	1.394078	-0.240893	-0.501120
C20	C	1.859529	-0.371771	-0.465418
C21	C	1.859560	-0.421707	-0.465395
C22	C	1.773200	-0.731018	-0.391175
C23	C	1.773229	-0.918694	-0.391085
O24	O	1.699749	-0.942671	-0.328111
N25	N	1.859602	-0.942500	-0.465155
C26	C	1.945968	-0.919383	-0.539258
O27	O	2.019426	-0.943937	-0.602267
C28	C	1.945932	-0.731707	-0.539354
C29	C	1.859562	-0.707904	-0.465270
C30	C	1.686836	-0.707215	-0.317098
C31	C	1.686834	-0.660299	-0.317116
C32	C	1.773196	-0.637185	-0.391211
C33	C	1.859560	-0.660988	-0.465288
C34	C	2.032292	-0.708591	-0.613463
C35	C	2.032273	-0.661669	-0.613483
C36	C	1.945903	-0.637866	-0.539399
C37	C	1.945921	-0.590959	-0.539401
N38	N	1.859548	-0.567153	-0.465331
C39	C	1.773186	-0.590267	-0.391236
C40	C	1.945982	-1.017915	-0.539201
C41	C	1.945993	-1.064834	-0.539175
C42	C	1.773252	-1.064142	-0.391004
C43	C	1.773248	-1.017223	-0.391023
C44	C	1.859609	-0.994110	-0.465131
C45	C	1.773189	-0.491740	-0.391279
C46	C	1.773198	-0.444820	-0.391300
C47	C	1.945934	-0.445516	-0.539476
C48	C	1.945930	-0.492432	-0.539451
C49	C	1.859547	-0.515543	-0.465349
O50	O	2.019353	-0.566952	-0.602353
O51	O	1.699721	-0.565704	-0.328258
C52	C	1.773202	-0.777934	-0.391157
C53	C	1.859566	-0.801736	-0.465234
C54	C	1.945928	-0.778623	-0.539329
C55	C	1.859577	-0.848655	-0.465208
C56	C	1.773214	-0.871768	-0.391113
C57	C	1.686841	-0.847963	-0.317044
C58	C	1.686839	-0.801047	-0.317062
C59	C	2.032301	-0.802429	-0.613398
C60	C	2.032297	-0.849345	-0.613373
C61	C	1.945935	-0.872458	-0.539278
C62	C	2.186668	-0.264226	-0.440429
C63	C	2.326106	-0.268333	-0.429757
C64	C	1.884428	-0.246378	-0.791395
C65	C	1.895226	-0.242884	-0.930817
C66	C	1.859446	-0.137867	-0.465429
C67	C	1.859631	-0.087948	-0.465080
C68	C	1.834419	-0.262842	-0.138273
C69	C	1.823750	-0.266359	0.001159
H70	H	1.345593	-0.214262	-0.570408
H71	H	1.616527	-0.866790	-0.256708
O72	O	1.384134	-0.300089	-0.347199
C73	C	1.515103	-0.297245	-0.354514
H74	H	1.540284	-0.280552	-0.449917
H75	H	1.546543	-0.276320	-0.277193
C76	C	1.550754	-0.365452	-0.220906
C77	C	1.581683	-0.344954	-0.338086
H78	H	1.591825	-0.394881	-0.210767
H79	H	1.462518	-0.367368	-0.215973
H80	H	1.576955	-0.348010	-0.156485
H81	H	1.555468	-0.362392	-0.402505
H82	H	1.669917	-0.343042	-0.343029
O83	O	1.740970	-0.293591	-0.941212
C84	C	1.770774	-0.338392	-0.970934
H85	H	1.826272	-0.338399	-1.062364
H86	H	1.829606	-0.357269	-0.892210
C87	C	1.580725	-0.361811	-0.873945
C88	C	1.648880	-0.361820	-0.986246
H89	H	1.505537	-0.376265	-0.883385
H90	H	1.560647	-0.331628	-0.853915
H91	H	1.629766	-0.377541	-0.808353
H92	H	1.599846	-0.346086	-1.051832
H93	H	1.668947	-0.392002	-1.006287
O94	O	1.689294	-0.994046	-0.319247
C95	C	1.613698	-0.962725	-0.396884
H96	H	1.665215	-0.954602	-0.488567
H97	H	1.521795	-0.977721	-0.417775
C98	C	1.522403	-0.929206	-0.217017
C99	C	1.585682	-0.919226	-0.329619
H100	H	1.505116	-0.902374	-0.175524
H101	H	1.573330	-0.950308	-0.164710
H102	H	1.445825	-0.941703	-0.234442
H103	H	1.662265	-0.906734	-0.312192
H104	H	1.534767	-0.898120	-0.381922
O105	O	1.978111	-0.215677	-0.988386
C106	C	2.042423	-0.194563	-0.897147
H107	H	1.983897	-0.193795	-0.807696
H108	H	2.136602	-0.214196	-0.875865
C109	C	2.136391	-0.146961	-1.056931
C110	C	2.064504	-0.146014	-0.947069
H111	H	2.150018	-0.117014	-1.087725
H112	H	2.093067	-0.161186	-1.118401
H113	H	2.214866	-0.163323	-1.039180
H114	H	1.986026	-0.129656	-0.964824
H115	H	2.107815	-0.131784	-0.885602
O116	O	2.030030	-1.087981	-0.610936
C117	C	2.105583	-1.119319	-0.533305
H118	H	2.105757	-1.107902	-0.433916
H119	H	2.066488	-1.153844	-0.531946
C120	C	2.240477	-1.136355	-0.706674
C121	C	2.240699	-1.122331	-0.584604
H122	H	2.323822	-1.138215	-0.738319
H123	H	2.189573	-1.115244	-0.758977
H124	H	2.207892	-1.165125	-0.705525
H125	H	2.273269	-1.093559	-0.585757
H126	H	2.291612	-1.143437	-0.532302
O127	O	1.689451	-0.514242	-0.319220
C128	C	1.754672	-0.545525	-0.232694
H129	H	1.853124	-0.554250	-0.269661
H130	H	1.761352	-0.530191	-0.138689
C131	C	1.562979	-0.577908	-0.169822
C132	C	1.683897	-0.588627	-0.215231
H133	H	1.519320	-0.604495	-0.159045
H134	H	1.519037	-0.556831	-0.228112
H135	H	1.568563	-0.565129	-0.091490
H136	H	1.678312	-0.601400	-0.293569
H137	H	1.727837	-0.609708	-0.156953
O138	O	1.602890	-0.729595	-0.244997
C139	C	1.526651	-0.698515	-0.179657
H140	H	1.577709	-0.666696	-0.171422
H141	H	1.434885	-0.689555	-0.232883
C142	C	1.435654	-0.758728	-0.057622
C143	C	1.498369	-0.719650	-0.047498
H144	H	1.418202	-0.771765	0.023898
H145	H	1.487013	-0.779668	-0.101646
H146	H	1.359189	-0.751256	-0.101982
H147	H	1.574839	-0.727123	-0.003153
H148	H	1.447021	-0.698712	-0.003464
O149	O	1.689226	-1.086608	-0.319226
C150	C	1.613711	-1.109562	-0.396858
H151	H	1.613542	-1.092699	-0.496254
H152	H	1.652838	-1.146156	-0.398195
C153	C	1.478801	-1.128692	-0.223507
C154	C	1.478586	-1.107979	-0.345585
H155	H	1.395451	-1.127718	-0.191877
H156	H	1.529679	-1.113229	-0.171203
H157	H	1.511413	-1.159186	-0.224637
H158	H	1.445989	-1.077485	-0.344451
H159	H	1.427699	-1.123437	-0.397888
O160	O	2.030010	-0.995539	-0.611216
C161	C	2.106219	-1.026616	-0.676596
H162	H	2.106618	-1.061483	-0.624855
H163	H	2.067578	-1.027850	-0.775385
C164	C	2.240635	-0.968973	-0.748007
C165	C	2.241133	-1.011797	-0.684452
H166	H	2.323855	-0.959831	-0.752859
H167	H	2.189289	-0.948035	-0.703963
H168	H	2.208428	-0.970007	-0.830325
H169	H	2.273325	-1.010761	-0.602132
H170	H	2.292488	-1.032734	-0.728483
H171	H	1.702865	-0.425442	-0.330966
H172	H	1.616498	-0.640922	-0.256794
O173	O	2.116236	-0.731634	-0.685553
C174	C	2.192460	-0.701164	-0.750929
H175	H	2.141391	-0.666095	-0.759195
H176	H	2.284229	-0.700144	-0.697714
C177	C	2.283469	-0.759704	-0.872910
C178	C	2.220740	-0.716632	-0.883072
H179	H	2.300919	-0.769246	-0.954419
H180	H	2.232119	-0.780233	-0.828862
H181	H	2.359936	-0.758848	-0.828559
H182	H	2.144268	-0.717489	-0.927408
H183	H	2.272078	-0.696103	-0.927131
O184	O	2.116000	-0.639188	-0.685619
C185	C	2.050771	-0.607889	-0.772096
H186	H	1.952558	-0.618915	-0.787394
H187	H	2.043485	-0.573180	-0.733658
C188	C	2.242658	-0.592147	-0.879029
C189	C	2.122035	-0.605692	-0.897827
H190	H	2.286618	-0.590790	-0.956584
H191	H	2.286605	-0.613233	-0.820765
H192	H	2.236569	-0.563225	-0.846993
H193	H	2.128125	-0.634615	-0.929847
H194	H	2.078090	-0.584610	-0.956099
H195	H	2.016273	-0.511814	-0.599761
H196	H	2.016252	-0.426689	-0.599798
H197	H	2.102625	-0.783614	-0.673742
O198	O	2.116379	-0.872420	-0.685268
C199	C	2.239312	-0.865344	-0.648272
H200	H	2.238213	-0.832575	-0.599847
H201	H	2.276647	-0.894627	-0.580549
C202	C	2.325999	-0.902571	-0.824234
C203	C	2.324651	-0.862321	-0.764766
H204	H	2.378643	-0.900709	-0.896091
H205	H	2.243177	-0.907340	-0.849157
H206	H	2.357108	-0.926970	-0.767785
H207	H	2.293528	-0.837924	-0.821209
H208	H	2.407470	-0.857548	-0.739855
H209	H	1.616508	-0.781671	-0.256735
