data_functionalizedCrystal
_audit_creation_method	'MofGen! by Chris Wilmer'
_symmetry_space_group_name_H-M	'P1'
_symmetry_Int_Tables_number	1
_symmetry_cell_setting	triclinic
loop_
_symmetry_equiv_pos_as_xyz
  x,y,z
_cell_length_a	14.971486
_cell_length_b	14.971486
_cell_length_c	13.448316
_cell_angle_alpha	90.006811
_cell_angle_beta	90.001801
_cell_angle_gamma	83.614129
loop_
_atom_site_label
_atom_site_type_symbol
_atom_site_fract_x
_atom_site_fract_y
_atom_site_fract_z
O1	O	-1.186947	-0.116565	-0.082578
O2	O	-0.686947	0.383435	0.417422
O3	O	-0.926547	-0.130524	-0.082605
O4	O	-0.426547	0.369476	0.417395
O5	O	-1.063727	0.006656	-0.082584
O6	O	-0.563727	0.506656	0.417416
O7	O	-1.049768	-0.253744	-0.082599
O8	O	-0.549768	0.246256	0.417401
O9	O	-1.063709	0.006664	0.082800
O10	O	-0.563709	0.506664	0.582800
O11	O	-0.926530	-0.130515	0.082779
O12	O	-0.426530	0.369485	0.582779
O13	O	-1.186930	-0.116556	0.082806
O14	O	-0.686930	0.383444	0.582806
Cu15	Cu	-1.056728	-0.123535	0.097893
Cu16	Cu	-0.556728	0.376465	0.597893
Cu17	Cu	-1.056749	-0.123545	-0.097692
Cu18	Cu	-0.556749	0.376455	0.402308
O19	O	-1.049751	-0.253736	0.082784
O20	O	-0.549751	0.246264	0.582784
C21	C	-0.893214	-0.129895	0.000083
C22	C	-0.393214	0.370105	0.500083
C23	C	-0.793917	-0.128024	0.000073
C24	C	-0.293917	0.371976	0.500073
C25	C	-1.063094	0.039985	0.000108
C26	C	-0.563094	0.539985	0.500108
C27	C	-1.061223	0.139282	0.000107
C28	C	-0.561223	0.639282	0.500107
C29	C	-1.220263	-0.117185	0.000115
C30	C	-0.720263	0.382815	0.500115
C31	C	-1.319561	-0.119056	0.000119
C32	C	-0.819561	0.380944	0.500119
C33	C	-1.050384	-0.287065	0.000091
C34	C	-0.550384	0.212935	0.500091
C35	C	-1.052254	-0.386362	0.000085
C36	C	-0.552254	0.113638	0.500085
C37	C	-0.736692	-0.208614	0.000070
C38	C	-0.236692	0.291386	0.500070
C39	C	-0.643392	-0.206850	0.000085
C40	C	-0.143392	0.293150	0.500085
C41	C	-0.607320	-0.124497	0.000096
C42	C	-0.107320	0.375503	0.500096
C43	C	-0.664552	-0.043902	0.000102
C44	C	-0.164552	0.456098	0.500102
C45	C	-0.757850	-0.045666	0.000095
C46	C	-0.257850	0.454334	0.500095
C47	C	-0.470090	-0.040231	0.000116
C48	C	0.029910	0.459769	0.500116
C49	C	-0.376786	-0.038466	0.000122
C50	C	0.123214	0.461534	0.500122
C51	C	-0.355632	-0.201415	0.000106
C52	C	0.144368	0.298585	0.500106
C53	C	-0.448930	-0.203179	0.000099
C54	C	0.051070	0.296821	0.500099
C55	C	-0.506156	-0.122584	0.000103
C56	C	-0.006156	0.377416	0.500103
C57	C	-1.141812	0.196507	0.000116
C58	C	-0.641812	0.696507	0.500116
C59	C	-1.140049	0.289807	0.000106
C60	C	-0.640049	0.789807	0.500106
C61	C	-1.057696	0.325879	0.000093
C62	C	-0.557696	0.825879	0.500093
C63	C	-0.977101	0.268646	0.000081
C64	C	-0.477101	0.768646	0.500081
C65	C	-0.978865	0.175349	0.000084
C66	C	-0.478865	0.675349	0.500084
C67	C	-0.973430	0.463109	0.000077
C68	C	-0.473430	0.963109	0.500077
C69	C	-0.971665	0.556413	0.000076
C70	C	-0.471665	1.056413	0.500076
C71	C	-1.134614	0.577567	0.000099
C72	C	-0.634614	1.077567	0.500099
C73	C	-1.136378	0.484269	0.000102
C74	C	-0.636378	0.984269	0.500102
C75	C	-1.055782	0.427043	0.000091
C76	C	-0.555782	0.927043	0.500091
N77	N	-1.056721	-0.123527	0.235457
N78	N	-0.556721	0.376473	0.735457
N79	N	-1.056764	-0.123545	-0.235257
N80	N	-0.556764	0.376455	0.264743
C81	C	-1.117483	-0.062809	0.287507
C82	C	-0.617483	0.437191	0.787507
C83	C	-1.117488	-0.062809	0.391610
C84	C	-0.617488	0.437191	0.891610
C85	C	-1.056735	-0.123531	0.443662
C86	C	-0.556735	0.376469	0.943662
C87	C	-0.995967	-0.184252	0.391605
C88	C	-0.495967	0.315748	0.891605
C89	C	-0.995958	-0.184248	0.287504
C90	C	-0.495958	0.315752	0.787504
C91	C	-0.995992	-0.184258	0.608585
C92	C	-0.495992	0.315742	1.108585
C93	C	-0.996002	-0.184264	0.712693
C94	C	-0.496002	0.315736	1.212693
C95	C	-1.117522	-0.062819	0.712692
C96	C	-0.617522	0.437181	1.212692
C97	C	-1.117513	-0.062815	0.608591
C98	C	-0.617513	0.437185	1.108591
C99	C	-1.056745	-0.123537	0.556541
C100	C	-0.556745	0.376463	1.056541
H101	H	-0.766054	-0.275675	0.000060
H102	H	-0.266054	0.224325	0.500060
Cl103	Cl	-0.919586	-0.260586	0.457039
Cl104	Cl	-0.419586	0.239414	0.957039
Cl105	Cl	-0.919621	-0.260602	0.778122
Cl106	Cl	-0.419621	0.239398	1.278122
Cl107	Cl	-0.868134	0.601760	0.000062
Cl108	Cl	-0.368134	1.101760	0.500062
Cl109	Cl	-1.241366	0.361744	0.000120
Cl110	Cl	-0.741366	0.861744	0.500120
H111	H	-0.347419	0.028593	0.000133
H112	H	0.152581	0.528593	0.500133
Cl113	Cl	-0.283691	-0.302736	0.000103
Cl114	Cl	0.216309	0.197264	0.500103
Cl115	Cl	-1.239909	0.438922	0.000112
Cl116	Cl	-0.739909	0.938922	0.500112
Cl117	Cl	-0.919564	-0.260579	0.222070
Cl118	Cl	-0.419564	0.239421	0.722070
Cl119	Cl	-0.872107	0.391168	0.000064
Cl120	Cl	-0.372107	0.891168	0.500064
Cl121	Cl	-1.193867	0.013528	0.222082
Cl122	Cl	-0.693867	0.513528	0.722082
Cl123	Cl	-0.571455	-0.308168	0.000074
Cl124	Cl	-0.071455	0.191832	0.500074
H125	H	-0.478296	-0.270239	0.000080
H126	H	0.021704	0.229761	0.500080
Cl127	Cl	-0.829791	0.055651	0.000103
Cl128	Cl	-0.329791	0.555651	0.500103
Cl129	Cl	-1.193915	0.013515	0.778129
Cl130	Cl	-0.693915	0.513515	1.278129
H131	H	-1.166987	-0.013374	0.566210
H132	H	-0.666987	0.486626	1.066210
Cl133	Cl	-0.919594	-0.260595	0.543155
Cl134	Cl	-0.419594	0.239405	1.043155
H135	H	-1.166964	-0.013367	0.433989
H136	H	-0.666964	0.486633	0.933989
H137	H	-0.516682	0.025399	0.000121
H138	H	-0.016682	0.525399	0.500121
Cl139	Cl	-1.245348	0.151169	0.000141
Cl140	Cl	-0.745348	0.651169	0.500141
Cl141	Cl	-0.619204	0.059629	0.000123
Cl142	Cl	-0.119204	0.559629	0.500123
H143	H	-0.910047	0.298024	0.000065
H144	H	-0.410047	0.798024	0.500065
H145	H	-1.200238	0.624165	0.000104
H146	H	-0.700238	1.124165	0.500104
H147	H	-0.913240	0.128756	0.000077
H148	H	-0.413240	0.628756	0.500077
