data_functionalizedCrystal
_audit_creation_method	'MofGen! by Chris Wilmer'
_symmetry_space_group_name_H-M	'P1'
_symmetry_Int_Tables_number	1
_symmetry_cell_setting	triclinic
loop_
_symmetry_equiv_pos_as_xyz
  x,y,z
_cell_length_a	19.188940
_cell_length_b	16.109301
_cell_length_c	14.586319
_cell_angle_alpha	89.994467
_cell_angle_beta	90.012807
_cell_angle_gamma	96.694902
loop_
_atom_site_label
_atom_site_type_symbol
_atom_site_fract_x
_atom_site_fract_y
_atom_site_fract_z
O1	O	0.089752	-1.102842	0.076183
O2	O	0.339752	-0.852842	0.326183
O3	O	0.589752	-0.602842	0.576183
O4	O	0.839752	-0.352842	0.826183
O5	O	0.100920	-0.860743	0.076198
O6	O	0.350920	-0.610743	0.326198
O7	O	0.600920	-0.360743	0.576198
O8	O	0.850920	-0.110743	0.826198
O9	O	-0.006303	-0.988775	0.076183
O10	O	0.243697	-0.738775	0.326183
O11	O	0.493697	-0.488775	0.576183
O12	O	0.743697	-0.238775	0.826183
O13	O	0.196975	-0.974810	0.076198
O14	O	0.446975	-0.724810	0.326198
O15	O	0.696975	-0.474810	0.576198
O16	O	0.946975	-0.224810	0.826198
O17	O	-0.006321	-0.988757	-0.076298
O18	O	0.243679	-0.738757	0.173702
O19	O	0.493679	-0.488757	0.423702
O20	O	0.743679	-0.238757	0.673702
O21	O	0.100902	-0.860725	-0.076283
O22	O	0.350902	-0.610725	0.173717
O23	O	0.600902	-0.360725	0.423717
O24	O	0.850902	-0.110725	0.673717
O25	O	0.089734	-1.102824	-0.076298
O26	O	0.339734	-0.852824	0.173702
O27	O	0.589734	-0.602824	0.423702
O28	O	0.839734	-0.352824	0.673702
Cu29	Cu	0.095316	-0.981773	-0.090213
Cu30	Cu	0.345316	-0.731773	0.159787
Cu31	Cu	0.595316	-0.481773	0.409787
Cu32	Cu	0.845316	-0.231773	0.659787
Cu33	Cu	0.095338	-0.981794	0.090113
Cu34	Cu	0.345338	-0.731794	0.340113
Cu35	Cu	0.595338	-0.481794	0.590113
Cu36	Cu	0.845338	-0.231794	0.840113
O37	O	0.196957	-0.974792	-0.076283
O38	O	0.446957	-0.724792	0.173717
O39	O	0.696957	-0.474792	0.423717
O40	O	0.946957	-0.224792	0.673717
C41	C	0.100459	-0.829761	-0.000041
C42	C	0.350459	-0.579761	0.249959
C43	C	0.600459	-0.329761	0.499959
C44	C	0.850459	-0.079761	0.749959
C45	C	0.099102	-0.737470	-0.000035
C46	C	0.349102	-0.487470	0.249965
C47	C	0.599102	-0.237470	0.499965
C48	C	0.849102	0.012530	0.749965
C49	C	-0.032324	-0.988312	-0.000057
C50	C	0.217676	-0.738312	0.249943
C51	C	0.467676	-0.488312	0.499943
C52	C	0.717676	-0.238312	0.749943
C53	C	-0.109831	-0.986951	-0.000057
C54	C	0.140169	-0.736951	0.249943
C55	C	0.390169	-0.486951	0.499943
C56	C	0.640169	-0.236951	0.749943
C57	C	0.090195	-1.133806	-0.000057
C58	C	0.340195	-0.883806	0.249943
C59	C	0.590195	-0.633806	0.499943
C60	C	0.840195	-0.383806	0.749943
C61	C	0.091551	-1.226097	-0.000056
C62	C	0.341551	-0.976097	0.249944
C63	C	0.591551	-0.726097	0.499944
C64	C	0.841551	-0.476097	0.749944
C65	C	-0.663123	-0.977254	-0.083152
C66	C	-0.413123	-0.727254	0.166848
C67	C	-0.163123	-0.477254	0.416848
C68	C	0.086877	-0.227254	0.666848
C69	C	-0.590296	-0.978524	-0.083157
C70	C	-0.340296	-0.728524	0.166843
C71	C	-0.090296	-0.478524	0.416843
C72	C	0.159704	-0.228524	0.666843
C73	C	-0.553865	-0.979173	-0.000041
C74	C	-0.303865	-0.729173	0.249959
C75	C	-0.053865	-0.479173	0.499959
C76	C	0.196135	-0.229173	0.749959
C77	C	-0.590265	-0.978530	0.083087
C78	C	-0.340265	-0.728530	0.333087
C79	C	-0.090265	-0.478530	0.583087
C80	C	0.159735	-0.228530	0.833087
C81	C	-0.663090	-0.977252	0.083090
C82	C	-0.413090	-0.727252	0.333090
C83	C	-0.163090	-0.477252	0.583090
C84	C	0.086910	-0.227252	0.833090
N85	N	-0.444718	-1.028498	0.061822
N86	N	-0.194718	-0.778498	0.311822
N87	N	0.055282	-0.528498	0.561822
N88	N	0.305282	-0.278498	0.811822
N89	N	-0.375537	-1.029715	0.061813
N90	N	-0.125537	-0.779715	0.311813
N91	N	0.124463	-0.529715	0.561813
N92	N	0.374463	-0.279715	0.811813
C93	C	-0.334446	-0.983024	-0.000044
C94	C	-0.084446	-0.733024	0.249956
C95	C	0.165554	-0.483024	0.499956
C96	C	0.415554	-0.233024	0.749956
N97	N	-0.365151	-0.935081	-0.061907
N98	N	-0.115151	-0.685081	0.188093
N99	N	0.134849	-0.435081	0.438093
N100	N	0.384849	-0.185081	0.688093
N101	N	-0.434338	-0.933869	-0.061901
N102	N	-0.184338	-0.683869	0.188099
N103	N	0.065662	-0.433869	0.438099
N104	N	0.315662	-0.183869	0.688099
C105	C	-0.474898	-0.980559	-0.000034
C106	C	-0.224898	-0.730559	0.249966
C107	C	0.025102	-0.480559	0.499966
C108	C	0.275102	-0.230559	0.749966
C109	C	-0.219087	-0.985038	-0.083172
C110	C	0.030913	-0.735038	0.166828
C111	C	0.280913	-0.485038	0.416828
C112	C	0.530913	-0.235038	0.666828
C113	C	-0.146257	-0.986303	-0.083174
C114	C	0.103743	-0.736303	0.166826
C115	C	0.353743	-0.486303	0.416826
C116	C	0.603743	-0.236303	0.666826
C117	C	-0.146229	-0.986318	0.083073
C118	C	0.103771	-0.736318	0.333073
C119	C	0.353771	-0.486318	0.583073
C120	C	0.603771	-0.236318	0.833073
C121	C	-0.219056	-0.985044	0.083072
C122	C	0.030944	-0.735044	0.333072
C123	C	0.280944	-0.485044	0.583072
C124	C	0.530944	-0.235044	0.833072
C125	C	-0.255481	-0.984408	-0.000053
C126	C	-0.005481	-0.734408	0.249947
C127	C	0.244519	-0.484408	0.499947
C128	C	0.494519	-0.234408	0.749947
C129	C	0.222978	-0.975255	-0.000041
C130	C	0.472978	-0.725255	0.249959
C131	C	0.722978	-0.475255	0.499959
C132	C	0.972978	-0.225255	0.749959
C133	C	0.300485	-0.976616	-0.000035
C134	C	0.550485	-0.726616	0.249965
C135	C	0.800485	-0.476616	0.499965
C136	C	1.050485	-0.226616	0.749965
N137	N	0.095301	-0.981764	-0.217045
N138	N	0.345301	-0.731764	0.032955
N139	N	0.595301	-0.481764	0.282955
N140	N	0.845301	-0.231764	0.532955
C141	C	0.159573	-0.515000	-0.000041
C142	C	0.409573	-0.265000	0.249959
C143	C	0.659573	-0.015000	0.499959
C144	C	0.909573	0.235000	0.749959
C145	C	0.158293	-0.428283	-0.000047
C146	C	0.408293	-0.178283	0.249953
C147	C	0.658293	0.071717	0.499953
C148	C	0.908293	0.321717	0.749953
C149	C	0.031076	-0.448574	-0.000053
C150	C	0.281076	-0.198574	0.249947
C151	C	0.531076	0.051426	0.499947
C152	C	0.781076	0.301426	0.749947
C153	C	0.032357	-0.535289	-0.000053
C154	C	0.282357	-0.285289	0.249947
C155	C	0.532357	-0.035289	0.499947
C156	C	0.782357	0.214711	0.749947
C157	C	0.096607	-0.568499	-0.000043
C158	C	0.346607	-0.318499	0.249957
C159	C	0.596607	-0.068499	0.499957
C160	C	0.846607	0.181501	0.749957
C161	C	0.094047	-0.395068	-0.000048
C162	C	0.344047	-0.145068	0.249952
C163	C	0.594047	0.104932	0.499952
C164	C	0.844047	0.354932	0.749952
C165	C	0.092659	-0.301047	-0.000055
C166	C	0.342659	-0.051047	0.249945
C167	C	0.592659	0.198953	0.499945
C168	C	0.842659	0.448953	0.749945
C169	C	0.097996	-0.662526	-0.000038
C170	C	0.347996	-0.412526	0.249962
C171	C	0.597996	-0.162526	0.499962
C172	C	0.847996	0.087474	0.749962
C173	C	0.052972	-0.931520	-0.548074
C174	C	0.302972	-0.681520	-0.298074
C175	C	0.552972	-0.431520	-0.048074
C176	C	0.802972	-0.181520	0.201926
C177	C	0.052963	-0.931513	-0.452092
C178	C	0.302963	-0.681513	-0.202092
C179	C	0.552963	-0.431513	0.047908
C180	C	0.802963	-0.181513	0.297908
C181	C	0.137678	-1.032059	-0.452033
C182	C	0.387678	-0.782059	-0.202033
C183	C	0.637678	-0.532059	0.047967
C184	C	0.887678	-0.282059	0.297967
C185	C	0.137683	-1.032070	-0.548012
C186	C	0.387683	-0.782070	-0.298012
C187	C	0.637683	-0.532070	-0.048012
C188	C	0.887683	-0.282070	0.201988
C189	C	0.095332	-0.981795	-0.596030
C190	C	0.345332	-0.731795	-0.346030
C191	C	0.595332	-0.481795	-0.096030
C192	C	0.845332	-0.231795	0.153970
C193	C	0.095317	-0.981778	-0.404069
C194	C	0.345317	-0.731778	-0.154069
C195	C	0.595317	-0.481778	0.095931
C196	C	0.845317	-0.231778	0.345931
C197	C	0.095306	-0.981771	-0.300002
C198	C	0.345306	-0.731771	-0.050002
C199	C	0.595306	-0.481771	0.199998
C200	C	0.845306	-0.231771	0.449998
C201	C	0.095341	-0.981803	-0.700104
C202	C	0.345341	-0.731803	-0.450104
C203	C	0.595341	-0.481803	-0.200104
C204	C	0.845341	-0.231803	0.049896
N205	N	0.095348	-0.981810	0.216945
N206	N	0.345348	-0.731810	0.466945
N207	N	0.595348	-0.481810	0.716945
N208	N	0.845348	-0.231810	0.966945
H209	H	-0.692776	-0.976736	-0.150838
H210	H	-0.442776	-0.726736	0.099162
H211	H	-0.192776	-0.476736	0.349162
H212	H	0.057224	-0.226736	0.599162
H213	H	0.172160	-1.072990	-0.412925
H214	H	0.422160	-0.822990	-0.162925
H215	H	0.672160	-0.572990	0.087075
H216	H	0.922160	-0.322990	0.337075
Br217	Br	-0.268524	-0.984173	-0.195981
Br218	Br	-0.018524	-0.734173	0.054019
Br219	Br	0.231476	-0.484173	0.304019
Br220	Br	0.481476	-0.234173	0.554019
H221	H	-0.116628	-0.986821	-0.150860
H222	H	0.133372	-0.736821	0.099140
H223	H	0.383372	-0.486821	0.349140
H224	H	0.633372	-0.236821	0.599140
Br225	Br	-0.053103	-0.607901	-0.000067
Br226	Br	0.196897	-0.357901	0.249933
Br227	Br	0.446897	-0.107901	0.499933
Br228	Br	0.696897	0.142099	0.749933
H229	H	-0.560598	-0.979056	0.150761
H230	H	-0.310598	-0.729056	0.400761
H231	H	-0.060598	-0.479056	0.650761
H232	H	0.189402	-0.229056	0.900761
H233	H	0.018486	-0.890584	-0.587167
H234	H	0.268486	-0.640584	-0.337167
H235	H	0.518486	-0.390584	-0.087167
H236	H	0.768486	-0.140584	0.162833
Br237	Br	-0.004526	-0.863276	-0.387012
Br238	Br	0.245474	-0.613276	-0.137012
Br239	Br	0.495474	-0.363276	0.112988
Br240	Br	0.745474	-0.113276	0.362988
H241	H	-0.692720	-0.976731	0.150775
H242	H	-0.442720	-0.726731	0.400775
H243	H	-0.192720	-0.476731	0.650775
H244	H	0.057280	-0.226731	0.900775
H245	H	-0.116566	-0.986836	0.150747
H246	H	0.133434	-0.736836	0.400747
H247	H	0.383434	-0.486836	0.650747
H248	H	0.633434	-0.236836	0.900747
Br249	Br	-0.268449	-0.984183	0.195880
Br250	Br	-0.018449	-0.734183	0.445880
Br251	Br	0.231551	-0.484183	0.695880
Br252	Br	0.481551	-0.234183	0.945880
H253	H	-0.560658	-0.979029	-0.150842
H254	H	-0.310658	-0.729029	0.099158
H255	H	-0.060658	-0.479029	0.349158
H256	H	0.189342	-0.229029	0.599158
H257	H	0.211889	-0.542036	-0.000040
H258	H	0.461889	-0.292036	0.249960
H259	H	0.711889	-0.042036	0.499960
H260	H	0.961889	0.207964	0.749960
H261	H	0.209566	-0.384727	-0.000048
H262	H	0.459566	-0.134727	0.249952
H263	H	0.709566	0.115273	0.499952
H264	H	0.959566	0.365273	0.749952
Br265	Br	0.195170	-1.100312	-0.613102
Br266	Br	0.445170	-0.850312	-0.363102
Br267	Br	0.695170	-0.600312	-0.113102
Br268	Br	0.945170	-0.350312	0.136898
H269	H	-0.021234	-0.421523	-0.000067
H270	H	0.228766	-0.171523	0.249933
H271	H	0.478766	0.078477	0.499933
H272	H	0.728766	0.328477	0.749933
