data_functionalizedCrystal
_audit_creation_method	'MofGen! by Chris Wilmer'
_symmetry_space_group_name_H-M	'P1'
_symmetry_Int_Tables_number	1
_symmetry_cell_setting	triclinic
loop_
_symmetry_equiv_pos_as_xyz
  x,y,z
_cell_length_a	12.594517
_cell_length_b	29.839131
_cell_length_c	12.594509
_cell_angle_alpha	90.034966
_cell_angle_beta	90.021327
_cell_angle_gamma	90.041220
loop_
_atom_site_label
_atom_site_type_symbol
_atom_site_fract_x
_atom_site_fract_y
_atom_site_fract_z
Zn1	Zn	1.627079	-0.178842	0.601810
Zn2	Zn	1.626891	-0.253977	0.423811
Zn3	Zn	1.449083	-0.178861	0.423839
Zn4	Zn	1.448987	-0.253946	0.601741
O5	O	1.538010	-0.216407	0.512800
O6	O	1.776000	-0.188814	0.578215
O7	O	1.603266	-0.244034	0.274869
O8	O	1.472814	-0.115992	0.447488
O9	O	1.775862	-0.244015	0.447440
O10	O	1.603587	-0.115978	0.578243
O11	O	1.472632	-0.188847	0.274889
O12	O	1.300125	-0.188816	0.447421
O13	O	1.472649	-0.243962	0.750696
O14	O	1.300054	-0.243981	0.578124
O15	O	1.603493	-0.188784	0.750747
O16	O	1.603173	-0.316840	0.447373
O17	O	1.472467	-0.316817	0.578097
C18	C	1.261469	-0.216398	0.512769
C19	C	1.143164	-0.216404	0.512781
C20	C	1.537818	-0.333129	0.512747
C21	C	1.537833	-0.383064	0.512760
C22	C	1.073918	-0.186360	0.441827
C23	C	1.003064	-0.227339	0.415635
C24	C	1.003219	-0.175445	0.538990
C25	C	1.073868	-0.257405	0.486538
C26	C	1.074029	-0.205484	0.609939
C27	C	1.003207	-0.246491	0.583784
C28	C	1.606192	-0.692706	0.444831
C29	C	1.606324	-0.880379	0.444873
O30	O	1.664293	-0.904643	0.387076
N31	N	1.538231	-0.903849	0.512880
C32	C	1.470105	-0.880397	0.580888
O33	O	1.412199	-0.904665	0.638741
C34	C	1.469980	-0.692725	0.580851
C35	C	1.538070	-0.669258	0.512831
C36	C	1.674278	-0.669239	0.376818
C37	C	1.674240	-0.622324	0.376804
C38	C	1.606117	-0.598875	0.444804
C39	C	1.538032	-0.622342	0.512817
C40	C	1.401860	-0.669274	0.648863
C41	C	1.401837	-0.622353	0.648849
C42	C	1.469927	-0.598886	0.580829
C43	C	1.469872	-0.551978	0.580803
N44	N	1.537965	-0.528509	0.512796
C45	C	1.606087	-0.551957	0.444796
C46	C	1.470174	-0.978927	0.580901
C47	C	1.470204	-1.025845	0.580909
C48	C	1.606424	-1.025824	0.444895
C49	C	1.606388	-0.978906	0.444882
C50	C	1.538267	-0.955458	0.512893
C51	C	1.606003	-0.453432	0.444772
C52	C	1.605956	-0.406512	0.444761
C53	C	1.469740	-0.406537	0.580778
C54	C	1.469782	-0.453452	0.580785
C55	C	1.537922	-0.476899	0.512779
O56	O	1.411941	-0.527685	0.638578
O57	O	1.664002	-0.527681	0.386968
C58	C	1.606230	-0.739622	0.444845
C59	C	1.538145	-0.763089	0.512859
C60	C	1.470022	-0.739640	0.580858
C61	C	1.538175	-0.810006	0.512867
C62	C	1.606297	-0.833455	0.444867
C63	C	1.674390	-0.809986	0.376859
C64	C	1.674353	-0.763070	0.376846
C65	C	1.401929	-0.763109	0.648866
C66	C	1.401972	-0.810025	0.648873
C67	C	1.470094	-0.833473	0.580874
C68	C	1.815631	-0.216416	0.512832
C69	C	1.933936	-0.216420	0.512846
C70	C	1.538081	-0.216367	0.790421
C71	C	1.538112	-0.216350	0.908727
C72	C	1.538232	-0.099228	0.512876
C73	C	1.538327	-0.049294	0.512909
C74	C	1.538000	-0.216413	0.236259
C75	C	1.538176	-0.216304	0.117954
C76	C	1.466968	-0.246345	0.977952
C77	C	1.564077	-0.257322	1.048740
C78	C	1.441079	-0.205346	1.048739
C79	C	1.635272	-0.227349	0.977956
C80	C	1.512208	-0.175355	0.977949
C81	C	1.609384	-0.186316	1.048704
H82	H	1.104966	-0.160977	0.381749
C83	C	1.327065	-0.835835	0.723702
C84	C	1.206065	-0.829437	0.714915
C85	C	1.131169	-0.855244	0.789750
C86	C	1.177273	-0.887449	0.873371
C87	C	1.298280	-0.893849	0.882162
C88	C	1.373176	-0.868041	0.807327
H89	H	1.171931	-0.805595	0.653010
H90	H	1.041592	-0.850507	0.783242
H91	H	1.121831	-0.906554	0.928768
H92	H	1.332414	-0.917690	0.944067
H93	H	1.462753	-0.872778	0.813835
H94	H	0.971896	-0.236586	0.333498
H95	H	1.717382	-0.236676	0.946994
H96	H	0.972354	-0.271935	0.643816
C97	C	1.115608	-0.304222	0.456489
C98	C	1.236005	-0.312860	0.450855
C99	C	1.277747	-0.359675	0.420802
C100	C	1.199092	-0.397852	0.396383
C101	C	1.078688	-0.389216	0.402016
C102	C	1.036945	-0.342401	0.432069
H103	H	1.294237	-0.284597	0.468932
H104	H	1.366879	-0.366068	0.416632
H105	H	1.229992	-0.432508	0.374135
H106	H	1.020456	-0.417478	0.383939
H107	H	0.947813	-0.336008	0.436239
H108	H	1.358992	-0.196059	1.079831
C109	C	1.116180	-0.192978	0.720866
C110	C	1.088396	-0.147179	0.769914
C111	C	1.130550	-0.134667	0.880841
C112	C	1.200488	-0.167953	0.942720
C113	C	1.228275	-0.213754	0.893672
C114	C	1.186121	-0.226266	0.782745
H115	H	1.036621	-0.122537	0.724107
H116	H	1.109980	-0.100762	0.917149
H117	H	1.231692	-0.158690	1.024835
H118	H	1.280050	-0.238397	0.939479
H119	H	1.206691	-0.260171	0.746437
H120	H	1.490234	-0.140715	0.946830
H121	H	1.669644	-0.160931	1.079573
H122	H	1.414748	-1.044948	0.636287
C123	C	0.961291	-0.128643	0.568911
C124	C	0.989222	-0.087837	0.499505
C125	C	0.947298	-0.041035	0.529414
C126	C	0.877444	-0.035039	0.628730
C127	C	0.849510	-0.075846	0.698143
C128	C	0.891433	-0.122649	0.668233
H129	H	1.040936	-0.092274	0.425979
H130	H	0.967978	-0.010826	0.478030
H131	H	0.846410	-0.000393	0.650871
H132	H	0.797796	-0.071409	0.771668
H133	H	0.870754	-0.152857	0.719617
C134	C	1.749328	-0.835785	0.302060
C135	C	1.740713	-0.829382	0.181048
C136	C	1.815650	-0.855184	0.106258
C137	C	1.899204	-0.887389	0.152480
C138	C	1.907823	-0.893793	0.273499
C139	C	1.832885	-0.867991	0.348289
H140	H	1.678858	-0.805541	0.146825
H141	H	1.809270	-0.850443	0.016672
H142	H	1.954677	-0.906489	0.097117
H143	H	1.969677	-0.917634	0.307721
H144	H	1.839266	-0.872732	0.437875
C145	C	1.681366	-1.051623	0.370099
C146	C	1.681396	-1.103231	0.370122
C147	C	1.756340	-1.129032	0.295337
C148	C	1.831255	-1.103225	0.220529
C149	C	1.831228	-1.051615	0.220503
C150	C	1.756284	-1.025814	0.295288
H151	H	1.625937	-1.122337	0.425502
H152	H	1.756359	-1.167238	0.295357
H153	H	1.886733	-1.122325	0.165168
H154	H	1.886687	-1.032509	0.165122
H155	H	1.756265	-0.987608	0.295268
H156	H	1.661403	-0.387407	0.389367
H157	H	1.346457	-0.744021	0.704241
H158	H	1.661491	-0.472516	0.389396
C159	C	1.326963	-0.695077	0.723695
C160	C	1.205965	-0.688672	0.714912
C161	C	1.131063	-0.714474	0.789753
C162	C	1.177160	-0.746679	0.873377
C163	C	1.298165	-0.753085	0.882164
C164	C	1.373066	-0.727284	0.807323
H165	H	1.171836	-0.664830	0.653006
H166	H	1.041488	-0.709731	0.783248
H167	H	1.121714	-0.765779	0.928779
H168	H	1.332294	-0.776927	0.944071
H169	H	1.462642	-0.732026	0.813828
H170	H	1.729687	-0.603220	0.321420
H171	H	1.406851	-0.271749	0.946888
C172	C	1.593723	-0.304128	1.090763
C173	C	1.524079	-0.344908	1.062845
C174	C	1.553715	-0.391714	1.104866
C175	C	1.652995	-0.397741	1.174804
C176	C	1.722646	-0.356960	1.202726
C177	C	1.693010	-0.310154	1.160705
H178	H	1.450580	-0.340447	1.011069
H179	H	1.502154	-0.421903	1.084196
H180	H	1.674933	-0.432390	1.205911
H181	H	1.796144	-0.361421	1.254502
H182	H	1.744570	-0.279965	1.181374
H183	H	1.729757	-0.688326	0.321444
C184	C	1.326897	-0.596560	0.723660
C185	C	1.243330	-0.564357	0.677459
C186	C	1.168389	-0.538565	0.752267
C187	C	1.177016	-0.544978	0.873275
C188	C	1.260587	-0.577183	0.919483
C189	C	1.335527	-0.602974	0.844675
H190	H	1.236941	-0.559609	0.587876
H191	H	1.106525	-0.514725	0.718060
H192	H	1.121541	-0.525885	0.928652
H193	H	1.266976	-0.581931	1.009066
H194	H	1.397392	-0.626815	0.878882
C195	C	1.394812	-0.380736	0.655577
C196	C	1.311258	-0.348527	0.609372
C197	C	1.236336	-0.322725	0.684177
C198	C	1.244969	-0.329131	0.805187
C199	C	1.328526	-0.361342	0.851398
C200	C	1.403447	-0.387144	0.776593
H201	H	1.304864	-0.343784	0.519787
H202	H	1.174482	-0.298881	0.649968
H203	H	1.189507	-0.310031	0.860562
H204	H	1.334919	-0.366086	0.940982
H205	H	1.465302	-0.410989	0.810802
H206	H	1.661833	-0.959802	0.389495
C207	C	1.749259	-0.737261	0.302026
C208	C	1.703173	-0.705054	0.218398
C209	C	1.778085	-0.679249	0.143575
C210	C	1.899082	-0.685651	0.152379
C211	C	1.945174	-0.717860	0.236010
C212	C	1.870262	-0.743665	0.310833
H213	H	1.613598	-0.700313	0.211878
H214	H	1.743964	-0.655406	0.081666
H215	H	1.954536	-0.666549	0.096990
H216	H	2.034749	-0.722600	0.242530
H217	H	1.904383	-0.767508	0.372742
H218	H	1.414341	-0.472560	0.636176
H219	H	1.414699	-0.959839	0.636284
