data_functionalizedCrystal
_audit_creation_method	'MofGen! by Chris Wilmer'
_symmetry_space_group_name_H-M	'P1'
_symmetry_Int_Tables_number	1
_symmetry_cell_setting	triclinic
loop_
_symmetry_equiv_pos_as_xyz
  x,y,z
_cell_length_a	16.992701
_cell_length_b	10.967829
_cell_length_c	16.053802
_cell_angle_alpha	80.477515
_cell_angle_beta	87.243340
_cell_angle_gamma	87.621741
loop_
_atom_site_label
_atom_site_type_symbol
_atom_site_fract_x
_atom_site_fract_y
_atom_site_fract_z
O1	O	1.046848	0.257169	-0.106432
O2	O	0.818527	0.254297	-0.106020
O3	O	0.936733	0.076438	-0.080427
O4	O	0.928643	0.435028	-0.132025
O5	O	0.930226	0.086185	0.057030
O6	O	0.812021	0.264044	0.031437
O7	O	1.040341	0.266915	0.031024
Zn8	Zn	0.925148	0.267027	0.053055
Zn9	Zn	0.933721	0.254185	-0.128050
O10	O	0.922136	0.444774	0.005431
C11	C	0.786016	0.255472	-0.036759
C12	C	0.698837	0.244438	-0.035172
C13	C	0.208970	0.170300	-0.024507
C14	C	0.290883	0.180677	-0.025995
C15	C	0.323857	0.297529	-0.042813
C16	C	0.274913	0.404011	-0.058136
C17	C	0.193001	0.393633	-0.056641
C18	C	0.567981	0.340542	-0.049000
C19	C	0.649899	0.350912	-0.050496
C20	C	0.665864	0.127577	-0.018354
C21	C	0.583950	0.117208	-0.016866
C22	C	0.535012	0.223691	-0.032184
N23	N	0.407586	0.308139	-0.044337
N24	N	0.451285	0.213080	-0.030654
C25	C	0.932399	0.035215	-0.005067
C26	C	0.929171	-0.102136	0.014691
C27	C	0.931102	-0.168415	-0.047707
C28	C	0.927766	-0.310376	-0.027287
C29	C	1.072852	0.265740	-0.038238
C30	C	1.160032	0.276774	-0.039831
C31	C	0.926470	0.485997	-0.069930
C32	C	0.929698	0.623348	-0.089694
N33	N	0.919303	0.275791	0.176654
N34	N	0.939572	0.245412	-0.251648
C35	C	0.969618	0.200142	0.231233
C36	C	0.965537	0.206285	0.317756
C37	C	0.911143	0.288084	0.349697
C38	C	0.860822	0.363736	0.295111
C39	C	0.864900	0.357586	0.208591
C40	C	0.893329	0.314914	0.607246
C41	C	0.889256	0.321061	0.693773
C42	C	0.993971	0.163608	0.716412
C43	C	0.998047	0.157470	0.629888
C44	C	0.947723	0.233117	0.575311
N45	N	0.906972	0.294368	0.438136
N46	N	0.951891	0.226826	0.486874
H47	H	0.153156	0.480336	-0.069117
H48	H	0.925042	-0.150490	0.083230
C49	C	0.936678	-0.103098	-0.140302
N50	N	0.940881	-0.053904	-0.210047
H51	H	0.933813	-0.328304	-0.158238
C52	C	1.029456	0.110156	0.196107
N53	N	1.074524	0.042371	0.169654
H54	H	0.923637	-0.358724	0.041257
C55	C	0.686168	0.479464	-0.068997
N56	N	0.713486	0.576284	-0.082932
C57	C	1.020869	0.123034	0.377795
N58	N	1.062541	0.060312	0.423018
C59	C	1.049317	0.080391	0.776455
N60	N	1.091002	0.017704	0.821681
H61	H	1.042339	0.090863	0.603885
H62	H	0.844960	0.387676	0.719773
C63	C	0.838075	0.398299	0.547197
N64	N	0.796492	0.461170	0.501956
H65	H	0.816530	0.430334	0.321123
H66	H	0.182129	0.075146	-0.010817
C67	C	0.344712	0.063546	-0.009138
N68	N	0.385255	-0.024683	0.003560
H69	H	0.557108	0.022055	-0.003171
C70	C	0.719700	0.010455	-0.001492
N71	N	0.760250	-0.077765	0.011214
H72	H	0.528146	0.427248	-0.061477
H73	H	0.301767	0.499155	-0.071824
C74	C	0.809555	0.440816	0.148552
N75	N	0.767868	0.503509	0.103330
