data_functionalizedCrystal
_audit_creation_method	'MofGen! by Chris Wilmer'
_symmetry_space_group_name_H-M	'P1'
_symmetry_Int_Tables_number	1
_symmetry_cell_setting	triclinic
loop_
_symmetry_equiv_pos_as_xyz
  x,y,z
_cell_length_a	17.699083
_cell_length_b	13.262508
_cell_length_c	16.776229
_cell_angle_alpha	105.911687
_cell_angle_beta	89.998886
_cell_angle_gamma	83.879892
loop_
_atom_site_label
_atom_site_type_symbol
_atom_site_fract_x
_atom_site_fract_y
_atom_site_fract_z
O1	O	1.004670	0.132726	-0.037398
O2	O	0.784368	0.149994	-0.033680
O3	O	0.900065	-0.011440	-0.068664
O4	O	0.888973	0.294161	-0.002415
O5	O	0.900049	-0.011450	0.063910
O6	O	0.784353	0.149984	0.098894
O7	O	1.004654	0.132716	0.095176
Zn8	Zn	0.894501	0.141349	0.118084
Zn9	Zn	0.894521	0.141362	-0.056588
O10	O	0.888958	0.294151	0.130160
C11	C	0.756161	0.149371	0.032469
C12	C	0.672134	0.147514	0.032057
C13	C	0.623936	0.242273	0.052599
C14	C	0.544984	0.240523	0.052230
C15	C	0.514234	0.144012	0.031313
C16	C	0.562439	0.049246	0.010771
C17	C	0.641388	0.050998	0.011146
C18	C	0.244044	0.042181	0.009259
C19	C	0.165088	0.040437	0.008883
C20	C	0.147640	0.231706	0.050343
C21	C	0.226590	0.233457	0.050718
C22	C	0.274788	0.138692	0.030181
C23	C	0.360396	0.140591	0.030583
C24	C	0.428628	0.142112	0.030905
C25	C	0.899436	-0.050546	-0.010855
C26	C	0.897579	-0.167055	-0.036118
C27	C	0.892305	-0.495509	0.181744
C28	C	0.894044	-0.386042	0.205481
C29	C	0.894928	-0.331290	0.145083
C30	C	0.894072	-0.386016	0.060944
C31	C	0.892327	-0.495492	0.037205
C32	C	0.894950	-0.331273	0.000544
C33	C	0.894094	-0.385999	-0.083594
C34	C	0.892349	-0.495465	-0.107329
C35	C	0.891465	-0.550217	-0.046932
C36	C	0.896696	-0.221797	0.024283
C37	C	0.896717	-0.221780	-0.120255
C38	C	0.894978	-0.331247	-0.143992
C39	C	1.032862	0.133340	0.029025
C40	C	1.116888	0.135196	0.029432
C41	C	0.889586	0.333257	0.072349
C42	C	0.891444	0.449766	0.097607
N43	N	0.894493	0.141339	0.237293
N44	N	0.894536	0.141363	-0.175799
C45	C	0.945739	0.069885	0.263526
C46	C	0.945743	0.069884	0.346978
C47	C	0.894504	0.141343	0.404197
C48	C	0.843253	0.212801	0.377959
C49	C	0.843245	0.212796	0.294507
C50	C	0.843280	0.212821	0.714511
C51	C	0.843293	0.212823	0.797968
C52	C	0.945778	0.069910	0.766981
C53	C	0.945770	0.069905	0.683529
C54	C	0.894517	0.141358	0.657298
C55	C	0.894512	0.141357	0.566810
C56	C	0.894512	0.141350	0.494685
H57	H	0.108388	0.308868	0.067070
Cl58	Cl	0.304626	-0.076954	-0.016560
H59	H	0.987471	0.011701	0.368335
H60	H	0.987509	0.011725	0.788346
H61	H	0.891645	-0.540018	-0.175840
Cl62	Cl	0.126432	-0.080900	-0.017414
Cl63	Cl	0.778851	0.302650	0.681540
H64	H	0.801565	0.271016	0.844556
Cl65	Cl	0.523781	-0.072082	-0.015520
Cl66	Cl	0.778833	0.302632	0.449889
H67	H	0.897432	-0.177200	-0.169436
H68	H	0.680632	-0.026165	-0.005582
Cl69	Cl	0.662585	0.363608	0.078892
H70	H	0.894280	-0.375820	-0.212499
Cl71	Cl	1.010189	-0.019929	0.611600
Cl72	Cl	1.010161	-0.019950	0.191602
Cl73	Cl	0.778816	0.302625	0.261530
Cl74	Cl	0.891179	-0.564342	0.257662
H75	H	0.505744	0.317685	0.068957
Cl76	Cl	0.897773	-0.153013	0.130054
H77	H	0.251622	0.312046	0.067748
H78	H	0.896343	-0.242157	0.164415
Cl79	Cl	0.895108	-0.317250	0.311250
Cl80	Cl	0.889278	-0.687839	-0.076769
