data_functionalizedCrystal
_audit_creation_method	'MofGen! by Chris Wilmer'
_symmetry_space_group_name_H-M	'P1'
_symmetry_Int_Tables_number	1
_symmetry_cell_setting	triclinic
loop_
_symmetry_equiv_pos_as_xyz
  x,y,z
_cell_length_a	15.995350
_cell_length_b	14.971486
_cell_length_c	13.448316
_cell_angle_alpha	89.996136
_cell_angle_beta	90.001430
_cell_angle_gamma	96.446748
loop_
_atom_site_label
_atom_site_type_symbol
_atom_site_fract_x
_atom_site_fract_y
_atom_site_fract_z
O1	O	1.111102	-0.115292	0.082608
O2	O	1.611102	0.384708	0.582608
O3	O	0.867341	-0.129529	0.082629
O4	O	1.367341	0.370471	0.582629
O5	O	0.995755	0.007797	0.082611
O6	O	1.495755	0.507797	0.582611
O7	O	0.982688	-0.252618	0.082626
O8	O	1.482688	0.247382	0.582626
O9	O	0.995742	0.007798	-0.082773
O10	O	1.495742	0.507798	0.417227
O11	O	0.867328	-0.129528	-0.082755
O12	O	1.367328	0.370472	0.417245
O13	O	1.111089	-0.115291	-0.082776
O14	O	1.611089	0.384709	0.417224
Cu15	Cu	0.989207	-0.122409	-0.097866
Cu16	Cu	1.489207	0.377591	0.402134
Cu17	Cu	0.989222	-0.122411	0.097719
Cu18	Cu	1.489222	0.377589	0.597719
O19	O	0.982675	-0.252617	-0.082758
O20	O	1.482675	0.247383	0.417242
C21	C	0.836139	-0.128940	-0.000061
C22	C	1.336139	0.371060	0.499939
C23	C	0.743187	-0.127175	-0.000053
C24	C	1.243187	0.372825	0.499947
N25	N	0.989203	-0.122408	-0.235431
N26	N	1.489203	0.377592	0.264569
C27	C	0.995164	0.041122	-0.000081
C28	C	1.495164	0.541122	0.499919
C29	C	0.993413	0.140417	-0.000080
C30	C	1.493413	0.640417	0.499920
C31	C	0.405433	-0.120838	-0.000074
C32	C	0.905433	0.379162	0.499926
C33	C	0.452769	-0.023037	-0.000449
C34	C	0.952769	0.476963	0.499551
C35	C	0.549461	-0.024802	-0.000069
C36	C	1.049461	0.475198	0.499931
C37	C	0.572997	-0.123982	-0.000064
C38	C	1.072997	0.376018	0.499936
C39	C	0.531965	-0.172221	0.094377
C40	C	1.031965	0.327779	0.594377
C41	C	0.435327	-0.169764	0.094449
C42	C	0.935327	0.330236	0.594449
C43	C	0.434976	-0.171784	-0.093623
C44	C	0.934976	0.328216	0.406377
C45	C	0.531921	-0.171760	-0.094865
C46	C	1.031921	0.328240	0.405135
C47	C	0.667696	-0.125763	-0.000055
C48	C	1.167696	0.374237	0.499945
C49	C	0.310733	-0.119060	-0.000076
C50	C	0.810733	0.380940	0.499924
C51	C	1.142291	-0.115880	-0.000084
C52	C	1.642291	0.384120	0.499916
C53	C	1.235243	-0.117645	-0.000085
C54	C	1.735243	0.382355	0.499915
C55	C	0.983266	-0.285942	-0.000064
C56	C	1.483266	0.214058	0.499936
C57	C	0.985017	-0.385237	-0.000059
C58	C	1.485017	0.114763	0.499941
C59	C	1.068852	0.197728	-0.000087
C60	C	1.568852	0.697728	0.499913
C61	C	1.067202	0.291026	-0.000077
C62	C	1.567202	0.791026	0.499923
C63	C	0.990111	0.327010	-0.000067
C64	C	1.490111	0.827010	0.499933
C65	C	0.914666	0.269691	-0.000057
C66	C	1.414666	0.769691	0.499943
C67	C	0.916317	0.176395	-0.000060
C68	C	1.416317	0.676395	0.499940
C69	C	0.911229	0.464150	-0.000053
C70	C	1.411229	0.964150	0.499947
C71	C	0.909577	0.557452	-0.000052
C72	C	1.409577	1.057452	0.499948
C73	C	1.062114	0.578780	-0.000070
C74	C	1.562114	1.078780	0.499930
C75	C	1.063766	0.485484	-0.000073
C76	C	1.563766	0.985484	0.499927
C77	C	0.988320	0.428172	-0.000065
C78	C	1.488320	0.928172	0.499935
C79	C	1.040035	-0.176691	-0.287468
C80	C	1.540035	0.323309	0.212532
C81	C	1.040046	-0.176687	-0.391571
C82	C	1.540046	0.323313	0.108429
C83	C	0.989219	-0.122404	-0.443635
C84	C	1.489219	0.377596	0.056365
C85	C	0.938384	-0.068115	-0.391591
C86	C	1.438384	0.431885	0.108409
C87	C	0.938379	-0.068115	-0.287489
C88	C	1.438379	0.431885	0.212511
C89	C	0.938397	-0.068121	-0.608571
C90	C	1.438397	0.431879	-0.108571
C91	C	0.938401	-0.068122	-0.712679
C92	C	1.438401	0.431878	-0.212679
C93	C	1.040064	-0.176693	-0.712652
C94	C	1.540064	0.323307	-0.212652
C95	C	1.040059	-0.176693	-0.608551
C96	C	1.540059	0.323307	-0.108551
C97	C	0.989223	-0.122405	-0.556514
C98	C	1.489223	0.377595	-0.056514
N99	N	0.989234	-0.122405	0.235283
N100	N	1.489234	0.377595	0.735283
H101	H	0.577847	0.013117	-0.067769
H102	H	1.077847	0.513117	0.432231
Cl103	Cl	0.385646	-0.280621	0.101074
Cl104	Cl	0.885646	0.219379	0.601074
Cl105	Cl	1.103976	-0.244937	-0.778070
Cl106	Cl	1.603976	0.255063	-0.278070
Cl107	Cl	0.553910	-0.284710	0.099830
Cl108	Cl	1.053910	0.215290	0.599830
Cl109	Cl	0.816381	0.392101	-0.000042
Cl110	Cl	1.316381	0.892101	0.499958
H111	H	0.559197	-0.136546	-0.164732
H112	H	1.059197	0.363454	0.335268
Cl113	Cl	0.812661	0.602688	-0.000040
Cl114	Cl	1.312661	1.102688	0.499960
Cl115	Cl	1.103935	-0.244937	-0.222026
Cl116	Cl	1.603935	0.255063	0.277974
Cl117	Cl	1.103937	-0.244956	-0.543100
Cl118	Cl	1.603937	0.255044	-0.043100
H119	H	1.126540	0.456189	-0.000088
H120	H	1.626540	0.956189	0.499912
Cl121	Cl	0.407011	-0.115452	0.203438
Cl122	Cl	0.907011	0.384548	0.703438
H123	H	0.434203	0.016057	-0.068177
H124	H	0.934203	0.516057	0.431823
Cl125	Cl	0.874481	0.000139	-0.222071
Cl126	Cl	1.374481	0.500139	0.277929
Cl127	Cl	0.874501	0.000143	-0.543154
Cl128	Cl	1.374501	0.500143	-0.043154
H129	H	1.128633	0.337686	-0.000085
H130	H	1.628633	0.837686	0.499915
Cl131	Cl	0.422463	0.037049	0.103527
Cl132	Cl	0.922463	0.537049	0.603527
H133	H	0.414403	-0.139810	-0.165207
H134	H	0.914403	0.360190	0.334793
Cl135	Cl	0.874509	0.000126	-0.778130
Cl136	Cl	1.374509	0.500126	-0.278130
Cl137	Cl	1.156961	0.650829	-0.000075
Cl138	Cl	1.656961	1.150829	0.499925
H139	H	0.577286	0.013372	0.067744
H140	H	1.077286	0.513372	0.567744
Cl141	Cl	0.874488	0.000128	-0.457043
Cl142	Cl	1.374488	0.500128	0.042957
H143	H	0.560311	-0.138717	0.164658
H144	H	1.060311	0.361283	0.664658
Cl145	Cl	0.555746	-0.283430	-0.103665
Cl146	Cl	1.055746	0.216570	0.396335
H147	H	0.403286	-0.243892	-0.094259
H148	H	0.903286	0.256108	0.405741
Cl149	Cl	0.817750	0.314929	-0.000032
Cl150	Cl	1.317750	0.814929	0.499968
Cl151	Cl	1.165773	0.152501	-0.000110
Cl152	Cl	1.665773	0.652501	0.499890
Cl153	Cl	1.103951	-0.244934	-0.456985
Cl154	Cl	1.603951	0.255066	0.043015
Cl155	Cl	0.821474	0.104346	-0.000047
Cl156	Cl	1.321474	0.604346	0.499953
