data_functionalizedCrystal
_audit_creation_method	'MofGen! by Chris Wilmer'
_symmetry_space_group_name_H-M	'P1'
_symmetry_Int_Tables_number	1
_symmetry_cell_setting	triclinic
loop_
_symmetry_equiv_pos_as_xyz
  x,y,z
_cell_length_a	23.532407
_cell_length_b	14.519709
_cell_length_c	12.996460
_cell_angle_alpha	90.007090
_cell_angle_beta	89.991953
_cell_angle_gamma	96.735589
loop_
_atom_site_label
_atom_site_type_symbol
_atom_site_fract_x
_atom_site_fract_y
_atom_site_fract_z
O1	O	0.755765	-0.111951	-0.085627
O2	O	0.589975	-0.128149	-0.085617
O3	O	0.677266	0.014240	-0.085613
O4	O	0.668475	-0.254341	-0.085631
O5	O	0.677257	0.014248	0.085521
O6	O	0.589966	-0.128141	0.085517
O7	O	0.755756	-0.111943	0.085507
Cu8	Cu	0.672860	-0.120042	0.101138
Cu9	Cu	0.672871	-0.120051	-0.101248
O10	O	0.668465	-0.254333	0.085503
C11	C	0.568753	-0.127733	-0.000048
C12	C	0.505530	-0.126493	-0.000044
C13	C	0.676852	0.048599	-0.000046
C14	C	0.675624	0.150966	-0.000045
C15	C	0.776979	-0.112360	-0.000064
C16	C	0.840201	-0.113600	-0.000075
C17	C	1.238959	-0.037115	-0.000034
C18	C	1.298365	-0.038267	-0.000029
O19	O	1.334789	0.032635	0.000012
N20	N	1.321373	-0.122918	-0.000038
C21	C	1.284972	-0.206422	-0.000041
O22	O	1.309997	-0.278529	-0.000047
C23	C	1.225568	-0.205269	-0.000038
C24	C	1.202563	-0.120613	-0.000040
C25	C	1.215954	0.047534	-0.000034
C26	C	1.156553	0.048686	-0.000041
C27	C	1.120157	-0.034812	-0.000047
C28	C	1.143162	-0.119461	-0.000046
C29	C	1.189168	-0.288771	-0.000033
C30	C	1.129760	-0.287611	-0.000030
C31	C	1.106756	-0.202955	-0.000031
C32	C	1.047364	-0.201807	-0.000058
N33	N	1.024356	-0.117156	-0.000050
C34	C	1.060752	-0.033659	-0.000044
C35	C	1.409726	-0.208837	-0.000045
C36	C	1.469129	-0.209991	-0.000055
C37	C	1.482517	-0.041836	-0.000042
C38	C	1.423113	-0.040683	-0.000039
C39	C	1.386717	-0.124186	-0.000036
C40	C	0.936005	-0.031247	-0.000058
C41	C	0.876598	-0.030102	-0.000069
C42	C	0.863214	-0.198257	-0.000077
C43	C	0.922616	-0.199401	-0.000071
C44	C	0.959011	-0.115889	-0.000059
O45	O	1.010905	-0.272672	-0.000096
O46	O	1.035719	0.038437	-0.000024
C47	C	0.668880	-0.288692	-0.000066
C48	C	0.670107	-0.391058	-0.000074
N49	N	0.672857	-0.120035	0.243485
C50	C	0.671104	0.525808	-0.000071
C51	C	0.672359	0.421515	-0.000064
C52	C	0.673364	0.338390	-0.000057
C53	C	0.674619	0.234091	-0.000051
N54	N	0.672879	-0.120050	-0.243595
C55	C	0.672870	-0.120052	0.663299
C56	C	0.672865	-0.120050	0.546494
C57	C	0.672864	-0.120044	0.453396
C58	C	0.672858	-0.120041	0.336583
H59	H	0.857871	0.038838	-0.000073
H60	H	1.245583	0.115532	-0.000026
C61	C	1.494130	-0.301879	-0.000288
C62	C	1.527836	-0.307470	-0.088347
C63	C	1.550866	-0.392113	-0.088602
H64	H	1.517059	-0.305927	0.059319
H65	H	1.463955	-0.351461	-0.000352
H66	H	1.558007	-0.257901	-0.088274
H67	H	1.504920	-0.303439	-0.147968
H68	H	1.520691	-0.441695	-0.088666
H69	H	1.573792	-0.396153	-0.028991
H70	H	1.573734	-0.395921	-0.148353
C71	C	0.947632	-0.291281	-0.000279
C72	C	0.981349	-0.296878	-0.088323
C73	C	1.004394	-0.381509	-0.088541
H74	H	0.970556	-0.295305	0.059338
H75	H	0.917464	-0.340875	-0.000340
H76	H	1.011514	-0.247299	-0.088253
H77	H	0.958438	-0.292871	-0.147955
H78	H	0.974226	-0.431103	-0.088601
H79	H	1.027315	-0.385525	-0.028919
H80	H	1.027269	-0.385321	-0.148281
C81	C	1.370307	-0.299604	-0.000112
C82	C	1.403178	-0.373975	-0.000149
C83	C	1.366889	-0.457602	-0.000225
H84	H	1.346837	-0.302789	0.059548
H85	H	1.346869	-0.302704	-0.059816
H86	H	1.426606	-0.370877	0.059548
H87	H	1.426647	-0.370821	-0.059805
H88	H	1.343451	-0.460702	-0.059928
H89	H	1.343420	-0.460777	0.059437
H90	H	1.389186	-0.508073	-0.000259
H91	H	1.207888	-0.357707	-0.000036
H92	H	1.100129	-0.355611	-0.000023
H93	H	1.404387	0.028252	-0.000040
C94	C	0.823623	-0.288837	-0.000238
C95	C	0.789123	-0.293082	-0.088268
C96	C	0.752638	-0.376504	-0.088436
H97	H	0.845756	-0.339501	-0.000289
H98	H	0.800135	-0.291873	0.059411
H99	H	0.812609	-0.290054	-0.147901
H100	H	0.766978	-0.242437	-0.088236
H101	H	0.729149	-0.379541	-0.028787
H102	H	0.774775	-0.427162	-0.088483
H103	H	0.729221	-0.379392	-0.148157
C104	C	0.975418	0.059522	-0.000107
C105	C	0.942546	0.133891	-0.000139
C106	C	0.978833	0.217520	-0.000207
H107	H	0.998879	0.062716	0.059554
H108	H	0.998865	0.062616	-0.059810
H109	H	0.919108	0.130799	0.059558
H110	H	0.919086	0.130728	-0.059796
H111	H	1.002280	0.220613	-0.059910
H112	H	1.002292	0.220704	0.059455
H113	H	0.956535	0.267989	-0.000238
H114	H	1.512162	0.026152	-0.000037
H115	H	1.137828	0.117621	-0.000038
