data_functionalizedCrystal
_audit_creation_method	'MofGen! by Chris Wilmer'
_symmetry_space_group_name_H-M	'P1'
_symmetry_Int_Tables_number	1
_symmetry_cell_setting	triclinic
loop_
_symmetry_equiv_pos_as_xyz
  x,y,z
_cell_length_a	16.109318
_cell_length_b	15.995292
_cell_length_c	14.586319
_cell_angle_alpha	89.999401
_cell_angle_beta	90.000075
_cell_angle_gamma	83.468590
loop_
_atom_site_label
_atom_site_type_symbol
_atom_site_fract_x
_atom_site_fract_y
_atom_site_fract_z
O1	O	1.103128	0.107696	-0.076157
O2	O	0.861069	0.121075	-0.076175
O3	O	0.988741	-0.007507	-0.076167
O4	O	0.975457	0.236278	-0.076165
O5	O	0.988732	-0.007509	0.076314
O6	O	0.861060	0.121073	0.076306
O7	O	1.103120	0.107694	0.076323
Cu8	Cu	0.982089	0.114383	0.090237
Cu9	Cu	0.982100	0.114386	-0.090089
O10	O	0.975448	0.236276	0.076315
C11	C	0.830090	0.120530	0.000063
C12	C	0.737796	0.118897	0.000056
C13	C	0.438726	0.113626	-0.083045
C14	C	0.525448	0.115154	-0.083051
C15	C	0.525457	0.115141	0.083192
C16	C	0.438738	0.113606	0.083197
C17	C	0.395374	0.112853	0.000075
C18	C	0.568815	0.115916	0.000065
C19	C	0.662842	0.117573	0.000059
C20	C	0.301341	0.111195	0.000080
C21	C	0.988196	-0.038703	0.000071
C22	C	0.986575	-0.131656	0.000064
C23	C	0.980616	-0.469393	0.000072
C24	C	1.072766	-0.446100	0.000419
C25	C	1.074517	-0.349425	0.000072
C26	C	0.983573	-0.301838	0.000068
C27	C	0.937507	-0.330928	-0.087006
C28	C	0.936398	-0.427718	-0.087076
C29	C	0.934506	-0.427577	0.086323
C30	C	0.937921	-0.331085	0.087471
C31	C	0.985239	-0.207142	0.000063
C32	C	0.978947	-0.564088	0.000071
C33	C	1.134099	0.108240	0.000083
C34	C	1.226393	0.109872	0.000084
C35	C	0.975993	0.267472	0.000075
C36	C	0.977614	0.360425	0.000076
N37	N	0.982088	0.114381	0.217069
N38	N	0.982108	0.114381	-0.216921
C39	C	1.038640	0.057464	0.452079
C40	C	1.038642	0.057462	0.548060
C41	C	0.925550	0.171301	0.548063
C42	C	0.925544	0.171298	0.452083
C43	C	0.982094	0.114381	0.404094
C44	C	0.982102	0.114382	0.596054
C45	C	0.982104	0.114380	0.700122
C46	C	0.982091	0.114381	0.300020
H47	H	0.403422	0.113012	-0.150728
H48	H	0.879510	0.217643	0.587145
O49	O	0.567692	0.115875	-0.163713
C50	C	0.653529	0.117409	-0.145898
H51	H	0.668826	0.091116	-0.074469
H52	H	0.691768	0.077371	-0.198992
H53	H	0.669404	0.184979	-0.149830
H54	H	1.108281	-0.474106	0.062864
H55	H	1.084686	0.011115	0.587127
O56	O	0.870728	0.226629	0.405365
C57	C	0.915239	0.278312	0.349858
H58	H	0.980299	0.244983	0.335478
H59	H	0.880533	0.291544	0.282365
H60	H	0.920876	0.340201	0.386843
O61	O	0.857639	-0.292988	-0.091006
C62	C	0.818146	-0.320478	-0.169956
H63	H	0.851127	-0.383955	-0.192599
H64	H	0.749978	-0.327123	-0.153753
H65	H	0.821396	-0.272585	-0.227356
O66	O	0.567704	0.115920	0.163850
C67	C	0.653544	0.117422	0.146024
H68	H	0.661936	0.144128	0.074590
H69	H	0.681216	0.158630	0.199109
H70	H	0.686891	0.050723	0.149960
O71	O	0.855839	-0.445176	-0.091926
C72	C	0.844936	-0.492539	-0.171667
H73	H	0.907842	-0.526013	-0.194340
H74	H	0.800191	-0.541118	-0.156514
H75	H	0.817958	-0.448787	-0.228626
H76	H	0.403440	0.112977	0.150887
O77	O	1.117632	-0.326660	0.074445
C78	C	1.186859	-0.287028	0.045235
H79	H	1.174652	-0.260548	-0.026683
H80	H	1.196880	-0.233657	0.094359
H81	H	1.245024	-0.334827	0.044411
O82	O	1.114780	-0.480748	-0.073723
C83	C	1.061269	-0.525998	-0.125889
H84	H	0.993524	-0.500847	-0.111087
H85	H	1.074819	-0.518233	-0.201935
H86	H	1.072193	-0.595502	-0.106831
H87	H	0.871540	-0.298102	0.092726
H88	H	1.110815	-0.331027	-0.062450
H89	H	0.969504	-0.310873	-0.151803
O90	O	0.969054	-0.461359	0.164975
C91	C	1.035453	-0.523397	0.143231
H92	H	1.059927	-0.511029	0.071746
H93	H	1.087854	-0.521210	0.195401
H94	H	1.012270	-0.588116	0.144964
O95	O	0.977854	-0.309044	0.164416
C96	C	0.936322	-0.335592	0.242444
H97	H	0.899292	-0.389563	0.222897
H98	H	0.984197	-0.357808	0.297328
H99	H	0.891896	-0.280873	0.270203
H100	H	0.968308	-0.454540	-0.152163
H101	H	1.084685	0.011118	0.413008
O102	O	0.853618	-0.444354	0.086906
C103	C	0.838698	-0.493599	0.009749
H104	H	0.900279	-0.528214	-0.015332
H105	H	0.794281	-0.541281	0.029357
H106	H	0.809469	-0.451125	-0.047166
