data_functionalizedCrystal
_audit_creation_method	'MofGen! by Chris Wilmer'
_symmetry_space_group_name_H-M	'P1'
_symmetry_Int_Tables_number	1
_symmetry_cell_setting	triclinic
loop_
_symmetry_equiv_pos_as_xyz
  x,y,z
_cell_length_a	13.897449
_cell_length_b	29.839131
_cell_length_c	13.897441
_cell_angle_alpha	89.965828
_cell_angle_beta	89.981404
_cell_angle_gamma	90.042700
loop_
_atom_site_label
_atom_site_type_symbol
_atom_site_fract_x
_atom_site_fract_y
_atom_site_fract_z
Zn1	Zn	1.474523	-0.178828	-0.545351
Zn2	Zn	1.474356	-0.253962	-0.384039
Zn3	Zn	1.313218	-0.178848	-0.384069
Zn4	Zn	1.313127	-0.253933	-0.545292
O5	O	1.393806	-0.216393	-0.464688
O6	O	1.609483	-0.188798	-0.523965
O7	O	1.452949	-0.244018	-0.249061
O8	O	1.334724	-0.115978	-0.405500
O9	O	1.609360	-0.243998	-0.405450
O10	O	1.453234	-0.115964	-0.523993
O11	O	1.334562	-0.188832	-0.249083
O12	O	1.178225	-0.188805	-0.405443
O13	O	1.334569	-0.243950	-0.680281
O14	O	1.178158	-0.243970	-0.523893
O15	O	1.453145	-0.188771	-0.680325
O16	O	1.452861	-0.316825	-0.405393
O17	O	1.334407	-0.316804	-0.523864
C18	C	1.143192	-0.216387	-0.464666
C19	C	1.035978	-0.216395	-0.464679
C20	C	1.393632	-0.333115	-0.464640
C21	C	1.393646	-0.383050	-0.464652
C22	C	0.839683	-0.216397	-0.464704
C23	C	0.948915	-0.216394	-0.464688
C24	C	1.455598	-0.692691	-0.403090
C25	C	1.455717	-0.880364	-0.403127
O26	O	1.508252	-0.904628	-0.350748
N27	N	1.394006	-0.903835	-0.464760
C28	C	1.332266	-0.880384	-0.526393
O29	O	1.279788	-0.904653	-0.578824
C30	C	1.332153	-0.692712	-0.526360
C31	C	1.393860	-0.669244	-0.464716
C32	C	1.517301	-0.669223	-0.341451
C33	C	1.517267	-0.622308	-0.341439
C34	C	1.455529	-0.598860	-0.403065
C35	C	1.393826	-0.622328	-0.464703
C36	C	1.270418	-0.669262	-0.587997
C37	C	1.270397	-0.622341	-0.587985
C38	C	1.332105	-0.598873	-0.526341
C39	C	1.332055	-0.551966	-0.526317
N40	N	1.393765	-0.528495	-0.464684
C41	C	1.455503	-0.551943	-0.403057
C42	C	1.332329	-0.978915	-0.526405
C43	C	1.332356	-1.025833	-0.526412
C44	C	1.455808	-1.025810	-0.403147
C45	C	1.455775	-0.978891	-0.403136
C46	C	1.394039	-0.955444	-0.464772
C47	C	1.455426	-0.453417	-0.403035
C48	C	1.455383	-0.406497	-0.403026
C49	C	1.331935	-0.406524	-0.526294
C50	C	1.331974	-0.453440	-0.526301
C51	C	1.393727	-0.476885	-0.464668
O52	O	1.279555	-0.527674	-0.578676
O53	O	1.507988	-0.527665	-0.350650
C54	C	1.455632	-0.739607	-0.403102
C55	C	1.393929	-0.763075	-0.464741
C56	C	1.332191	-0.739627	-0.526367
C57	C	1.393955	-0.809993	-0.464748
C58	C	1.455693	-0.833440	-0.403122
C59	C	1.517403	-0.809970	-0.341489
C60	C	1.517369	-0.763054	-0.341476
C61	C	1.270481	-0.763098	-0.588000
C62	C	1.270519	-0.810013	-0.588007
C63	C	1.332256	-0.833461	-0.526381
C64	C	1.645399	-0.216399	-0.464710
C65	C	1.752613	-0.216402	-0.464720
C66	C	1.393865	-0.216355	-0.716281
C67	C	1.393891	-0.216339	-0.823495
C68	C	1.394007	-0.099214	-0.464757
C69	C	1.394093	-0.049280	-0.464786
C70	C	1.393910	-0.216326	-0.910565
C71	C	1.393938	-0.216306	-1.019797
C72	C	1.393803	-0.216398	-0.214073
C73	C	1.393965	-0.216287	-0.106860
H74	H	1.505633	-0.387391	-0.352824
H75	H	1.506077	-1.044908	-0.352969
N76	N	1.269300	-1.049802	-0.589358
N77	N	1.180295	-1.044603	-0.582875
H78	H	1.135761	-1.061530	-0.627334
H79	H	1.281666	-0.387426	-0.576466
H80	H	1.282054	-0.959828	-0.576598
H81	H	1.505713	-0.472500	-0.352851
N82	N	1.580308	-0.598346	-0.278465
N83	N	1.635423	-0.619295	-0.223454
H84	H	1.679951	-0.602375	-0.178976
H85	H	1.567580	-0.688309	-0.291268
N86	N	1.518811	-0.954928	-0.340160
N87	N	1.573921	-0.975874	-0.285140
H88	H	1.618445	-0.958953	-0.240660
H89	H	1.220125	-0.603253	-0.638179
H90	H	1.220165	-0.688362	-0.638190
H91	H	1.281729	-0.472548	-0.576499
H92	H	1.567617	-0.743950	-0.291280
N93	N	1.580454	-0.833932	-0.278538
N94	N	1.580464	-0.875823	-0.278565
H95	H	1.624993	-0.892749	-0.234111
N96	N	1.207467	-0.833975	-0.650978
N97	N	1.152353	-0.813029	-0.705994
H98	H	1.107827	-0.829950	-0.750471
N99	N	1.207411	-0.739158	-0.650962
N100	N	1.152324	-0.760124	-0.705985
H101	H	1.107773	-0.743219	-0.750454
