data_functionalizedCrystal
_audit_creation_method	'MofGen! by Chris Wilmer'
_symmetry_space_group_name_H-M	'P1'
_symmetry_Int_Tables_number	1
_symmetry_cell_setting	triclinic
loop_
_symmetry_equiv_pos_as_xyz
  x,y,z
_cell_length_a	17.699104
_cell_length_b	16.974813
_cell_length_c	16.776229
_cell_angle_alpha	86.338786
_cell_angle_beta	89.991971
_cell_angle_gamma	83.343435
loop_
_atom_site_label
_atom_site_type_symbol
_atom_site_fract_x
_atom_site_fract_y
_atom_site_fract_z
O1	O	1.004141	0.100070	-0.072758
O2	O	0.783774	0.113062	-0.073594
O3	O	0.900100	-0.008549	-0.065747
O4	O	0.887815	0.221681	-0.080606
O5	O	0.900085	-0.008556	0.066830
O6	O	0.783759	0.113055	0.058983
O7	O	1.004126	0.100063	0.059819
Zn8	Zn	0.893940	0.106558	0.080450
Zn9	Zn	0.893960	0.106568	-0.094226
O10	O	0.887799	0.221674	0.051971
C11	C	0.755569	0.112590	-0.007275
C12	C	0.671551	0.111185	-0.007184
C13	C	0.146726	0.174645	-0.011288
C14	C	0.225671	0.175960	-0.011375
C15	C	0.274237	0.104570	-0.006767
C16	C	0.243854	0.031860	-0.002080
C17	C	0.164911	0.030545	-0.001999
C18	C	0.562224	0.037159	-0.002410
C19	C	0.641172	0.038480	-0.002489
C20	C	0.622984	0.182575	-0.011786
C21	C	0.544041	0.181260	-0.011705
C22	C	0.513665	0.108550	-0.007022
C23	C	0.428064	0.107125	-0.006929
C24	C	0.359836	0.105995	-0.006855
C25	C	0.899625	-0.038010	0.002441
C26	C	0.898223	-0.125784	0.008101
C27	C	0.897575	-0.167012	-0.061507
C28	C	0.896252	-0.249485	-0.056186
C29	C	0.895584	-0.290729	0.018743
C30	C	0.896230	-0.249495	0.088357
C31	C	0.897547	-0.167023	0.083035
C32	C	0.891640	-0.537384	0.042408
C33	C	0.890325	-0.619862	0.047724
C34	C	0.890346	-0.619846	-0.096819
C35	C	0.891667	-0.537373	-0.102134
C36	C	0.892309	-0.496146	-0.032521
N37	N	0.894235	-0.375030	0.024184
N38	N	0.893653	-0.411846	-0.037962
C39	C	1.032330	0.100535	-0.006502
C40	C	1.116349	0.101940	-0.006599
C41	C	0.888274	0.251135	-0.016219
C42	C	0.889677	0.338910	-0.021884
N43	N	0.893931	0.106551	0.199662
N44	N	0.893974	0.106569	-0.213437
C45	C	0.945456	0.052723	0.244852
C46	C	0.945460	0.052723	0.328305
C47	C	0.893943	0.106554	0.366564
C48	C	0.842412	0.160384	0.321368
C49	C	0.842405	0.160380	0.237917
C50	C	0.842440	0.160399	0.657914
C51	C	0.842452	0.160400	0.741370
C52	C	0.945495	0.052742	0.748301
C53	C	0.945488	0.052738	0.664851
C54	C	0.893955	0.106565	0.619662
C55	C	0.893950	0.106564	0.529173
C56	C	0.893951	0.106559	0.457051
H57	H	0.537502	-0.022045	0.001406
H58	H	0.987411	0.008891	0.213707
H59	H	0.889821	-0.653423	-0.153494
C60	C	0.785741	0.219600	0.363449
C61	C	0.785780	0.219649	0.455239
C62	C	0.729109	0.278869	0.497317
C63	C	0.672398	0.338041	0.447606
C64	C	0.672356	0.337995	0.355811
C65	C	0.729027	0.278774	0.313733
H66	H	0.827763	0.175844	0.492042
H67	H	0.729140	0.278903	0.565269
H68	H	0.630446	0.381879	0.478755
H69	H	0.630373	0.381799	0.319007
H70	H	0.728996	0.278740	0.245780
H71	H	0.107188	0.232779	-0.015034
H72	H	0.987415	0.008892	0.365099
H73	H	0.892212	-0.503798	-0.163150
C74	C	0.898310	-0.121648	-0.143932
C75	C	0.963824	-0.142084	-0.202237
C76	C	0.964557	-0.096721	-0.284664
C77	C	0.899776	-0.030922	-0.308785
C78	C	0.834258	-0.010482	-0.250479
C79	C	0.833525	-0.055845	-0.168052
H80	H	1.011783	-0.190795	-0.184382
H81	H	1.013058	-0.111852	-0.327827
H82	H	0.900319	0.002659	-0.369803
H83	H	0.786299	0.038229	-0.268333
H84	H	0.785023	-0.040714	-0.124889
C85	C	0.297276	-0.046671	0.002989
C86	C	0.293908	-0.106296	0.075680
C87	C	0.347328	-0.184828	0.080753
C88	C	0.404116	-0.203736	0.013135
C89	C	0.407486	-0.144109	-0.059560
C90	C	0.354066	-0.065577	-0.064633
H91	H	0.251868	-0.092301	0.125738
H92	H	0.344833	-0.228968	0.134567
H93	H	0.443661	-0.261870	0.016891
H94	H	0.449526	-0.158104	-0.109619
H95	H	0.356561	-0.021437	-0.118448
H96	H	0.987441	0.008907	0.633702
H97	H	0.504501	0.239394	-0.015453
H98	H	0.647725	0.241779	-0.015602
H99	H	0.889777	-0.653440	0.108744
H100	H	0.250400	0.235164	-0.015201
H101	H	0.800447	0.204210	0.201124
C102	C	1.002178	-0.006477	0.798011
C103	C	1.058848	-0.065685	0.755925
C104	C	1.115531	-0.124899	0.805631
C105	C	1.115543	-0.124907	0.897424
C106	C	1.058870	-0.065696	0.939515
C107	C	1.002188	-0.006482	0.889809
H108	H	1.058841	-0.065681	0.687969
H109	H	1.157484	-0.168731	0.774472
H110	H	1.157503	-0.168741	0.934220
H111	H	1.058878	-0.065700	1.007470
H112	H	0.960235	0.037350	0.920968
H113	H	0.800498	0.204238	0.772520
H114	H	0.680714	-0.019659	0.001261
H115	H	0.892178	-0.503829	0.099092
C116	C	0.895545	-0.294832	-0.132760
C117	C	0.961430	-0.292583	-0.192518
C118	C	0.960723	-0.337926	-0.269097
C119	C	0.894131	-0.385519	-0.285919
C120	C	0.828241	-0.387769	-0.226159
C121	C	0.828948	-0.342426	-0.149580
H122	H	1.010730	-0.257350	-0.180067
H123	H	1.009499	-0.336260	-0.313335
H124	H	0.893608	-0.419085	-0.342607
H125	H	0.778941	-0.423002	-0.238610
H126	H	0.780172	-0.344092	-0.105342
H127	H	0.140179	-0.028659	0.001818
C128	C	0.895496	-0.294861	0.170781
C129	C	0.894052	-0.385577	0.176639
C130	C	0.893321	-0.430941	0.259065
C131	C	0.894032	-0.385589	0.335634
C132	C	0.895476	-0.294867	0.329778
C133	C	0.896207	-0.249503	0.247352
H134	H	0.893525	-0.419155	0.119956
H135	H	0.892252	-0.498100	0.263400
H136	H	0.893491	-0.419170	0.396651
H137	H	0.896003	-0.261290	0.386461
H138	H	0.897276	-0.182344	0.243018
H139	H	0.898065	-0.133455	0.139717
H140	H	0.800481	0.204228	0.621127
