data_functionalizedCrystal
_audit_creation_method	'MofGen! by Chris Wilmer'
_symmetry_space_group_name_H-M	'P1'
_symmetry_Int_Tables_number	1
_symmetry_cell_setting	triclinic
loop_
_symmetry_equiv_pos_as_xyz
  x,y,z
_cell_length_a	16.109318
_cell_length_b	19.188924
_cell_length_c	15.186229
_cell_angle_alpha	89.994194
_cell_angle_beta	90.000224
_cell_angle_gamma	83.305264
loop_
_atom_site_label
_atom_site_type_symbol
_atom_site_fract_x
_atom_site_fract_y
_atom_site_fract_z
O1	O	1.102821	0.089802	-0.073159
O2	O	1.352821	0.339802	0.176841
O3	O	1.602821	0.589802	0.426841
O4	O	1.852821	0.839802	0.676841
O5	O	0.860724	0.100958	-0.073178
O6	O	1.110724	0.350958	0.176822
O7	O	1.360724	0.600958	0.426822
O8	O	1.610724	0.850958	0.676822
O9	O	0.988762	-0.006260	-0.073158
O10	O	1.238762	0.243740	0.176842
O11	O	1.488762	0.493740	0.426842
O12	O	1.738762	0.743740	0.676842
O13	O	0.974783	0.197019	-0.073179
O14	O	1.224783	0.447019	0.176821
O15	O	1.474783	0.697019	0.426821
O16	O	1.724783	0.947019	0.676821
O17	O	0.988754	-0.006261	0.073300
O18	O	1.238754	0.243739	0.323300
O19	O	1.488754	0.493739	0.573300
O20	O	1.738754	0.743739	0.823300
O21	O	0.860716	0.100956	0.073280
O22	O	1.110716	0.350956	0.323280
O23	O	1.360716	0.600956	0.573280
O24	O	1.610716	0.850956	0.823280
O25	O	1.102813	0.089800	0.073298
O26	O	1.352813	0.339800	0.323298
O27	O	1.602813	0.589800	0.573298
O28	O	1.852813	0.839800	0.823298
Zn29	Zn	0.981763	0.095378	0.096542
Zn30	Zn	1.231763	0.345378	0.346542
Zn31	Zn	1.481763	0.595378	0.596542
Zn32	Zn	1.731763	0.845378	0.846542
Zn33	Zn	0.981774	0.095380	-0.096422
Zn34	Zn	1.231774	0.345380	0.153578
Zn35	Zn	1.481774	0.595380	0.403578
Zn36	Zn	1.731774	0.845380	0.653578
O37	O	0.974775	0.197018	0.073278
O38	O	1.224775	0.447018	0.323278
O39	O	1.474775	0.697018	0.573278
O40	O	1.724775	0.947018	0.823278
C41	C	0.829747	0.100503	0.000049
C42	C	1.079747	0.350503	0.250049
C43	C	1.329747	0.600503	0.500049
C44	C	1.579747	0.850503	0.750049
C45	C	0.737457	0.099142	0.000042
C46	C	0.987457	0.349142	0.250042
C47	C	1.237457	0.599142	0.500042
C48	C	1.487457	0.849142	0.750042
C49	C	0.438402	0.094746	-0.079776
C50	C	0.688402	0.344746	0.170224
C51	C	0.938402	0.594746	0.420224
C52	C	1.188402	0.844746	0.670224
C53	C	0.525119	0.096021	-0.079781
C54	C	0.775119	0.346021	0.170219
C55	C	1.025119	0.596021	0.420219
C56	C	1.275119	0.846021	0.670219
C57	C	0.525129	0.096009	0.079894
C58	C	0.775129	0.346009	0.329894
C59	C	1.025129	0.596009	0.579894
C60	C	1.275129	0.846009	0.829894
C61	C	0.438414	0.094730	0.079899
C62	C	0.688414	0.344730	0.329899
C63	C	0.938414	0.594730	0.579899
C64	C	1.188414	0.844730	0.829899
C65	C	0.395053	0.094102	0.000061
C66	C	0.645053	0.344102	0.250061
C67	C	0.895053	0.594102	0.500061
C68	C	1.145053	0.844102	0.750061
C69	C	0.568484	0.096656	0.000051
C70	C	0.818484	0.346656	0.250051
C71	C	1.068484	0.596656	0.500051
C72	C	1.318484	0.846656	0.750051
C73	C	0.662507	0.098037	0.000046
C74	C	0.912507	0.348037	0.250046
C75	C	1.162507	0.598037	0.500046
C76	C	1.412507	0.848037	0.750046
C77	C	0.301024	0.092719	0.000066
C78	C	0.551024	0.342719	0.250066
C79	C	0.801024	0.592719	0.500066
C80	C	1.051024	0.842719	0.750066
C81	C	0.988306	-0.032272	0.000072
C82	C	1.238306	0.217728	0.250072
C83	C	1.488306	0.467728	0.500072
C84	C	1.738306	0.717728	0.750072
C85	C	0.986950	-0.109780	0.000074
C86	C	1.236950	0.140220	0.250074
C87	C	1.486950	0.390220	0.500074
C88	C	1.736950	0.640220	0.750074
C89	C	0.986322	-0.146180	-0.079760
C90	C	1.236322	0.103820	0.170240
C91	C	1.486322	0.353820	0.420240
C92	C	1.736322	0.603820	0.670240
C93	C	0.985036	-0.219006	-0.079767
C94	C	1.235036	0.030994	0.170233
C95	C	1.485036	0.280994	0.420233
C96	C	1.735036	0.530994	0.670233
C97	C	0.984395	-0.255431	0.000065
C98	C	1.234395	-0.005431	0.250065
C99	C	1.484395	0.244569	0.500065
C100	C	1.734395	0.494569	0.750065
C101	C	0.985019	-0.219022	0.079910
C102	C	1.235019	0.030978	0.329910
C103	C	1.485019	0.280978	0.579910
C104	C	1.735019	0.530978	0.829910
C105	C	0.986296	-0.146197	0.079914
C106	C	1.236296	0.103803	0.329914
C107	C	1.486296	0.353803	0.579914
C108	C	1.736296	0.603803	0.829914
N109	N	1.029698	-0.374987	0.059485
N110	N	1.279698	-0.124987	0.309485
N111	N	1.529698	0.125013	0.559485
N112	N	1.779698	0.375013	0.809485
N113	N	1.028486	-0.444168	0.059476
N114	N	1.278486	-0.194168	0.309476
N115	N	1.528486	0.055832	0.559476
N116	N	1.778486	0.305832	0.809476
C117	C	0.980544	-0.474849	0.000056
C118	C	1.230544	-0.224849	0.250056
C119	C	1.480544	0.025151	0.500056
C120	C	1.730544	0.275151	0.750056
N121	N	0.933870	-0.433737	-0.059367
N122	N	1.183870	-0.183737	0.190633
N123	N	1.433870	0.066263	0.440633
N124	N	1.683870	0.316263	0.690633
N125	N	0.935086	-0.364550	-0.059359
N126	N	1.185086	-0.114550	0.190641
N127	N	1.435086	0.135450	0.440641
N128	N	1.685086	0.385450	0.690641
C129	C	0.983009	-0.334398	0.000069
C130	C	1.233009	-0.084398	0.250069
C131	C	1.483009	0.165602	0.500069
C132	C	1.733009	0.415602	0.750069
C133	C	0.978520	-0.590215	-0.079791
C134	C	1.228520	-0.340215	0.170209
C135	C	1.478520	-0.090215	0.420209
C136	C	1.728520	0.159785	0.670209
C137	C	0.977229	-0.663041	-0.079794
C138	C	1.227229	-0.413041	0.170206
C139	C	1.477229	-0.163041	0.420206
C140	C	1.727229	0.086959	0.670206
C141	C	0.977220	-0.663057	0.079885
C142	C	1.227220	-0.413057	0.329885
C143	C	1.477220	-0.163057	0.579885
C144	C	1.727220	0.086943	0.829885
C145	C	0.978503	-0.590231	0.079886
C146	C	1.228503	-0.340231	0.329886
C147	C	1.478503	-0.090231	0.579886
C148	C	1.728503	0.159769	0.829886
C149	C	0.979157	-0.553815	0.000046
C150	C	1.229157	-0.303815	0.250046
C151	C	1.479157	-0.053815	0.500046
C152	C	1.729157	0.196185	0.750046
C153	C	1.133790	0.090255	0.000070
C154	C	1.383790	0.340255	0.250070
C155	C	1.633790	0.590255	0.500070
C156	C	1.883790	0.840255	0.750070
C157	C	1.226080	0.091616	0.000070
C158	C	1.476080	0.341616	0.250070
C159	C	1.726080	0.591616	0.500070
C160	C	1.976080	0.841616	0.750070
C161	C	0.975231	0.223030	0.000046
C162	C	1.225231	0.473030	0.250046
C163	C	1.475231	0.723030	0.500046
C164	C	1.725231	0.973030	0.750046
C165	C	0.976587	0.300538	0.000038
C166	C	1.226587	0.550538	0.250038
C167	C	1.476587	0.800538	0.500038
C168	C	1.726587	1.050538	0.750038
N169	N	0.981761	0.095376	0.228235
N170	N	1.231761	0.345376	0.478235
N171	N	1.481761	0.595376	0.728235
N172	N	1.731761	0.845376	0.978235
N173	N	0.981782	0.095376	-0.228114
N174	N	1.231782	0.345376	0.021886
N175	N	1.481782	0.595376	0.271886
N176	N	1.731782	0.845376	0.521886
C177	C	1.038476	0.047916	0.453966
C178	C	1.288476	0.297916	0.703966
C179	C	1.538476	0.547916	0.953966
C180	C	1.788476	0.797916	1.203966
C181	C	1.038478	0.047915	0.546156
C182	C	1.288478	0.297915	0.796156
C183	C	1.538478	0.547915	1.046156
C184	C	1.788478	0.797915	1.296156
C185	C	0.925062	0.142838	0.546147
C186	C	1.175062	0.392838	0.796147
C187	C	1.425062	0.642838	1.046147
C188	C	1.675062	0.892838	1.296147
C189	C	0.925056	0.142836	0.453959
C190	C	1.175056	0.392836	0.703959
C191	C	1.425056	0.642836	0.953959
C192	C	1.675056	0.892836	1.203959
C193	C	0.981768	0.095376	0.407871
C194	C	1.231768	0.345376	0.657871
C195	C	1.481768	0.595376	0.907871
C196	C	1.731768	0.845376	1.157871
C197	C	0.981776	0.095377	0.592249
C198	C	1.231776	0.345377	0.842249
C199	C	1.481776	0.595377	1.092249
C200	C	1.731776	0.845377	1.342249
C201	C	0.981779	0.095375	0.692205
C202	C	1.231779	0.345375	0.942205
C203	C	1.481779	0.595375	1.192205
C204	C	1.731779	0.845375	1.442205
C205	C	0.981764	0.095376	0.307909
C206	C	1.231764	0.345376	0.557909
C207	C	1.481764	0.595376	0.807909
C208	C	1.731764	0.845376	1.057909
H209	H	0.560411	0.096544	-0.144793
H210	H	0.810411	0.346544	0.105207
H211	H	1.060411	0.596544	0.355207
H212	H	1.310411	0.846544	0.605207
H213	H	0.979021	-0.560595	0.144895
H214	H	1.229021	-0.310595	0.394895
H215	H	1.479021	-0.060595	0.644895
H216	H	1.729021	0.189405	0.894895
H217	H	0.878873	0.181484	0.416426
H218	H	1.128873	0.431484	0.666426
H219	H	1.378873	0.681484	0.916426
H220	H	1.628873	0.931484	1.166426
Cl221	Cl	1.109767	-0.011750	0.396031
Cl222	Cl	1.359767	0.238250	0.646031
Cl223	Cl	1.609767	0.488250	0.896031
Cl224	Cl	1.859767	0.738250	1.146031
H225	H	1.084654	0.009268	0.583684
H226	H	1.334654	0.259268	0.833684
H227	H	1.584654	0.509268	1.083684
H228	H	1.834654	0.759268	1.333684
Cl229	Cl	0.853774	0.202503	0.604091
Cl230	Cl	1.103774	0.452503	0.854091
Cl231	Cl	1.353774	0.702503	1.104091
Cl232	Cl	1.603774	0.952503	1.354091
Cl233	Cl	0.987085	-0.100435	0.180286
Cl234	Cl	1.237085	0.149565	0.430286
Cl235	Cl	1.487085	0.399565	0.680286
Cl236	Cl	1.737085	0.649565	0.930286
Cl237	Cl	0.987138	-0.100403	-0.180130
Cl238	Cl	1.237138	0.149597	0.069870
Cl239	Cl	1.487138	0.399597	0.319870
Cl240	Cl	1.737138	0.649597	0.569870
Cl241	Cl	0.579645	0.096807	0.180256
Cl242	Cl	0.829645	0.346807	0.430256
Cl243	Cl	1.079645	0.596807	0.680256
Cl244	Cl	1.329645	0.846807	0.930256
Cl245	Cl	0.383894	0.093953	-0.180143
Cl246	Cl	0.633894	0.343953	0.069857
Cl247	Cl	0.883894	0.593953	0.319857
Cl248	Cl	1.133894	0.843953	0.569857
H249	H	0.403118	0.094205	0.144916
H250	H	0.653118	0.344205	0.394916
H251	H	0.903118	0.594205	0.644916
H252	H	1.153118	0.844205	0.894916
Cl253	Cl	0.984206	-0.264812	0.180270
Cl254	Cl	1.234206	-0.014812	0.430270
Cl255	Cl	1.484206	0.235188	0.680270
Cl256	Cl	1.734206	0.485188	0.930270
Cl257	Cl	0.984246	-0.264775	-0.180138
Cl258	Cl	1.234246	-0.014775	0.069862
Cl259	Cl	1.484246	0.235225	0.319862
Cl260	Cl	1.734246	0.485225	0.569862
H261	H	0.979048	-0.560563	-0.144801
H262	H	1.229048	-0.310563	0.105199
H263	H	1.479048	-0.060563	0.355199
H264	H	1.729048	0.189437	0.605199
Cl265	Cl	0.976433	-0.708801	-0.180167
Cl266	Cl	1.226433	-0.458801	0.069833
Cl267	Cl	1.476433	-0.208801	0.319833
Cl268	Cl	1.726433	0.041199	0.569833
Cl269	Cl	0.976410	-0.708842	0.180246
Cl270	Cl	1.226410	-0.458842	0.430246
Cl271	Cl	1.476410	-0.208842	0.680246
Cl272	Cl	1.726410	0.041158	0.930246
