data_functionalizedCrystal
_audit_creation_method	'MofGen! by Chris Wilmer'
_symmetry_space_group_name_H-M	'P1'
_symmetry_Int_Tables_number	1
_symmetry_cell_setting	triclinic
loop_
_symmetry_equiv_pos_as_xyz
  x,y,z
_cell_length_a	15.944551
_cell_length_b	15.944499
_cell_length_c	15.021413
_cell_angle_alpha	90.002729
_cell_angle_beta	89.990044
_cell_angle_gamma	83.488174
loop_
_atom_site_label
_atom_site_type_symbol
_atom_site_fract_x
_atom_site_fract_y
_atom_site_fract_z
O1	O	0.108132	1.114539	-0.074087
O2	O	0.121533	0.869983	-0.074078
O3	O	-0.007443	0.998939	-0.074075
O4	O	0.237109	0.985582	-0.074090
O5	O	-0.007461	0.998953	0.073989
O6	O	0.121516	0.869997	0.073987
O7	O	0.108115	1.114553	0.073977
Zn8	Zn	0.114813	0.992277	0.097490
Zn9	Zn	0.114835	0.992258	-0.097591
O10	O	0.237091	0.985597	0.073974
C11	C	0.120976	0.838695	-0.000044
C12	C	0.119331	0.745447	-0.000040
C13	C	0.194263	0.453911	-0.000058
C14	C	0.155320	0.514933	-0.073061
C15	C	0.113355	0.409810	-0.000060
C16	C	0.155282	0.514933	0.072919
C17	C	0.116296	0.574719	-0.000049
C18	C	0.074389	0.469605	-0.073123
C19	C	0.074362	0.469598	0.072922
C20	C	0.035360	0.530603	-0.000098
C21	C	0.111663	0.314810	-0.000068
C22	C	0.117981	0.669718	-0.000048
C23	C	-0.038746	0.998392	-0.000042
C24	C	-0.131992	0.996729	-0.000042
C25	C	-0.346833	0.912823	-0.000051
C26	C	-0.407866	0.951793	0.072952
C27	C	-0.302717	0.993722	-0.000049
C28	C	-0.407832	0.951798	-0.073027
C29	C	-0.467629	0.990811	-0.000059
C30	C	-0.362522	1.032715	0.073015
C31	C	-0.362482	1.032708	-0.073031
C32	C	-0.423497	1.071737	-0.000010
C33	C	-0.207715	0.995397	-0.000042
C34	C	-0.562630	0.989143	-0.000059
C35	C	0.268394	0.986144	-0.000060
C36	C	0.361640	0.987806	-0.000067
C37	C	0.108672	1.145840	-0.000058
C38	C	0.110317	1.239089	-0.000068
N39	N	0.114845	0.992246	-0.230728
C40	C	0.174363	0.932505	-0.470407
C41	C	0.098404	0.916394	-0.529739
C42	C	0.114827	0.992263	-0.412335
C43	C	0.190769	1.008351	-0.529746
C44	C	0.114816	0.992277	-0.587759
C45	C	0.038829	0.976114	-0.470360
C46	C	0.131244	1.068104	-0.470362
C47	C	0.055230	1.052025	-0.529667
C48	C	0.114834	0.992252	-0.311278
C49	C	0.114800	0.992288	-0.688815
N50	N	0.114797	0.992296	0.230628
H51	H	0.189509	0.535014	0.134634
F52	F	-0.052480	0.573976	-0.000144
F53	F	-0.434075	0.907048	-0.153692
F54	F	0.274717	1.026132	-0.563843
F55	F	0.029659	0.443309	0.153600
F56	F	-0.336167	1.077387	-0.153709
F57	F	0.240102	0.866404	-0.436394
F58	F	-0.336414	1.077412	0.153773
F59	F	-0.434150	0.907079	0.153627
H60	H	-0.313513	0.845673	0.000025
H61	H	-0.456668	1.138946	0.000029
F62	F	0.149439	1.151902	-0.436244
H63	H	0.261409	0.420581	-0.000133
H64	H	0.189551	0.535025	-0.134779
H65	H	0.040207	0.449620	-0.134910
H66	H	0.084511	0.852263	-0.555826
H67	H	-0.025413	0.962437	-0.444384
F68	F	-0.010654	1.118092	-0.563464
