data_functionalizedCrystal
_audit_creation_method	'MofGen! by Chris Wilmer'
_symmetry_space_group_name_H-M	'P1'
_symmetry_Int_Tables_number	1
_symmetry_cell_setting	triclinic
loop_
_symmetry_equiv_pos_as_xyz
  x,y,z
_cell_length_a	18.101395
_cell_length_b	18.215407
_cell_length_c	18.215399
_cell_angle_alpha	90.018561
_cell_angle_beta	89.973573
_cell_angle_gamma	89.977160
loop_
_atom_site_label
_atom_site_type_symbol
_atom_site_fract_x
_atom_site_fract_y
_atom_site_fract_z
Zn1	Zn	-0.295001	-1.125040	-0.416099
Zn2	Zn	0.204999	-0.625040	0.083901
Zn3	Zn	-0.418847	-1.124935	-0.293036
Zn4	Zn	0.081153	-0.624935	0.206964
Zn5	Zn	-0.295006	-1.001973	-0.293049
Zn6	Zn	0.204994	-0.501973	0.206951
Zn7	Zn	-0.418787	-1.001925	-0.416063
Zn8	Zn	0.081213	-0.501925	0.083937
O9	O	-0.356910	-1.063468	-0.354562
O10	O	0.143090	-0.563468	0.145438
O11	O	-0.311452	-1.228010	-0.399783
O12	O	0.188548	-0.728010	0.100217
O13	O	-0.402447	-1.108600	-0.190053
O14	O	0.097553	-0.608600	0.309947
O15	O	-0.191372	-1.018362	-0.309392
O16	O	0.308628	-0.518362	0.190608
O17	O	-0.402441	-1.227933	-0.309369
O18	O	0.097559	-0.727933	0.190631
O19	O	-0.191368	-1.108779	-0.399796
O20	O	0.308632	-0.608779	0.100204
O21	O	-0.311461	-1.018260	-0.190063
O22	O	0.188539	-0.518260	0.309937
O23	O	-0.311403	-0.898982	-0.309358
O24	O	0.188597	-0.398982	0.190642
O25	O	-0.402339	-1.018281	-0.519052
O26	O	0.097661	-0.518281	-0.019052
O27	O	-0.402344	-0.898947	-0.399736
O28	O	0.097656	-0.398947	0.100264
O29	O	-0.311394	-1.108733	-0.519078
O30	O	0.188606	-0.608733	-0.019078
O31	O	-0.522472	-1.108554	-0.309335
O32	O	-0.022472	-0.608554	0.190665
O33	O	-0.522428	-1.018179	-0.399723
O34	O	-0.022428	-0.518179	0.100277
C35	C	-0.356868	-0.872262	-0.354545
C36	C	0.143132	-0.372262	0.145455
C37	C	-0.356868	-0.790463	-0.354555
C38	C	0.143132	-0.290463	0.145445
C39	C	-0.309597	-0.525440	-0.401708
C40	C	0.190403	-0.025440	0.098292
C41	C	-0.309589	-0.602299	-0.401707
C42	C	0.190411	-0.102299	0.098293
C43	C	-0.404198	-0.602238	-0.307418
C44	C	0.095802	-0.102238	0.192582
C45	C	-0.404210	-0.525380	-0.307424
C46	C	0.095790	-0.025380	0.192576
C47	C	-0.356905	-0.486984	-0.354568
C48	C	0.143095	0.013016	0.145432
C49	C	-0.356885	-0.640700	-0.354561
C50	C	0.143115	-0.140700	0.145439
C51	C	-0.356877	-0.724033	-0.354559
C52	C	0.143123	-0.224033	0.145441
C53	C	-0.356914	-0.403645	-0.354570
C54	C	0.143086	0.096355	0.145430
C55	C	-0.549321	-1.063370	-0.354540
C56	C	-0.049321	-0.563370	0.145460
C57	C	-0.631635	-1.063395	-0.354555
C58	C	-0.131635	-0.563395	0.145445
C59	C	-0.930726	-1.063556	-0.354595
C60	C	-0.430726	-0.563556	0.145405
C61	C	-0.899404	-1.006827	-0.411606
C62	C	-0.399404	-0.506827	0.088394
C63	C	-0.813786	-1.006557	-0.411427
C64	C	-0.313786	-0.506557	0.088573
C65	C	-0.782343	-1.063476	-0.354576
C66	C	-0.282343	-0.563476	0.145424
C67	C	-0.813490	-1.042478	-0.277015
C68	C	-0.313490	-0.542478	0.222985
C69	C	-0.899135	-1.042113	-0.277356
C70	C	-0.399135	-0.542113	0.222644
C71	C	-0.899081	-1.141408	-0.374462
C72	C	-0.399081	-0.641408	0.125538
C73	C	-0.813430	-1.140950	-0.376163
C74	C	-0.313430	-0.640950	0.123837
C75	C	-0.698484	-1.063432	-0.354560
C76	C	-0.198484	-0.563432	0.145440
C77	C	-1.014585	-1.063599	-0.354605
C78	C	-0.514585	-0.563599	0.145395
C79	C	-0.163748	-1.063587	-0.354599
C80	C	0.336252	-0.563587	0.145401
C81	C	-0.081434	-1.063638	-0.354615
C82	C	0.418566	-0.563638	0.145385
C83	C	-0.356859	-1.063513	-0.546515
C84	C	0.143141	-0.563513	-0.046515
C85	C	-0.356837	-1.063532	-0.628313
C86	C	0.143163	-0.563532	-0.128313
C87	C	-0.356940	-0.255421	-0.354576
C88	C	0.143060	0.244579	0.145424
C89	C	-0.356922	-0.337220	-0.354573
C90	C	0.143078	0.162780	0.145427
C91	C	-0.309438	-1.110647	-0.816522
C92	C	0.190562	-0.610647	-0.316522
C93	C	-0.309416	-1.110656	-0.893381
C94	C	0.190584	-0.610656	-0.393381
C95	C	-0.404122	-1.016469	-0.893343
C96	C	0.095878	-0.516469	-0.393343
C97	C	-0.404140	-1.016457	-0.816485
C98	C	0.095860	-0.516457	-0.316485
C99	C	-0.356798	-1.063550	-0.778077
C100	C	0.143202	-0.563550	-0.278077
C101	C	-0.356759	-1.063571	-0.931793
C102	C	0.143241	-0.563571	-0.431793
C103	C	-0.356736	-1.063580	-1.015127
C104	C	0.143264	-0.563580	-0.515127
C105	C	-0.356820	-1.063541	-0.694738
C106	C	0.143180	-0.563541	-0.194738
C107	C	-0.356907	-1.063466	-0.163355
C108	C	0.143093	-0.563466	0.336645
C109	C	-0.356721	-1.063589	-0.081557
C110	C	0.143279	-0.563589	0.418443
H111	H	-0.271078	-0.494180	-0.440095
H112	H	0.228922	0.005820	0.059905
N113	N	-0.786712	-0.930124	-0.393991
N114	N	-0.286712	-0.430124	0.106009
H115	H	-0.830414	-0.896476	-0.386386
H116	H	-0.330414	-0.396476	0.113614
H117	H	-0.755857	-0.931446	-0.347828
H118	H	-0.255857	-0.431446	0.152172
N119	N	-0.258562	-0.643779	-0.452548
N120	N	0.241438	-0.143779	0.047452
H121	H	-0.288696	-0.675669	-0.486602
H122	H	0.211304	-0.175669	0.013398
H123	H	-0.228608	-0.607744	-0.482363
H124	H	0.271392	-0.107744	0.017637
H125	H	-0.442706	-0.978100	-0.785182
H126	H	0.057294	-0.478100	-0.285182
H127	H	-0.919170	-0.985204	-0.260527
H128	H	-0.419170	-0.485204	0.239473
H129	H	-0.442738	-0.494068	-0.269036
H130	H	0.057262	0.005932	0.230964
N131	N	-0.785880	-1.023953	-0.487605
N132	N	-0.285880	-0.523953	0.012395
H133	H	-0.829214	-1.031866	-0.521603
H134	H	-0.329214	-0.531866	-0.021603
H135	H	-0.754990	-0.981685	-0.506162
H136	H	-0.254990	-0.481685	-0.006162
N137	N	-0.455214	-0.643651	-0.256568
N138	N	0.044786	-0.143651	0.243432
H139	H	-0.448026	-0.698176	-0.263714
H140	H	0.051974	-0.198176	0.236286
H141	H	-0.443621	-0.630196	-0.204030
H142	H	0.056379	-0.130196	0.295970
N143	N	-0.926628	-1.024043	-0.488034
N144	N	-0.426628	-0.524043	0.011966
H145	H	-0.909871	-1.074908	-0.502568
H146	H	-0.409871	-0.574908	-0.002568
H147	H	-0.982367	-1.021723	-0.488927
H148	H	-0.482367	-0.521723	0.011073
N149	N	-0.927976	-0.930850	-0.394400
N150	N	-0.427976	-0.430850	0.105600
H151	H	-0.983711	-0.930742	-0.396970
H152	H	-0.483711	-0.430742	0.103030
H153	H	-0.911717	-0.916203	-0.343428
H154	H	-0.411717	-0.416203	0.156572
N155	N	-0.926592	-1.094465	-0.219172
N156	N	-0.426592	-0.594465	0.280828
H157	H	-0.883058	-1.117675	-0.193414
H158	H	-0.383058	-0.617675	0.306586
H159	H	-0.957572	-1.066698	-0.182323
H160	H	-0.457572	-0.566698	0.317677
N161	N	-0.258379	-1.161441	-0.775098
N162	N	0.241621	-0.661441	-0.275098
H163	H	-0.288494	-1.195525	-0.743216
H164	H	0.211506	-0.695525	-0.243216
H165	H	-0.228388	-1.191227	-0.811169
H166	H	0.271612	-0.691227	-0.311169
H167	H	-0.792023	-1.185453	-0.337666
H168	H	-0.292023	-0.685453	0.162334
H169	H	-0.793070	-1.156785	-0.433243
H170	H	-0.293070	-0.656785	0.066757
N171	N	-0.927626	-1.166773	-0.448099
N172	N	-0.427626	-0.666773	0.051901
H173	H	-0.961365	-1.128050	-0.469328
H174	H	-0.461365	-0.628050	0.030672
H175	H	-0.884640	-1.175153	-0.482466
H176	H	-0.384640	-0.675153	0.017534
H177	H	-0.793125	-1.082498	-0.233380
H178	H	-0.293125	-0.582498	0.266620
N179	N	-0.785156	-0.967896	-0.254315
N180	N	-0.285156	-0.467896	0.245685
H181	H	-0.752152	-0.947604	-0.294153
H182	H	-0.252152	-0.447604	0.205847
H183	H	-0.828283	-0.933610	-0.246345
H184	H	-0.328283	-0.433610	0.253655
H185	H	-0.919336	-1.183674	-0.332939
H186	H	-0.419336	-0.683674	0.167061
H187	H	-0.270849	-1.149006	-0.924680
H188	H	0.229151	-0.649006	-0.424680
H189	H	-0.442667	-0.978129	-0.924624
H190	H	0.057333	-0.478129	-0.424624
