data_functionalizedCrystal
_audit_creation_method	'MofGen! by Chris Wilmer'
_symmetry_space_group_name_H-M	'P1'
_symmetry_Int_Tables_number	1
_symmetry_cell_setting	triclinic
loop_
_symmetry_equiv_pos_as_xyz
  x,y,z
_cell_length_a	19.288864
_cell_length_b	9.482900
_cell_length_c	19.288865
_cell_angle_alpha	99.296723
_cell_angle_beta	96.863755
_cell_angle_gamma	99.270367
loop_
_atom_site_label
_atom_site_type_symbol
_atom_site_fract_x
_atom_site_fract_y
_atom_site_fract_z
O1	O	0.932252	0.121381	-0.075694
O2	O	1.265585	0.454715	0.257639
O3	O	1.598919	0.788048	0.590972
O4	O	0.729983	0.121284	-0.087392
O5	O	1.063316	0.454617	0.245942
O6	O	1.396649	0.787951	0.579275
O7	O	0.836959	0.121307	0.019585
O8	O	1.170293	0.454640	0.352918
O9	O	1.503626	0.787973	0.686252
O10	O	0.825275	0.121359	-0.182671
O11	O	1.158608	0.454692	0.150662
O12	O	1.491942	0.788025	0.483996
O13	O	0.815230	-0.120490	-0.002231
O14	O	1.148563	0.212843	0.331102
O15	O	1.481896	0.546176	0.664435
O16	O	0.708253	-0.120513	-0.109208
O17	O	1.041586	0.212820	0.224125
O18	O	1.374920	0.546154	0.557459
O19	O	0.910522	-0.120416	-0.097511
O20	O	1.243856	0.212917	0.235823
O21	O	1.577189	0.546251	0.569156
Cu22	Cu	0.807403	-0.142542	-0.105351
Cu23	Cu	1.140737	0.190791	0.227982
Cu24	Cu	1.474070	0.524124	0.561315
Cu25	Cu	0.833101	0.143411	-0.079551
Cu26	Cu	1.166435	0.476744	0.253782
Cu27	Cu	1.499768	0.810077	0.587116
O28	O	0.803545	-0.120438	-0.204487
O29	O	1.136879	0.212895	0.128846
O30	O	1.470212	0.546228	0.462179
C31	C	0.693240	0.000373	-0.097925
C32	C	1.026573	0.333706	0.235408
C33	C	1.359907	0.667039	0.568742
C34	C	0.616133	0.000334	-0.096800
C35	C	0.949466	0.333668	0.236534
C36	C	1.282800	0.667001	0.569867
N37	N	0.789334	-0.343666	-0.123498
N38	N	1.122667	-0.010333	0.209836
N39	N	1.456001	0.323000	0.543169
C40	C	0.571440	0.000373	-0.159564
C41	C	0.904774	0.333707	0.173769
C42	C	1.238107	0.667040	0.507103
C43	C	0.498995	0.000389	-0.158502
C44	C	0.832328	0.333722	0.174832
C45	C	1.165661	0.667056	0.508165
C46	C	0.471248	0.000395	-0.094669
C47	C	0.804581	0.333728	0.238664
C48	C	1.137914	0.667062	0.571998
C49	C	0.515949	0.000348	-0.031897
C50	C	0.849283	0.333681	0.301436
C51	C	1.182616	0.667015	0.634769
C52	C	0.588392	0.000317	-0.032962
C53	C	0.921726	0.333651	0.300371
C54	C	1.255059	0.666984	0.633704
C55	C	0.370602	0.085143	-0.036843
C56	C	0.703935	0.418477	0.296490
C57	C	1.037268	0.751810	0.629823
C58	C	0.298161	0.085183	-0.035780
C59	C	0.631494	0.418516	0.297553
C60	C	0.964827	0.751849	0.630887
C61	C	0.247810	0.000482	-0.091382
C62	C	0.581143	0.333816	0.241952
C63	C	0.914477	0.667149	0.575285
C64	C	0.269909	-0.084239	-0.148057
C65	C	0.603242	0.249095	0.185277
C66	C	0.936576	0.582428	0.518610
C67	C	0.342352	-0.084269	-0.149122
C68	C	0.675685	0.249064	0.184211
C69	C	1.009018	0.582398	0.517545
C70	C	0.392696	0.000427	-0.093507
C71	C	0.726030	0.333760	0.239826
C72	C	1.059363	0.667094	0.573160
C73	C	0.124562	0.000536	-0.152999
C74	C	0.457896	0.333870	0.180335
C75	C	0.791229	0.667203	0.513668
C76	C	0.052115	0.000543	-0.151935
C77	C	0.385448	0.333876	0.181398
C78	C	0.718782	0.667210	0.514732
C79	C	0.069073	0.000516	-0.025327
C80	C	0.402406	0.333850	0.308006
C81	C	0.735739	0.667183	0.641339
C82	C	0.141517	0.000495	-0.026394
C83	C	0.474851	0.333828	0.306939
C84	C	0.808184	0.667162	0.640272
C85	C	0.169258	0.000512	-0.090231
C86	C	0.502591	0.333845	0.243102
C87	C	0.835925	0.667179	0.576435
C88	C	0.827767	-0.415858	-0.084900
C89	C	1.161100	-0.082524	0.248434
C90	C	1.494433	0.250809	0.581767
C91	C	0.812738	-0.583278	-0.100003
C92	C	1.146071	-0.249945	0.233330
C93	C	1.479404	0.083389	0.566664
C94	C	0.947265	0.000499	-0.086977
C95	C	1.280598	0.333832	0.246356
C96	C	1.613932	0.667165	0.579690
C97	C	1.024373	0.000547	-0.088102
C98	C	1.357706	0.333880	0.245232
C99	C	1.691040	0.667213	0.578565
C100	C	0.825718	0.000404	0.034553
C101	C	1.159051	0.333737	0.367886
C102	C	1.492385	0.667070	0.701219
C103	C	0.824588	0.000390	0.111655
C104	C	1.157921	0.333724	0.444988
C105	C	1.491254	0.667057	0.778322
N106	N	0.851176	0.344535	-0.061399
N107	N	1.184510	0.677868	0.271934
N108	N	1.517843	1.011201	0.605267
C109	C	0.814787	0.000468	-0.219455
C110	C	1.148120	0.333801	0.113878
C111	C	1.481454	0.667134	0.447212
C112	C	0.815918	0.000491	-0.296556
C113	C	1.149252	0.333824	0.036777
C114	C	1.482585	0.667157	0.370110
C115	C	0.887358	0.000413	0.156354
C116	C	1.220691	0.333747	0.489687
C117	C	1.554024	0.667080	0.823020
C118	C	0.886299	0.000436	0.228803
C119	C	1.219632	0.333769	0.562136
C120	C	1.552966	0.667102	0.895469
C121	C	0.822464	0.000406	0.256547
C122	C	1.155797	0.333739	0.589881
C123	C	1.489131	0.667073	0.923214
C124	C	0.759687	0.000391	0.211840
C125	C	1.093020	0.333725	0.545173
C126	C	1.426353	0.667058	0.878507
C127	C	0.760748	0.000383	0.139394
C128	C	1.094082	0.333717	0.472727
C129	C	1.427415	0.667050	0.806061
C130	C	0.764671	-0.084314	0.357191
C131	C	1.098004	0.249019	0.690524
C132	C	1.431338	0.582352	1.023858
C133	C	0.763611	-0.084315	0.429635
C134	C	1.096944	0.249018	0.762969
C135	C	1.430278	0.582351	1.096302
C136	C	0.819187	0.000437	0.479996
C137	C	1.152521	0.333770	0.813329
C138	C	1.485854	0.667104	1.146663
C139	C	0.875834	0.085172	0.457903
C140	C	1.209167	0.418505	0.791236
C141	C	1.542500	0.751838	1.124570
C142	C	0.876895	0.085164	0.385457
C143	C	1.210229	0.418497	0.718790
C144	C	1.543562	0.751830	1.052124
C145	C	0.821306	0.000416	0.335102
C146	C	1.154639	0.333749	0.668436
C147	C	1.487973	0.667082	1.001769
C148	C	0.880814	0.000487	0.603253
C149	C	1.214147	0.333820	0.936586
C150	C	1.547481	0.667153	1.269919
C151	C	0.879753	0.000518	0.675704
C152	C	1.213087	0.333851	1.009037
C153	C	1.546420	0.667185	1.342370
C154	C	0.753138	0.000459	0.658738
C155	C	1.086471	0.333792	0.992071
C156	C	1.419805	0.667125	1.325405
C157	C	0.754202	0.000442	0.586290
C158	C	1.087535	0.333775	0.919623
C159	C	1.420868	0.667109	1.252957
C160	C	0.818041	0.000449	0.558551
C161	C	1.151374	0.333782	0.891885
C162	C	1.484707	0.667116	1.225218
H163	H	0.594022	0.000390	-0.211545
H164	H	0.927355	0.333723	0.121789
H165	H	1.260689	0.667056	0.455122
F166	F	0.885195	-0.334643	-0.026969
F167	F	1.218529	-0.001310	0.306364
F168	F	1.551862	0.332023	0.639697
H169	H	0.768702	-0.645412	-0.144230
H170	H	1.102036	-0.312078	0.189104
H171	H	1.435369	0.021255	0.522437
H172	H	0.709632	0.000364	0.103000
H173	H	1.042965	0.333697	0.436333
H174	H	1.376299	0.667031	0.769666
H175	H	0.895207	-0.593332	-0.017168
H176	H	1.228540	-0.259998	0.316166
H177	H	1.561873	0.073335	0.649499
F178	F	0.189086	0.000461	0.040410
F179	F	0.522419	0.333794	0.373743
F180	F	0.855752	0.667128	0.707077
F181	F	0.039546	0.000509	0.042608
F182	F	0.372879	0.333842	0.375941
F183	F	0.706213	0.667175	0.709274
H184	H	0.147148	0.000529	-0.204981
H185	H	0.480482	0.333862	0.128353
H186	H	0.813815	0.667195	0.461686
F187	F	0.705516	-0.174528	0.303598
F188	F	1.038849	0.158805	0.636932
F189	F	1.372182	0.492138	0.970265
H190	H	0.745301	-0.405806	-0.167721
H191	H	1.078635	-0.072472	0.165612
H192	H	1.411968	0.260861	0.498945
F193	F	0.451420	0.000427	-0.225307
F194	F	0.784753	0.333760	0.108026
F195	F	1.118087	0.667093	0.441359
H196	H	0.921089	0.154186	0.498906
H197	H	1.254422	0.487519	0.832240
H198	H	1.587756	0.820853	1.165573
H199	H	0.707712	0.000370	0.234435
H200	H	1.041045	0.333703	0.567768
H201	H	1.374379	0.667037	0.901101
H202	H	0.939341	0.000424	0.133774
H203	H	1.272674	0.333757	0.467108
H204	H	1.606008	0.667091	0.800441
H205	H	0.360341	-0.153257	-0.195267
H206	H	0.693674	0.180077	0.138066
H207	H	1.027008	0.513410	0.471400
F208	F	0.953110	0.000463	0.276383
F209	F	1.286444	0.333796	0.609716
F210	F	1.619777	0.667129	0.943050
F211	F	0.937178	0.175348	0.361946
F212	F	1.270512	0.508682	0.695280
F213	F	1.603845	0.842015	1.028613
H214	H	0.228913	-0.153211	-0.193332
H215	H	0.562247	0.180122	0.140001
H216	H	0.895580	0.513456	0.473334
H217	H	0.280174	0.154173	0.010366
H218	H	0.613508	0.487507	0.343699
H219	H	0.946841	0.820840	0.677033
H220	H	0.015725	0.000566	-0.203048
H221	H	0.349059	0.333900	0.130285
H222	H	0.682392	0.667233	0.463619
F223	F	0.424184	0.175298	0.022340
F224	F	0.757517	0.508632	0.355673
F225	F	1.090850	0.841965	0.689007
H226	H	0.932796	0.000499	0.580667
H227	H	1.266130	0.333832	0.914001
H228	H	1.599463	0.667166	1.247334
H229	H	0.717484	-0.153303	0.447617
H230	H	1.050817	0.180030	0.780951
H231	H	1.384151	0.513364	1.114284
H232	H	0.493355	0.000373	0.020078
H233	H	0.826688	0.333706	0.353411
H234	H	1.160022	0.667039	0.686744
F235	F	0.946566	0.000552	0.723277
F236	F	1.279900	0.333885	1.056610
F237	F	1.613233	0.667219	1.389943
F238	F	0.635960	0.000276	0.033843
F239	F	0.969293	0.333609	0.367176
F240	F	1.302626	0.666943	0.700510
F241	F	0.685200	0.000434	0.688262
F242	F	1.018534	0.333768	1.021595
F243	F	1.351867	0.667101	1.354928
H244	H	0.703087	0.000415	0.549895
H245	H	1.036420	0.333748	0.883228
H246	H	1.369753	0.667082	1.216561
