data_functionalizedCrystal
_audit_creation_method	'MofGen! by Chris Wilmer'
_symmetry_space_group_name_H-M	'P1'
_symmetry_Int_Tables_number	1
_symmetry_cell_setting	triclinic
loop_
_symmetry_equiv_pos_as_xyz
  x,y,z
_cell_length_a	13.262533
_cell_length_b	13.339070
_cell_length_c	14.048226
_cell_angle_alpha	90.000732
_cell_angle_beta	74.088044
_cell_angle_gamma	99.431353
loop_
_atom_site_label
_atom_site_type_symbol
_atom_site_fract_x
_atom_site_fract_y
_atom_site_fract_z
O1	O	1.432352	0.136447	-0.291683
O2	O	1.131099	0.151276	-0.213687
O3	O	1.247151	-0.003548	-0.243736
O4	O	1.316300	0.291272	-0.261634
O5	O	1.247136	-0.003549	-0.402054
O6	O	1.131083	0.151275	-0.372004
O7	O	1.432336	0.136446	-0.450001
Zn8	Zn	1.281707	0.143860	-0.436138
Zn9	Zn	1.281728	0.143862	-0.227549
O10	O	1.316284	0.291270	-0.419951
C11	C	1.091746	0.150444	-0.282658
C12	C	0.974508	0.147953	-0.252304
C13	C	0.643993	0.140941	-0.511938
C14	C	0.754145	0.143287	-0.540462
C15	C	0.809241	0.144453	-0.468425
C16	C	0.754174	0.143274	-0.367859
C17	C	0.644013	0.140937	-0.339333
C18	C	0.809261	0.144448	-0.295820
C19	C	0.754194	0.143269	-0.195254
C20	C	0.644043	0.140931	-0.166732
C21	C	0.588947	0.139765	-0.238769
C22	C	0.919422	0.146786	-0.324346
C23	C	0.919442	0.146781	-0.151741
C24	C	0.809290	0.144436	-0.123217
C25	C	1.235463	-0.041287	-0.319869
C26	C	1.200646	-0.153736	-0.310851
C27	C	1.471363	-0.517385	-0.380943
C28	C	1.504078	-0.411734	-0.389422
C29	C	1.428223	-0.347229	-0.369780
C30	C	1.319647	-0.388386	-0.341657
C31	C	1.286928	-0.494047	-0.333185
C32	C	1.243788	-0.323892	-0.322022
C33	C	1.135212	-0.365048	-0.293899
C34	C	1.102499	-0.470700	-0.285427
C35	C	1.178354	-0.535204	-0.305070
C36	C	1.276507	-0.218230	-0.330494
C37	C	1.092072	-0.194893	-0.282736
C38	C	1.059357	-0.300544	-0.274257
C39	C	1.471689	0.137279	-0.381027
C40	C	1.588927	0.139770	-0.411375
C41	C	1.327972	0.329009	-0.343816
C42	C	1.362789	0.441458	-0.352828
N43	N	1.281700	0.143858	-0.578497
C44	C	1.363330	0.205597	-0.649445
C45	C	1.363342	0.205593	-0.749105
C46	C	1.281720	0.143855	-0.777816
C47	C	1.200086	0.082109	-0.706861
C48	C	1.200079	0.082108	-0.607203
C49	C	1.200105	0.082116	-0.914580
C50	C	1.200111	0.082117	-1.014244
C51	C	1.363369	0.205600	-1.056482
C52	C	1.363362	0.205600	-0.956825
C53	C	1.281726	0.143855	-0.885876
N54	N	1.281741	0.143856	-0.085191
H55	H	0.964247	0.147748	-0.406228
H56	H	1.151722	-0.621235	-0.298164
H57	H	0.964302	0.147734	-0.093082
H58	H	1.133646	0.031846	-1.037616
F59	F	0.585352	0.139712	-0.588593
H60	H	0.499251	0.137846	-0.215549
H61	H	1.429814	0.255865	-0.806869
H62	H	1.364910	-0.184731	-0.353392
H63	H	1.533112	-0.569913	-0.396940
F64	F	0.943804	-0.344359	-0.244326
F65	F	0.986942	-0.514498	-0.255509
H66	H	1.454867	-0.261204	-0.376685
H67	H	1.133608	0.031835	-0.549437
H68	H	1.592481	-0.378232	-0.412320
F69	F	0.585442	0.139691	-0.059701
H70	H	0.898932	0.146363	-0.491656
F71	F	1.011335	-0.126247	-0.261836
H72	H	1.429792	0.255878	-0.626077
F73	F	1.450254	0.271310	-1.131993
F74	F	1.450218	0.271328	-0.926268
F75	F	0.750669	0.143167	-0.016189
H76	H	1.133632	0.031835	-0.730245
F77	F	0.812744	0.144545	-0.647487
F78	F	1.113230	0.016386	-0.839075
