data_functionalizedCrystal
_audit_creation_method	'MofGen! by Chris Wilmer'
_symmetry_space_group_name_H-M	'P1'
_symmetry_Int_Tables_number	1
_symmetry_cell_setting	triclinic
loop_
_symmetry_equiv_pos_as_xyz
  x,y,z
_cell_length_a	18.760487
_cell_length_b	12.970454
_cell_length_c	12.970454
_cell_angle_alpha	120.000713
_cell_angle_beta	89.965913
_cell_angle_gamma	60.020386
loop_
_atom_site_label
_atom_site_type_symbol
_atom_site_fract_x
_atom_site_fract_y
_atom_site_fract_z
Zr1	Zr	0.686685	1.128519	0.134694
O2	O	0.572871	1.343609	0.299420
O3	O	0.721575	0.913428	0.084196
O4	O	0.721579	1.128518	0.299287
O5	O	0.572865	1.128520	-0.085337
O6	O	0.838882	1.128518	0.299182
O7	O	0.572868	1.128519	0.084329
O8	O	0.838875	0.743762	-0.085576
O9	O	0.572871	1.513276	0.299421
O10	O	0.823997	1.001898	0.062582
O11	O	0.736453	1.001899	-0.063960
O12	O	0.736457	1.255139	0.189281
O13	O	0.648914	1.255140	0.062739
Zr14	Zr	0.873766	1.128520	-0.136071
Zr15	Zr	0.873770	1.128518	0.134527
Zr16	Zr	0.686681	1.128520	-0.135905
Zr17	Zr	0.686685	1.399119	0.134695
Zr18	Zr	0.873766	0.857920	-0.136072
O19	O	0.838876	1.343611	-0.085573
O20	O	0.838882	1.343608	0.299183
O21	O	0.572865	1.343611	-0.085336
O22	O	0.987579	0.913430	-0.300797
O23	O	0.987585	0.913428	0.083959
O24	O	0.721569	0.913430	-0.300560
O25	O	0.987585	1.128519	0.083960
O26	O	0.838872	1.128521	-0.300664
O27	O	0.721569	1.128521	-0.300559
O28	O	0.987583	1.128520	-0.085706
O29	O	0.721579	1.513276	0.299289
O30	O	0.838872	0.743763	-0.300666
O31	O	0.987579	0.743763	-0.300798
O32	O	0.987583	0.743761	-0.085708
O33	O	0.572868	1.513278	0.084331
O34	O	0.721575	1.513277	0.084199
O35	O	0.823993	1.001900	-0.190658
O36	O	0.911537	1.001899	-0.064116
O37	O	0.823997	1.255140	0.062583
O38	O	0.736454	1.255141	-0.063959
C39	C	0.780225	0.790040	-0.000690
C40	C	0.780225	0.675163	-0.000691
C41	C	0.546211	1.128520	-0.000480
C42	C	0.466789	1.128520	-0.000410
C43	C	0.085277	1.260714	0.065227
C44	C	0.176675	0.996326	-0.067049
C45	C	0.251297	0.996323	-0.066940
C46	C	0.242912	1.128518	-0.000745
C47	C	0.159905	1.260716	0.065341
C48	C	0.334308	0.864129	-0.133015
C49	C	0.408937	0.864121	-0.132908
C50	C	0.400553	0.996318	-0.066720
C51	C	0.317539	1.128520	-0.000632
C52	C	0.309154	1.260715	0.065563
C53	C	0.226141	1.392920	0.131645
C54	C	0.151520	1.392913	0.131529
C55	C	0.475174	0.996325	-0.066605
C56	C	0.383782	1.260717	0.065677
C57	C	1.014240	1.128519	-0.000897
C58	C	1.093662	1.128519	-0.000968
C59	C	0.780231	1.128517	0.337789
C60	C	0.780232	1.128517	0.452665
C61	C	0.780225	1.466999	-0.000687
C62	C	0.780225	1.581875	-0.000686
C63	C	0.780223	1.128521	0.660834
C64	C	0.780229	1.128522	0.545958
C65	C	1.014240	0.790040	-0.000899
C66	C	1.093662	0.675163	-0.000970
C67	C	0.780220	0.790042	-0.339168
C68	C	0.780218	0.675166	-0.454044
C69	C	1.014234	0.790042	-0.339376
C70	C	1.093655	0.675166	-0.454323
C71	C	0.546216	1.466997	0.337999
C72	C	0.466796	1.581873	0.452946
C73	C	0.546211	1.466999	-0.000479
C74	C	0.466789	1.581876	-0.000407
C75	C	0.780231	1.466997	0.337791
C76	C	0.780233	1.581873	0.452667
C77	C	1.085265	0.621215	0.065143
C78	C	1.159883	0.513291	0.065101
C79	C	1.242898	0.459309	-0.001061
C80	C	1.251294	0.513268	-0.067176
C81	C	1.176676	0.621197	-0.067126
C82	C	1.176656	0.621218	-0.442250
C83	C	1.251288	0.513295	-0.550245
C84	C	1.242915	0.459313	-0.670312
C85	C	1.159905	0.513272	-0.682383
C86	C	1.085276	0.621200	-0.574389
C87	C	0.383794	1.635834	0.440873
C88	C	0.309163	1.743791	0.548868
C89	C	0.317536	1.797778	0.668935
C90	C	0.400546	1.743813	0.681006
C91	C	0.475175	1.635865	0.573012
C92	C	0.475186	1.635835	-0.066509
C93	C	0.400568	1.743789	-0.066438
C94	C	0.317553	1.797775	-0.000271
C95	C	0.309157	1.743811	0.065839
C96	C	0.383775	1.635866	0.065774
H97	H	0.376943	1.368368	0.119568
H98	H	0.376961	1.591884	0.343118
H99	H	1.318871	0.469373	-0.540394
H100	H	1.153101	0.469304	-0.780156
Br101	Br	0.372362	1.562643	0.155486
H102	H	0.407421	1.787708	-0.120277
H103	H	1.303650	0.371425	-0.001093
Br104	Br	0.972633	0.694396	-0.590797
H105	H	0.542757	1.591931	0.582857
Br106	Br	0.345682	0.684732	-0.222837
Br107	Br	0.196518	1.817004	0.532456
Br108	Br	1.188089	0.694391	-0.156868
Br109	Br	0.216243	1.944281	0.815488
H110	H	0.476522	0.756472	-0.186714
H111	H	0.407352	1.787783	0.778777
Br112	Br	-0.027376	1.440126	0.154894
H113	H	0.256801	1.885670	-0.000229
H114	H	0.542775	1.591888	-0.120398
Br115	Br	0.587826	0.816921	-0.156264
H116	H	1.183490	0.665154	-0.344495
Br117	Br	0.214773	1.572321	0.221482
Br118	Br	0.038862	1.572316	0.221202
H119	H	1.017676	0.665166	0.119036
Br120	Br	0.188051	0.816927	-0.156869
Br121	Br	1.363964	0.439987	-0.156967
H122	H	1.153030	0.469371	0.118940
H123	H	1.303690	0.371431	-0.758237
H124	H	0.241556	1.787783	0.119710
