data_functionalizedCrystal
_audit_creation_method	'MofGen! by Chris Wilmer'
_symmetry_space_group_name_H-M	'P1'
_symmetry_Int_Tables_number	1
_symmetry_cell_setting	triclinic
loop_
_symmetry_equiv_pos_as_xyz
  x,y,z
_cell_length_a	12.759401
_cell_length_b	29.839131
_cell_length_c	12.759393
_cell_angle_alpha	90.044470
_cell_angle_beta	90.019802
_cell_angle_gamma	90.034315
loop_
_atom_site_label
_atom_site_type_symbol
_atom_site_fract_x
_atom_site_fract_y
_atom_site_fract_z
Zn1	Zn	1.606116	-0.178843	0.593886
Zn2	Zn	1.605945	-0.253980	0.418163
Zn3	Zn	1.430415	-0.178863	0.418225
Zn4	Zn	1.430344	-0.253945	0.593804
O5	O	1.518205	-0.216408	0.506020
O6	O	1.753115	-0.188815	0.570585
O7	O	1.582618	-0.244038	0.271150
O8	O	1.453824	-0.115993	0.441587
O9	O	1.752988	-0.244018	0.441482
O10	O	1.582911	-0.115978	0.570644
O11	O	1.453657	-0.188851	0.271196
O12	O	1.283385	-0.188817	0.441507
O13	O	1.453703	-0.243959	0.740836
O14	O	1.283333	-0.243980	0.570505
O15	O	1.582842	-0.188782	0.740896
O16	O	1.582549	-0.316842	0.441403
O17	O	1.453536	-0.316817	0.570445
C18	C	1.245238	-0.216397	0.506004
C19	C	1.128461	-0.216404	0.506023
C20	C	0.963928	-0.187722	0.573357
C21	C	1.073652	-0.187713	0.573350
C22	C	1.073540	-0.245108	0.438705
C23	C	0.963818	-0.245119	0.438718
C24	C	1.223674	-0.171710	0.697312
C25	C	1.278591	-0.143002	0.764617
C26	C	1.243026	-0.099178	0.780954
C27	C	1.152545	-0.084053	0.729970
C28	C	1.097634	-0.112759	0.662657
C29	C	1.133197	-0.156589	0.646340
C30	C	0.813794	-0.261117	0.314755
C31	C	0.758881	-0.289821	0.247436
C32	C	0.794444	-0.333646	0.231088
C33	C	0.884928	-0.348769	0.282053
C34	C	0.939842	-0.320065	0.349373
C35	C	0.904271	-0.276240	0.365722
C36	C	1.518045	-0.333130	0.505931
C37	C	1.518072	-0.383065	0.505928
C38	C	1.585406	-0.692665	0.573316
C39	C	1.585520	-0.880338	0.573379
O40	O	1.642612	-0.904567	0.630608
N41	N	1.518384	-0.903850	0.506136
C42	C	1.451209	-0.880440	0.438878
O43	O	1.394100	-0.904744	0.381693
C44	C	1.451090	-0.692768	0.438821
C45	C	1.518239	-0.669259	0.506060
C46	C	1.652548	-0.669156	0.640551
C47	C	1.652523	-0.622241	0.640530
C48	C	1.585356	-0.598834	0.573275
C49	C	1.518214	-0.622343	0.506040
C50	C	1.383911	-0.669359	0.371569
C51	C	1.383885	-0.622438	0.371562
C52	C	1.451034	-0.598929	0.438802
C53	C	1.451021	-0.552022	0.438764
N54	N	1.518158	-0.528510	0.506007
C55	C	1.585325	-0.551916	0.573262
C56	C	1.451277	-0.978971	0.438911
C57	C	1.451308	-1.025888	0.438924
C58	C	1.585618	-1.025783	0.573426
C59	C	1.585592	-0.978865	0.573408
C60	C	1.518414	-0.955459	0.506154
C61	C	1.585268	-0.453391	0.573213
C62	C	1.585240	-0.406471	0.573184
C63	C	1.450926	-0.406580	0.438685
C64	C	1.450958	-0.453496	0.438711
C65	C	1.518132	-0.476900	0.505983
O66	O	1.393950	-0.527764	0.381573
O67	O	1.642409	-0.527604	0.630455
C68	C	1.585431	-0.739581	0.573336
C69	C	1.518289	-0.763090	0.506101
C70	C	1.451122	-0.739683	0.438846
C71	C	1.518320	-0.810008	0.506114
C72	C	1.585487	-0.833414	0.573369
C73	C	1.652624	-0.809902	0.640612
C74	C	1.652598	-0.762987	0.640592
C75	C	1.383985	-0.763195	0.371603
C76	C	1.384017	-0.810110	0.371629
C77	C	1.451184	-0.833517	0.438884
C78	C	1.792238	-0.216418	0.506036
C79	C	1.909015	-0.216423	0.506043
C80	C	1.518284	-0.216365	0.780053
C81	C	1.518317	-0.216346	0.896830
C82	C	1.518395	-0.099229	0.506132
C83	C	1.518475	-0.049295	0.506179
C84	C	1.518187	-0.216418	0.233052
C85	C	1.518357	-0.216310	0.116276
C86	C	1.585565	-0.187611	0.951725
C87	C	1.585583	-0.187591	1.061449
C88	C	1.451102	-0.245047	1.061373
C89	C	1.451080	-0.245064	0.951651
C90	C	1.623239	-0.134587	1.211457
C91	C	1.690503	-0.105856	1.266355
C92	C	1.793022	-0.098969	1.230766
C93	C	1.828297	-0.120820	1.140279
C94	C	1.761039	-0.149555	1.085386
C95	C	1.658506	-0.156433	1.120974
C96	C	1.413434	-0.298068	0.801642
C97	C	1.346180	-0.326806	0.746747
C98	C	1.243660	-0.333697	0.782334
C99	C	1.208388	-0.311854	0.872824
C100	C	1.275642	-0.283117	0.927719
C101	C	1.378162	-0.276224	0.892124
H102	H	1.118174	-0.268470	0.383890
C103	C	1.377827	-0.381218	0.365738
C104	C	1.273876	-0.392666	0.388526
C105	C	1.206501	-0.369314	0.321349
H106	H	1.387290	-0.349902	0.375303
H107	H	1.393167	-0.388934	0.295140
H108	H	1.258541	-0.384947	0.459108
H109	H	1.264380	-0.423977	0.378955
H110	H	1.221841	-0.377030	0.250750
H111	H	1.215973	-0.338000	0.330919
H112	H	1.135963	-0.377081	0.336795
H113	H	1.023870	-0.100468	0.621280
H114	H	0.749727	-0.357015	0.176264
H115	H	1.640311	-0.164226	0.907093
C116	C	0.904481	-0.156627	0.646635
C117	C	0.931192	-0.166471	0.750535
C118	C	0.876443	-0.137841	0.818073
H119	H	0.922437	-0.126416	0.631540
H120	H	0.831259	-0.160747	0.637074
H121	H	1.004398	-0.162347	0.760092
H122	H	0.913234	-0.196677	0.765663
H123	H	0.803221	-0.141960	0.808512
H124	H	0.894403	-0.107631	0.802968
H125	H	0.894551	-0.144518	0.888577
H126	H	1.252634	-0.207396	0.684026
C127	C	1.037953	-0.336537	0.404855
C128	C	1.012713	-0.373391	0.467854
C129	C	1.103061	-0.388572	0.518990
H130	H	1.088742	-0.345187	0.354337
H131	H	1.065563	-0.313183	0.447345
H132	H	0.985118	-0.396740	0.425367
H133	H	0.961939	-0.364752	0.518390
H134	H	1.130672	-0.365219	0.561480
H135	H	1.153844	-0.397220	0.468465
H136	H	1.085947	-0.413577	0.561748
H137	H	1.707244	-0.688209	0.695324
C138	C	0.923350	-0.396374	0.264216
C139	C	0.855877	-0.418279	0.194378
C140	C	0.891228	-0.462135	0.177927
H141	H	0.992046	-0.395640	0.235602
H142	H	0.924384	-0.412002	0.329052
H143	H	0.854853	-0.402655	0.129554
H144	H	0.787178	-0.419025	0.222973
H145	H	0.892263	-0.477764	0.242763
H146	H	0.959924	-0.461397	0.149316
H147	H	0.845448	-0.477005	0.130548
C148	C	1.384287	-0.350495	0.648389
C149	C	1.321519	-0.337956	0.563306
C150	C	1.356582	-0.359772	0.472684
H151	H	1.454948	-0.342292	0.634904
H152	H	1.379969	-0.382005	0.658114
H153	H	1.325847	-0.306453	0.553581
H154	H	1.250856	-0.346160	0.576756
H155	H	1.352264	-0.391282	0.482409
H156	H	1.427243	-0.351567	0.459210
H157	H	1.313994	-0.351270	0.414946
H158	H	1.707198	-0.603102	0.695285
H159	H	1.329232	-0.688492	0.316815
C160	C	0.775386	-0.213501	0.332474
C161	C	0.853142	-0.183202	0.301231
C162	C	0.817802	-0.139335	0.317544
H163	H	0.713670	-0.208540	0.292487
H164	H	0.760400	-0.209255	0.404732
H165	H	0.868114	-0.187446	0.228985
H166	H	0.914864	-0.188149	0.341211
H167	H	0.802816	-0.135089	0.389803
H168	H	0.756086	-0.134379	0.277557
H169	H	0.870557	-0.118772	0.296358
H170	H	1.640269	-0.959726	0.628160
C171	C	1.114076	-0.036460	0.747877
C172	C	1.181515	-0.014562	0.817759
C173	C	1.146098	0.029279	0.834294
H174	H	1.113013	-0.020801	0.683098
H175	H	1.045367	-0.037236	0.776490
H176	H	1.250206	-0.013784	0.789144
H177	H	1.182586	-0.030207	0.882552
H178	H	1.077389	0.028503	0.862906
H179	H	1.145036	0.044934	0.769509
H180	H	1.191844	0.044142	0.881717
H181	H	1.396571	-0.959917	0.384142
C182	C	1.658424	-1.051282	0.646414
C183	C	1.644050	-1.097402	0.632044
C184	C	1.711080	-1.120907	0.699274
H185	H	1.729066	-1.043631	0.631178
H186	H	1.642985	-1.043599	0.717011
H187	H	1.659496	-1.105082	0.561464
H188	H	1.573423	-1.105067	0.647288
H189	H	1.695641	-1.113224	0.769871
H190	H	1.781717	-1.113252	0.684033
H191	H	1.701330	-1.152201	0.689540
H192	H	1.847789	-0.075574	1.275472
H193	H	1.352261	-0.155320	0.806128
H194	H	0.684945	-0.277568	0.206298
H195	H	1.639924	-0.387331	0.627938
C196	C	1.302761	-0.068084	0.854113
C197	C	1.389594	-0.090711	0.895280
C198	C	1.444640	-0.062086	0.962692
H199	H	1.325838	-0.042496	0.816342
H200	H	1.258120	-0.058911	0.909702
H201	H	1.434227	-0.099877	0.839699
H202	H	1.366547	-0.116296	0.933068
H203	H	1.399999	-0.052913	1.018281
H204	H	1.467710	-0.036500	0.924913
H205	H	1.503557	-0.077436	0.990639
H206	H	1.661773	-0.088065	1.340030
C207	C	1.658310	-0.478715	0.646295
C208	C	1.717113	-0.448077	0.705148
C209	C	1.784420	-0.471389	0.772469
H210	H	1.618225	-0.497014	0.692142
H211	H	1.704181	-0.497009	0.606185
H212	H	1.671248	-0.429791	0.745255
H213	H	1.757220	-0.429778	0.659329
H214	H	1.830291	-0.489683	0.732360
H215	H	1.744327	-0.489687	0.818309
H216	H	1.824333	-0.450605	0.812402
H217	H	1.396640	-1.045026	0.384159
H218	H	1.329178	-0.603383	0.316797
H219	H	1.396288	-0.472638	0.383950
C220	C	1.170660	-0.364966	0.722899
C221	C	1.139044	-0.399883	0.788983
C222	C	1.071807	-0.428697	0.734269
H223	H	1.110841	-0.348778	0.699928
H224	H	1.206328	-0.377021	0.663931
H225	H	1.103376	-0.387829	0.847931
H226	H	1.198841	-0.416082	0.811957
H227	H	1.107474	-0.440752	0.675301
H228	H	1.011993	-0.412506	0.711300
H229	H	1.050355	-0.452394	0.779096
C230	C	1.725538	-0.737548	0.713718
C231	C	1.784337	-0.768096	0.772633
C232	C	1.851531	-0.744682	0.840023
H233	H	1.771424	-0.719242	0.673687
H234	H	1.685339	-0.719252	0.759514
H235	H	1.824533	-0.786384	0.726842
H236	H	1.738478	-0.786403	0.812685
H237	H	1.811332	-0.726386	0.885819
H238	H	1.897411	-0.726377	0.799984
H239	H	1.891427	-0.765405	0.880011
H240	H	1.789761	-0.167347	1.011717
C241	C	1.939537	-0.113339	1.101438
C242	C	1.936606	-0.095374	1.000141
C243	C	2.039061	-0.088484	0.964318
H244	H	1.974649	-0.093087	1.146967
H245	H	1.975911	-0.141107	1.100306
H246	H	1.900247	-0.067610	1.001280
H247	H	1.901514	-0.115619	0.954587
H248	H	2.075435	-0.116252	0.963185
H249	H	2.074165	-0.068233	1.009854
H250	H	2.037086	-0.076298	0.895581
C251	C	1.725433	-0.835402	0.713595
C252	C	1.711054	-0.881521	0.699229
C253	C	1.778089	-0.905027	0.766453
H254	H	1.796074	-0.827751	0.698352
H255	H	1.710002	-0.827718	0.784193
H256	H	1.726492	-0.889202	0.628647
H257	H	1.640427	-0.889185	0.714480
H258	H	1.762658	-0.897343	0.837051
H259	H	1.848725	-0.897373	0.751204
H260	H	1.768335	-0.936321	0.756721
C261	C	1.310991	-0.835550	0.298579
C262	C	1.252148	-0.805004	0.239702
C263	C	1.184852	-0.828421	0.172419
H264	H	1.351086	-0.853861	0.252746
H265	H	1.265145	-0.853841	0.338717
H266	H	1.297988	-0.786721	0.199567
H267	H	1.212032	-0.786692	0.285508
H268	H	1.139006	-0.846711	0.212557
H269	H	1.224955	-0.846731	0.126592
H270	H	1.144912	-0.807699	0.132470
H271	H	1.329288	-0.744141	0.316837
H272	H	1.539758	-0.140189	1.240437
C273	C	1.378225	-0.276210	1.121086
C274	C	1.392657	-0.270055	1.228926
C275	C	1.325551	-0.298760	1.283963
H276	H	1.307599	-0.269663	1.103228
H277	H	1.393557	-0.306408	1.103136
H278	H	1.377318	-0.239863	1.246869
H279	H	1.463269	-0.276605	1.246815
H280	H	1.340883	-0.328958	1.266013
H281	H	1.254929	-0.292210	1.266097
H282	H	1.335341	-0.294590	1.357138
C283	C	1.524816	-0.290677	0.763099
C284	C	1.578178	-0.331660	0.761664
C285	C	1.680792	-0.324873	0.726191
H286	H	1.523188	-0.278500	0.694357
H287	H	1.559862	-0.270455	0.808770
H288	H	1.543140	-0.351876	0.715995
H289	H	1.579835	-0.343845	0.830395
H290	H	1.715839	-0.304650	0.771861
H291	H	1.679154	-0.312694	0.657450
H292	H	1.717014	-0.352677	0.725222
H293	H	1.246916	-0.265331	1.001401
C294	C	1.097157	-0.319388	0.911639
C295	C	1.100112	-0.337380	1.012909
C296	C	0.997666	-0.344334	1.048693
H297	H	1.060686	-0.291650	0.912819
H298	H	1.062133	-0.339648	0.866041
H299	H	1.135120	-0.317121	1.058495
H300	H	1.136563	-0.365121	1.011757
H301	H	0.962643	-0.364594	1.003095
H302	H	0.961204	-0.316594	1.049867
H303	H	0.999658	-0.356546	1.117404
