data_functionalizedCrystal
_audit_creation_method	'MofGen! by Chris Wilmer'
_symmetry_space_group_name_H-M	'P1'
_symmetry_Int_Tables_number	1
_symmetry_cell_setting	triclinic
loop_
_symmetry_equiv_pos_as_xyz
  x,y,z
_cell_length_a	18.760490
_cell_length_b	14.560432
_cell_length_c	14.560432
_cell_angle_alpha	59.998903
_cell_angle_beta	90.017493
_cell_angle_gamma	60.025489
loop_
_atom_site_label
_atom_site_type_symbol
_atom_site_fract_x
_atom_site_fract_y
_atom_site_fract_z
Zr1	Zr	0.686561	1.005636	-0.120414
O2	O	0.572773	1.197178	-0.267078
O3	O	0.721440	0.814055	-0.075455
O4	O	0.721446	1.005657	-0.267058
O5	O	0.572767	1.005572	0.075665
O6	O	0.838724	1.005720	-0.267040
O7	O	0.572768	1.005575	-0.075476
O8	O	0.838715	0.662978	0.075702
O9	O	0.572776	1.348315	-0.267077
O10	O	0.823843	0.892917	-0.056266
O11	O	0.736319	0.892868	0.056515
O12	O	0.736325	1.118456	-0.169072
O13	O	0.648800	1.118407	-0.056290
Zr14	Zr	0.873605	1.005732	0.120666
Zr15	Zr	0.873607	1.005736	-0.120387
Zr16	Zr	0.686559	1.005632	0.120638
Zr17	Zr	0.686566	1.246682	-0.120412
Zr18	Zr	0.873600	0.764686	0.120663
O19	O	0.838726	1.197314	0.075707
O20	O	0.838728	1.197319	-0.267039
O21	O	0.572771	1.197172	0.075667
O22	O	0.987393	0.814191	0.267330
O23	O	0.987395	0.814197	-0.075416
O24	O	0.721438	0.814049	0.267290
O25	O	0.987399	1.005796	-0.075414
O26	O	0.838720	1.005711	0.267309
O27	O	0.721442	1.005649	0.267292
O28	O	0.987398	1.005794	0.075727
O29	O	0.721452	1.348394	-0.267055
O30	O	0.838714	0.662975	0.267306
O31	O	0.987390	0.663054	0.267328
O32	O	0.987391	0.663057	0.075724
O33	O	0.572775	1.348311	-0.075473
O34	O	0.721451	1.348391	-0.075450
O35	O	0.823841	0.892913	0.169323
O36	O	0.911366	0.892962	0.056542
O37	O	0.823847	1.118500	-0.056264
O38	O	0.736323	1.118452	0.056518
C39	C	0.780077	0.704172	0.000123
C40	C	0.780075	0.601842	0.000122
C41	C	0.650849	0.768291	-0.166424
C42	C	0.586236	0.803438	-0.249692
C43	C	0.586239	0.707285	-0.249689
C44	C	0.650863	0.575974	-0.166410
C45	C	0.715476	0.540827	-0.083142
C46	C	0.715464	0.636991	-0.083153
C47	C	0.844704	0.374379	0.083397
C48	C	0.844699	0.470531	0.083401
C49	C	0.909328	0.243068	0.166676
C50	C	0.973939	0.207919	0.249951
C51	C	0.973933	0.304081	0.249944
C52	C	0.909312	0.435383	0.166669
C53	C	0.546117	1.005559	0.000091
C54	C	0.466712	1.005517	0.000079
C55	C	0.130724	1.005819	-0.083106
C56	C	0.130839	1.005816	0.083432
C57	C	0.205486	1.005751	0.083413
C58	C	0.242756	1.005718	0.000135
C59	C	0.205379	1.005750	-0.083125
C60	C	0.242873	1.005706	0.166678
C61	C	0.317524	1.005640	0.166664
C62	C	0.354792	1.005617	0.083380
C63	C	0.317410	1.005650	0.000116
C64	C	0.354680	1.005617	-0.083162
C65	C	0.317297	1.005660	-0.166432
C66	C	0.242647	1.005727	-0.166409
C67	C	0.429442	1.005550	0.083357
C68	C	0.429335	1.005549	-0.083181
C69	C	1.014049	1.005809	0.000161
C70	C	1.093454	1.005851	0.000172
C71	C	0.780085	1.005689	-0.301394
C72	C	0.780086	1.005691	-0.403727
C73	C	0.780089	1.307196	0.000128
C74	C	0.780091	1.409526	0.000129
C75	C	0.909304	1.005776	-0.403732
C76	C	0.973910	1.005823	-0.451812
C77	C	0.973907	1.005822	-0.547961
C78	C	0.909294	1.005771	-0.596032
C79	C	0.844688	1.005725	-0.547952
C80	C	0.844696	1.005729	-0.451802
C81	C	0.715475	1.005631	-0.547942
C82	C	0.715472	1.005640	-0.451797
C83	C	0.650861	1.005580	-0.596012
C84	C	0.586251	1.005542	-0.547937
C85	C	0.586256	1.005544	-0.451782
C86	C	0.650867	1.005593	-0.403717
C87	C	0.780081	1.005679	0.301645
C88	C	0.780080	1.005678	0.403978
C89	C	1.014043	0.704297	0.000158
C90	C	1.093446	0.602009	0.000169
C91	C	0.780075	0.704167	0.301642
C92	C	0.780072	0.601835	0.403974
C93	C	1.014041	0.704292	0.301677
C94	C	1.093444	0.602002	0.404021
C95	C	0.546125	1.307076	-0.301426
C96	C	0.466722	1.409366	-0.403770
C97	C	0.546123	1.307071	0.000094
C98	C	0.466720	1.409359	0.000083
C99	C	0.780091	1.307201	-0.301391
C100	C	0.780094	1.409533	-0.403723
C101	C	1.085049	0.553950	-0.058721
C102	C	1.159650	0.457853	-0.058733
C103	C	1.242648	0.409810	0.000151
C104	C	1.251043	0.457879	0.059043
C105	C	1.176443	0.553981	0.059048
C106	C	1.176427	0.553992	0.393212
C107	C	1.251042	0.457893	0.489366
C108	C	1.242671	0.409800	0.596328
C109	C	1.159679	0.457821	0.607135
C110	C	1.085066	0.553924	0.510982
C111	C	0.383739	1.457389	-0.392961
C112	C	0.309124	1.553517	-0.489115
C113	C	0.317495	1.601615	-0.596076
C114	C	0.400487	1.553588	-0.606883
C115	C	0.475100	1.457468	-0.510731
C116	C	0.475117	1.457428	0.058962
C117	C	0.400516	1.553552	0.058948
C118	C	0.317518	1.601598	0.000060
C119	C	0.309123	1.553525	-0.058827
C120	C	0.383723	1.457410	-0.058818
C121	C	0.871456	0.601854	0.521764
C122	C	0.917146	0.553785	0.628731
C123	C	0.917139	0.457637	0.724877
C124	C	0.871435	0.409558	0.714051
C125	C	0.825745	0.457626	0.607084
C126	C	0.825758	0.553774	0.510943
C127	C	0.734357	0.457614	0.489296
C128	C	0.734368	0.553756	0.393149
C129	C	0.688653	0.409535	0.478470
C130	C	0.642967	0.457596	0.371502
C131	C	0.642976	0.553749	0.275353
C132	C	0.688678	0.601824	0.286182
H133	H	0.533629	0.735909	-0.317497
H134	H	0.459879	1.005507	0.151158
N135	N	0.516542	0.945066	-0.339509
H136	H	0.482594	0.988646	-0.303181
H137	H	0.475671	0.952634	-0.392233
H138	H	0.605767	0.592884	0.188259
H139	H	1.017501	0.593002	0.519799
N140	N	0.219621	1.605278	-0.477439
H141	H	0.173618	1.673471	-0.554576
H142	H	0.212717	1.645070	-0.434901
N143	N	0.650865	1.005594	-0.300014
H144	H	0.645159	1.085674	-0.316897
H145	H	0.707312	0.925496	-0.236859
H146	H	1.183292	0.593098	0.107009
N147	N	0.909287	1.005769	-0.699734
H148	H	0.914990	0.925688	-0.682845
H149	H	0.960019	1.005850	-0.722847
N150	N	0.909301	0.539104	0.166649
H151	H	0.965733	0.529615	0.159294
H152	H	0.903570	0.529519	0.239388
N153	N	0.237016	1.705286	-0.699779
H154	H	0.183179	1.728400	-0.676691
H155	H	0.237051	1.671756	-0.746018
H156	H	0.688693	0.680108	0.207903
N157	N	1.150589	0.406001	-0.122237
H158	H	1.179494	0.422760	-0.181499
H159	H	1.086675	0.451032	-0.159454
H160	H	1.017475	0.593066	-0.106685
N161	N	0.357493	1.005634	-0.256257
H162	H	0.375510	0.925588	-0.252621
H163	H	0.410425	1.005630	-0.243574
N164	N	0.966441	0.605643	0.640397
H165	H	1.030351	0.532308	0.682880
H166	H	0.942415	0.645535	0.682841
N167	N	0.966415	0.405779	0.840257
H168	H	0.942460	0.479111	0.849278
H169	H	1.030318	0.365891	0.849210
N170	N	0.650875	0.472257	-0.166400
H171	H	0.707313	0.416446	-0.173744
H172	H	0.600104	0.514539	-0.231787
H173	H	1.303385	0.331557	0.000139
H174	H	0.688646	0.331251	0.556761
N175	N	0.871416	0.305869	0.817748
H176	H	0.907291	0.282718	0.887153
H177	H	0.897388	0.226171	0.817690
N178	N	1.043590	1.005893	-0.399971
H179	H	1.084516	1.005922	-0.445020
H180	H	1.077482	0.925832	-0.320030
N181	N	0.219601	1.605337	-0.122322
H182	H	0.212612	1.531972	-0.091426
H183	H	0.212650	1.645249	-0.204680
N184	N	1.340564	0.406056	0.122550
H185	H	1.386542	0.337881	0.113607
H186	H	1.347481	0.366223	0.204893
H187	H	0.459673	1.005529	-0.151000
N188	N	0.202316	1.005802	-0.256229
H189	H	0.149369	1.005855	-0.243580
H190	H	0.246364	0.925737	-0.252570
H191	H	1.183259	0.593134	0.306127
H192	H	1.318610	0.418804	0.480547
H193	H	1.303433	0.331547	0.674612
H194	H	0.909328	0.164781	0.166670
H195	H	0.605753	0.418448	0.362700
H196	H	0.407368	1.592677	0.106905
N197	N	0.409508	1.605470	-0.722252
H198	H	0.349645	1.673642	-0.781515
H199	H	0.442488	1.532063	-0.731164
N200	N	1.150658	0.405943	0.722503
H201	H	1.210521	0.337773	0.781766
H202	H	1.117674	0.366090	0.731412
H203	H	0.650832	0.846593	-0.166425
H204	H	0.542666	1.418369	-0.519545
H205	H	0.376907	1.418233	-0.305876
N206	N	0.374660	1.405568	-0.122327
H207	H	0.310759	1.450595	-0.159627
H208	H	0.403613	1.309066	-0.068263
H209	H	1.026553	0.101004	0.317745
H210	H	0.542691	1.418316	0.106923
N211	N	0.909297	1.005800	-0.300041
H212	H	0.960028	1.005844	-0.276887
H213	H	0.914974	0.925718	-0.236899
N214	N	1.043629	0.266169	0.339749
H215	H	1.084564	0.168397	0.392499
H216	H	1.015380	0.302408	0.383424
H217	H	0.256781	1.679862	0.000062
H218	H	0.100283	1.005858	-0.150906
N219	N	1.043581	1.005884	-0.599833
H220	H	1.077530	0.925825	-0.599683
H221	H	1.084454	1.005965	-0.554763
H222	H	0.871473	0.680133	0.443483
H223	H	0.100495	1.005833	0.151239
H224	H	0.212529	1.005723	0.234486
H225	H	0.650865	1.005571	-0.674298
N226	N	0.357850	1.005575	0.256480
H227	H	0.322915	1.005597	0.309242
H228	H	0.357795	1.085608	0.220066
H229	H	0.533650	1.005492	-0.587078
H230	H	0.533649	1.005498	-0.412637
