data_functionalizedCrystal
_audit_creation_method	'MofGen! by Chris Wilmer'
_symmetry_space_group_name_H-M	'P1'
_symmetry_Int_Tables_number	1
_symmetry_cell_setting	triclinic
loop_
_symmetry_equiv_pos_as_xyz
  x,y,z
_cell_length_a	10.540510
_cell_length_b	15.995292
_cell_length_c	9.616153
_cell_angle_alpha	90.002573
_cell_angle_beta	90.003057
_cell_angle_gamma	83.990964
loop_
_atom_site_label
_atom_site_type_symbol
_atom_site_fract_x
_atom_site_fract_y
_atom_site_fract_z
O1	O	1.684248	0.117884	0.115643
O2	O	1.314674	0.129028	0.115643
O3	O	1.509602	0.001625	0.115646
O4	O	1.489320	0.245287	0.115641
O5	O	1.509592	0.001618	-0.115646
O6	O	1.314664	0.129021	-0.115648
O7	O	1.684238	0.117877	-0.115648
Zn8	Zn	1.499449	0.123447	-0.152371
Zn9	Zn	1.499463	0.123457	0.152366
O10	O	1.489310	0.245280	-0.115650
C11	C	1.267377	0.128194	-0.000002
C12	C	1.126462	0.125709	-0.000002
C13	C	1.508772	-0.029579	0.000003
C14	C	1.506297	-0.122547	0.000014
C15	C	0.907762	0.214215	0.000528
C16	C	1.054320	0.216866	-0.000002
C17	C	1.082352	0.079042	-0.132077
C18	C	0.935620	0.077037	-0.132179
C19	C	0.935852	0.075147	0.130843
C20	C	1.082132	0.079470	0.132580
C21	C	1.497199	-0.460339	0.000001
C22	C	1.637893	-0.436196	-0.000516
C23	C	1.640567	-0.339504	0.000011
C24	C	1.501713	-0.292757	0.000007
C25	C	1.431379	-0.322269	0.132081
C26	C	1.429685	-0.419070	0.132187
C27	C	1.426801	-0.418952	-0.130835
C28	C	1.432014	-0.322429	-0.132576
C29	C	1.504257	-0.198045	0.000014
C30	C	1.494651	-0.555050	0.000003
C31	C	1.731535	0.118711	0.000001
C32	C	1.872450	0.121195	0.000009
C33	C	1.490141	0.276484	-0.000005
C34	C	1.492615	0.369451	-0.000006
N35	N	1.499450	0.123441	-0.360345
C36	C	1.603781	0.055297	-0.419342
C37	C	1.604164	0.055486	-0.580510
C38	C	1.527819	0.211099	-0.581126
C39	C	1.528555	0.210691	-0.419908
C40	C	1.366461	0.104730	-0.419779
C41	C	1.367367	0.102760	-0.581007
N42	N	1.499473	0.123457	0.360340
H43	H	0.865313	0.249732	0.095247
O44	O	1.148369	-0.008685	0.143141
H45	H	1.203383	-0.015323	0.241653
O46	O	1.431706	0.279959	-0.368190
H47	H	1.384559	0.313604	-0.458333
H48	H	1.326527	-0.434230	0.138168
H49	H	1.692119	-0.463875	-0.095232
H50	H	1.471104	-0.446782	-0.230947
H51	H	1.478404	-0.445595	0.230918
H52	H	1.329201	-0.291005	0.136988
O53	O	1.581940	-0.030771	-0.632912
H54	H	1.494046	-0.026102	-0.697240
O55	O	1.581914	-0.031246	-0.368015
H56	H	1.566691	-0.072322	-0.458228
O57	O	1.657006	0.232290	-0.370067
H58	H	1.718015	0.242924	-0.461113
H59	H	1.695985	-0.320769	0.094852
H60	H	1.083157	0.253374	0.094678
O61	O	1.499831	-0.297434	-0.262013
H62	H	1.582830	-0.264013	-0.232059
O63	O	0.881721	0.119273	-0.262946
H64	H	0.904979	0.185352	-0.265261
H65	H	1.330665	-0.290058	-0.140555
H66	H	1.480229	-0.301917	0.230373
O67	O	1.713532	-0.313862	-0.125388
H68	H	1.796725	-0.282127	-0.090553
H69	H	1.323239	-0.433554	-0.131728
H70	H	1.082204	0.253590	-0.094839
H71	H	1.339075	0.042123	-0.379131
H72	H	1.701923	0.067193	-0.378801
H73	H	1.702869	0.067561	-0.619068
O74	O	1.429833	0.279964	-0.631881
H75	H	1.359725	0.252388	-0.699530
H76	H	1.623683	0.227790	-0.621493
H77	H	1.345843	0.038281	-0.619265
O78	O	0.849485	0.260992	-0.124226
H79	H	0.926317	0.283376	-0.188930
H80	H	1.286137	0.149095	-0.621266
H81	H	0.913583	0.008857	-0.138177
O82	O	1.263615	0.170529	-0.369238
H83	H	1.306924	0.216342	-0.302114
O84	O	1.709345	-0.474195	0.124244
H85	H	1.645086	-0.510200	0.186622
H86	H	1.130686	0.011934	-0.136988
H87	H	1.112747	0.111445	-0.230368
H88	H	0.892904	0.103896	0.230949
H89	H	0.914660	0.006706	0.131737
O90	O	1.119391	0.124446	0.262017
H91	H	1.169284	0.179499	0.232064
