data_functionalizedCrystal
_audit_creation_method	'MofGen! by Chris Wilmer'
_symmetry_space_group_name_H-M	'P1'
_symmetry_Int_Tables_number	1
_symmetry_cell_setting	triclinic
loop_
_symmetry_equiv_pos_as_xyz
  x,y,z
_cell_length_a	15.538191
_cell_length_b	10.723024
_cell_length_c	14.749905
_cell_angle_alpha	104.097946
_cell_angle_beta	72.464682
_cell_angle_gamma	114.130018
loop_
_atom_site_label
_atom_site_type_symbol
_atom_site_fract_x
_atom_site_fract_y
_atom_site_fract_z
O1	O	1.265652	0.388217	-0.079853
O2	O	0.992321	0.244557	-0.079851
O3	O	1.135291	0.500891	-0.079849
O4	O	1.122683	0.131883	-0.079856
O5	O	1.098582	0.532639	0.079825
O6	O	0.955613	0.276305	0.079823
O7	O	1.228944	0.419965	0.079821
Zn8	Zn	1.086450	0.353176	0.105174
Zn9	Zn	1.134815	0.311346	-0.105204
O10	O	1.085974	0.163631	0.079818
C11	C	0.938969	0.245400	-0.000014
C12	C	0.834684	0.200629	-0.000013
N13	N	1.167824	0.282808	-0.248781
C14	C	1.116019	0.562838	-0.000013
C15	C	1.113275	0.700117	-0.000016
C16	C	0.544021	0.645420	-0.000019
C17	C	0.446027	0.603319	-0.000021
C18	C	0.425116	0.366510	-0.000025
C19	C	0.523108	0.408592	-0.000019
C20	C	0.582554	0.548049	-0.000017
C21	C	0.561641	0.311221	-0.000016
C22	C	0.659626	0.353300	-0.000015
C23	C	0.719078	0.492749	-0.000016
C24	C	0.680539	0.590127	-0.000016
C25	C	0.502195	0.171764	-0.000025
C26	C	0.540728	0.074393	-0.000023
C27	C	0.638714	0.116472	-0.000015
C28	C	0.698166	0.255922	-0.000016
C29	C	0.677253	0.019094	-0.000016
C30	C	0.775238	0.061173	-0.000014
C31	C	0.796151	0.298000	-0.000015
C32	C	1.282297	0.419121	-0.000019
C33	C	1.386583	0.463891	-0.000026
C34	C	1.105246	0.101683	-0.000020
C35	C	1.107993	-0.035597	-0.000023
C36	C	1.193274	0.812243	-0.000018
C37	C	1.190439	0.954129	-0.000022
N38	N	1.053449	0.381728	0.248751
C39	C	0.961370	0.461426	0.399534
C40	C	0.984465	0.441424	0.299020
C41	C	1.099360	0.342002	0.298983
C42	C	1.076270	0.361989	0.399499
C43	C	1.007275	0.421703	0.449767
C44	C	1.122176	0.322267	0.449732
C45	C	1.099092	0.342259	0.550239
C46	C	1.030102	0.401974	0.600514
C47	C	0.984191	0.441695	0.550274
C48	C	1.191176	0.262562	0.399463
C49	C	1.237082	0.222840	0.449695
C50	C	1.213992	0.242823	0.550204
C51	C	1.145002	0.302538	0.600479
C52	C	1.259903	0.203102	0.600444
C53	C	1.236819	0.223094	0.700951
C54	C	1.121918	0.322530	0.700986
H55	H	0.844554	0.411561	-0.000008
F56	F	1.048477	0.386070	0.754491
F57	F	0.910750	0.505236	0.603779
H58	H	1.263861	0.803196	-0.000013
H59	H	0.414659	0.682621	-0.000024
F60	F	0.935620	0.483743	0.245562
F61	F	0.361841	0.218094	-0.000033
F62	F	0.477454	-0.074024	-0.000031
F63	F	1.005538	0.423262	0.707484
H64	H	1.258923	1.050360	-0.000019
H65	H	1.274200	0.190747	0.741852
H66	H	0.905178	0.510035	0.440465
H67	H	0.628841	-0.094453	-0.000027
H68	H	0.728942	0.703688	-0.000009
F69	F	0.823366	0.537533	-0.000021
F70	F	1.172790	0.278457	0.245475
H71	H	1.209970	0.246288	0.317623
H72	H	1.293261	0.174225	0.408754
F73	F	1.018468	0.838633	-0.000013
F74	F	1.333339	0.139568	0.546933
F75	F	1.021008	0.711933	-0.000024
H76	H	0.592424	0.758981	-0.000012
F77	F	0.816251	-0.042461	-0.000014
F78	F	0.397910	0.126983	-0.000027
