data_functionalizedCrystal
_audit_creation_method	'MofGen! by Chris Wilmer'
_symmetry_space_group_name_H-M	'P1'
_symmetry_Int_Tables_number	1
_symmetry_cell_setting	triclinic
loop_
_symmetry_equiv_pos_as_xyz
  x,y,z
_cell_length_a	17.077404
_cell_length_b	16.625545
_cell_length_c	17.077396
_cell_angle_alpha	89.971947
_cell_angle_beta	90.019501
_cell_angle_gamma	89.975738
loop_
_atom_site_label
_atom_site_type_symbol
_atom_site_fract_x
_atom_site_fract_y
_atom_site_fract_z
Zn1	Zn	1.200048	0.320997	0.443845
Zn2	Zn	1.533382	0.654330	0.777178
Zn3	Zn	1.866715	0.987663	1.110512
Zn4	Zn	1.199953	0.455839	0.312580
Zn5	Zn	1.533286	0.789173	0.645913
Zn6	Zn	1.866619	1.122506	0.979247
Zn7	Zn	1.068780	0.321025	0.312593
Zn8	Zn	1.402113	0.654358	0.645926
Zn9	Zn	1.735447	0.987692	0.979260
Zn10	Zn	1.068746	0.455792	0.443804
Zn11	Zn	1.402079	0.789125	0.777137
Zn12	Zn	1.735412	1.122458	1.110470
O13	O	1.134382	0.388413	0.378205
O14	O	1.467715	0.721747	0.711539
O15	O	1.801048	1.055080	1.044872
O16	O	1.309883	0.338892	0.426444
O17	O	1.643216	0.672225	0.759778
O18	O	1.976549	1.005559	1.093111
O19	O	1.182527	0.437988	0.202735
O20	O	1.515860	0.771321	0.536068
O21	O	1.849194	1.104655	0.869401
O22	O	1.086248	0.208189	0.330027
O23	O	1.419581	0.541522	0.663360
O24	O	1.752914	0.874856	0.996693
O25	O	1.309812	0.437960	0.330005
O26	O	1.643146	0.771294	0.663338
O27	O	1.976479	1.104627	0.996671
O28	O	1.182690	0.208168	0.426457
O29	O	1.516023	0.541501	0.759790
O30	O	1.849357	0.874835	1.093124
O31	O	1.086155	0.338940	0.202744
O32	O	1.419488	0.672274	0.536078
O33	O	1.752822	1.005607	0.869411
O34	O	0.958929	0.338894	0.329986
O35	O	1.292262	0.672227	0.663320
O36	O	1.625595	1.005561	0.996653
O37	O	1.086189	0.437879	0.553656
O38	O	1.419522	0.771212	0.886989
O39	O	1.752855	1.104546	1.220323
O40	O	0.958903	0.437906	0.426386
O41	O	1.292237	0.771240	0.759720
O42	O	1.625570	1.104573	1.093053
O43	O	1.182656	0.338846	0.553687
O44	O	1.515990	0.672179	0.887020
O45	O	1.849323	1.005512	1.220353
O46	O	1.182493	0.568666	0.329964
O47	O	1.515827	0.901999	0.663298
O48	O	1.849160	1.235332	0.996631
O49	O	1.086096	0.568630	0.426374
O50	O	1.419429	0.901964	0.759707
O51	O	1.752763	1.235297	1.093040
C52	C	0.930434	0.388399	0.378184
C53	C	1.263767	0.721732	0.711517
C54	C	1.597101	1.055065	1.044850
C55	C	0.843184	0.388412	0.378193
C56	C	1.176517	0.721745	0.711526
C57	C	1.509851	1.055078	1.044860
C58	C	0.802201	0.440045	0.428308
C59	C	1.135535	0.773379	0.761641
C60	C	1.468868	1.106712	1.094975
C61	C	0.720221	0.440047	0.428321
C62	C	1.053554	0.773380	0.761654
C63	C	1.386887	1.106714	1.094987
C64	C	0.679225	0.388419	0.378214
C65	C	1.012558	0.721752	0.711547
C66	C	1.345891	1.055085	1.044880
C67	C	0.720213	0.336780	0.328097
C68	C	1.053547	0.670113	0.661430
C69	C	1.386880	1.003446	0.994763
C70	C	0.802192	0.336774	0.328089
C71	C	1.135526	0.670108	0.661422
C72	C	1.468859	1.003441	0.994755
C73	C	0.549343	0.336795	0.328115
C74	C	0.882677	0.670129	0.661449
C75	C	1.216010	1.003462	0.994782
C76	C	0.467359	0.336801	0.328122
C77	C	0.800692	0.670135	0.661456
C78	C	1.134025	1.003468	0.994789
C79	C	0.467372	0.440068	0.428347
C80	C	0.800705	0.773402	0.761681
C81	C	1.134038	1.106735	1.095014
C82	C	0.549351	0.440063	0.428339
C83	C	0.882684	0.773396	0.761673
C84	C	1.216017	1.106730	1.095006
C85	C	0.590334	0.388425	0.378221
C86	C	0.923667	0.721758	0.711554
C87	C	1.257000	1.055091	1.044888
C88	C	1.134302	0.597904	0.378180
C89	C	1.467635	0.931237	0.711514
C90	C	1.800969	1.264571	1.044847
C91	C	1.134339	0.687525	0.378196
C92	C	1.467673	1.020859	0.711529
C93	C	1.801006	1.354192	1.044862
C94	C	1.134468	1.015701	0.378290
C95	C	1.467801	1.349034	0.711623
C96	C	1.801134	1.682367	1.044956
C97	C	1.134429	0.924392	0.378266
C98	C	1.467763	1.257726	0.711599
C99	C	1.801096	1.591059	1.044932
C100	C	1.134403	0.851616	0.378242
C101	C	1.467736	1.184949	0.711576
C102	C	1.801070	1.518283	1.044909
C103	C	1.134366	0.760302	0.378219
C104	C	1.467699	1.093635	0.711552
C105	C	1.801033	1.426968	1.044886
C106	C	1.339126	0.388428	0.378228
C107	C	1.672459	0.721762	0.711561
C108	C	2.005793	1.055095	1.044894
C109	C	1.426376	0.388435	0.378237
C110	C	1.759709	0.721768	0.711570
C111	C	2.093042	1.055102	1.044904
C112	C	1.134429	0.388354	0.582950
C113	C	1.467763	0.721687	0.916283
C114	C	1.801096	1.055021	1.249616
C115	C	1.134449	0.388329	0.670200
C116	C	1.467783	0.721662	1.003533
C117	C	1.801116	1.054995	1.336866
C118	C	1.134477	1.178104	0.378257
C119	C	1.467810	1.511438	0.711590
C120	C	1.801143	1.844771	1.044924
C121	C	1.134500	1.088483	0.378303
C122	C	1.467833	1.421817	0.711636
C123	C	1.801167	1.755150	1.044969
C124	C	1.134380	0.388414	0.174258
C125	C	1.467713	0.721748	0.507591
C126	C	1.801046	1.055081	0.840924
C127	C	1.134511	0.388212	0.087008
C128	C	1.467845	0.721546	0.420342
C129	C	1.801178	1.054879	0.753675
C130	C	1.184682	0.336758	0.711207
C131	C	1.518015	0.670091	1.044540
C132	C	1.851349	1.003424	1.377874
C133	C	1.184691	0.336731	0.793187
C134	C	1.518025	0.670064	1.126521
C135	C	1.851358	1.003397	1.459854
C136	C	1.134472	0.388280	0.834159
C137	C	1.467805	0.721613	1.167492
C138	C	1.801138	1.054946	1.500826
C139	C	1.084234	0.439853	0.793146
C140	C	1.417567	0.773186	1.126479
C141	C	1.750900	1.106519	1.459813
C142	C	1.084221	0.439875	0.711167
C143	C	1.417554	0.773208	1.044500
C144	C	1.750888	1.106541	1.377834
C145	C	1.084265	0.439804	0.964016
C146	C	1.417599	0.773138	1.297350
C147	C	1.750932	1.106471	1.630683
C148	C	1.084279	0.439783	1.046001
C149	C	1.417612	0.773117	1.379334
C150	C	1.750946	1.106450	1.712668
C151	C	1.184736	0.336660	1.046037
C152	C	1.518069	0.669993	1.379370
C153	C	1.851403	1.003327	1.712703
C154	C	1.184723	0.336682	0.964058
C155	C	1.518056	0.670016	1.297391
C156	C	1.851390	1.003349	1.630724
C157	C	1.134486	0.388257	0.923050
C158	C	1.467819	0.721590	1.256384
C159	C	1.801152	1.054923	1.589717
H160	H	1.225579	0.294783	0.677854
H161	H	1.558913	0.628116	1.011187
H162	H	1.892246	0.961450	1.344520
O163	O	1.030074	0.495424	0.919785
O164	O	1.363408	0.828757	1.253119
O165	O	1.696741	1.162091	1.586452
H166	H	1.043510	0.558705	0.935501
H167	H	1.376843	0.892038	1.268835
H168	H	1.710176	1.225371	1.602168
O169	O	1.030066	0.495451	0.837335
O170	O	1.363399	0.828784	1.170669
O171	O	1.696733	1.162118	1.504002
H172	H	0.968463	0.481613	0.821597
H173	H	1.301797	0.814946	1.154930
H174	H	1.635130	1.148280	1.488263
O175	O	0.593546	0.281107	0.274051
O176	O	0.926879	0.614440	0.607384
O177	O	1.260212	0.947774	0.940717
H178	H	0.577836	0.217842	0.287612
H179	H	0.911170	0.551175	0.620946
H180	H	1.244503	0.884508	0.954279
H181	H	0.433982	0.294752	0.287330
H182	H	0.767315	0.628085	0.620663
H183	H	1.100648	0.961418	0.953997
H184	H	0.686828	0.294739	0.287302
H185	H	1.020161	0.628073	0.620635
H186	H	1.353494	0.961406	0.953969
H187	H	0.835574	0.482090	0.469108
H188	H	1.168908	0.815423	0.802442
H189	H	1.502241	1.148757	1.135775
O190	O	0.846402	0.281094	0.274028
O191	O	1.179735	0.614427	0.607361
O192	O	1.513068	0.947761	0.940694
H193	H	0.804124	0.245202	0.239178
H194	H	1.137457	0.578535	0.572511
H195	H	1.470790	0.911868	0.905845
H196	H	1.225598	0.294739	0.826572
H197	H	1.558931	0.628072	1.159905
H198	H	1.892264	0.961405	1.493239
H199	H	1.225621	0.294711	0.930701
H200	H	1.558954	0.628045	1.264034
H201	H	1.892287	0.961378	1.597367
H202	H	1.225640	0.294665	1.079429
H203	H	1.558973	0.627998	1.412762
H204	H	1.892306	0.961332	1.746095
H205	H	1.043384	0.481757	1.079358
H206	H	1.376717	0.815090	1.412691
H207	H	1.710051	1.148424	1.746025
O208	O	1.030032	0.495486	0.666931
O209	O	1.363365	0.828820	1.000265
O210	O	1.696698	1.162153	1.333598
H211	H	0.995113	0.531329	0.709193
H212	H	1.328446	0.864662	1.042526
H213	H	1.661780	1.197995	1.375859
O214	O	0.593567	0.495744	0.482387
O215	O	0.926901	0.829078	0.815721
O216	O	1.260234	1.162411	1.149054
H217	H	0.630884	0.536722	0.447181
H218	H	0.964218	0.870056	0.780514
H219	H	1.297551	1.203389	1.113848
H220	H	0.433999	0.482112	0.469158
H221	H	0.767333	0.815445	0.802491
H222	H	1.100666	1.148778	1.135825
O223	O	0.676015	0.495891	0.482222
O224	O	1.009348	0.829224	0.815555
O225	O	1.342681	1.162558	1.148888
H226	H	0.718294	0.531853	0.517000
H227	H	1.051628	0.865187	0.850334
H228	H	1.384961	1.198520	1.183667
