data_functionalizedCrystal
_audit_creation_method	'MofGen! by Chris Wilmer'
_symmetry_space_group_name_H-M	'P1'
_symmetry_Int_Tables_number	1
_symmetry_cell_setting	triclinic
loop_
_symmetry_equiv_pos_as_xyz
  x,y,z
_cell_length_a	15.944551
_cell_length_b	14.853567
_cell_length_c	13.330367
_cell_angle_alpha	90.000844
_cell_angle_beta	90.003063
_cell_angle_gamma	83.566834
loop_
_atom_site_label
_atom_site_type_symbol
_atom_site_fract_x
_atom_site_fract_y
_atom_site_fract_z
O1	O	-1.114658	-0.116273	-0.083310
O2	O	-0.870124	-0.130608	-0.083334
O3	O	-0.998923	0.007798	-0.083325
O4	O	-0.985859	-0.254678	-0.083320
O5	O	-0.998904	0.007801	0.083522
O6	O	-0.870105	-0.130605	0.083513
O7	O	-1.114639	-0.116270	0.083537
Cu8	Cu	-0.992370	-0.123437	0.098759
Cu9	Cu	-0.992392	-0.123441	-0.098557
O10	O	-0.985840	-0.254675	0.083527
C11	C	-0.838820	-0.130011	0.000086
C12	C	-0.745572	-0.128227	0.000077
C13	C	-0.998321	0.041387	0.000096
C14	C	-0.996547	0.141469	0.000087
C15	C	-1.145943	-0.116866	0.000114
C16	C	-1.239191	-0.118650	0.000117
C17	C	-0.530615	-0.038172	0.000094
C18	C	-0.469651	-0.079992	-0.082169
C19	C	-0.574842	-0.124999	0.000088
C20	C	-0.469654	-0.080010	0.082329
C21	C	-0.409926	-0.121875	0.000104
C22	C	-0.515106	-0.166843	-0.082243
C23	C	-0.515116	-0.166849	0.082329
C24	C	-0.454170	-0.208732	0.000045
C25	C	-0.669847	-0.126797	0.000078
C26	C	-0.314923	-0.120085	0.000107
C27	C	-0.986441	-0.288265	0.000104
C28	C	-0.988215	-0.388346	0.000107
N29	N	-0.992361	-0.123434	0.237541
C30	C	-0.912540	0.553895	0.000098
C31	C	-1.065556	0.575372	0.000113
C32	C	-1.067224	0.481341	0.000107
C33	C	-0.991549	0.423582	0.000098
C34	C	-0.914206	0.459854	0.000095
C35	C	-1.144565	0.445061	0.000120
C36	C	-1.146236	0.351024	0.000116
C37	C	-1.070560	0.293263	0.000100
C38	C	-0.993214	0.329541	0.000096
C39	C	-0.917539	0.271782	0.000087
C40	C	-0.840192	0.308058	0.000075
C41	C	-0.838530	0.402093	0.000079
C42	C	-1.072223	0.199228	0.000096
C43	C	-0.919205	0.177741	0.000084
N44	N	-0.992408	-0.123437	-0.237338
C45	C	-0.935358	-0.184703	0.710159
C46	C	-1.049450	-0.062172	0.710136
C47	C	-1.049440	-0.062169	0.605118
C48	C	-0.992389	-0.123435	0.552615
C49	C	-0.935348	-0.184704	0.605131
C50	C	-1.106486	-0.000907	0.552594
C51	C	-1.106479	-0.000903	0.447569
C52	C	-1.049424	-0.062165	0.395065
C53	C	-0.992380	-0.123436	0.447587
C54	C	-0.935329	-0.184702	0.395085
C55	C	-0.878280	-0.245969	0.447606
C56	C	-0.878293	-0.245966	0.552627
C57	C	-1.049411	-0.062168	0.290043
C58	C	-0.935320	-0.184703	0.290057
H59	H	-0.449507	-0.043269	-0.151719
H60	H	-0.449519	-0.043268	0.151874
H61	H	-0.775558	0.431638	0.000071
H62	H	-1.095863	-0.012289	0.247286
N63	N	-1.155636	0.160100	0.000120
H64	H	-1.188809	0.181160	-0.061721
H65	H	-1.145136	0.091772	0.000155
N66	N	-0.410344	-0.304275	-0.000017
H67	H	-0.347202	-0.302553	0.000573
H68	H	-0.427672	-0.337287	0.061518
N69	N	-0.873831	-0.250787	0.766793
H70	H	-0.814208	-0.240361	0.748522
H71	H	-0.882560	-0.241461	0.841274
N72	N	-1.226175	0.507364	0.000142
H73	H	-1.228902	0.546858	-0.061707
H74	H	-1.275383	0.470060	0.000192
H75	H	-0.535143	-0.203541	-0.151866
N76	N	-1.110970	0.003913	0.766761
H77	H	-1.147101	0.042728	0.717554
H78	H	-1.148148	-0.030622	0.810329
N79	N	-1.168011	0.065160	0.609235
H80	H	-1.135865	0.105096	0.652810
H81	H	-1.204140	0.103915	0.559979
N82	N	-0.541844	-0.215446	0.174456
H83	H	-0.570124	-0.270009	0.153499
H84	H	-0.490562	-0.235739	0.216616
N85	N	-0.837582	0.115446	0.000066
H86	H	-0.788335	0.152698	0.000058
H87	H	-0.834930	0.075962	0.061918
N88	N	-0.574640	0.057286	-0.000017
H89	H	-0.610712	0.067244	0.062135
H90	H	-0.531132	0.101742	-0.000739
H91	H	-0.888859	-0.234590	0.247316
H92	H	-0.778578	0.261018	0.000075
H93	H	-0.849566	0.583435	0.000085
N94	N	-1.147167	0.637673	0.000122
H95	H	-1.180912	0.626010	-0.061728
H96	H	-1.180835	0.625975	0.062014
N97	N	-0.816779	-0.312046	0.609284
H98	H	-0.826524	-0.376038	0.591002
H99	H	-0.757177	-0.301550	0.591008
N100	N	-1.229655	0.311900	0.000128
H101	H	-1.277340	0.362760	0.000136
H102	H	-1.233686	0.273356	-0.061727
H103	H	-0.831833	-0.295856	0.404846
N104	N	-1.168005	0.065175	0.390925
H105	H	-1.204147	0.103985	0.440123
H106	H	-1.135799	0.105055	0.347362
