data_functionalizedCrystal
_audit_creation_method	'MofGen! by Chris Wilmer'
_symmetry_space_group_name_H-M	'P1'
_symmetry_Int_Tables_number	1
_symmetry_cell_setting	triclinic
loop_
_symmetry_equiv_pos_as_xyz
  x,y,z
_cell_length_a	25.639239
_cell_length_b	25.639242
_cell_length_c	25.639233
_cell_angle_alpha	89.977834
_cell_angle_beta	90.018747
_cell_angle_gamma	89.965787
loop_
_atom_site_label
_atom_site_type_symbol
_atom_site_fract_x
_atom_site_fract_y
_atom_site_fract_z
Zn1	Zn	-0.208277	-0.799225	0.295742
Zn2	Zn	0.291723	-0.299225	0.795742
Zn3	Zn	-0.295696	-0.799149	0.208307
Zn4	Zn	0.204304	-0.299149	0.708307
Zn5	Zn	-0.208269	-0.711801	0.208306
Zn6	Zn	0.291731	-0.211801	0.708306
Zn7	Zn	-0.295676	-0.711746	0.295696
Zn8	Zn	0.204324	-0.211746	0.795696
O9	O	-0.251979	-0.755480	0.252013
O10	O	0.248021	-0.255480	0.752013
O11	O	-0.219884	-0.872380	0.284163
O12	O	0.280116	-0.372380	0.784163
O13	O	-0.284103	-0.787553	0.135141
O14	O	0.215897	-0.287553	0.635141
O15	O	-0.135105	-0.723453	0.219924
O16	O	0.364895	-0.223453	0.719924
O17	O	-0.284111	-0.872324	0.219924
O18	O	0.215889	-0.372324	0.719924
O19	O	-0.135111	-0.787683	0.284163
O20	O	0.364889	-0.287683	0.784163
O21	O	-0.219871	-0.723379	0.135141
O22	O	0.280129	-0.223379	0.635141
O23	O	-0.219853	-0.638629	0.219880
O24	O	0.280147	-0.138629	0.719880
O25	O	-0.284078	-0.723360	0.368868
O26	O	0.215922	-0.223360	0.868868
O27	O	-0.284070	-0.638589	0.284085
O28	O	0.215930	-0.138589	0.784085
O29	O	-0.219866	-0.787630	0.368901
O30	O	0.280134	-0.287630	0.868901
O31	O	-0.368858	-0.787499	0.219880
O32	O	0.131142	-0.287499	0.719880
O33	O	-0.368844	-0.723286	0.284085
O34	O	0.131156	-0.223286	0.784085
C35	C	-0.387822	-0.755392	0.251989
C36	C	0.112178	-0.255392	0.751989
C37	C	-0.445936	-0.755403	0.251996
C38	C	0.054064	-0.255403	0.751996
C39	C	-0.251959	-0.619638	0.251977
C40	C	0.248041	-0.119638	0.751977
C41	C	-0.251963	-0.561524	0.251975
C42	C	0.248037	-0.061524	0.751975
C43	C	-0.251970	-0.755497	0.388386
C44	C	0.248030	-0.255497	0.888386
C45	C	-0.251966	-0.755504	0.446500
C46	C	0.248034	-0.255504	0.946500
C47	C	-0.806294	-0.789004	0.218638
C48	C	-0.306294	-0.289004	0.718638
C49	C	-0.860898	-0.789024	0.218645
C50	C	-0.360898	-0.289024	0.718645
O51	O	-0.889131	-0.817502	0.190257
O52	O	-0.389131	-0.317502	0.690257
N53	N	-0.888218	-0.755572	0.252048
N54	N	-0.388218	-0.255572	0.752048
C55	C	-0.860932	-0.722102	0.285449
C56	C	-0.360932	-0.222102	0.785449
O57	O	-0.889184	-0.693651	0.313861
O58	O	-0.389184	-0.193651	0.813861
C59	C	-0.806328	-0.722085	0.285444
C60	C	-0.306328	-0.222085	0.785444
C61	C	-0.779011	-0.755535	0.252036
C62	C	-0.279011	-0.255535	0.752036
C63	C	-0.778976	-0.822452	0.185233
C64	C	-0.278976	-0.322452	0.685233
C65	C	-0.724376	-0.822431	0.185226
C66	C	-0.224376	-0.322431	0.685226
C67	C	-0.697093	-0.788962	0.218623
C68	C	-0.197093	-0.288962	0.718623
C69	C	-0.724410	-0.755514	0.252028
C70	C	-0.224410	-0.255514	0.752028
C71	C	-0.779042	-0.688617	0.318847
C72	C	-0.279042	-0.188617	0.818847
C73	C	-0.724435	-0.688603	0.318840
C74	C	-0.224435	-0.188603	0.818840
C75	C	-0.697118	-0.722053	0.285432
C76	C	-0.197118	-0.222053	0.785432
C77	C	-0.642527	-0.722024	0.285418
C78	C	-0.142527	-0.222024	0.785418
N79	N	-0.615206	-0.755475	0.252016
N80	N	-0.115206	-0.255475	0.752016
C81	C	-0.642490	-0.788944	0.218618
C82	C	-0.142490	-0.288944	0.718618
C83	C	-0.975602	-0.722141	0.285457
C84	C	-0.475602	-0.222141	0.785457
C85	C	-1.030204	-0.722155	0.285459
C86	C	-0.530204	-0.222155	0.785459
C87	C	-1.030167	-0.789078	0.218656
C88	C	-0.530167	-0.289078	0.718656
C89	C	-0.975564	-0.789061	0.218652
C90	C	-0.475564	-0.289061	0.718652
C91	C	-0.948282	-0.755593	0.252055
C92	C	-0.448282	-0.255593	0.752055
C93	C	-0.527824	-0.788897	0.218605
C94	C	-0.027824	-0.288897	0.718605
C95	C	-0.473219	-0.788872	0.218599
C96	C	0.026781	-0.288872	0.718599
C97	C	-0.473261	-0.721951	0.285403
C98	C	0.026739	-0.221951	0.785403
C99	C	-0.527862	-0.721974	0.285408
C100	C	-0.027862	-0.221974	0.785408
C101	C	-0.555142	-0.755452	0.252007
C102	C	-0.055142	-0.255452	0.752007
O103	O	-0.614260	-0.693562	0.313793
O104	O	-0.114260	-0.193562	0.813793
O105	O	-0.614231	-0.817396	0.190216
O106	O	-0.114231	-0.317396	0.690216
C107	C	-0.115606	-0.755583	0.252048
C108	C	0.384394	-0.255583	0.752048
C109	C	-0.057492	-0.755627	0.252064
C110	C	0.442508	-0.255627	0.752064
C111	C	-0.252000	-0.891853	0.252049
C112	C	0.248000	-0.391853	0.752049
C113	C	-0.252009	-0.949967	0.252064
C114	C	0.247991	-0.449967	0.752064
C115	C	-0.285473	-0.201149	0.285413
C116	C	0.214527	0.298851	0.785413
C117	C	-0.285477	-0.146544	0.285421
C118	C	0.214523	0.353456	0.785421
O119	O	-0.313943	-0.118297	0.313821
O120	O	0.186057	0.381703	0.813821
N121	N	-0.251994	-0.119241	0.252047
N122	N	0.248006	0.380759	0.752047
C123	C	-0.218502	-0.146545	0.218666
C124	C	0.281498	0.353455	0.718666
O125	O	-0.190022	-0.118308	0.190280
O126	O	0.309978	0.381692	0.690280
C127	C	-0.218496	-0.201149	0.218661
C128	C	0.281504	0.298851	0.718661
C129	C	-0.251985	-0.228449	0.252034
C130	C	0.248015	0.271551	0.752034
C131	C	-0.318959	-0.228449	0.318783
C132	C	0.181041	0.271551	0.818783
C133	C	-0.318956	-0.283049	0.318774
C134	C	0.181044	0.216951	0.818774
C135	C	-0.285468	-0.310350	0.285395
C136	C	0.214532	0.189650	0.785395
C137	C	-0.251983	-0.283049	0.252024
C138	C	0.248017	0.216951	0.752024
C139	C	-0.185002	-0.228452	0.185283
C140	C	0.314998	0.271548	0.685283
C141	C	-0.185000	-0.283059	0.185281
C142	C	0.315000	0.216941	0.685281
C143	C	-0.218488	-0.310359	0.218654
C144	C	0.281512	0.189641	0.718654
C145	C	-0.218492	-0.364950	0.218636
C146	C	0.281508	0.135050	0.718636
N147	N	-0.251974	-0.392253	0.252010
N148	N	0.248026	0.107747	0.752010
C149	C	-0.285463	-0.364953	0.285389
C150	C	0.214537	0.135047	0.785389
C151	C	-0.218515	-0.031875	0.218680
C152	C	0.281485	0.468125	0.718680
C153	C	-0.218523	0.022728	0.218683
C154	C	0.281477	0.522728	0.718683
C155	C	-0.285497	0.022725	0.285438
C156	C	0.214503	0.522725	0.785438
C157	C	-0.285492	-0.031878	0.285433
C158	C	0.214508	0.468122	0.785433
C159	C	-0.251998	-0.059178	0.252054
C160	C	0.248002	0.440822	0.752054
C161	C	-0.285455	-0.479618	0.285368
C162	C	0.214545	0.020382	0.785368
C163	C	-0.285451	-0.534223	0.285354
C164	C	0.214549	-0.034223	0.785354
C165	C	-0.218475	-0.534216	0.218601
C166	C	0.281525	-0.034216	0.718601
C167	C	-0.218481	-0.479615	0.218612
C168	C	0.281519	0.020385	0.718612
C169	C	-0.251972	-0.452318	0.252000
C170	C	0.248028	0.047682	0.752000
O171	O	-0.190038	-0.393232	0.190252
O172	O	0.309962	0.106768	0.690252
O173	O	-0.313933	-0.393197	0.313776
O174	O	0.186067	0.106803	0.813776
C175	C	-0.251951	-0.755494	0.116170
C176	C	0.248049	-0.255494	0.616170
C177	C	-0.251807	-0.755588	0.058057
C178	C	0.248193	-0.255588	0.558057
C179	C	-0.218432	-0.789012	0.806886
C180	C	0.281568	-0.289012	1.306886
C181	C	-0.218417	-0.789019	0.861491
C182	C	0.281583	-0.289019	1.361491
O183	O	-0.189967	-0.817466	0.889747
O184	O	0.310033	-0.317466	1.389747
N185	N	-0.251844	-0.755562	0.888783
N186	N	0.248156	-0.255562	1.388783
C187	C	-0.285283	-0.722093	0.861468
C188	C	0.214717	-0.222093	1.361468
O189	O	-0.313713	-0.693636	0.889695
O190	O	0.186287	-0.193636	1.389695
C191	C	-0.285294	-0.722084	0.806864
C192	C	0.214706	-0.222084	1.306864
C193	C	-0.251870	-0.755547	0.779575
C194	C	0.248130	-0.255547	1.279575
C195	C	-0.185009	-0.822472	0.779597
C196	C	0.314991	-0.322472	1.279597
C197	C	-0.185025	-0.822466	0.724997
C198	C	0.314975	-0.322466	1.224997
C199	C	-0.218462	-0.789000	0.697685
C200	C	0.281538	-0.289000	1.197685
C201	C	-0.251885	-0.755541	0.724974
C202	C	0.248115	-0.255541	1.224974
C203	C	-0.318731	-0.688613	0.779550
C204	C	0.181269	-0.188613	1.279550
C205	C	-0.318739	-0.688607	0.724943
C206	C	0.181261	-0.188607	1.224943
C207	C	-0.285314	-0.722069	0.697654
C208	C	0.214686	-0.222069	1.197654
C209	C	-0.285338	-0.722070	0.643063
C210	C	0.214662	-0.222070	1.143063
N211	N	-0.251912	-0.755526	0.615771
N212	N	0.248088	-0.255526	1.115771
C213	C	-0.218474	-0.788992	0.643082
C214	C	0.281526	-0.288992	1.143082
C215	C	-0.285256	-0.722113	0.976138
C216	C	0.214744	-0.222113	1.476138
C217	C	-0.285247	-0.722124	1.030741
C218	C	0.214753	-0.222124	1.530741
C219	C	-0.218381	-0.789049	1.030760
C220	C	0.281619	-0.289049	1.530760
C221	C	-0.218392	-0.789041	0.976157
C222	C	0.281608	-0.289041	1.476157
C223	C	-0.251829	-0.755570	0.948846
C224	C	0.248171	-0.255570	1.448846
C225	C	-0.218509	-0.788977	0.528417
C226	C	0.281491	-0.288977	1.028417
C227	C	-0.218529	-0.788970	0.473811
C228	C	0.281471	-0.288970	0.973811
C229	C	-0.285393	-0.722043	0.473797
C230	C	0.214607	-0.222043	0.973797
C231	C	-0.285375	-0.722052	0.528397
C232	C	0.214625	-0.222052	1.028397
C233	C	-0.251929	-0.755521	0.555706
C234	C	0.248071	-0.255521	1.055706
O235	O	-0.313773	-0.693635	0.614771
O236	O	0.186227	-0.193635	1.114771
O237	O	-0.190044	-0.817439	0.614847
O238	O	0.309956	-0.317439	1.114847
H239	H	-0.550030	-0.816159	0.191408
H240	H	-0.050030	-0.316159	0.691408
O241	O	-0.148879	-0.199018	0.149288
O242	O	0.351121	0.300982	0.649288
H243	H	-0.154503	-0.156461	0.154891
H244	H	0.345497	0.343539	0.654891
O245	O	-0.148943	-0.858568	0.809054
O246	O	0.351057	-0.358568	1.309054
H247	H	-0.157925	-0.899593	0.798581
H248	H	0.342075	-0.399593	1.298581
H249	H	-0.191211	-0.556454	0.191422
H250	H	0.308789	-0.056454	0.691422
H251	H	-0.702137	-0.849670	0.158024
H252	H	-0.202137	-0.349670	0.658024
H253	H	-0.550105	-0.694738	0.312613
H254	H	-0.050105	-0.194738	0.812613
O255	O	-0.321598	-0.450202	0.321375
O256	O	0.178402	0.049798	0.821375
H257	H	-0.298263	-0.425351	0.348043
H258	H	0.201737	0.074649	0.848043
H259	H	-0.191174	-0.816288	0.953941
H260	H	0.308826	-0.316288	1.453941
H261	H	-0.191153	-0.816298	1.053007
H262	H	0.308847	-0.316298	1.553007
O263	O	-0.808399	-0.858550	0.149205
O264	O	-0.308399	-0.358550	0.649205
H265	H	-0.780222	-0.881798	0.125977
H266	H	-0.280222	-0.381798	0.625977
H267	H	-0.312471	-0.694881	1.052955
H268	H	0.187529	-0.194881	1.552955
O269	O	-0.321565	-0.563669	0.321358
O270	O	0.178435	-0.063669	0.821358
H271	H	-0.348135	-0.588518	0.297911
H272	H	0.151865	-0.088518	0.797911
O273	O	-0.355112	-0.199042	0.354785
O274	O	0.144888	0.300958	0.854785
H275	H	-0.331793	-0.174185	0.381461
H276	H	0.168207	0.325815	0.881461
H277	H	-0.157721	-0.305283	0.158103
H278	H	0.342279	0.194717	0.658103
O279	O	-0.355068	-0.312492	0.354776
O280	O	0.144932	0.187508	0.854776
H281	H	-0.378347	-0.284328	0.377990
H282	H	0.121653	0.215672	0.877990
O283	O	-0.946101	-0.825144	0.182625
O284	O	-0.446101	-0.325144	0.682625
H285	H	-0.974251	-0.848421	0.159407
H286	H	-0.474251	-0.348421	0.659407
O287	O	-0.321605	-0.061323	0.321432
O288	O	0.178395	0.438677	0.821432
H289	H	-0.344888	-0.033161	0.344644
H290	H	0.155112	0.466839	0.844644
H291	H	-0.345963	-0.661345	0.702710
H292	H	0.154037	-0.161345	1.202710
O293	O	-0.321674	0.052144	0.321411
O294	O	0.178326	0.552144	0.821411
H295	H	-0.312813	0.041644	0.362472
H296	H	0.187187	0.541644	0.862472
H297	H	-0.191213	-0.457387	0.191436
H298	H	0.308787	0.042613	0.691436
O299	O	-1.059598	-0.825189	0.182642
O300	O	-0.559598	-0.325189	0.682642
H301	H	-1.102156	-0.819585	0.188267
H302	H	-0.602156	-0.319585	0.688267
H303	H	-0.312597	-0.694809	0.550617
H304	H	0.187403	-0.194809	1.050617
O305	O	-1.059667	-0.686074	0.321488
O306	O	-0.559667	-0.186074	0.821488
H307	H	-1.031516	-0.662802	0.344711
H308	H	-0.531516	-0.162802	0.844711
H309	H	-0.312619	-0.694798	0.451550
H310	H	0.187381	-0.194798	0.951550
O311	O	-0.321315	-0.686003	0.946682
O312	O	0.178685	-0.186003	1.446682
H313	H	-0.344552	-0.662741	0.974838
H314	H	0.155448	-0.162741	1.474838
O315	O	-0.443830	-0.685855	0.321427
O316	O	0.056170	-0.185855	0.821427
H317	H	-0.401272	-0.691468	0.315811
H318	H	0.098728	-0.191468	0.815811
H319	H	-0.191272	-0.816229	0.550645
H320	H	0.308728	-0.316229	1.050645
H321	H	-0.191258	0.044951	0.191502
H322	H	0.308742	0.544951	0.691502
H323	H	-0.191241	-0.054099	0.191496
H324	H	0.308759	0.445901	0.691496
O325	O	-0.182476	-0.825062	0.444377
O326	O	0.317524	-0.325062	0.944377
H327	H	-0.159219	-0.848329	0.472545
H328	H	0.340781	-0.348329	0.972545
O329	O	-0.946177	-0.686028	0.321473
O330	O	-0.446177	-0.186028	0.821473
H331	H	-0.974352	-0.662767	0.344692
H332	H	-0.474352	-0.162767	0.844692
H333	H	-0.157806	-0.849714	0.702783
H334	H	0.342194	-0.349714	1.202783
O335	O	-0.354775	-0.652514	0.808976
O336	O	0.145225	-0.152514	1.308976
H337	H	-0.378018	-0.629239	0.780803
H338	H	0.121982	-0.129239	1.280803
H339	H	-0.450979	-0.816111	0.191392
H340	H	0.049021	-0.316111	0.691392
H341	H	-0.702225	-0.661350	0.346042
H342	H	-0.202225	-0.161350	0.846042
O343	O	-0.808499	-0.652542	0.354884
O344	O	-0.308499	-0.152542	0.854884
H345	H	-0.780345	-0.629275	0.378108
H346	H	-0.280345	-0.129275	0.878108
