data_functionalizedCrystal
_audit_creation_method	'MofGen! by Chris Wilmer'
_symmetry_space_group_name_H-M	'P1'
_symmetry_Int_Tables_number	1
_symmetry_cell_setting	triclinic
loop_
_symmetry_equiv_pos_as_xyz
  x,y,z
_cell_length_a	12.784890
_cell_length_b	12.837942
_cell_length_c	16.176319
_cell_angle_alpha	89.994101
_cell_angle_beta	89.993372
_cell_angle_gamma	83.967749
loop_
_atom_site_label
_atom_site_type_symbol
_atom_site_fract_x
_atom_site_fract_y
_atom_site_fract_z
O1	O	1.410974	0.006429	-0.068721
O2	O	1.105974	0.050423	-0.068728
O3	O	1.251711	-0.121867	-0.068720
O4	O	1.265237	0.178719	-0.068730
O5	O	1.251688	-0.121875	0.068773
O6	O	1.105951	0.050415	0.068765
O7	O	1.410950	0.006421	0.068772
Cu8	Cu	1.258448	0.028417	0.081323
Cu9	Cu	1.258476	0.028427	-0.081279
O10	O	1.265214	0.178711	0.068764
C11	C	1.066653	0.053280	0.000018
C12	C	0.949521	0.061794	0.000015
C13	C	0.781351	0.168495	0.000010
C14	C	0.891407	0.160502	0.000011
C15	C	0.897572	-0.028928	0.000017
C16	C	0.787516	-0.020935	0.000016
C17	C	0.729410	0.077780	0.000014
C18	C	0.619353	0.085771	0.000020
C19	C	0.625519	-0.103657	0.000020
C20	C	0.735575	-0.111650	0.000020
C21	C	1.247130	-0.160080	0.000026
C22	C	1.233502	-0.273929	0.000025
C23	C	1.397334	-0.529655	0.000011
C24	C	1.384534	-0.636627	0.000009
C25	C	1.195104	-0.594847	0.000014
C26	C	1.207904	-0.487875	0.000015
C27	C	1.309022	-0.455284	0.000015
C28	C	1.321820	-0.348309	0.000023
C29	C	1.132391	-0.306531	0.000021
C30	C	1.119592	-0.413503	0.000020
C31	C	1.450272	0.003563	0.000025
C32	C	1.567404	-0.004950	0.000022
C33	C	1.269795	0.216924	0.000016
C34	C	1.283422	0.330772	0.000012
N35	N	1.258437	0.028409	0.195688
N36	N	1.258495	0.028426	-0.195644
C37	C	1.322993	-0.047854	0.238956
C38	C	1.322999	-0.047856	0.325503
C39	C	1.258452	0.028411	0.368781
C40	C	1.193888	0.104679	0.325507
C41	C	1.193878	0.104675	0.238961
C42	C	1.193926	0.104695	0.674535
C43	C	1.193943	0.104695	0.761086
C44	C	1.323047	-0.047836	0.761077
C45	C	1.323037	-0.047840	0.674531
C46	C	1.258469	0.028424	0.631265
C47	C	1.258463	0.028423	0.537421
C48	C	1.258463	0.028417	0.462623
H49	H	0.782900	-0.192020	0.000019
N50	N	1.086051	-0.630013	0.000010
H51	H	1.032042	-0.566668	0.000011
H52	H	1.076630	-0.673474	-0.050966
N53	N	0.718681	0.274962	0.000022
H54	H	0.736491	0.314990	-0.050945
H55	H	0.641100	0.266177	0.000055
H56	H	0.572044	0.166150	0.000023
N57	N	1.392619	-0.130110	0.192281
H58	H	1.433514	-0.178423	0.232827
H59	H	1.347696	-0.171914	0.156384
H60	H	0.583217	-0.177525	-0.000042
N61	N	1.506391	-0.494498	0.000023
H62	H	1.501098	-0.415446	0.000029
H63	H	1.545491	-0.522328	0.050999
H64	H	1.404156	-0.321777	0.000026
N65	N	0.947432	0.258344	-0.000001
H66	H	0.893918	0.322087	-0.000004
H67	H	0.992955	0.259155	0.050968
N68	N	1.392667	-0.130079	0.372172
H69	H	1.433574	-0.178379	0.331623
H70	H	1.443200	-0.094875	0.408052
H71	H	0.944901	-0.109296	0.000012
N72	N	1.010531	-0.448652	0.000022
H73	H	1.000998	-0.492095	-0.050947
H74	H	1.001064	-0.492066	0.051024
N75	N	1.479783	-0.716845	0.000003
H76	H	1.545780	-0.679962	0.000003
H77	H	1.478594	-0.762145	0.050973
H78	H	1.060481	-0.245964	0.000031
H79	H	1.375600	-0.109941	0.639297
N80	N	1.392689	-0.130097	0.807742
H81	H	1.382902	-0.118529	0.869136
H82	H	1.373149	-0.201884	0.792623
N83	N	1.124315	0.186952	0.807768
H84	H	1.083405	0.235262	0.767227
H85	H	1.073785	0.151782	0.843688
H86	H	1.141355	0.166793	0.639314
N87	N	1.124260	0.186934	0.372180
H88	H	1.134063	0.175367	0.433572
H89	H	1.143799	0.258720	0.357039
H90	H	1.141308	0.166775	0.203733
