data_functionalizedCrystal
_audit_creation_method	'MofGen! by Chris Wilmer'
_symmetry_space_group_name_H-M	'P1'
_symmetry_Int_Tables_number	1
_symmetry_cell_setting	triclinic
loop_
_symmetry_equiv_pos_as_xyz
  x,y,z
_cell_length_a	18.215407
_cell_length_b	14.908520
_cell_length_c	18.215399
_cell_angle_alpha	93.269364
_cell_angle_beta	89.980167
_cell_angle_gamma	93.321174
loop_
_atom_site_label
_atom_site_type_symbol
_atom_site_fract_x
_atom_site_fract_y
_atom_site_fract_z
Zn1	Zn	1.108178	-0.359158	-0.433017
Zn2	Zn	1.100989	-0.510027	-0.317051
Zn3	Zn	0.985109	-0.359188	-0.309966
Zn4	Zn	0.977982	-0.509977	-0.440073
O5	O	1.043064	-0.434588	-0.375027
O6	O	1.210208	-0.379180	-0.417646
O7	O	1.085592	-0.490052	-0.213128
O8	O	1.007425	-0.232939	-0.320371
O9	O	1.204927	-0.490023	-0.332446
O10	O	1.097843	-0.232917	-0.410776
O11	O	1.000455	-0.379230	-0.207923
O12	O	0.881180	-0.379182	-0.327213
O13	O	0.995278	-0.489937	-0.542120
O14	O	0.875943	-0.489966	-0.422802
O15	O	1.090932	-0.379131	-0.536936
O16	O	1.078681	-0.636266	-0.339288
O17	O	0.988308	-0.636229	-0.429672
C18	C	0.851859	-0.434572	-0.375005
C19	C	0.770059	-0.434587	-0.375014
C20	C	0.579154	-0.492363	-0.424733
C21	C	0.502295	-0.492366	-0.424742
C22	C	0.507726	-0.376828	-0.325338
C23	C	0.584584	-0.376822	-0.325333
C24	C	0.620295	-0.434594	-0.375029
C25	C	0.466579	-0.434604	-0.375044
C26	C	0.383245	-0.434606	-0.375053
C27	C	0.703635	-0.434591	-0.375021
C28	C	1.031961	-0.668981	-0.386030
C29	C	1.027278	-0.769256	-0.390762
C30	C	1.112681	-0.957660	-0.305613
C31	C	1.108284	-1.051877	-0.310057
C32	C	1.014091	-1.051908	-0.404097
C33	C	1.018488	-0.957691	-0.399653
C34	C	1.067784	-0.910570	-0.350409
C35	C	1.072177	-0.816352	-0.345962
C36	C	0.977988	-0.816385	-0.440005
C37	C	0.973591	-0.910602	-0.444449
C38	C	1.235017	-0.434604	-0.375049
C39	C	1.316815	-0.434611	-0.375059
C40	C	1.043112	-0.434526	-0.566977
C41	C	1.043133	-0.434499	-0.648775
C42	C	1.054231	-0.199279	-0.363996
C43	C	1.058990	-0.099004	-0.359296
C44	C	1.092959	-0.376748	-0.834268
C45	C	1.092969	-0.376722	-0.911126
C46	C	0.993364	-0.492110	-0.916513
C47	C	0.993351	-0.492131	-0.839656
C48	C	1.043153	-0.434452	-0.798536
C49	C	1.043176	-0.434404	-0.952250
C50	C	1.043186	-0.434376	-1.035582
C51	C	1.043142	-0.434478	-0.715198
C52	C	1.043062	-0.434585	-0.183820
C53	C	1.043196	-0.434357	-0.102011
H54	H	1.112315	-0.777987	-0.305863
H55	H	0.478640	-0.329793	-0.284876
H56	H	0.618083	-0.329773	-0.284858
C57	C	0.457039	-0.555916	-0.479415
C58	C	0.496324	-0.619459	-0.534078
C59	C	0.451068	-0.683010	-0.588755
C60	C	0.366527	-0.683017	-0.588769
C61	C	0.327238	-0.619472	-0.534104
C62	C	0.372494	-0.555921	-0.479428
H63	H	0.558910	-0.619455	-0.534069
H64	H	0.480153	-0.730050	-0.629221
H65	H	0.333026	-0.730061	-0.629244
H66	H	0.264652	-0.619475	-0.534113
H67	H	0.343409	-0.508880	-0.438961
C68	C	0.938601	-0.555570	-0.961753
C69	C	0.939755	-0.658129	-0.955988
C70	C	0.884997	-0.721596	-1.001230
C71	C	0.829085	-0.682504	-1.052238
C72	C	0.827929	-0.579939	-1.058005
C73	C	0.882687	-0.516472	-1.012763
H74	H	0.981146	-0.687073	-0.918227
H75	H	0.885853	-0.797522	-0.996960
H76	H	0.788550	-0.729486	-1.085729
H77	H	0.786538	-0.550996	-1.095766
H78	H	0.881831	-0.440546	-1.017033
C79	C	1.147734	-0.313296	-0.789035
C80	C	1.203653	-0.352400	-0.738043
C81	C	1.258428	-0.288943	-0.692812
C82	C	1.257284	-0.186382	-0.698574
C83	C	1.201363	-0.147273	-0.749569
C84	C	1.146588	-0.210730	-0.794799
H85	H	1.204502	-0.428327	-0.733775
H86	H	1.299825	-0.317895	-0.655062
H87	H	1.297832	-0.139408	-0.665092
H88	H	1.200514	-0.071346	-0.753836
H89	H	1.105191	-0.181778	-0.832549
H90	H	1.152815	-0.919293	-0.265511
H91	H	1.144846	-1.090213	-0.273581
C92	C	1.147759	-0.313249	-0.950430
C93	C	1.231069	-0.320622	-0.940226
C94	C	1.285861	-0.257144	-0.979530
C95	C	1.257341	-0.186293	-1.029037
C96	C	1.174027	-0.178917	-1.039243
C97	C	1.119235	-0.242395	-0.999940
H98	H	1.252185	-0.373072	-0.903576
H99	H	1.347536	-0.262604	-0.971974
H100	H	1.297901	-0.139302	-1.058132
H101	H	1.152911	-0.126466	-1.075893
H102	H	1.057560	-0.236934	-1.007495
H103	H	0.933457	-0.948981	-0.484544
H104	H	0.973961	-1.090290	-0.444194
C105	C	0.938562	-0.555610	-0.800345
C106	C	0.883788	-0.619063	-0.845573
C107	C	0.828999	-0.682536	-0.806261
C108	C	0.828983	-0.682555	-0.721722
C109	C	0.883759	-0.619099	-0.676489
C110	C	0.938548	-0.555626	-0.715801
H111	H	0.883798	-0.619052	-0.908158
H112	H	0.788450	-0.729510	-0.839745
H113	H	0.788425	-0.729541	-0.692621
H114	H	0.883749	-0.619111	-0.613904
H115	H	0.979097	-0.508652	-0.682317
C116	C	0.928596	-0.764589	-0.489286
C117	C	0.873854	-0.699909	-0.454288
C118	C	0.824460	-0.648114	-0.503566
C119	C	0.829808	-0.661000	-0.587841
C120	C	0.884552	-0.725683	-0.622844
C121	C	0.933946	-0.777477	-0.573566
H122	H	0.869894	-0.690367	-0.391898
H123	H	0.783936	-0.600231	-0.477654
H124	H	0.793244	-0.622658	-0.624320
H125	H	0.888512	-0.735224	-0.685233
H126	H	0.974471	-0.825360	-0.599478
H127	H	0.608228	-0.539403	-0.465200
