data_functionalizedCrystal
_audit_creation_method	'MofGen! by Chris Wilmer'
_symmetry_space_group_name_H-M	'P1'
_symmetry_Int_Tables_number	1
_symmetry_cell_setting	triclinic
loop_
_symmetry_equiv_pos_as_xyz
  x,y,z
_cell_length_a	15.995350
_cell_length_b	17.038272
_cell_length_c	14.472310
_cell_angle_alpha	89.999298
_cell_angle_beta	89.990621
_cell_angle_gamma	87.301966
loop_
_atom_site_label
_atom_site_type_symbol
_atom_site_fract_x
_atom_site_fract_y
_atom_site_fract_z
O1	O	1.118175	0.100774	-0.076763
O2	O	0.875286	0.113219	-0.076782
O3	O	0.995287	-0.006819	-0.076766
O4	O	0.998174	0.220812	-0.076780
O5	O	0.995254	-0.006812	0.076916
O6	O	0.875253	0.113226	0.076900
O7	O	1.118142	0.100781	0.076919
Cu8	Cu	0.996695	0.107004	0.090942
Cu9	Cu	0.996733	0.106996	-0.090805
O10	O	0.998141	0.220819	0.076902
C11	C	0.844038	0.112708	0.000056
C12	C	0.750978	0.111165	0.000049
C13	C	0.412836	0.105626	0.000069
C14	C	0.454180	0.020137	0.000417
C15	C	0.550981	0.021680	0.000064
C16	C	0.580592	0.108374	0.000060
C17	C	0.542527	0.150536	-0.087699
C18	C	0.445739	0.148388	-0.087766
C19	C	0.445488	0.150162	0.086999
C20	C	0.542432	0.150142	0.088152
C21	C	0.675401	0.109931	0.000051
C22	C	0.318027	0.104071	0.000071
C23	C	0.992645	-0.035945	0.000075
C24	C	0.984810	-0.122740	0.000074
C25	C	1.056739	-0.172836	0.000081
C26	C	1.049373	-0.254389	0.000072
C27	C	0.970077	-0.285843	0.000062
C28	C	0.898143	-0.235740	0.000053
C29	C	0.905510	-0.154189	0.000056
C30	C	0.944051	-0.531607	0.000047
C31	C	0.936689	-0.613164	0.000048
C32	C	1.087920	-0.631807	0.000065
C33	C	1.095280	-0.550254	0.000073
C34	C	1.023346	-0.500158	0.000059
C35	C	0.962546	-0.369202	0.000056
C36	C	1.030878	-0.416801	0.000059
C37	C	1.149390	0.101292	0.000078
C38	C	1.242450	0.102834	0.000079
C39	C	1.000784	0.249944	0.000059
C40	C	1.008618	0.336739	0.000054
N41	N	0.996674	0.107009	0.218773
N42	N	0.996761	0.106984	-0.218636
C43	C	0.996732	0.106993	0.592864
C44	C	0.932276	0.171007	0.553689
C45	C	0.932452	0.171241	0.446601
C46	C	0.996702	0.107001	0.407273
C47	C	1.085336	0.124819	0.446115
C48	C	1.084981	0.125274	0.553237
C49	C	0.973320	0.024970	0.553397
C50	C	0.971356	0.025517	0.446269
C51	C	0.996691	0.107004	0.302385
C52	C	0.996749	0.106991	0.697752
H53	H	0.433211	-0.014032	0.063353
Br54	Br	0.846425	-0.463630	0.000022
H55	H	0.897983	-0.394821	0.000050
Br56	Br	0.584161	0.098756	0.196364
H57	H	0.833579	-0.261356	0.000039
Br58	Br	0.807889	-0.086199	0.000039
H59	H	0.562300	0.213362	0.093450
H60	H	1.104724	0.185092	0.578210
H61	H	1.134751	0.080487	0.579149
H62	H	0.576475	-0.011692	-0.062951
Br63	Br	1.167596	0.049174	0.403662
Br64	Br	0.417501	-0.036570	-0.103886
Br65	Br	0.958339	0.272701	0.403862
H66	H	0.422948	0.122217	0.153518
Br67	Br	0.867393	-0.003572	0.598471
Br68	Br	1.051550	-0.054430	0.595617
Br69	Br	0.411591	0.097133	-0.197101
Br70	Br	0.957911	0.271891	0.598513
H71	H	1.095440	-0.391187	0.000046
Br72	Br	0.862634	0.002975	0.403961
H73	H	0.866756	0.160625	0.420341
H74	H	0.418217	0.213193	0.087589
H75	H	1.121310	-0.147233	0.000094
H76	H	0.417962	0.211153	-0.091752
H77	H	0.866382	0.160566	0.579472
Br78	Br	0.573656	0.256685	-0.093170
Br79	Br	1.118785	0.223383	0.401383
Br80	Br	0.586362	0.101721	-0.196556
H81	H	1.107945	-0.295174	0.000079
H82	H	1.159850	-0.524651	0.000081
Br83	Br	1.043784	-0.057604	0.401669
H84	H	1.146484	-0.672604	0.000074
Br85	Br	0.829067	-0.655851	0.000044
H86	H	0.577035	-0.011462	0.062974
