data_functionalizedCrystal
_audit_creation_method	'MofGen! by Chris Wilmer'
_symmetry_space_group_name_H-M	'P1'
_symmetry_Int_Tables_number	1
_symmetry_cell_setting	triclinic
loop_
_symmetry_equiv_pos_as_xyz
  x,y,z
_cell_length_a	15.995350
_cell_length_b	27.732048
_cell_length_c	15.072220
_cell_angle_alpha	89.993868
_cell_angle_beta	89.991149
_cell_angle_gamma	83.067515
loop_
_atom_site_label
_atom_site_type_symbol
_atom_site_fract_x
_atom_site_fract_y
_atom_site_fract_z
O1	O	1.110190	0.062301	-0.073717
O2	O	0.866315	0.069995	-0.073737
O3	O	0.995827	-0.004216	-0.073709
O4	O	0.980678	0.136512	-0.073744
O5	O	0.995795	-0.004212	0.073856
O6	O	0.866283	0.069999	0.073828
O7	O	1.110158	0.062305	0.073848
Zn8	Zn	0.988215	0.066153	0.097267
Zn9	Zn	0.988257	0.066148	-0.097156
O10	O	0.980646	0.136516	0.073821
C11	C	0.835108	0.069679	0.000044
C12	C	0.742170	0.068726	0.000037
C13	C	0.995493	-0.022222	0.000076
C14	C	0.994535	-0.075881	0.000083
C15	C	0.404467	0.065301	0.000056
C16	C	0.452585	0.012449	0.000399
C17	C	0.549263	0.013403	0.000060
C18	C	0.572006	0.067000	0.000047
C19	C	0.530599	0.093065	-0.084223
C20	C	0.433981	0.091738	-0.084287
C21	C	0.433592	0.092834	0.083522
C22	C	0.530537	0.092822	0.084630
C23	C	0.666691	0.067962	0.000039
C24	C	0.309782	0.064340	0.000058
C25	C	1.065040	-0.414392	0.000043
C26	C	1.061487	-0.616067	0.000030
O27	O	1.125959	-0.647045	-0.000004
N28	N	0.984692	-0.635522	0.000025
C29	C	0.908780	-0.604555	0.000017
O30	O	0.843380	-0.625730	0.000003
C31	C	0.912334	-0.402881	0.000023
C32	C	0.989134	-0.383429	0.000037
C33	C	1.141834	-0.394940	0.000056
C34	C	1.142721	-0.344524	0.000064
C35	C	1.066815	-0.313561	0.000059
C36	C	0.990021	-0.333013	0.000045
C37	C	0.836422	-0.371914	0.000009
C38	C	0.837317	-0.321493	0.000008
C39	C	0.914117	-0.302041	0.000023
C40	C	0.915002	-0.251634	0.000048
N41	N	0.991797	-0.232179	0.000053
C42	C	1.067703	-0.263142	0.000059
C43	C	0.906920	-0.710437	0.000015
C44	C	0.906031	-0.760855	0.000015
C45	C	1.058739	-0.772364	0.000027
C46	C	1.059627	-0.721945	0.000033
C47	C	0.983715	-0.690982	0.000021
C48	C	1.069561	-0.157265	0.000076
C49	C	1.070442	-0.106844	0.000088
C50	C	0.917734	-0.095340	0.000072
C51	C	0.916853	-0.145756	0.000065
C52	C	0.992773	-0.176718	0.000064
O53	O	0.850565	-0.220628	0.000072
O54	O	1.133094	-0.241958	0.000053
C55	C	1.064153	-0.464808	0.000035
C56	C	0.987359	-0.484260	0.000022
C57	C	0.911452	-0.453297	0.000016
C58	C	0.986470	-0.534679	0.000022
C59	C	1.062377	-0.565642	0.000027
C60	C	1.139172	-0.546187	0.000032
C61	C	1.140059	-0.495771	0.000040
C62	C	0.834657	-0.472752	0.000011
C63	C	0.833776	-0.523168	0.000004
C64	C	0.909683	-0.554132	0.000009
C65	C	1.141364	0.062621	0.000066
C66	C	1.234302	0.063575	0.000066
C67	C	0.980980	0.154523	0.000034
C68	C	0.981938	0.208182	0.000021
N69	N	0.988193	0.066156	0.229956
N70	N	0.988287	0.066140	-0.229845
C71	C	0.988256	0.066146	0.589158
C72	C	0.918727	0.105721	0.551536
C73	C	0.918884	0.105866	0.448710
C74	C	0.988224	0.066151	0.410954
C75	C	1.075446	0.077167	0.448249
C76	C	1.075056	0.077448	0.551106
C77	C	0.971342	0.015437	0.551269
C78	C	0.969333	0.015775	0.448405
C79	C	0.988211	0.066153	0.310240
C80	C	0.988274	0.066145	0.689871
H81	H	0.577944	-0.007086	0.060468
Cl82	Cl	0.820304	-0.170211	0.000063
Cl83	Cl	0.818737	0.095765	0.409778
H84	H	1.203650	-0.420146	0.000057
Cl85	Cl	1.049634	-0.030033	0.588831
H86	H	0.855933	-0.070121	0.000071
H87	H	0.773883	-0.387743	-0.000008
H88	H	0.433276	-0.008581	-0.059692
H89	H	0.413266	0.075558	0.147396
H90	H	0.544216	0.132441	-0.087365
Cl91	Cl	0.870278	0.002866	0.410774
Cl92	Cl	1.157207	0.034590	0.589532
Cl93	Cl	1.098219	0.134544	0.588124
Cl94	Cl	1.157196	0.033847	0.410492
Cl95	Cl	1.042526	-0.031825	0.408745
Cl96	Cl	1.099194	0.133612	0.408455
H97	H	0.577401	-0.007228	-0.060444
Cl98	Cl	0.935420	0.163969	0.410689
H99	H	0.929308	0.143139	0.577366
H100	H	1.122164	-0.706111	0.000044
H101	H	0.434323	-0.008675	0.060832
H102	H	0.415932	0.072726	-0.147272
H103	H	0.401231	0.130541	-0.088120
H104	H	1.200977	-0.571406	0.000040
Cl105	Cl	0.574785	0.065109	-0.181040
H106	H	0.909157	0.004845	0.577257
Cl107	Cl	1.154164	-0.811298	0.000029
Cl108	Cl	0.572968	0.063396	0.180882
Cl109	Cl	0.383777	0.152996	0.084389
Cl110	Cl	0.553468	0.153168	0.092473
H111	H	1.132984	-0.091010	0.000102
H112	H	0.853661	0.099266	0.576294
Cl113	Cl	0.741879	-0.282571	-0.000009
H114	H	1.131383	-0.182469	0.000072
H115	H	1.202598	-0.479938	0.000051
H116	H	1.205260	-0.328691	0.000072
H117	H	0.843493	-0.776688	0.000019
Cl118	Cl	0.811477	-0.671518	0.000000
Cl119	Cl	0.737217	-0.547615	-0.000010
Cl120	Cl	0.739222	-0.433834	0.000003
