data_functionalizedCrystal
_audit_creation_method	'MofGen! by Chris Wilmer'
_symmetry_space_group_name_H-M	'P1'
_symmetry_Int_Tables_number	1
_symmetry_cell_setting	triclinic
loop_
_symmetry_equiv_pos_as_xyz
  x,y,z
_cell_length_a	18.101395
_cell_length_b	12.827893
_cell_length_c	12.827885
_cell_angle_alpha	89.978811
_cell_angle_beta	90.032375
_cell_angle_gamma	89.970686
loop_
_atom_site_label
_atom_site_type_symbol
_atom_site_fract_x
_atom_site_fract_y
_atom_site_fract_z
Zn1	Zn	-0.294829	-1.597556	0.590883
Zn2	Zn	-0.418688	-1.597402	0.416136
Zn3	Zn	-0.294861	-1.422797	0.416151
Zn4	Zn	-0.418629	-1.422734	0.590830
O5	O	-0.356752	-1.510122	0.503500
O6	O	-0.311270	-1.743771	0.567719
O7	O	-0.402301	-1.574202	0.269902
O8	O	-0.191224	-1.446070	0.439358
O9	O	-0.402269	-1.743658	0.439332
O10	O	-0.191200	-1.574464	0.567733
O11	O	-0.311325	-1.445920	0.269913
O12	O	-0.311268	-1.276553	0.439307
O13	O	-0.402169	-1.445963	0.737073
O14	O	-0.402200	-1.276507	0.567642
O15	O	-0.311213	-1.574403	0.737112
O16	O	-0.522313	-1.574141	0.439280
O17	O	-0.522270	-1.445814	0.567627
C18	C	-0.356732	-1.238612	0.503471
C19	C	-0.356741	-1.122459	0.503483
C20	C	-0.311791	-1.070730	0.567110
C21	C	-0.311799	-0.950680	0.567125
C22	C	-0.549163	-1.509982	0.503469
C23	C	-0.631477	-1.510018	0.503491
C24	C	-0.930568	-1.510247	0.503547
C25	C	-0.899246	-1.429695	0.584500
C26	C	-0.813628	-1.429312	0.584247
C27	C	-0.782185	-1.510134	0.503520
C28	C	-0.813343	-1.480314	0.393385
C29	C	-0.898988	-1.479795	0.393869
C30	C	-0.898912	-1.620796	0.531760
C31	C	-0.813261	-1.620146	0.534176
C32	C	-0.698326	-1.510071	0.503498
C33	C	-1.014427	-1.510307	0.503562
C34	C	-0.163590	-1.510291	0.503554
C35	C	-0.081276	-1.510363	0.503577
C36	C	-0.356681	-1.510193	0.776070
C37	C	-0.356651	-1.510224	0.892223
C38	C	-0.356767	-0.782692	0.503521
C39	C	-0.356758	-0.898845	0.503509
C40	C	-0.356769	-1.510111	0.231990
C41	C	-0.356591	-1.510284	0.115837
C42	C	-0.311634	-1.573787	0.944028
C43	C	-0.311602	-1.573820	1.064078
H44	H	-0.273298	-1.115320	0.621569
C45	C	-0.784401	-1.705506	0.460270
C46	C	-0.731874	-1.676681	0.370390
C47	C	-0.703042	-1.762031	0.296445
C48	C	-0.726738	-1.876206	0.312380
C49	C	-0.779268	-1.905036	0.402263
C50	C	-0.808100	-1.819686	0.476208
H51	H	-0.714330	-1.592158	0.358591
H52	H	-0.664155	-1.740689	0.229908
H53	H	-0.705395	-1.939387	0.257641
H54	H	-0.796811	-1.989560	0.414062
H55	H	-0.846986	-1.841029	0.542746
H56	H	-0.791958	-1.400359	0.369057
H57	H	-0.273318	-0.906194	0.621601
H58	H	-0.273115	-1.628178	0.899502
C59	C	-0.408742	-1.062233	0.429903
C60	C	-0.492947	-1.077093	0.438207
C61	C	-0.544950	-1.016870	0.364624
C62	C	-0.512748	-0.941787	0.282736
C63	C	-0.428540	-0.926923	0.274428
C64	C	-0.376537	-0.987146	0.348012
H65	H	-0.516788	-1.132677	0.498828
H66	H	-0.607287	-1.027874	0.370774
H67	H	-0.551244	-0.897207	0.228265
H68	H	-0.404698	-0.871339	0.213807
H69	H	-0.314200	-0.976143	0.341861
H70	H	-0.395248	-0.943325	0.449039
C71	C	-0.785159	-1.454448	0.694583
C72	C	-0.840354	-1.475016	0.783541
C73	C	-0.811890	-1.500119	0.893890
C74	C	-0.728230	-1.504654	0.915281
C75	C	-0.673030	-1.484085	0.826320
C76	C	-0.701494	-1.458982	0.715971
H77	H	-0.902289	-1.471660	0.767709
H78	H	-0.852754	-1.515345	0.959745
H79	H	-0.707159	-1.523236	0.996968
H80	H	-0.611095	-1.487441	0.842152
H81	H	-0.660631	-1.443756	0.650117
H82	H	-0.919789	-1.448166	0.666429
H83	H	-0.919167	-1.680811	0.472799
C84	C	-0.786026	-1.318620	0.558989
C85	C	-0.737268	-1.259800	0.637831
C86	C	-0.709665	-1.149105	0.612566
C87	C	-0.730821	-1.097230	0.508461
C88	C	-0.779581	-1.156051	0.429613
C89	C	-0.807184	-1.266746	0.454877
H90	H	-0.721606	-1.298200	0.714902
H91	H	-0.673570	-1.105562	0.670936
H92	H	-0.710387	-1.015287	0.489759
H93	H	-0.795244	-1.117651	0.352542
H94	H	-0.843280	-1.310288	0.396508
H95	H	-0.395162	-1.455822	0.936749
C96	C	-0.926995	-1.555598	0.309600
C97	C	-0.975795	-1.515094	0.219929
C98	C	-1.003800	-1.590887	0.135656
C99	C	-0.983005	-1.707183	0.141054
C100	C	-0.934203	-1.747693	0.230729
C101	C	-0.906197	-1.671900	0.315002
H102	H	-0.991190	-1.428999	0.215929
H103	H	-1.039927	-1.560898	0.069272
H104	H	-1.003737	-1.763290	0.078670
H105	H	-0.918807	-1.833788	0.234729
H106	H	-0.870070	-1.701889	0.381386
C107	C	-0.928405	-1.319667	0.559582
C108	C	-0.980482	-1.302716	0.466128
C109	C	-1.009645	-1.192691	0.441208
C110	C	-0.986730	-1.099615	0.509744
C111	C	-0.934650	-1.116563	0.603204
C112	C	-0.905488	-1.226588	0.628123
H113	H	-0.997447	-1.371619	0.415388
H114	H	-1.048198	-1.180146	0.372023
H115	H	-1.008318	-1.018168	0.491297
H116	H	-0.917685	-1.047660	0.653943
H117	H	-0.866935	-1.239133	0.697309
C118	C	-0.408662	-1.436759	1.055669
C119	C	-0.492857	-1.445203	1.070553
C120	C	-0.544928	-1.371679	1.010376
C121	C	-0.512804	-1.289710	0.935314
C122	C	-0.428605	-1.281263	0.920427
C123	C	-0.376534	-1.354787	0.980604
H124	H	-0.516641	-1.505884	1.126121
H125	H	-0.607258	-1.377933	1.021397
H126	H	-0.551350	-1.235283	0.890767
H127	H	-0.404821	-1.220582	0.864859
H128	H	-0.314204	-1.348534	0.969583
C129	C	-0.259533	-1.647341	1.124253
C130	C	-0.259574	-1.647269	1.244298
C131	C	-0.207503	-1.720793	1.304476
C132	C	-0.155390	-1.794390	1.244607
C133	C	-0.155347	-1.794465	1.124555
C134	C	-0.207418	-1.720940	1.064378
H135	H	-0.298153	-1.592786	1.288623
H136	H	-0.207536	-1.720738	1.393347
H137	H	-0.116844	-1.848817	1.289154
H138	H	-0.116768	-1.848947	1.080231
H139	H	-0.207385	-1.720996	0.975507
H140	H	-0.919031	-1.398984	0.369970
C141	C	-0.928010	-1.657527	0.638407
C142	C	-0.980898	-1.587600	0.701242
C143	C	-1.009998	-1.624317	0.807893
C144	C	-0.986209	-1.730962	0.851709
C145	C	-0.933318	-1.800896	0.788873
C146	C	-0.904219	-1.764179	0.682222
H147	H	-0.998511	-1.508649	0.668808
H148	H	-1.049151	-1.572547	0.854408
H149	H	-1.007750	-1.758143	0.930658
H150	H	-0.915706	-1.879847	0.821307
H151	H	-0.865065	-1.815949	0.635707
H152	H	-0.792978	-1.537139	0.331424
H153	H	-0.792893	-1.642633	0.615229
