data_functionalizedCrystal
_audit_creation_method	'MofGen! by Chris Wilmer'
_symmetry_space_group_name_H-M	'P1'
_symmetry_Int_Tables_number	1
_symmetry_cell_setting	triclinic
loop_
_symmetry_equiv_pos_as_xyz
  x,y,z
_cell_length_a	11.792241
_cell_length_b	12.996460
_cell_length_c	11.792241
_cell_angle_alpha	90.006284
_cell_angle_beta	84.193416
_cell_angle_gamma	90.001369
loop_
_atom_site_label
_atom_site_type_symbol
_atom_site_fract_x
_atom_site_fract_y
_atom_site_fract_z
O1	O	1.506910	0.085467	0.155570
O2	O	1.176569	0.085491	0.171603
O3	O	1.349756	0.085472	-0.001584
O4	O	1.333723	0.085487	0.328757
O5	O	1.349738	-0.085662	-0.001594
O6	O	1.176551	-0.085642	0.171593
O7	O	1.506892	-0.085666	0.155560
Cu8	Cu	1.341720	-0.101280	0.163576
Cu9	Cu	1.341741	0.101105	0.163587
O10	O	1.333705	-0.085647	0.328747
C11	C	1.134269	-0.000073	0.170591
C12	C	1.008255	-0.000064	0.167576
N13	N	1.341713	-0.243627	0.163567
C14	C	0.777543	-0.000093	0.162034
C15	C	0.905928	-0.000077	0.165113
C16	C	1.341740	-0.663442	0.163588
C17	C	1.341729	-0.546637	0.163586
C18	C	1.341727	-0.453538	0.163579
C19	C	1.341715	-0.336726	0.163575
C20	C	1.549192	-0.000100	0.156572
C21	C	1.675206	-0.000103	0.159587
C22	C	1.348740	-0.000095	-0.043880
C23	C	1.345726	-0.000094	-0.169894
N24	N	1.341757	0.243452	0.163587
C25	C	1.340183	-0.000076	-0.400606
C26	C	1.343262	-0.000086	-0.272221
C27	C	1.334721	-0.000078	0.371043
C28	C	1.337736	-0.000072	0.497057
