data_functionalizedCrystal
_audit_creation_method	'MofGen! by Chris Wilmer'
_symmetry_space_group_name_H-M	'P1'
_symmetry_Int_Tables_number	1
_symmetry_cell_setting	triclinic
loop_
_symmetry_equiv_pos_as_xyz
  x,y,z
_cell_length_a	12.759401
_cell_length_b	21.295416
_cell_length_c	21.295420
_cell_angle_alpha	89.983521
_cell_angle_beta	90.004579
_cell_angle_gamma	89.968144
loop_
_atom_site_label
_atom_site_type_symbol
_atom_site_fract_x
_atom_site_fract_y
_atom_site_fract_z
Zn1	Zn	1.605983	0.250672	0.355891
Zn2	Zn	1.605876	0.355919	0.250621
Zn3	Zn	1.430331	0.250670	0.250640
Zn4	Zn	1.430225	0.355910	0.355856
O5	O	1.518104	0.303293	0.303252
O6	O	1.752989	0.264638	0.341934
O7	O	1.582589	0.341961	0.162534
O8	O	1.453721	0.162581	0.264624
O9	O	1.752911	0.341962	0.264593
O10	O	1.582771	0.162582	0.341952
O11	O	1.453618	0.264635	0.162548
O12	O	1.283296	0.264626	0.264590
O13	O	1.453540	0.341947	0.443950
O14	O	1.283218	0.341946	0.341892
O15	O	1.582668	0.264629	0.443976
O16	O	1.582486	0.444007	0.264559
O17	O	1.453437	0.444001	0.341874
C18	C	1.245136	0.303285	0.303240
C19	C	1.128360	0.303297	0.303249
C20	C	1.073485	0.343618	0.343437
C21	C	0.963761	0.343621	0.343450
C22	C	0.963796	0.262979	0.263081
C23	C	1.073518	0.262974	0.263072
C24	C	1.517967	0.466845	0.303224
C25	C	1.518004	0.536813	0.303234
C26	C	1.585261	0.569662	0.263018
C27	C	1.585310	0.635404	0.263035
C28	C	1.518085	0.668295	0.303261
C29	C	1.450824	0.635438	0.343484
C30	C	1.450784	0.569697	0.343471
N31	N	1.426176	0.771563	0.308060
N32	N	1.426217	0.834015	0.308069
C33	C	1.518204	0.866370	0.303306
N34	N	1.610149	0.833914	0.298520
N35	N	1.610107	0.771457	0.298507
C36	C	1.518121	0.739581	0.303281
C37	C	1.585519	0.970504	0.263106
C38	C	1.585570	1.036248	0.263128
C39	C	1.451075	1.036281	0.343574
C40	C	1.451033	0.970538	0.343556
C41	C	1.518254	0.937654	0.303319
C42	C	1.792137	0.303301	0.303265
C43	C	1.908914	0.303305	0.303271
C44	C	1.518104	0.303287	0.467442
C45	C	1.518104	0.303285	0.537411
C46	C	1.518271	1.139103	0.303305
C47	C	1.518346	1.069135	0.303355
C48	C	1.585295	0.263033	1.036883
C49	C	1.585306	0.263034	0.971140
C50	C	1.518078	0.303287	0.938250
C51	C	1.450853	0.343554	0.971108
C52	C	1.450852	0.343557	1.036849
N53	N	1.426111	0.308111	0.835023
N54	N	1.426116	0.308105	0.772572
C55	C	1.518081	0.303285	0.740175
N56	N	1.610043	0.298458	0.772589
N57	N	1.610038	0.298460	0.835047
C58	C	1.518073	0.303290	0.866965
C59	C	1.585319	0.263024	0.636040
C60	C	1.585332	0.263030	0.570296
C61	C	1.450870	0.343548	0.570265
C62	C	1.450866	0.343545	0.636007
C63	C	1.518089	0.303280	0.668891
C64	C	1.518090	0.303307	1.139701
C65	C	1.518075	0.303292	1.069733
H66	H	1.639998	0.542889	0.230256
H67	H	1.640038	0.230248	1.063653
H68	H	1.640345	1.062993	0.230381
H69	H	0.919131	0.230150	0.230369
C70	C	1.133812	0.387968	0.387636
C71	C	1.118664	0.459522	0.382373
C72	C	1.178988	0.503871	0.426575
C73	C	1.254460	0.476665	0.476038
C74	C	1.269612	0.405107	0.481302
C75	C	1.209288	0.360759	0.437101
H76	H	1.062791	0.479664	0.345756
H77	H	1.167771	0.556843	0.422677
H78	H	1.299115	0.509495	0.508758
H79	H	1.325484	0.384965	0.517920
H80	H	1.220505	0.307787	0.440998
C81	C	1.376911	0.387821	0.672152
C82	C	1.294461	0.360535	0.717352
C83	C	1.220504	0.404812	0.753499
C84	C	1.228997	0.476375	0.744446
C85	C	1.311451	0.503664	0.699244
C86	C	1.385407	0.459387	0.663097
H87	H	1.288171	0.307556	0.724055
H88	H	1.159467	0.384610	0.786960
H89	H	1.174250	0.509151	0.771204
H90	H	1.317741	0.556643	0.692540
H91	H	1.446445	0.479589	0.629635
C92	C	1.376873	0.671615	0.387733
C93	C	1.302888	0.635478	0.431971
C94	C	1.228938	0.671654	0.476223
C95	C	1.228973	0.743967	0.476237
C96	C	1.302961	0.780108	0.431997
C97	C	1.376911	0.743932	0.387745
H98	H	1.302859	0.581944	0.431962
H99	H	1.174167	0.644899	0.508973
H100	H	1.174231	0.770746	0.508996
H101	H	1.302990	0.833641	0.432006
H102	H	1.431682	0.770686	0.354996
C103	C	1.377040	0.934398	0.387788
C104	C	1.422471	0.889152	0.437223
C105	C	1.348478	0.853012	0.481459
C106	C	1.229054	0.862116	0.476259
C107	C	1.183617	0.907364	0.426821
C108	C	1.257610	0.943505	0.382585
H109	H	1.510881	0.882411	0.441075
H110	H	1.382114	0.819516	0.518056
H111	H	1.174280	0.835363	0.509004
H112	H	1.095207	0.914106	0.422969
H113	H	1.223974	0.977000	0.345988
H114	H	1.640078	0.230248	0.543551
C115	C	1.376899	0.387841	1.072988
C116	C	1.376892	0.387842	1.145300
C117	C	1.302937	0.432125	1.181441
C118	C	1.228989	0.476408	1.145268
C119	C	1.228993	0.476409	1.072951
C120	C	1.302948	0.432125	1.036811
H121	H	1.431635	0.355060	1.172081
H122	H	1.302934	0.432124	1.234974
H123	H	1.174243	0.509189	1.172021
H124	H	1.174250	0.509191	1.046170
H125	H	1.302951	0.432126	0.983277
H126	H	1.396015	0.542950	0.376220
C127	C	1.133892	0.218619	0.218862
C128	C	1.209290	0.245819	0.169389
C129	C	1.269665	0.201465	0.125183
C130	C	1.254643	0.129911	0.130451
C131	C	1.179242	0.102708	0.179926
C132	C	1.118867	0.147062	0.224131
H133	H	1.220413	0.298790	0.165488
H134	H	1.325482	0.221603	0.088559
H135	H	1.299337	0.097078	0.097727
H136	H	1.168119	0.049737	0.183826
H137	H	1.063050	0.126924	0.260756
H138	H	1.640082	0.662155	0.230287
C139	C	1.659467	0.934327	0.218853
C140	C	1.733464	0.970464	0.174622
C141	C	1.807412	0.934288	0.130368
C142	C	1.807365	0.861975	0.130347
C143	C	1.733366	0.825834	0.174580
C144	C	1.659417	0.862010	0.218833
H145	H	1.733501	1.023997	0.174636
H146	H	1.862191	0.961042	0.097624
H147	H	1.862106	0.835196	0.097588
H148	H	1.733328	0.772300	0.174565
H149	H	1.604638	0.835255	0.251577
C150	C	1.659245	0.218742	0.934996
C151	C	1.733185	0.174453	0.971166
C152	C	1.807122	0.130160	0.935023
C153	C	1.807118	0.130157	0.862710
C154	C	1.733175	0.174448	0.826536
C155	C	1.659239	0.218740	0.862679
H156	H	1.733190	0.174454	1.024700
H157	H	1.861859	0.097373	0.961802
H158	H	1.861850	0.097368	0.835955
H159	H	1.733170	0.174447	0.773002
H160	H	1.604501	0.251528	0.835900
H161	H	1.396118	0.376330	0.944324
C162	C	1.659272	0.218743	0.672219
C163	C	1.778704	0.223887	0.663190
C164	C	1.852658	0.179607	0.699368
C165	C	1.807181	0.130183	0.744574
C166	C	1.687743	0.125038	0.753605
C167	C	1.613788	0.169318	0.717427
H168	H	1.812374	0.260474	0.629724
H169	H	1.941074	0.183416	0.692682
H170	H	1.861926	0.097405	0.771355
H171	H	1.654072	0.088450	0.787071
H172	H	1.525372	0.165509	0.724113
C173	C	0.903398	0.387977	0.387656
C174	C	0.963726	0.432328	0.431848
C175	C	0.903364	0.476684	0.476057
C176	C	0.782674	0.476690	0.476074
C177	C	0.722339	0.432338	0.431880
C178	C	0.782701	0.387981	0.387671
H179	H	1.053074	0.432325	0.431837
H180	H	0.948028	0.509517	0.508772
H181	H	0.737990	0.509526	0.508800
H182	H	0.632991	0.432340	0.431892
H183	H	0.738037	0.355148	0.354956
C184	C	1.377122	1.072452	0.387822
C185	C	1.377160	1.144765	0.387839
C186	C	1.303207	1.180940	0.432090
C187	C	1.229216	1.144803	0.476324
C188	C	1.229175	1.072486	0.476309
C189	C	1.303128	1.036311	0.432058
H190	H	1.431935	1.171520	0.355093
H191	H	1.303237	1.234474	0.432101
H192	H	1.174471	1.171582	0.509081
H193	H	1.174400	1.045731	0.509055
H194	H	1.303098	0.982777	0.432047
H195	H	1.396135	0.376325	0.543486
