data_functionalizedCrystal
_audit_creation_method	'MofGen! by Chris Wilmer'
_symmetry_space_group_name_H-M	'P1'
_symmetry_Int_Tables_number	1
_symmetry_cell_setting	triclinic
loop_
_symmetry_equiv_pos_as_xyz
  x,y,z
_cell_length_a	12.503572
_cell_length_b	14.044220
_cell_length_c	14.044220
_cell_angle_alpha	93.188878
_cell_angle_beta	86.156832
_cell_angle_gamma	93.835250
loop_
_atom_site_label
_atom_site_type_symbol
_atom_site_fract_x
_atom_site_fract_y
_atom_site_fract_z
O1	O	-0.089210	-1.282200	-0.225116
O2	O	0.410790	-0.782200	0.274884
O3	O	-0.089237	-1.005530	-0.216809
O4	O	0.410763	-0.505530	0.283191
O5	O	-0.089213	-1.139712	-0.082627
O6	O	0.410787	-0.639712	0.417373
O7	O	-0.089234	-1.148019	-0.359298
O8	O	0.410766	-0.648019	0.140702
O9	O	0.089427	-1.129622	-0.092737
O10	O	0.589427	-0.629622	0.407263
O11	O	0.089403	-0.995440	-0.226918
O12	O	0.589403	-0.495440	0.273082
O13	O	0.089430	-1.272110	-0.235226
O14	O	0.589430	-0.772110	0.264774
Cu15	Cu	0.105728	-1.132854	-0.231995
Cu16	Cu	0.605728	-0.632854	0.268005
Cu17	Cu	-0.105535	-1.144786	-0.220040
Cu18	Cu	0.394465	-0.644786	0.279960
O19	O	0.089406	-1.137929	-0.369407
O20	O	0.589406	-0.637929	0.130593
C21	C	0.000080	-0.964864	-0.218228
C22	C	0.500080	-0.464864	0.281772
C23	C	0.000070	-0.858721	-0.207383
C24	C	0.500070	-0.358721	0.292617
N25	N	0.254319	-1.124469	-0.240404
N26	N	0.754319	-0.624469	0.259596
N27	N	-0.254126	-1.153179	-0.211624
N28	N	0.245874	-0.653179	0.288376
C29	C	0.473432	-1.112134	-0.252782
C30	C	0.973432	-0.612134	0.247218
C31	C	0.526768	-1.165511	-0.199249
C32	C	1.026768	-0.665511	0.300751
C33	C	0.648690	-1.158648	-0.206136
C34	C	1.148690	-0.658648	0.293864
C35	C	0.351499	-1.118996	-0.245896
C36	C	0.851499	-0.618996	0.254104
C37	C	0.000107	-1.131031	-0.052060
C38	C	0.500107	-0.631031	0.447940
C39	C	0.000107	-1.120187	0.054082
C40	C	0.500107	-0.620187	0.554082
C41	C	0.000111	-1.312777	-0.233807
C42	C	0.500111	-0.812777	0.266193
C43	C	0.000114	-1.418920	-0.244651
C44	C	0.500114	-0.918920	0.255349
C45	C	0.000092	-0.664382	-0.187558
C46	C	0.500092	-0.164382	0.312442
C47	C	0.000091	-0.613253	-0.264472
C48	C	0.500091	-0.113253	0.235528
C49	C	0.000104	-0.505116	-0.253441
C50	C	0.500104	-0.005116	0.246559
C51	C	0.000080	-0.772529	-0.198587
C52	C	0.500080	-0.272529	0.301413
C53	C	0.000084	-1.146609	-0.399974
C54	C	0.500084	-0.646609	0.100026
C55	C	0.000077	-1.157454	-0.506117
C56	C	0.500077	-0.657454	-0.006117
C57	C	0.000090	-1.100361	0.248421
C58	C	0.500090	-0.600361	0.748421
C59	C	0.000094	-1.177275	0.299551
C60	C	0.500094	-0.677275	0.799551
C61	C	0.000084	-1.166244	0.407687
C62	C	0.500084	-0.666244	0.907687
C63	C	0.000099	-1.111391	0.140274
C64	C	0.500099	-0.611391	0.640274
H65	H	0.480864	-1.216364	-0.148245
H66	H	0.980864	-0.716364	0.351755
N67	N	0.530991	-1.048346	-0.316777
N68	N	1.030991	-0.548346	0.183223
N69	N	0.480920	-0.998159	-0.367119
N70	N	0.980920	-0.498159	0.132881
H71	H	0.521581	-0.953110	-0.412317
H72	H	1.021581	-0.453110	0.087683
H73	H	0.000104	-0.626945	-0.113431
H74	H	0.500104	-0.126945	0.386569
H75	H	0.000029	-1.251413	0.262115
H76	H	0.500029	-0.751413	0.762115
H77	H	0.000081	-0.650692	-0.338605
H78	H	0.500081	-0.150692	0.161395
N79	N	0.000081	-1.007358	0.295362
N80	N	0.500081	-0.507358	0.795362
N81	N	-0.075215	-0.955120	0.285873
N82	N	0.424785	-0.455120	0.785873
H83	H	-0.075217	-0.889435	0.319032
H84	H	0.424783	-0.389435	0.819032
