data_functionalizedCrystal
_audit_creation_method	'MofGen! by Chris Wilmer'
_symmetry_space_group_name_H-M	'P1'
_symmetry_Int_Tables_number	1
_symmetry_cell_setting	triclinic
loop_
_symmetry_equiv_pos_as_xyz
  x,y,z
_cell_length_a	15.944493
_cell_length_b	27.731996
_cell_length_c	26.809956
_cell_angle_alpha	89.989805
_cell_angle_beta	89.984219
_cell_angle_gamma	83.048216
loop_
_atom_site_label
_atom_site_type_symbol
_atom_site_fract_x
_atom_site_fract_y
_atom_site_fract_z
O1	O	1.113735	0.062207	-0.041480
O2	O	1.447069	0.395540	0.291854
O3	O	1.780402	0.728874	0.625187
O4	O	0.869076	0.069923	-0.041483
O5	O	1.202409	0.403256	0.291850
O6	O	1.535742	0.736589	0.625184
O7	O	0.999027	-0.004302	-0.041470
O8	O	1.332360	0.329032	0.291863
O9	O	1.665694	0.662365	0.625196
O10	O	0.983784	0.136431	-0.041492
O11	O	1.317118	0.469765	0.291841
O12	O	1.650451	0.803098	0.625174
O13	O	0.998986	-0.004301	0.041489
O14	O	1.332320	0.329032	0.374822
O15	O	1.665653	0.662366	0.708156
O16	O	0.869035	0.069923	0.041476
O17	O	1.202369	0.403256	0.374810
O18	O	1.535702	0.736590	0.708143
O19	O	1.113695	0.062208	0.041480
O20	O	1.447028	0.395541	0.374813
O21	O	1.780362	0.728874	0.708146
Zn22	Zn	0.991359	0.066065	0.054650
Zn23	Zn	1.324692	0.399399	0.387983
Zn24	Zn	1.658025	0.732732	0.721316
Zn25	Zn	0.991412	0.066065	-0.054653
Zn26	Zn	1.324745	0.399398	0.278680
Zn27	Zn	1.658079	0.732731	0.612014
O28	O	0.983744	0.136432	0.041467
O29	O	1.317077	0.469765	0.374800
O30	O	1.650410	0.803098	0.708134
C31	C	0.837765	0.069607	-0.000004
C32	C	1.171098	0.402941	0.333330
C33	C	1.504432	0.736274	0.666663
C34	C	0.744529	0.068662	-0.000004
C35	C	1.077862	0.401995	0.333329
C36	C	1.411196	0.735329	0.666662
C37	C	0.508184	0.112352	-0.000011
C38	C	0.841517	0.445685	0.333322
C39	C	1.174850	0.779019	0.666655
C40	C	0.457921	0.088792	0.040898
C41	C	0.791254	0.422125	0.374231
C42	C	1.124588	0.755459	0.707564
C43	C	0.573831	0.066910	-0.000003
C44	C	0.907165	0.400244	0.333330
C45	C	1.240498	0.733577	0.666664
C46	C	0.457966	0.088781	-0.040894
C47	C	0.791299	0.422114	0.292440
C48	C	1.124632	0.755447	0.625773
C49	C	0.408944	0.065222	-0.000004
C50	C	0.742278	0.398555	0.333329
C51	C	1.075611	0.731888	0.666663
C52	C	0.524797	0.043362	0.040940
C53	C	0.858130	0.376696	0.374273
C54	C	1.191464	0.710029	0.707606
C55	C	0.524845	0.043358	-0.040888
C56	C	0.858178	0.376691	0.292445
C57	C	1.191512	0.710024	0.625778
C58	C	0.474616	0.019764	0.000031
C59	C	0.807949	0.353098	0.333364
C60	C	1.141282	0.686431	0.666697
C61	C	0.668818	0.067884	-0.000002
C62	C	1.002152	0.401218	0.333331
C63	C	1.335485	0.734551	0.666665
C64	C	0.313960	0.064244	-0.000001
C65	C	0.647294	0.397577	0.333332
C66	C	0.980627	0.730910	0.666665
C67	C	0.998694	-0.022310	0.000011
C68	C	1.332027	0.311023	0.333344
C69	C	1.665360	0.644357	0.666678
C70	C	0.997750	-0.075970	0.000016
C71	C	1.331084	0.257363	0.333349
C72	C	1.664417	0.590696	0.666683
C73	C	0.991839	-0.408712	-0.045230
C74	C	1.325172	-0.075379	0.288104
C75	C	1.658505	0.257955	0.621437
C76	C	0.988257	-0.610385	-0.045238
C77	C	1.321591	-0.277052	0.288095
C78	C	1.654924	0.056282	0.621428
O79	O	0.987777	-0.636458	-0.083697
O80	O	1.321110	-0.303125	0.249636
O81	O	1.654444	0.030209	0.582969
N82	N	0.987790	-0.635604	-0.000018
N83	N	1.321124	-0.302271	0.333316
N84	N	1.654457	0.031063	0.666649
C85	C	0.988213	-0.610401	0.045208
C86	C	1.321547	-0.277067	0.378542
C87	C	1.654880	0.056266	0.711875
O88	O	0.987725	-0.636478	0.083671
O89	O	1.321059	-0.303144	0.417004
O90	O	1.654392	0.030189	0.750338
C91	C	0.991789	-0.408728	0.045217
C92	C	1.325122	-0.075395	0.378550
C93	C	1.658455	0.257939	0.711883
C94	C	0.992264	-0.383512	-0.000007
C95	C	1.325598	-0.050179	0.333326
C96	C	1.658931	0.283154	0.666660
C97	C	0.992313	-0.383496	-0.090449
C98	C	1.325647	-0.050163	0.242884
C99	C	1.658980	0.283170	0.576217
C100	C	0.993213	-0.333081	-0.090447
C101	C	1.326546	0.000252	0.242887
C102	C	1.659880	0.333585	0.576220
C103	C	0.993639	-0.307882	-0.045224
C104	C	1.326972	0.025451	0.288109
C105	C	1.660305	0.358785	0.621442
C106	C	0.993164	-0.333098	-0.000004
C107	C	1.326497	0.000236	0.333329
C108	C	1.659831	0.333569	0.666662
C109	C	0.992206	-0.383525	0.090442
C110	C	1.325539	-0.050192	0.423776
C111	C	1.658872	0.283141	0.757109
C112	C	0.993097	-0.333104	0.090440
C113	C	1.326431	0.000230	0.423774
C114	C	1.659764	0.333563	0.757107
C115	C	0.993573	-0.307888	0.045217
C116	C	1.326906	0.025445	0.378550
C117	C	1.660240	0.358778	0.711883
C118	C	0.994489	-0.257483	0.045221
C119	C	1.327823	0.075850	0.378554
C120	C	1.661156	0.409183	0.711888
N121	N	0.994956	-0.232264	0.000000
N122	N	1.328290	0.101069	0.333334
N123	N	1.661623	0.434402	0.666667
C124	C	0.994531	-0.257464	-0.045222
C125	C	1.327864	0.075870	0.288111
C126	C	1.661198	0.409203	0.621444
C127	C	0.986338	-0.716282	0.045201
C128	C	1.319671	-0.382949	0.378534
C129	C	1.653005	-0.049615	0.711867
C130	C	0.985446	-0.766700	0.045199
C131	C	1.318779	-0.433367	0.378532
C132	C	1.652112	-0.100034	0.711866
C133	C	0.985488	-0.766681	-0.045248
C134	C	1.318821	-0.433348	0.288085
C135	C	1.652155	-0.100014	0.621419
C136	C	0.986386	-0.716262	-0.045246
C137	C	1.319720	-0.382929	0.288088
C138	C	1.653053	-0.049596	0.621421
C139	C	0.986805	-0.691063	-0.000020
C140	C	1.320138	-0.357730	0.333314
C141	C	1.653471	-0.024397	0.666647
C142	C	0.996422	-0.151589	-0.045213
C143	C	1.329755	0.181745	0.288120
C144	C	1.663088	0.515078	0.621453
C145	C	0.997325	-0.101170	-0.045207
C146	C	1.330658	0.232164	0.288127
C147	C	1.663992	0.565497	0.621460
C148	C	0.997278	-0.101193	0.045240
C149	C	1.330611	0.232140	0.378573
C150	C	1.663945	0.565474	0.711907
C151	C	0.996379	-0.151608	0.045234
C152	C	1.329712	0.181725	0.378567
C153	C	1.663046	0.515059	0.711900
C154	C	0.995948	-0.176805	0.000003
C155	C	1.329281	0.156529	0.333336
C156	C	1.662615	0.489862	0.666670
O157	O	0.994961	-0.231378	0.083660
O158	O	1.328294	0.101955	0.416993
O159	O	1.661628	0.435288	0.750327
O160	O	0.995000	-0.231377	-0.083679
O161	O	1.328334	0.101957	0.249654
O162	O	1.661667	0.435290	0.582987
C163	C	0.990939	-0.459127	-0.045232
C164	C	1.324272	-0.125793	0.288101
C165	C	1.657606	0.207540	0.621434
C166	C	0.990464	-0.484342	-0.000012
C167	C	1.323798	-0.151009	0.333321
C168	C	1.657131	0.182324	0.666654
C169	C	0.990890	-0.459143	0.045210
C170	C	1.324223	-0.125810	0.378544
C171	C	1.657556	0.207524	0.711877
C172	C	0.989572	-0.534761	-0.000014
C173	C	1.322905	-0.201427	0.333319
C174	C	1.656239	0.131906	0.666652
C175	C	0.989147	-0.559960	-0.045237
C176	C	1.322480	-0.226627	0.288097
C177	C	1.655813	0.106707	0.621430
C178	C	0.989614	-0.534741	-0.090457
C179	C	1.322947	-0.201408	0.242876
C180	C	1.656280	0.131926	0.576209
C181	C	0.990513	-0.484326	-0.090455
C182	C	1.323847	-0.150993	0.242879
C183	C	1.657180	0.182341	0.576212
C184	C	0.990423	-0.484362	0.090431
C185	C	1.323756	-0.151028	0.423764
C186	C	1.657090	0.182305	0.757098
C187	C	0.989524	-0.534777	0.090425
C188	C	1.322857	-0.201444	0.423758
C189	C	1.656191	0.131890	0.757091
C190	C	0.989099	-0.559976	0.045202
C191	C	1.322432	-0.226643	0.378535
C192	C	1.655765	0.106690	0.711869
C193	C	1.145006	0.062523	-0.000001
C194	C	1.478339	0.395856	0.333332
C195	C	1.811672	0.729189	0.666666
C196	C	1.238242	0.063468	-0.000003
C197	C	1.571575	0.396801	0.333330
C198	C	1.904908	0.730135	0.666663
C199	C	0.984077	0.154440	-0.000015
C200	C	1.317410	0.487774	0.333318
C201	C	1.650744	0.821107	0.666651
C202	C	0.985020	0.208100	-0.000024
C203	C	1.318354	0.541434	0.333310
C204	C	1.651687	0.874767	0.666643
N205	N	0.991328	0.066066	0.129246
N206	N	1.324662	0.399399	0.462579
N207	N	1.657995	0.732732	0.795912
C208	C	1.041948	0.095393	0.473868
C209	C	1.375281	0.428726	0.807201
C210	C	1.708615	0.762060	1.140534
C211	C	1.041973	0.095394	0.682745
C212	C	1.375306	0.428728	1.016079
C213	C	1.708640	0.762061	1.349412
O214	O	1.084992	0.120322	0.709746
O215	O	1.418326	0.453656	1.043079
O216	O	1.751659	0.786989	1.376412
N217	N	0.991425	0.066066	0.708873
N218	N	1.324758	0.399399	1.042206
N219	N	1.658091	0.732732	1.375539
C220	C	0.940870	0.036732	0.682777
C221	C	1.274204	0.370065	1.016111
C222	C	1.607537	0.703399	1.349444
O223	O	0.897883	0.011783	0.709793
O224	O	1.231216	0.345116	1.043126
O225	O	1.564550	0.678449	1.376460
C226	C	0.940850	0.036729	0.473901
C227	C	1.274184	0.370062	0.807234
C228	C	1.607517	0.703395	1.140567
C229	C	0.991396	0.066063	0.447776
C230	C	1.324729	0.399396	0.781109
C231	C	1.658062	0.732730	1.114443
C232	C	1.092490	0.124725	0.447743
C233	C	1.425823	0.458058	0.781076
C234	C	1.759157	0.791391	1.114410
C235	C	1.092480	0.124726	0.395527
C236	C	1.425813	0.458059	0.728860
C237	C	1.759146	0.791393	1.062193
C238	C	1.041927	0.095396	0.369435
C239	C	1.375261	0.428729	0.702768
C240	C	1.708594	0.762062	1.036102
C241	C	0.991386	0.066064	0.395560
C242	C	1.324719	0.399398	0.728893
C243	C	1.658052	0.732731	1.062226
C244	C	0.890301	0.007393	0.447806
C245	C	1.223635	0.340726	0.781140
C246	C	1.556968	0.674060	1.114473
C247	C	0.890302	0.007394	0.395584
C248	C	1.223636	0.340727	0.728917
C249	C	1.556969	0.674060	1.062250
C250	C	0.940848	0.036728	0.369459
C251	C	1.274181	0.370061	0.702792
C252	C	1.607514	0.703395	1.036126
C253	C	0.940823	0.036736	0.317252
C254	C	1.274156	0.370069	0.650585
C255	C	1.607490	0.703402	0.983918
N256	N	0.991372	0.066064	0.291124
N257	N	1.324705	0.399398	0.624458
N258	N	1.658038	0.732731	0.957791
C259	C	1.041924	0.095394	0.317216
C260	C	1.375257	0.428728	0.650549
C261	C	1.708590	0.762061	0.983883
C262	C	0.940883	0.036737	0.792441
C263	C	1.274217	0.370070	1.125774
C264	C	1.607550	0.703403	1.459107
C265	C	0.940887	0.036738	0.844660
C266	C	1.274220	0.370071	1.177993
C267	C	1.607554	0.703405	1.511326
C268	C	1.041991	0.095400	0.844624
C269	C	1.375324	0.428733	1.177957
C270	C	1.708658	0.762066	1.511291
C271	C	1.041982	0.095401	0.792404
C272	C	1.375316	0.428734	1.125737
C273	C	1.708649	0.762067	1.459071
C274	C	0.991432	0.066065	0.766313
C275	C	1.324765	0.399399	1.099647
C276	C	1.658098	0.732732	1.432980
C277	C	1.041898	0.095395	0.207558
C278	C	1.375231	0.428729	0.540891
C279	C	1.708565	0.762062	0.874225
C280	C	1.041881	0.095396	0.155337
C281	C	1.375214	0.428729	0.488670
C282	C	1.708547	0.762062	0.822004
C283	C	0.940780	0.036732	0.155377
C284	C	1.274113	0.370066	0.488711
C285	C	1.607447	0.703399	0.822044
C286	C	0.940794	0.036734	0.207594
C287	C	1.274127	0.370067	0.540927
C288	C	1.607460	0.703400	0.874260
C289	C	0.991359	0.066067	0.233683
C290	C	1.324693	0.399400	0.567016
C291	C	1.658026	0.732733	0.900349
O292	O	0.897834	0.011817	0.290219
O293	O	1.231167	0.345150	0.623552
O294	O	1.564500	0.678483	0.956886
O295	O	1.084919	0.120332	0.290191
O296	O	1.418252	0.453666	0.623525
O297	O	1.751586	0.786999	0.956858
C298	C	1.041958	0.095392	0.526084
C299	C	1.375292	0.428725	0.859417
C300	C	1.708625	0.762058	1.192751
C301	C	0.991416	0.066060	0.552209
C302	C	1.324750	0.399394	0.885542
C303	C	1.658083	0.732727	1.218875
C304	C	0.940864	0.036730	0.526117
C305	C	1.274197	0.370063	0.859450
C306	C	1.607531	0.703397	1.192784
C307	C	0.991420	0.066062	0.604427
C308	C	1.324753	0.399395	0.937761
C309	C	1.658087	0.732728	1.271094
C310	C	1.041972	0.095392	0.630519
C311	C	1.375306	0.428725	0.963852
C312	C	1.708639	0.762058	1.297186
C313	C	1.092521	0.124720	0.604392
C314	C	1.425854	0.458054	0.937725
C315	C	1.759187	0.791387	1.271058
C316	C	1.092510	0.124722	0.552175
C317	C	1.425844	0.458055	0.885509
C318	C	1.759177	0.791389	1.218842
C319	C	0.890316	0.007401	0.552244
C320	C	1.223649	0.340735	0.885578
C321	C	1.556982	0.674068	1.218911
C322	C	0.890329	0.007403	0.604461
C323	C	1.223663	0.340736	0.937794
C324	C	1.556996	0.674069	1.271127
C325	C	0.940881	0.036733	0.630552
C326	C	1.274215	0.370066	0.963886
C327	C	1.607548	0.703400	1.297219
N328	N	0.991439	0.066068	0.870751
N329	N	1.324772	0.399402	1.204085
N330	N	1.658106	0.732735	1.537418
H331	H	0.523283	0.151495	0.000021
H332	H	0.856616	0.484829	0.333354
H333	H	1.189949	0.818162	0.666687
H334	H	0.993597	-0.312555	-0.127273
H335	H	1.326930	0.020778	0.206061
H336	H	1.660264	0.354112	0.539394
H337	H	0.428709	0.107983	0.075476
H338	H	0.762043	0.441316	0.408810
H339	H	1.095376	0.774650	0.742143
Br340	Br	0.821698	-0.032420	0.483248
Br341	Br	1.155031	0.300914	0.816581
Br342	Br	1.488364	0.634247	1.149915
H343	H	0.428787	0.107981	-0.075474
H344	H	0.762120	0.441314	0.257859
H345	H	1.095453	0.774647	0.591193
Br346	Br	0.872174	-0.003069	0.119957
Br347	Br	1.205507	0.330264	0.453291
Br348	Br	1.538841	0.663597	0.786624
Br349	Br	0.821719	-0.032408	0.639909
Br350	Br	1.155052	0.300925	0.973242
Br351	Br	1.488385	0.634258	1.306576
H352	H	0.899718	0.012857	0.865926
H353	H	1.233051	0.346190	1.199259
H354	H	1.566384	0.679524	1.532593
Br355	Br	0.997975	-0.066952	-0.106586
Br356	Br	1.331309	0.266381	0.226748
Br357	Br	1.664642	0.599715	0.560081
H358	H	0.989271	-0.555268	-0.127279
H359	H	1.322604	-0.221934	0.206054
H360	H	1.655938	0.111399	0.539387
H361	H	0.899625	0.012853	0.228866
H362	H	1.232958	0.346187	0.562199
H363	H	1.566292	0.679520	0.895532
H364	H	0.459675	-0.019408	0.000060
H365	H	0.793008	0.313925	0.333394
H366	H	1.126341	0.647258	0.666727
Br367	Br	0.573563	0.011400	-0.098525
Br368	Br	0.906896	0.344734	0.234808
Br369	Br	1.240229	0.678067	0.568141
Br370	Br	0.872255	-0.003070	0.757039
Br371	Br	1.205588	0.330264	1.090373
Br372	Br	1.538922	0.663597	1.423706
Br373	Br	0.821704	-0.032426	0.360178
Br374	Br	1.155037	0.300907	0.693511
Br375	Br	1.488370	0.634241	1.026845
H376	H	0.985071	-0.787227	0.082025
H377	H	1.318405	-0.453894	0.415358
H378	H	1.651738	-0.120561	0.748691
H379	H	0.849150	-0.016484	0.531006
H380	H	1.182484	0.316849	0.864339
H381	H	1.515817	0.650182	1.197672
Br382	Br	1.161122	0.164528	0.639812
Br383	Br	1.494455	0.497862	0.973146
Br384	Br	1.827788	0.831195	1.306479
Br385	Br	1.110524	0.135204	0.242956
Br386	Br	1.443857	0.468538	0.576290
Br387	Br	1.777190	0.801871	0.909623
H388	H	1.083140	0.119288	0.771137
H389	H	1.416473	0.452621	1.104470
H390	H	1.749807	0.785954	1.437803
Br391	Br	1.110599	0.135204	0.880044
Br392	Br	1.443932	0.468537	1.213377
Br393	Br	1.777266	0.801871	1.546710
H394	H	1.133670	0.148609	0.530909
H395	H	1.467003	0.481942	0.864243
H396	H	1.800336	0.815276	1.197576
Br397	Br	0.573239	0.011396	0.098642
Br398	Br	0.906572	0.344729	0.431976
Br399	Br	1.239905	0.678062	0.765309
H400	H	0.996066	-0.172098	-0.082044
H401	H	1.329400	0.161236	0.251289
H402	H	1.662733	0.494569	0.584622
H403	H	0.991964	-0.404008	-0.127277
H404	H	1.325297	-0.070675	0.206056
H405	H	1.658630	0.262659	0.539389
Br406	Br	0.986898	-0.682090	0.106585
Br407	Br	1.320232	-0.348757	0.439918
Br408	Br	1.653565	-0.015423	0.773252
H409	H	1.083040	0.119285	0.134069
H410	H	1.416374	0.452619	0.467402
H411	H	1.749707	0.785952	0.800735
H412	H	0.985142	-0.787207	-0.082070
H413	H	1.318476	-0.453874	0.251263
H414	H	1.651809	-0.120540	0.584597
Br415	Br	0.987031	-0.682047	-0.106622
Br416	Br	1.320365	-0.348713	0.226711
Br417	Br	1.653698	-0.015380	0.560044
H418	H	0.991820	-0.404047	0.127268
H419	H	1.325153	-0.070714	0.460602
H420	H	1.658487	0.262619	0.793935
H421	H	0.996000	-0.172140	0.082058
H422	H	1.329333	0.161193	0.415392
H423	H	1.662666	0.494526	0.748725
H424	H	0.990900	-0.463800	-0.127281
H425	H	1.324233	-0.130467	0.206053
H426	H	1.657567	0.202867	0.539386
H427	H	0.993426	-0.312588	0.127269
H428	H	1.326759	0.020745	0.460603
H429	H	1.660092	0.354078	0.793936
Br430	Br	0.997858	-0.066984	0.106611
Br431	Br	1.331191	0.266349	0.439944
Br432	Br	1.664524	0.599682	0.773277
H433	H	0.989143	-0.555304	0.127254
H434	H	1.322477	-0.221970	0.460587
H435	H	1.655810	0.111363	0.793921
Br436	Br	1.161064	0.164548	0.360080
Br437	Br	1.494398	0.497882	0.693413
Br438	Br	1.827731	0.831215	1.026746
H439	H	0.990771	-0.463850	0.127257
H440	H	1.324104	-0.130516	0.460591
H441	H	1.657437	0.202817	0.793924
H442	H	1.133660	0.148609	0.468981
H443	H	1.466993	0.481942	0.802314
H444	H	1.800327	0.815275	1.135648
