data_functionalizedCrystal
_audit_creation_method	'MofGen! by Chris Wilmer'
_symmetry_space_group_name_H-M	'P1'
_symmetry_Int_Tables_number	1
_symmetry_cell_setting	triclinic
loop_
_symmetry_equiv_pos_as_xyz
  x,y,z
_cell_length_a	10.723024
_cell_length_b	13.596369
_cell_length_c	10.723024
_cell_angle_alpha	90.004807
_cell_angle_beta	95.532131
_cell_angle_gamma	89.994365
loop_
_atom_site_label
_atom_site_type_symbol
_atom_site_fract_x
_atom_site_fract_y
_atom_site_fract_z
O1	O	-1.657190	0.081797	0.175029
O2	O	-1.407190	0.331797	0.425029
O3	O	-1.157190	0.581797	0.675029
O4	O	-0.907190	0.831797	0.925029
O5	O	-1.294037	0.081797	0.191783
O6	O	-1.044037	0.331797	0.441783
O7	O	-0.794037	0.581797	0.691783
O8	O	-0.544037	0.831797	0.941783
O9	O	-1.483990	0.081793	0.001830
O10	O	-1.233990	0.331793	0.251830
O11	O	-0.983990	0.581793	0.501830
O12	O	-0.733990	0.831793	0.751830
O13	O	-1.467237	0.081800	0.364982
O14	O	-1.217237	0.331800	0.614982
O15	O	-0.967237	0.581800	0.864982
O16	O	-0.717237	0.831800	1.114982
O17	O	-1.483971	-0.081790	0.001820
O18	O	-1.233971	0.168210	0.251820
O19	O	-0.983971	0.418210	0.501820
O20	O	-0.733971	0.668210	0.751820
O21	O	-1.294018	-0.081786	0.191772
O22	O	-1.044018	0.168214	0.441772
O23	O	-0.794018	0.418214	0.691772
O24	O	-0.544018	0.668214	0.941772
O25	O	-1.657171	-0.081786	0.175019
O26	O	-1.407171	0.168214	0.425019
O27	O	-1.157171	0.418214	0.675019
O28	O	-0.907171	0.668214	0.925019
Zn29	Zn	-1.475591	-0.107759	0.183394
Zn30	Zn	-1.225591	0.142241	0.433394
Zn31	Zn	-0.975591	0.392241	0.683394
Zn32	Zn	-0.725591	0.642241	0.933394
Zn33	Zn	-1.475617	0.107769	0.183408
Zn34	Zn	-1.225617	0.357769	0.433408
Zn35	Zn	-0.975617	0.607769	0.683408
Zn36	Zn	-0.725617	0.857769	0.933408
O37	O	-1.467218	-0.081783	0.364972
O38	O	-1.217218	0.168217	0.614972
O39	O	-0.967218	0.418217	0.864972
O40	O	-0.717218	0.668217	1.114972
C41	C	-1.247528	0.000005	0.190558
C42	C	-0.997528	0.250005	0.440558
C43	C	-0.747528	0.500005	0.690558
C44	C	-0.497528	0.750005	0.940558
C45	C	-1.108974	0.000005	0.186911
C46	C	-0.858974	0.250005	0.436911
C47	C	-0.608974	0.500005	0.686911
C48	C	-0.358974	0.750005	0.936911
N49	N	-1.475583	-0.254850	0.183384
N50	N	-1.225583	-0.004850	0.433384
N51	N	-0.975583	0.245150	0.683384
N52	N	-0.725583	0.495150	0.933384
C53	C	-0.917217	0.000003	0.073603
C54	C	-0.667217	0.250003	0.323603
C55	C	-0.417217	0.500003	0.573603
C56	C	-0.167217	0.750003	0.823603
C57	C	-1.060420	0.000003	0.077371
C58	C	-0.810420	0.250003	0.327371
C59	C	-0.560420	0.500003	0.577371
C60	C	-0.310420	0.750003	0.827371
C61	C	-1.475615	-0.656141	0.183409
C62	C	-1.225615	-0.406141	0.433409
C63	C	-0.975615	-0.156141	0.683409
C64	C	-0.725615	0.093859	0.933409
C65	C	-1.475602	-0.544490	0.183406
C66	C	-1.225602	-0.294490	0.433406
C67	C	-0.975602	-0.044490	0.683406
C68	C	-0.725602	0.205510	0.933406
C69	C	-1.475600	-0.455499	0.183398
C70	C	-1.225600	-0.205499	0.433398
C71	C	-0.975600	0.044501	0.683398
C72	C	-0.725600	0.294501	0.933398
C73	C	-1.475586	-0.343841	0.183393
C74	C	-1.225586	-0.093841	0.433393
C75	C	-0.975586	0.156159	0.683393
C76	C	-0.725586	0.406159	0.933393
C77	C	-0.703680	0.000005	0.176243
C78	C	-0.453680	0.250005	0.426243
C79	C	-0.203680	0.500005	0.676243
C80	C	0.046320	0.750005	0.926243
C81	C	-0.842234	0.000005	0.179891
C82	C	-0.592234	0.250005	0.429891
C83	C	-0.342234	0.500005	0.679891
C84	C	-0.092234	0.750005	0.929891
C85	C	-1.482762	0.000003	-0.044675
C86	C	-1.232762	0.250003	0.205325
C87	C	-0.982762	0.500003	0.455325
C88	C	-0.732762	0.750003	0.705325
C89	C	-1.479114	0.000006	-0.183229
C90	C	-1.229114	0.250006	0.066771
C91	C	-0.979114	0.500006	0.316771
C92	C	-0.729114	0.750006	0.566771
N93	N	-1.475635	0.254861	0.183408
N94	N	-1.225635	0.504861	0.433408
N95	N	-0.975635	0.754861	0.683408
N96	N	-0.725635	1.004861	0.933408
C97	C	-1.585401	0.000008	-0.258212
C98	C	-1.335401	0.250008	-0.008212
C99	C	-1.085401	0.500008	0.241788
C100	C	-0.835401	0.750008	0.491788
C101	C	-1.581634	0.000011	-0.401415
C102	C	-1.331634	0.250011	-0.151415
C103	C	-1.081634	0.500011	0.098585
C104	C	-0.831634	0.750011	0.348585
C105	C	-1.468447	0.000010	0.411477
C106	C	-1.218447	0.250010	0.661477
C107	C	-0.968447	0.500010	0.911477
C108	C	-0.718447	0.750010	1.161477
C109	C	-1.472094	0.000013	0.550031
C110	C	-1.222094	0.250013	0.800031
C111	C	-0.972094	0.500013	1.050031
C112	C	-0.722094	0.750013	1.300031
H113	H	-0.875395	-0.000014	-0.020182
H114	H	-0.625395	0.249986	0.229818
H115	H	-0.375395	0.499986	0.479818
H116	H	-0.125395	0.749986	0.729818
H117	H	-1.672624	0.000008	-0.465848
H118	H	-1.422624	0.250008	-0.215848
H119	H	-1.172624	0.500008	0.034152
H120	H	-0.922624	0.750008	0.284152
H121	H	-1.124853	0.000007	-0.013619
H122	H	-0.874853	0.250007	0.236381
H123	H	-0.624853	0.500007	0.486381
H124	H	-0.374853	0.750007	0.736381
H125	H	-1.381099	0.000005	-0.385544
H126	H	-1.131099	0.250005	-0.135544
H127	H	-0.881099	0.500005	0.114456
H128	H	-0.631099	0.750005	0.364456
H129	H	-1.044549	0.000011	0.277906
H130	H	-0.794549	0.250011	0.527906
H131	H	-0.544549	0.500011	0.777906
H132	H	-0.294549	0.750011	1.027906
N133	N	-0.897606	0.000007	0.304134
N134	N	-0.647606	0.250007	0.554134
N135	N	-0.397606	0.500007	0.804134
N136	N	-0.147606	0.750007	1.054134
H137	H	-0.951007	-0.060633	0.310548
H138	H	-0.701007	0.189367	0.560548
H139	H	-0.451007	0.439367	0.810548
H140	H	-0.201007	0.689367	1.060548
H141	H	-0.950959	0.060688	0.310478
H142	H	-0.700959	0.310688	0.560478
H143	H	-0.450959	0.560688	0.810478
H144	H	-0.200959	0.810688	1.060478
H145	H	-1.679187	0.000001	-0.216390
H146	H	-1.429187	0.250001	0.033610
H147	H	-1.179187	0.500001	0.283610
H148	H	-0.929187	0.750001	0.533610
H149	H	-1.385328	0.000013	-0.225051
H150	H	-1.135328	0.250013	0.024949
H151	H	-0.885328	0.500013	0.274949
H152	H	-0.635328	0.750013	0.524949
