data_functionalizedCrystal
_audit_creation_method	'MofGen! by Chris Wilmer'
_symmetry_space_group_name_H-M	'P1'
_symmetry_Int_Tables_number	1
_symmetry_cell_setting	triclinic
loop_
_symmetry_equiv_pos_as_xyz
  x,y,z
_cell_length_a	16.793024
_cell_length_b	16.793047
_cell_length_c	33.586455
_cell_angle_alpha	113.253857
_cell_angle_beta	66.219990
_cell_angle_gamma	112.758327
loop_
_atom_site_label
_atom_site_type_symbol
_atom_site_fract_x
_atom_site_fract_y
_atom_site_fract_z
O1	O	0.005016	-0.570216	-0.583573
O2	O	-0.034529	-0.474528	-0.453458
O3	O	0.114723	-0.474535	-0.528082
O4	O	-0.144235	-0.570209	-0.508949
O5	O	0.108729	-0.346329	-0.530229
O6	O	-0.040523	-0.346322	-0.455605
O7	O	-0.000977	-0.442010	-0.585721
Zn8	Zn	-0.021701	-0.373810	-0.521004
Zn9	Zn	-0.013805	-0.542728	-0.518175
O10	O	-0.150229	-0.442003	-0.511097
C11	C	0.005100	-0.790970	-0.238461
C12	C	0.009223	-0.693065	-0.217557
C13	C	0.003804	-0.645758	-0.241627
C14	C	-0.075059	-0.538459	-0.266316
C15	C	0.049838	-0.422849	-0.250165
C16	C	-0.040584	-0.395375	-0.435637
C17	C	-0.044693	-0.353446	-0.386631
C18	C	-0.039275	-0.401741	-0.363054
C19	C	-0.040566	-0.125547	-0.300731
C20	C	-0.044689	-0.223451	-0.321635
C21	C	-0.039266	-0.270752	-0.297563
C22	C	0.039597	-0.378051	-0.272874
C23	C	-0.085304	-0.493667	-0.289026
C24	C	0.005118	-0.521142	-0.103554
C25	C	0.009231	-0.563064	-0.152559
C26	C	0.003809	-0.514775	-0.176138
C27	C	0.010758	-0.652581	-0.172822
C28	C	0.001010	-0.556371	-0.220792
C29	C	-0.008251	-0.506059	-0.245823
C30	C	-0.046224	-0.263935	-0.366370
C31	C	-0.036476	-0.360146	-0.318399
C32	C	-0.027211	-0.410451	-0.293367
C33	C	0.815184	-0.521162	-0.508596
C34	C	0.415541	-0.125553	-0.528781
C35	C	0.375032	-0.223457	-0.531493
C36	C	0.423813	-0.270761	-0.529101
C37	C	0.149318	-0.395376	-0.530584
C38	C	0.246774	-0.353455	-0.532364
C39	C	0.294574	-0.401748	-0.529976
C40	C	0.548961	-0.790984	-0.510398
C41	C	0.286104	-0.263940	-0.532530
C42	C	0.383336	-0.360149	-0.528302
C43	C	0.432207	-0.407971	-0.525810
C44	C	0.392316	-0.497392	-0.524993
C45	C	0.303554	-0.538991	-0.526667
C46	C	0.254683	-0.491169	-0.529159
C47	C	0.263666	-0.628421	-0.525851
C48	C	0.312537	-0.676243	-0.523359
C49	C	0.401299	-0.634644	-0.521685
C50	C	0.441190	-0.545223	-0.522502
C51	C	0.529952	-0.503624	-0.520828
C52	C	0.578823	-0.551446	-0.518336
C53	C	0.538939	-0.640864	-0.517520
C54	C	0.450177	-0.682463	-0.519194
C55	C	0.587810	-0.688687	-0.515028
C56	C	0.676572	-0.647088	-0.513354
C57	C	0.716463	-0.557666	-0.514172
C58	C	0.667586	-0.509847	-0.516662
C59	C	0.569840	-0.414195	-0.521644
C60	C	0.658602	-0.372596	-0.519970
C61	C	0.707476	-0.420426	-0.517480
C62	C	0.698493	-0.283174	-0.520788
C63	C	0.649622	-0.235352	-0.523280
C64	C	0.560860	-0.276951	-0.524954
C65	C	0.520969	-0.366372	-0.524136
C66	C	0.511989	-0.229129	-0.527446
C67	C	-0.040530	-0.395407	-0.935652
C68	C	0.005063	-0.791004	-0.738448
C69	C	0.009186	-0.693099	-0.717543
C70	C	0.003779	-0.645796	-0.741620
C71	C	0.005077	-0.521171	-0.603544
C72	C	0.009198	-0.563096	-0.652550
C73	C	0.003786	-0.514804	-0.676131
C74	C	-0.040516	-0.125574	-0.800747
C75	C	0.010719	-0.652613	-0.672809
C76	C	0.000994	-0.556406	-0.720789
C77	C	-0.004621	-0.508585	-0.744908
C78	C	-0.007444	-0.419162	-0.724369
C79	C	-0.004651	-0.377560	-0.679711
C80	C	0.000964	-0.425381	-0.655592
C81	C	-0.007471	-0.288129	-0.659174
C82	C	-0.013086	-0.240308	-0.683293
C83	C	-0.015878	-0.281910	-0.727951
C84	C	-0.013056	-0.371333	-0.748490
C85	C	-0.015848	-0.412935	-0.793148
C86	C	-0.021463	-0.365114	-0.817267
C87	C	-0.024282	-0.275694	-0.796731
C88	C	-0.021490	-0.234092	-0.752073
C89	C	-0.029897	-0.227873	-0.820850
C90	C	-0.032690	-0.269476	-0.865508
C91	C	-0.029867	-0.358899	-0.886047
C92	C	-0.024255	-0.406717	-0.861925
C93	C	-0.013028	-0.502367	-0.813685
C94	C	-0.015821	-0.543969	-0.858343
C95	C	-0.021433	-0.496140	-0.882464
C96	C	-0.012998	-0.633392	-0.878882
C97	C	-0.007383	-0.681213	-0.854763
C98	C	-0.004591	-0.639611	-0.810105
C99	C	-0.007414	-0.550188	-0.789566
C100	C	0.001024	-0.687432	-0.785986
O101	O	-0.000965	0.173549	-0.277957
O102	O	-0.040516	-0.085616	-0.325254
O103	O	0.108737	0.059592	-0.327284
O104	O	-0.150219	0.028341	-0.275927
O105	O	0.114753	0.055151	-0.263265
O106	O	-0.034500	-0.090057	-0.261234
O107	O	0.005051	0.169108	-0.213937
Zn108	Zn	-0.013769	0.038820	-0.227421
Zn109	Zn	-0.021696	0.044672	-0.311770
O110	O	-0.144202	0.023900	-0.211907
O111	O	-0.034458	-0.474571	0.046517
O112	O	0.005076	-0.570190	-0.083599
O113	O	-0.144170	-0.570237	-0.008972
O114	O	0.114787	-0.474523	-0.028110
O115	O	-0.150200	-0.442024	-0.011093
O116	O	-0.000954	-0.441976	-0.085720
O117	O	-0.040488	-0.346357	0.044396
Zn118	Zn	-0.021679	-0.373810	-0.020999
Zn119	Zn	-0.013734	-0.542737	-0.018204
O120	O	0.108757	-0.346309	-0.030231
C121	C	-0.850734	0.086244	-0.289716
C122	C	-0.753280	0.087165	-0.312001
C123	C	-0.705462	0.081107	-0.288506
C124	C	-0.599592	0.000085	-0.264184
C125	C	-0.481080	0.121287	-0.283645
C126	C	-0.450996	0.035117	-0.097351
C127	C	-0.410501	0.028587	-0.146852
C128	C	-0.459292	0.034683	-0.169840
C129	C	-0.184802	0.024283	-0.235878
C130	C	-0.282257	0.023363	-0.213592
C131	C	-0.330068	0.029423	-0.237088
C132	C	-0.435938	0.110445	-0.261411
C133	C	-0.554456	-0.010759	-0.241948
C134	C	-0.584541	0.075410	-0.428242
C135	C	-0.625029	0.081943	-0.378743
C136	C	-0.576244	0.075844	-0.355753
C137	C	-0.713963	0.086424	-0.357292
C138	C	-0.616708	0.075351	-0.310510
C139	C	-0.565963	0.065400	-0.286043
C140	C	-0.321573	0.024104	-0.168302
C141	C	-0.418828	0.035176	-0.215083
C142	C	-0.469568	0.045131	-0.239552
O143	O	0.585213	0.169090	-0.504004
O144	O	0.494056	-0.090076	-0.525516
O145	O	0.488081	0.055124	-0.449918
O146	O	0.591189	0.023889	-0.579602
O147	O	0.359978	0.059584	-0.452885
O148	O	0.365953	-0.085616	-0.528483
O149	O	0.457110	0.173550	-0.506971
Zn150	Zn	0.391193	0.044675	-0.518198
Zn151	Zn	0.559974	0.038798	-0.514289
O152	O	0.463086	0.028349	-0.582569
C153	C	0.815354	-0.521094	-0.008709
C154	C	0.717898	-0.563028	-0.006927
C155	C	0.670072	-0.514739	-0.009298
C156	C	0.564182	-0.463204	-0.048354
C157	C	0.445681	-0.498945	0.013847
C158	C	0.415547	-0.125494	-0.028771
C159	C	0.375059	-0.223405	-0.031498
C160	C	0.423859	-0.270708	-0.029121
C161	C	0.149365	-0.395355	-0.030599
C162	C	0.246820	-0.353421	-0.032381
C163	C	0.294640	-0.401713	-0.030008
C164	C	0.400530	-0.453248	0.009048
C165	C	0.519038	-0.417504	-0.053155
C166	C	0.549171	-0.790955	-0.010537
C167	C	0.589653	-0.693047	-0.007809
C168	C	0.540859	-0.645741	-0.010187
C169	C	0.678588	-0.652551	-0.006775
C170	C	0.581317	-0.556344	-0.010973
C171	C	0.530562	-0.506029	-0.015250
C172	C	0.286131	-0.263897	-0.032533
C173	C	0.383402	-0.360104	-0.028335
C174	C	0.434150	-0.410423	-0.024057
O175	O	-0.620614	0.089309	0.052274
O176	O	-0.529507	0.043784	-0.078544
O177	O	-0.523494	0.194833	-0.006033
O178	O	-0.626628	-0.061740	-0.020236
O179	O	-0.395386	0.185419	-0.005549
O180	O	-0.401400	0.034370	-0.078059
O181	O	-0.492507	0.079895	0.052758
Zn182	Zn	-0.426614	0.055638	-0.012574
Zn183	Zn	-0.595401	0.068041	-0.013212
O184	O	-0.498521	-0.071154	-0.019752
C185	C	-0.437537	0.048335	0.402491
C186	C	-0.397043	0.041789	0.352989
C187	C	-0.445822	0.047883	0.329994
C188	C	-0.496646	0.126653	0.277022
C189	C	-0.465894	-0.000633	0.218811
C190	C	-0.837226	0.099430	0.210091
C191	C	-0.739773	0.100339	0.187806
C192	C	-0.691967	0.094287	0.211308
C193	C	-0.571027	0.088563	0.071568
C194	C	-0.611521	0.095108	0.121070
C195	C	-0.562739	0.089011	0.144061
C196	C	-0.511915	0.010241	0.197033
C197	C	-0.542670	0.137531	0.255247
C198	C	-0.171338	0.037467	0.263967
C199	C	-0.268788	0.036555	0.286249
C200	C	-0.316597	0.042611	0.262750
C201	C	-0.308112	0.037305	0.331542
C202	C	-0.405351	0.048369	0.284750
C203	C	-0.456092	0.058317	0.260279
C204	C	-0.700452	0.099593	0.142516
C205	C	-0.603213	0.088528	0.189308
C206	C	-0.552469	0.078578	0.213776
O207	O	-0.040608	-1.085661	-0.825229
O208	O	-0.001018	-0.826491	-0.777938
O209	O	-0.150287	-0.971682	-0.775894
O210	O	0.108661	-0.940470	-0.827272
O211	O	-0.144253	-0.976123	-0.711878
O212	O	0.005016	-0.830932	-0.713922
O213	O	-0.034575	-1.090102	-0.761213
Zn214	Zn	-0.013821	-0.961222	-0.727403
Zn215	Zn	-0.021771	-0.955371	-0.811747
O216	O	0.114695	-0.944911	-0.763256
O217	O	-0.036816	-0.230509	-0.253950
C218	C	-0.111405	-0.277868	-0.225319
H219	H	-0.136412	-0.349914	-0.245937
H220	H	-0.090117	-0.278715	-0.197297
H221	H	-0.167999	-0.243272	-0.209571
O222	O	0.688483	-0.148157	-0.524133
C223	C	0.689834	-0.139829	-0.564577
H224	H	0.635013	-0.197536	-0.578341
H225	H	0.676869	-0.072945	-0.557372
H226	H	0.758708	-0.142271	-0.590721
O227	O	-0.277450	0.042975	0.218594
C228	C	-0.339574	0.049620	0.202464
H229	H	-0.392462	0.081095	0.232299
H230	H	-0.302231	0.093557	0.178319
H231	H	-0.374262	-0.020416	0.183729
O232	O	-0.024274	-0.536669	-0.926008
C233	C	-0.105270	-0.536270	-0.929226
H234	H	-0.132051	-0.479766	-0.900187
H235	H	-0.091738	-0.525089	-0.962983
H236	H	-0.157514	-0.603630	-0.927111
O237	O	-0.532514	0.053191	0.351323
C238	C	-0.590436	-0.020436	0.328433
H239	H	-0.556928	-0.077803	0.308428
H240	H	-0.656826	-0.044074	0.354183
H241	H	-0.604393	0.001032	0.304179
O242	O	0.003839	-0.384804	-0.612057
C243	C	0.084807	-0.385262	-0.608836
H244	H	0.137458	-0.391746	-0.643622
H245	H	0.110936	-0.319777	-0.583886
H246	H	0.071502	-0.444629	-0.596396
O247	O	-0.489604	0.070354	-0.377054
C248	C	-0.454972	0.064828	-0.346619
H249	H	-0.513271	0.037882	-0.318595
H250	H	-0.409429	0.017514	-0.365606
H251	H	-0.414209	0.134616	-0.331044
H252	H	-0.267732	0.034117	0.350946
H253	H	-0.740818	0.102779	0.123104
O254	O	0.794036	-0.379935	-0.515799
C255	C	0.800483	-0.380347	-0.475309
H256	H	0.743129	-0.436822	-0.462284
H257	H	0.868126	-0.391582	-0.482160
H258	H	0.795410	-0.312971	-0.448742
O259	O	0.273493	-0.763425	-0.522507
C260	C	0.196392	-0.768299	-0.484355
H261	H	0.170514	-0.706926	-0.473038
H262	H	0.141435	-0.832099	-0.493611
H263	H	0.214880	-0.769816	-0.455565
O264	O	-0.015740	-0.674113	-0.922434
C265	C	-0.011999	-0.763653	-0.935449
H266	H	-0.036404	-0.787161	-0.903928
H267	H	-0.057181	-0.808907	-0.958192
H268	H	0.060610	-0.767296	-0.954751
H269	H	0.013347	-0.692513	-0.652885
H270	H	0.107243	-0.392097	-0.234140
H271	H	-0.489994	0.175891	0.311254
O272	O	0.411281	-0.769736	-0.518482
C273	C	0.385809	-0.821423	-0.558371
H274	H	0.428159	-0.786089	-0.586077
H275	H	0.397462	-0.890695	-0.570021
H276	H	0.311209	-0.829280	-0.551270
H277	H	0.771070	-0.249160	-0.519423
O278	O	0.717385	-0.691557	-0.504535
C279	C	0.742594	-0.639472	-0.464605
H280	H	0.698860	-0.590832	-0.442985
H281	H	0.732610	-0.685712	-0.444654
H282	H	0.816694	-0.599756	-0.473888
H283	H	0.496488	-0.236853	-0.027824
O284	O	-0.580322	0.207600	0.274144
C285	C	-0.562473	0.258856	0.315952
H286	H	-0.500118	0.247484	0.316303
H287	H	-0.549874	0.333293	0.320601
H288	H	-0.622994	0.237240	0.344760
O289	O	-0.519796	-0.048603	0.156209
C290	C	-0.474826	-0.114284	0.143785
H291	H	-0.469517	-0.119214	0.175476
H292	H	-0.514462	-0.182248	0.125908
H293	H	-0.404135	-0.094503	0.119924
H294	H	0.245727	-0.224039	-0.533582
O295	O	0.238083	-0.216167	-0.033781
C296	C	0.292489	-0.127750	-0.033655
H297	H	0.366804	-0.126963	-0.046930
H298	H	0.277157	-0.103461	-0.056363
H299	H	0.277501	-0.081331	0.002431
H300	H	-0.724884	0.094041	0.248327
H301	H	0.191099	-0.662437	-0.527221
O302	O	-0.004505	-0.768407	-0.874767
C303	C	0.076498	-0.776708	-0.875486
H304	H	0.103244	-0.718984	-0.847692
H305	H	0.062989	-0.843580	-0.869440
H306	H	0.128759	-0.774273	-0.909906
O307	O	0.726878	-0.700118	-0.005592
C308	C	0.803693	-0.702979	-0.044010
H309	H	0.821201	-0.643902	-0.057536
H310	H	0.863139	-0.698492	-0.034171
H311	H	0.788855	-0.768856	-0.071387
O312	O	0.550904	-0.141855	-0.528153
C313	C	0.576295	-0.090190	-0.488240
H314	H	0.584996	-0.135966	-0.473562
H315	H	0.642836	-0.036863	-0.496508
H316	H	0.521587	-0.055963	-0.462377
H317	H	0.088092	-0.309407	-0.275738
H318	H	-0.434254	-0.059305	0.203012
H319	H	-0.738384	0.080845	-0.251490
H320	H	-0.005182	-0.254109	-0.622664
H321	H	-0.015393	-0.167196	-0.666497
O322	O	-0.024127	-0.146825	-0.732105
C323	C	0.050353	-0.091704	-0.756906
H324	H	0.075435	-0.133820	-0.793206
H325	H	0.028902	-0.035359	-0.757214
H326	H	0.106946	-0.061358	-0.740352
O327	O	0.001393	-0.686046	-0.285244
C328	C	0.075954	-0.638659	-0.313873
H329	H	0.131881	-0.599562	-0.296851
H330	H	0.102073	-0.688335	-0.347407
H331	H	0.054200	-0.589764	-0.320512
O332	O	0.709377	-0.427441	-0.009911
C333	C	0.734837	-0.376156	0.030011
H334	H	0.743205	-0.422269	0.044612
H335	H	0.801567	-0.323025	0.021780
H336	H	0.680328	-0.341704	0.055921
O337	O	0.168155	-0.531881	-0.530852
C338	C	0.166688	-0.607027	-0.569530
H339	H	0.229298	-0.630990	-0.580600
H340	H	0.103473	-0.663585	-0.561063
H341	H	0.166107	-0.587273	-0.598200
O342	O	0.003905	-0.774625	-0.805990
C343	C	0.084908	-0.782922	-0.806707
H344	H	0.111650	-0.725199	-0.778912
H345	H	0.071401	-0.849795	-0.800662
H346	H	0.137171	-0.780484	-0.841126
O347	O	0.001203	-0.427527	-0.155979
C348	C	-0.004227	-0.393587	-0.186811
H349	H	-0.033486	-0.451829	-0.213645
H350	H	-0.049818	-0.346321	-0.167822
H351	H	0.066230	-0.355165	-0.203897
O352	O	0.013741	-0.700201	-0.149016
C353	C	-0.062937	-0.702866	-0.110564
H354	H	-0.119195	-0.691379	-0.116654
H355	H	-0.086936	-0.771435	-0.104206
H356	H	-0.044687	-0.647943	-0.079738
O357	O	-0.036871	-0.489044	-0.383227
C358	C	-0.111427	-0.544280	-0.358521
H359	H	-0.167353	-0.508720	-0.338214
H360	H	-0.137550	-0.610644	-0.383002
H361	H	-0.089665	-0.558142	-0.334369
O362	O	-0.592488	-0.077556	-0.221307
C363	C	-0.601992	-0.039709	-0.174501
H364	H	-0.603509	0.033214	-0.163897
H365	H	-0.667678	-0.079642	-0.154620
H366	H	-0.542478	-0.042094	-0.167139
O367	O	-0.545898	0.040270	-0.148516
C368	C	-0.552378	0.121351	-0.148707
H369	H	-0.494958	0.145849	-0.177703
H370	H	-0.619973	0.109369	-0.153490
H371	H	-0.547444	0.174398	-0.115085
O372	O	-0.133041	-0.620292	-0.262866
C373	C	-0.221887	-0.611719	-0.240510
H374	H	-0.226742	-0.549238	-0.244190
H375	H	-0.271048	-0.673845	-0.256253
H376	H	-0.239715	-0.605145	-0.203012
O377	O	-0.153818	-0.530207	-0.308117
C378	C	-0.210224	-0.472209	-0.289035
H379	H	-0.170661	-0.400768	-0.274600
H380	H	-0.234830	-0.473288	-0.316351
H381	H	-0.270791	-0.495672	-0.260725
H382	H	0.634201	-0.467612	-0.072637
O383	O	0.557149	-0.377437	-0.087142
C384	C	0.642848	-0.392740	-0.112544
H385	H	0.645819	-0.455358	-0.108138
H386	H	0.654689	-0.403108	-0.149934
H387	H	0.697333	-0.332131	-0.100104
O388	O	-0.050616	-0.224902	-0.885685
C389	C	0.022517	-0.210258	-0.924357
H390	H	0.062000	-0.261850	-0.936833
H391	H	-0.004192	-0.217541	-0.952248
H392	H	0.068878	-0.139544	-0.915261
H393	H	-0.048864	-0.224020	-0.386283
O394	O	-0.273345	0.020181	-0.145217
C395	C	-0.246160	-0.060075	-0.166555
H396	H	-0.245245	-0.085233	-0.203576
H397	H	-0.175576	-0.046610	-0.164748
H398	H	-0.295675	-0.113277	-0.148597
O399	O	-0.443235	0.188167	-0.304224
C400	C	-0.502776	0.185671	-0.324895
H401	H	-0.574769	0.150419	-0.307664
H402	H	-0.498995	0.257314	-0.321352
H403	H	-0.482710	0.147262	-0.362384
O404	O	0.454215	-0.685995	-0.011752
C405	C	0.419571	-0.624177	-0.014032
H406	H	0.477864	-0.569704	-0.028294
H407	H	0.374013	-0.660912	-0.037064
H408	H	0.378823	-0.591930	0.021419
O409	O	-0.290821	0.029578	-0.281271
C410	C	-0.265315	-0.050930	-0.307266
H411	H	-0.307875	-0.105068	-0.288962
H412	H	-0.276655	-0.074108	-0.341830
H413	H	-0.190794	-0.038714	-0.312025
O414	O	-0.352359	0.166089	-0.260001
C415	C	-0.293314	0.158499	-0.304536
H416	H	-0.334235	0.132541	-0.329342
H417	H	-0.244848	0.227346	-0.307032
H418	H	-0.253112	0.109474	-0.313246
H419	H	-0.754334	0.089615	-0.376700
H420	H	-0.490116	0.084434	0.126151
O421	O	-0.683138	-0.055627	-0.265625
C422	C	-0.707868	-0.118506	-0.241797
H423	H	-0.668062	-0.090304	-0.216322
H424	H	-0.783297	-0.132033	-0.223053
H425	H	-0.692243	-0.184027	-0.266746
H426	H	0.261721	-0.474856	-0.029430
H427	H	0.330510	-0.448858	0.033327
O428	O	0.407550	-0.539055	0.047818
C429	C	0.321877	-0.523702	0.073241
H430	H	0.294950	-0.508609	0.051551
H431	H	0.273336	-0.586155	0.084145
H432	H	0.328066	-0.463930	0.104584
