data_functionalizedCrystal
_audit_creation_method	'MofGen! by Chris Wilmer'
_symmetry_space_group_name_H-M	'P1'
_symmetry_Int_Tables_number	1
_symmetry_cell_setting	triclinic
loop_
_symmetry_equiv_pos_as_xyz
  x,y,z
_cell_length_a	10.685980
_cell_length_b	17.641144
_cell_length_c	10.685880
_cell_angle_alpha	104.555371
_cell_angle_beta	80.918858
_cell_angle_gamma	83.995976
loop_
_atom_site_label
_atom_site_type_symbol
_atom_site_fract_x
_atom_site_fract_y
_atom_site_fract_z
Zn1	Zn	2.086656	-0.260366	-0.957774
Zn2	Zn	2.113114	-0.383132	-0.788473
Zn3	Zn	1.858110	-0.260408	-0.729261
Zn4	Zn	1.923770	-0.401873	-0.990933
O5	O	1.995412	-0.326445	-0.866610
O6	O	2.265053	-0.268791	-0.946219
O7	O	2.062881	-0.359026	-0.600254
O8	O	1.849876	-0.149822	-0.720916
O9	O	2.284492	-0.358986	-0.821834
O10	O	2.017787	-0.149791	-0.888804
O11	O	1.875531	-0.268862	-0.556752
O12	O	1.691932	-0.287034	-0.753070
O13	O	1.961783	-0.390927	-1.166899
O14	O	1.740172	-0.390968	-0.945319
O15	O	2.081455	-0.286963	-1.142537
O16	O	2.126548	-0.496199	-0.853987
O17	O	1.987439	-0.509968	-1.002734
C18	C	1.670706	-0.341040	-0.846368
C19	C	1.531805	-0.347304	-0.837746
C20	C	2.067026	-0.531755	-0.938414
C21	C	2.097781	-0.619585	-0.969183
C22	C	1.762238	-0.908786	-0.633055
C23	C	1.791157	-0.991314	-0.661970
C24	C	1.965829	-0.991166	-0.836862
C25	C	1.936920	-0.908636	-0.807965
C26	C	1.835124	-0.867453	-0.706059
C27	C	2.009807	-0.867303	-0.880970
C28	C	1.980904	-0.784780	-0.852071
C29	C	1.879115	-0.743590	-0.750167
C30	C	1.806221	-0.784930	-0.677160
C31	C	2.111608	-0.908487	-0.982869
C32	C	2.184494	-0.867154	-1.055873
C33	C	2.155586	-0.784630	-1.026981
C34	C	2.053797	-0.743441	-0.925077
C35	C	2.228480	-0.743291	-1.099988
C36	C	2.199577	-0.660768	-1.071089
C37	C	2.024894	-0.660918	-0.896178
C38	C	2.321387	-0.311793	-0.886932
C39	C	2.460298	-0.305549	-0.895592
C40	C	2.025992	-0.341031	-1.202792
C41	C	2.039023	-0.347247	-1.346052
C42	C	1.923556	-0.120332	-0.794556
C43	C	1.892935	-0.032499	-0.763851
C44	C	1.965004	-0.311855	-0.531721
C45	C	1.952137	-0.305406	-0.388399
H46	H	1.941993	-0.627386	-0.813205
H47	H	2.048715	-1.024708	-0.919830
H48	H	2.123390	-0.387828	-1.419405
O49	O	1.513809	-0.257119	-0.962557
C50	C	1.480327	-0.164771	-1.090584
C51	C	1.419546	-0.219573	-1.014760
H52	H	1.404150	-0.134413	-1.132834
H53	H	1.521571	-0.118059	-1.020843
H54	H	1.560295	-0.201321	-1.174292
H55	H	1.339531	-0.183089	-0.931051
H56	H	1.378389	-0.266287	-1.084587
H57	H	1.486755	-0.387846	-0.781615
O58	O	1.850802	-0.663438	-0.722080
C59	C	1.692526	-0.551908	-0.706240
C60	C	1.724412	-0.642687	-0.738055
H61	H	1.590349	-0.535102	-0.719171
H62	H	1.701517	-0.523968	-0.600201
H63	H	1.762156	-0.529448	-0.775892
H64	H	1.654810	-0.665216	-0.668491
H65	H	1.715462	-0.670573	-0.844125
H66	H	1.723320	-0.751397	-0.594187
H67	H	1.679337	-0.875253	-0.550082
H68	H	1.731796	-1.024965	-0.602515
O69	O	2.139709	-0.988661	-1.011182
C70	C	2.160168	-1.113891	-1.174166
C71	C	2.128340	-1.023106	-1.142288
H72	H	2.150962	-1.141769	-1.280156
H73	H	2.262399	-1.130775	-1.161456
H74	H	2.090610	-1.136343	-1.104437
H75	H	2.197813	-1.000590	-1.211991
H76	H	2.026078	-1.006276	-1.154958
O77	O	2.283284	-0.907093	-1.155017
C78	C	2.372444	-0.939111	-1.386925
C79	C	2.260508	-0.893825	-1.274754
H80	H	2.354055	-0.928414	-1.483763
H81	H	2.465521	-0.917317	-1.365091
H82	H	2.380584	-1.005184	-1.394968
H83	H	2.252249	-0.827745	-1.266649
H84	H	2.167488	-0.915684	-1.296634
H85	H	2.311370	-0.776834	-1.182950
O86	O	2.270260	-0.620659	-1.142196
C87	C	2.341858	-0.602150	-1.356401
C88	C	2.261738	-0.647621	-1.276029
H89	H	2.335017	-0.623942	-1.464624
H90	H	2.303710	-0.536091	-1.318343
H91	H	2.446248	-0.612791	-1.345739
H92	H	2.157332	-0.637045	-1.286656
H93	H	2.299992	-0.713664	-1.314106
H94	H	1.867772	-0.264830	-1.315055
