data_functionalizedCrystal
_audit_creation_method	'MofGen! by Chris Wilmer'
_symmetry_space_group_name_H-M	'P1'
_symmetry_Int_Tables_number	1
_symmetry_cell_setting	triclinic
loop_
_symmetry_equiv_pos_as_xyz
  x,y,z
_cell_length_a	6.817900
_cell_length_b	11.102188
_cell_length_c	11.102300
_cell_angle_alpha	91.947812
_cell_angle_beta	108.605850
_cell_angle_gamma	108.603875
loop_
_atom_site_label
_atom_site_type_symbol
_atom_site_fract_x
_atom_site_fract_y
_atom_site_fract_z
V1	V	-4.111521	-0.175839	-0.396257
O2	O	-4.070563	0.008450	-0.388713
O3	O	-4.088288	-0.348659	-0.393547
O4	O	-4.088302	-0.173134	-0.569078
O5	O	-4.070550	-0.168290	-0.211967
V6	V	-4.588625	-0.153795	-0.374214
O7	O	-4.386860	-0.224192	-0.444609
O8	O	-4.763483	-0.105442	-0.325862
O9	O	-4.388650	0.019025	-0.376924
O10	O	-4.746979	-0.338084	-0.381757
O11	O	-4.746992	-0.161344	-0.558503
O12	O	-4.388637	-0.156500	-0.201393
C13	C	-3.938597	-0.390788	-0.387295
C14	C	-4.001056	-0.532071	-0.386232
C15	C	-3.970232	-0.580297	-0.269348
C16	C	-4.028943	-0.713048	-0.268353
C17	C	-4.149296	-0.749338	-0.501137
C18	C	-4.090599	-0.616589	-0.502131
C19	C	-3.938613	-0.166887	-0.611201
C20	C	-4.001079	-0.165819	-0.752483
C21	C	-4.214436	-0.171665	-0.825332
C22	C	-4.273116	-0.170657	-0.958081
C23	C	-3.905061	-0.157963	-0.945120
C24	C	-3.846380	-0.158961	-0.812373
C25	C	-4.201684	0.061148	-0.383172
C26	C	-4.118464	0.202429	-0.384244
C27	C	-4.201668	-0.162751	-0.159263
C28	C	-4.118439	-0.163812	-0.017979
H29	H	-4.222204	-0.818168	-0.595498
C30	C	-3.851656	-0.835209	-0.126217
C31	C	-3.995085	-0.766071	-0.139877
H32	H	-3.830777	-0.867951	-0.046903
H33	H	-3.713546	-0.780045	-0.127370
H34	H	-3.913396	-0.904536	-0.195108
H35	H	-3.933337	-0.696738	-0.070992
H36	H	-4.133220	-0.821238	-0.138713
C37	C	-3.623689	-0.262563	-0.672745
C38	C	-3.611856	-0.152595	-0.732320
H39	H	-3.478912	-0.258639	-0.623329
H40	H	-3.692779	-0.336865	-0.736428
H41	H	-3.707375	-0.266750	-0.618057
H42	H	-3.528183	-0.148413	-0.787016
H43	H	-3.542734	-0.078272	-0.668630
H44	H	-4.115716	-0.577326	-0.597318
H45	H	-4.446846	-0.175415	-1.017389
H46	H	-3.779121	-0.152382	-0.993899
C47	C	-3.857218	-0.557767	-0.039154
C48	C	-3.871851	-0.487395	-0.141955
H49	H	-3.796504	-0.500414	0.039492
H50	H	-3.764888	-0.606151	-0.039542
H51	H	-4.000349	-0.614446	-0.047686
H52	H	-3.728717	-0.430722	-0.133428
H53	H	-3.964182	-0.438989	-0.141566
H54	H	-4.340404	-0.177247	-0.776574
