data_functionalizedCrystal
_audit_creation_method	'MofGen! by Chris Wilmer'
_symmetry_space_group_name_H-M	'P1'
_symmetry_Int_Tables_number	1
_symmetry_cell_setting	triclinic
loop_
_symmetry_equiv_pos_as_xyz
  x,y,z
_cell_length_a	23.532355
_cell_length_b	23.532407
_cell_length_c	22.610064
_cell_angle_alpha	90.002995
_cell_angle_beta	90.008169
_cell_angle_gamma	82.838088
loop_
_atom_site_label
_atom_site_type_symbol
_atom_site_fract_x
_atom_site_fract_y
_atom_site_fract_z
O1	O	0.755287	0.068988	0.049110
O2	O	1.088621	0.402321	0.382443
O3	O	1.421954	0.735654	0.715777
O4	O	0.589420	0.079022	0.049130
O5	O	0.922753	0.412355	0.382463
O6	O	1.256086	0.745689	0.715796
O7	O	0.677355	-0.008928	0.049108
O8	O	1.010689	0.324406	0.382442
O9	O	1.344022	0.657739	0.715775
O10	O	0.667352	0.156937	0.049131
O11	O	1.000685	0.490271	0.382465
O12	O	1.334018	0.823604	0.715798
O13	O	0.677330	-0.008918	-0.049261
O14	O	1.010664	0.324416	0.284073
O15	O	1.343997	0.657749	0.617406
O16	O	0.589395	0.079032	-0.049239
O17	O	0.922728	0.412365	0.284094
O18	O	1.256062	0.745699	0.617427
O19	O	0.755263	0.068998	-0.049259
O20	O	1.088596	0.402331	0.284074
O21	O	1.421929	0.735664	0.617408
Zn22	Zn	0.672325	0.074016	-0.064868
Zn23	Zn	1.005658	0.407350	0.268466
Zn24	Zn	1.338991	0.740683	0.601799
Zn25	Zn	0.672357	0.074003	0.064738
Zn26	Zn	1.005691	0.407337	0.398071
Zn27	Zn	1.339024	0.740670	0.731405
O28	O	0.667327	0.156947	-0.049238
O29	O	1.000660	0.490281	0.284095
O30	O	1.333994	0.823614	0.617429
C31	C	0.568191	0.078776	-0.000052
C32	C	0.901524	0.412109	0.333281
C33	C	1.234857	0.745443	0.666614
C34	C	0.504972	0.078022	-0.000045
C35	C	0.838305	0.411355	0.333288
C36	C	1.171639	0.744689	0.666621
C37	C	0.112945	0.073289	-0.053692
C38	C	0.446278	0.406623	0.279641
C39	C	0.779611	0.739956	0.612975
C40	C	0.053545	0.072572	-0.053694
C41	C	0.386879	0.405905	0.279639
C42	C	0.720212	0.739239	0.612972
O43	O	0.022815	0.072186	-0.099296
O44	O	0.356149	0.405520	0.234037
O45	O	0.689482	0.738853	0.567370
N46	N	0.023850	0.072211	-0.000074
N47	N	0.357184	0.405544	0.333260
N48	N	0.690517	0.738877	0.666593
C49	C	0.053559	0.072561	0.053553
C50	C	0.386892	0.405894	0.386887
C51	C	0.720225	0.739228	0.720220
O52	O	0.022847	0.072187	0.099162
O53	O	0.356180	0.405521	0.432495
O54	O	0.689513	0.738854	0.765828
C55	C	0.112958	0.073274	0.053555
C56	C	0.446291	0.406608	0.386888
C57	C	0.779624	0.739941	0.720222
C58	C	0.142649	0.073641	-0.000069
C59	C	0.475982	0.406975	0.333264
C60	C	0.809315	0.740308	0.666597
C61	C	0.142636	0.073656	-0.107312
C62	C	0.475969	0.406989	0.226021
C63	C	0.809303	0.740322	0.559355
C64	C	0.202031	0.074374	-0.107309
C65	C	0.535365	0.407708	0.226024
C66	C	0.868698	0.741041	0.559357
C67	C	0.231735	0.074726	-0.053687
C68	C	0.565068	0.408060	0.279647
C69	C	0.898402	0.741393	0.612980
C70	C	0.202044	0.074360	-0.000067
C71	C	0.535377	0.407693	0.333267
C72	C	0.868711	0.741027	0.666600
C73	C	0.142665	0.073621	0.107181
C74	C	0.475999	0.406954	0.440514
C75	C	0.809332	0.740288	0.773848
C76	C	0.202068	0.074334	0.107178
C77	C	0.535402	0.407667	0.440511
C78	C	0.868735	0.741000	0.773845
C79	C	0.231759	0.074701	0.053554
C80	C	0.565093	0.408034	0.386887
C81	C	0.898426	0.741367	0.720221
C82	C	0.291143	0.075431	0.053558
C83	C	0.624476	0.408764	0.386892
C84	C	0.957810	0.742097	0.720225
N85	N	0.320838	0.075792	-0.000062
N86	N	0.654171	0.409125	0.333271
N87	N	0.987505	0.742458	0.666604
C88	C	0.291134	0.075440	-0.053685
C89	C	0.624467	0.408773	0.279648
C90	C	0.957801	0.742106	0.612982
C91	C	-0.071183	0.071062	0.053545
C92	C	0.262151	0.404395	0.386879
C93	C	0.595484	0.737729	0.720212
C94	C	-0.130581	0.070353	0.053544
C95	C	0.202752	0.403686	0.386878
C96	C	0.536085	0.737020	0.720211
C97	C	-0.130590	0.070363	-0.053703
C98	C	0.202743	0.403696	0.279630
C99	C	0.536076	0.737029	0.612963
C100	C	-0.071191	0.071076	-0.053702
C101	C	0.262142	0.404409	0.279632
C102	C	0.595475	0.737743	0.612965
C103	C	-0.041488	0.071423	-0.000075
C104	C	0.291845	0.404757	0.333258
C105	C	0.625179	0.738090	0.666591
C106	C	0.415868	0.076949	-0.053675
C107	C	0.749201	0.410282	0.279658
C108	C	1.082535	0.743616	0.612991
C109	C	0.475268	0.077670	-0.053668
C110	C	0.808602	0.411003	0.279665
C111	C	1.141935	0.744337	0.612999
C112	C	0.475273	0.077657	0.053579
C113	C	0.808606	0.410990	0.386913
C114	C	1.141939	0.744324	0.720246
C115	C	0.415877	0.076939	0.053572
C116	C	0.749211	0.410273	0.386906
C117	C	1.082544	0.743606	0.720239
C118	C	0.386177	0.076583	-0.000060
C119	C	0.719510	0.409917	0.333273
C120	C	1.052843	0.743250	0.666607
O121	O	0.321911	0.075814	0.099137
O122	O	0.655244	0.409148	0.432471
O123	O	0.988578	0.742481	0.765804
O124	O	0.321854	0.075806	-0.099286
O125	O	0.655188	0.409139	0.234048
O126	O	0.988521	0.742473	0.567381
C127	C	0.677088	-0.030139	-0.000078
C128	C	1.010421	0.303195	0.333256
C129	C	1.343755	0.636528	0.666589
C130	C	0.676322	-0.093356	-0.000082
C131	C	1.009656	0.239978	0.333251
C132	C	1.342989	0.573311	0.666585
C133	C	0.723557	-0.492468	-0.000055
C134	C	1.056890	-0.159134	0.333278
C135	C	1.390224	0.174199	0.666611
C136	C	0.722845	-0.551868	-0.000051
C137	C	1.056179	-0.218534	0.333283
C138	C	1.389512	0.114799	0.666616
O139	O	0.766632	-0.588620	-0.000034
O140	O	1.099966	-0.255287	0.333299
O141	O	1.433299	0.078046	0.666633
N142	N	0.670568	-0.574484	-0.000045
N143	N	1.003901	-0.241151	0.333288
N144	N	1.337234	0.092183	0.666622
C145	C	0.618998	-0.537697	-0.000038
C146	C	0.952332	-0.204364	0.333296
C147	C	1.285665	0.128970	0.666629
O148	O	0.574467	-0.562388	-0.000032
O149	O	0.907800	-0.229055	0.333302
O150	O	1.241133	0.104278	0.666635
C151	C	0.619710	-0.478298	-0.000038
C152	C	0.953044	-0.144965	0.333295
C153	C	1.286377	0.188369	0.666629
C154	C	0.671991	-0.455685	-0.000050
C155	C	1.005325	-0.122352	0.333284
C156	C	1.338658	0.210982	0.666617
C157	C	0.775834	-0.469854	-0.000066
C158	C	1.109167	-0.136521	0.333267
C159	C	1.442500	0.196813	0.666600
C160	C	0.776545	-0.410458	-0.000072
C161	C	1.109878	-0.077125	0.333261
C162	C	1.443212	0.256209	0.666595
C163	C	0.724979	-0.373676	-0.000067
C164	C	1.058313	-0.040342	0.333267
C165	C	1.391646	0.292991	0.666600
C166	C	0.672703	-0.396289	-0.000055
C167	C	1.006036	-0.062956	0.333278
C168	C	1.339369	0.270378	0.666611
C169	C	0.568141	-0.441512	-0.000027
C170	C	0.901475	-0.108179	0.333307
C171	C	1.234808	0.225155	0.666640
C172	C	0.568858	-0.382110	-0.000026
C173	C	0.902191	-0.048776	0.333307
C174	C	1.235525	0.284557	0.666640
C175	C	0.621139	-0.359497	-0.000038
C176	C	0.954472	-0.026163	0.333295
C177	C	1.287806	0.307170	0.666628
C178	C	0.621848	-0.300110	-0.000056
C179	C	0.955182	0.033223	0.333278
C180	C	1.288515	0.366556	0.666611
N181	N	0.674126	-0.277494	-0.000061
N182	N	1.007459	0.055839	0.333272
N183	N	1.340793	0.389173	0.666605
C184	C	0.725691	-0.314277	-0.000067
C185	C	1.059025	0.019057	0.333266
C186	C	1.392358	0.352390	0.666600
C187	C	0.617507	-0.662439	-0.000036
C188	C	0.950840	-0.329106	0.333297
C189	C	1.284173	0.004228	0.666631
C190	C	0.616794	-0.721837	-0.000040
C191	C	0.950127	-0.388504	0.333294
C192	C	1.283461	-0.055170	0.666627
C193	C	0.720642	-0.736004	-0.000052
C194	C	1.053975	-0.402670	0.333282
C195	C	1.387308	-0.069337	0.666615
C196	C	0.721354	-0.676605	-0.000052
C197	C	1.054687	-0.343271	0.333281
C198	C	1.388020	-0.009938	0.666615
C199	C	0.669784	-0.639823	-0.000042
C200	C	1.003118	-0.306489	0.333292
C201	C	1.336451	0.026844	0.666625
C202	C	0.727181	-0.189540	-0.000079
C203	C	1.060514	0.143793	0.333254
C204	C	1.393848	0.477127	0.666587
C205	C	0.727888	-0.130138	-0.000087
C206	C	1.061221	0.203195	0.333246
C207	C	1.394554	0.536528	0.666579
C208	C	0.624041	-0.115977	-0.000072
C209	C	0.957374	0.217357	0.333261
C210	C	1.290707	0.550690	0.666594
C211	C	0.623334	-0.175373	-0.000067
C212	C	0.956667	0.157960	0.333266
C213	C	1.290000	0.491293	0.666599
C214	C	0.674909	-0.212154	-0.000069
C215	C	1.008242	0.121179	0.333264
C216	C	1.341575	0.454512	0.666598
O217	O	0.578084	-0.263323	-0.000070
O218	O	0.911418	0.070010	0.333263
O219	O	1.244751	0.403344	0.666597
O220	O	0.770216	-0.289577	-0.000065
O221	O	1.103549	0.043756	0.333268
O222	O	1.436882	0.377090	0.666602
C223	C	0.776491	0.069244	-0.000076
C224	C	1.109825	0.402577	0.333258
C225	C	1.443158	0.735910	0.666591
C226	C	0.839710	0.069998	-0.000079
C227	C	1.173043	0.403331	0.333255
C228	C	1.506377	0.736664	0.666588
C229	C	0.667594	0.178158	-0.000050
C230	C	1.000927	0.511492	0.333283
C231	C	1.334261	0.844825	0.666616
C232	C	0.668360	0.241375	-0.000042
C233	C	1.001693	0.574709	0.333291
C234	C	1.335027	0.908042	0.666625
N235	N	0.672307	0.074025	-0.153320
N236	N	1.005640	0.407358	0.180013
N237	N	1.338973	0.740692	0.513347
C238	C	0.637998	0.039639	-0.438162
C239	C	0.971332	0.372972	-0.104829
C240	C	1.304665	0.706306	0.228505
C241	C	0.637993	0.039642	-0.376242
C242	C	0.971326	0.372975	-0.042909
C243	C	1.304660	0.706309	0.290425
O244	O	0.608799	0.010408	-0.344218
O245	O	0.942133	0.343741	-0.010885
O246	O	1.275466	0.677074	0.322449
N247	N	0.672330	0.074007	-0.345272
N248	N	1.005664	0.407340	-0.011939
N249	N	1.338997	0.740673	0.321394
C250	C	0.706680	0.108367	-0.376226
C251	C	1.040013	0.441700	-0.042892
C252	C	1.373347	0.775033	0.290441
O253	O	0.735887	0.137597	-0.344198
O254	O	1.069220	0.470930	-0.010864
O255	O	1.402553	0.804263	0.322469
C256	C	0.706688	0.108361	-0.438144
C257	C	1.040022	0.441694	-0.104811
C258	C	1.373355	0.775027	0.228522
C259	C	0.672344	0.073998	-0.469111
C260	C	1.005677	0.407331	-0.135778
C261	C	1.339011	0.740664	0.197556
C262	C	0.603657	0.005279	-0.469129
C263	C	0.936991	0.338612	-0.135795
C264	C	1.270324	0.671945	0.197538
C265	C	0.603662	0.005277	-0.531044
C266	C	0.936996	0.338610	-0.197711
C267	C	1.270329	0.671944	0.135622
C268	C	0.638008	0.039636	-0.561993
C269	C	0.971341	0.372969	-0.228660
C270	C	1.304675	0.706302	0.104673
C271	C	0.672349	0.073996	-0.531027
C272	C	1.005682	0.407329	-0.197693
C273	C	1.339015	0.740663	0.135640
C274	C	0.741041	0.142717	-0.469097
C275	C	1.074374	0.476050	-0.135763
C276	C	1.407707	0.809384	0.197570
C277	C	0.741046	0.142708	-0.531020
C278	C	1.074379	0.476041	-0.197686
C279	C	1.407713	0.809374	0.135647
C280	C	0.706702	0.108345	-0.561986
C281	C	1.040035	0.441678	-0.228653
C282	C	1.373368	0.775011	0.104680
C283	C	0.706699	0.108353	-0.623891
C284	C	1.040033	0.441686	-0.290558
C285	C	1.373366	0.775019	0.042775
N286	N	0.672362	0.073988	-0.654861
N287	N	1.005695	0.407321	-0.321528
N288	N	1.339028	0.740655	0.011806
C289	C	0.638016	0.039629	-0.623912
C290	C	0.971349	0.372963	-0.290579
C291	C	1.304683	0.706296	0.042755
C292	C	0.706661	0.108377	-0.246192
C293	C	1.039994	0.441710	0.087141
C294	C	1.373328	0.775043	0.420475
C295	C	0.706650	0.108386	-0.184274
C296	C	1.039984	0.441720	0.149059
C297	C	1.373317	0.775053	0.482392
C298	C	0.637964	0.039660	-0.184295
C299	C	0.971297	0.372994	0.149038
C300	C	1.304630	0.706327	0.482372
C301	C	0.637972	0.039654	-0.246214
C302	C	0.971305	0.372988	0.087120
C303	C	1.304639	0.706321	0.420453
C304	C	0.672324	0.074012	-0.277162
C305	C	1.005657	0.407345	0.056172
C306	C	1.338990	0.740678	0.389505
C307	C	0.638028	0.039628	-0.753939
C308	C	0.971362	0.372962	-0.420606
C309	C	1.304695	0.706295	-0.087273
C310	C	0.638034	0.039631	-0.815860
C311	C	0.971368	0.372965	-0.482527
C312	C	1.304701	0.706298	-0.149194
C313	C	0.706723	0.108355	-0.815834
C314	C	1.040056	0.441688	-0.482501
C315	C	1.373390	0.775021	-0.149168
C316	C	0.706715	0.108354	-0.753919
C317	C	1.040048	0.441688	-0.420585
C318	C	1.373382	0.775021	-0.087252
C319	C	0.672366	0.073987	-0.722973
C320	C	1.005699	0.407320	-0.389639
C321	C	1.339033	0.740653	-0.056306
O322	O	0.735880	0.137570	-0.655954
O323	O	1.069213	0.470904	-0.322621
O324	O	1.402547	0.804237	0.010712
O325	O	0.608820	0.010399	-0.655947
O326	O	0.942153	0.343732	-0.322614
O327	O	1.275487	0.677065	0.010719
N328	N	0.672380	0.073990	0.153191
N329	N	1.005713	0.407323	0.486524
N330	N	1.339047	0.740657	0.819857
H331	H	0.118501	0.073321	0.150848
H332	H	0.451834	0.406655	0.484181
H333	H	0.785168	0.739988	0.817514
C334	C	0.600239	0.001826	-0.719908
C335	C	0.933573	0.335159	-0.386574
C336	C	1.266906	0.668492	-0.053241
N337	N	0.571773	-0.026644	-0.694275
N338	N	0.905106	0.306689	-0.360942
N339	N	1.238440	0.640023	-0.027609
C340	C	0.565883	-0.032528	-0.565099
C341	C	0.899216	0.300806	-0.231766
C342	C	1.232550	0.634139	0.101567
N343	N	0.537427	-0.061005	-0.590746
N344	N	0.870760	0.272328	-0.257412
N345	N	1.204093	0.605662	0.075921
H346	H	0.582057	-0.086018	-0.000070
H347	H	0.915391	0.247316	0.333263
H348	H	1.248724	0.580649	0.666596
C349	C	0.744439	0.146189	-0.280229
C350	C	1.077773	0.479522	0.053104
C351	C	1.411106	0.812855	0.386437
N352	N	0.772891	0.174672	-0.305863
N353	N	1.106225	0.508005	0.027470
N354	N	1.439558	0.841338	0.360804
H355	H	0.609998	0.011684	-0.159085
H356	H	0.943331	0.345017	0.174248
H357	H	1.276664	0.678350	0.507582
H358	H	0.762629	-0.765963	-0.000054
H359	H	1.095962	-0.432630	0.333279
H360	H	1.429296	-0.099296	0.666613
H361	H	0.574222	-0.740243	-0.000040
H362	H	0.907555	-0.406909	0.333293
H363	H	1.240888	-0.073576	0.666626
C364	C	0.565822	-0.200248	-0.000058
C365	C	0.899156	0.133085	0.333275
C366	C	1.232489	0.466419	0.666608
N367	N	0.522504	-0.218980	-0.000045
N368	N	0.855837	0.114354	0.333288
N369	N	1.189170	0.447687	0.666621
H370	H	0.499468	0.077946	0.097237
H371	H	0.832801	0.411280	0.430571
H372	H	1.166135	0.744613	0.763904
H373	H	0.525569	-0.459912	-0.000013
H374	H	0.858902	-0.126579	0.333320
H375	H	1.192235	0.206754	0.666653
C376	C	0.512126	-0.341652	-0.000017
C377	C	0.845459	-0.008319	0.333316
C378	C	1.178793	0.325014	0.666649
N379	N	0.469396	-0.311181	-0.000012
N380	N	0.802729	0.022152	0.333321
N381	N	1.136062	0.355486	0.666654
C382	C	0.778866	-0.651737	-0.000060
C383	C	1.112199	-0.318403	0.333274
C384	C	1.445533	0.014930	0.666607
N385	N	0.822187	-0.633009	-0.000063
N386	N	1.155520	-0.299676	0.333270
N387	N	1.488854	0.033658	0.666603
C388	C	-0.038536	0.071474	-0.112692
C389	C	0.294797	0.404807	0.220641
C390	C	0.628131	0.738141	0.553975
N391	N	-0.013943	0.071772	-0.157126
N392	N	0.319391	0.405105	0.176207
N393	N	0.652724	0.738438	0.509540
H394	H	0.391692	0.076664	-0.097348
H395	H	0.725026	0.409998	0.235986
H396	H	1.058359	0.743331	0.569319
H397	H	0.226201	0.074670	-0.150976
H398	H	0.559534	0.408003	0.182358
H399	H	0.892868	0.741336	0.515691
C400	C	0.109970	0.073276	-0.166306
C401	C	0.443303	0.406610	0.167027
C402	C	0.776637	0.739943	0.500360
N403	N	0.085369	0.072997	-0.210745
N404	N	0.418702	0.406331	0.122589
N405	N	0.752036	0.739664	0.455922
C406	C	0.560773	-0.621983	-0.000032
C407	C	0.894106	-0.288650	0.333301
C408	C	1.227439	0.044683	0.666634
N409	N	0.518041	-0.591515	-0.000029
N410	N	0.851374	-0.258181	0.333304
N411	N	1.184707	0.075152	0.666638
C412	C	0.600252	0.001828	-0.849920
C413	C	0.933585	0.335161	-0.516587
C414	C	1.266919	0.668494	-0.183253
N415	N	0.571796	-0.026646	-0.875571
N416	N	0.905129	0.306687	-0.542238
N417	N	1.238462	0.640021	-0.208905
C418	C	0.744503	0.146145	-0.849890
C419	C	1.077837	0.479479	-0.516557
C420	C	1.411170	0.812812	-0.183223
N421	N	0.772963	0.174606	-0.875543
N422	N	1.106297	0.507939	-0.542209
N423	N	1.439630	0.841273	-0.208876
H424	H	0.734610	0.136375	-0.159067
H425	H	1.067943	0.469708	0.174267
H426	H	1.401277	0.803042	0.507600
C427	C	-0.163275	0.069969	-0.112690
C428	C	0.170058	0.403303	0.220643
C429	C	0.503391	0.736636	0.553977
N430	N	-0.187895	0.069672	-0.157116
N431	N	0.145438	0.403005	0.176218
N432	N	0.478772	0.736339	0.509551
H433	H	0.769021	0.170685	-0.556214
H434	H	1.102354	0.504019	-0.222881
H435	H	1.435687	0.837352	0.110452
C436	C	0.785403	-0.105268	-0.000099
C437	C	1.118737	0.228065	0.333235
C438	C	1.452070	0.561398	0.666568
N439	N	0.828723	-0.086538	-0.000106
N440	N	1.162056	0.246795	0.333228
N441	N	1.495390	0.580128	0.666561
H442	H	0.499440	0.077971	-0.097337
H443	H	0.832773	0.411304	0.235996
H444	H	1.166106	0.744637	0.569329
H445	H	-0.154752	0.070063	0.097211
H446	H	0.178581	0.403397	0.430544
H447	H	0.511915	0.736730	0.763877
H448	H	0.769008	0.170698	-0.443894
H449	H	1.102342	0.504031	-0.110561
H450	H	1.435675	0.837365	0.222772
H451	H	0.575689	-0.022703	-0.443936
H452	H	0.909022	0.310630	-0.110603
H453	H	1.242356	0.643964	0.222730
H454	H	0.819117	-0.392053	-0.000079
H455	H	1.152451	-0.058719	0.333254
H456	H	1.485784	0.274614	0.666587
H457	H	0.610006	0.011673	-0.271423
H458	H	0.943339	0.345006	0.061911
H459	H	1.276672	0.678340	0.395244
C460	C	0.744491	0.146159	-0.719854
C461	C	1.077824	0.479492	-0.386521
C462	C	1.411158	0.812825	-0.053188
N463	N	0.772949	0.174629	-0.694201
N464	N	1.106282	0.507963	-0.360868
N465	N	1.439616	0.841296	-0.027535
C466	C	0.783916	-0.229991	-0.000086
C467	C	1.117250	0.103343	0.333247
C468	C	1.450583	0.436676	0.666580
N469	N	0.826649	-0.260458	-0.000097
N470	N	1.159983	0.072875	0.333237
N471	N	1.493316	0.406209	0.666570
C472	C	-0.038515	0.071451	0.112542
C473	C	0.294818	0.404784	0.445876
C474	C	0.628151	0.738118	0.779209
N475	N	-0.013913	0.071744	0.156979
N476	N	0.319421	0.405077	0.490312
N477	N	0.652754	0.738410	0.823646
H478	H	0.391700	0.076650	0.097238
H479	H	0.725033	0.409983	0.430571
H480	H	1.058367	0.743316	0.763904
C481	C	0.832565	-0.510307	-0.000079
C482	C	1.165899	-0.176973	0.333255
C483	C	1.499232	0.156360	0.666588
N484	N	0.875299	-0.540772	-0.000094
N485	N	1.208633	-0.207439	0.333239
N486	N	1.541966	0.125894	0.666572
C487	C	0.234738	0.074718	0.166173
C488	C	0.568072	0.408051	0.499506
C489	C	0.901405	0.741384	0.832840
N490	N	0.259344	0.075009	0.210608
N491	N	0.592677	0.408342	0.543941
N492	N	0.926010	0.741676	0.877274
