data_functionalizedCrystal
_audit_creation_method	'MofGen! by Chris Wilmer'
_symmetry_space_group_name_H-M	'P1'
_symmetry_Int_Tables_number	1
_symmetry_cell_setting	triclinic
loop_
_symmetry_equiv_pos_as_xyz
  x,y,z
_cell_length_a	19.805407
_cell_length_b	14.908178
_cell_length_c	19.805399
_cell_angle_alpha	86.675724
_cell_angle_beta	89.982197
_cell_angle_gamma	93.311253
loop_
_atom_site_label
_atom_site_type_symbol
_atom_site_fract_x
_atom_site_fract_y
_atom_site_fract_z
Zn1	Zn	1.019222	-0.359271	-0.367131
Zn2	Zn	1.352555	-0.025937	-0.033798
Zn3	Zn	1.685889	0.307396	0.299536
Zn4	Zn	1.012622	-0.510147	-0.247410
Zn5	Zn	1.345955	-0.176814	0.085924
Zn6	Zn	1.679289	0.156520	0.419257
Zn7	Zn	0.906036	-0.359289	-0.253958
Zn8	Zn	1.239369	-0.025955	0.079375
Zn9	Zn	1.572703	0.307378	0.412708
Zn10	Zn	0.899488	-0.510092	-0.360562
Zn11	Zn	1.232821	-0.176759	-0.027229
Zn12	Zn	1.566154	0.156575	0.306105
O13	O	0.959342	-0.434700	-0.307265
O14	O	1.292675	-0.101366	0.026068
O15	O	1.626009	0.231967	0.359401
O16	O	1.113062	-0.379300	-0.351258
O17	O	1.446396	-0.045967	-0.017925
O18	O	1.779729	0.287366	0.315409
O19	O	0.998461	-0.490166	-0.153560
O20	O	1.331795	-0.156832	0.179773
O21	O	1.665128	0.176501	0.513106
O22	O	0.926553	-0.233032	-0.274460
O23	O	1.259886	0.100301	0.058873
O24	O	1.593220	0.433634	0.392206
O25	O	1.108213	-0.490148	-0.263299
O26	O	1.441547	-0.156815	0.070034
O27	O	1.774880	0.176518	0.403367
O28	O	1.009710	-0.233019	-0.357608
O29	O	1.343044	0.100314	-0.024275
O30	O	1.676377	0.433648	0.309059
O31	O	0.920153	-0.379331	-0.158372
O32	O	1.253486	-0.045997	0.174962
O33	O	1.586820	0.287336	0.508295
O34	O	0.810451	-0.379277	-0.268091
O35	O	1.143785	-0.045944	0.065242
O36	O	1.477118	0.287389	0.398576
O37	O	0.915392	-0.490055	-0.456151
O38	O	1.248726	-0.156721	-0.122818
O39	O	1.582059	0.176612	0.210515
O40	O	0.805640	-0.490072	-0.346413
O41	O	1.138974	-0.156739	-0.013079
O42	O	1.472307	0.176595	0.320254
O43	O	1.003361	-0.379247	-0.460977
O44	O	1.336694	-0.045914	-0.127644
O45	O	1.670027	0.287420	0.205689
O46	O	0.992112	-0.636394	-0.256930
O47	O	1.325445	-0.303060	0.076404
O48	O	1.658778	0.030273	0.409737
O49	O	0.908993	-0.636353	-0.340063
O50	O	1.242326	-0.303020	-0.006729
O51	O	1.575659	0.030313	0.326604
C52	C	0.783487	-0.434671	-0.307250
C53	C	1.116820	-0.101338	0.026083
C54	C	1.450154	0.231995	0.359417
C55	C	0.708255	-0.434681	-0.307259
C56	C	1.041588	-0.101348	0.026075
C57	C	1.374921	0.231986	0.359408
C58	C	0.675432	-0.377064	-0.353120
C59	C	1.008765	-0.043731	-0.019787
C60	C	1.342098	0.289602	0.313547
C61	C	0.604743	-0.377069	-0.353123
C62	C	0.938076	-0.043736	-0.019789
C63	C	1.271410	0.289598	0.313544
C64	C	0.566879	-0.434696	-0.307266
C65	C	0.900212	-0.101362	0.026067
C66	C	1.233545	0.231971	0.359401
C67	C	0.599706	-0.492315	-0.261400
C68	C	0.933040	-0.158981	0.071934
C69	C	1.266373	0.174352	0.405267
C70	C	0.670394	-0.492305	-0.261395
C71	C	1.003727	-0.158971	0.071939
C72	C	1.337061	0.174362	0.405272
C73	C	0.314631	-0.492355	-0.261419
C74	C	0.647965	-0.159022	0.071915
C75	C	0.981298	0.174311	0.405248
C76	C	0.243939	-0.492363	-0.261429
C77	C	0.577272	-0.159029	0.071905
C78	C	0.910606	0.174304	0.405238
C79	C	0.248980	-0.377120	-0.353147
C80	C	0.582314	-0.043786	-0.019813
C81	C	0.915647	0.289547	0.313520
C82	C	0.319668	-0.377110	-0.353142
C83	C	0.653001	-0.043776	-0.019808
C84	C	0.986335	0.289557	0.313525
C85	C	0.352490	-0.434725	-0.307273
C86	C	0.685823	-0.101392	0.026060
C87	C	1.019157	0.231942	0.359394
C88	C	0.429139	-0.434718	-0.307270
C89	C	0.762472	-0.101385	0.026063
C90	C	1.095805	0.231949	0.359397
C91	C	0.490231	-0.434708	-0.307272
C92	C	0.823564	-0.101375	0.026062
C93	C	1.156898	0.231959	0.359395
C94	C	0.949144	-0.669110	-0.297088
C95	C	1.282477	-0.335776	0.036246
C96	C	1.615810	-0.002443	0.369579
C97	C	0.944843	-0.769391	-0.292756
C98	C	1.278176	-0.436058	0.040577
C99	C	1.611510	-0.102725	0.373911
C100	C	1.023287	-0.957668	-0.371291
C101	C	1.356621	-0.624334	-0.037958
C102	C	1.689954	-0.291001	0.295375
C103	C	1.019248	-1.051891	-0.367224
C104	C	1.352582	-0.718558	-0.033890
C105	C	1.685915	-0.385224	0.299443
C106	C	0.932724	-1.052064	-0.280558
C107	C	1.266057	-0.718730	0.052776
C108	C	1.599390	-0.385397	0.386109
C109	C	0.936762	-0.957840	-0.284625
C110	C	1.270096	-0.624507	0.048708
C111	C	1.603429	-0.291173	0.382042
C112	C	0.982046	-0.910645	-0.329993
C113	C	1.315380	-0.577312	0.003341
C114	C	1.648713	-0.243979	0.336674
C115	C	0.986088	-0.816420	-0.334056
C116	C	1.319421	-0.483087	-0.000723
C117	C	1.652755	-0.149753	0.332610
C118	C	0.899560	-0.816594	-0.247394
C119	C	1.232894	-0.483261	0.085939
C120	C	1.566227	-0.149928	0.419273
C121	C	0.895522	-0.910818	-0.243326
C122	C	1.228855	-0.577485	0.090007
C123	C	1.562188	-0.244151	0.423340
C124	C	1.135883	-0.434729	-0.307281
C125	C	1.469217	-0.101395	0.026053
C126	C	1.802550	0.231938	0.359386
C127	C	1.211115	-0.434741	-0.307287
C128	C	1.544448	-0.101408	0.026046
C129	C	1.877781	0.231926	0.359379
C130	C	0.959382	-0.434643	-0.483810
C131	C	1.292716	-0.101309	-0.150477
C132	C	1.626049	0.232024	0.182856
C133	C	0.959400	-0.434619	-0.559044
C134	C	1.292733	-0.101285	-0.225710
C135	C	1.626066	0.232048	0.107623
C136	C	0.969598	-0.199374	-0.317497
C137	C	1.302932	0.133959	0.015836
C138	C	1.636265	0.467293	0.349169
C139	C	0.973969	-0.099092	-0.321858
C140	C	1.307302	0.234241	0.011476
C141	C	1.640636	0.567574	0.344809
C142	C	1.005206	-0.376918	-0.596902
C143	C	1.338539	-0.043585	-0.263568
C144	C	1.671872	0.289749	0.069765
C145	C	1.005214	-0.376892	-0.667591
C146	C	1.338547	-0.043559	-0.334258
C147	C	1.671881	0.289775	-0.000925
C148	C	0.959418	-0.434571	-0.700421
C149	C	1.292752	-0.101238	-0.367088
C150	C	1.626085	0.232095	-0.033755
C151	C	0.913607	-0.492274	-0.662558
C152	C	1.246941	-0.158941	-0.329225
C153	C	1.580274	0.174392	0.004109
C154	C	0.913597	-0.492295	-0.591870
C155	C	1.246930	-0.158962	-0.258536
C156	C	1.580263	0.174371	0.074797
C157	C	0.913649	-0.492190	-0.947635
C158	C	1.246982	-0.158857	-0.614302
C159	C	1.580316	0.174476	-0.280968
C160	C	0.913665	-0.492167	-1.018328
C161	C	1.246998	-0.158833	-0.684995
C162	C	1.580331	0.174500	-0.351661
C163	C	1.005266	-0.376787	-1.023357
C164	C	1.338600	-0.043454	-0.690023
C165	C	1.671933	0.289880	-0.356690
C166	C	1.005256	-0.376808	-0.952668
C167	C	1.338589	-0.043474	-0.619335
C168	C	1.671922	0.289859	-0.286002
C169	C	0.959443	-0.434507	-0.914811
C170	C	1.292776	-0.101174	-0.581478
C171	C	1.626109	0.232160	-0.248145
C172	C	0.959433	-0.434533	-0.838162
C173	C	1.292767	-0.101200	-0.504829
C174	C	1.626100	0.232133	-0.171495
C175	C	0.959430	-0.434550	-0.777069
C176	C	1.292763	-0.101217	-0.443736
C177	C	1.626097	0.232117	-0.110403
C178	C	0.959343	-0.434691	-0.131410
C179	C	1.292677	-0.101358	0.201924
C180	C	1.626010	0.231976	0.535257
C181	C	0.959468	-0.434461	-0.056188
C182	C	1.292802	-0.101128	0.277145
C183	C	1.626135	0.232206	0.610479
H184	H	0.350494	-0.330187	-0.390485
H185	H	0.683827	0.003146	-0.057151
H186	H	1.017161	0.336479	0.276182
H187	H	0.213111	-0.539291	-0.224084
H188	H	0.546444	-0.205958	0.109249
H189	H	0.879778	0.127375	0.442583
Cl190	Cl	1.062784	-0.304407	-0.555637
Cl191	Cl	1.396117	0.028927	-0.222304
Cl192	Cl	1.729451	0.362260	0.111030
H193	H	0.876355	-0.539186	-0.916820
H194	H	1.209688	-0.205852	-0.583486
H195	H	1.543021	0.127481	-0.250153
H196	H	0.697117	-0.539221	-0.224049
H197	H	1.030451	-0.205888	0.109284
H198	H	1.363784	0.127445	0.442618
Cl199	Cl	1.043017	-0.757091	-0.391087
Cl200	Cl	1.376351	-0.423757	-0.057754
Cl201	Cl	1.709684	-0.090424	0.275579
Cl202	Cl	0.856033	-0.564783	-0.703830
Cl203	Cl	1.189366	-0.231450	-0.370497
Cl204	Cl	1.522700	0.101884	-0.037163
H205	H	0.222249	-0.330203	-0.390493
H206	H	0.555582	0.003130	-0.057159
H207	H	0.888915	0.336463	0.276174
Cl208	Cl	1.062831	-0.304296	-0.911401
Cl209	Cl	1.396165	0.029037	-0.578067
Cl210	Cl	1.729498	0.362370	-0.244734
H211	H	0.895853	-1.090506	-0.243625
H212	H	1.229186	-0.757173	0.089709
H213	H	1.562519	-0.423839	0.423042
Cl214	Cl	0.838592	-0.970157	-0.186301
Cl215	Cl	1.171925	-0.636824	0.147032
Cl216	Cl	1.505258	-0.303490	0.480366
H217	H	0.876290	-0.539272	-0.561047
H218	H	1.209623	-0.205939	-0.227713
H219	H	1.542957	0.127395	0.105620
H220	H	0.865981	-0.778298	-0.213764
H221	H	1.199315	-0.444965	0.119570
H222	H	1.532648	-0.111631	0.452903
H223	H	1.060164	-0.919241	-0.408227
H224	H	1.393497	-0.585908	-0.074893
H225	H	1.726831	-0.252574	0.258440
Cl226	Cl	1.062859	-0.304246	-1.070953
Cl227	Cl	1.396192	0.029088	-0.737619
Cl228	Cl	1.729525	0.362421	-0.404286
H229	H	1.042515	-0.329909	-0.698413
H230	H	1.375849	0.003425	-0.365079
H231	H	1.709182	0.336758	-0.031746
Cl232	Cl	0.563483	-0.304636	-0.410782
Cl233	Cl	0.896816	0.028697	-0.077448
Cl234	Cl	1.230149	0.362031	0.255885
Cl235	Cl	0.856088	-0.564683	-1.059599
Cl236	Cl	1.189421	-0.231350	-0.726266
Cl237	Cl	1.522755	0.101984	-0.392932
H238	H	1.052828	-1.090173	-0.400857
H239	H	1.386161	-0.756840	-0.067523
H240	H	1.719494	-0.423506	0.265810
H241	H	0.341346	-0.539270	-0.224070
H242	H	0.674679	-0.205937	0.109263
H243	H	1.008013	0.127397	0.442596
Cl244	Cl	0.723026	-0.304619	-0.410775
Cl245	Cl	1.056359	0.028714	-0.077441
Cl246	Cl	1.389693	0.362047	0.255892
Cl247	Cl	0.552105	-0.564755	-0.203748
Cl248	Cl	0.885439	-0.231422	0.129586
Cl249	Cl	1.218772	0.101911	0.462919
