data_functionalizedCrystal
_audit_creation_method	'MofGen! by Chris Wilmer'
_symmetry_space_group_name_H-M	'P1'
_symmetry_Int_Tables_number	1
_symmetry_cell_setting	triclinic
loop_
_symmetry_equiv_pos_as_xyz
  x,y,z
_cell_length_a	14.971486
_cell_length_b	26.210047
_cell_length_c	14.971486
_cell_angle_alpha	89.995701
_cell_angle_beta	83.614129
_cell_angle_gamma	90.004090
loop_
_atom_site_label
_atom_site_type_symbol
_atom_site_fract_x
_atom_site_fract_y
_atom_site_fract_z
O1	O	1.186952	0.042371	0.116550
O2	O	1.686952	0.542371	0.616550
O3	O	0.926552	0.042385	0.130509
O4	O	1.426552	0.542385	0.630509
O5	O	1.063731	0.042374	-0.006671
O6	O	1.563731	0.542374	0.493329
O7	O	1.049773	0.042382	0.253729
O8	O	1.549773	0.542382	0.753729
O9	O	1.063705	-0.042485	-0.006649
O10	O	1.563705	0.457515	0.493351
O11	O	0.926525	-0.042474	0.130530
O12	O	1.426525	0.457526	0.630530
O13	O	1.186925	-0.042487	0.116571
O14	O	1.686925	0.457513	0.616571
Cu15	Cu	1.056723	-0.050229	0.123553
Cu16	Cu	1.556723	0.449771	0.623553
Cu17	Cu	1.056754	0.050126	0.123527
Cu18	Cu	1.556754	0.550126	0.623527
O19	O	1.049746	-0.042477	0.253751
O20	O	1.549746	0.457523	0.753751
C21	C	0.893214	-0.000043	0.129895
C22	C	1.393214	0.499957	0.629895
C23	C	0.793917	-0.000038	0.128024
C24	C	1.293917	0.499962	0.628024
N25	N	1.056707	-0.120813	0.123570
N26	N	1.556707	0.379187	0.623570
C27	C	0.736691	-0.000036	0.208614
C28	C	1.236691	0.499964	0.708614
C29	C	0.643392	-0.000043	0.206850
C30	C	1.143392	0.499957	0.706850
C31	C	0.607320	-0.000049	0.124497
C32	C	1.107320	0.499951	0.624497
C33	C	0.664552	-0.000053	0.043902
C34	C	1.164552	0.499947	0.543902
C35	C	0.757850	-0.000049	0.045666
C36	C	1.257850	0.499951	0.545666
C37	C	0.470090	-0.000060	0.040231
C38	C	0.970090	0.499940	0.540231
C39	C	0.376786	-0.000063	0.038466
C40	C	0.876786	0.499937	0.538466
C41	C	0.355632	-0.000055	0.201415
C42	C	0.855632	0.499945	0.701415
C43	C	0.448930	-0.000051	0.203179
C44	C	0.948930	0.499949	0.703179
C45	C	0.506156	-0.000053	0.122584
C46	C	1.006156	0.499947	0.622584
C47	C	1.117491	-0.473332	0.062798
C48	C	1.617491	0.026668	0.562798
C49	C	1.117511	-0.686990	0.062786
C50	C	1.617511	-0.186990	0.562786
O51	O	1.169157	-0.714616	0.011119
O52	O	1.669157	-0.214616	0.511119
N53	N	1.056759	-0.713707	0.123508
N54	N	1.556759	-0.213707	0.623508
C55	C	0.995994	-0.687005	0.184233
C56	C	1.495994	-0.187005	0.684233
O57	O	0.944315	-0.714632	0.235875
O58	O	1.444315	-0.214632	0.735875
C59	C	0.995971	-0.473347	0.184241
C60	C	1.495971	0.026653	0.684241
C61	C	1.056733	-0.446634	0.123521
C62	C	1.556733	0.053366	0.623521
C63	C	1.178247	-0.446618	0.002082
C64	C	1.678247	0.053382	0.502082
C65	C	1.178245	-0.393206	0.002089
C66	C	1.678245	0.106794	0.502089
C67	C	1.117487	-0.366509	0.062812
C68	C	1.617487	0.133491	0.562812
C69	C	1.056730	-0.393222	0.123528
C70	C	1.556730	0.106778	0.623528
C71	C	0.935202	-0.446647	0.244961
C72	C	1.435202	0.053353	0.744961
C73	C	0.935200	-0.393229	0.244956
C74	C	1.435200	0.106771	0.744956
C75	C	0.995962	-0.366515	0.184236
C76	C	1.495962	0.133485	0.684236
C77	C	0.995970	-0.313113	0.184257
C78	C	1.495970	0.186887	0.684257
N79	N	1.056721	-0.286397	0.123535
N80	N	1.556721	0.213603	0.623535
C81	C	1.117480	-0.313094	0.062813
C82	C	1.617480	0.186906	0.562813
C83	C	0.996012	-0.799178	0.184226
C84	C	1.496012	-0.299178	0.684226
C85	C	0.996018	-0.852593	0.184226
C86	C	1.496018	-0.352593	0.684226
C87	C	1.117534	-0.852574	0.062777
C88	C	1.617534	-0.352574	0.562777
C89	C	1.117531	-0.799159	0.062782
C90	C	1.617531	-0.299159	0.562782
C91	C	1.056764	-0.772462	0.123504
C92	C	1.556764	-0.272462	0.623504
C93	C	1.117471	-0.200927	0.062832
C94	C	1.617471	0.299073	0.562832
C95	C	1.117466	-0.147510	0.062847
C96	C	1.617466	0.352490	0.562847
C97	C	0.995947	-0.147534	0.184293
C98	C	1.495947	0.352466	0.684293
C99	C	0.995955	-0.200945	0.184281
C100	C	1.495955	0.299055	0.684281
C101	C	1.056721	-0.227640	0.123544
C102	C	1.556721	0.272360	0.623544
O103	O	0.944344	-0.285454	0.235890
O104	O	1.444344	0.214546	0.735890
O105	O	1.169138	-0.285459	0.011166
O106	O	1.669138	0.214541	0.511166
C107	C	1.117493	-0.526743	0.062791
C108	C	1.617493	-0.026743	0.562791
C109	C	1.056737	-0.553457	0.123507
C110	C	1.556737	-0.053457	0.623507
C111	C	0.995979	-0.526759	0.184229
C112	C	1.495979	-0.026759	0.684229
C113	C	1.056744	-0.606871	0.123506
C114	C	1.556744	-0.106871	0.623506
C115	C	1.117502	-0.633569	0.062783
C116	C	1.617502	-0.133569	0.562783
C117	C	1.178254	-0.606852	0.002061
C118	C	1.678254	-0.106852	0.502061
C119	C	1.178252	-0.553441	0.002068
C120	C	1.678252	-0.053441	0.502068
C121	C	0.935227	-0.553475	0.244951
C122	C	1.435227	-0.053475	0.744951
C123	C	0.935235	-0.606887	0.244940
C124	C	1.435235	-0.106887	0.744940
C125	C	0.995993	-0.633585	0.184218
C126	C	1.495993	-0.133585	0.684218
C127	C	1.220263	-0.000059	0.117185
C128	C	1.720263	0.499941	0.617185
C129	C	1.319561	-0.000061	0.119056
C130	C	1.819561	0.499939	0.619056
C131	C	1.063094	-0.000055	-0.039985
C132	C	1.563094	0.499945	0.460015
C133	C	1.061223	-0.000055	-0.139282
C134	C	1.561223	0.499945	0.360718
N135	N	1.056777	0.120710	0.123503
N136	N	1.556777	0.620710	0.623503
C137	C	1.141812	-0.000059	-0.196507
C138	C	1.641812	0.499941	0.303493
C139	C	1.140049	-0.000054	-0.289807
C140	C	1.640049	0.499946	0.210193
C141	C	1.057696	-0.000048	-0.325879
C142	C	1.557696	0.499952	0.174121
C143	C	0.977101	-0.000042	-0.268646
C144	C	1.477101	0.499958	0.231354
C145	C	0.978865	-0.000043	-0.175349
C146	C	1.478865	0.499957	0.324651
C147	C	0.973430	-0.000040	-0.463109
C148	C	1.473430	0.499960	0.036891
C149	C	0.971665	-0.000039	-0.556413
C150	C	1.471665	0.499961	-0.056413
C151	C	1.134614	-0.000051	-0.577567
C152	C	1.634614	0.499949	-0.077567
C153	C	1.136378	-0.000052	-0.484269
C154	C	1.636378	0.499948	0.015731
C155	C	1.055782	-0.000047	-0.427043
C156	C	1.555782	0.499953	0.072957
C157	C	1.050383	-0.000047	0.287065
C158	C	1.550383	0.499953	0.787065
C159	C	1.052254	-0.000044	0.386362
C160	C	1.552254	0.499956	0.886362
H161	H	0.766054	-0.000031	0.275675
H162	H	1.266054	0.499969	0.775675
H163	H	1.200238	-0.000053	-0.624165
H164	H	1.700238	0.499947	-0.124165
F165	F	0.530993	-0.000064	-0.045549
F166	F	1.030993	0.499936	0.454451
H167	H	0.635175	-0.000065	-0.023152
H168	H	1.135175	0.499935	0.476848
H169	H	0.910047	-0.000033	-0.298024
H170	H	1.410047	0.499967	0.201976
H171	H	0.904606	-0.000042	-0.585780
H172	H	1.404606	0.499958	-0.085780
F173	F	0.582492	-0.000039	0.292625
F174	F	1.082492	0.499961	0.792625
H175	H	1.167008	-0.874320	0.013335
H176	H	1.667008	-0.374320	0.513335
F177	F	0.818754	-0.000052	-0.040108
F178	F	1.318754	0.499948	0.459892
H179	H	0.907800	-0.000034	-0.416517
H180	H	1.407800	0.499966	0.083483
H181	H	0.347419	-0.000068	-0.028593
H182	H	0.847419	0.499932	0.471407
H183	H	0.913240	-0.000039	-0.128756
H184	H	1.413240	0.499961	0.371244
F185	F	0.487318	-0.000039	0.290829
F186	F	0.987318	0.499961	0.790829
F187	F	0.870519	-0.364820	0.309585
F188	F	1.370519	0.135180	0.809585
F189	F	1.225824	-0.000060	-0.350707
F190	F	1.725824	0.499940	0.149293
F191	F	0.294727	-0.000053	0.287192
F192	F	0.794727	0.499947	0.787192
H193	H	1.166951	-0.222656	0.013373
H194	H	1.666951	0.277344	0.513373
F195	F	1.182141	-0.119082	-0.001780
F196	F	1.682141	0.380918	0.498220
F197	F	1.242912	-0.364781	-0.062541
F198	F	1.742912	0.135219	0.437459
F199	F	1.229465	-0.000071	-0.158125
F200	F	1.729465	0.499929	0.341875
F201	F	1.242919	-0.475024	-0.062553
F202	F	1.742919	0.024976	0.437447
H203	H	0.946550	-0.874339	0.233679
H204	H	1.446550	-0.374339	0.733679
F205	F	1.182201	-0.770733	-0.001845
F206	F	1.682201	-0.270733	0.498155
H207	H	0.946526	-0.777445	0.233676
H208	H	1.446526	-0.277445	0.733676
H209	H	0.885724	-0.468390	0.294404
H210	H	1.385724	0.031610	0.794404
F211	F	0.931294	-0.229375	0.248917
F212	F	1.431294	0.270625	0.748917
H213	H	0.946481	-0.125788	0.233735
H214	H	1.446481	0.374212	0.733735
H215	H	0.885757	-0.628634	0.294394
H216	H	1.385757	-0.128634	0.794394
H217	H	0.885749	-0.531742	0.294398
H218	H	1.385749	-0.031742	0.794398
F219	F	1.242923	-0.525016	-0.062559
F220	F	1.742923	-0.025016	0.437441
H221	H	1.227730	-0.628598	-0.047379
H222	H	1.727730	-0.128598	0.452621
H223	H	1.203437	-0.000061	-0.454903
H224	H	1.703437	0.499939	0.045097
