data_functionalizedCrystal
_audit_creation_method	'MofGen! by Chris Wilmer'
_symmetry_space_group_name_H-M	'P1'
_symmetry_Int_Tables_number	1
_symmetry_cell_setting	triclinic
loop_
_symmetry_equiv_pos_as_xyz
  x,y,z
_cell_length_a	16.109301
_cell_length_b	16.776229
_cell_length_c	16.109301
_cell_angle_alpha	89.991926
_cell_angle_beta	96.538468
_cell_angle_gamma	90.004778
loop_
_atom_site_label
_atom_site_type_symbol
_atom_site_fract_x
_atom_site_fract_y
_atom_site_fract_z
O1	O	1.103135	0.066247	-0.106870
O2	O	0.861073	0.066258	-0.120169
O3	O	0.988753	0.066244	0.007511
O4	O	0.975454	0.066261	-0.234551
O5	O	0.988736	-0.066332	0.007519
O6	O	0.861056	-0.066318	-0.120161
O7	O	1.103118	-0.066330	-0.106862
Zn8	Zn	0.982084	-0.087373	-0.113511
Zn9	Zn	0.982106	0.087302	-0.113521
O10	O	0.975437	-0.066315	-0.234543
C11	C	0.830089	-0.000028	-0.119627
C12	C	0.737794	-0.000024	-0.118011
C13	C	0.428796	-0.000033	-0.188494
C14	C	0.515516	-0.000029	-0.190020
C15	C	0.535389	-0.000028	-0.038531
C16	C	0.448671	-0.000027	-0.037007
C17	C	0.395376	-0.000034	-0.111991
C18	C	0.568815	-0.000030	-0.115041
C19	C	0.662841	-0.000025	-0.116694
C20	C	0.301344	-0.000038	-0.110338
N21	N	0.982075	-0.206584	-0.113503
C22	C	1.038629	-0.248308	-0.056989
C23	C	1.038634	-0.331760	-0.056989
C24	C	0.982087	-0.373487	-0.113506
C25	C	0.925527	-0.331758	-0.170023
C26	C	0.925519	-0.248307	-0.170019
C27	C	0.925557	-0.668305	-0.170039
C28	C	0.925571	-0.751762	-0.170040
C29	C	1.038672	-0.751758	-0.057009
C30	C	1.038664	-0.668307	-0.057005
C31	C	0.982101	-0.626585	-0.113518
C32	C	0.982096	-0.536097	-0.113517
C33	C	0.982096	-0.463974	-0.113512
C34	C	1.134101	-0.000041	-0.107405
C35	C	1.226396	-0.000040	-0.109020
C36	C	0.988206	-0.000044	0.038490
C37	C	0.986591	-0.000045	0.130785
N38	N	0.982122	0.206513	-0.113522
C39	C	0.975984	-0.000025	-0.265522
C40	C	0.977599	-0.000019	-0.357817
C41	C	1.058599	-0.000036	0.353058
C42	C	1.057075	-0.000030	0.439778
C43	C	0.905586	-0.000025	0.419904
C44	C	0.907111	-0.000026	0.333185
C45	C	0.983620	-0.000036	0.299765
C46	C	0.980571	-0.000028	0.473204
C47	C	0.978918	-0.000021	0.567230
C48	C	0.985273	-0.000042	0.205733
H49	H	0.578792	-0.000025	0.022518
C50	C	1.142760	-0.000038	0.316299
N51	N	1.206154	-0.000035	0.288614
C52	C	0.370174	-0.000033	-0.270979
N53	N	0.326023	-0.000030	-0.333109
H54	H	0.542722	-0.000027	-0.252317
H55	H	1.118130	-0.000028	0.483167
H56	H	0.879466	-0.214337	-0.216037
H57	H	0.843295	-0.000019	0.447126
C58	C	0.411907	-0.000033	0.047158
N59	N	0.384216	-0.000038	0.110548
C60	C	1.100835	-0.202415	0.005186
N61	N	1.147688	-0.167852	0.052021
H62	H	1.084684	-0.365731	-0.010970
C63	C	1.100867	-0.622412	0.005171
N64	N	1.147717	-0.587845	0.052006
C65	C	0.824624	-0.000022	0.274559
N66	N	0.762497	-0.000016	0.230402
C67	C	0.863358	-0.797660	-0.232212
N68	N	0.816500	-0.832231	-0.279036
C69	C	1.100886	-0.797659	0.005165
N70	N	1.147744	-0.832231	0.051992
C71	C	0.863444	-0.622422	-0.232313
N72	N	0.816697	-0.587860	-0.279259
H73	H	0.879482	-0.365737	-0.216038
