data_functionalizedCrystal
_audit_creation_method	'MofGen! by Chris Wilmer'
_symmetry_space_group_name_H-M	'P1'
_symmetry_Int_Tables_number	1
_symmetry_cell_setting	triclinic
loop_
_symmetry_equiv_pos_as_xyz
  x,y,z
_cell_length_a	19.805407
_cell_length_b	25.639239
_cell_length_c	19.805399
_cell_angle_alpha	90.029281
_cell_angle_beta	90.019573
_cell_angle_gamma	90.039284
loop_
_atom_site_label
_atom_site_type_symbol
_atom_site_fract_x
_atom_site_fract_y
_atom_site_fract_z
Zn1	Zn	1.034675	-0.208163	0.382712
Zn2	Zn	1.368008	0.125170	0.716045
Zn3	Zn	1.701342	0.458504	1.049378
Zn4	Zn	1.034565	-0.295597	0.269520
Zn5	Zn	1.367898	0.037736	0.602853
Zn6	Zn	1.701231	0.371070	0.936187
Zn7	Zn	0.921490	-0.208177	0.269536
Zn8	Zn	1.254823	0.125156	0.602870
Zn9	Zn	1.588156	0.458489	0.936203
Zn10	Zn	0.921428	-0.295569	0.382667
Zn11	Zn	1.254761	0.037764	0.716000
Zn12	Zn	1.588095	0.371098	1.049333
O13	O	0.978039	-0.251877	0.326109
O14	O	1.311373	0.081457	0.659442
O15	O	1.644706	0.414790	0.992775
O16	O	1.129377	-0.219767	0.367709
O17	O	1.462710	0.113567	0.701042
O18	O	1.796044	0.446900	1.034375
O19	O	1.019545	-0.284018	0.174806
O20	O	1.352878	0.049315	0.508139
O21	O	1.686211	0.382648	0.841472
O22	O	0.936576	-0.135010	0.284575
O23	O	1.269910	0.198323	0.617908
O24	O	1.603243	0.531656	0.951241
O25	O	1.129296	-0.284004	0.284547
O26	O	1.462629	0.049329	0.617880
O27	O	1.795962	0.382662	0.951214
O28	O	1.019733	-0.135000	0.367724
O29	O	1.353066	0.198334	0.701058
O30	O	1.686400	0.531667	1.034391
O31	O	0.936469	-0.219791	0.174817
O32	O	1.269802	0.113542	0.508151
O33	O	1.603136	0.446875	0.841484
O34	O	0.826765	-0.219764	0.284531
O35	O	1.160098	0.113569	0.617865
O36	O	1.493432	0.446902	0.951198
O37	O	0.936471	-0.283957	0.477389
O38	O	1.269804	0.049376	0.810723
O39	O	1.603137	0.382710	1.144056
O40	O	0.826720	-0.283971	0.367648
O41	O	1.160053	0.049362	0.700981
O42	O	1.493386	0.382696	1.034314
O43	O	1.019673	-0.219740	0.477422
O44	O	1.353006	0.113593	0.810756
O45	O	1.686340	0.446927	1.144089
O46	O	1.019485	-0.368758	0.284504
O47	O	1.352818	-0.035425	0.617837
O48	O	1.686151	0.297908	0.951170
O49	O	0.936363	-0.368738	0.367632
O50	O	1.269697	-0.035405	0.700965
O51	O	1.603030	0.297929	1.034299
C52	C	0.802183	-0.251867	0.326087
C53	C	1.135517	0.081467	0.659420
C54	C	1.468850	0.414800	0.992753
C55	C	0.726951	-0.251875	0.326093
C56	C	1.060285	0.081458	0.659427
C57	C	1.393618	0.414792	0.992760
C58	C	0.691601	-0.285357	0.369302
C59	C	1.024934	0.047976	0.702636
C60	C	1.358268	0.381309	1.035969
C61	C	0.620913	-0.285358	0.369312
C62	C	0.954246	0.047975	0.702645
C63	C	1.287579	0.381308	1.035978
C64	C	0.585576	-0.251879	0.326109
C65	C	0.918909	0.081454	0.659442
C66	C	1.252242	0.414788	0.992775
C67	C	0.620931	-0.218393	0.282898
C68	C	0.954264	0.114941	0.616231
C69	C	1.287597	0.448274	0.949565
C70	C	0.691618	-0.218390	0.282892
C71	C	1.024951	0.114944	0.616226
C72	C	1.358285	0.448277	0.949559
C73	C	0.335858	-0.218404	0.282920
C74	C	0.669191	0.114929	0.616254
C75	C	1.002524	0.448262	0.949587
C76	C	0.265165	-0.218411	0.282928
C77	C	0.598499	0.114922	0.616261
C78	C	0.931832	0.448256	0.949595
C79	C	0.265152	-0.285373	0.369340
C80	C	0.598486	0.047960	0.702673
C81	C	0.931819	0.381294	1.036006
C82	C	0.335839	-0.285370	0.369334
C83	C	0.669173	0.047963	0.702667
C84	C	1.002506	0.381297	1.036001
C85	C	0.371188	-0.251882	0.326126
C86	C	0.704522	0.081451	0.659460
C87	C	1.037855	0.414785	0.992793
C88	C	0.447837	-0.251881	0.326117
C89	C	0.781170	0.081453	0.659451
C90	C	1.114503	0.414786	0.992784
C91	C	0.508929	-0.251883	0.326114
C92	C	0.842262	0.081451	0.659447
C93	C	1.175595	0.414784	0.992780
C94	C	0.977924	-0.387719	0.326076
C95	C	1.311257	-0.054386	0.659409
C96	C	1.644590	0.278947	0.992743
C97	C	0.977936	-0.445833	0.326085
C98	C	1.311269	-0.112500	0.659418
C99	C	1.644603	0.220833	0.992751
C100	C	0.934750	-0.697028	0.369380
C101	C	1.268083	-0.363695	0.702713
C102	C	1.601417	-0.030362	1.036047
C103	C	0.934725	-0.642424	0.369372
C104	C	1.268058	-0.309091	0.702705
C105	C	1.601392	0.024243	1.036039
O106	O	0.897895	-0.614189	0.406161
O107	O	1.231229	-0.280856	0.739494
O108	O	1.564562	0.052478	1.072827
N109	N	0.978021	-0.615107	0.326120
N110	N	1.311355	-0.281774	0.659453
N111	N	1.644688	0.051560	0.992787
C112	C	1.021350	-0.642397	0.282878
C113	C	1.354684	-0.309064	0.616211
C114	C	1.688017	0.024270	0.949545
O115	O	1.058175	-0.614148	0.246088
O116	O	1.391509	-0.280815	0.579422
O117	O	1.724842	0.052519	0.912755
C118	C	1.021378	-0.697000	0.282890
C119	C	1.354712	-0.363667	0.616223
C120	C	1.688045	-0.030334	0.949556
C121	C	0.978074	-0.724315	0.326140
C122	C	1.311408	-0.390981	0.659473
C123	C	1.644741	-0.057648	0.992806
C124	C	0.891450	-0.724343	0.412627
C125	C	1.224783	-0.391009	0.745960
C126	C	1.558117	-0.057676	1.079294
C127	C	0.891474	-0.778943	0.412634
C128	C	1.224808	-0.445610	0.745967
C129	C	1.558141	-0.112277	1.079300
C130	C	0.934799	-0.806230	0.369393
C131	C	1.268132	-0.472896	0.702727
C132	C	1.601465	-0.139563	1.036060
C133	C	0.978099	-0.778915	0.326146
C134	C	1.311432	-0.445582	0.659480
C135	C	1.644765	-0.112249	0.992813
C136	C	1.064710	-0.724289	0.239652
C137	C	1.398044	-0.390956	0.572985
C138	C	1.731377	-0.057623	0.906318
C139	C	1.064735	-0.778896	0.239667
C140	C	1.398068	-0.445563	0.573001
C141	C	1.731402	-0.112230	0.906334
C142	C	1.021431	-0.806211	0.282917
C143	C	1.354764	-0.472877	0.616251
C144	C	1.688098	-0.139544	0.949584
C145	C	1.021447	-0.860802	0.282913
C146	C	1.354781	-0.527469	0.616246
C147	C	1.688114	-0.194135	0.949580
N148	N	0.978151	-0.888119	0.326165
N149	N	1.311484	-0.554786	0.659498
N150	N	1.644818	-0.221452	0.992832
C151	C	0.934827	-0.860833	0.369405
C152	C	1.268160	-0.527499	0.702739
C153	C	1.601493	-0.194166	1.036072
C154	C	1.021289	-0.527727	0.282857
C155	C	1.354622	-0.194393	0.616191
C156	C	1.687956	0.138940	0.949524
C157	C	1.021258	-0.473124	0.282842
C158	C	1.354592	-0.139791	0.616175
C159	C	1.687925	0.193542	0.949508
C160	C	0.934634	-0.473155	0.369337
C161	C	1.267967	-0.139822	0.702670
C162	C	1.601300	0.193512	1.036003
C163	C	0.934661	-0.527758	0.369349
C164	C	1.267995	-0.194425	0.702682
C165	C	1.601328	0.138908	1.036015
C166	C	0.977993	-0.555044	0.326109
C167	C	1.311326	-0.221710	0.659443
C168	C	1.644659	0.111623	0.992776
C169	C	0.934881	-0.975498	0.369416
C170	C	1.268214	-0.642165	0.702749
C171	C	1.601547	-0.308831	1.036082
C172	C	0.934907	-1.030103	0.369417
C173	C	1.268240	-0.696770	0.702750
C174	C	1.601574	-0.363437	1.036083
C175	C	1.021534	-1.030068	0.282924
C176	C	1.354867	-0.696734	0.616258
C177	C	1.688200	-0.363401	0.949591
C178	C	1.021505	-0.975467	0.282921
C179	C	1.354839	-0.642134	0.616254
C180	C	1.688172	-0.308800	0.949587
C181	C	0.978177	-0.948184	0.326172
C182	C	1.311510	-0.614850	0.659505
C183	C	1.644843	-0.281517	0.992838
O184	O	1.058260	-0.889072	0.246145
O185	O	1.391593	-0.555738	0.579479
O186	O	1.724927	-0.222405	0.912812
O187	O	0.898014	-0.889089	0.406195
O188	O	1.231347	-0.555755	0.739528
O189	O	1.564681	-0.222422	1.072861
C190	C	1.154582	-0.251887	0.326131
C191	C	1.487915	0.081446	0.659464
C192	C	1.821249	0.414780	0.992798
C193	C	1.229814	-0.251891	0.326141
C194	C	1.563147	0.081442	0.659474
C195	C	1.896481	0.414775	0.992807
C196	C	0.978077	-0.251844	0.502651
C197	C	1.311411	0.081490	0.835985
C198	C	1.644744	0.414823	1.169318
C199	C	0.978093	-0.251830	0.577883
C200	C	1.311427	0.081504	0.911217
C201	C	1.644760	0.414837	1.244550
C202	C	0.978174	-0.115504	0.326156
C203	C	1.311507	0.217830	0.659490
C204	C	1.644841	0.551163	0.992823
C205	C	0.978231	-0.057389	0.326177
C206	C	1.311565	0.275944	0.659510
C207	C	1.644898	0.609277	0.992843
C208	C	0.978040	-0.251872	0.150253
C209	C	1.311374	0.081462	0.483586
C210	C	1.644707	0.414795	0.816919
C211	C	0.978155	-0.251738	0.075021
C212	C	1.311489	0.081595	0.408354
C213	C	1.644822	0.414928	0.741688
C214	C	1.021418	-0.218390	0.613246
C215	C	1.354751	0.114943	0.946579
C216	C	1.688085	0.448276	1.279913
C217	C	1.021425	-0.218375	0.683934
C218	C	1.354758	0.114958	1.017268
C219	C	1.688091	0.448292	1.350601
C220	C	0.978110	-0.251802	0.719259
C221	C	1.311444	0.081531	1.052592
C222	C	1.644777	0.414864	1.385926
C223	C	0.934781	-0.285243	0.683892
C224	C	1.268114	0.048090	1.017225
C225	C	1.601448	0.381423	1.350558
C226	C	0.934771	-0.285255	0.613205
C227	C	1.268105	0.048078	0.946538
C228	C	1.601438	0.381411	1.279871
C229	C	0.934819	-0.285194	0.968965
C230	C	1.268153	0.048139	1.302299
C231	C	1.601486	0.381472	1.635632
C232	C	0.934834	-0.285181	1.039657
C233	C	1.268167	0.048152	1.372991
C234	C	1.601501	0.381486	1.706324
C235	C	1.021473	-0.218314	1.039695
C236	C	1.354806	0.115019	1.373028
C237	C	1.688140	0.448353	1.706362
C238	C	1.021463	-0.218326	0.969008
C239	C	1.354796	0.115007	1.302341
C240	C	1.688130	0.448340	1.635674
C241	C	0.978132	-0.251765	0.933647
C242	C	1.311465	0.081568	1.266980
C243	C	1.644798	0.414902	1.600313
C244	C	0.978124	-0.251780	0.856998
C245	C	1.311457	0.081553	1.190332
C246	C	1.644790	0.414886	1.523665
C247	C	0.978121	-0.251790	0.795906
C248	C	1.311454	0.081543	1.129240
C249	C	1.644788	0.414877	1.462573
H250	H	0.364607	-0.312634	0.404512
H251	H	0.697941	0.020699	0.737846
H252	H	1.031274	0.354033	1.071179
C253	C	0.582031	-0.322202	0.416832
C254	C	0.915364	0.011131	0.750165
C255	C	1.248697	0.344465	1.083498
N256	N	0.552745	-0.349958	0.452622
N257	N	0.886079	-0.016624	0.785955
N258	N	1.219412	0.316709	1.119288
H259	H	0.899403	-0.549994	0.404570
H260	H	1.232737	-0.216661	0.737904
H261	H	1.566070	0.116673	1.071237
C262	C	1.069185	-1.060093	0.235360
C263	C	1.402519	-0.726760	0.568693
C264	C	1.735852	-0.393426	0.902026
N265	N	1.105079	-1.082710	0.199536
N266	N	1.438413	-0.749376	0.532869
N267	N	1.771746	-0.416043	0.866202
C268	C	0.730503	-0.181557	0.235358
C269	C	1.063836	0.151776	0.568691
C270	C	1.397169	0.485109	0.902025
N271	N	0.759790	-0.153813	0.199555
N272	N	1.093123	0.179520	0.532888
N273	N	1.426457	0.512854	0.866221
H274	H	1.056513	-0.450889	0.247616
H275	H	1.389846	-0.117555	0.580949
H276	H	1.723179	0.215778	0.914283
C277	C	1.112340	-0.694256	0.192063
C278	C	1.445674	-0.360923	0.525397
C279	C	1.779007	-0.027589	0.858730
N280	N	1.148215	-0.671636	0.156214
N281	N	1.481549	-0.338302	0.489548
N282	N	1.814882	-0.004969	0.822881
H283	H	0.236396	-0.191145	0.247747
H284	H	0.569729	0.142188	0.581080
H285	H	0.903063	0.475522	0.914413
C286	C	1.069131	-0.181524	1.078599
C287	C	1.402464	0.151809	1.411932
C288	C	1.735797	0.485143	1.745265
N289	N	1.105025	-0.153814	1.107900
N290	N	1.438358	0.179519	1.441233
N291	N	1.771692	0.512853	1.774566
H292	H	0.899511	-0.312458	0.712659
H293	H	1.232845	0.020875	1.045992
H294	H	1.566178	0.354208	1.379325
H295	H	0.899559	-0.312402	1.068417
H296	H	1.232892	0.020931	1.401750
H297	H	1.566226	0.354264	1.735084
H298	H	0.899357	-0.450929	0.404546
H299	H	1.232691	-0.117595	0.737880
H300	H	1.566024	0.215738	1.071213
C301	C	0.843841	-0.808982	0.460217
C302	C	1.177174	-0.475648	0.793551
C303	C	1.510507	-0.142315	1.126884
N304	N	0.807962	-0.831603	0.496062
N305	N	1.141296	-0.498270	0.829395
N306	N	1.474629	-0.164937	1.162728
C307	C	1.069086	-0.181590	0.722830
C308	C	1.402420	0.151744	1.056163
C309	C	1.735753	0.485077	1.389496
N310	N	1.104987	-0.153881	0.752125
N311	N	1.438320	0.179452	1.085459
N312	N	1.771654	0.512785	1.418792
H313	H	1.056692	-0.191171	0.584490
H314	H	1.390025	0.142162	0.917823
H315	H	1.723358	0.475495	1.251156
H316	H	0.720367	-0.312622	0.404481
H317	H	1.053701	0.020711	0.737814
H318	H	1.387034	0.354045	1.071148
H319	H	1.056736	-0.191108	0.940250
H320	H	1.390070	0.142225	1.273583
H321	H	1.723403	0.475559	1.606917
H322	H	1.100023	-0.801109	0.204458
H323	H	1.433357	-0.467776	0.537791
H324	H	1.766690	-0.134443	0.871125
C325	C	0.226262	-0.322207	0.416875
C326	C	0.559596	0.011127	0.750209
C327	C	0.892929	0.344460	1.083542
N328	N	0.196971	-0.349949	0.452677
N329	N	0.530305	-0.016616	0.786011
N330	N	0.863638	0.316717	1.119344
C331	C	0.374732	-0.181570	0.235386
C332	C	0.708066	0.151764	0.568720
C333	C	1.041399	0.485097	0.902053
N334	N	0.404015	-0.153825	0.199580
N335	N	0.737348	0.179508	0.532913
N336	N	1.070682	0.512842	0.866247
H337	H	1.056760	-0.953227	0.247696
H338	H	1.390094	-0.619894	0.581029
H339	H	1.723427	-0.286561	0.914362
C340	C	0.887151	-0.321977	0.930077
C341	C	1.220485	0.011357	1.263410
C342	C	1.553818	0.344690	1.596744
N343	N	0.851244	-0.349682	0.900784
N344	N	1.184578	-0.016348	1.234118
N345	N	1.517911	0.316985	1.567451
C346	C	0.887112	-0.322042	0.574306
C347	C	1.220446	0.011291	0.907640
C348	C	1.553779	0.344624	1.240973
N349	N	0.851213	-0.349750	0.545009
N350	N	1.184546	-0.016417	0.878342
N351	N	1.517879	0.316916	1.211676
H352	H	0.899642	-1.052340	0.404638
H353	H	1.232976	-0.719007	0.737971
H354	H	1.566309	-0.385673	1.071304
C355	C	0.582058	-0.181564	0.235376
C356	C	0.915391	0.151770	0.568709
C357	C	1.248724	0.485103	0.902042
N358	N	0.552779	-0.153824	0.199579
N359	N	0.886112	0.179509	0.532913
N360	N	1.219446	0.512842	0.866246
H361	H	0.899599	-0.953290	0.404636
H362	H	1.232933	-0.619956	0.737969
H363	H	1.566266	-0.286623	1.071302
H364	H	1.056573	-0.549939	0.247641
H365	H	1.389907	-0.216606	0.580974
H366	H	1.723240	0.116728	0.914308
C367	C	0.843799	-0.694336	0.460212
C368	C	1.177132	-0.361003	0.793545
C369	C	1.510465	-0.027670	1.126879
N370	N	0.807906	-0.671739	0.496058
N371	N	1.141239	-0.338406	0.829391
N372	N	1.474573	-0.005073	1.162724
