data_functionalizedCrystal
_audit_creation_method	'MofGen! by Chris Wilmer'
_symmetry_space_group_name_H-M	'P1'
_symmetry_Int_Tables_number	1
_symmetry_cell_setting	triclinic
loop_
_symmetry_equiv_pos_as_xyz
  x,y,z
_cell_length_a	12.594517
_cell_length_b	12.594516
_cell_length_c	12.594509
_cell_angle_alpha	90.027875
_cell_angle_beta	90.021327
_cell_angle_gamma	90.011616
loop_
_atom_site_label
_atom_site_type_symbol
_atom_site_fract_x
_atom_site_fract_y
_atom_site_fract_z
Zn1	Zn	1.627298	-0.423716	0.601863
Zn2	Zn	1.627202	-0.601726	0.423885
Zn3	Zn	1.449302	-0.423761	0.423892
Zn4	Zn	1.449298	-0.601652	0.601815
O5	O	1.538275	-0.512714	0.512864
O6	O	1.776231	-0.447341	0.578271
O7	O	1.603565	-0.578169	0.274940
O8	O	1.472956	-0.274809	0.447522
O9	O	1.776161	-0.578124	0.447512
O10	O	1.603729	-0.274776	0.578277
O11	O	1.472863	-0.447419	0.274945
O12	O	1.300356	-0.447347	0.447476
O13	O	1.472948	-0.577998	0.750767
O14	O	1.300352	-0.578042	0.578196
O15	O	1.603724	-0.447269	0.750802
O16	O	1.603561	-0.750662	0.447466
O17	O	1.472855	-0.750608	0.578190
C18	C	1.261734	-0.512692	0.512832
C19	C	1.143429	-0.512709	0.512844
C20	C	1.074146	-0.441526	0.441881
C21	C	1.003343	-0.538615	0.415702
C22	C	1.003433	-0.415668	0.539042
C23	C	1.074183	-0.609849	0.486614
C24	C	1.074280	-0.486836	0.609999
C25	C	1.003508	-0.583991	0.583857
C26	C	1.538226	-0.789255	0.512845
C27	C	1.538302	-0.907560	0.512873
C28	C	1.609475	-0.976804	0.441848
C29	C	1.635486	-1.047501	0.538997
C30	C	1.512425	-1.047662	0.415785
C31	C	1.564362	-0.976698	0.610073
C32	C	1.441256	-0.976854	0.486796
C33	C	1.467229	-1.047519	0.584012
C34	C	1.815896	-0.512736	0.512896
C35	C	1.934201	-0.512745	0.512909
C36	C	1.538346	-0.512620	0.790485
C37	C	1.538377	-0.512581	0.908790
C38	C	1.538354	-0.235093	0.512906
C39	C	1.538387	-0.116787	0.512923
C40	C	1.538265	-0.512730	0.236323
C41	C	1.538441	-0.512470	0.118018
C42	C	1.467270	-0.583644	0.978025
C43	C	1.564392	-0.609650	1.048815
C44	C	1.441330	-0.486510	1.048799
C45	C	1.635550	-0.538638	0.978023
C46	C	1.512422	-0.415453	0.978000
C47	C	1.609612	-0.441422	1.048759
H48	H	0.972185	-0.560522	0.333568
H49	H	1.717593	-1.078536	0.561082
H50	H	1.586203	-0.945660	0.692271
H51	H	1.669674	-0.945753	0.381838
N52	N	1.387546	-1.088374	0.663695
H53	H	1.425077	-1.133472	0.718349
H54	H	1.332256	-1.132540	0.625920
H55	H	1.717672	-0.560736	0.947064
N56	N	1.483379	-1.088957	0.307005
H57	H	1.537163	-1.063233	0.253399
H58	H	1.410547	-1.062146	0.286830
H59	H	1.407184	-0.643833	0.946967
H60	H	1.359173	-0.945796	0.464682
H61	H	1.586380	-0.691742	1.079921
N62	N	1.689386	-0.361766	1.089668
H63	H	1.762653	-0.381558	1.063790
H64	H	1.688436	-0.361772	1.169853
N65	N	1.483263	-0.306750	0.936749
H66	H	1.409876	-0.287163	0.962443
H67	H	1.484205	-0.307526	0.856567
N68	N	1.332588	-0.457356	1.089988
H69	H	1.278915	-0.511130	1.064257
H70	H	1.312500	-0.384537	1.063113
H71	H	1.105163	-0.381389	0.381796
H72	H	1.105131	-0.691955	0.464392
N73	N	0.962673	-0.663831	0.663388
H74	H	0.988549	-0.737082	0.643489
H75	H	0.882489	-0.662883	0.663385
H76	H	0.972301	-0.333597	0.561136
H77	H	1.105463	-0.464899	0.692108
