data_functionalizedCrystal
_audit_creation_method	'MofGen! by Chris Wilmer'
_symmetry_space_group_name_H-M	'P1'
_symmetry_Int_Tables_number	1
_symmetry_cell_setting	triclinic
loop_
_symmetry_equiv_pos_as_xyz
  x,y,z
_cell_length_a	12.594516
_cell_length_b	12.594517
_cell_length_c	12.594509
_cell_angle_alpha	90.025818
_cell_angle_beta	89.973801
_cell_angle_gamma	89.989009
loop_
_atom_site_label
_atom_site_type_symbol
_atom_site_fract_x
_atom_site_fract_y
_atom_site_fract_z
Zn1	Zn	-0.423854	-1.627267	-0.602003
Zn2	Zn	-0.601864	-1.627158	-0.424030
Zn3	Zn	-0.423884	-1.449271	-0.424017
Zn4	Zn	-0.601775	-1.449253	-0.601946
O5	O	-0.512844	-1.538237	-0.512999
O6	O	-0.447492	-1.776198	-0.578423
O7	O	-0.578305	-1.603523	-0.275083
O8	O	-0.274934	-1.472936	-0.447646
O9	O	-0.578275	-1.776118	-0.447668
O10	O	-0.274912	-1.603709	-0.578411
O11	O	-0.447544	-1.472830	-0.275073
O12	O	-0.447457	-1.300323	-0.447591
O13	O	-0.578123	-1.472905	-0.750900
O14	O	-0.578153	-1.300310	-0.578315
O15	O	-0.447405	-1.603691	-0.750941
O16	O	-0.750798	-1.603505	-0.447613
O17	O	-0.750732	-1.472799	-0.578327
C18	C	-0.512799	-1.261696	-0.512946
C19	C	-0.512806	-1.143391	-0.512949
C20	C	-0.441618	-1.074114	-0.441978
C21	C	-0.538700	-1.003303	-0.415796
C22	C	-0.415753	-1.003403	-0.539132
C23	C	-0.609940	-1.074138	-0.486716
C24	C	-0.486927	-1.074244	-0.610097
C25	C	-0.584077	-1.003465	-0.583952
C26	C	-0.789385	-1.538167	-0.512989
C27	C	-0.907691	-1.538235	-0.513020
C28	C	-0.976947	-1.467137	-0.584065
C29	C	-1.047810	-1.441204	-0.486940
C30	C	-1.047626	-1.564265	-0.610162
C31	C	-0.976995	-1.512250	-0.415843
C32	C	-0.976806	-1.635357	-0.539130
C33	C	-1.047637	-1.609461	-0.441938
C34	C	-0.235223	-1.538336	-0.513033
C35	C	-0.116918	-1.538378	-0.513047
C36	C	-0.512751	-1.538308	-0.790620
C37	C	-0.512711	-1.538339	-0.908926
C38	C	-0.512869	-0.815858	-0.513033
C39	C	-0.512825	-0.934163	-0.512998
C40	C	-0.583768	-1.467227	-0.978157
C41	C	-0.609783	-1.564347	-1.048956
C42	C	-0.486632	-1.441294	-1.048926
C43	C	-0.538777	-1.635510	-0.978167
C44	C	-0.415581	-1.512392	-0.978131
C45	C	-0.441559	-1.609579	-1.048898
C46	C	-0.512860	-1.538227	-0.236458
C47	C	-0.512600	-1.538403	-0.118153
H48	H	-0.560604	-0.972144	-0.333660
O49	O	-0.940094	-1.485759	-0.317889
C50	C	-0.836050	-1.363174	-0.214203
C51	C	-0.877791	-1.393044	-0.325186
H52	H	-0.785651	-1.288225	-0.220070
H53	H	-0.905927	-1.348266	-0.158585
H54	H	-0.785609	-1.430974	-0.181799
H55	H	-0.928216	-1.325283	-0.357686
H56	H	-0.807867	-1.407990	-0.380733
O57	O	-0.707887	-1.111167	-0.460350
C58	C	-0.859017	-1.215365	-0.514205
C59	C	-0.748096	-1.173520	-0.544191
H60	H	-0.891569	-1.265767	-0.581982
H61	H	-0.853082	-1.265769	-0.439277
H62	H	-0.914553	-1.145461	-0.499177
H63	H	-0.692500	-1.243359	-0.559274
H64	H	-0.754115	-1.123084	-0.619089
O65	O	-0.460422	-1.343409	-1.086187
C66	C	-0.429962	-1.234077	-1.240176
C67	C	-0.459669	-1.344976	-1.198126
H68	H	-0.429322	-1.235313	-1.330683
H69	H	-0.490684	-1.173488	-1.211192
H70	H	-0.347806	-1.211347	-1.209768
H71	H	-0.541800	-1.367806	-1.228516
H72	H	-0.398879	-1.405500	-1.227100
H73	H	-0.560881	-1.717631	-0.947215
O74	O	-0.655917	-0.966811	-0.655710
C75	C	-0.710781	-0.962829	-0.838933
C76	C	-0.629360	-1.004434	-0.757783
H77	H	-0.689326	-0.993213	-0.921480
H78	H	-0.793461	-0.992082	-0.816525
H79	H	-0.709793	-0.872318	-0.838874
H80	H	-0.630252	-1.094943	-0.757800
H81	H	-0.546717	-0.975100	-0.780220
H82	H	-0.381482	-1.105135	-0.381894
H83	H	-0.333679	-0.972276	-0.561222
H84	H	-0.464993	-1.105429	-0.692209
H85	H	-1.078652	-1.586224	-0.692302
H86	H	-0.643952	-1.407136	-0.947096
H87	H	-1.078480	-1.669647	-0.381800
H88	H	-0.381421	-1.669813	-1.079763
O89	O	-0.940086	-1.395207	-0.655650
C90	C	-0.984594	-1.262831	-0.786351
C91	C	-1.026484	-1.344236	-0.705309
H92	H	-1.054426	-1.221613	-0.826539
H93	H	-0.933662	-1.201279	-0.743805
H94	H	-0.934670	-1.305395	-0.848763
H95	H	-1.076452	-1.301763	-0.642876
H96	H	-1.077357	-1.405782	-0.747929
O97	O	-0.707707	-1.590422	-1.086207
C98	C	-0.858101	-1.536459	-1.191369
C99	C	-0.747200	-1.506819	-1.149281
H100	H	-0.890074	-1.468874	-1.242355
H101	H	-0.852355	-1.611803	-1.241246
H102	H	-0.914013	-1.550620	-1.121590
H103	H	-0.691228	-1.492602	-1.218996
H104	H	-0.753030	-1.431504	-1.099373
H105	H	-1.079022	-1.359136	-0.464878
O106	O	-0.939517	-1.733271	-0.565313
C107	C	-0.835704	-1.884453	-0.510848
C108	C	-0.877883	-1.773586	-0.481037
H109	H	-0.785846	-1.917071	-0.442737
H110	H	-0.905357	-1.940065	-0.526586
H111	H	-0.784621	-1.878265	-0.585337
H112	H	-0.928950	-1.779671	-0.406534
H113	H	-0.808181	-1.718016	-0.465368
O114	O	-0.317707	-1.485951	-0.941026
C115	C	-0.179589	-1.353717	-0.934968
C116	C	-0.290449	-1.383532	-0.977043
H117	H	-0.157507	-1.270920	-0.964089
H118	H	-0.180375	-1.354639	-0.844457
H119	H	-0.118778	-1.413565	-0.965271
H120	H	-0.351322	-1.323713	-0.946818
H121	H	-0.289575	-1.382644	-1.067552
