data_functionalizedCrystal
_audit_creation_method	'MofGen! by Chris Wilmer'
_symmetry_space_group_name_H-M	'P1'
_symmetry_Int_Tables_number	1
_symmetry_cell_setting	triclinic
loop_
_symmetry_equiv_pos_as_xyz
  x,y,z
_cell_length_a	33.592126
_cell_length_b	33.591377
_cell_length_c	33.588093
_cell_angle_alpha	60.004089
_cell_angle_beta	60.008299
_cell_angle_gamma	59.994549
loop_
_atom_site_label
_atom_site_type_symbol
_atom_site_fract_x
_atom_site_fract_y
_atom_site_fract_z
O1	O	0.055297	-0.581666	0.486338
O2	O	0.020882	-0.452873	0.391864
O3	O	0.102445	-0.534352	0.391775
O4	O	-0.026266	-0.500187	0.486427
O5	O	0.129510	-0.507292	0.418747
O6	O	0.047947	-0.425814	0.418835
O7	O	0.082362	-0.554606	0.513309
Cu8	Cu	0.067626	-0.487739	0.468535
Cu9	Cu	0.035618	-0.519740	0.436638
O10	O	0.000799	-0.473128	0.513398
N11	N	0.090139	-0.465235	0.490972
N12	N	0.013110	-0.542249	0.414202
C13	C	0.124394	-0.431229	0.734914
C14	C	0.334265	-0.431145	0.524799
C15	C	0.124204	-0.431200	0.524965
C16	C	0.124184	-0.221175	0.524955
C17	C	0.158017	-0.322536	0.558710
C18	C	0.158027	-0.397406	0.558711
C19	C	0.176763	-0.378688	0.577408
C20	C	0.258412	-0.364594	0.534386
C21	C	0.309454	-0.381596	0.517340
C22	C	0.309485	-0.464188	0.548836
C23	C	0.258444	-0.447186	0.565883
C24	C	0.170304	-0.297002	0.508532
C25	C	0.153260	-0.245956	0.491537
C26	C	0.111648	-0.245983	0.574901
C27	C	0.128691	-0.297029	0.591896
C28	C	0.107841	-0.385091	0.571080
C29	C	0.090813	-0.402108	0.554078
C30	C	0.174153	-0.443755	0.512351
C31	C	0.191183	-0.426739	0.529347
C32	C	0.107923	-0.385106	0.659111
C33	C	0.090955	-0.402138	0.710156
C34	C	0.174335	-0.443795	0.710087
C35	C	0.191302	-0.426764	0.659041
C36	C	0.158095	-0.397418	0.633555
C37	C	0.232909	-0.397388	0.558656
C38	C	0.105069	-0.449619	0.791057
C39	C	0.390406	-0.449193	0.505789
C40	C	0.104813	-0.449599	0.506607
C41	C	0.105125	-0.165028	0.506915
C42	C	-0.020560	-0.576246	0.169890
C43	C	-0.020889	-0.786183	0.379970
C44	C	-0.020859	-0.576235	0.380063
C45	C	-0.230772	-0.576015	0.379658
C46	C	-0.129417	-0.609898	0.346025
C47	C	-0.054587	-0.609979	0.346172
C48	C	-0.073269	-0.628671	0.327396
C49	C	-0.087401	-0.710299	0.370335
C50	C	-0.070424	-0.761345	0.387369
C51	C	0.012165	-0.761428	0.356003
C52	C	-0.004813	-0.710383	0.338967
C53	C	-0.155001	-0.622196	0.396191
C54	C	-0.206043	-0.605128	0.413125
C55	C	-0.205914	-0.563467	0.329724
C56	C	-0.154872	-0.580535	0.312790
C57	C	-0.066886	-0.559797	0.333828
C58	C	-0.049903	-0.542809	0.350903
C59	C	-0.008321	-0.626180	0.392654
C60	C	-0.025304	-0.643170	0.375585
C61	C	-0.066758	-0.559805	0.245702
C62	C	-0.049671	-0.542819	0.194658
C63	C	-0.008026	-0.626194	0.194706
C64	C	-0.025111	-0.643179	0.245752
C65	C	-0.054479	-0.609983	0.271248
C66	C	-0.054597	-0.684821	0.346135
C67	C	-0.002109	-0.556901	0.113746
C68	C	-0.002869	-0.842328	0.398966
C69	C	-0.002496	-0.556887	0.398501
C70	C	-0.286914	-0.556929	0.397631
N71	N	0.436349	-0.465146	0.490703
O72	O	0.592194	-0.469605	0.374236
O73	O	0.592389	-0.564393	0.502890
O74	O	0.592305	-0.564176	0.421300
O75	O	0.592277	-0.469822	0.455826
O76	O	0.511216	-0.537214	0.448415
O77	O	0.511300	-0.537431	0.530004
O78	O	0.511104	-0.442643	0.401350
Cu79	Cu	0.503798	-0.487575	0.468153
Cu80	Cu	0.599695	-0.519461	0.436087
O81	O	0.511188	-0.442860	0.482940
N82	N	0.667145	-0.541890	0.413532
N83	N	0.090108	-0.119085	0.490958
O84	O	-0.026275	0.036848	0.486394
O85	O	0.102381	0.036888	0.391584
O86	O	0.020751	0.036852	0.391854
O87	O	0.055356	0.036884	0.486124
O88	O	0.047821	-0.044242	0.418876
O89	O	0.129452	-0.044207	0.418606
O90	O	0.000796	-0.044246	0.513417
Cu91	Cu	0.067596	-0.051631	0.468479
Cu92	Cu	0.035582	0.044273	0.436522
O93	O	0.082426	-0.044211	0.513146
N94	N	0.013063	0.111726	0.414043
N95	N	0.090453	-0.465282	0.837001
O96	O	0.085913	-0.581648	0.992925
O97	O	-0.008857	-0.452947	0.992970
O98	O	-0.008635	-0.534562	0.992946
O99	O	0.085691	-0.500033	0.992949
O100	O	0.018365	-0.507512	0.911855
O101	O	0.018143	-0.425898	0.911878
O102	O	0.112912	-0.554598	0.911834
Cu103	Cu	0.067993	-0.487778	0.904452
Cu104	Cu	0.036063	-0.519767	1.000352
O105	O	0.112691	-0.472984	0.911857
N106	N	0.013602	-0.542269	1.067803
C107	C	0.031188	-0.423114	0.392334
C108	C	0.132194	-0.524016	0.392223
C109	C	0.072056	-0.584366	0.512840
C110	C	-0.028950	-0.483464	0.512950
C111	C	0.551868	-0.563965	0.532655
C112	C	0.551766	-0.563697	0.431617
C113	C	0.551623	-0.443070	0.371586
C114	C	0.551728	-0.443339	0.472623
C115	C	0.132090	-0.003555	0.392006
C116	C	0.031035	-0.003698	0.392374
C117	C	-0.028947	-0.003703	0.512961
C118	C	0.072143	-0.003661	0.512626
C119	C	-0.008408	-0.423209	0.952430
C120	C	-0.008128	-0.524272	0.952385
C121	C	0.112464	-0.584336	0.952374
C122	C	0.112190	-0.483267	0.952401
H123	H	0.050098	-0.392105	0.730957
O124	O	0.027110	-0.685685	0.315410
C125	C	0.097910	-0.670123	0.246684
C126	C	0.061799	-0.698132	0.273320
H127	H	0.125958	-0.680168	0.212643
H128	H	0.117267	-0.680183	0.271910
H129	H	0.077211	-0.629251	0.235763
H130	H	0.082460	-0.739010	0.284244
H131	H	0.042441	-0.688031	0.248078
H132	H	-0.037749	-0.531650	0.952352
O133	O	0.022283	-0.003776	0.357020
C134	C	0.045700	-0.045819	0.303867
C135	C	0.055666	-0.045784	0.343897
H136	H	0.072677	-0.079784	0.293253
H137	H	0.050064	-0.011903	0.270560
H138	H	0.006950	-0.045811	0.318179
H139	H	0.094414	-0.045809	0.329631
H140	H	0.051270	-0.079697	0.377196
H141	H	0.551779	-0.593338	0.424228
O142	O	0.080751	-0.628468	0.548302
C143	C	0.048780	-0.678621	0.630477
C144	C	0.038872	-0.628650	0.590364
H145	H	0.014924	-0.678789	0.664490
H146	H	0.080677	-0.685729	0.639630
H147	H	0.058067	-0.708356	0.616990
H148	H	0.029564	-0.598884	0.603817
H149	H	0.006988	-0.621584	0.581216
H150	H	-0.038161	-0.386246	0.952443
H151	H	0.551722	-0.413701	0.480010
O152	O	0.147901	-0.628464	0.952377
C153	C	0.170586	-0.708776	0.952316
C154	C	0.130406	-0.658828	0.952325
H155	H	0.156460	-0.733335	0.952263
H156	H	0.181231	-0.726326	0.986256
H157	H	0.203831	-0.703628	0.918383
H158	H	0.097136	-0.663933	0.986235
H159	H	0.119803	-0.641294	0.918362
H160	H	0.141823	-0.475877	0.952395
H161	H	0.168963	-0.003318	0.362168
O162	O	0.551571	-0.407625	0.327475
C163	C	0.551434	-0.384938	0.247191
C164	C	0.551506	-0.425127	0.297119
H165	H	0.551371	-0.399070	0.222638
H166	H	0.585355	-0.374271	0.229616
H167	H	0.517484	-0.351704	0.252370
H168	H	0.585433	-0.458387	0.291983
H169	H	0.517562	-0.435753	0.314677
H170	H	-0.065919	-0.476185	0.542670
H171	H	0.079554	-0.003651	0.542242
O172	O	0.075597	-0.356622	0.634430
C173	C	-0.008896	-0.317075	0.639886
C174	C	0.027656	-0.349343	0.667898
H175	H	-0.047664	-0.311171	0.666933
H176	H	-0.003072	-0.335767	0.616006
H177	H	-0.003008	-0.280365	0.615975
H178	H	0.021791	-0.386059	0.691835
H179	H	0.021823	-0.330613	0.691747
O180	O	0.206660	-0.472305	0.734765
C181	C	0.291154	-0.511788	0.729302
C182	C	0.254599	-0.479506	0.701294
H183	H	0.329921	-0.517612	0.702253
H184	H	0.285341	-0.548534	0.753186
H185	H	0.285260	-0.493087	0.753210
H186	H	0.260472	-0.498164	0.677360
H187	H	0.260422	-0.442762	0.677441
H188	H	-0.065895	-0.003715	0.542725
H189	H	0.232159	-0.436796	0.638236
O190	O	0.551848	-0.599456	0.576755
C191	C	0.509957	-0.652849	0.648312
C192	C	0.509911	-0.612648	0.598386
H193	H	0.476060	-0.663535	0.665811
H194	H	0.509941	-0.638734	0.672928
H195	H	0.543930	-0.686068	0.643142
H196	H	0.475944	-0.579416	0.603510
H197	H	0.509953	-0.626803	0.573787
O198	O	0.042059	-0.390209	0.566175
C199	C	-0.034349	-0.394119	0.630935
C200	C	0.020858	-0.407634	0.617303
H201	H	-0.051508	-0.408193	0.672272
H202	H	-0.040850	-0.411337	0.613777
H203	H	-0.051568	-0.352788	0.616844
H204	H	0.038114	-0.448958	0.631391
H205	H	0.027324	-0.390382	0.634454
O206	O	0.206429	-0.472228	0.483817
C207	C	0.290892	-0.511768	0.444252
C208	C	0.254392	-0.479510	0.476561
H209	H	0.329678	-0.517673	0.438384
H210	H	0.285013	-0.493066	0.407529
H211	H	0.285000	-0.548478	0.462953
H212	H	0.260261	-0.442794	0.457903
H213	H	0.260279	-0.498250	0.513283
H214	H	0.080840	-0.361208	0.594989
H215	H	0.232048	-0.436761	0.519270
H216	H	0.237680	-0.473893	0.585645
H217	H	0.330277	-0.504737	0.554712
H218	H	0.330218	-0.354891	0.497577
H219	H	0.237625	-0.324046	0.528499
O220	O	0.198716	-0.321760	0.476281
C221	C	0.205188	-0.337346	0.410242
C222	C	0.172956	-0.309286	0.446750
H223	H	0.184378	-0.327264	0.386350
H224	H	0.215249	-0.378221	0.430985
H225	H	0.239817	-0.327300	0.386342
H226	H	0.138307	-0.319291	0.470660
H227	H	0.162934	-0.268417	0.425977
O228	O	0.165109	-0.221126	0.442796
C229	C	0.135707	-0.163462	0.375258
C230	C	0.122220	-0.191559	0.430460
H231	H	0.101039	-0.139543	0.365268
H232	H	0.159571	-0.190438	0.354433
H233	H	0.156500	-0.139577	0.365211
H234	H	0.101409	-0.215445	0.440551
H235	H	0.098379	-0.164557	0.451254
H236	H	0.087777	-0.225214	0.601924
H237	H	-0.059677	-0.501957	0.173865
O238	O	0.116730	-0.321761	0.640658
C239	C	0.073631	-0.316404	0.721552
C240	C	0.087151	-0.288335	0.666344
H241	H	0.049707	-0.289392	0.742335
H242	H	0.108270	-0.340281	0.731600
H243	H	0.052879	-0.340325	0.731591
H244	H	0.107891	-0.264388	0.656265
H245	H	0.052495	-0.264489	0.656325
H246	H	-0.090673	-0.532769	0.266460
H247	H	-0.015108	-0.684041	0.266548
O248	O	0.020506	-0.658507	0.170018
C249	C	0.059973	-0.742999	0.175460
C250	C	0.027666	-0.706456	0.203480
H251	H	0.065764	-0.781773	0.202502
H252	H	0.096730	-0.737201	0.151632
H253	H	0.041314	-0.737070	0.151497
H254	H	0.046283	-0.712362	0.227469
H255	H	-0.009088	-0.712262	0.227278
O256	O	-0.095346	-0.527489	0.305282
C257	C	-0.134776	-0.443002	0.265650
C258	C	-0.102552	-0.479538	0.297993
H259	H	-0.140604	-0.404225	0.259738
H260	H	-0.171521	-0.448806	0.284285
H261	H	-0.116028	-0.448931	0.228951
H262	H	-0.121257	-0.473630	0.334698
H263	H	-0.065808	-0.473724	0.279320
H264	H	0.015526	-0.653210	0.416597
O265	O	-0.061755	-0.494076	0.338895
C266	C	-0.032355	-0.426558	0.299656
C267	C	-0.018867	-0.481754	0.313233
H268	H	0.002311	-0.416577	0.278897
H269	H	-0.053151	-0.416471	0.334270
H270	H	-0.056217	-0.405756	0.275718
H271	H	0.005011	-0.502594	0.337158
H272	H	0.001904	-0.491804	0.278599
H273	H	0.052703	-0.782242	0.350169
O274	O	-0.013294	-0.691932	0.387599
C275	C	0.029720	-0.772835	0.430834
C276	C	0.016162	-0.717627	0.417258
H277	H	0.053529	-0.793626	0.454823
H278	H	0.050572	-0.782929	0.396220
H279	H	-0.004940	-0.782822	0.451536
H280	H	0.050797	-0.707600	0.396567
H281	H	-0.004708	-0.707563	0.451889
H282	H	0.023834	-0.386116	0.362662
H283	H	-0.097137	-0.782089	0.407066
H284	H	-0.134277	-0.646110	0.423254
O285	O	-0.135750	-0.685486	0.377218
C286	C	-0.206099	-0.669819	0.362115
C287	C	-0.151341	-0.697948	0.354283
H288	H	-0.218723	-0.679892	0.343586
H289	H	-0.212615	-0.628954	0.345757
H290	H	-0.227505	-0.679812	0.402838
H291	H	-0.129899	-0.687995	0.313571
H292	H	-0.144862	-0.738806	0.370674
O293	O	-0.230824	-0.617140	0.461875
C294	C	-0.225568	-0.660248	0.542813
C295	C	-0.197445	-0.646687	0.487618
H296	H	-0.198594	-0.684130	0.563642
H297	H	-0.249456	-0.681028	0.552833
H298	H	-0.249480	-0.625592	0.552824
H299	H	-0.173507	-0.681318	0.477568
H300	H	-0.173589	-0.625889	0.477627
O301	O	-0.230592	-0.535005	0.297397
C302	C	-0.246141	-0.528486	0.231311
C303	C	-0.218154	-0.560768	0.267886
H304	H	-0.236103	-0.549306	0.207449
H305	H	-0.236058	-0.493876	0.207389
H306	H	-0.287014	-0.518386	0.252046
H307	H	-0.177275	-0.570905	0.247190
H308	H	-0.228278	-0.595355	0.291807
O309	O	0.176328	-0.532771	0.356823
C310	C	0.256611	-0.590542	0.334248
C311	C	0.206656	-0.580688	0.374385
H312	H	0.281141	-0.629286	0.348428
H313	H	0.274185	-0.563526	0.323580
H314	H	0.251475	-0.586116	0.301004
H315	H	0.211749	-0.585121	0.407655
H316	H	0.189099	-0.607702	0.385011
H317	H	-0.134040	-0.570516	0.271939
