data_functionalizedCrystal
_audit_creation_method	'MofGen! by Chris Wilmer'
_symmetry_space_group_name_H-M	'P1'
_symmetry_Int_Tables_number	1
_symmetry_cell_setting	triclinic
loop_
_symmetry_equiv_pos_as_xyz
  x,y,z
_cell_length_a	10.654555
_cell_length_b	14.048226
_cell_length_c	10.654550
_cell_angle_alpha	90.006260
_cell_angle_beta	95.514047
_cell_angle_gamma	89.996201
loop_
_atom_site_label
_atom_site_type_symbol
_atom_site_fract_x
_atom_site_fract_y
_atom_site_fract_z
O1	O	-1.667841	0.079103	0.176432
O2	O	-1.167841	0.579103	0.676432
O3	O	-1.302363	0.079117	0.193231
O4	O	-0.802363	0.579117	0.693231
O5	O	-1.493505	0.079103	0.002092
O6	O	-0.993505	0.579103	0.502092
O7	O	-1.476699	0.079116	0.367570
O8	O	-0.976699	0.579116	0.867570
O9	O	-1.493482	-0.079218	0.002081
O10	O	-0.993482	0.420782	0.502081
O11	O	-1.302340	-0.079204	0.193220
O12	O	-0.802340	0.420796	0.693220
O13	O	-1.667818	-0.079219	0.176420
O14	O	-1.167818	0.420781	0.676420
Zn15	Zn	-1.485075	-0.104348	0.184818
Zn16	Zn	-0.985075	0.395652	0.684818
Zn17	Zn	-1.485106	0.104247	0.184833
Zn18	Zn	-0.985106	0.604247	0.684833
O19	O	-1.476676	-0.079205	0.367559
O20	O	-0.976676	0.420795	0.867559
C21	C	-1.255554	-0.000042	0.191991
C22	C	-0.755554	0.499958	0.691991
C23	C	-1.116111	-0.000036	0.188296
C24	C	-0.616111	0.499964	0.688296
N25	N	-1.485063	-0.246709	0.184807
N26	N	-0.985063	0.253291	0.684807
C27	C	-0.919578	0.086260	0.183101
C28	C	-0.419578	0.586260	0.683101
C29	C	-1.050600	0.086264	0.186564
C30	C	-0.550600	0.586264	0.686564
C31	C	-1.050594	-0.086347	0.186551
C32	C	-0.550594	0.413653	0.686551
C33	C	-0.919575	-0.086350	0.183079
C34	C	-0.419575	0.413650	0.683079
C35	C	-1.569728	-0.296533	0.100206
C36	C	-1.069728	0.203467	0.600206
C37	C	-1.569736	-0.396191	0.100205
C38	C	-1.069736	0.103809	0.600205
C39	C	-1.485085	-0.446023	0.184813
C40	C	-0.985085	0.053977	0.684813
C41	C	-1.400412	-0.396192	0.269417
C42	C	-0.900412	0.103808	0.769417
C43	C	-1.400398	-0.296536	0.269411
C44	C	-0.900398	0.203464	0.769411
C45	C	-1.400448	-0.603906	0.269427
C46	C	-0.900448	-0.103906	0.769427
C47	C	-1.400463	-0.703569	0.269435
C48	C	-0.900463	-0.203569	0.769435
C49	C	-1.569786	-0.703561	0.100221
C50	C	-1.069786	-0.203561	0.600221
C51	C	-1.569773	-0.603905	0.100215
C52	C	-1.069773	-0.103905	0.600215
C53	C	-1.485100	-0.554081	0.184822
C54	C	-0.985100	-0.054081	0.684822
C55	C	-0.714627	-0.000055	0.177662
C56	C	-0.214627	0.499945	0.677662
C57	C	-0.854069	-0.000044	0.181360
C58	C	-0.354069	0.499956	0.681360
C59	C	-1.492259	-0.000057	-0.044711
C60	C	-0.992259	0.499943	0.455289
C61	C	-1.488567	-0.000055	-0.184155
C62	C	-0.988567	0.499945	0.315845
N63	N	-1.485127	0.246607	0.184834
N64	N	-0.985127	0.746607	0.684834
C65	C	-1.601109	-0.000059	-0.263638
C66	C	-1.101109	0.499941	0.236362
C67	C	-1.597632	-0.000047	-0.394659
C68	C	-1.097632	0.499953	0.105341
C69	C	-1.369063	-0.000031	-0.366700
C70	C	-0.869063	0.499969	0.133300
C71	C	-1.372541	-0.000036	-0.235682
C72	C	-0.872541	0.499964	0.264318
C73	C	-1.477921	-0.000043	0.414363
C74	C	-0.977921	0.499957	0.914363
C75	C	-1.481613	-0.000038	0.553806
C76	C	-0.981613	0.499962	1.053806
H77	H	-0.866248	0.156536	0.181700
H78	H	-0.366248	0.656536	0.681700
Br79	Br	-1.219795	-0.000018	-0.127801
Br80	Br	-0.719795	0.499982	0.372199
Br81	Br	-1.139502	0.203396	0.188916
Br82	Br	-0.639502	0.703396	0.688916
Br83	Br	-1.139500	-0.203470	0.188895
Br84	Br	-0.639500	0.296530	0.688895
H85	H	-0.866236	-0.156633	0.181660
H86	H	-0.366236	0.343367	0.681660
H87	H	-1.638666	-0.255967	0.031315
H88	H	-1.138666	0.244033	0.531315
H89	H	-1.638676	-0.436757	0.031316
H90	H	-1.138676	0.063243	0.531316
H91	H	-1.695585	-0.000072	-0.221690
H92	H	-1.195585	0.499928	0.278310
Br93	Br	-1.684667	-0.536273	-0.014597
Br94	Br	-1.184667	-0.036273	0.485403
H95	H	-1.638729	-0.744134	0.031332
H96	H	-1.138729	-0.244134	0.531332
Br97	Br	-1.750374	-0.000047	-0.502526
Br98	Br	-1.250374	0.499953	-0.002526
H99	H	-1.331530	-0.744137	0.338330
H100	H	-0.831530	-0.244137	0.838330
H101	H	-1.274598	-0.000018	-0.408670
H102	H	-0.774598	0.499982	0.091330
H103	H	-1.331494	-0.563342	0.338319
H104	H	-0.831494	-0.063342	0.838319
H105	H	-1.331481	-0.436770	0.338302
H106	H	-0.831481	0.063230	0.838302
H107	H	-1.331454	-0.255970	0.338300
H108	H	-0.831454	0.244030	0.838300
