data_functionalizedCrystal
_audit_creation_method	'MofGen! by Chris Wilmer'
_symmetry_space_group_name_H-M	'P1'
_symmetry_Int_Tables_number	1
_symmetry_cell_setting	triclinic
loop_
_symmetry_equiv_pos_as_xyz
  x,y,z
_cell_length_a	17.077404
_cell_length_b	14.908520
_cell_length_c	17.077396
_cell_angle_alpha	93.268321
_cell_angle_beta	89.980499
_cell_angle_gamma	93.320938
loop_
_atom_site_label
_atom_site_type_symbol
_atom_site_fract_x
_atom_site_fract_y
_atom_site_fract_z
Zn1	Zn	1.182024	-0.359154	-0.461868
Zn2	Zn	1.682024	0.140846	0.038132
Zn3	Zn	1.174357	-0.510026	-0.338173
Zn4	Zn	1.674357	-0.010026	0.161827
Zn5	Zn	1.050754	-0.359186	-0.330617
Zn6	Zn	1.550754	0.140814	0.169383
Zn7	Zn	1.043152	-0.509972	-0.469394
Zn8	Zn	1.543152	-0.009972	0.030606
O9	O	1.112572	-0.434584	-0.400013
O10	O	1.612572	0.065416	0.099987
O11	O	1.290853	-0.379177	-0.445472
O12	O	1.790853	0.120823	0.054528
O13	O	1.157933	-0.490052	-0.227326
O14	O	1.657933	0.009948	0.272674
O15	O	1.074557	-0.232937	-0.341715
O16	O	1.574557	0.267063	0.158285
O17	O	1.285220	-0.490021	-0.354594
O18	O	1.785220	0.009979	0.145406
O19	O	1.171001	-0.232913	-0.438145
O20	O	1.671001	0.267087	0.061855
O21	O	1.067123	-0.379231	-0.221774
O22	O	1.567123	0.120769	0.278226
O23	O	0.939899	-0.379179	-0.349014
O24	O	1.439899	0.120821	0.150986
O25	O	1.061601	-0.489930	-0.578241
O26	O	1.561601	0.010070	-0.078241
O27	O	0.934314	-0.489961	-0.450973
O28	O	1.434314	0.010039	0.049027
O29	O	1.163629	-0.379125	-0.572711
O30	O	1.663629	0.120875	-0.072711
O31	O	1.150562	-0.636263	-0.361892
O32	O	1.650562	-0.136263	0.138108
O33	O	1.054166	-0.636224	-0.458300
O34	O	1.554166	-0.136224	0.041700
C35	C	0.908625	-0.434568	-0.399990
C36	C	1.408625	0.065432	0.100010
C37	C	0.821374	-0.434583	-0.400001
C38	C	1.321374	0.065417	0.099999
C39	C	0.777492	-0.492354	-0.453014
C40	C	1.277492	0.007646	0.046986
C41	C	0.695511	-0.492356	-0.453027
C42	C	1.195511	0.007644	0.046973
C43	C	0.657414	-0.434591	-0.400022
C44	C	1.157414	0.065409	0.099978
C45	C	0.701302	-0.376813	-0.347005
C46	C	1.201302	0.123187	0.152995
C47	C	0.783282	-0.376807	-0.346997
C48	C	1.283282	0.123193	0.153003
C49	C	0.530432	-0.376831	-0.347025
C50	C	1.030432	0.123169	0.152975
C51	C	0.448447	-0.376837	-0.347032
C52	C	0.948447	0.123163	0.152968
C53	C	0.442661	-0.492380	-0.453055
C54	C	0.942661	0.007620	0.046945
C55	C	0.524640	-0.492374	-0.453047
C56	C	1.024640	0.007626	0.046953
C57	C	0.568523	-0.434597	-0.400029
C58	C	1.068523	0.065403	0.099971
C59	C	1.100728	-0.668978	-0.411750
C60	C	1.600728	-0.168978	0.088250
C61	C	1.095734	-0.769252	-0.416797
C62	C	1.595734	-0.269252	0.083203
C63	C	1.186828	-0.957658	-0.325973
C64	C	1.686828	-0.457658	0.174027
C65	C	1.182137	-1.051875	-0.330713
C66	C	1.682137	-0.551875	0.169287
C67	C	1.081667	-1.051904	-0.431020
C68	C	1.581667	-0.551904	0.068980
C69	C	1.086357	-0.957687	-0.426280
C70	C	1.586357	-0.457687	0.073720
C71	C	1.138939	-0.910568	-0.373754
C72	C	1.638939	-0.410568	0.126246
C73	C	1.143625	-0.816349	-0.369011
C74	C	1.643625	-0.316349	0.130989
C75	C	1.043159	-0.816380	-0.469321
C76	C	1.543159	-0.316380	0.030679
C77	C	1.038468	-0.910597	-0.474061
C78	C	1.538468	-0.410597	0.025939
C79	C	1.317315	-0.434601	-0.400036
C80	C	1.817315	0.065399	0.099964
C81	C	1.404564	-0.434609	-0.400046
C82	C	1.904564	0.065391	0.099954
C83	C	1.112622	-0.434518	-0.604754
C84	C	1.612622	0.065482	-0.104754
C85	C	1.112644	-0.434490	-0.692002
C86	C	1.612644	0.065510	-0.192002
C87	C	1.124482	-0.199276	-0.388248
C88	C	1.624482	0.300724	0.111752
C89	C	1.129558	-0.099001	-0.383234
C90	C	1.629558	0.400999	0.116766
C91	C	1.165772	-0.376788	-0.730114
C92	C	1.665772	0.123212	-0.230114
C93	C	1.165783	-0.376758	-0.812093
C94	C	1.665783	0.123242	-0.312093
C95	C	1.112669	-0.434435	-0.855959
C96	C	1.612669	0.065565	-0.355959
C97	C	1.059535	-0.492138	-0.817842
C98	C	1.559535	0.007862	-0.317842
C99	C	1.059521	-0.492163	-0.735864
C100	C	1.559521	0.007837	-0.235864
C101	C	1.059569	-0.492084	-0.988709
C102	C	1.559569	0.007916	-0.488709
C103	C	1.059584	-0.492061	-1.070693
C104	C	1.559584	0.007939	-0.570693
C105	C	1.165832	-0.376679	-1.064938
C106	C	1.665832	0.123321	-0.564938
C107	C	1.165818	-0.376704	-0.982961
C108	C	1.665818	0.123296	-0.482961
C109	C	1.112684	-0.434409	-0.944849
C110	C	1.612684	0.065591	-0.444849
C111	C	1.112569	-0.434585	-0.196065
C112	C	1.612569	0.065415	0.303935
C113	C	1.112713	-0.434360	-0.108804
C114	C	1.612713	0.065640	0.391196
H115	H	0.566159	-0.329775	-0.303859
H116	H	1.066159	0.170225	0.196141
H117	H	0.417431	-0.329789	-0.303879
H118	H	0.917431	0.170211	0.196121
H119	H	1.186437	-0.777985	-0.326240
H120	H	1.686437	-0.277985	0.173760
C121	C	0.947276	-1.081027	-0.470607
C122	C	1.447276	-0.581027	0.029393
C123	C	1.023878	-1.103702	-0.488761
C124	C	1.523878	-0.603702	0.011239
H125	H	0.911602	-1.113001	-0.506260
H126	H	1.411602	-0.613001	-0.006260
H127	H	0.935052	-1.096530	-0.418643
H128	H	1.435052	-0.596530	0.081357
H129	H	0.943222	-1.018174	-0.474621
H130	H	1.443222	-0.518174	0.025379
H131	H	1.027933	-1.166555	-0.484742
H132	H	1.527933	-0.666555	0.015258
H133	H	1.036105	-1.088206	-0.540738
H134	H	1.536105	-0.588206	-0.040738
C135	C	0.715262	-0.262601	-0.242209
C136	C	1.215262	0.237399	0.257791
C137	C	0.659429	-0.313313	-0.288740
C138	C	1.159429	0.186687	0.211260
H139	H	0.689411	-0.223396	-0.206240
H140	H	1.189411	0.276604	0.293760
H141	H	0.745240	-0.301860	-0.214091
H142	H	1.245240	0.198140	0.285909
H143	H	0.748992	-0.228142	-0.274740
H144	H	1.248992	0.271858	0.225260
H145	H	0.625702	-0.347777	-0.256210
H146	H	1.125702	0.152223	0.243790
H147	H	0.629438	-0.274049	-0.316860
H148	H	1.129438	0.225951	0.183140
H149	H	1.016291	-0.539060	-0.957681
H150	H	1.516291	-0.039060	-0.457681
C151	C	0.863555	-0.613722	-0.469819
C152	C	1.363555	-0.113722	0.030181
C153	C	0.819363	-0.555854	-0.511281
C154	C	1.319363	-0.055854	-0.011281
H155	H	0.889398	-0.652927	-0.505795
H156	H	1.389398	-0.152927	-0.005795
H157	H	0.901422	-0.579318	-0.438253
H158	H	1.401422	-0.079318	0.061747
H159	H	0.829810	-0.648180	-0.437301
H160	H	1.329810	-0.148180	0.062699
H161	H	0.853109	-0.521391	-0.543796
H162	H	1.353109	-0.021391	-0.043796
H163	H	0.781491	-0.590262	-0.542861
H164	H	1.281491	-0.090262	-0.042861
H165	H	0.819010	-0.329759	-0.303831
H166	H	1.319010	0.170241	0.196169
H167	H	0.555656	-0.539416	-0.496205
H168	H	1.055656	-0.039416	0.003795
H169	H	1.016286	-0.539096	-0.853564
H170	H	1.516286	-0.039096	-0.353564
C171	C	0.698026	-0.606587	-0.557803
C172	C	1.198026	-0.106587	-0.057803
C173	C	0.647275	-0.555875	-0.511290
C174	C	1.147275	-0.055875	-0.011290
H175	H	0.668245	-0.645809	-0.593767
H176	H	1.168245	-0.145809	-0.093767
H177	H	0.731991	-0.567329	-0.585924
H178	H	1.231991	-0.067329	-0.085924
H179	H	0.728251	-0.641028	-0.525258
H180	H	1.228251	-0.141028	-0.025258
H181	H	0.617054	-0.521428	-0.543833
H182	H	1.117054	-0.021428	-0.043833
H183	H	0.613296	-0.595138	-0.483166
H184	H	1.113296	-0.095138	0.016834
H185	H	1.016251	-0.539140	-0.704834
H186	H	1.516251	-0.039140	-0.204834
H187	H	0.406928	-0.539421	-0.496226
H188	H	0.906928	-0.039421	0.003774
H189	H	1.229636	-0.919293	-0.283199
H190	H	1.729636	-0.419293	0.216801
C191	C	1.042533	-0.613371	-1.168959
C192	C	1.542533	-0.113371	-0.668959
C193	C	1.001192	-0.555443	-1.118917
C194	C	1.501192	-0.055443	-0.618917
H195	H	1.006480	-0.652499	-1.198728
H196	H	1.506480	-0.152499	-0.698728
H197	H	1.074179	-0.579004	-1.203380
H198	H	1.574179	-0.079004	-0.703380
H199	H	1.074966	-0.647906	-1.138704
H200	H	1.574966	-0.147906	-0.638704
H201	H	0.968763	-0.520902	-1.149172
H202	H	1.468763	-0.020902	-0.649172
H203	H	0.969532	-0.589814	-1.084492
H204	H	1.469532	-0.089814	-0.584492
H205	H	1.221135	-1.090213	-0.291806
H206	H	1.721135	-0.590213	0.208194
C207	C	0.998704	-0.939552	-0.608401
C208	C	1.498704	-0.439552	-0.108401
C209	C	0.980675	-0.962398	-0.531795
C210	C	1.480675	-0.462398	-0.031795
H211	H	0.963025	-0.971537	-0.644043
H212	H	1.463025	-0.471537	-0.144043
H213	H	0.994637	-0.876709	-0.612411
H214	H	1.494637	-0.376709	-0.112411
H215	H	1.050675	-0.954933	-0.620707
H216	H	1.550675	-0.454933	-0.120707
H217	H	0.928706	-0.947012	-0.519488
H218	H	1.428706	-0.447012	-0.019488
H219	H	0.984734	-1.025256	-0.527782
H220	H	1.484734	-0.525256	-0.027782
C221	C	1.005734	-0.671967	-0.506599
C222	C	1.505734	-0.171967	-0.006599
C223	C	0.990516	-0.764616	-0.521849
C224	C	1.490516	-0.264616	-0.021849
H225	H	0.973237	-0.640012	-0.539029
H226	H	1.473237	-0.140012	-0.039029
H227	H	0.995043	-0.656584	-0.453078
H228	H	1.495043	-0.156584	0.046922
H229	H	1.059242	-0.656471	-0.517361
H230	H	1.559242	-0.156471	-0.017361
H231	H	0.937010	-0.780113	-0.511082
H232	H	1.437010	-0.280113	-0.011082
H233	H	1.001201	-0.780005	-0.575383
H234	H	1.501201	-0.280005	-0.075383
H235	H	1.209027	-0.329824	-0.694404
H236	H	1.709027	0.170176	-0.194404
C237	C	1.270812	-0.262727	-0.798172
C238	C	1.770812	0.237273	-0.298172
C239	C	1.224189	-0.313337	-0.853986
C240	C	1.724189	0.186663	-0.353986
H241	H	1.306873	-0.223576	-0.824036
H242	H	1.806873	0.276424	-0.324036
H243	H	1.238356	-0.228223	-0.764468
H244	H	1.738356	0.271777	-0.264468
H245	H	1.298836	-0.302060	-0.768168
H246	H	1.798836	0.197940	-0.268168
H247	H	1.196160	-0.274004	-0.883986
H248	H	1.696160	0.225996	-0.383986
H249	H	1.256649	-0.347844	-0.887704
H250	H	1.756649	0.152156	-0.387704
C251	C	1.213015	-0.325376	-1.188044
C252	C	1.713015	0.174624	-0.688044
C253	C	1.224225	-0.313232	-1.106827
C254	C	1.724225	0.186768	-0.606827
H255	H	1.249059	-0.286203	-1.213904
H256	H	1.749059	0.213797	-0.713904
H257	H	1.221445	-0.385977	-1.204514
H258	H	1.721445	0.114023	-0.704514
H259	H	1.160938	-0.312169	-1.200794
H260	H	1.660938	0.187831	-0.700794
H261	H	1.276300	-0.326446	-1.094076
H262	H	1.776300	0.173554	-0.594076
H263	H	1.215801	-0.252618	-1.090351
H264	H	1.715801	0.247382	-0.590351
H265	H	1.209072	-0.329744	-0.947247
H266	H	1.709072	0.170256	-0.447247
