data_functionalizedCrystal
_audit_creation_method	'MofGen! by Chris Wilmer'
_symmetry_space_group_name_H-M	'P1'
_symmetry_Int_Tables_number	1
_symmetry_cell_setting	triclinic
loop_
_symmetry_equiv_pos_as_xyz
  x,y,z
_cell_length_a	23.532407
_cell_length_b	14.853567
_cell_length_c	13.330367
_cell_angle_alpha	90.000844
_cell_angle_beta	89.989993
_cell_angle_gamma	96.758196
loop_
_atom_site_label
_atom_site_type_symbol
_atom_site_fract_x
_atom_site_fract_y
_atom_site_fract_z
O1	O	0.755740	-0.109438	-0.083472
O2	O	0.589945	-0.125272	-0.083460
O3	O	0.677271	0.013923	-0.083470
O4	O	0.668414	-0.248633	-0.083463
O5	O	0.677259	0.013926	0.083378
O6	O	0.589933	-0.125269	0.083387
O7	O	0.755727	-0.109435	0.083375
Cu8	Cu	0.672829	-0.117352	0.098615
Cu9	Cu	0.672844	-0.117355	-0.098701
O10	O	0.668401	-0.248630	0.083384
C11	C	0.568721	-0.124868	-0.000035
C12	C	0.505499	-0.123655	-0.000031
C13	C	0.676864	0.047509	-0.000049
C14	C	0.675661	0.147580	-0.000057
C15	C	0.776951	-0.109839	-0.000052
C16	C	0.840174	-0.111052	-0.000063
C17	C	1.238950	-0.036283	-0.000030
C18	C	1.298355	-0.037409	-0.000025
O19	O	1.334797	0.031903	0.000009
N20	N	1.321343	-0.120161	-0.000026
C21	C	1.284921	-0.201791	-0.000021
O22	O	1.309929	-0.272282	-0.000020
C23	C	1.225517	-0.200664	-0.000018
C24	C	1.202534	-0.117907	-0.000028
C25	C	1.215966	0.046468	-0.000038
C26	C	1.156565	0.047594	-0.000044
C27	C	1.120148	-0.034031	-0.000042
C28	C	1.143133	-0.116781	-0.000034
C29	C	1.189097	-0.282294	-0.000006
C30	C	1.129690	-0.281160	-0.000003
C31	C	1.106706	-0.198403	-0.000012
C32	C	1.047315	-0.197280	-0.000039
N33	N	1.024328	-0.114528	-0.000038
C34	C	1.060744	-0.032904	-0.000040
C35	C	1.409674	-0.204152	-0.000025
C36	C	1.469077	-0.205280	-0.000035
C37	C	1.482507	-0.040897	-0.000037
C38	C	1.423103	-0.039770	-0.000034
C39	C	1.386687	-0.121400	-0.000024
C40	C	0.935997	-0.030546	-0.000054
C41	C	0.876590	-0.029427	-0.000064
C42	C	0.863166	-0.193810	-0.000057
C43	C	0.922567	-0.194929	-0.000052
C44	C	0.958982	-0.113289	-0.000047
O45	O	1.010838	-0.266555	-0.000069
O46	O	1.035729	0.037575	-0.000027
C47	C	0.668809	-0.282216	-0.000039
C48	C	0.670012	-0.382286	-0.000037
N49	N	0.672822	-0.117349	0.237397
C50	C	0.618704	0.559490	-0.000034
C51	C	0.722449	0.581906	-0.000042
C52	C	0.723580	0.487885	-0.000048
C53	C	0.672272	0.429662	-0.000046
C54	C	0.619833	0.465460	-0.000037
C55	C	0.776017	0.452079	-0.000046
C56	C	0.777150	0.358053	-0.000051
C57	C	0.725842	0.299828	-0.000056
C58	C	0.673401	0.335631	-0.000048
C59	C	0.622093	0.277408	-0.000046
C60	C	0.569652	0.313210	-0.000046
C61	C	0.568524	0.407235	-0.000042
C62	C	0.726969	0.205803	-0.000060
C63	C	0.623222	0.183378	-0.000049
N64	N	0.672855	-0.117351	-0.237482
C65	C	0.634174	-0.178967	0.710024
C66	C	0.711529	-0.055736	0.709984
C67	C	0.711522	-0.055733	0.604965
C68	C	0.672842	-0.117349	0.552471
C69	C	0.634168	-0.178968	0.604996
C70	C	0.750199	0.005878	0.552433
C71	C	0.750195	0.005882	0.447408
C72	C	0.711511	-0.055730	0.394913
C73	C	0.672835	-0.117350	0.447443
C74	C	0.634155	-0.178966	0.394949
C75	C	0.595476	-0.240583	0.447478
C76	C	0.595484	-0.240580	0.552500
C77	C	0.711503	-0.055733	0.289891
C78	C	0.634148	-0.178967	0.289921
H79	H	0.857880	0.037967	-0.000075
H80	H	0.563993	-0.290747	0.595275
H81	H	0.742997	-0.005569	0.247127
H82	H	0.527877	0.265793	-0.000038
H83	H	1.100042	-0.347635	0.000010
H84	H	0.576007	0.588645	-0.000038
C85	C	0.976045	0.059262	-0.000056
N86	N	1.006209	0.126905	-0.000066
C87	C	0.510844	0.446625	-0.000022
N88	N	0.467400	0.476297	0.000003
H89	H	0.563984	-0.290755	0.404726
H90	H	0.764221	0.629316	-0.000035
H91	H	0.769666	0.176657	-0.000053
H92	H	0.581440	0.135978	-0.000052
C93	C	0.832452	0.516129	-0.000041
N94	N	0.874960	0.564376	-0.000039
H95	H	0.819851	0.328911	-0.000052
H96	H	0.602648	-0.229139	0.247187
H97	H	0.602681	-0.229132	0.752795
H98	H	0.743024	-0.005575	0.752728
H99	H	1.137857	0.114983	-0.000048
C100	C	0.792738	0.073668	0.389636
N101	N	0.824780	0.124729	0.346121
H102	H	0.941281	-0.262316	-0.000045
C103	C	1.256016	0.136270	-0.000044
N104	N	1.286178	0.203915	-0.000057
H105	H	1.404394	0.027618	-0.000041
H106	H	1.512169	0.025566	-0.000038
H107	H	1.487785	-0.272669	-0.000041
C108	C	1.369621	-0.293958	-0.000025
N109	N	1.339456	-0.361600	-0.000023
H110	H	0.781695	0.056039	0.595177
H111	H	1.207800	-0.349684	-0.000003
H112	H	0.833505	-0.260266	-0.000060
