data_functionalizedCrystal
_audit_creation_method	'MofGen! by Chris Wilmer'
_symmetry_space_group_name_H-M	'P1'
_symmetry_Int_Tables_number	1
_symmetry_cell_setting	triclinic
loop_
_symmetry_equiv_pos_as_xyz
  x,y,z
_cell_length_a	6.817900
_cell_length_b	19.453103
_cell_length_c	25.898374
_cell_angle_alpha	95.648022
_cell_angle_beta	105.516263
_cell_angle_gamma	101.709178
loop_
_atom_site_label
_atom_site_type_symbol
_atom_site_fract_x
_atom_site_fract_y
_atom_site_fract_z
V1	V	-4.041775	-0.098848	-0.167532
O2	O	-4.037976	0.003037	-0.164086
O3	O	-3.984560	-0.194352	-0.166633
O4	O	-4.003860	-0.098079	-0.240485
O5	O	-4.018542	-0.093902	-0.089722
V6	V	-4.525187	-0.086573	-0.158195
O7	O	-4.303278	-0.125775	-0.188012
O8	O	-4.713882	-0.059645	-0.137714
O9	O	-4.359196	0.008931	-0.159094
O10	O	-4.646384	-0.188458	-0.161641
O11	O	-4.665817	-0.091519	-0.236005
O12	O	-4.339896	-0.087342	-0.085241
C13	C	-3.827077	-0.217610	-0.164053
C14	C	-3.861653	-0.295691	-0.163805
C15	C	-3.851708	-0.094801	-0.258259
C16	C	-3.902876	-0.094803	-0.319022
V17	V	-3.738015	-0.086586	-0.410902
O18	O	-3.750188	-0.091527	-0.336183
O19	O	-3.673054	-0.087361	-0.480825
O20	O	-3.548242	0.008917	-0.383573
O21	O	-3.875864	-0.188472	-0.434108
V22	V	-4.252386	-0.098855	-0.417592
O23	O	-3.960448	-0.059657	-0.430487
O24	O	-4.489974	-0.125778	-0.409675
O25	O	-4.089272	-0.098083	-0.341885
O26	O	-4.360172	-0.093912	-0.495353
O27	O	-4.234496	0.003032	-0.397428
O28	O	-4.214084	-0.194361	-0.439136
C29	C	-4.060057	-0.335972	-0.166371
C30	C	-4.092551	-0.409338	-0.166142
C31	C	-3.926619	-0.442418	-0.163337
C32	C	-3.728190	-0.402128	-0.160774
C33	C	-3.695708	-0.328765	-0.161008
N34	N	-3.813099	-0.548353	-0.130274
N35	N	-3.843968	-0.618046	-0.130051
C36	C	-4.024478	-0.663458	-0.162634
N37	N	-4.172977	-0.636544	-0.195442
N38	N	-4.142109	-0.566845	-0.195663
C39	C	-3.961821	-0.521968	-0.163084
C40	C	-4.258128	-0.783291	-0.164953
C41	C	-4.290618	-0.856659	-0.164728
C42	C	-3.926246	-0.849447	-0.159354
C43	C	-3.893768	-0.776081	-0.159585
C44	C	-4.059713	-0.743008	-0.162382
C45	C	-4.180020	0.032186	-0.161672
C46	C	-4.124683	0.110266	-0.161924
C47	C	-4.155402	-0.090619	-0.067465
C48	C	-4.084416	-0.090612	-0.007822
C49	C	-3.515441	-0.090642	-0.494967
C50	C	-3.544454	-0.090639	-0.554070
C51	C	-3.356231	0.032169	-0.370912
C52	C	-3.284025	0.110250	-0.351146
C53	C	-3.878558	-0.094150	0.017454
C54	C	-3.811862	-0.094148	0.073494
C55	C	-3.951049	-0.090623	0.104253
C56	C	-4.156935	-0.087081	0.078971
C57	C	-4.223618	-0.087076	0.022933
N58	N	-4.009099	-0.128218	0.189384
N59	N	-3.945742	-0.128225	0.242617
C60	C	-3.750145	-0.090637	0.273092
N61	N	-3.620277	-0.053052	0.248321
N62	N	-3.683637	-0.053049	0.195083
C63	C	-3.878761	-0.090628	0.165017
C64	C	-3.471955	-0.094172	0.359133
C65	C	-3.405261	-0.094166	0.415175
C66	C	-3.750346	-0.087106	0.420650
C67	C	-3.817028	-0.087105	0.364610
C68	C	-3.677825	-0.090642	0.333855
C69	C	-4.062097	-0.217622	-0.443076
C70	C	-4.113091	-0.295702	-0.462303
C71	C	-3.430301	0.150526	-0.348242
C72	C	-3.362481	0.223890	-0.329663
C73	C	-3.148385	0.256976	-0.313990
C74	C	-3.002100	0.216694	-0.316893
C75	C	-3.069919	0.143331	-0.335469
C76	C	-3.954749	-0.328776	-0.468519
C77	C	-4.002630	-0.402142	-0.486578
C78	C	-4.208857	-0.442433	-0.498424
C79	C	-4.367208	-0.409355	-0.492205
C80	C	-4.319323	-0.335991	-0.474143
H81	H	-4.254120	-0.442141	-0.168232
H82	H	-3.604637	0.123597	-0.361002
H83	H	-3.093190	0.316714	-0.298866
C84	C	-4.261515	-0.523134	-0.518296
C85	C	-4.355406	-0.575495	-0.485395
C86	C	-4.408052	-0.656195	-0.505270
C87	C	-4.366808	-0.684532	-0.558046
C88	C	-4.272912	-0.632169	-0.590951
C89	C	-4.220266	-0.551470	-0.571076
H90	H	-4.385942	-0.554519	-0.446324
H91	H	-4.477560	-0.694957	-0.480912
H92	H	-4.405780	-0.744270	-0.572759
H93	H	-4.242376	-0.653146	-0.630022
H94	H	-4.150758	-0.512708	-0.595434
H95	H	-3.358603	-0.097046	0.334092
H96	H	-3.732204	-0.743283	-0.157492
H97	H	-3.786820	-0.295979	-0.458879
H98	H	-2.827778	0.243644	-0.304130
H99	H	-3.644212	-0.097018	0.094080
C100	C	-3.523418	0.268191	-0.326478
C101	C	-3.758915	0.231794	-0.343729
C102	C	-3.919854	0.276093	-0.340546
C103	C	-3.845295	0.356789	-0.320113
C104	C	-3.609786	0.393191	-0.302861
C105	C	-3.448848	0.348892	-0.306044
H106	H	-3.814119	0.172053	-0.358856
H107	H	-4.094193	0.249145	-0.353317
H108	H	-3.964431	0.389582	-0.317756
H109	H	-3.554583	0.452932	-0.287734
H110	H	-3.274508	0.375840	-0.293273
C111	C	-2.908994	0.099034	-0.338668
C112	C	-2.764790	0.116194	-0.374756
C113	C	-2.603846	0.071903	-0.377954
C114	C	-2.587107	0.010452	-0.345064
C115	C	-2.731316	-0.006711	-0.308973
C116	C	-2.892259	0.037580	-0.305775
H117	H	-2.777177	0.161686	-0.399105
H118	H	-2.497094	0.084608	-0.404671
H119	H	-2.467967	-0.022336	-0.347431
H120	H	-2.718929	-0.052203	-0.284624
H121	H	-2.999012	0.024875	-0.279059
H122	H	-3.791144	-0.876380	-0.157073
H123	H	-3.765201	-0.097029	-0.007583
H124	H	-4.270258	-0.084211	0.104018
H125	H	-4.195190	-0.309049	-0.168652
H126	H	-3.873669	-0.429063	-0.491641
H127	H	-4.535120	-0.442171	-0.501853
H128	H	-4.448277	-0.309068	-0.469086
H129	H	-4.391254	-0.084196	0.002353
H130	H	-3.534141	-0.295968	-0.158918
H131	H	-4.393250	-0.756361	-0.167230
H132	H	-3.593091	-0.429067	-0.158491
H133	H	-4.452189	-0.889456	-0.166821
H134	H	-3.237624	-0.097045	0.435754
H135	H	-3.984660	-0.084228	0.344029
H136	H	-3.863680	-0.084239	0.445693
