data_functionalizedCrystal
_audit_creation_method	'MofGen! by Chris Wilmer'
_symmetry_space_group_name_H-M	'P1'
_symmetry_Int_Tables_number	1
_symmetry_cell_setting	triclinic
loop_
_symmetry_equiv_pos_as_xyz
  x,y,z
_cell_length_a	14.044220
_cell_length_b	15.538191
_cell_length_c	14.185568
_cell_angle_alpha	97.844956
_cell_angle_beta	104.396658
_cell_angle_gamma	109.769514
loop_
_atom_site_label
_atom_site_type_symbol
_atom_site_fract_x
_atom_site_fract_y
_atom_site_fract_z
O1	O	1.209774	-0.201780	0.083297
O2	O	0.936554	-0.193809	0.083323
O3	O	1.126350	-0.065134	0.083310
O4	O	1.019978	-0.330455	0.083310
O5	O	1.070242	-0.103072	-0.083521
O6	O	0.880446	-0.231747	-0.083508
O7	O	1.153666	-0.239718	-0.083533
Cu8	Cu	1.011933	-0.239196	-0.098754
Cu9	Cu	1.078287	-0.194330	0.098543
O10	O	0.963870	-0.368392	-0.083520
C11	C	0.874386	-0.209291	-0.000089
C12	C	0.772742	-0.198889	-0.000079
C13	C	1.109426	-0.049942	-0.000103
C14	C	1.142579	0.051847	-0.000096
N15	N	1.124960	-0.162767	0.237311
C16	C	0.586615	-0.179880	-0.000099
C17	C	0.503604	-0.253640	-0.000103
C18	C	0.400036	-0.243064	-0.000114
C19	C	0.690193	-0.190455	-0.000088
C20	C	1.215835	-0.224235	-0.000119
C21	C	1.317481	-0.234636	-0.000123
C22	C	0.980795	-0.383584	-0.000105
C23	C	0.947644	-0.485372	-0.000105
C24	C	0.813239	0.367314	-0.000087
C25	C	0.844411	0.462960	-0.000092
C26	C	1.019748	0.470665	-0.000108
C27	C	0.988593	0.375020	-0.000098
C28	C	0.885337	0.323352	-0.000088
C29	C	1.060691	0.331057	-0.000100
C30	C	1.029536	0.235419	-0.000095
C31	C	0.926283	0.183743	-0.000088
C32	C	0.854182	0.227713	-0.000084
C33	C	1.163944	0.382725	-0.000116
C34	C	1.236042	0.338762	-0.000118
C35	C	1.204889	0.243124	-0.000106
C36	C	1.101637	0.191449	-0.000100
C37	C	1.276991	0.199154	-0.000111
C38	C	1.245836	0.103516	-0.000106
C39	C	1.070482	0.095810	-0.000095
N40	N	0.965270	-0.270752	-0.237521
C41	C	0.828130	-0.363398	0.604981
C42	C	0.863500	-0.339515	0.710000
C43	C	1.031712	-0.225849	0.709950
C44	C	0.996358	-0.249725	0.604929
C45	C	0.894566	-0.318499	0.552453
C46	C	1.062793	-0.204827	0.552400
C47	C	1.027440	-0.228698	0.447388
C48	C	0.925650	-0.297467	0.394904
C49	C	0.859212	-0.342371	0.447441
C50	C	1.164582	-0.136048	0.604878
C51	C	1.231018	-0.091149	0.552349
C52	C	1.195668	-0.115025	0.447335
C53	C	1.093878	-0.183795	0.394852
C54	C	1.262106	-0.070122	0.394799
C55	C	1.226752	-0.093993	0.289787
C56	C	1.058525	-0.207666	0.289840
H57	H	0.510317	-0.324731	-0.000098
H58	H	0.579902	-0.108795	-0.000104
H59	H	1.344982	-0.014118	0.437539
H60	H	0.729160	0.325245	-0.000072
H61	H	0.809390	-0.376082	0.752764
H62	H	0.785687	0.498747	-0.000105
H63	H	0.986403	0.053741	-0.000080
H64	H	0.900916	0.105867	-0.000090
H65	H	1.361058	0.241234	-0.000128
H66	H	0.770103	0.185644	-0.000068
H67	H	0.776327	-0.398381	0.404713
H68	H	1.103818	0.512745	-0.000120
H69	H	1.189310	0.460602	-0.000111
H70	H	1.114591	-0.169849	0.752688
H71	H	1.320112	0.380842	-0.000130
H72	H	1.280852	-0.057431	0.247018
H73	H	0.745245	-0.419408	0.562253
H74	H	1.193361	-0.116611	0.690385
H75	H	1.304545	0.067720	-0.000109
H76	H	0.975639	-0.263676	0.247112
H77	H	0.896865	-0.316899	0.309397
H78	H	1.313897	-0.035150	0.595087
