data_functionalizedCrystal
_audit_creation_method	'MofGen! by Chris Wilmer'
_symmetry_space_group_name_H-M	'P1'
_symmetry_Int_Tables_number	1
_symmetry_cell_setting	triclinic
loop_
_symmetry_equiv_pos_as_xyz
  x,y,z
_cell_length_a	14.853567
_cell_length_b	10.654550
_cell_length_c	9.130313
_cell_angle_alpha	89.996987
_cell_angle_beta	89.995164
_cell_angle_gamma	95.940083
loop_
_atom_site_label
_atom_site_type_symbol
_atom_site_fract_x
_atom_site_fract_y
_atom_site_fract_z
O1	O	0.126619	-1.666518	0.121906
O2	O	0.138683	-1.300914	0.121881
O3	O	0.001474	-1.493482	0.121899
O4	O	0.263829	-1.473950	0.121889
O5	O	0.001483	-1.493481	-0.121700
O6	O	0.138693	-1.300913	-0.121717
O7	O	0.126629	-1.666517	-0.121693
Cu8	Cu	0.132661	-1.483715	-0.143948
Cu9	Cu	0.132650	-1.483716	0.144136
O10	O	0.263838	-1.473949	-0.121710
C11	C	-0.032115	-1.492596	0.000104
C12	C	-0.132213	-1.489944	0.000116
C13	C	0.137802	-1.254125	0.000079
C14	C	0.135152	-1.114709	0.000070
C15	C	0.127510	-1.713306	0.000113
C16	C	0.130160	-1.852722	0.000131
C17	C	-0.545419	-1.364344	0.000080
C18	C	-0.565475	-1.593119	0.000095
C19	C	-0.471428	-1.595613	0.000104
C20	C	-0.414372	-1.482470	0.000099
C21	C	-0.451363	-1.366834	0.000084
C22	C	-0.434430	-1.711247	0.000104
C23	C	-0.340378	-1.713745	0.000111
C24	C	-0.283320	-1.600601	0.000116
C25	C	-0.320316	-1.484961	0.000103
C26	C	-0.263260	-1.371818	0.000097
C27	C	-0.300254	-1.256176	0.000095
C28	C	-0.394305	-1.253691	0.000089
C29	C	-0.189269	-1.603087	0.000122
C30	C	-0.169204	-1.374308	0.000102
C31	C	0.297427	-1.474835	0.000088
C32	C	0.397525	-1.477487	0.000085
N33	N	0.132669	-1.483724	-0.346570
C34	C	0.215939	-1.034384	0.000088
C35	C	0.213443	-0.903389	0.000114
C36	C	0.049367	-0.933057	0.000109
C37	C	0.051863	-1.064050	0.000073
C38	C	0.310667	-1.017254	0.000097
C39	C	0.308171	-0.886260	0.000123
C40	C	0.193380	-1.398434	-0.576605
C41	C	0.193395	-1.398434	-0.423269
C42	C	0.071918	-1.569011	-0.423217
C43	C	0.071900	-1.569004	-0.576551
C44	C	0.263516	-1.299956	-0.576634
C45	C	0.263531	-1.299956	-0.423297
N46	N	0.132636	-1.483717	0.346759
H47	H	-0.122754	-1.282173	0.000104
H48	H	0.022468	-1.638449	-0.360759
H49	H	-0.018444	-0.891794	0.000134
C50	C	0.360729	-1.056367	-0.137615
H51	H	0.379614	-0.983562	-0.194237
H52	H	0.412168	-1.096616	-0.109297
H53	H	0.321279	-1.113040	-0.194282
H54	H	0.022429	-1.638437	-0.638946
C55	C	0.242657	-1.169793	-0.632846
H56	H	0.234081	-1.116270	-0.551911
H57	H	0.291811	-1.133556	-0.690664
H58	H	0.189198	-1.179256	-0.690626
H59	H	0.336803	-0.840291	-0.105046
H60	H	-0.480892	-1.803361	0.000095
H61	H	-0.253787	-1.164056	0.000080
C62	C	-0.434997	-1.126497	0.000085
H63	H	-0.387548	-1.059467	0.000099
H64	H	-0.471264	-1.120767	-0.084865
H65	H	-0.471275	-1.120779	0.085042
H66	H	0.241584	-1.208995	-0.375730
C67	C	0.357141	-1.327977	-0.367110
H68	H	0.395626	-1.339514	-0.448055
H69	H	0.382773	-1.259220	-0.309322
H70	H	0.350769	-1.402510	-0.309306
H71	H	-0.310265	-1.807907	0.000115
H72	H	0.343859	-0.844156	0.102075
C73	C	-0.586103	-1.237145	0.000085
H74	H	-0.538650	-1.170122	0.000094
H75	H	-0.622375	-1.231407	-0.084857
H76	H	-0.622375	-1.231423	0.085050
C77	C	-0.628229	-1.717568	0.000100
H78	H	-0.592727	-1.786792	0.000101
H79	H	-0.665345	-1.721349	0.085043
H80	H	-0.665326	-1.721352	-0.084864
C81	C	-0.148578	-1.730275	0.000121
H82	H	-0.196028	-1.797301	0.000125
H83	H	-0.112296	-1.735996	-0.084823
H84	H	-0.112315	-1.736007	0.085084
H85	H	0.340826	-1.052597	0.105268
H86	H	-0.013921	-1.129447	0.000037
H87	H	0.328985	-1.329799	-0.624225
