data_functionalizedCrystal
_audit_creation_method	'MofGen! by Chris Wilmer'
_symmetry_space_group_name_H-M	'P1'
_symmetry_Int_Tables_number	1
_symmetry_cell_setting	triclinic
loop_
_symmetry_equiv_pos_as_xyz
  x,y,z
_cell_length_a	14.519709
_cell_length_b	15.186229
_cell_length_c	16.109304
_cell_angle_alpha	90.003016
_cell_angle_beta	83.571391
_cell_angle_gamma	89.994892
loop_
_atom_site_label
_atom_site_type_symbol
_atom_site_fract_x
_atom_site_fract_y
_atom_site_fract_z
O1	O	1.223631	0.073108	0.108987
O2	O	1.723631	0.573108	0.608987
O3	O	0.955127	0.073135	0.121822
O4	O	1.455127	0.573135	0.621822
O5	O	1.096754	0.073121	-0.005614
O6	O	1.596754	0.573121	0.494386
O7	O	1.082004	0.073122	0.236422
O8	O	1.582004	0.573122	0.736422
O9	O	1.096753	-0.073336	-0.005621
O10	O	1.596753	0.426664	0.494379
O11	O	0.955126	-0.073323	0.121814
O12	O	1.455126	0.426677	0.621814
O13	O	1.223630	-0.073349	0.108979
O14	O	1.723630	0.426651	0.608979
Zn15	Zn	1.089378	-0.096589	0.115395
Zn16	Zn	1.589378	0.403411	0.615395
Zn17	Zn	1.089379	0.096375	0.115406
Zn18	Zn	1.589379	0.596375	0.615406
O19	O	1.082003	-0.073336	0.236415
O20	O	1.582003	0.426664	0.736415
C21	C	0.920768	-0.000091	0.121220
C22	C	1.420768	0.499909	0.621220
C23	C	0.818390	-0.000080	0.119427
C24	C	1.318390	0.499920	0.619427
N25	N	1.089383	-0.228282	0.115388
N26	N	1.589383	0.271718	0.615388
N27	N	1.089381	0.228067	0.115406
N28	N	1.589381	0.728067	0.615406
C29	C	0.443509	-0.000121	0.112829
C30	C	0.943509	0.499879	0.612829
C31	C	0.547813	-0.000109	0.114661
C32	C	1.047813	0.499891	0.614661
C33	C	0.630946	-0.000100	0.116128
C34	C	1.130946	0.499900	0.616128
C35	C	0.735257	-0.000090	0.117961
C36	C	1.235257	0.499910	0.617961
C37	C	1.257989	-0.000122	0.109581
C38	C	1.757989	0.499878	0.609581
C39	C	1.360366	-0.000126	0.111374
C40	C	1.860366	0.499874	0.611374
C41	C	1.096155	-0.000105	-0.036593
C42	C	1.596155	0.499895	0.463407
C43	C	1.094363	-0.000099	-0.128892
C44	C	1.594363	0.499901	0.371108
C45	C	1.152214	0.453784	0.059087
C46	C	1.652214	0.953784	0.559087
C47	C	1.152217	0.545974	0.059085
C48	C	1.652217	1.045974	0.559085
C49	C	1.026547	0.545995	0.171713
C50	C	1.526547	1.045995	0.671713
C51	C	1.026550	0.453807	0.171719
C52	C	1.526550	0.953807	0.671719
C53	C	1.089382	0.407704	0.115401
C54	C	1.589382	0.907704	0.615401
C55	C	1.089382	0.592082	0.115393
C56	C	1.589382	1.092082	0.615393
C57	C	1.089385	0.692038	0.115391
C58	C	1.589385	1.192038	0.615391
C59	C	1.089381	0.307741	0.115404
C60	C	1.589381	0.807741	0.615404
C61	C	1.090222	0.079732	-0.341232
C62	C	1.590222	0.579732	0.158768
C63	C	1.088529	0.079731	-0.427955
C64	C	1.588529	0.579731	0.072045
C65	C	1.088532	-0.079945	-0.427960
C66	C	1.588532	0.420055	0.072040
C67	C	1.090219	-0.079943	-0.341238
C68	C	1.590219	0.420057	0.158762
C69	C	1.091068	-0.000102	-0.297877
C70	C	1.591068	0.499898	0.202123
C71	C	1.087689	-0.000104	-0.471322
C72	C	1.587689	0.499896	0.028678
C73	C	1.085854	-0.000106	-0.565351
C74	C	1.585854	0.499894	-0.065351
C75	C	1.092902	-0.000101	-0.203842
C76	C	1.592902	0.499899	0.296158
C77	C	1.082602	-0.000107	0.267394
C78	C	1.582602	0.499893	0.767394
C79	C	1.084394	-0.000107	0.359693
C80	C	1.584394	0.499893	0.859693
H81	H	1.203377	0.416249	0.013232
H82	H	1.703377	0.916249	0.513232
C83	C	1.221328	0.596659	-0.002863
C84	C	1.721328	1.096659	0.497137
H85	H	1.258741	0.555995	-0.036405
H86	H	1.758741	1.055995	0.463595
H87	H	1.259635	0.632622	0.027190
H88	H	1.759635	1.132622	0.527190
H89	H	1.188240	0.632618	-0.037608
H90	H	1.688240	1.132618	0.462392
H91	H	0.975389	0.583541	0.217564
H92	H	1.475389	1.083541	0.717564
C93	C	1.087607	0.167548	-0.475643
C94	C	1.587607	0.667548	0.024357
H95	H	1.088362	0.215095	-0.437397
H96	H	1.588362	0.715095	0.062603
H97	H	1.033203	0.170878	-0.503214
H98	H	1.533203	0.670878	-0.003214
H99	H	1.140704	0.170858	-0.515734
H100	H	1.640704	0.670858	-0.015734
C101	C	0.957433	0.403111	0.233665
C102	C	1.457433	0.903111	0.733665
H103	H	0.966442	0.341605	0.225608
H104	H	1.466442	0.841605	0.725608
H105	H	0.895921	0.418217	0.224406
H106	H	1.395921	0.918217	0.724406
H107	H	0.967315	0.418225	0.289205
H108	H	1.467315	0.918225	0.789205
H109	H	1.090911	0.144743	-0.305929
H110	H	1.590911	0.644743	0.194071
H111	H	1.090902	-0.144957	-0.305937
H112	H	1.590902	0.355043	0.194063
H113	H	1.087843	-0.144948	-0.463276
H114	H	1.587843	0.355052	0.036724
