data_functionalizedCrystal
_audit_creation_method	'MofGen! by Chris Wilmer'
_symmetry_space_group_name_H-M	'P1'
_symmetry_Int_Tables_number	1
_symmetry_cell_setting	triclinic
loop_
_symmetry_equiv_pos_as_xyz
  x,y,z
_cell_length_a	12.645323
_cell_length_b	11.169417
_cell_length_c	11.169416
_cell_angle_alpha	90.012027
_cell_angle_beta	90.020622
_cell_angle_gamma	90.020996
loop_
_atom_site_label
_atom_site_type_symbol
_atom_site_fract_x
_atom_site_fract_y
_atom_site_fract_z
Zn1	Zn	-0.599430	-1.834931	0.477832
Zn2	Zn	-0.422183	-1.834813	0.678546
Zn3	Zn	-0.422180	-1.634220	0.477872
Zn4	Zn	-0.599404	-1.634215	0.678468
O5	O	-0.510799	-1.734545	0.578179
O6	O	-0.575930	-2.002865	0.504473
O7	O	-0.273835	-1.808157	0.651976
O8	O	-0.445702	-1.660896	0.309917
O9	O	-0.445708	-2.002779	0.651937
O10	O	-0.575927	-1.808358	0.309887
O11	O	-0.273833	-1.660781	0.504542
O12	O	-0.445676	-1.466269	0.504466
O13	O	-0.747755	-1.660888	0.651803
O14	O	-0.575882	-1.466266	0.651842
O15	O	-0.747774	-1.808353	0.504397
O16	O	-0.445683	-1.808152	0.846486
O17	O	-0.575886	-1.660774	0.846428
C18	C	-0.510777	-1.422720	0.578151
C19	C	-0.510792	-1.289320	0.578167
C20	C	-0.787305	-1.734633	0.578087
C21	C	-0.905135	-1.734671	0.578047
C22	C	-1.072687	-1.641614	0.670343
C23	C	-0.950127	-1.641858	0.670800
C24	C	-0.949654	-1.861133	0.612374
C25	C	-1.072252	-1.860623	0.612953
C26	C	-1.072325	-1.702461	0.450908
C27	C	-0.949719	-1.699640	0.451669
C28	C	-0.235369	-1.734526	0.578185
C29	C	-0.117540	-1.734721	0.577887
C30	C	-0.510805	-1.734482	0.890004
C31	C	-0.510843	-1.734565	1.023404
C32	C	-0.510814	-1.047587	0.578199
C33	C	-0.510799	-1.180987	0.578181
C34	C	-0.510828	-1.734628	1.265137
C35	C	-0.510868	-1.734633	1.131737
H36	H	-0.920026	-1.548082	0.649319
H37	H	-0.919091	-1.762499	0.379142
H38	H	-1.101332	-1.770275	0.382024
N39	N	-0.913397	-1.668751	0.788868
N40	N	-0.857006	-1.758938	0.806480
H41	H	-0.831083	-1.777975	0.889868
N42	N	-1.108163	-1.894942	0.729389
N43	N	-1.083648	-1.994993	0.771110
H44	H	-1.109007	-2.019234	0.853346
H45	H	-1.103511	-1.662704	0.763890
N46	N	-1.109467	-1.950600	0.532139
N47	N	-1.044892	-2.013577	0.475498
H48	H	-1.071170	-2.077125	0.418425
H49	H	-1.103230	-1.611850	0.419618
N50	N	-0.913095	-1.950485	0.530561
N51	N	-0.853678	-1.921888	0.445841
H52	H	-0.827856	-1.984991	0.388057
N53	N	-0.911155	-1.896041	0.727592
N54	N	-0.813922	-1.905943	0.745159
H55	H	-0.786732	-1.930593	0.826533
H56	H	-0.920620	-1.606575	0.425782
H57	H	-1.102161	-1.547560	0.649069
