data_functionalizedCrystal
_audit_creation_method	'MofGen! by Chris Wilmer'
_symmetry_space_group_name_H-M	'P1'
_symmetry_Int_Tables_number	1
_symmetry_cell_setting	triclinic
loop_
_symmetry_equiv_pos_as_xyz
  x,y,z
_cell_length_a	6.394989
_cell_length_b	16.109317
_cell_length_c	14.586319
_cell_angle_alpha	90.004047
_cell_angle_beta	89.996926
_cell_angle_gamma	84.982963
loop_
_atom_site_label
_atom_site_type_symbol
_atom_site_fract_x
_atom_site_fract_y
_atom_site_fract_z
O1	O	-0.268652	-1.105962	0.076136
O2	O	-0.302028	-0.864255	0.076159
O3	O	0.018726	-0.988540	0.076148
O4	O	-0.589406	-0.981678	0.076147
O5	O	0.018746	-0.988538	-0.076333
O6	O	-0.302008	-0.864254	-0.076322
O7	O	-0.268632	-1.105961	-0.076344
Cu8	Cu	-0.285318	-0.985107	-0.090256
Cu9	Cu	-0.285342	-0.985109	0.090070
O10	O	-0.589386	-0.981677	-0.076333
C11	C	-0.300660	-0.833266	-0.000078
C12	C	-0.296589	-0.740928	-0.000070
N13	N	-0.285300	-0.985113	-0.217088
C14	C	-0.283450	-0.441716	0.083037
C15	C	-0.287262	-0.528477	0.083041
C16	C	-0.287211	-0.528495	-0.083202
C17	C	-0.283385	-0.441735	-0.083205
C18	C	-0.281515	-0.398348	-0.000082
C19	C	-0.289153	-0.571869	-0.000076
C20	C	-0.293286	-0.665939	-0.000072
C21	C	-0.277378	-0.304271	-0.000086
C22	C	0.096557	-0.987182	-0.000089
C23	C	0.332789	-0.983036	-0.000088
C24	C	-0.270002	-0.136951	-0.000100
C25	C	-0.274079	-0.229288	-0.000088
N26	N	-0.285343	-0.985110	0.216902
C27	C	-0.143589	-1.040255	0.451904
C28	C	-0.143584	-1.040258	0.547885
C29	C	-0.427070	-0.929965	0.547904
C30	C	-0.427083	-0.929967	0.451925
C31	C	-0.285331	-0.985111	0.403927
C32	C	-0.285313	-0.985111	0.595888
C33	C	-0.285308	-0.985114	0.699955
C34	C	-0.285337	-0.985111	0.299853
H35	H	-0.281925	-0.406392	0.150721
Br36	Br	0.048784	-1.115095	0.386767
Br37	Br	0.048779	-1.115104	0.612993
H38	H	-0.542478	-0.885066	0.586993
Br39	Br	-0.619476	-0.855130	0.386805
H40	H	-0.288835	-0.563784	0.150726
H41	H	-0.281807	-0.406424	-0.150895
Br42	Br	-0.289767	-0.587382	-0.196005
